
     RDKit          3D

 38 41  0  0  0  0  0  0  0  0999 V2000
    8.2839    1.2427   22.2776 C   0  0  0  0  0  0  0  0  0  0  0  0
    7.5641   -0.0191   22.2357 N   0  0  0  0  0  0  0  0  0  0  0  0
    7.0036   -0.5702   23.3498 C   0  0  0  0  0  0  0  0  0  0  0  0
    6.9868   -0.0590   24.4461 O   0  0  0  0  0  0  0  0  0  0  0  0
    6.4765   -1.8250   23.0090 N   0  0  0  0  0  0  0  0  0  0  0  0
    5.7848   -2.7129   23.8941 C   0  0  0  0  0  0  0  0  0  0  0  0
    5.0430   -2.1783   24.9857 C   0  0  0  0  0  0  0  0  0  0  0  0
    4.1874   -2.9864   25.6990 C   0  0  0  0  0  0  0  0  0  0  0  0
    4.1010   -4.3827   25.4215 C   0  0  0  0  0  0  0  0  0  0  0  0
    3.2643   -5.2733   26.1559 C   0  0  0  0  0  0  0  0  0  0  0  0
    3.3238   -6.6171   25.8823 C   0  0  0  0  0  0  0  0  0  0  0  0
    4.0926   -7.1633   24.8956 N   0  0  0  0  0  0  0  0  0  0  0  0
    4.8121   -6.3459   24.1796 C   0  0  0  0  0  0  0  0  0  0  0  0
    5.7231   -7.0658   22.8794 Cl  0  0  0  0  0  0  0  0  0  0  0  0
    4.9194   -4.9265   24.3797 C   0  0  0  0  0  0  0  0  0  0  0  0
    5.7622   -4.0656   23.6216 C   0  0  0  0  0  0  0  0  0  0  0  0
    6.3733   -4.4692   22.8250 H   0  0  0  0  0  0  0  0  0  0  0  0
    2.7389   -7.3306   26.4571 H   0  0  0  0  0  0  0  0  0  0  0  0
    2.6049   -4.8861   26.9285 H   0  0  0  0  0  0  0  0  0  0  0  0
    3.5680   -2.5654   26.4863 H   0  0  0  0  0  0  0  0  0  0  0  0
    5.1418   -1.1182   25.1853 H   0  0  0  0  0  0  0  0  0  0  0  0
    6.5376   -2.0111   21.6399 C   0  0  0  0  0  0  0  0  0  0  0  0
    6.1019   -2.9542   21.0241 O   0  0  0  0  0  0  0  0  0  0  0  0
    7.3016   -0.8130   21.0545 C   0  0  0  0  0  0  0  0  0  0  0  0
    6.5931   -0.0325   19.9572 C   0  0  0  0  0  0  0  0  0  0  0  0
    5.3764    0.6310   20.1621 C   0  0  0  0  0  0  0  0  0  0  0  0
    4.8065    1.3010   19.0787 C   0  0  0  0  0  0  0  0  0  0  0  0
    5.4708    1.2948   17.8475 C   0  0  0  0  0  0  0  0  0  0  0  0
    6.6394    0.6709   17.6392 N   0  0  0  0  0  0  0  0  0  0  0  0
    7.1773    0.0356   18.6855 C   0  0  0  0  0  0  0  0  0  0  0  0
    8.1319   -0.4643   18.5127 H   0  0  0  0  0  0  0  0  0  0  0  0
    5.0492    1.8159   16.9906 H   0  0  0  0  0  0  0  0  0  0  0  0
    3.8806    1.8527   19.1796 H   0  0  0  0  0  0  0  0  0  0  0  0
    4.9012    0.6491   21.1449 H   0  0  0  0  0  0  0  0  0  0  0  0
    8.2314   -1.2408   20.6533 H   0  0  0  0  0  0  0  0  0  0  0  0
    7.6387    2.0655   22.6055 H   0  0  0  0  0  0  0  0  0  0  0  0
    9.1195    1.1732   22.9806 H   0  0  0  0  0  0  0  0  0  0  0  0
    8.6755    1.4841   21.2857 H   0  0  0  0  0  0  0  0  0  0  0  0
  1  2  1  0
  2  3  1  0
  3  4  2  0
  3  5  1  0
  5  6  1  0
  6  7  2  0
  7  8  1  0
  8  9  2  0
  9 10  1  0
 10 11  2  0
 11 12  1  0
 12 13  2  0
 13 14  1  0
 13 15  1  0
 15 16  2  0
 16 17  1  0
 11 18  1  0
 10 19  1  0
  8 20  1  0
  7 21  1  0
  5 22  1  0
 22 23  2  0
 22 24  1  0
 24 25  1  0
 25 26  2  0
 26 27  1  0
 27 28  2  0
 28 29  1  0
 29 30  2  0
 30 31  1  0
 28 32  1  0
 27 33  1  0
 26 34  1  0
 24 35  1  0
  1 36  1  0
  1 37  1  0
  1 38  1  0
 24  2  1  0
 30 25  1  0
 16  6  1  0
 15  9  1  0
M  END
>  <cnnaffinity>  (1) 
5.53621

>  <plip>  (1) 
-0.034482758620689655

>  <filename>  (1) 
[H][c]1[n][c]([H])[c]([C]2([H])[C](=[O])[N]([c]3[c]([H])[c]([H])[c]4[c]([H])[c]([H])[n][c]([Cl])[c]4[c]3[H])[C](=[O])[N]2[C]([H])([H])[H])[c]([H])[c]1[H]

>  <combo1>  (1) 
-0.18037988922631726

$$$$
