
     RDKit          3D

 25 27  0  0  0  0  0  0  0  0999 V2000
    8.0343   -4.9790   26.6308 H   0  0  0  0  0  0  0  0  0  0  0  0
    7.7231   -4.3209   25.8243 C   0  0  0  0  0  0  0  0  0  0  0  0
    6.4826   -4.0119   25.5980 N   0  0  0  0  0  0  0  0  0  0  0  0
    6.3985   -3.1653   24.5217 C   0  0  0  0  0  0  0  0  0  0  0  0
    5.4376   -2.8027   24.1726 H   0  0  0  0  0  0  0  0  0  0  0  0
    7.5865   -2.8361   23.9314 C   0  0  0  0  0  0  0  0  0  0  0  0
    7.7924   -1.9783   22.8150 N   0  0  0  0  0  0  0  0  0  0  0  0
    9.0455   -1.5198   22.3997 C   0  0  0  0  0  0  0  0  0  0  0  0
   10.0961   -1.8153   22.8985 O   0  0  0  0  0  0  0  0  0  0  0  0
    8.7829   -0.6382   21.1813 C   0  0  0  0  0  0  0  0  0  0  0  0
    9.5819   -0.0447   20.5091 O   0  0  0  0  0  0  0  0  0  0  0  0
    7.4091   -0.6876   20.9756 N   0  0  0  0  0  0  0  0  0  0  0  0
    6.7087   -0.0160   19.9072 C   0  0  0  0  0  0  0  0  0  0  0  0
    7.2064    0.0393   18.5837 C   0  0  0  0  0  0  0  0  0  0  0  0
    8.1556   -0.4339   18.3466 H   0  0  0  0  0  0  0  0  0  0  0  0
    6.5676    0.6505   17.5815 N   0  0  0  0  0  0  0  0  0  0  0  0
    5.4118    1.2725   17.8646 C   0  0  0  0  0  0  0  0  0  0  0  0
    4.9337    1.7893   17.0350 H   0  0  0  0  0  0  0  0  0  0  0  0
    4.8312    1.2798   19.1372 C   0  0  0  0  0  0  0  0  0  0  0  0
    3.8972    1.8151   19.2959 H   0  0  0  0  0  0  0  0  0  0  0  0
    5.4863    0.6065   20.1780 C   0  0  0  0  0  0  0  0  0  0  0  0
    5.0660    0.5518   21.1815 H   0  0  0  0  0  0  0  0  0  0  0  0
    6.8492   -1.6423   21.8264 C   0  0  0  0  0  0  0  0  0  0  0  0
    5.7713   -2.1504   21.7071 O   0  0  0  0  0  0  0  0  0  0  0  0
    8.8945   -3.6213   24.7710 S   0  0  0  0  0  0  0  0  0  0  0  0
  1  2  1  0
  2  3  2  0
  3  4  1  0
  4  5  1  0
  4  6  2  0
  6  7  1  0
  7  8  1  0
  8  9  2  0
  8 10  1  0
 10 11  2  0
 10 12  1  0
 12 13  1  0
 13 14  2  0
 14 15  1  0
 14 16  1  0
 16 17  2  0
 17 18  1  0
 17 19  1  0
 19 20  1  0
 19 21  2  0
 21 22  1  0
 12 23  1  0
 23 24  2  0
  6 25  1  0
 25  2  1  0
 23  7  1  0
 21 13  1  0
M  END
>  <cnnaffinity>  (1) 
4.82241

>  <plip>  (1) 
-0.07142857142857142

>  <filename>  (1) 
[H][c]1[n][c]([H])[c]([N]2[C](=[O])[C](=[O])[N]([c]3[c]([H])[n][c]([H])[c]([H])[c]3[H])[C]2=[O])[s]1

>  <combo1>  (1) 
-0.41864970124912304

$$$$
