
     RDKit          3D

 42 44  0  0  0  0  0  0  0  0999 V2000
    9.5597    6.2025   24.3848 O   0  0  0  0  0  0  0  0  0  0  0  0
    9.2908    5.0550   24.1439 C   0  0  0  0  0  0  0  0  0  0  0  0
    8.1301    4.4113   24.5307 N   0  0  0  0  0  0  0  0  0  0  0  0
    8.0501    3.1182   24.1212 C   0  0  0  0  0  0  0  0  0  0  0  0
    7.1363    2.3518   24.3103 O   0  0  0  0  0  0  0  0  0  0  0  0
    9.3672    2.8444   23.3505 C   0  0  0  0  0  0  0  0  0  0  0  0
    9.1348    2.4490   21.8860 C   0  0  0  0  0  0  0  0  0  0  0  0
    9.1514    0.9509   21.6083 C   0  0  0  0  0  0  0  0  0  0  0  0
    7.8926    0.2277   22.0587 N   0  0  0  0  0  4  0  0  0  0  0  0
    8.0529   -0.4644   23.4233 C   0  0  0  0  0  0  0  0  0  0  0  0
    8.4405   -1.9447   23.2731 C   0  0  0  0  0  0  0  0  0  0  0  0
    7.3301   -2.7536   22.5505 N   0  0  0  0  0  4  0  0  0  0  0  0
    6.5304   -1.8709   21.5521 C   0  0  0  0  0  0  0  0  0  0  0  0
    7.3925   -0.7477   20.9562 C   0  0  0  0  0  0  0  0  0  0  0  0
    6.6564    0.0286   19.9041 C   0  0  0  0  0  0  0  0  0  0  0  0
    5.4375    0.6739   20.1541 C   0  0  0  0  0  0  0  0  0  0  0  0
    4.8011    1.3249   19.0973 C   0  0  0  0  0  0  0  0  0  0  0  0
    5.3946    1.3048   17.8312 C   0  0  0  0  0  0  0  0  0  0  0  0
    6.5580    0.6908   17.5775 N   0  0  0  0  0  0  0  0  0  0  0  0
    7.1652    0.0794   18.5981 C   0  0  0  0  0  0  0  0  0  0  0  0
    8.1119   -0.4109   18.3588 H   0  0  0  0  0  0  0  0  0  0  0  0
    4.9202    1.7991   16.9839 H   0  0  0  0  0  0  0  0  0  0  0  0
    3.8690    1.8553   19.2396 H   0  0  0  0  0  0  0  0  0  0  0  0
    4.9935    0.6616   21.1552 H   0  0  0  0  0  0  0  0  0  0  0  0
    8.2876   -1.2094   20.5222 H   0  0  0  0  0  0  0  0  0  0  0  0
    5.6949   -1.3920   22.0626 H   0  0  0  0  0  0  0  0  0  0  0  0
    6.1272   -2.4598   20.7311 H   0  0  0  0  0  0  0  0  0  0  0  0
    7.7394   -3.5521   22.0068 H   0  0  0  0  0  0  0  0  0  0  0  0
    6.6884   -3.1521   23.2810 H   0  0  0  0  0  0  0  0  0  0  0  0
    8.6426   -2.3769   24.2523 H   0  0  0  0  0  0  0  0  0  0  0  0
    9.3642   -1.9883   22.6878 H   0  0  0  0  0  0  0  0  0  0  0  0
    7.1124   -0.3736   23.9744 H   0  0  0  0  0  0  0  0  0  0  0  0
    8.8132    0.0639   24.0008 H   0  0  0  0  0  0  0  0  0  0  0  0
    7.1588    0.9759   22.1355 H   0  0  0  0  0  0  0  0  0  0  0  0
    9.2567    0.8119   20.5302 H   0  0  0  0  0  0  0  0  0  0  0  0
   10.0337    0.4963   22.0777 H   0  0  0  0  0  0  0  0  0  0  0  0
    9.9434    2.9002   21.3085 H   0  0  0  0  0  0  0  0  0  0  0  0
    8.1962    2.8868   21.5188 H   0  0  0  0  0  0  0  0  0  0  0  0
   10.0337    4.1331   23.4824 N   0  0  0  0  0  0  0  0  0  0  0  0
   10.9264    4.4295   23.1236 H   0  0  0  0  0  0  0  0  0  0  0  0
    9.8999    2.0537   23.9040 H   0  0  0  0  0  0  0  0  0  0  0  0
    7.4218    4.9156   25.0270 H   0  0  0  0  0  0  0  0  0  0  0  0
  1  2  2  0
  2  3  1  0
  3  4  1  0
  4  5  2  0
  4  6  1  0
  6  7  1  0
  7  8  1  0
  8  9  1  0
  9 10  1  0
 10 11  1  0
 11 12  1  0
 12 13  1  0
 13 14  1  0
 14 15  1  0
 15 16  2  0
 16 17  1  0
 17 18  2  0
 18 19  1  0
 19 20  2  0
 20 21  1  0
 18 22  1  0
 17 23  1  0
 16 24  1  0
 14 25  1  0
 13 26  1  0
 13 27  1  0
 12 28  1  0
 12 29  1  0
 11 30  1  0
 11 31  1  0
 10 32  1  0
 10 33  1  0
  9 34  1  0
  8 35  1  0
  8 36  1  0
  7 37  1  0
  7 38  1  0
  6 39  1  0
 39 40  1  0
  6 41  1  0
  3 42  1  0
 39  2  1  0
 14  9  1  0
 20 15  1  0
M  CHG  2   9   1  12   1
M  END
>  <cnnaffinity>  (1) 
4.57038

>  <plip>  (1) 
-0.034482758620689655

>  <filename>  (1) 
[H][c]1[n][c]([H])[c]([C]2([H])[C]([H])([H])[N+]([H])([H])[C]([H])([H])[C]([H])([H])[N+]2([H])[C]([H])([H])[C]([H])([H])[C]2([H])[C](=[O])[N]([H])[C](=[O])[N]2[H])[c]([H])[c]1[H]

>  <combo1>  (1) 
-0.18030616755599163

$$$$
