
     RDKit          3D

 40 42  0  0  0  0  0  0  0  0999 V2000
    8.8917   -4.1733   27.5444 C   0  0  0  0  0  0  0  0  0  0  0  0
    8.7767   -4.5493   26.0922 C   0  0  0  0  0  0  0  0  0  0  0  0
    9.2022   -5.7831   25.5777 C   0  0  0  0  0  0  0  0  0  0  0  0
    8.9534   -6.0990   24.2367 C   0  0  0  0  0  0  0  0  0  0  0  0
    8.2665   -5.2083   23.3900 C   0  0  0  0  0  0  0  0  0  0  0  0
    7.8071   -5.6004   21.9917 C   0  0  0  0  0  0  0  0  0  0  0  0
    6.8604   -4.5953   21.3246 C   0  0  0  0  0  0  0  0  0  0  0  0
    7.3955   -3.1900   21.5251 N   0  0  0  0  0  4  0  0  0  0  0  0
    6.7134   -2.1631   20.6838 C   0  0  0  0  0  0  0  0  0  0  0  0
    7.3429   -0.7679   20.7884 C   0  0  0  0  0  0  0  0  0  0  0  0
    6.7066    0.1320   19.7594 C   0  0  0  0  0  0  0  0  0  0  0  0
    5.4934    0.7805   20.0255 C   0  0  0  0  0  0  0  0  0  0  0  0
    4.8388    1.4352   18.9798 C   0  0  0  0  0  0  0  0  0  0  0  0
    5.4161    1.4168   17.7055 C   0  0  0  0  0  0  0  0  0  0  0  0
    6.5856    0.8179   17.4356 N   0  0  0  0  0  0  0  0  0  0  0  0
    7.2067    0.2066   18.4498 C   0  0  0  0  0  0  0  0  0  0  0  0
    8.1634   -0.2610   18.2096 H   0  0  0  0  0  0  0  0  0  0  0  0
    4.9232    1.9010   16.8639 H   0  0  0  0  0  0  0  0  0  0  0  0
    3.8979    1.9458   19.1347 H   0  0  0  0  0  0  0  0  0  0  0  0
    5.0773    0.7668   21.0359 H   0  0  0  0  0  0  0  0  0  0  0  0
    7.1893   -0.3644   21.7969 H   0  0  0  0  0  0  0  0  0  0  0  0
    8.4252   -0.8709   20.6327 H   0  0  0  0  0  0  0  0  0  0  0  0
    6.7322   -2.4909   19.6380 H   0  0  0  0  0  0  0  0  0  0  0  0
    5.6513   -2.1047   20.9642 H   0  0  0  0  0  0  0  0  0  0  0  0
    7.3276   -2.8670   23.0152 C   0  0  0  0  0  0  0  0  0  0  0  0
    7.9741   -3.9215   23.8738 C   0  0  0  0  0  0  0  0  0  0  0  0
    8.2052   -3.6244   25.2191 C   0  0  0  0  0  0  0  0  0  0  0  0
    7.9117   -2.6547   25.6227 H   0  0  0  0  0  0  0  0  0  0  0  0
    7.7920   -1.8936   23.1985 H   0  0  0  0  0  0  0  0  0  0  0  0
    6.2707   -2.7768   23.3027 H   0  0  0  0  0  0  0  0  0  0  0  0
    8.4131   -3.2033   21.2649 H   0  0  0  0  0  0  0  0  0  0  0  0
    6.7816   -4.8019   20.2505 H   0  0  0  0  0  0  0  0  0  0  0  0
    5.8483   -4.6331   21.7583 H   0  0  0  0  0  0  0  0  0  0  0  0
    8.6796   -5.7203   21.3458 H   0  0  0  0  0  0  0  0  0  0  0  0
    7.3158   -6.5794   22.0196 H   0  0  0  0  0  0  0  0  0  0  0  0
    9.3257   -7.0291   23.8187 H   0  0  0  0  0  0  0  0  0  0  0  0
    9.7269   -6.4796   26.2368 H   0  0  0  0  0  0  0  0  0  0  0  0
    8.8696   -3.0827   27.6144 H   0  0  0  0  0  0  0  0  0  0  0  0
    9.8129   -4.5409   28.0063 H   0  0  0  0  0  0  0  0  0  0  0  0
    8.0475   -4.5501   28.1340 H   0  0  0  0  0  0  0  0  0  0  0  0
  1  2  1  0
  2  3  2  0
  3  4  1  0
  4  5  2  0
  5  6  1  0
  6  7  1  0
  7  8  1  0
  8  9  1  0
  9 10  1  0
 10 11  1  0
 11 12  2  0
 12 13  1  0
 13 14  2  0
 14 15  1  0
 15 16  2  0
 16 17  1  0
 14 18  1  0
 13 19  1  0
 12 20  1  0
 10 21  1  0
 10 22  1  0
  9 23  1  0
  9 24  1  0
  8 25  1  0
 25 26  1  0
 26 27  2  0
 27 28  1  0
 25 29  1  0
 25 30  1  0
  8 31  1  0
  7 32  1  0
  7 33  1  0
  6 34  1  0
  6 35  1  0
  4 36  1  0
  3 37  1  0
  1 38  1  0
  1 39  1  0
  1 40  1  0
 27  2  1  0
 26  5  1  0
 16 11  1  0
M  CHG  1   8   1
M  END
>  <cnnaffinity>  (1) 
4.42344

>  <plip>  (1) 
-0.06666666666666667

>  <filename>  (1) 
[H][c]1[n][c]([H])[c]([C]([H])([H])[C]([H])([H])[N+]2([H])[C]([H])([H])[c]3[c]([H])[c]([C]([H])([H])[H])[c]([H])[c]([H])[c]3[C]([H])([H])[C]2([H])[H])[c]([H])[c]1[H]

>  <combo1>  (1) 
-0.3879664310419452

$$$$
