
     RDKit          3D

 48 52  0  0  0  0  0  0  0  0999 V2000
    4.9444    1.8143   16.9071 H   0  0  0  0  0  0  0  0  0  0  0  0
    5.3762    1.3058   17.7686 C   0  0  0  0  0  0  0  0  0  0  0  0
    6.5200    0.6355   17.5456 N   0  0  0  0  0  0  0  0  0  0  0  0
    7.0839    0.0289   18.5963 C   0  0  0  0  0  0  0  0  0  0  0  0
    8.0136   -0.5050   18.3892 H   0  0  0  0  0  0  0  0  0  0  0  0
    6.5911    0.0633   19.9167 C   0  0  0  0  0  0  0  0  0  0  0  0
    7.3454   -0.6037   21.0222 C   0  0  0  0  0  0  0  0  0  0  0  0
    7.8821    0.0597   22.0918 C   0  0  0  0  0  0  0  0  0  0  0  0
    7.8904    1.4473   22.2339 N   0  0  0  0  0  0  0  0  0  0  0  0
    8.4878    2.3674   21.2763 C   0  0  0  0  0  0  0  0  0  0  0  0
    9.5571    2.1578   21.1235 H   0  0  0  0  0  0  0  0  0  0  0  0
    7.9920    2.3037   20.3017 H   0  0  0  0  0  0  0  0  0  0  0  0
    8.2650    3.7187   21.9574 C   0  0  0  0  0  0  0  0  0  0  0  0
    9.0457    3.8653   22.7098 H   0  0  0  0  0  0  0  0  0  0  0  0
    8.2997    4.5787   21.2840 H   0  0  0  0  0  0  0  0  0  0  0  0
    6.9213    3.5604   22.6829 C   0  0  2  0  0  0  0  0  0  0  0  0
    6.0838    3.7153   21.9963 H   0  0  0  0  0  0  0  0  0  0  0  0
    6.7597    4.3894   23.9668 C   0  0  0  0  0  0  0  0  0  0  0  0
    7.4173    5.2713   23.9294 H   0  0  0  0  0  0  0  0  0  0  0  0
    5.7366    4.7737   24.0876 H   0  0  0  0  0  0  0  0  0  0  0  0
    7.0866    3.5026   25.1002 N   0  0  0  0  0  0  0  0  0  0  0  0
    8.0118    4.0515   26.0688 C   0  0  0  0  0  0  0  0  0  0  0  0
    7.6227    4.9867   26.4824 H   0  0  0  0  0  0  0  0  0  0  0  0
    8.1317    3.3512   26.9026 H   0  0  0  0  0  0  0  0  0  0  0  0
    9.0198    4.2503   25.6482 H   0  0  0  0  0  0  0  0  0  0  0  0
    7.5249    2.2059   24.5865 C   0  0  0  0  0  0  0  0  0  0  0  0
    7.1807    1.3709   25.2120 H   0  0  0  0  0  0  0  0  0  0  0  0
    8.6295    2.1275   24.5451 H   0  0  0  0  0  0  0  0  0  0  0  0
    6.9838    2.1055   23.1572 C   0  0  2  0  0  0  0  0  0  0  0  0
    5.9950    1.6209   23.1657 H   0  0  0  0  0  0  0  0  0  0  0  0
    8.4593   -0.6942   23.2803 C   0  0  2  0  0  0  0  0  0  0  0  0
    9.0375   -0.0105   23.9083 H   0  0  0  0  0  0  0  0  0  0  0  0
    9.5709   -2.0464   22.7395 S   0  0  0  0  0  0  0  0  0  0  0  0
    8.0707   -2.8493   22.0886 C   0  0  2  0  0  0  0  0  0  0  0  0
    8.3099   -3.8852   21.8171 H   0  0  0  0  0  0  0  0  0  0  0  0
    7.6395   -2.0729   20.8275 C   0  0  0  0  0  0  0  0  0  0  0  0
    6.7939   -2.5734   20.3348 H   0  0  0  0  0  0  0  0  0  0  0  0
    8.5001   -2.1034   20.1502 H   0  0  0  0  0  0  0  0  0  0  0  0
    7.0877   -2.7789   23.2773 C   0  0  0  0  0  0  0  0  0  0  0  0
    7.2784   -3.6350   23.9322 H   0  0  0  0  0  0  0  0  0  0  0  0
    6.0495   -2.8444   22.9360 H   0  0  0  0  0  0  0  0  0  0  0  0
    7.3617   -1.4638   24.0611 C   0  0  0  0  0  0  0  0  0  0  0  0
    7.7343   -1.6883   25.0676 H   0  0  0  0  0  0  0  0  0  0  0  0
    6.4564   -0.8569   24.1930 H   0  0  0  0  0  0  0  0  0  0  0  0
    5.3707    0.7436   20.1126 C   0  0  0  0  0  0  0  0  0  0  0  0
    4.9094    0.7697   21.1039 H   0  0  0  0  0  0  0  0  0  0  0  0
    4.7577    1.3634   19.0195 C   0  0  0  0  0  0  0  0  0  0  0  0
    3.8201    1.9007   19.1219 H   0  0  0  0  0  0  0  0  0  0  0  0
  1  2  1  0
  2  3  2  0
  3  4  1  0
  4  5  1  0
  4  6  2  0
  6  7  1  0
  7  8  2  0
  8  9  1  0
  9 10  1  0
 10 11  1  0
 10 12  1  0
 10 13  1  0
 13 14  1  0
 13 15  1  0
 13 16  1  0
 16 17  1  6
 16 18  1  0
 18 19  1  0
 18 20  1  0
 18 21  1  0
 21 22  1  0
 22 23  1  0
 22 24  1  0
 22 25  1  0
 21 26  1  0
 26 27  1  0
 26 28  1  0
 26 29  1  0
 29 30  1  1
  8 31  1  0
 31 32  1  1
 31 33  1  0
 33 34  1  0
 34 35  1  6
 34 36  1  0
 36 37  1  0
 36 38  1  0
 34 39  1  0
 39 40  1  0
 39 41  1  0
 39 42  1  0
 42 43  1  0
 42 44  1  0
  6 45  1  0
 45 46  1  0
 45 47  2  0
 47 48  1  0
 47  2  1  0
 36  7  1  0
 29  9  1  0
 42 31  1  0
 29 16  1  0
M  END
>  <cnnaffinity>  (1) 
5.46551

>  <plip>  (1) 
-0.03571428571428571

>  <filename>  (1) 
[H][c]1[n][c]([H])[c]([C]2=[C]([N]3[C]([H])([H])[C]([H])([H])[C@]4([H])[C]([H])([H])[N]([C]([H])([H])[H])[C]([H])([H])[C@]34[H])[C@]3([H])[S][C@]([H])([C]2([H])[H])[C]([H])([H])[C]3([H])[H])[c]([H])[c]1[H]

>  <combo1>  (1) 
-0.19867539317335806

$$$$
