
     RDKit          3D

 39 41  0  0  0  0  0  0  0  0999 V2000
    6.5571    0.4479   24.3019 C   0  0  0  0  0  0  0  0  0  0  0  0
    7.4592    1.4584   24.9830 C   0  0  0  0  0  0  0  0  0  0  0  0
    7.2869    1.8649   26.3138 C   0  0  0  0  0  0  0  0  0  0  0  0
    8.0332    2.9089   26.8751 C   0  0  0  0  0  0  0  0  0  0  0  0
    9.0193    3.5301   26.1172 C   0  0  0  0  0  0  0  0  0  0  0  0
    9.2771    3.0888   24.8150 C   0  0  0  0  0  0  0  0  0  0  0  0
    8.5245    2.0491   24.2651 C   0  0  0  0  0  0  0  0  0  0  0  0
    8.7148    1.5862   22.9975 O   0  0  0  0  0  0  0  0  0  0  0  0
    9.8525    1.9859   22.2721 C   0  0  0  0  0  0  0  0  0  0  0  0
    9.7665    1.3224   20.9138 C   0  0  0  0  0  0  0  0  0  0  0  0
    9.7333   -0.1433   20.9345 N   0  0  0  0  0  0  0  0  0  0  0  0
   10.7777   -1.0229   21.1488 C   0  0  0  0  0  0  0  0  0  0  0  0
   10.3510   -2.2054   21.4683 N   0  0  0  0  0  0  0  0  0  0  0  0
    8.9715   -2.1486   21.4880 N   0  0  0  0  0  0  0  0  0  0  0  0
    8.6358   -0.9361   21.1432 C   0  0  0  0  0  0  0  0  0  0  0  0
    7.3178   -0.5364   21.0447 N   0  0  0  0  0  0  0  0  0  0  0  0
    6.6961    0.0321   19.8895 C   0  0  0  0  0  0  0  0  0  0  0  0
    5.4521    0.6335   20.1022 C   0  0  0  0  0  0  0  0  0  0  0  0
    4.8123    1.2899   19.0487 C   0  0  0  0  0  0  0  0  0  0  0  0
    5.4240    1.2919   17.7917 C   0  0  0  0  0  0  0  0  0  0  0  0
    6.5881    0.6684   17.5409 N   0  0  0  0  0  0  0  0  0  0  0  0
    7.2041    0.0517   18.5658 C   0  0  0  0  0  0  0  0  0  0  0  0
    8.1306   -0.4763   18.3342 H   0  0  0  0  0  0  0  0  0  0  0  0
    4.9618    1.8058   16.9522 H   0  0  0  0  0  0  0  0  0  0  0  0
    3.8673    1.8036   19.1972 H   0  0  0  0  0  0  0  0  0  0  0  0
    5.0254    0.5805   21.1028 H   0  0  0  0  0  0  0  0  0  0  0  0
    6.7867   -1.3006   21.4467 H   0  0  0  0  0  0  0  0  0  0  0  0
   11.8179   -0.7586   21.0086 H   0  0  0  0  0  0  0  0  0  0  0  0
    8.8498    1.6774   20.4354 H   0  0  0  0  0  0  0  0  0  0  0  0
   10.6275    1.6699   20.3432 H   0  0  0  0  0  0  0  0  0  0  0  0
    9.8480    3.0739   22.1212 H   0  0  0  0  0  0  0  0  0  0  0  0
   10.7801    1.7158   22.7978 H   0  0  0  0  0  0  0  0  0  0  0  0
   10.0456    3.5529   24.2079 H   0  0  0  0  0  0  0  0  0  0  0  0
    9.5746    4.3678   26.5273 H   0  0  0  0  0  0  0  0  0  0  0  0
    7.8139    3.2655   27.8774 H   0  0  0  0  0  0  0  0  0  0  0  0
    6.5297    1.3734   26.9176 H   0  0  0  0  0  0  0  0  0  0  0  0
    6.1715    0.8495   23.3560 H   0  0  0  0  0  0  0  0  0  0  0  0
    7.1141   -0.4636   24.0413 H   0  0  0  0  0  0  0  0  0  0  0  0
    5.6886    0.1852   24.9149 H   0  0  0  0  0  0  0  0  0  0  0  0
  1  2  1  0
  2  3  2  0
  3  4  1  0
  4  5  2  0
  5  6  1  0
  6  7  2  0
  7  8  1  0
  8  9  1  0
  9 10  1  0
 10 11  1  0
 11 12  1  0
 12 13  2  0
 13 14  1  0
 14 15  2  0
 15 16  1  0
 16 17  1  0
 17 18  2  0
 18 19  1  0
 19 20  2  0
 20 21  1  0
 21 22  2  0
 22 23  1  0
 20 24  1  0
 19 25  1  0
 18 26  1  0
 16 27  1  0
 12 28  1  0
 10 29  1  0
 10 30  1  0
  9 31  1  0
  9 32  1  0
  6 33  1  0
  5 34  1  0
  4 35  1  0
  3 36  1  0
  1 37  1  0
  1 38  1  0
  1 39  1  0
  7  2  1  0
 15 11  1  0
 22 17  1  0
M  END
>  <cnnaffinity>  (1) 
5.36253

>  <plip>  (1) 
-0.07142857142857142

>  <filename>  (1) 
[H][c]1[n][c]([H])[c]([N]([H])[c]2[n][n][c]([H])[n]2[C]([H])([H])[C]([H])([H])[O][c]2[c]([H])[c]([H])[c]([H])[c]([H])[c]2[C]([H])([H])[H])[c]([H])[c]1[H]

>  <combo1>  (1) 
-0.4323040965995336

$$$$
