
     RDKit          3D

 35 36  0  0  0  0  0  0  0  0999 V2000
    7.0329    0.8494   22.6226 O   0  0  0  0  0  0  0  0  0  0  0  0
    7.4089   -0.2468   22.2636 C   0  0  0  0  0  0  0  0  0  0  0  0
    7.9096   -1.2547   23.2937 C   0  0  0  0  0  0  0  0  0  0  0  0
    6.7239   -1.9607   23.9709 C   0  0  0  0  0  0  0  0  0  0  0  0
    5.8351   -3.0292   22.8016 S   0  0  0  0  0  0  0  0  0  0  0  0
    6.8390   -4.5381   22.9680 C   0  0  0  0  0  0  0  0  0  0  0  0
    6.5136   -5.3282   24.2096 C   0  0  0  0  0  0  0  0  0  0  0  0
    7.3915   -5.3715   25.3024 C   0  0  0  0  0  0  0  0  0  0  0  0
    7.0547   -6.0762   26.4631 C   0  0  0  0  0  0  0  0  0  0  0  0
    5.8289   -6.7400   26.5429 C   0  0  0  0  0  0  0  0  0  0  0  0
    5.4154   -7.6309   27.9690 Cl  0  0  0  0  0  0  0  0  0  0  0  0
    4.9488   -6.6830   25.4543 C   0  0  0  0  0  0  0  0  0  0  0  0
    3.7706   -7.3099   25.4979 F   0  0  0  0  0  0  0  0  0  0  0  0
    5.2813   -5.9846   24.3005 C   0  0  0  0  0  0  0  0  0  0  0  0
    4.5539   -5.9524   23.4940 H   0  0  0  0  0  0  0  0  0  0  0  0
    7.7344   -6.1252   27.3090 H   0  0  0  0  0  0  0  0  0  0  0  0
    8.3411   -4.8469   25.2561 H   0  0  0  0  0  0  0  0  0  0  0  0
    7.8942   -4.2522   22.9475 H   0  0  0  0  0  0  0  0  0  0  0  0
    6.6426   -5.1113   22.0563 H   0  0  0  0  0  0  0  0  0  0  0  0
    7.0477   -2.5646   24.8269 H   0  0  0  0  0  0  0  0  0  0  0  0
    5.9995   -1.2416   24.3709 H   0  0  0  0  0  0  0  0  0  0  0  0
    8.5928   -2.0014   22.8643 H   0  0  0  0  0  0  0  0  0  0  0  0
    8.4535   -0.6647   24.0368 H   0  0  0  0  0  0  0  0  0  0  0  0
    7.3697   -0.6663   20.9538 N   0  0  0  0  0  0  0  0  0  0  0  0
    6.6718    0.0055   19.9081 C   0  0  0  0  0  0  0  0  0  0  0  0
    5.4526    0.6447   20.1649 C   0  0  0  0  0  0  0  0  0  0  0  0
    4.8154    1.2966   19.1027 C   0  0  0  0  0  0  0  0  0  0  0  0
    5.4033    1.2898   17.8330 C   0  0  0  0  0  0  0  0  0  0  0  0
    6.5640    0.6711   17.5736 N   0  0  0  0  0  0  0  0  0  0  0  0
    7.1760    0.0470   18.5879 C   0  0  0  0  0  0  0  0  0  0  0  0
    8.1261   -0.4271   18.3535 H   0  0  0  0  0  0  0  0  0  0  0  0
    4.9265    1.7903   16.9925 H   0  0  0  0  0  0  0  0  0  0  0  0
    3.8886    1.8298   19.2574 H   0  0  0  0  0  0  0  0  0  0  0  0
    5.0450    0.6249   21.1781 H   0  0  0  0  0  0  0  0  0  0  0  0
    7.8509   -1.5288   20.7552 H   0  0  0  0  0  0  0  0  0  0  0  0
  1  2  2  0
  2  3  1  0
  3  4  1  0
  4  5  1  0
  5  6  1  0
  6  7  1  0
  7  8  2  0
  8  9  1  0
  9 10  2  0
 10 11  1  0
 10 12  1  0
 12 13  1  0
 12 14  2  0
 14 15  1  0
  9 16  1  0
  8 17  1  0
  6 18  1  0
  6 19  1  0
  4 20  1  0
  4 21  1  0
  3 22  1  0
  3 23  1  0
  2 24  1  0
 24 25  1  0
 25 26  2  0
 26 27  1  0
 27 28  2  0
 28 29  1  0
 29 30  2  0
 30 31  1  0
 28 32  1  0
 27 33  1  0
 26 34  1  0
 24 35  1  0
 14  7  1  0
 30 25  1  0
M  END
>  <cnnaffinity>  (1) 
5.05321

>  <plip>  (1) 
-0.06896551724137931

>  <filename>  (1) 
[H][c]1[n][c]([H])[c]([N]([H])[C](=[O])[C]([H])([H])[C]([H])([H])[S][C]([H])([H])[c]2[c]([H])[c]([H])[c]([Cl])[c]([F])[c]2[H])[c]([H])[c]1[H]

>  <combo1>  (1) 
-0.35764435336086786

$$$$
