
     RDKit          3D

 28 31  0  0  0  0  0  0  0  0999 V2000
    7.3067    2.5984   28.3643 H   0  0  0  0  0  0  0  0  0  0  0  0
    7.0800    2.4869   27.3131 C   0  0  0  0  0  0  0  0  0  0  0  0
    6.3587    3.2512   26.4954 C   0  0  0  0  0  0  0  0  0  0  0  0
    5.8230    4.1722   26.6782 H   0  0  0  0  0  0  0  0  0  0  0  0
    6.3531    2.6388   25.1358 C   0  0  0  0  0  0  0  0  0  0  0  0
    5.8025    3.0438   24.1545 O   0  0  0  0  0  0  0  0  0  0  0  0
    7.1227    1.4842   25.2519 N   0  0  0  0  0  0  0  0  0  0  0  0
    7.3580    0.6321   24.2336 C   0  0  0  0  0  0  0  0  0  0  0  0
    8.1234   -0.4703   24.4246 N   0  0  0  0  0  0  0  0  0  0  0  0
    8.1114   -0.9833   23.2264 C   0  0  0  0  0  0  0  0  0  0  0  0
    8.8248   -2.3307   22.3804 S   0  0  0  0  0  0  0  0  0  0  0  0
    8.1418   -1.7328   20.9066 C   0  0  0  0  0  0  0  0  0  0  0  0
    8.3408   -2.1559   19.9590 H   0  0  0  0  0  0  0  0  0  0  0  0
    7.3867   -0.6366   21.0318 C   0  0  0  0  0  0  0  0  0  0  0  0
    6.6556    0.0358   19.9385 C   0  0  0  0  0  0  0  0  0  0  0  0
    7.1625    0.0574   18.6192 C   0  0  0  0  0  0  0  0  0  0  0  0
    8.1147   -0.4103   18.3657 H   0  0  0  0  0  0  0  0  0  0  0  0
    6.5594    0.6660   17.5898 N   0  0  0  0  0  0  0  0  0  0  0  0
    5.3955    1.2893   17.8355 C   0  0  0  0  0  0  0  0  0  0  0  0
    4.9263    1.7894   16.9872 H   0  0  0  0  0  0  0  0  0  0  0  0
    4.7945    1.3085   19.0980 C   0  0  0  0  0  0  0  0  0  0  0  0
    3.8669    1.8460   19.2433 H   0  0  0  0  0  0  0  0  0  0  0  0
    5.4257    0.6706   20.1639 C   0  0  0  0  0  0  0  0  0  0  0  0
    5.0207    0.6716   21.1762 H   0  0  0  0  0  0  0  0  0  0  0  0
    7.3749   -0.2393   22.3686 N   0  0  0  0  0  0  0  0  0  0  0  0
    6.8732    0.8374   23.0203 N   0  0  0  0  0  0  0  0  0  0  0  0
    7.6008    1.3148   26.5480 C   0  0  0  0  0  0  0  0  0  0  0  0
    8.2775    0.4193   26.9649 O   0  0  0  0  0  0  0  0  0  0  0  0
  1  2  1  0
  2  3  2  0
  3  4  1  0
  3  5  1  0
  5  6  2  0
  5  7  1  0
  7  8  1  0
  8  9  1  0
  9 10  2  0
 10 11  1  0
 11 12  1  0
 12 13  1  0
 12 14  2  0
 14 15  1  0
 15 16  2  0
 16 17  1  0
 16 18  1  0
 18 19  2  0
 19 20  1  0
 19 21  1  0
 21 22  1  0
 21 23  2  0
 23 24  1  0
 14 25  1  0
 25 26  1  0
  7 27  1  0
 27 28  2  0
 27  2  1  0
 26  8  2  0
 25 10  1  0
 23 15  1  0
M  END
>  <cnnaffinity>  (1) 
5.26335

>  <plip>  (1) 
-0.0

>  <filename>  (1) 
[H][C]1=[C]([H])[C](=[O])[N]([c]2[n][c]3[s][c]([H])[c](-[c]4[c]([H])[n][c]([H])[c]([H])[c]4[H])[n]3[n]2)[C]1=[O]

>  <combo1>  (1) 
-5.901298019838613e-06

$$$$
