
     RDKit          3D

 34 36  0  0  0  0  0  0  0  0999 V2000
    4.9992    1.7639   16.9847 H   0  0  0  0  0  0  0  0  0  0  0  0
    5.4483    1.2472   17.8313 C   0  0  0  0  0  0  0  0  0  0  0  0
    6.5954    0.5894   17.5918 N   0  0  0  0  0  0  0  0  0  0  0  0
    7.1750   -0.0427   18.6227 C   0  0  0  0  0  0  0  0  0  0  0  0
    8.1015   -0.5748   18.3997 H   0  0  0  0  0  0  0  0  0  0  0  0
    6.6674   -0.0442   19.9431 C   0  0  0  0  0  0  0  0  0  0  0  0
    7.3549   -0.6397   20.9900 N   0  0  0  0  0  0  0  0  0  0  0  0
    8.2218   -1.1315   20.8138 H   0  0  0  0  0  0  0  0  0  0  0  0
    6.9754   -0.4449   22.3045 N   0  0  0  0  0  0  0  0  0  0  0  0
    6.7813   -1.5990   23.0874 C   0  0  0  0  0  0  0  0  0  0  0  0
    6.2297   -2.7717   22.4612 C   0  0  0  0  0  0  0  0  0  0  0  0
    6.0413   -2.7230   21.3967 H   0  0  0  0  0  0  0  0  0  0  0  0
    5.9522   -3.9023   23.1803 C   0  0  0  0  0  0  0  0  0  0  0  0
    5.5226   -4.7745   22.6943 H   0  0  0  0  0  0  0  0  0  0  0  0
    6.2609   -3.9707   24.5720 C   0  0  0  0  0  0  0  0  0  0  0  0
    6.0075   -5.1415   25.3455 C   0  0  0  0  0  0  0  0  0  0  0  0
    5.4429   -5.9526   24.8991 H   0  0  0  0  0  0  0  0  0  0  0  0
    6.4571   -5.2394   26.6446 C   0  0  0  0  0  0  0  0  0  0  0  0
    6.3033   -6.1504   27.2196 H   0  0  0  0  0  0  0  0  0  0  0  0
    7.1332   -4.1345   27.2396 C   0  0  0  0  0  0  0  0  0  0  0  0
    7.5156   -4.2374   28.2509 H   0  0  0  0  0  0  0  0  0  0  0  0
    7.3200   -2.9622   26.5456 C   0  0  0  0  0  0  0  0  0  0  0  0
    7.8128   -2.1098   27.0097 H   0  0  0  0  0  0  0  0  0  0  0  0
    6.8845   -2.8450   25.1912 C   0  0  0  0  0  0  0  0  0  0  0  0
    7.0800   -1.6516   24.4346 C   0  0  0  0  0  0  0  0  0  0  0  0
    7.4909   -0.7962   24.9531 H   0  0  0  0  0  0  0  0  0  0  0  0
    7.3736    0.8277   22.8927 C   0  0  0  0  0  0  0  0  0  0  0  0
    7.2770    1.6148   22.1333 H   0  0  0  0  0  0  0  0  0  0  0  0
    6.7003    1.0693   23.7240 H   0  0  0  0  0  0  0  0  0  0  0  0
    8.4169    0.8136   23.2492 H   0  0  0  0  0  0  0  0  0  0  0  0
    5.4408    0.6047   20.1538 C   0  0  0  0  0  0  0  0  0  0  0  0
    5.0148    0.5770   21.1576 H   0  0  0  0  0  0  0  0  0  0  0  0
    4.8313    1.2651   19.0876 C   0  0  0  0  0  0  0  0  0  0  0  0
    3.8956    1.7956   19.2270 H   0  0  0  0  0  0  0  0  0  0  0  0
  1  2  1  0
  2  3  2  0
  3  4  1  0
  4  5  1  0
  4  6  2  0
  6  7  1  0
  7  8  1  0
  7  9  1  0
  9 10  1  0
 10 11  2  0
 11 12  1  0
 11 13  1  0
 13 14  1  0
 13 15  2  0
 15 16  1  0
 16 17  1  0
 16 18  2  0
 18 19  1  0
 18 20  1  0
 20 21  1  0
 20 22  2  0
 22 23  1  0
 22 24  1  0
 24 25  2  0
 25 26  1  0
  9 27  1  0
 27 28  1  0
 27 29  1  0
 27 30  1  0
  6 31  1  0
 31 32  1  0
 31 33  2  0
 33 34  1  0
 33  2  1  0
 25 10  1  0
 24 15  1  0
M  END
>  <cnnaffinity>  (1) 
4.77408

>  <plip>  (1) 
-0.0

>  <filename>  (1) 
[H][c]1[n][c]([H])[c]([N]([H])[N]([c]2[c]([H])[c]([H])[c]3[c]([H])[c]([H])[c]([H])[c]([H])[c]3[c]2[H])[C]([H])([H])[H])[c]([H])[c]1[H]

>  <combo1>  (1) 
-6.3828780227581745e-06

$$$$
