
     RDKit          3D

 33 35  0  0  0  0  0  0  0  0999 V2000
   11.0404   -2.9237   21.0714 H   0  0  0  0  0  0  0  0  0  0  0  0
   11.3531   -2.1949   21.6131 O   0  0  0  0  0  0  0  0  0  0  0  0
   10.3440   -1.9439   22.5826 C   0  0  1  0  0  0  0  0  0  0  0  0
   10.2609   -2.8003   23.2797 H   0  0  0  0  0  0  0  0  0  0  0  0
   10.7943   -0.7106   23.3672 C   0  0  0  0  0  0  0  0  0  0  0  0
   11.4608    0.3235   22.6869 C   0  0  0  0  0  0  0  0  0  0  0  0
   11.7121    0.1848   21.6394 H   0  0  0  0  0  0  0  0  0  0  0  0
   11.8483    1.4838   23.3470 C   0  0  0  0  0  0  0  0  0  0  0  0
   12.3386    2.2766   22.7862 H   0  0  0  0  0  0  0  0  0  0  0  0
   11.6115    1.6174   24.7160 C   0  0  0  0  0  0  0  0  0  0  0  0
   11.9592    2.5050   25.2301 H   0  0  0  0  0  0  0  0  0  0  0  0
   10.9455    0.6049   25.4129 C   0  0  0  0  0  0  0  0  0  0  0  0
   10.7657    0.7141   26.4814 H   0  0  0  0  0  0  0  0  0  0  0  0
   10.5234   -0.5470   24.7337 C   0  0  0  0  0  0  0  0  0  0  0  0
    9.9971   -1.3253   25.2817 H   0  0  0  0  0  0  0  0  0  0  0  0
    8.9754   -1.7450   21.9542 C   0  0  0  0  0  0  0  0  0  0  0  0
    7.7328   -2.1312   22.5394 C   0  0  0  0  0  0  0  0  0  0  0  0
    7.6115   -2.7434   23.4289 H   0  0  0  0  0  0  0  0  0  0  0  0
    6.7349   -1.5642   21.7952 C   0  0  0  0  0  0  0  0  0  0  0  0
    5.6624   -1.6094   21.9071 H   0  0  0  0  0  0  0  0  0  0  0  0
    7.2979   -0.8373   20.7642 N   0  0  0  0  0  0  0  0  0  0  0  0
    6.6237   -0.0552   19.7825 C   0  0  0  0  0  0  0  0  0  0  0  0
    7.1387   -0.0327   18.4748 C   0  0  0  0  0  0  0  0  0  0  0  0
    8.0310   -0.6134   18.2346 H   0  0  0  0  0  0  0  0  0  0  0  0
    6.5805    0.6448   17.4699 N   0  0  0  0  0  0  0  0  0  0  0  0
    5.4573    1.3351   17.7232 C   0  0  0  0  0  0  0  0  0  0  0  0
    5.0231    1.8606   16.8766 H   0  0  0  0  0  0  0  0  0  0  0  0
    4.8601    1.3826   18.9854 C   0  0  0  0  0  0  0  0  0  0  0  0
    3.9422    1.9495   19.1162 H   0  0  0  0  0  0  0  0  0  0  0  0
    5.4590    0.6929   20.0449 C   0  0  0  0  0  0  0  0  0  0  0  0
    5.0389    0.7596   21.0497 H   0  0  0  0  0  0  0  0  0  0  0  0
    8.6682   -0.9757   20.8576 C   0  0  0  0  0  0  0  0  0  0  0  0
    9.3180   -0.4753   20.1501 H   0  0  0  0  0  0  0  0  0  0  0  0
  1  2  1  0
  2  3  1  0
  3  4  1  1
  3  5  1  0
  5  6  2  0
  6  7  1  0
  6  8  1  0
  8  9  1  0
  8 10  2  0
 10 11  1  0
 10 12  1  0
 12 13  1  0
 12 14  2  0
 14 15  1  0
  3 16  1  0
 16 17  1  0
 17 18  1  0
 17 19  2  0
 19 20  1  0
 19 21  1  0
 21 22  1  0
 22 23  2  0
 23 24  1  0
 23 25  1  0
 25 26  2  0
 26 27  1  0
 26 28  1  0
 28 29  1  0
 28 30  2  0
 30 31  1  0
 21 32  1  0
 32 33  1  0
 14  5  1  0
 32 16  2  0
 30 22  1  0
M  END
>  <cnnaffinity>  (1) 
5.03645

>  <plip>  (1) 
-0.1

>  <filename>  (1) 
[H][O][C@@]([H])([c]1[c]([H])[c]([H])[c]([H])[c]([H])[c]1[H])[c]1[c]([H])[c]([H])[n](-[c]2[c]([H])[n][c]([H])[c]([H])[c]2[H])[c]1[H]

>  <combo1>  (1) 
-0.6707191208451692

$$$$
