
     RDKit          3D

 25 26  0  0  0  0  0  0  0  0999 V2000
    4.9125    1.7837   16.9937 H   0  0  0  0  0  0  0  0  0  0  0  0
    5.3984    1.2973   17.8366 C   0  0  0  0  0  0  0  0  0  0  0  0
    6.5674    0.6792   17.5757 N   0  0  0  0  0  0  0  0  0  0  0  0
    7.1721    0.0630   18.5954 C   0  0  0  0  0  0  0  0  0  0  0  0
    8.1161   -0.4338   18.3860 H   0  0  0  0  0  0  0  0  0  0  0  0
    6.6719    0.0134   19.9185 C   0  0  0  0  0  0  0  0  0  0  0  0
    7.3723   -0.7479   20.8795 N   0  0  0  0  0  0  0  0  0  0  0  0
    7.6394   -0.3266   22.0646 C   0  0  0  0  0  0  0  0  0  0  0  0
    8.2480   -1.2619   23.0206 C   0  0  0  0  0  0  0  0  0  0  0  0
    8.5125   -1.1112   24.3666 C   0  0  0  0  0  0  0  0  0  0  0  0
    8.2892   -0.2291   24.9511 H   0  0  0  0  0  0  0  0  0  0  0  0
    9.0859   -2.3133   24.8241 C   0  0  0  0  0  0  0  0  0  0  0  0
    9.4006   -2.5263   25.8339 H   0  0  0  0  0  0  0  0  0  0  0  0
    9.1684   -3.1734   23.7583 C   0  0  0  0  0  0  0  0  0  0  0  0
    9.5523   -4.1875   23.7132 H   0  0  0  0  0  0  0  0  0  0  0  0
    8.6599   -2.5310   22.6709 N   0  0  0  0  0  0  0  0  0  0  0  0
    8.5760   -2.9014   21.7396 H   0  0  0  0  0  0  0  0  0  0  0  0
    7.4060    1.0889   22.5502 C   0  0  0  0  0  0  0  0  0  0  0  0
    7.3768    1.7977   21.7213 H   0  0  0  0  0  0  0  0  0  0  0  0
    8.1926    1.4012   23.2399 H   0  0  0  0  0  0  0  0  0  0  0  0
    6.4549    1.1474   23.0859 H   0  0  0  0  0  0  0  0  0  0  0  0
    5.4448    0.6470   20.1624 C   0  0  0  0  0  0  0  0  0  0  0  0
    5.0146    0.6197   21.1655 H   0  0  0  0  0  0  0  0  0  0  0  0
    4.8057    1.3059   19.1033 C   0  0  0  0  0  0  0  0  0  0  0  0
    3.8741    1.8409   19.2622 H   0  0  0  0  0  0  0  0  0  0  0  0
  1  2  1  0
  2  3  2  0
  3  4  1  0
  4  5  1  0
  4  6  2  0
  6  7  1  0
  7  8  2  3
  8  9  1  0
  9 10  2  0
 10 11  1  0
 10 12  1  0
 12 13  1  0
 12 14  2  0
 14 15  1  0
 14 16  1  0
 16 17  1  0
  8 18  1  0
 18 19  1  0
 18 20  1  0
 18 21  1  0
  6 22  1  0
 22 23  1  0
 22 24  2  0
 24 25  1  0
 24  2  1  0
 16  9  1  0
M  END
>  <cnnaffinity>  (1) 
4.18768

>  <plip>  (1) 
-0.0

>  <filename>  (1) 
[H][c]1[n][c]([H])[c]([N]=[C]([c]2[c]([H])[c]([H])[c]([H])[n]2[H])[C]([H])([H])[H])[c]([H])[c]1[H]

>  <combo1>  (1) 
-7.536000287930319e-06

$$$$
