
     RDKit          3D

 32 33  0  0  0  0  0  0  0  0999 V2000
    5.3708    2.9985   23.9291 H   0  0  0  0  0  0  0  0  0  0  0  0
    5.5701    2.1174   23.5580 O   0  0  0  0  0  0  0  0  0  0  0  0
    6.9695    2.0477   23.4513 N   0  0  0  0  0  0  0  0  0  0  0  0
    7.2557    1.0828   23.5963 H   0  0  0  0  0  0  0  0  0  0  0  0
    7.6021    2.5958   22.3305 C   0  0  0  0  0  0  0  0  0  0  0  0
    7.1023    3.4223   21.6067 O   0  0  0  0  0  0  0  0  0  0  0  0
    9.0365    2.1020   22.2061 C   0  0  0  0  0  0  0  0  0  0  0  0
    9.3952    1.7864   23.1934 H   0  0  0  0  0  0  0  0  0  0  0  0
    9.6107    2.9811   21.9053 H   0  0  0  0  0  0  0  0  0  0  0  0
    9.2435    0.9848   21.1475 C   0  0  0  0  0  0  0  0  0  0  0  0
    8.8832    1.3439   20.1797 H   0  0  0  0  0  0  0  0  0  0  0  0
   10.3188    0.7987   21.0385 H   0  0  0  0  0  0  0  0  0  0  0  0
    8.5654   -0.3086   21.4716 C   0  0  0  0  0  0  0  0  0  0  0  0
    7.3580   -0.7471   20.9476 C   0  0  0  0  0  0  0  0  0  0  0  0
    6.6424   -0.0052   19.8488 C   0  0  0  0  0  0  0  0  0  0  0  0
    7.1419    0.0554   18.5308 C   0  0  0  0  0  0  0  0  0  0  0  0
    8.0926   -0.4205   18.2870 H   0  0  0  0  0  0  0  0  0  0  0  0
    6.5299    0.6837   17.5146 N   0  0  0  0  0  0  0  0  0  0  0  0
    5.3801    1.3163   17.7912 C   0  0  0  0  0  0  0  0  0  0  0  0
    4.9044    1.8288   16.9593 H   0  0  0  0  0  0  0  0  0  0  0  0
    4.7878    1.3263   19.0592 C   0  0  0  0  0  0  0  0  0  0  0  0
    3.8574    1.8644   19.2129 H   0  0  0  0  0  0  0  0  0  0  0  0
    5.4267    0.6480   20.1010 C   0  0  0  0  0  0  0  0  0  0  0  0
    5.0149    0.6477   21.1144 H   0  0  0  0  0  0  0  0  0  0  0  0
    6.7586   -1.9285   21.5011 C   0  0  0  0  0  0  0  0  0  0  0  0
    5.7867   -2.2340   21.1098 H   0  0  0  0  0  0  0  0  0  0  0  0
    7.3760   -2.6554   22.4801 C   0  0  0  0  0  0  0  0  0  0  0  0
    6.9723   -3.5542   22.9186 H   0  0  0  0  0  0  0  0  0  0  0  0
    8.6572   -2.2324   23.0221 C   0  0  0  0  0  0  0  0  0  0  0  0
    9.2997   -2.7916   23.8947 O   0  0  0  0  0  0  0  0  0  0  0  0
    9.1643   -1.0742   22.4555 N   0  0  0  0  0  0  0  0  0  0  0  0
   10.0513   -0.8541   22.8822 H   0  0  0  0  0  0  0  0  0  0  0  0
  1  2  1  0
  2  3  1  0
  3  4  1  0
  3  5  1  0
  5  6  2  0
  5  7  1  0
  7  8  1  0
  7  9  1  0
  7 10  1  0
 10 11  1  0
 10 12  1  0
 10 13  1  0
 13 14  2  0
 14 15  1  0
 15 16  2  0
 16 17  1  0
 16 18  1  0
 18 19  2  0
 19 20  1  0
 19 21  1  0
 21 22  1  0
 21 23  2  0
 23 24  1  0
 14 25  1  0
 25 26  1  0
 25 27  2  0
 27 28  1  0
 27 29  1  0
 29 30  2  0
 29 31  1  0
 31 32  1  0
 31 13  1  0
 23 15  1  0
M  END
>  <cnnaffinity>  (1) 
4.43831

>  <plip>  (1) 
-0.10714285714285714

>  <filename>  (1) 
[H][O][N]([H])[C](=[O])[C]([H])([H])[C]([H])([H])[c]1[c](-[c]2[c]([H])[n][c]([H])[c]([H])[c]2[H])[c]([H])[c]([H])[c](=[O])[n]1[H]

>  <combo1>  (1) 
-0.6113863090990741

$$$$
