
     RDKit          3D

 34 36  0  0  0  0  0  0  0  0999 V2000
    6.7052   -1.5150   21.8382 C   0  0  0  0  0  0  0  0  0  0  0  0
    7.3545   -0.7630   20.9386 C   0  0  0  0  0  0  0  0  0  0  0  0
    6.6398   -0.0118   19.8564 C   0  0  0  0  0  0  0  0  0  0  0  0
    5.4189    0.6545   20.0988 C   0  0  0  0  0  0  0  0  0  0  0  0
    4.7933    1.3355   19.0531 C   0  0  0  0  0  0  0  0  0  0  0  0
    5.3933    1.3311   17.7896 C   0  0  0  0  0  0  0  0  0  0  0  0
    6.5482    0.7010   17.5226 N   0  0  0  0  0  0  0  0  0  0  0  0
    7.1463    0.0744   18.5433 C   0  0  0  0  0  0  0  0  0  0  0  0
    8.0893   -0.4120   18.2930 H   0  0  0  0  0  0  0  0  0  0  0  0
    4.9214    1.8468   16.9577 H   0  0  0  0  0  0  0  0  0  0  0  0
    3.8608    1.8695   19.2031 H   0  0  0  0  0  0  0  0  0  0  0  0
    4.9912    0.6737   21.1043 H   0  0  0  0  0  0  0  0  0  0  0  0
    8.8630   -0.6284   21.0008 C   0  0  0  0  0  0  0  0  0  0  0  0
    9.4101   -0.9764   22.4263 N   0  0  0  0  0  4  0  0  0  0  0  0
   10.9051   -0.7817   22.5155 C   0  0  0  0  0  0  0  0  0  0  0  0
   11.3209    0.6656   22.4216 C   0  0  0  0  0  0  0  0  0  0  0  0
   11.4510    1.7120   23.2789 C   0  0  0  0  0  0  0  0  0  0  0  0
   11.9014    2.7670   22.4354 C   0  0  0  0  0  0  0  0  0  0  0  0
   12.0060    2.3889   21.1894 N   0  0  0  0  0  0  0  0  0  0  0  0
   11.6315    1.0710   21.1768 O   0  0  0  0  0  0  0  0  0  0  0  0
   12.1824    3.7772   22.7107 H   0  0  0  0  0  0  0  0  0  0  0  0
   11.2322    1.7501   24.3363 H   0  0  0  0  0  0  0  0  0  0  0  0
   11.2712   -1.2231   23.4460 H   0  0  0  0  0  0  0  0  0  0  0  0
   11.4030   -1.3075   21.6928 H   0  0  0  0  0  0  0  0  0  0  0  0
    8.8759   -2.3191   22.8696 C   0  0  0  0  0  0  0  0  0  0  0  0
    7.3628   -2.1925   23.0251 C   0  0  0  0  0  0  0  0  0  0  0  0
    6.9276   -3.1856   23.1765 H   0  0  0  0  0  0  0  0  0  0  0  0
    7.1267   -1.6260   23.9361 H   0  0  0  0  0  0  0  0  0  0  0  0
    9.1123   -3.0734   22.1116 H   0  0  0  0  0  0  0  0  0  0  0  0
    9.3440   -2.6204   23.8165 H   0  0  0  0  0  0  0  0  0  0  0  0
    8.9480   -0.2691   23.0539 H   0  0  0  0  0  0  0  0  0  0  0  0
    9.1567    0.3894   20.7559 H   0  0  0  0  0  0  0  0  0  0  0  0
    9.3524   -1.2960   20.2841 H   0  0  0  0  0  0  0  0  0  0  0  0
    5.6327   -1.6691   21.7215 H   0  0  0  0  0  0  0  0  0  0  0  0
  1  2  2  0
  2  3  1  0
  3  4  2  0
  4  5  1  0
  5  6  2  0
  6  7  1  0
  7  8  2  0
  8  9  1  0
  6 10  1  0
  5 11  1  0
  4 12  1  0
  2 13  1  0
 13 14  1  0
 14 15  1  0
 15 16  1  0
 16 17  2  0
 17 18  1  0
 18 19  2  0
 19 20  1  0
 18 21  1  0
 17 22  1  0
 15 23  1  0
 15 24  1  0
 14 25  1  0
 25 26  1  0
 26 27  1  0
 26 28  1  0
 25 29  1  0
 25 30  1  0
 14 31  1  0
 13 32  1  0
 13 33  1  0
  1 34  1  0
 26  1  1  0
  8  3  1  0
 20 16  1  0
M  CHG  1  14   1
M  END
>  <cnnaffinity>  (1) 
4.9518

>  <plip>  (1) 
-0.07142857142857142

>  <filename>  (1) 
[H][C]1=[C]([c]2[c]([H])[n][c]([H])[c]([H])[c]2[H])[C]([H])([H])[N+]([H])([C]([H])([H])[c]2[o][n][c]([H])[c]2[H])[C]([H])([H])[C]1([H])[H]

>  <combo1>  (1) 
-0.4865828594068558

$$$$
