
     RDKit          3D

 25 26  0  0  0  0  0  0  0  0999 V2000
    7.5340   -0.1271   28.4778 H   0  0  0  0  0  0  0  0  0  0  0  0
    7.5644   -0.3177   27.4132 C   0  0  0  0  0  0  0  0  0  0  0  0
    6.5442    0.1852   26.6852 N   0  0  0  0  0  0  0  0  0  0  0  0
    6.5882   -0.0470   25.3700 C   0  0  0  0  0  0  0  0  0  0  0  0
    5.8067    0.3609   24.7450 H   0  0  0  0  0  0  0  0  0  0  0  0
    7.6560   -0.7935   24.7814 C   0  0  0  0  0  0  0  0  0  0  0  0
    7.7997   -1.1003   23.4298 N   0  0  0  0  0  0  0  0  0  0  0  0
    8.6115   -1.6941   23.3239 H   0  0  0  0  0  0  0  0  0  0  0  0
    7.3675   -0.2487   22.4335 C   0  0  0  0  0  0  0  0  0  0  0  0
    6.8947    0.8393   22.7002 O   0  0  0  0  0  0  0  0  0  0  0  0
    7.4761   -0.7360   20.9227 C   0  0  0  0  0  0  0  0  0  0  0  0
    8.2108   -1.6598   20.6209 O   0  0  0  0  0  0  0  0  0  0  0  0
    6.6821   -0.0040   19.8960 C   0  0  0  0  0  0  0  0  0  0  0  0
    7.1759   -0.0177   18.5821 C   0  0  0  0  0  0  0  0  0  0  0  0
    8.0966   -0.5577   18.3627 H   0  0  0  0  0  0  0  0  0  0  0  0
    6.5770    0.6151   17.5725 N   0  0  0  0  0  0  0  0  0  0  0  0
    5.4348    1.2685   17.8371 C   0  0  0  0  0  0  0  0  0  0  0  0
    4.9789    1.7990   17.0021 H   0  0  0  0  0  0  0  0  0  0  0  0
    4.8382    1.3032   19.1013 C   0  0  0  0  0  0  0  0  0  0  0  0
    3.9036    1.8356   19.2438 H   0  0  0  0  0  0  0  0  0  0  0  0
    5.4810    0.6741   20.1651 C   0  0  0  0  0  0  0  0  0  0  0  0
    5.0721    0.7225   21.1750 H   0  0  0  0  0  0  0  0  0  0  0  0
    8.6511   -1.3113   25.5038 N   0  0  0  0  0  0  0  0  0  0  0  0
    8.6043   -1.0533   26.8271 C   0  0  0  0  0  0  0  0  0  0  0  0
    9.4203   -1.4480   27.4275 H   0  0  0  0  0  0  0  0  0  0  0  0
  1  2  1  0
  2  3  2  0
  3  4  1  0
  4  5  1  0
  4  6  2  0
  6  7  1  0
  7  8  1  0
  7  9  1  0
  9 10  2  0
  9 11  1  0
 11 12  2  0
 11 13  1  0
 13 14  2  0
 14 15  1  0
 14 16  1  0
 16 17  2  0
 17 18  1  0
 17 19  1  0
 19 20  1  0
 19 21  2  0
 21 22  1  0
  6 23  1  0
 23 24  2  0
 24 25  1  0
 24  2  1  0
 21 13  1  0
M  END
>  <cnnaffinity>  (1) 
4.28185

>  <plip>  (1) 
-0.034482758620689655

>  <filename>  (1) 
[H][c]1[n][c]([H])[c]([N]([H])[C](=[O])[C](=[O])[c]2[c]([H])[n][c]([H])[c]([H])[c]2[H])[n][c]1[H]

>  <combo1>  (1) 
-0.21566299024440833

$$$$
