
     RDKit          3D

 25 26  0  0  0  0  0  0  0  0999 V2000
    4.9281    1.7768   17.0134 H   0  0  0  0  0  0  0  0  0  0  0  0
    5.4134    1.2797   17.8548 C   0  0  0  0  0  0  0  0  0  0  0  0
    6.5757    0.6631   17.5977 N   0  0  0  0  0  0  0  0  0  0  0  0
    7.2031    0.0401   18.6028 C   0  0  0  0  0  0  0  0  0  0  0  0
    8.1441   -0.4331   18.3489 H   0  0  0  0  0  0  0  0  0  0  0  0
    6.7104   -0.0282   19.9249 C   0  0  0  0  0  0  0  0  0  0  0  0
    7.3257   -0.6925   21.0390 N   0  0  0  0  0  0  0  0  0  0  0  0
    8.4186   -1.2635   20.7904 N   0  0  0  0  0  0  0  0  0  0  0  0
    8.9882   -1.8702   21.8281 N   0  0  0  0  0  0  0  0  0  0  0  0
    9.8558   -2.3234   21.6068 H   0  0  0  0  0  0  0  0  0  0  0  0
    8.4728   -1.9164   23.1895 C   0  0  0  0  0  0  0  0  0  0  0  0
    7.4743   -2.3714   23.1505 H   0  0  0  0  0  0  0  0  0  0  0  0
    8.3218   -0.8915   23.5549 H   0  0  0  0  0  0  0  0  0  0  0  0
    9.3509   -2.7169   24.1230 C   0  0  0  0  0  0  0  0  0  0  0  0
   10.3579   -2.3230   24.2555 H   0  0  0  0  0  0  0  0  0  0  0  0
    9.1764   -4.2077   24.2354 C   0  0  0  0  0  0  0  0  0  0  0  0
   10.0424   -4.8434   24.4095 H   0  0  0  0  0  0  0  0  0  0  0  0
    8.4268   -4.6716   23.5982 H   0  0  0  0  0  0  0  0  0  0  0  0
    8.7106   -3.3130   25.3523 C   0  0  0  0  0  0  0  0  0  0  0  0
    9.2455   -3.3383   26.2993 H   0  0  0  0  0  0  0  0  0  0  0  0
    7.6393   -3.1747   25.4956 H   0  0  0  0  0  0  0  0  0  0  0  0
    5.4899    0.6186   20.1744 C   0  0  0  0  0  0  0  0  0  0  0  0
    5.0612    0.6010   21.1751 H   0  0  0  0  0  0  0  0  0  0  0  0
    4.8387    1.2838   19.1302 C   0  0  0  0  0  0  0  0  0  0  0  0
    3.9095    1.8137   19.2798 H   0  0  0  0  0  0  0  0  0  0  0  0
  1  2  1  0
  2  3  2  0
  3  4  1  0
  4  5  1  0
  4  6  2  0
  6  7  1  0
  7  8  2  3
  8  9  1  0
  9 10  1  0
  9 11  1  0
 11 12  1  0
 11 13  1  0
 11 14  1  0
 14 15  1  0
 14 16  1  0
 16 17  1  0
 16 18  1  0
 16 19  1  0
 19 20  1  0
 19 21  1  0
  6 22  1  0
 22 23  1  0
 22 24  2  0
 24 25  1  0
 24  2  1  0
 19 14  1  0
M  END
>  <cnnaffinity>  (1) 
4.43215

>  <plip>  (1) 
-0.034482758620689655

>  <filename>  (1) 
[H][c]1[n][c]([H])[c]([N]=[N][N]([H])[C]([H])([H])[C]2([H])[C]([H])([H])[C]2([H])[H])[c]([H])[c]1[H]

>  <combo1>  (1) 
-0.289089692455373

$$$$
