
     RDKit          3D

 53 56  0  0  0  0  0  0  0  0999 V2000
    6.1646   -3.3334   20.3856 O   0  0  0  0  0  0  0  0  0  0  0  0
    5.8133   -2.8111   21.4251 C   0  0  0  0  0  0  0  0  0  0  0  0
    6.2406   -1.5985   21.9108 N   0  0  0  0  0  0  0  0  0  0  0  0
    7.0064   -0.7376   21.0201 C   0  0  0  0  0  0  0  0  0  0  0  0
    7.6671    0.3957   21.8329 C   0  0  0  0  0  0  0  0  0  0  0  0
    8.6359   -0.1086   22.8373 N   0  0  0  0  0  4  0  0  0  0  0  0
    9.0832    0.8798   23.8697 C   0  0  0  0  0  0  0  0  0  0  0  0
   10.2396    0.1633   24.5803 C   0  0  0  0  0  0  0  0  0  0  0  0
   10.7627   -0.8635   23.5415 C   0  0  0  0  0  0  0  0  0  0  0  0
    9.9361   -0.6210   22.2788 C   0  0  0  0  0  0  0  0  0  0  0  0
    9.7889   -1.5145   21.6579 H   0  0  0  0  0  0  0  0  0  0  0  0
   10.3864    0.1670   21.6528 H   0  0  0  0  0  0  0  0  0  0  0  0
   11.8270   -0.7585   23.3212 H   0  0  0  0  0  0  0  0  0  0  0  0
   10.5880   -1.8830   23.9001 H   0  0  0  0  0  0  0  0  0  0  0  0
   11.0049    0.8806   24.8929 H   0  0  0  0  0  0  0  0  0  0  0  0
    9.8819   -0.3415   25.4879 H   0  0  0  0  0  0  0  0  0  0  0  0
    8.2597    1.1840   24.5223 H   0  0  0  0  0  0  0  0  0  0  0  0
    9.4319    1.7805   23.3430 H   0  0  0  0  0  0  0  0  0  0  0  0
    8.1517   -0.9017   23.3281 H   0  0  0  0  0  0  0  0  0  0  0  0
    8.1717    1.0839   21.1433 H   0  0  0  0  0  0  0  0  0  0  0  0
    6.8659    0.9705   22.3180 H   0  0  0  0  0  0  0  0  0  0  0  0
    6.2301   -0.1602   19.8498 C   0  0  0  0  0  0  0  0  0  0  0  0
    5.0486    0.5899   19.9699 C   0  0  0  0  0  0  0  0  0  0  0  0
    4.6178    1.3368   18.8674 C   0  0  0  0  0  0  0  0  0  0  0  0
    5.3530    1.2840   17.6797 C   0  0  0  0  0  0  0  0  0  0  0  0
    6.4329    0.5034   17.5197 N   0  0  0  0  0  0  0  0  0  0  0  0
    6.8373   -0.1978   18.5856 C   0  0  0  0  0  0  0  0  0  0  0  0
    7.7244   -0.8189   18.4373 H   0  0  0  0  0  0  0  0  0  0  0  0
    5.0682    1.8946   16.8207 H   0  0  0  0  0  0  0  0  0  0  0  0
    3.7499    1.9846   18.9253 H   0  0  0  0  0  0  0  0  0  0  0  0
    4.4752    0.6059   20.8997 H   0  0  0  0  0  0  0  0  0  0  0  0
    7.8063   -1.3616   20.6018 H   0  0  0  0  0  0  0  0  0  0  0  0
    5.4969   -1.1485   22.4221 H   0  0  0  0  0  0  0  0  0  0  0  0
    4.9107   -3.4945   22.2195 N   0  0  0  0  0  0  0  0  0  0  0  0
    5.0294   -3.6634   23.6700 C   0  0  0  0  0  0  0  0  0  0  0  0
    6.4687   -3.7992   24.2557 C   0  0  0  0  0  0  0  0  0  0  0  0
    6.3962   -4.8881   25.3582 C   0  0  0  0  0  0  0  0  0  0  0  0
    5.0642   -5.5709   25.1292 C   0  0  0  0  0  0  0  0  0  0  0  0
    4.5385   -6.6954   25.7688 C   0  0  0  0  0  0  0  0  0  0  0  0
    3.3278   -7.2403   25.3166 C   0  0  0  0  0  0  0  0  0  0  0  0
    2.6411   -6.6479   24.2421 C   0  0  0  0  0  0  0  0  0  0  0  0
    3.1430   -5.4886   23.6381 C   0  0  0  0  0  0  0  0  0  0  0  0
    4.3434   -4.9429   24.1091 C   0  0  0  0  0  0  0  0  0  0  0  0
    2.6386   -5.0270   22.7873 H   0  0  0  0  0  0  0  0  0  0  0  0
    1.7208   -7.0993   23.8724 H   0  0  0  0  0  0  0  0  0  0  0  0
    2.9119   -8.1142   25.8152 H   0  0  0  0  0  0  0  0  0  0  0  0
    5.0741   -7.1529   26.6005 H   0  0  0  0  0  0  0  0  0  0  0  0
    7.2181   -5.6124   25.2833 H   0  0  0  0  0  0  0  0  0  0  0  0
    6.4440   -4.4537   26.3611 H   0  0  0  0  0  0  0  0  0  0  0  0
    6.8157   -2.8287   24.6308 H   0  0  0  0  0  0  0  0  0  0  0  0
    7.1609   -4.1161   23.4714 H   0  0  0  0  0  0  0  0  0  0  0  0
    4.5369   -2.8151   24.1719 H   0  0  0  0  0  0  0  0  0  0  0  0
    4.8959   -4.3811   21.7324 H   0  0  0  0  0  0  0  0  0  0  0  0
  1  2  2  0
  2  3  1  0
  3  4  1  0
  4  5  1  0
  5  6  1  0
  6  7  1  0
  7  8  1  0
  8  9  1  0
  9 10  1  0
 10 11  1  0
 10 12  1  0
  9 13  1  0
  9 14  1  0
  8 15  1  0
  8 16  1  0
  7 17  1  0
  7 18  1  0
  6 19  1  0
  5 20  1  0
  5 21  1  0
  4 22  1  0
 22 23  2  0
 23 24  1  0
 24 25  2  0
 25 26  1  0
 26 27  2  0
 27 28  1  0
 25 29  1  0
 24 30  1  0
 23 31  1  0
  4 32  1  0
  3 33  1  0
  2 34  1  0
 34 35  1  0
 35 36  1  0
 36 37  1  0
 37 38  1  0
 38 39  2  0
 39 40  1  0
 40 41  2  0
 41 42  1  0
 42 43  2  0
 42 44  1  0
 41 45  1  0
 40 46  1  0
 39 47  1  0
 37 48  1  0
 37 49  1  0
 36 50  1  0
 36 51  1  0
 35 52  1  0
 34 53  1  0
 10  6  1  0
 27 22  1  0
 43 35  1  0
 43 38  1  0
M  CHG  1   6   1
M  END
>  <cnnaffinity>  (1) 
5.7947

>  <plip>  (1) 
-0.17857142857142858

>  <filename>  (1) 
[H][c]1[n][c]([H])[c]([C]([H])([N]([H])[C](=[O])[N]([H])[C]2([H])[c]3[c]([H])[c]([H])[c]([H])[c]([H])[c]3[C]([H])([H])[C]2([H])[H])[C]([H])([H])[N+]2([H])[C]([H])([H])[C]([H])([H])[C]([H])([H])[C]2([H])[H])[c]([H])[c]1[H]

>  <combo1>  (1) 
-0.9813602686048439

$$$$
