
     RDKit          3D

 25 26  0  0  0  0  0  0  0  0999 V2000
    7.3716    4.1762   26.1839 H   0  0  0  0  0  0  0  0  0  0  0  0
    6.9618    3.3321   26.4096 O   0  0  0  0  0  0  0  0  0  0  0  0
    7.3584    2.3682   25.4497 C   0  0  0  0  0  0  0  0  0  0  0  0
    7.0977    1.3911   25.8689 H   0  0  0  0  0  0  0  0  0  0  0  0
    8.4399    2.3764   25.2549 H   0  0  0  0  0  0  0  0  0  0  0  0
    6.6078    2.5771   24.1444 C   0  0  0  0  0  0  0  0  0  0  0  0
    6.7946    3.5659   23.7159 H   0  0  0  0  0  0  0  0  0  0  0  0
    5.5410    2.4764   24.3162 H   0  0  0  0  0  0  0  0  0  0  0  0
    6.8417    1.5297   23.1793 O   0  0  0  0  0  0  0  0  0  0  0  0
    8.0486    1.5290   22.5602 N   0  0  0  0  0  0  0  0  0  0  0  0
    8.9614    2.5006   22.6215 N   0  0  0  0  0  0  0  0  0  0  0  0
    9.9038    2.1464   21.8221 N   0  0  0  0  0  0  0  0  0  0  0  0
    9.6329    0.9651   21.2280 N   0  0  0  0  0  0  0  0  0  0  0  0
    8.4662    0.5784   21.7075 C   0  0  0  0  0  0  0  0  0  0  0  0
    7.5455   -0.8485   21.1887 S   0  0  0  0  0  0  0  0  0  0  0  0
    6.6260   -0.0282   19.8827 C   0  0  0  0  0  0  0  0  0  0  0  0
    7.1555    0.0391   18.5787 C   0  0  0  0  0  0  0  0  0  0  0  0
    8.1159   -0.4274   18.3592 H   0  0  0  0  0  0  0  0  0  0  0  0
    6.5524    0.6770   17.5710 N   0  0  0  0  0  0  0  0  0  0  0  0
    5.3913    1.2965   17.8338 C   0  0  0  0  0  0  0  0  0  0  0  0
    4.9174    1.7920   16.9894 H   0  0  0  0  0  0  0  0  0  0  0  0
    4.7995    1.3116   19.1008 C   0  0  0  0  0  0  0  0  0  0  0  0
    3.8710    1.8486   19.2497 H   0  0  0  0  0  0  0  0  0  0  0  0
    5.4265    0.6403   20.1557 C   0  0  0  0  0  0  0  0  0  0  0  0
    5.0135    0.6426   21.1687 H   0  0  0  0  0  0  0  0  0  0  0  0
  1  2  1  0
  2  3  1  0
  3  4  1  0
  3  5  1  0
  3  6  1  0
  6  7  1  0
  6  8  1  0
  6  9  1  0
  9 10  1  0
 10 11  1  0
 11 12  2  0
 12 13  1  0
 13 14  2  0
 14 15  1  0
 15 16  1  0
 16 17  2  0
 17 18  1  0
 17 19  1  0
 19 20  2  0
 20 21  1  0
 20 22  1  0
 22 23  1  0
 22 24  2  0
 24 25  1  0
 14 10  1  0
 24 16  1  0
M  END
>  <cnnaffinity>  (1) 
4.36885

>  <plip>  (1) 
-0.03571428571428571

>  <filename>  (1) 
[H][O][C]([H])([H])[C]([H])([H])[O][n]1[n][n][n][c]1[S][c]1[c]([H])[n][c]([H])[c]([H])[c]1[H]

>  <combo1>  (1) 
-0.21737908153313984

$$$$
