
     RDKit          3D

 32 34  0  0  0  0  0  0  0  0999 V2000
    9.2269    4.2068   26.6893 O   0  0  0  0  0  0  0  0  0  0  0  0
    9.0553    3.3433   25.8478 C   0  0  0  0  0  0  0  0  0  0  0  0
    8.6121    3.5899   24.4737 C   0  0  0  0  0  0  0  0  0  0  0  0
    8.4486    2.5758   23.5973 C   0  0  0  0  0  0  0  0  0  0  0  0
    8.7232    1.1963   23.9751 C   0  0  0  0  0  0  0  0  0  0  0  0
    9.1306    0.9434   25.3074 C   0  0  0  0  0  0  0  0  0  0  0  0
    9.3632   -0.3590   25.7796 C   0  0  0  0  0  0  0  0  0  0  0  0
    9.1859   -1.4388   24.9213 C   0  0  0  0  0  0  0  0  0  0  0  0
    8.7793   -1.2219   23.5914 C   0  0  0  0  0  0  0  0  0  0  0  0
    8.5542    0.0658   23.1140 C   0  0  0  0  0  0  0  0  0  0  0  0
    8.1564    0.2662   21.8051 N   0  0  0  0  0  0  0  0  0  0  0  0
    7.4240   -0.6928   21.0099 C   0  0  0  0  0  0  0  0  0  0  0  0
    6.6704    0.0209   19.9140 C   0  0  0  0  0  0  0  0  0  0  0  0
    5.4468    0.6596   20.1575 C   0  0  0  0  0  0  0  0  0  0  0  0
    4.8063    1.3098   19.1020 C   0  0  0  0  0  0  0  0  0  0  0  0
    5.4027    1.2931   17.8377 C   0  0  0  0  0  0  0  0  0  0  0  0
    6.5681    0.6824   17.5850 N   0  0  0  0  0  0  0  0  0  0  0  0
    7.1793    0.0751   18.6117 C   0  0  0  0  0  0  0  0  0  0  0  0
    8.1192   -0.4201   18.3639 H   0  0  0  0  0  0  0  0  0  0  0  0
    4.9286    1.7860   16.9896 H   0  0  0  0  0  0  0  0  0  0  0  0
    3.8739    1.8392   19.2478 H   0  0  0  0  0  0  0  0  0  0  0  0
    5.0091    0.6413   21.1586 H   0  0  0  0  0  0  0  0  0  0  0  0
    8.0850   -1.4692   20.5842 H   0  0  0  0  0  0  0  0  0  0  0  0
    6.7117   -1.2046   21.6748 H   0  0  0  0  0  0  0  0  0  0  0  0
    8.5353    1.0701   21.3394 H   0  0  0  0  0  0  0  0  0  0  0  0
    8.6334   -2.0496   22.9016 H   0  0  0  0  0  0  0  0  0  0  0  0
    9.3512   -2.4601   25.2614 H   0  0  0  0  0  0  0  0  0  0  0  0
    9.6785   -0.5107   26.8091 H   0  0  0  0  0  0  0  0  0  0  0  0
    9.2859    2.0188   26.1540 N   0  0  0  0  0  0  0  0  0  0  0  0
    9.5732    1.8820   27.1099 H   0  0  0  0  0  0  0  0  0  0  0  0
    8.0811    2.7791   22.5906 H   0  0  0  0  0  0  0  0  0  0  0  0
    8.4418    4.6320   24.2447 H   0  0  0  0  0  0  0  0  0  0  0  0
  1  2  2  0
  2  3  1  0
  3  4  2  0
  4  5  1  0
  5  6  2  0
  6  7  1  0
  7  8  2  0
  8  9  1  0
  9 10  2  0
 10 11  1  0
 11 12  1  0
 12 13  1  0
 13 14  2  0
 14 15  1  0
 15 16  2  0
 16 17  1  0
 17 18  2  0
 18 19  1  0
 16 20  1  0
 15 21  1  0
 14 22  1  0
 12 23  1  0
 12 24  1  0
 11 25  1  0
  9 26  1  0
  8 27  1  0
  7 28  1  0
  6 29  1  0
 29 30  1  0
  4 31  1  0
  3 32  1  0
 29  2  1  0
 10  5  1  0
 18 13  1  0
M  END
>  <cnnaffinity>  (1) 
4.9291

>  <plip>  (1) 
-0.06896551724137931

>  <filename>  (1) 
[H][c]1[n][c]([H])[c]([C]([H])([H])[N]([H])[c]2[c]([H])[c]([H])[c]([H])[c]3[c]2[c]([H])[c]([H])[c](=[O])[n]3[H])[c]([H])[c]1[H]

>  <combo1>  (1) 
-0.45092560230714784

$$$$
