
     RDKit          3D

 28 29  0  0  0  0  0  0  0  0999 V2000
    7.5744   -4.9939   27.5839 H   0  0  0  0  0  0  0  0  0  0  0  0
    8.2250   -4.7440   26.7470 C   0  0  0  0  0  0  0  0  0  0  0  0
    7.6878   -4.1691   25.6605 N   0  0  0  0  0  0  0  0  0  0  0  0
    8.4859   -3.8521   24.6251 C   0  0  0  0  0  0  0  0  0  0  0  0
    7.8922   -3.2162   23.4900 C   0  0  0  0  0  0  0  0  0  0  0  0
    7.3147   -2.6376   22.5772 C   0  0  0  0  0  0  0  0  0  0  0  0
    6.5437   -1.9162   21.5508 C   0  0  2  0  0  0  0  0  0  0  0  0
    5.6736   -1.4594   22.0109 H   0  0  0  0  0  0  0  0  0  0  0  0
    5.8887   -3.1813   20.1652 Br  0  0  0  0  0  0  0  0  0  0  0  0
    7.3778   -0.7925   20.9400 C   0  0  0  0  0  0  0  0  0  0  0  0
    7.6341   -0.0796   21.7352 H   0  0  0  0  0  0  0  0  0  0  0  0
    8.3052   -1.2171   20.5435 H   0  0  0  0  0  0  0  0  0  0  0  0
    6.6258   -0.0570   19.8482 C   0  0  0  0  0  0  0  0  0  0  0  0
    7.1433   -0.0040   18.5417 C   0  0  0  0  0  0  0  0  0  0  0  0
    8.0815   -0.5093   18.3393 H   0  0  0  0  0  0  0  0  0  0  0  0
    6.5524    0.6493   17.5261 N   0  0  0  0  0  0  0  0  0  0  0  0
    5.4080    1.3019   17.7911 C   0  0  0  0  0  0  0  0  0  0  0  0
    4.9375    1.8649   16.9910 H   0  0  0  0  0  0  0  0  0  0  0  0
    4.8109    1.2910   19.0583 C   0  0  0  0  0  0  0  0  0  0  0  0
    3.8927    1.8479   19.2097 H   0  0  0  0  0  0  0  0  0  0  0  0
    5.4150    0.5967   20.1095 C   0  0  0  0  0  0  0  0  0  0  0  0
    4.9634    0.5796   21.1009 H   0  0  0  0  0  0  0  0  0  0  0  0
    9.8658   -4.1103   24.6594 C   0  0  0  0  0  0  0  0  0  0  0  0
   10.4760   -3.8407   23.8075 H   0  0  0  0  0  0  0  0  0  0  0  0
   10.4447   -4.7066   25.7794 C   0  0  0  0  0  0  0  0  0  0  0  0
   11.5153   -4.9181   25.8223 H   0  0  0  0  0  0  0  0  0  0  0  0
    9.5947   -5.0184   26.8395 C   0  0  0  0  0  0  0  0  0  0  0  0
    9.9854   -5.4623   27.7455 H   0  0  0  0  0  0  0  0  0  0  0  0
  1  2  1  0
  2  3  2  0
  3  4  1  0
  4  5  1  0
  5  6  3  0
  6  7  1  0
  7  8  1  1
  7  9  1  0
  7 10  1  0
 10 11  1  0
 10 12  1  0
 10 13  1  0
 13 14  2  0
 14 15  1  0
 14 16  1  0
 16 17  2  0
 17 18  1  0
 17 19  1  0
 19 20  1  0
 19 21  2  0
 21 22  1  0
  4 23  2  0
 23 24  1  0
 23 25  1  0
 25 26  1  0
 25 27  2  0
 27 28  1  0
 27  2  1  0
 21 13  1  0
M  END
>  <cnnaffinity>  (1) 
4.44654

>  <plip>  (1) 
-0.03571428571428571

>  <filename>  (1) 
[H][c]1[n][c]([C]#[C][C@]([H])([Br])[C]([H])([H])[c]2[c]([H])[n][c]([H])[c]([H])[c]2[H])[c]([H])[c]([H])[c]1[H]

>  <combo1>  (1) 
-0.18433974091099037

$$$$
