
     RDKit          3D

 36 38  0  0  0  0  0  0  0  0999 V2000
    4.9647    2.0350   16.3101 H   0  0  0  0  0  0  0  0  0  0  0  0
    5.3220    1.4964   17.1856 C   0  0  0  0  0  0  0  0  0  0  0  0
    6.4128    0.7335   17.0106 N   0  0  0  0  0  0  0  0  0  0  0  0
    6.8985    0.1010   18.0843 C   0  0  0  0  0  0  0  0  0  0  0  0
    7.7544   -0.5443   17.9081 H   0  0  0  0  0  0  0  0  0  0  0  0
    6.3711    0.2267   19.3938 C   0  0  0  0  0  0  0  0  0  0  0  0
    7.0023   -0.3503   20.5180 N   0  0  0  0  0  0  0  0  0  0  0  0
    6.9513    0.1293   21.8274 C   0  0  0  0  0  0  0  0  0  0  0  0
    6.4047    1.1337   22.2132 O   0  0  0  0  0  0  0  0  0  0  0  0
    7.7214   -0.7497   22.6221 N   0  0  0  0  0  0  0  0  0  0  0  0
    7.8201   -0.6114   24.0281 N   0  0  0  0  0  0  0  0  0  0  0  0
    8.4827    0.1111   24.3081 H   0  0  0  0  0  0  0  0  0  0  0  0
    8.0034   -1.7406   24.8624 C   0  0  0  0  0  0  0  0  0  0  0  0
    7.2729   -2.9335   24.7852 C   0  0  0  0  0  0  0  0  0  0  0  0
    6.5010   -3.0151   24.0258 H   0  0  0  0  0  0  0  0  0  0  0  0
    7.5445   -4.0028   25.6624 C   0  0  0  0  0  0  0  0  0  0  0  0
    7.0401   -4.9630   25.5555 H   0  0  0  0  0  0  0  0  0  0  0  0
    8.5131   -3.8479   26.6648 C   0  0  0  0  0  0  0  0  0  0  0  0
    8.8866   -4.7983   27.5646 O   0  0  0  0  0  0  0  0  0  0  0  0
    8.0064   -5.8483   27.9085 C   0  0  0  0  0  0  0  0  0  0  0  0
    6.9653   -5.5131   28.0085 H   0  0  0  0  0  0  0  0  0  0  0  0
    8.0429   -6.6683   27.1824 H   0  0  0  0  0  0  0  0  0  0  0  0
    8.3554   -6.2182   28.8728 H   0  0  0  0  0  0  0  0  0  0  0  0
    9.2080   -2.6338   26.7729 C   0  0  0  0  0  0  0  0  0  0  0  0
    9.9767   -2.5269   27.5269 H   0  0  0  0  0  0  0  0  0  0  0  0
    8.9375   -1.5917   25.9025 C   0  0  0  0  0  0  0  0  0  0  0  0
    9.4732   -0.6533   26.0391 H   0  0  0  0  0  0  0  0  0  0  0  0
    8.3596   -1.7018   21.8304 C   0  0  0  0  0  0  0  0  0  0  0  0
    9.1620   -2.5353   22.1592 O   0  0  0  0  0  0  0  0  0  0  0  0
    7.8331   -1.5241   20.4363 C   0  0  0  0  0  0  0  0  0  0  0  0
    8.6725   -1.4466   19.7389 H   0  0  0  0  0  0  0  0  0  0  0  0
    7.2528   -2.4068   20.1672 H   0  0  0  0  0  0  0  0  0  0  0  0
    5.1825    0.9605   19.5401 C   0  0  0  0  0  0  0  0  0  0  0  0
    4.7110    1.0287   20.5183 H   0  0  0  0  0  0  0  0  0  0  0  0
    4.6584    1.6047   18.4146 C   0  0  0  0  0  0  0  0  0  0  0  0
    3.7630    2.2169   18.4892 H   0  0  0  0  0  0  0  0  0  0  0  0
  1  2  1  0
  2  3  2  0
  3  4  1  0
  4  5  1  0
  4  6  2  0
  6  7  1  0
  7  8  1  0
  8  9  2  0
  8 10  1  0
 10 11  1  0
 11 12  1  0
 11 13  1  0
 13 14  2  0
 14 15  1  0
 14 16  1  0
 16 17  1  0
 16 18  2  0
 18 19  1  0
 19 20  1  0
 20 21  1  0
 20 22  1  0
 20 23  1  0
 18 24  1  0
 24 25  1  0
 24 26  2  0
 26 27  1  0
 10 28  1  0
 28 29  2  0
 28 30  1  0
 30 31  1  0
 30 32  1  0
  6 33  1  0
 33 34  1  0
 33 35  2  0
 35 36  1  0
 35  2  1  0
 30  7  1  0
 26 13  1  0
M  END
>  <cnnaffinity>  (1) 
4.66467

>  <plip>  (1) 
-0.10344827586206896

>  <filename>  (1) 
[H][c]1[n][c]([H])[c]([N]2[C](=[O])[N]([N]([H])[c]3[c]([H])[c]([H])[c]([O][C]([H])([H])[H])[c]([H])[c]3[H])[C](=[O])[C]2([H])[H])[c]([H])[c]1[H]

>  <combo1>  (1) 
-0.5392209561289312

$$$$
