
     RDKit          3D

 36 39  0  0  0  0  0  0  0  0999 V2000
    4.9171    1.7900   16.9857 H   0  0  0  0  0  0  0  0  0  0  0  0
    5.3967    1.2982   17.8283 C   0  0  0  0  0  0  0  0  0  0  0  0
    6.5614    0.6847   17.5666 N   0  0  0  0  0  0  0  0  0  0  0  0
    7.1599    0.0617   18.5903 C   0  0  0  0  0  0  0  0  0  0  0  0
    8.1135   -0.4178   18.3637 H   0  0  0  0  0  0  0  0  0  0  0  0
    6.6402   -0.0100   19.8939 C   0  0  0  0  0  0  0  0  0  0  0  0
    7.4167   -0.6593   21.0137 C   0  0  0  0  0  0  0  0  0  0  0  0
    7.9333   -1.5527   20.6367 H   0  0  0  0  0  0  0  0  0  0  0  0
    6.7350   -0.9988   21.8040 H   0  0  0  0  0  0  0  0  0  0  0  0
    8.4515    0.2836   21.6552 C   0  0  0  0  0  0  0  0  0  0  0  0
    7.9121    1.5769   22.2155 C   0  0  0  0  0  0  0  0  0  0  0  0
    7.9698    2.7421   21.4717 C   0  0  0  0  0  0  0  0  0  0  0  0
    8.4515    2.6698   20.4995 H   0  0  0  0  0  0  0  0  0  0  0  0
    7.4585    3.9760   21.9450 C   0  0  0  0  0  0  0  0  0  0  0  0
    7.5171    4.8747   21.3274 H   0  0  0  0  0  0  0  0  0  0  0  0
    6.8821    4.0492   23.1926 C   0  0  0  0  0  0  0  0  0  0  0  0
    6.4859    4.9890   23.5815 H   0  0  0  0  0  0  0  0  0  0  0  0
    6.7908    2.8763   23.9952 C   0  0  0  0  0  0  0  0  0  0  0  0
    6.1909    2.8952   25.2922 C   0  0  0  0  0  0  0  0  0  0  0  0
    5.7972    3.8373   25.6805 H   0  0  0  0  0  0  0  0  0  0  0  0
    6.1253    1.7245   26.0010 C   0  0  0  0  0  0  0  0  0  0  0  0
    5.6777    1.6836   26.9887 H   0  0  0  0  0  0  0  0  0  0  0  0
    6.6567    0.5350   25.4323 C   0  0  0  0  0  0  0  0  0  0  0  0
    6.6017   -0.3930   25.9967 H   0  0  0  0  0  0  0  0  0  0  0  0
    7.2255    0.4596   24.2513 N   0  0  0  0  0  0  0  0  0  0  0  0
    7.2995    1.6200   23.5099 C   0  0  0  0  0  0  0  0  0  0  0  0
    9.6066   -0.3604   22.3760 C   0  0  0  0  0  0  0  0  0  0  0  0
    9.6249   -1.4456   22.4443 H   0  0  0  0  0  0  0  0  0  0  0  0
    9.9641    0.1410   23.2715 H   0  0  0  0  0  0  0  0  0  0  0  0
    9.8360    0.3036   21.0500 C   0  0  0  0  0  0  0  0  0  0  0  0
   10.3886    1.2412   21.0411 H   0  0  0  0  0  0  0  0  0  0  0  0
   10.0233   -0.3326   20.1874 H   0  0  0  0  0  0  0  0  0  0  0  0
    5.4245    0.6433   20.1422 C   0  0  0  0  0  0  0  0  0  0  0  0
    5.0138    0.6461   21.1579 H   0  0  0  0  0  0  0  0  0  0  0  0
    4.7958    1.3135   19.0920 C   0  0  0  0  0  0  0  0  0  0  0  0
    3.8671    1.8499   19.2475 H   0  0  0  0  0  0  0  0  0  0  0  0
  1  2  1  0
  2  3  2  0
  3  4  1  0
  4  5  1  0
  4  6  2  0
  6  7  1  0
  7  8  1  0
  7  9  1  0
  7 10  1  0
 10 11  1  0
 11 12  2  0
 12 13  1  0
 12 14  1  0
 14 15  1  0
 14 16  2  0
 16 17  1  0
 16 18  1  0
 18 19  2  0
 19 20  1  0
 19 21  1  0
 21 22  1  0
 21 23  2  0
 23 24  1  0
 23 25  1  0
 25 26  2  0
 10 27  1  0
 27 28  1  0
 27 29  1  0
 27 30  1  0
 30 31  1  0
 30 32  1  0
  6 33  1  0
 33 34  1  0
 33 35  2  0
 35 36  1  0
 35  2  1  0
 30 10  1  0
 26 11  1  0
 26 18  1  0
M  END
>  <cnnaffinity>  (1) 
5.01771

>  <plip>  (1) 
-0.03571428571428571

>  <filename>  (1) 
[H][c]1[n][c]([H])[c]([C]([H])([H])[C]2([c]3[c]([H])[c]([H])[c]([H])[c]4[c]([H])[c]([H])[c]([H])[n][c]34)[C]([H])([H])[C]2([H])[H])[c]([H])[c]1[H]

>  <combo1>  (1) 
-0.2294485782328603

$$$$
