
     RDKit          3D

 34 36  0  0  0  0  0  0  0  0999 V2000
    6.7111   -1.5092   21.8446 C   0  0  0  0  0  0  0  0  0  0  0  0
    7.3612   -0.7458   20.9545 C   0  0  0  0  0  0  0  0  0  0  0  0
    6.6498   -0.0024   19.8660 C   0  0  0  0  0  0  0  0  0  0  0  0
    5.4251    0.6630   20.1006 C   0  0  0  0  0  0  0  0  0  0  0  0
    4.7894    1.3367   19.0564 C   0  0  0  0  0  0  0  0  0  0  0  0
    5.3900    1.3285   17.7942 C   0  0  0  0  0  0  0  0  0  0  0  0
    6.5484    0.7004   17.5338 N   0  0  0  0  0  0  0  0  0  0  0  0
    7.1526    0.0743   18.5512 C   0  0  0  0  0  0  0  0  0  0  0  0
    8.0980   -0.4092   18.2994 H   0  0  0  0  0  0  0  0  0  0  0  0
    4.9180    1.8409   16.9591 H   0  0  0  0  0  0  0  0  0  0  0  0
    3.8520    1.8702   19.2053 H   0  0  0  0  0  0  0  0  0  0  0  0
    4.9966    0.6746   21.1029 H   0  0  0  0  0  0  0  0  0  0  0  0
    8.8672   -0.6176   21.0214 C   0  0  0  0  0  0  0  0  0  0  0  0
    9.4003   -0.9700   22.4504 N   0  0  0  0  0  4  0  0  0  0  0  0
   10.8891   -0.7665   22.5054 C   0  0  0  0  0  0  0  0  0  0  0  0
   11.3058    0.6762   22.3752 C   0  0  0  0  0  0  0  0  0  0  0  0
   11.3778    1.6816   23.2792 C   0  0  0  0  0  0  0  0  0  0  0  0
   11.8384    2.7986   22.6374 O   0  0  0  0  0  0  0  0  0  0  0  0
   12.0033    2.4097   21.3608 C   0  0  0  0  0  0  0  0  0  0  0  0
   11.7030    1.1768   21.1393 N   0  0  0  0  0  0  0  0  0  0  0  0
   12.3689    3.1449   20.6557 H   0  0  0  0  0  0  0  0  0  0  0  0
   11.1629    1.7902   24.3315 H   0  0  0  0  0  0  0  0  0  0  0  0
   11.3552   -1.2921   21.6624 H   0  0  0  0  0  0  0  0  0  0  0  0
   11.2948   -1.2037   23.4221 H   0  0  0  0  0  0  0  0  0  0  0  0
    8.8691   -2.3167   22.8843 C   0  0  0  0  0  0  0  0  0  0  0  0
    7.3573   -2.1919   23.0315 C   0  0  0  0  0  0  0  0  0  0  0  0
    6.9235   -3.1863   23.1681 H   0  0  0  0  0  0  0  0  0  0  0  0
    7.1101   -1.6354   23.9466 H   0  0  0  0  0  0  0  0  0  0  0  0
    9.1191   -3.0686   22.1283 H   0  0  0  0  0  0  0  0  0  0  0  0
    9.3289   -2.6240   23.8305 H   0  0  0  0  0  0  0  0  0  0  0  0
    8.9420   -0.2663   23.0832 H   0  0  0  0  0  0  0  0  0  0  0  0
    9.3527   -1.2934   20.3053 H   0  0  0  0  0  0  0  0  0  0  0  0
    9.1886    0.3989   20.7965 H   0  0  0  0  0  0  0  0  0  0  0  0
    5.6406   -1.6651   21.7161 H   0  0  0  0  0  0  0  0  0  0  0  0
  1  2  2  0
  2  3  1  0
  3  4  2  0
  4  5  1  0
  5  6  2  0
  6  7  1  0
  7  8  2  0
  8  9  1  0
  6 10  1  0
  5 11  1  0
  4 12  1  0
  2 13  1  0
 13 14  1  0
 14 15  1  0
 15 16  1  0
 16 17  2  0
 17 18  1  0
 18 19  1  0
 19 20  2  0
 19 21  1  0
 17 22  1  0
 15 23  1  0
 15 24  1  0
 14 25  1  0
 25 26  1  0
 26 27  1  0
 26 28  1  0
 25 29  1  0
 25 30  1  0
 14 31  1  0
 13 32  1  0
 13 33  1  0
  1 34  1  0
 26  1  1  0
  8  3  1  0
 20 16  1  0
M  CHG  1  14   1
M  END
>  <cnnaffinity>  (1) 
4.80505

>  <plip>  (1) 
-0.07142857142857142

>  <filename>  (1) 
[H][C]1=[C]([c]2[c]([H])[n][c]([H])[c]([H])[c]2[H])[C]([H])([H])[N+]([H])([C]([H])([H])[c]2[n][c]([H])[o][c]2[H])[C]([H])([H])[C]1([H])[H]

>  <combo1>  (1) 
-0.4721626415834469

$$$$
