
     RDKit          3D

 33 35  0  0  0  0  0  0  0  0999 V2000
    4.7993    1.3166   19.0967 C   0  0  0  0  0  0  0  0  0  0  0  0
    5.3985    1.2966   17.8344 C   0  0  0  0  0  0  0  0  0  0  0  0
    6.5603    0.6760   17.5775 N   0  0  0  0  0  0  0  0  0  0  0  0
    7.1615    0.0494   18.5962 C   0  0  0  0  0  0  0  0  0  0  0  0
    6.6411    0.0065   19.8987 C   0  0  0  0  0  0  0  0  0  0  0  0
    7.4002   -0.6543   21.0133 C   0  0  0  0  0  0  0  0  0  0  0  0
    8.5631    0.2236   21.5055 C   0  0  0  0  0  0  0  0  0  0  0  0
    9.3860   -0.4983   22.5087 N   0  0  0  0  0  0  0  0  0  0  0  0
   10.1567    0.1964   23.3574 C   0  0  0  0  0  0  0  0  0  0  0  0
   11.2664   -0.2333   23.9698 N   0  0  0  0  0  4  0  0  0  0  0  0
   11.8656    0.7784   24.8396 C   0  0  0  0  0  0  0  0  0  0  0  0
   10.8541    1.9313   24.6378 C   0  0  0  0  0  0  0  0  0  0  0  0
    9.8777    1.4420   23.6844 O   0  0  0  0  0  0  0  0  0  0  0  0
   10.3196    2.1905   25.5487 H   0  0  0  0  0  0  0  0  0  0  0  0
   11.3064    2.8272   24.2176 H   0  0  0  0  0  0  0  0  0  0  0  0
   12.8809    1.0568   24.5308 H   0  0  0  0  0  0  0  0  0  0  0  0
   11.9054    0.4410   25.8818 H   0  0  0  0  0  0  0  0  0  0  0  0
   11.6550   -1.1283   23.7460 H   0  0  0  0  0  0  0  0  0  0  0  0
    9.6962   -1.9140   22.1906 C   0  0  0  0  0  0  0  0  0  0  0  0
    8.4704   -2.6355   21.6282 C   0  0  0  0  0  0  0  0  0  0  0  0
    7.8994   -1.9031   20.5614 O   0  0  0  0  0  0  0  0  0  0  0  0
    8.7553   -3.6077   21.2205 H   0  0  0  0  0  0  0  0  0  0  0  0
    7.7227   -2.8136   22.4191 H   0  0  0  0  0  0  0  0  0  0  0  0
   10.0041   -2.4485   23.0991 H   0  0  0  0  0  0  0  0  0  0  0  0
   10.5065   -1.9937   21.4482 H   0  0  0  0  0  0  0  0  0  0  0  0
    9.1641    0.5286   20.6337 H   0  0  0  0  0  0  0  0  0  0  0  0
    8.1370    1.1313   21.9432 H   0  0  0  0  0  0  0  0  0  0  0  0
    6.7149   -0.8347   21.8606 H   0  0  0  0  0  0  0  0  0  0  0  0
    5.4300    0.6552   20.1496 C   0  0  0  0  0  0  0  0  0  0  0  0
    4.9977    0.6423   21.1541 H   0  0  0  0  0  0  0  0  0  0  0  0
    8.1103   -0.4336   18.3626 H   0  0  0  0  0  0  0  0  0  0  0  0
    4.9261    1.7909   16.9874 H   0  0  0  0  0  0  0  0  0  0  0  0
    3.8697    1.8491   19.2432 H   0  0  0  0  0  0  0  0  0  0  0  0
  1  2  2  0
  2  3  1  0
  3  4  2  0
  4  5  1  0
  5  6  1  0
  6  7  1  0
  7  8  1  0
  8  9  1  0
  9 10  2  0
 10 11  1  0
 11 12  1  0
 12 13  1  0
 12 14  1  0
 12 15  1  0
 11 16  1  0
 11 17  1  0
 10 18  1  0
  8 19  1  0
 19 20  1  0
 20 21  1  0
 20 22  1  0
 20 23  1  0
 19 24  1  0
 19 25  1  0
  7 26  1  0
  7 27  1  0
  6 28  1  0
  5 29  2  0
 29 30  1  0
  4 31  1  0
  2 32  1  0
  1 33  1  0
 29  1  1  0
 21  6  1  0
 13  9  1  0
M  CHG  1  10   1
M  END
>  <cnnaffinity>  (1) 
3.88188

>  <plip>  (1) 
-0.034482758620689655

>  <filename>  (1) 
[H][c]1[n][c]([H])[c]([C]2([H])[O][C]([H])([H])[C]([H])([H])[N]([C]3=[N+]([H])[C]([H])([H])[C]([H])([H])[O]3)[C]2([H])[H])[c]([H])[c]1[H]

>  <combo1>  (1) 
-0.19045373398737217

$$$$
