
     RDKit          3D

 37 39  0  0  0  0  0  0  0  0999 V2000
    4.9833    1.7845   16.9419 H   0  0  0  0  0  0  0  0  0  0  0  0
    5.4374    1.2851   17.7963 C   0  0  0  0  0  0  0  0  0  0  0  0
    6.5865    0.6351   17.5543 N   0  0  0  0  0  0  0  0  0  0  0  0
    7.1682    0.0266   18.5943 C   0  0  0  0  0  0  0  0  0  0  0  0
    8.1004   -0.4961   18.3820 H   0  0  0  0  0  0  0  0  0  0  0  0
    6.6596    0.0234   19.9076 C   0  0  0  0  0  0  0  0  0  0  0  0
    7.3794   -0.6913   21.0385 C   0  0  1  0  0  0  0  0  0  0  0  0
    8.3891   -0.9472   20.6955 H   0  0  0  0  0  0  0  0  0  0  0  0
    7.6353    0.1827   22.2715 C   0  0  0  0  0  0  0  0  0  0  0  0
    8.2874    1.1903   22.2748 O   0  0  0  0  0  0  0  0  0  0  0  0
    7.0785   -0.4559   23.3943 N   0  0  0  0  0  0  0  0  0  0  0  0
    7.2774    0.0350   24.6958 N   0  0  0  0  0  0  0  0  0  0  0  0
    8.1953   -0.2006   25.1065 H   0  0  0  0  0  0  0  0  0  0  0  0
    6.3104   -0.0713   25.6974 C   0  0  0  0  0  0  0  0  0  0  0  0
    4.9423    0.0993   25.4584 C   0  0  0  0  0  0  0  0  0  0  0  0
    4.6265    0.3314   24.4483 H   0  0  0  0  0  0  0  0  0  0  0  0
    4.0222   -0.0153   26.5029 C   0  0  0  0  0  0  0  0  0  0  0  0
    2.9582    0.1010   26.2999 H   0  0  0  0  0  0  0  0  0  0  0  0
    4.4710   -0.2810   27.8032 C   0  0  0  0  0  0  0  0  0  0  0  0
    3.7559   -0.3754   28.6181 H   0  0  0  0  0  0  0  0  0  0  0  0
    5.8375   -0.3973   28.0600 C   0  0  0  0  0  0  0  0  0  0  0  0
    6.1628   -0.5991   29.0803 H   0  0  0  0  0  0  0  0  0  0  0  0
    6.7815   -0.2613   27.0229 C   0  0  0  0  0  0  0  0  0  0  0  0
    8.2533   -0.2871   27.2669 C   0  0  0  0  0  0  0  0  0  0  0  0
    9.1091   -0.5928   26.4362 O   0  0  0  0  0  0  0  0  0  0  0  0
    8.6998    0.0697   28.4961 N   0  0  0  0  0  0  0  0  0  0  0  0
    9.6951    0.2307   28.4132 H   0  0  0  0  0  0  0  0  0  0  0  0
    8.1714    0.7786   28.9736 H   0  0  0  0  0  0  0  0  0  0  0  0
    6.6511   -1.7557   23.0811 C   0  0  0  0  0  0  0  0  0  0  0  0
    6.3438   -2.6102   23.8720 O   0  0  0  0  0  0  0  0  0  0  0  0
    6.6599   -1.9178   21.5871 C   0  0  0  0  0  0  0  0  0  0  0  0
    7.1465   -2.8613   21.3415 H   0  0  0  0  0  0  0  0  0  0  0  0
    5.6212   -2.0117   21.2608 H   0  0  0  0  0  0  0  0  0  0  0  0
    5.4483    0.6906   20.1290 C   0  0  0  0  0  0  0  0  0  0  0  0
    5.0029    0.7158   21.1271 H   0  0  0  0  0  0  0  0  0  0  0  0
    4.8256    1.3312   19.0543 C   0  0  0  0  0  0  0  0  0  0  0  0
    3.8901    1.8676   19.1771 H   0  0  0  0  0  0  0  0  0  0  0  0
  1  2  1  0
  2  3  2  0
  3  4  1  0
  4  5  1  0
  4  6  2  0
  6  7  1  0
  7  8  1  6
  7  9  1  0
  9 10  2  0
  9 11  1  0
 11 12  1  0
 12 13  1  0
 12 14  1  0
 14 15  2  0
 15 16  1  0
 15 17  1  0
 17 18  1  0
 17 19  2  0
 19 20  1  0
 19 21  1  0
 21 22  1  0
 21 23  2  0
 23 24  1  0
 24 25  2  0
 24 26  1  0
 26 27  1  0
 26 28  1  0
 11 29  1  0
 29 30  2  0
 29 31  1  0
 31 32  1  0
 31 33  1  0
  6 34  1  0
 34 35  1  0
 34 36  2  0
 36 37  1  0
 36  2  1  0
 31  7  1  0
 23 14  1  0
M  END
>  <cnnaffinity>  (1) 
4.982

>  <plip>  (1) 
-0.10714285714285714

>  <filename>  (1) 
[H][c]1[n][c]([H])[c]([C@@]2([H])[C](=[O])[N]([N]([H])[c]3[c]([H])[c]([H])[c]([H])[c]([H])[c]3[C](=[O])[N]([H])[H])[C](=[O])[C]2([H])[H])[c]([H])[c]1[H]

>  <combo1>  (1) 
-0.573384200560632

$$$$
