
     RDKit          3D

 51 54  0  0  0  0  0  0  0  0999 V2000
    6.6535    1.1893   23.0619 O   0  0  0  0  0  0  0  0  0  0  0  0
    6.4630   -0.0008   23.2437 C   0  0  0  0  0  0  0  0  0  0  0  0
    6.0254   -0.6106   24.5297 C   0  0  0  0  0  0  0  0  0  0  0  0
    5.9420    0.0459   25.6985 C   0  0  0  0  0  0  0  0  0  0  0  0
    4.8980   -0.2515   26.7705 C   0  0  0  0  0  0  0  0  0  0  0  0
    4.2645    1.0711   27.2181 C   0  0  0  0  0  0  0  0  0  0  0  0
    5.2466    2.0011   27.6878 O   0  0  0  0  0  0  0  0  0  0  0  0
    6.4234    2.1146   26.9998 C   0  0  0  0  0  0  0  0  0  0  0  0
    7.2230    3.2184   27.3163 C   0  0  0  0  0  0  0  0  0  0  0  0
    8.4776    3.3647   26.7260 C   0  0  0  0  0  0  0  0  0  0  0  0
    8.9559    2.3821   25.8484 C   0  0  0  0  0  0  0  0  0  0  0  0
    8.1486    1.3044   25.5093 C   0  0  0  0  0  0  0  0  0  0  0  0
    6.8480    1.1653   26.0452 C   0  0  0  0  0  0  0  0  0  0  0  0
    8.5045    0.5667   24.7959 H   0  0  0  0  0  0  0  0  0  0  0  0
    9.9543    2.4575   25.4293 H   0  0  0  0  0  0  0  0  0  0  0  0
    9.0953    4.2251   26.9662 H   0  0  0  0  0  0  0  0  0  0  0  0
    6.8419    3.9357   28.0380 H   0  0  0  0  0  0  0  0  0  0  0  0
    3.5864    0.9221   28.0668 H   0  0  0  0  0  0  0  0  0  0  0  0
    3.6937    1.5318   26.3952 H   0  0  0  0  0  0  0  0  0  0  0  0
    5.3941   -0.7101   27.6347 H   0  0  0  0  0  0  0  0  0  0  0  0
    4.1229   -0.9354   26.4128 H   0  0  0  0  0  0  0  0  0  0  0  0
    5.7111   -1.6485   24.4679 H   0  0  0  0  0  0  0  0  0  0  0  0
    6.6331   -0.9274   22.2576 N   0  0  0  0  0  0  0  0  0  0  0  0
    7.3698   -0.7435   21.0237 C   0  0  0  0  0  0  0  0  0  0  0  0
    8.7209   -0.0374   21.2805 C   0  0  0  0  0  0  0  0  0  0  0  0
    9.6414   -0.7771   22.2601 C   0  0  0  0  0  0  0  0  0  0  0  0
   10.1841   -2.1084   21.7300 C   0  0  0  0  0  0  0  0  0  0  0  0
   11.5405   -2.2447   22.4308 C   0  0  0  0  0  0  0  0  0  0  0  0
   11.9249   -0.9542   22.8830 O   0  0  0  0  0  0  0  0  0  0  0  0
   10.9301   -0.0036   22.5834 C   0  0  0  0  0  0  0  0  0  0  0  0
   11.2554    0.6133   21.7287 H   0  0  0  0  0  0  0  0  0  0  0  0
   10.8087    0.6537   23.4529 H   0  0  0  0  0  0  0  0  0  0  0  0
   12.3229   -2.5997   21.7596 H   0  0  0  0  0  0  0  0  0  0  0  0
   11.4646   -2.9335   23.2829 H   0  0  0  0  0  0  0  0  0  0  0  0
   10.3156   -2.0520   20.6455 H   0  0  0  0  0  0  0  0  0  0  0  0
    9.5171   -2.9522   21.9484 H   0  0  0  0  0  0  0  0  0  0  0  0
    9.1197   -0.9771   23.2123 H   0  0  0  0  0  0  0  0  0  0  0  0
    8.4849    0.9603   21.6659 H   0  0  0  0  0  0  0  0  0  0  0  0
    9.2508    0.0834   20.3226 H   0  0  0  0  0  0  0  0  0  0  0  0
    6.5766   -0.0186   19.9460 C   0  0  0  0  0  0  0  0  0  0  0  0
    5.3775    0.6754   20.1498 C   0  0  0  0  0  0  0  0  0  0  0  0
    4.7859    1.3247   19.0651 C   0  0  0  0  0  0  0  0  0  0  0  0
    5.4176    1.2824   17.8184 C   0  0  0  0  0  0  0  0  0  0  0  0
    6.5668    0.6263   17.5970 N   0  0  0  0  0  0  0  0  0  0  0  0
    7.1176    0.0069   18.6478 C   0  0  0  0  0  0  0  0  0  0  0  0
    8.0641   -0.5015   18.4533 H   0  0  0  0  0  0  0  0  0  0  0  0
    4.9859    1.7942   16.9609 H   0  0  0  0  0  0  0  0  0  0  0  0
    3.8611    1.8801   19.1776 H   0  0  0  0  0  0  0  0  0  0  0  0
    4.9317    0.7380   21.1451 H   0  0  0  0  0  0  0  0  0  0  0  0
    7.5682   -1.7549   20.6344 H   0  0  0  0  0  0  0  0  0  0  0  0
    6.3015   -1.8380   22.4933 H   0  0  0  0  0  0  0  0  0  0  0  0
  1  2  2  0
  2  3  1  0
  3  4  2  3
  4  5  1  0
  5  6  1  0
  6  7  1  0
  7  8  1  0
  8  9  2  0
  9 10  1  0
 10 11  2  0
 11 12  1  0
 12 13  2  0
 12 14  1  0
 11 15  1  0
 10 16  1  0
  9 17  1  0
  6 18  1  0
  6 19  1  0
  5 20  1  0
  5 21  1  0
  3 22  1  0
  2 23  1  0
 23 24  1  0
 24 25  1  0
 25 26  1  0
 26 27  1  0
 27 28  1  0
 28 29  1  0
 29 30  1  0
 30 31  1  0
 30 32  1  0
 28 33  1  0
 28 34  1  0
 27 35  1  0
 27 36  1  0
 26 37  1  0
 25 38  1  0
 25 39  1  0
 24 40  1  0
 40 41  2  0
 41 42  1  0
 42 43  2  0
 43 44  1  0
 44 45  2  0
 45 46  1  0
 43 47  1  0
 42 48  1  0
 41 49  1  0
 24 50  1  0
 23 51  1  0
 13  4  1  0
 30 26  1  0
 45 40  1  0
 13  8  1  0
M  END
>  <cnnaffinity>  (1) 
5.54727

>  <plip>  (1) 
-0.07142857142857142

>  <filename>  (1) 
[H][C]([C](=[O])[N]([H])[C]([H])([c]1[c]([H])[n][c]([H])[c]([H])[c]1[H])[C]([H])([H])[C]1([H])[C]([H])([H])[O][C]([H])([H])[C]1([H])[H])=[C]1[c]2[c]([H])[c]([H])[c]([H])[c]([H])[c]2[O][C]([H])([H])[C]1([H])[H]

>  <combo1>  (1) 
-0.36240820190387346

$$$$
