
     RDKit          3D

 34 36  0  0  0  0  0  0  0  0999 V2000
    4.9120    1.9912   16.4098 H   0  0  0  0  0  0  0  0  0  0  0  0
    5.1535    1.6085   17.3985 C   0  0  0  0  0  0  0  0  0  0  0  0
    6.3105    0.9412   17.4980 N   0  0  0  0  0  0  0  0  0  0  0  0
    6.6507    0.4821   18.7071 C   0  0  0  0  0  0  0  0  0  0  0  0
    7.6035   -0.0500   18.7180 H   0  0  0  0  0  0  0  0  0  0  0  0
    5.8799    0.6288   19.8712 C   0  0  0  0  0  0  0  0  0  0  0  0
    6.4387    0.0706   21.1739 C   0  0  2  0  0  0  0  0  0  0  0  0
    5.7465    0.2616   22.0042 H   0  0  0  0  0  0  0  0  0  0  0  0
    7.6961    0.7377   21.5122 N   0  0  0  0  0  0  0  0  0  0  0  0
    8.2678    0.8252   20.6820 H   0  0  0  0  0  0  0  0  0  0  0  0
    7.4962    1.6908   21.8081 H   0  0  0  0  0  0  0  0  0  0  0  0
    6.6127   -1.4699   21.0529 C   0  0  0  0  0  0  0  0  0  0  0  0
    7.2158   -1.6735   20.1603 H   0  0  0  0  0  0  0  0  0  0  0  0
    5.6165   -1.8656   20.8215 H   0  0  0  0  0  0  0  0  0  0  0  0
    7.1701   -2.2893   22.2156 C   0  0  0  0  0  0  0  0  0  0  0  0
    6.3238   -2.9865   23.0599 C   0  0  0  0  0  0  0  0  0  0  0  0
    5.2403   -2.9059   22.9673 H   0  0  0  0  0  0  0  0  0  0  0  0
    6.7095   -3.8509   24.0446 N   0  0  0  0  0  0  0  0  0  0  0  0
    7.9955   -4.0373   24.2298 C   0  0  0  0  0  0  0  0  0  0  0  0
    8.3027   -4.7430   25.0146 H   0  0  0  0  0  0  0  0  0  0  0  0
    9.0010   -3.3854   23.4638 C   0  0  0  0  0  0  0  0  0  0  0  0
   10.3862   -3.6186   23.6967 C   0  0  0  0  0  0  0  0  0  0  0  0
   10.6981   -4.3174   24.4694 H   0  0  0  0  0  0  0  0  0  0  0  0
   11.3276   -3.0097   22.9064 C   0  0  0  0  0  0  0  0  0  0  0  0
   12.3699   -3.2718   23.0062 H   0  0  0  0  0  0  0  0  0  0  0  0
   10.9417   -2.1211   21.8763 C   0  0  0  0  0  0  0  0  0  0  0  0
   11.7092   -1.6815   21.2495 H   0  0  0  0  0  0  0  0  0  0  0  0
    9.6085   -1.8631   21.6434 C   0  0  0  0  0  0  0  0  0  0  0  0
    9.3280   -1.1566   20.8701 H   0  0  0  0  0  0  0  0  0  0  0  0
    8.5852   -2.4869   22.4229 C   0  0  0  0  0  0  0  0  0  0  0  0
    4.6616    1.3157   19.7355 C   0  0  0  0  0  0  0  0  0  0  0  0
    4.0097    1.4665   20.5951 H   0  0  0  0  0  0  0  0  0  0  0  0
    4.2951    1.8106   18.4808 C   0  0  0  0  0  0  0  0  0  0  0  0
    3.3735    2.3661   18.3334 H   0  0  0  0  0  0  0  0  0  0  0  0
  1  2  1  0
  2  3  2  0
  3  4  1  0
  4  5  1  0
  4  6  2  0
  6  7  1  0
  7  8  1  1
  7  9  1  0
  9 10  1  0
  9 11  1  0
  7 12  1  0
 12 13  1  0
 12 14  1  0
 12 15  1  0
 15 16  2  0
 16 17  1  0
 16 18  1  0
 18 19  2  0
 19 20  1  0
 19 21  1  0
 21 22  2  0
 22 23  1  0
 22 24  1  0
 24 25  1  0
 24 26  2  0
 26 27  1  0
 26 28  1  0
 28 29  1  0
 28 30  2  0
  6 31  1  0
 31 32  1  0
 31 33  2  0
 33 34  1  0
 33  2  1  0
 30 15  1  0
 30 21  1  0
M  END
>  <cnnaffinity>  (1) 
5.15793

>  <plip>  (1) 
-0.10714285714285714

>  <filename>  (1) 
[H][c]1[n][c]([H])[c]([C@]([H])([N]([H])[H])[C]([H])([H])[c]2[c]([H])[n][c]([H])[c]3[c]([H])[c]([H])[c]([H])[c]([H])[c]23)[c]([H])[c]1[H]

>  <combo1>  (1) 
-0.7388657240151525

$$$$
