
     RDKit          3D

 31 31  0  0  0  0  0  0  0  0999 V2000
    4.9160    1.7803   16.9975 H   0  0  0  0  0  0  0  0  0  0  0  0
    5.4023    1.2912   17.8447 C   0  0  0  0  0  0  0  0  0  0  0  0
    6.5687    0.6728   17.5974 N   0  0  0  0  0  0  0  0  0  0  0  0
    7.1799    0.0564   18.6179 C   0  0  0  0  0  0  0  0  0  0  0  0
    8.1234   -0.4338   18.3921 H   0  0  0  0  0  0  0  0  0  0  0  0
    6.6638   -0.0017   19.9363 C   0  0  0  0  0  0  0  0  0  0  0  0
    7.3955   -0.7320   20.8431 O   0  0  0  0  0  0  0  0  0  0  0  0
    7.1415   -0.7501   22.2458 C   0  0  2  0  0  0  0  0  0  0  0  0
    6.0638   -0.6291   22.4454 H   0  0  0  0  0  0  0  0  0  0  0  0
    7.8570    0.2374   22.9218 O   0  0  0  0  0  0  0  0  0  0  0  0
    7.2597    1.5246   22.9048 C   0  0  0  0  0  0  0  0  0  0  0  0
    6.2426    1.4474   23.3245 H   0  0  0  0  0  0  0  0  0  0  0  0
    7.1658    1.9071   21.8770 H   0  0  0  0  0  0  0  0  0  0  0  0
    8.0748    2.5138   23.7338 C   0  0  0  0  0  0  0  0  0  0  0  0
    8.1840    2.0948   24.7431 H   0  0  0  0  0  0  0  0  0  0  0  0
    9.4693    2.7373   23.1457 C   0  0  0  0  0  0  0  0  0  0  0  0
   10.0340    1.8034   23.1016 H   0  0  0  0  0  0  0  0  0  0  0  0
   10.0368    3.4594   23.7419 H   0  0  0  0  0  0  0  0  0  0  0  0
    9.4007    3.1337   22.1254 H   0  0  0  0  0  0  0  0  0  0  0  0
    7.3141    3.8402   23.8475 C   0  0  0  0  0  0  0  0  0  0  0  0
    7.8648    4.5652   24.4552 H   0  0  0  0  0  0  0  0  0  0  0  0
    7.1607    4.2969   22.8616 H   0  0  0  0  0  0  0  0  0  0  0  0
    6.3284    3.7083   24.3057 H   0  0  0  0  0  0  0  0  0  0  0  0
    7.6060   -2.0935   22.7487 C   0  0  0  0  0  0  0  0  0  0  0  0
    8.6693   -2.2312   22.5451 H   0  0  0  0  0  0  0  0  0  0  0  0
    7.0395   -2.8874   22.2606 H   0  0  0  0  0  0  0  0  0  0  0  0
    7.4369   -2.1644   23.8244 H   0  0  0  0  0  0  0  0  0  0  0  0
    5.4504    0.6422   20.1840 C   0  0  0  0  0  0  0  0  0  0  0  0
    5.0090    0.6366   21.1836 H   0  0  0  0  0  0  0  0  0  0  0  0
    4.8121    1.3030   19.1117 C   0  0  0  0  0  0  0  0  0  0  0  0
    3.8801    1.8383   19.2609 H   0  0  0  0  0  0  0  0  0  0  0  0
  1  2  1  0
  2  3  2  0
  3  4  1  0
  4  5  1  0
  4  6  2  0
  6  7  1  0
  7  8  1  0
  8  9  1  6
  8 10  1  0
 10 11  1  0
 11 12  1  0
 11 13  1  0
 11 14  1  0
 14 15  1  0
 14 16  1  0
 16 17  1  0
 16 18  1  0
 16 19  1  0
 14 20  1  0
 20 21  1  0
 20 22  1  0
 20 23  1  0
  8 24  1  0
 24 25  1  0
 24 26  1  0
 24 27  1  0
  6 28  1  0
 28 29  1  0
 28 30  2  0
 30 31  1  0
 30  2  1  0
M  END
>  <cnnaffinity>  (1) 
4.01601

>  <plip>  (1) 
-0.03571428571428571

>  <filename>  (1) 
[H][c]1[n][c]([H])[c]([O][C@]([H])([O][C]([H])([H])[C]([H])([C]([H])([H])[H])[C]([H])([H])[H])[C]([H])([H])[H])[c]([H])[c]1[H]

>  <combo1>  (1) 
-0.24484867950314368

$$$$
