
     RDKit          3D

 41 43  0  0  0  0  0  0  0  0999 V2000
    8.7984   -0.1476   21.2159 C   0  0  0  0  0  0  0  0  0  0  0  0
    7.3831   -0.6873   21.0349 C   0  0  2  0  0  0  0  0  0  0  0  0
    7.3910   -2.1668   20.7338 N   0  0  0  0  0  4  0  0  0  0  0  0
    7.9734   -3.0610   21.7593 C   0  0  0  0  0  0  0  0  0  0  0  0
    7.3054   -2.9484   23.1345 C   0  0  0  0  0  0  0  0  0  0  0  0
    5.8102   -3.2675   23.1201 C   0  0  0  0  0  0  0  0  0  0  0  0
    5.2017   -3.1682   24.4123 O   0  0  0  0  0  0  0  0  0  0  0  0
    5.8981   -3.6155   25.5031 C   0  0  0  0  0  0  0  0  0  0  0  0
    5.2054   -3.6850   26.7203 C   0  0  0  0  0  0  0  0  0  0  0  0
    5.8697   -4.1089   27.8746 C   0  0  0  0  0  0  0  0  0  0  0  0
    7.2231   -4.4646   27.8217 C   0  0  0  0  0  0  0  0  0  0  0  0
    7.9047   -4.3811   26.6102 C   0  0  0  0  0  0  0  0  0  0  0  0
    7.2626   -3.9581   25.4400 C   0  0  0  0  0  0  0  0  0  0  0  0
    7.9911   -3.9036   24.1176 C   0  0  0  0  0  0  0  0  0  0  0  0
    8.0117   -4.9143   23.6798 H   0  0  0  0  0  0  0  0  0  0  0  0
    9.0385   -3.6150   24.2733 H   0  0  0  0  0  0  0  0  0  0  0  0
    8.9564   -4.6531   26.5602 H   0  0  0  0  0  0  0  0  0  0  0  0
    7.7451   -4.7993   28.7129 H   0  0  0  0  0  0  0  0  0  0  0  0
    5.3399   -4.1558   28.8227 H   0  0  0  0  0  0  0  0  0  0  0  0
    4.1577   -3.4013   26.7281 H   0  0  0  0  0  0  0  0  0  0  0  0
    5.6339   -4.2680   22.7032 H   0  0  0  0  0  0  0  0  0  0  0  0
    5.2554   -2.5679   22.4991 H   0  0  0  0  0  0  0  0  0  0  0  0
    7.4073   -1.9250   23.5135 H   0  0  0  0  0  0  0  0  0  0  0  0
    9.0423   -2.8421   21.8896 H   0  0  0  0  0  0  0  0  0  0  0  0
    7.9218   -4.1094   21.4405 H   0  0  0  0  0  0  0  0  0  0  0  0
    7.8905   -2.2082   19.8152 H   0  0  0  0  0  0  0  0  0  0  0  0
    6.4132   -2.4367   20.5030 H   0  0  0  0  0  0  0  0  0  0  0  0
    6.6326   -0.0392   19.9091 C   0  0  0  0  0  0  0  0  0  0  0  0
    5.4262    0.6293   20.1502 C   0  0  0  0  0  0  0  0  0  0  0  0
    4.8024    1.3033   19.1002 C   0  0  0  0  0  0  0  0  0  0  0  0
    5.4032    1.2843   17.8383 C   0  0  0  0  0  0  0  0  0  0  0  0
    6.5591    0.6528   17.5857 N   0  0  0  0  0  0  0  0  0  0  0  0
    7.1540    0.0163   18.6076 C   0  0  0  0  0  0  0  0  0  0  0  0
    8.1221   -0.4172   18.3517 H   0  0  0  0  0  0  0  0  0  0  0  0
    4.9398    1.7864   16.9913 H   0  0  0  0  0  0  0  0  0  0  0  0
    3.8790    1.8478   19.2469 H   0  0  0  0  0  0  0  0  0  0  0  0
    5.0058    0.6327   21.1596 H   0  0  0  0  0  0  0  0  0  0  0  0
    6.8172   -0.5298   21.9577 H   0  0  0  0  0  0  0  0  0  0  0  0
    9.4582   -0.4584   20.3962 H   0  0  0  0  0  0  0  0  0  0  0  0
    8.7766    0.9445   21.2276 H   0  0  0  0  0  0  0  0  0  0  0  0
    9.2379   -0.5067   22.1533 H   0  0  0  0  0  0  0  0  0  0  0  0
  1  2  1  0
  2  3  1  0
  3  4  1  0
  4  5  1  0
  5  6  1  0
  6  7  1  0
  7  8  1  0
  8  9  2  0
  9 10  1  0
 10 11  2  0
 11 12  1  0
 12 13  2  0
 13 14  1  0
 14 15  1  0
 14 16  1  0
 12 17  1  0
 11 18  1  0
 10 19  1  0
  9 20  1  0
  6 21  1  0
  6 22  1  0
  5 23  1  0
  4 24  1  0
  4 25  1  0
  3 26  1  0
  3 27  1  0
  2 28  1  0
 28 29  2  0
 29 30  1  0
 30 31  2  0
 31 32  1  0
 32 33  2  0
 33 34  1  0
 31 35  1  0
 30 36  1  0
 29 37  1  0
  2 38  1  1
  1 39  1  0
  1 40  1  0
  1 41  1  0
 14  5  1  0
 33 28  1  0
 13  8  1  0
M  CHG  1   3   1
M  END
>  <cnnaffinity>  (1) 
4.76103

>  <plip>  (1) 
-0.0

>  <filename>  (1) 
[H][c]1[n][c]([H])[c]([C@]([H])([C]([H])([H])[H])[N+]([H])([H])[C]([H])([H])[C]2([H])[C]([H])([H])[O][c]3[c]([H])[c]([H])[c]([H])[c]([H])[c]3[C]2([H])[H])[c]([H])[c]1[H]

>  <combo1>  (1) 
-5.89160553592112e-06

$$$$
