
     RDKit          3D

 35 37  0  0  0  0  0  0  0  0999 V2000
    4.9278    1.9483   16.7729 H   0  0  0  0  0  0  0  0  0  0  0  0
    5.3488    1.3792   17.6027 C   0  0  0  0  0  0  0  0  0  0  0  0
    6.4884    0.7203   17.3529 N   0  0  0  0  0  0  0  0  0  0  0  0
    7.0419    0.0533   18.3761 C   0  0  0  0  0  0  0  0  0  0  0  0
    7.9702   -0.4598   18.1372 H   0  0  0  0  0  0  0  0  0  0  0  0
    6.5168   -0.0294   19.6805 C   0  0  0  0  0  0  0  0  0  0  0  0
    7.2932   -0.7132   20.8094 C   0  0  2  0  0  0  0  0  0  0  0  0
    8.2696   -1.0127   20.3955 H   0  0  0  0  0  0  0  0  0  0  0  0
    6.6189   -1.9853   21.3523 C   0  0  0  0  0  0  0  0  0  0  0  0
    6.5229   -2.7422   20.5671 H   0  0  0  0  0  0  0  0  0  0  0  0
    5.6145   -1.7718   21.7386 H   0  0  0  0  0  0  0  0  0  0  0  0
    7.2099   -2.4119   22.1771 H   0  0  0  0  0  0  0  0  0  0  0  0
    7.5632    0.3145   21.9453 C   0  0  0  0  0  0  0  0  0  0  0  0
    6.6169    0.5614   22.4362 H   0  0  0  0  0  0  0  0  0  0  0  0
    7.8881    1.2561   21.4784 H   0  0  0  0  0  0  0  0  0  0  0  0
    8.5842   -0.1282   22.9754 C   0  0  0  0  0  0  0  0  0  0  0  0
    9.9291   -0.0559   22.6831 C   0  0  0  0  0  0  0  0  0  0  0  0
   10.2655    0.2341   21.6853 H   0  0  0  0  0  0  0  0  0  0  0  0
   10.9341   -0.3221   23.5608 N   0  0  0  0  0  0  0  0  0  0  0  0
   10.6059   -0.7809   24.7523 C   0  0  0  0  0  0  0  0  0  0  0  0
   11.4375   -0.9276   25.4422 H   0  0  0  0  0  0  0  0  0  0  0  0
    9.2645   -1.0791   25.1545 C   0  0  0  0  0  0  0  0  0  0  0  0
    8.9182   -1.8174   26.3367 C   0  0  0  0  0  0  0  0  0  0  0  0
    9.6992   -2.2316   26.9744 H   0  0  0  0  0  0  0  0  0  0  0  0
    7.6017   -2.0459   26.6500 C   0  0  0  0  0  0  0  0  0  0  0  0
    7.3628   -2.6450   27.5215 H   0  0  0  0  0  0  0  0  0  0  0  0
    6.5558   -1.5314   25.8429 C   0  0  0  0  0  0  0  0  0  0  0  0
    5.5214   -1.6981   26.1437 H   0  0  0  0  0  0  0  0  0  0  0  0
    6.8609   -0.8636   24.6756 C   0  0  0  0  0  0  0  0  0  0  0  0
    6.0492   -0.5110   24.0466 H   0  0  0  0  0  0  0  0  0  0  0  0
    8.2151   -0.6646   24.2647 C   0  0  0  0  0  0  0  0  0  0  0  0
    5.2991    0.6361   19.8980 C   0  0  0  0  0  0  0  0  0  0  0  0
    4.8134    0.6021   20.8766 H   0  0  0  0  0  0  0  0  0  0  0  0
    4.7155    1.3542   18.8486 C   0  0  0  0  0  0  0  0  0  0  0  0
    3.8028    1.9193   18.9906 H   0  0  0  0  0  0  0  0  0  0  0  0
  1  2  1  0
  2  3  2  0
  3  4  1  0
  4  5  1  0
  4  6  2  0
  6  7  1  0
  7  8  1  6
  7  9  1  0
  9 10  1  0
  9 11  1  0
  9 12  1  0
  7 13  1  0
 13 14  1  0
 13 15  1  0
 13 16  1  0
 16 17  2  0
 17 18  1  0
 17 19  1  0
 19 20  2  0
 20 21  1  0
 20 22  1  0
 22 23  2  0
 23 24  1  0
 23 25  1  0
 25 26  1  0
 25 27  2  0
 27 28  1  0
 27 29  1  0
 29 30  1  0
 29 31  2  0
  6 32  1  0
 32 33  1  0
 32 34  2  0
 34 35  1  0
 34  2  1  0
 31 16  1  0
 31 22  1  0
M  END
>  <cnnaffinity>  (1) 
5.14004

>  <plip>  (1) 
-0.034482758620689655

>  <filename>  (1) 
[H][c]1[n][c]([H])[c]([C@]([H])([C]([H])([H])[H])[C]([H])([H])[c]2[c]([H])[n][c]([H])[c]3[c]([H])[c]([H])[c]([H])[c]([H])[c]23)[c]([H])[c]1[H]

>  <combo1>  (1) 
-0.23791389463264415

$$$$
