
     RDKit          3D

 53 56  0  0  0  0  0  0  0  0999 V2000
    1.8204   -4.7826   22.0795 F   0  0  0  0  0  0  0  0  0  0  0  0
    1.9690   -5.6811   23.0767 C   0  0  0  0  0  0  0  0  0  0  0  0
    0.8137   -6.1812   23.6689 C   0  0  0  0  0  0  0  0  0  0  0  0
    0.9250   -7.1442   24.6753 C   0  0  0  0  0  0  0  0  0  0  0  0
    2.1894   -7.5502   25.1118 C   0  0  0  0  0  0  0  0  0  0  0  0
    3.3480   -7.0228   24.5316 C   0  0  0  0  0  0  0  0  0  0  0  0
    3.2556   -6.0919   23.4793 C   0  0  0  0  0  0  0  0  0  0  0  0
    4.4204   -5.5703   22.8378 N   0  0  0  0  0  0  0  0  0  0  0  0
    4.5465   -4.3209   22.3085 C   0  0  0  0  0  0  0  0  0  0  0  0
    5.7251   -4.2664   21.6136 C   0  0  0  0  0  0  0  0  0  0  0  0
    6.2733   -3.1397   20.8005 C   0  0  0  0  0  0  0  0  0  0  0  0
    6.5314   -1.9900   21.7204 N   0  0  0  0  0  4  0  0  0  0  0  0
    7.3176   -0.8432   21.1498 C   0  0  0  0  0  0  0  0  0  0  0  0
    6.5450   -0.1742   20.0175 C   0  0  0  0  0  0  0  0  0  0  0  0
    5.3838    0.6023   20.1779 C   0  0  0  0  0  0  0  0  0  0  0  0
    4.8759    1.2889   19.0688 C   0  0  0  0  0  0  0  0  0  0  0  0
    5.5275    1.1645   17.8372 C   0  0  0  0  0  0  0  0  0  0  0  0
    6.6230    0.4161   17.6574 N   0  0  0  0  0  0  0  0  0  0  0  0
    7.1092   -0.2161   18.7358 C   0  0  0  0  0  0  0  0  0  0  0  0
    8.0308   -0.7772   18.5817 H   0  0  0  0  0  0  0  0  0  0  0  0
    5.1473    1.6878   16.9595 H   0  0  0  0  0  0  0  0  0  0  0  0
    4.0222    1.9534   19.1487 H   0  0  0  0  0  0  0  0  0  0  0  0
    4.9062    0.7136   21.1544 H   0  0  0  0  0  0  0  0  0  0  0  0
    7.7637    0.1633   22.2389 C   0  0  0  0  0  0  0  0  0  0  0  0
    8.6371   -0.4664   23.3468 C   0  0  0  0  0  0  0  0  0  0  0  0
   10.0235   -0.8837   22.8380 C   0  0  0  0  0  0  0  0  0  0  0  0
   10.7702    0.3068   22.2229 C   0  0  0  0  0  0  0  0  0  0  0  0
    9.9384    1.0212   21.1493 C   0  0  0  0  0  0  0  0  0  0  0  0
    8.5346    1.3834   21.6574 C   0  0  0  0  0  0  0  0  0  0  0  0
    7.9575    1.8755   20.8639 H   0  0  0  0  0  0  0  0  0  0  0  0
    8.6408    2.1262   22.4591 H   0  0  0  0  0  0  0  0  0  0  0  0
    9.8360    0.3801   20.2664 H   0  0  0  0  0  0  0  0  0  0  0  0
   10.4626    1.9258   20.8159 H   0  0  0  0  0  0  0  0  0  0  0  0
   11.0009    1.0271   23.0199 H   0  0  0  0  0  0  0  0  0  0  0  0
   11.7336   -0.0144   21.8107 H   0  0  0  0  0  0  0  0  0  0  0  0
   10.6072   -1.3080   23.6617 H   0  0  0  0  0  0  0  0  0  0  0  0
    9.9192   -1.6841   22.0927 H   0  0  0  0  0  0  0  0  0  0  0  0
    8.1327   -1.3111   23.8298 H   0  0  0  0  0  0  0  0  0  0  0  0
    8.7697    0.2835   24.1394 H   0  0  0  0  0  0  0  0  0  0  0  0
    6.8398    0.5355   22.6970 H   0  0  0  0  0  0  0  0  0  0  0  0
    8.2092   -1.2863   20.6954 H   0  0  0  0  0  0  0  0  0  0  0  0
    6.9592   -2.3981   22.5826 H   0  0  0  0  0  0  0  0  0  0  0  0
    5.6000   -1.5959   21.9995 H   0  0  0  0  0  0  0  0  0  0  0  0
    7.2003   -3.4379   20.2997 H   0  0  0  0  0  0  0  0  0  0  0  0
    5.5791   -2.8413   20.0047 H   0  0  0  0  0  0  0  0  0  0  0  0
    6.2799   -5.5554   21.8241 C   0  0  0  0  0  0  0  0  0  0  0  0
    5.5033   -6.3304   22.5611 N   0  0  0  0  0  0  0  0  0  0  0  0
    7.2335   -5.9216   21.4647 H   0  0  0  0  0  0  0  0  0  0  0  0
    3.8225   -3.5660   22.5603 H   0  0  0  0  0  0  0  0  0  0  0  0
    4.3290   -7.3262   24.8917 H   0  0  0  0  0  0  0  0  0  0  0  0
    2.2743   -8.2808   25.9117 H   0  0  0  0  0  0  0  0  0  0  0  0
    0.0267   -7.5555   25.1324 H   0  0  0  0  0  0  0  0  0  0  0  0
   -0.1521   -5.8104   23.3416 H   0  0  0  0  0  0  0  0  0  0  0  0
  1  2  1  0
  2  3  2  0
  3  4  1  0
  4  5  2  0
  5  6  1  0
  6  7  2  0
  7  8  1  0
  8  9  1  0
  9 10  2  0
 10 11  1  0
 11 12  1  0
 12 13  1  0
 13 14  1  0
 14 15  2  0
 15 16  1  0
 16 17  2  0
 17 18  1  0
 18 19  2  0
 19 20  1  0
 17 21  1  0
 16 22  1  0
 15 23  1  0
 13 24  1  0
 24 25  1  0
 25 26  1  0
 26 27  1  0
 27 28  1  0
 28 29  1  0
 29 30  1  0
 29 31  1  0
 28 32  1  0
 28 33  1  0
 27 34  1  0
 27 35  1  0
 26 36  1  0
 26 37  1  0
 25 38  1  0
 25 39  1  0
 24 40  1  0
 13 41  1  0
 12 42  1  0
 12 43  1  0
 11 44  1  0
 11 45  1  0
 10 46  1  0
 46 47  2  0
 46 48  1  0
  9 49  1  0
  6 50  1  0
  5 51  1  0
  4 52  1  0
  3 53  1  0
  7  2  1  0
 47  8  1  0
 19 14  1  0
 29 24  1  0
M  CHG  1  12   1
M  END
>  <cnnaffinity>  (1) 
6.16341

>  <plip>  (1) 
-0.14285714285714285

>  <filename>  (1) 
[H][c]1[n][c]([H])[c]([C]([H])([C]2([H])[C]([H])([H])[C]([H])([H])[C]([H])([H])[C]([H])([H])[C]2([H])[H])[N+]([H])([H])[C]([H])([H])[c]2[c]([H])[n][n](-[c]3[c]([H])[c]([H])[c]([H])[c]([H])[c]3[F])[c]2[H])[c]([H])[c]1[H]

>  <combo1>  (1) 
-0.8030505813944402

$$$$
