
     RDKit          3D

 28 30  0  0  0  0  0  0  0  0999 V2000
    4.8045    1.3114   19.1059 C   0  0  0  0  0  0  0  0  0  0  0  0
    5.4027    1.2899   17.8416 C   0  0  0  0  0  0  0  0  0  0  0  0
    6.5659    0.6730   17.5828 N   0  0  0  0  0  0  0  0  0  0  0  0
    7.1654    0.0483   18.6050 C   0  0  0  0  0  0  0  0  0  0  0  0
    6.6487   -0.0078   19.9037 C   0  0  0  0  0  0  0  0  0  0  0  0
    7.3688   -0.7692   20.9829 C   0  0  0  0  0  0  0  0  0  0  0  0
    6.9385   -2.1477   21.0045 N   0  0  0  0  0  0  0  0  0  0  0  0
    7.4046   -3.0829   21.9064 C   0  0  0  0  0  0  0  0  0  0  0  0
    6.9107   -4.4227   21.8636 C   0  0  0  0  0  0  0  0  0  0  0  0
    7.3673   -5.3910   22.7506 C   0  0  0  0  0  0  0  0  0  0  0  0
    8.3363   -5.0451   23.7107 C   0  0  0  0  0  0  0  0  0  0  0  0
    9.1236   -5.9742   24.9589 S   0  0  0  0  0  0  0  0  0  0  0  0
   10.0542   -4.6677   25.5077 N   0  0  0  0  0  0  0  0  0  0  0  0
    9.8021   -3.6062   24.8143 C   0  0  0  0  0  0  0  0  0  0  0  0
    8.8253   -3.7295   23.7586 C   0  0  0  0  0  0  0  0  0  0  0  0
    8.3662   -2.7480   22.8657 C   0  0  0  0  0  0  0  0  0  0  0  0
    8.7607   -1.7365   22.9267 H   0  0  0  0  0  0  0  0  0  0  0  0
   10.3187   -2.6751   25.0412 H   0  0  0  0  0  0  0  0  0  0  0  0
    6.9884   -6.4077   22.7176 H   0  0  0  0  0  0  0  0  0  0  0  0
    6.1612   -4.6851   21.1217 H   0  0  0  0  0  0  0  0  0  0  0  0
    6.2403   -2.4354   20.3448 H   0  0  0  0  0  0  0  0  0  0  0  0
    7.1707   -0.2864   21.9529 H   0  0  0  0  0  0  0  0  0  0  0  0
    8.4546   -0.7155   20.8134 H   0  0  0  0  0  0  0  0  0  0  0  0
    5.4400    0.6489   20.1571 C   0  0  0  0  0  0  0  0  0  0  0  0
    5.0064    0.6326   21.1603 H   0  0  0  0  0  0  0  0  0  0  0  0
    8.1184   -0.4288   18.3765 H   0  0  0  0  0  0  0  0  0  0  0  0
    4.9167    1.7781   16.9984 H   0  0  0  0  0  0  0  0  0  0  0  0
    3.8722    1.8459   19.2592 H   0  0  0  0  0  0  0  0  0  0  0  0
  1  2  2  0
  2  3  1  0
  3  4  2  0
  4  5  1  0
  5  6  1  0
  6  7  1  0
  7  8  1  0
  8  9  2  0
  9 10  1  0
 10 11  2  0
 11 12  1  0
 12 13  1  0
 13 14  2  0
 14 15  1  0
 15 16  2  0
 16 17  1  0
 14 18  1  0
 10 19  1  0
  9 20  1  0
  7 21  1  0
  6 22  1  0
  6 23  1  0
  5 24  2  0
 24 25  1  0
  4 26  1  0
  2 27  1  0
  1 28  1  0
 24  1  1  0
 16  8  1  0
 15 11  1  0
M  END
>  <cnnaffinity>  (1) 
4.78058

>  <plip>  (1) 
-0.07142857142857142

>  <filename>  (1) 
[H][c]1[n][c]([H])[c]([C]([H])([H])[N]([H])[c]2[c]([H])[c]([H])[c]3[s][n][c]([H])[c]3[c]2[H])[c]([H])[c]1[H]

>  <combo1>  (1) 
-0.4716716600571579

$$$$
