
     RDKit          3D

 47 49  0  0  0  0  0  0  0  0999 V2000
   12.7849    5.4123   23.9637 C   0  0  0  0  0  0  0  0  0  0  0  0
   11.6175    4.8442   24.5422 O   0  0  0  0  0  0  0  0  0  0  0  0
   11.1093    3.7022   24.0428 C   0  0  0  0  0  0  0  0  0  0  0  0
    9.8196    3.4024   24.4968 C   0  0  0  0  0  0  0  0  0  0  0  0
    9.2486    2.2548   23.9950 C   0  0  0  0  0  0  0  0  0  0  0  0
    7.9417    1.8967   24.1837 O   0  0  0  0  0  0  0  0  0  0  0  0
    7.3008    2.3711   25.3603 C   0  0  0  0  0  0  0  0  0  0  0  0
    7.9230    2.2151   26.2505 H   0  0  0  0  0  0  0  0  0  0  0  0
    6.3766    1.8021   25.4692 H   0  0  0  0  0  0  0  0  0  0  0  0
    7.0556    3.4364   25.2823 H   0  0  0  0  0  0  0  0  0  0  0  0
   10.0045    1.3843   23.1843 C   0  0  0  0  0  0  0  0  0  0  0  0
    9.4173    0.1029   22.7031 C   0  0  0  0  0  0  0  0  0  0  0  0
    8.2568    0.5344   21.9285 N   0  0  0  0  0  4  0  0  0  0  0  0
    7.3557   -0.4781   21.2790 C   0  0  0  0  0  0  0  0  0  0  0  0
    6.6658    0.3226   20.1787 C   0  0  0  0  0  0  0  0  0  0  0  0
    5.3983    0.9194   20.2808 C   0  0  0  0  0  0  0  0  0  0  0  0
    4.8408    1.5210   19.1480 C   0  0  0  0  0  0  0  0  0  0  0  0
    5.5590    1.5156   17.9500 C   0  0  0  0  0  0  0  0  0  0  0  0
    6.7898    0.9955   17.8405 N   0  0  0  0  0  0  0  0  0  0  0  0
    7.3309    0.4605   18.9419 C   0  0  0  0  0  0  0  0  0  0  0  0
    8.3473    0.0892   18.8083 H   0  0  0  0  0  0  0  0  0  0  0  0
    5.1262    1.9282   17.0369 H   0  0  0  0  0  0  0  0  0  0  0  0
    3.8758    2.0137   19.1874 H   0  0  0  0  0  0  0  0  0  0  0  0
    4.8614    0.9193   21.2328 H   0  0  0  0  0  0  0  0  0  0  0  0
    6.4280   -1.1672   22.3011 C   0  0  0  0  0  0  0  0  0  0  0  0
    7.1363   -2.4362   22.8453 C   0  0  0  0  0  0  0  0  0  0  0  0
    8.3014   -2.7147   21.8652 C   0  0  0  0  0  0  0  0  0  0  0  0
    8.0864   -1.7188   20.7193 C   0  0  0  0  0  0  0  0  0  0  0  0
    7.3641   -2.1423   20.0141 H   0  0  0  0  0  0  0  0  0  0  0  0
    9.0044   -1.4616   20.1784 H   0  0  0  0  0  0  0  0  0  0  0  0
    9.2652   -2.5352   22.3543 H   0  0  0  0  0  0  0  0  0  0  0  0
    8.3354   -3.7462   21.5000 H   0  0  0  0  0  0  0  0  0  0  0  0
    7.5151   -2.2855   23.8630 H   0  0  0  0  0  0  0  0  0  0  0  0
    6.4241   -3.2685   22.9019 H   0  0  0  0  0  0  0  0  0  0  0  0
    5.5419   -1.4764   21.7341 H   0  0  0  0  0  0  0  0  0  0  0  0
    6.1419   -0.4708   23.0993 H   0  0  0  0  0  0  0  0  0  0  0  0
    7.6852    1.0923   22.5998 H   0  0  0  0  0  0  0  0  0  0  0  0
    8.5318    1.2141   21.1894 H   0  0  0  0  0  0  0  0  0  0  0  0
   10.1375   -0.4551   22.0947 H   0  0  0  0  0  0  0  0  0  0  0  0
    9.1135   -0.5480   23.5343 H   0  0  0  0  0  0  0  0  0  0  0  0
   11.2522    1.8129   22.8032 C   0  0  0  0  0  0  0  0  0  0  0  0
   11.8239    2.9531   23.2194 N   0  0  0  0  0  0  0  0  0  0  0  0
   11.8262    1.1939   22.1149 H   0  0  0  0  0  0  0  0  0  0  0  0
    9.3384    4.0717   25.1979 H   0  0  0  0  0  0  0  0  0  0  0  0
   13.6014    4.6891   23.9023 H   0  0  0  0  0  0  0  0  0  0  0  0
   13.0712    6.2361   24.6193 H   0  0  0  0  0  0  0  0  0  0  0  0
   12.5749    5.7954   22.9594 H   0  0  0  0  0  0  0  0  0  0  0  0
  1  2  1  0
  2  3  1  0
  3  4  2  0
  4  5  1  0
  5  6  1  0
  6  7  1  0
  7  8  1  0
  7  9  1  0
  7 10  1  0
  5 11  2  0
 11 12  1  0
 12 13  1  0
 13 14  1  0
 14 15  1  0
 15 16  2  0
 16 17  1  0
 17 18  2  0
 18 19  1  0
 19 20  2  0
 20 21  1  0
 18 22  1  0
 17 23  1  0
 16 24  1  0
 14 25  1  0
 25 26  1  0
 26 27  1  0
 27 28  1  0
 28 29  1  0
 28 30  1  0
 27 31  1  0
 27 32  1  0
 26 33  1  0
 26 34  1  0
 25 35  1  0
 25 36  1  0
 13 37  1  0
 13 38  1  0
 12 39  1  0
 12 40  1  0
 11 41  1  0
 41 42  2  0
 41 43  1  0
  4 44  1  0
  1 45  1  0
  1 46  1  0
  1 47  1  0
 42  3  1  0
 28 14  1  0
 20 15  1  0
M  CHG  1  13   1
M  END
>  <cnnaffinity>  (1) 
5.55762

>  <plip>  (1) 
-0.07142857142857142

>  <filename>  (1) 
[H][c]1[n][c]([H])[c]([C]2([N+]([H])([H])[C]([H])([H])[c]3[c]([H])[n][c]([O][C]([H])([H])[H])[c]([H])[c]3[O][C]([H])([H])[H])[C]([H])([H])[C]([H])([H])[C]([H])([H])[C]2([H])[H])[c]([H])[c]1[H]

>  <combo1>  (1) 
-0.4208667236443162

$$$$
