
     RDKit          3D

 55 58  0  0  0  0  0  0  0  0999 V2000
    5.8030    8.8225   24.8262 N   0  0  0  0  0  0  0  0  0  0  0  0
    6.4487    7.6282   24.6173 C   0  0  0  0  0  0  0  0  0  0  0  0
    6.5527    7.0905   23.3258 C   0  0  0  0  0  0  0  0  0  0  0  0
    7.2954    5.9351   23.1029 C   0  0  0  0  0  0  0  0  0  0  0  0
    7.9618    5.2866   24.1590 C   0  0  0  0  0  0  0  0  0  0  0  0
    8.8291    4.0954   23.9156 C   0  0  0  0  0  0  0  0  0  0  0  0
    9.9670    3.8658   24.7071 C   0  0  0  0  0  0  0  0  0  0  0  0
   10.7244    2.7102   24.4984 C   0  0  0  0  0  0  0  0  0  0  0  0
   10.3355    1.8374   23.4849 C   0  0  0  0  0  0  0  0  0  0  0  0
    9.2228    2.1665   22.6978 C   0  0  0  0  0  0  0  0  0  0  0  0
    8.7893    1.2773   21.5374 C   0  0  0  0  0  0  0  0  0  0  0  0
    7.8706    0.1275   21.9417 N   0  0  0  0  0  4  0  0  0  0  0  0
    7.3636   -0.8357   20.8776 C   0  0  0  0  0  0  0  0  0  0  0  0
    6.5182   -1.9001   21.5940 C   0  0  0  0  0  0  0  0  0  0  0  0
    7.2530   -3.0018   22.3709 C   0  0  0  0  0  0  0  0  0  0  0  0
    6.3643   -4.0910   23.0076 C   0  0  0  0  0  0  0  0  0  0  0  0
    7.3258   -5.2947   23.1549 C   0  0  0  0  0  0  0  0  0  0  0  0
    8.4876   -4.9686   22.3960 O   0  0  0  0  0  0  0  0  0  0  0  0
    8.1734   -3.8885   21.5408 C   0  0  0  0  0  0  0  0  0  0  0  0
    7.6442   -4.2549   20.6434 H   0  0  0  0  0  0  0  0  0  0  0  0
    9.0979   -3.3939   21.2251 H   0  0  0  0  0  0  0  0  0  0  0  0
    6.8840   -6.2300   22.7755 H   0  0  0  0  0  0  0  0  0  0  0  0
    7.6400   -5.4760   24.1913 H   0  0  0  0  0  0  0  0  0  0  0  0
    5.5508   -4.3522   22.3196 H   0  0  0  0  0  0  0  0  0  0  0  0
    5.9052   -3.7996   23.9575 H   0  0  0  0  0  0  0  0  0  0  0  0
    7.8586   -2.5614   23.1759 H   0  0  0  0  0  0  0  0  0  0  0  0
    5.8606   -2.3813   20.8635 H   0  0  0  0  0  0  0  0  0  0  0  0
    5.8696   -1.3759   22.2929 H   0  0  0  0  0  0  0  0  0  0  0  0
    6.6084   -0.0475   19.8213 C   0  0  0  0  0  0  0  0  0  0  0  0
    5.4021    0.6279   20.0609 C   0  0  0  0  0  0  0  0  0  0  0  0
    4.8092    1.3474   19.0199 C   0  0  0  0  0  0  0  0  0  0  0  0
    5.4444    1.3725   17.7754 C   0  0  0  0  0  0  0  0  0  0  0  0
    6.6088    0.7570   17.5302 N   0  0  0  0  0  0  0  0  0  0  0  0
    7.1693    0.0828   18.5423 C   0  0  0  0  0  0  0  0  0  0  0  0
    8.1274   -0.3870   18.3150 H   0  0  0  0  0  0  0  0  0  0  0  0
    5.0072    1.9215   16.9426 H   0  0  0  0  0  0  0  0  0  0  0  0
    3.8852    1.8968   19.1646 H   0  0  0  0  0  0  0  0  0  0  0  0
    4.9268    0.6035   21.0444 H   0  0  0  0  0  0  0  0  0  0  0  0
    8.2271   -1.2955   20.3893 H   0  0  0  0  0  0  0  0  0  0  0  0
    6.9822    0.5765   22.3003 H   0  0  0  0  0  0  0  0  0  0  0  0
    8.2973   -0.4117   22.7241 H   0  0  0  0  0  0  0  0  0  0  0  0
    9.6780    0.8948   21.0256 H   0  0  0  0  0  0  0  0  0  0  0  0
    8.2532    1.9349   20.8520 H   0  0  0  0  0  0  0  0  0  0  0  0
    8.4957    3.2731   22.9057 N   0  0  0  0  0  0  0  0  0  0  0  0
   10.8778    0.9167   23.2937 H   0  0  0  0  0  0  0  0  0  0  0  0
   11.6041    2.4684   25.0974 H   0  0  0  0  0  0  0  0  0  0  0  0
   10.2276    4.6226   25.4379 H   0  0  0  0  0  0  0  0  0  0  0  0
    7.8063    5.8137   25.4587 C   0  0  0  0  0  0  0  0  0  0  0  0
    7.0623    6.9647   25.6885 C   0  0  0  0  0  0  0  0  0  0  0  0
    6.9557    7.3754   26.6868 H   0  0  0  0  0  0  0  0  0  0  0  0
    8.2582    5.3219   26.3153 H   0  0  0  0  0  0  0  0  0  0  0  0
    7.3573    5.5281   22.0962 H   0  0  0  0  0  0  0  0  0  0  0  0
    6.0379    7.5917   22.5127 H   0  0  0  0  0  0  0  0  0  0  0  0
    5.5327    9.0565   25.7628 H   0  0  0  0  0  0  0  0  0  0  0  0
    5.1771    9.1482   24.1126 H   0  0  0  0  0  0  0  0  0  0  0  0
  1  2  1  0
  2  3  2  0
  3  4  1  0
  4  5  2  0
  5  6  1  0
  6  7  2  0
  7  8  1  0
  8  9  2  0
  9 10  1  0
 10 11  1  0
 11 12  1  0
 12 13  1  0
 13 14  1  0
 14 15  1  0
 15 16  1  0
 16 17  1  0
 17 18  1  0
 18 19  1  0
 19 20  1  0
 19 21  1  0
 17 22  1  0
 17 23  1  0
 16 24  1  0
 16 25  1  0
 15 26  1  0
 14 27  1  0
 14 28  1  0
 13 29  1  0
 29 30  2  0
 30 31  1  0
 31 32  2  0
 32 33  1  0
 33 34  2  0
 34 35  1  0
 32 36  1  0
 31 37  1  0
 30 38  1  0
 13 39  1  0
 12 40  1  0
 12 41  1  0
 11 42  1  0
 11 43  1  0
 10 44  2  0
  9 45  1  0
  8 46  1  0
  7 47  1  0
  5 48  1  0
 48 49  2  0
 49 50  1  0
 48 51  1  0
  4 52  1  0
  3 53  1  0
  1 54  1  0
  1 55  1  0
 49  2  1  0
 44  6  1  0
 19 15  1  0
 34 29  1  0
M  CHG  1  12   1
M  END
>  <cnnaffinity>  (1) 
5.78148

>  <plip>  (1) 
-0.10344827586206896

>  <filename>  (1) 
[H][c]1[n][c]([H])[c]([C]([H])([C]([H])([H])[C]2([H])[C]([H])([H])[O][C]([H])([H])[C]2([H])[H])[N+]([H])([H])[C]([H])([H])[c]2[n][c](-[c]3[c]([H])[c]([H])[c]([N]([H])[H])[c]([H])[c]3[H])[c]([H])[c]([H])[c]2[H])[c]([H])[c]1[H]

>  <combo1>  (1) 
-0.5309281039221321

$$$$
