
     RDKit          3D

 24 25  0  0  0  0  0  0  0  0999 V2000
    4.9106    1.7802   16.9975 H   0  0  0  0  0  0  0  0  0  0  0  0
    5.3997    1.2938   17.8407 C   0  0  0  0  0  0  0  0  0  0  0  0
    6.5660    0.6823   17.5777 N   0  0  0  0  0  0  0  0  0  0  0  0
    7.1804    0.0657   18.5939 C   0  0  0  0  0  0  0  0  0  0  0  0
    8.1215   -0.4282   18.3642 H   0  0  0  0  0  0  0  0  0  0  0  0
    6.6724   -0.0051   19.9136 C   0  0  0  0  0  0  0  0  0  0  0  0
    7.3263   -0.7032   20.9388 N   0  0  0  0  0  0  0  0  0  0  0  0
    6.8879   -0.7197   21.8506 H   0  0  0  0  0  0  0  0  0  0  0  0
    8.8786   -1.3505   20.8061 S   0  0  0  0  0  0  0  0  0  0  0  0
    9.8240    0.1412   21.2475 C   0  0  0  0  0  0  0  0  0  0  0  0
    9.4737    0.9332   20.5819 H   0  0  0  0  0  0  0  0  0  0  0  0
   10.8836   -0.0477   21.0485 H   0  0  0  0  0  0  0  0  0  0  0  0
    9.5844    0.5184   22.6626 C   0  0  0  0  0  0  0  0  0  0  0  0
   10.2168   -0.0971   23.7088 N   0  0  0  0  0  0  0  0  0  0  0  0
    9.7073    0.4309   24.7907 C   0  0  0  0  0  0  0  0  0  0  0  0
    9.9906    0.1877   25.8125 H   0  0  0  0  0  0  0  0  0  0  0  0
    8.7593    1.3614   24.4873 N   0  0  0  0  0  0  0  0  0  0  0  0
    8.2324    1.8998   25.1463 H   0  0  0  0  0  0  0  0  0  0  0  0
    8.6703    1.4225   23.1186 C   0  0  0  0  0  0  0  0  0  0  0  0
    7.9750    2.0478   22.5703 H   0  0  0  0  0  0  0  0  0  0  0  0
    5.4517    0.6403   20.1701 C   0  0  0  0  0  0  0  0  0  0  0  0
    5.0207    0.6206   21.1742 H   0  0  0  0  0  0  0  0  0  0  0  0
    4.8151    1.3033   19.1145 C   0  0  0  0  0  0  0  0  0  0  0  0
    3.8803    1.8377   19.2656 H   0  0  0  0  0  0  0  0  0  0  0  0
  1  2  1  0
  2  3  2  0
  3  4  1  0
  4  5  1  0
  4  6  2  0
  6  7  1  0
  7  8  1  0
  7  9  1  0
  9 10  1  0
 10 11  1  0
 10 12  1  0
 10 13  1  0
 13 14  1  0
 14 15  2  0
 15 16  1  0
 15 17  1  0
 17 18  1  0
 17 19  1  0
 19 20  1  0
  6 21  1  0
 21 22  1  0
 21 23  2  0
 23 24  1  0
 23  2  1  0
 19 13  2  0
M  END
>  <cnnaffinity>  (1) 
4.5241

>  <plip>  (1) 
-0.07142857142857142

>  <filename>  (1) 
[H][c]1[n][c]([H])[c]([N]([H])[S][C]([H])([H])[c]2[n][c]([H])[n]([H])[c]2[H])[c]([H])[c]1[H]

>  <combo1>  (1) 
-0.5222018609551695

$$$$
