
     RDKit          3D

 36 38  0  0  0  0  0  0  0  0999 V2000
    4.8258    1.9618   18.4057 C   0  0  0  0  0  0  0  0  0  0  0  0
    5.3719    1.4186   17.2427 C   0  0  0  0  0  0  0  0  0  0  0  0
    6.4683    0.6481   17.2311 N   0  0  0  0  0  0  0  0  0  0  0  0
    7.0299    0.3600   18.4085 C   0  0  0  0  0  0  0  0  0  0  0  0
    6.5328    0.8019   19.6439 C   0  0  0  0  0  0  0  0  0  0  0  0
    7.1337    0.2544   20.9033 C   0  0  0  0  0  0  0  0  0  0  0  0
    6.6430   -1.1447   20.9806 N   0  0  0  0  0  4  0  0  0  0  0  0
    7.3415   -2.0610   21.9378 C   0  0  0  0  0  0  0  0  0  0  0  0
    7.2169   -1.7133   23.4465 C   0  0  0  0  0  0  0  0  0  0  0  0
    8.0113   -2.6594   24.2415 N   0  0  0  0  0  0  0  0  0  0  0  0
    8.0887   -4.0102   23.8727 C   0  0  0  0  0  0  0  0  0  0  0  0
    8.7709   -4.9088   24.7115 C   0  0  0  0  0  0  0  0  0  0  0  0
    9.0250   -6.2150   24.2899 C   0  0  0  0  0  0  0  0  0  0  0  0
    8.5274   -6.6593   23.0575 C   0  0  0  0  0  0  0  0  0  0  0  0
    7.7669   -5.7960   22.2633 C   0  0  0  0  0  0  0  0  0  0  0  0
    7.5663   -4.4596   22.6336 C   0  0  0  0  0  0  0  0  0  0  0  0
    6.8121   -3.4822   21.7423 C   0  0  0  0  0  0  0  0  0  0  0  0
    6.9236   -3.7693   20.6919 H   0  0  0  0  0  0  0  0  0  0  0  0
    5.7342   -3.4815   21.9831 H   0  0  0  0  0  0  0  0  0  0  0  0
    7.3322   -6.1594   21.3325 H   0  0  0  0  0  0  0  0  0  0  0  0
    8.7361   -7.6694   22.7165 H   0  0  0  0  0  0  0  0  0  0  0  0
    9.6114   -6.8863   24.9179 H   0  0  0  0  0  0  0  0  0  0  0  0
    9.1339   -4.5486   25.6694 H   0  0  0  0  0  0  0  0  0  0  0  0
    7.9487   -2.5331   25.2430 H   0  0  0  0  0  0  0  0  0  0  0  0
    6.1448   -1.7325   23.7148 H   0  0  0  0  0  0  0  0  0  0  0  0
    7.5858   -0.7008   23.6413 H   0  0  0  0  0  0  0  0  0  0  0  0
    8.4142   -2.0453   21.7149 H   0  0  0  0  0  0  0  0  0  0  0  0
    6.6934   -1.5184   19.9996 H   0  0  0  0  0  0  0  0  0  0  0  0
    5.6169   -1.1088   21.2233 H   0  0  0  0  0  0  0  0  0  0  0  0
    8.2320    0.2619   20.8803 H   0  0  0  0  0  0  0  0  0  0  0  0
    6.8238    0.8286   21.7815 H   0  0  0  0  0  0  0  0  0  0  0  0
    5.4250    1.6576   19.6310 C   0  0  0  0  0  0  0  0  0  0  0  0
    5.0321    2.0687   20.5627 H   0  0  0  0  0  0  0  0  0  0  0  0
    7.9489   -0.2266   18.3420 H   0  0  0  0  0  0  0  0  0  0  0  0
    4.9209    1.5999   16.2730 H   0  0  0  0  0  0  0  0  0  0  0  0
    3.9519    2.6033   18.3454 H   0  0  0  0  0  0  0  0  0  0  0  0
  1  2  2  0
  2  3  1  0
  3  4  2  0
  4  5  1  0
  5  6  1  0
  6  7  1  0
  7  8  1  0
  8  9  1  0
  9 10  1  0
 10 11  1  0
 11 12  2  0
 12 13  1  0
 13 14  2  0
 14 15  1  0
 15 16  2  0
 16 17  1  0
 17 18  1  0
 17 19  1  0
 15 20  1  0
 14 21  1  0
 13 22  1  0
 12 23  1  0
 10 24  1  0
  9 25  1  0
  9 26  1  0
  8 27  1  0
  7 28  1  0
  7 29  1  0
  6 30  1  0
  6 31  1  0
  5 32  2  0
 32 33  1  0
  4 34  1  0
  2 35  1  0
  1 36  1  0
 32  1  1  0
 17  8  1  0
 16 11  1  0
M  CHG  1   7   1
M  END
>  <cnnaffinity>  (1) 
4.40347

>  <plip>  (1) 
-0.13793103448275862

>  <filename>  (1) 
[H][c]1[n][c]([H])[c]([C]([H])([H])[N+]([H])([H])[C]2([H])[C]([H])([H])[c]3[c]([H])[c]([H])[c]([H])[c]([H])[c]3[N]([H])[C]2([H])[H])[c]([H])[c]1[H]

>  <combo1>  (1) 
-0.84241830318561

$$$$
