
     RDKit          3D

 42 45  0  0  0  0  0  0  0  0999 V2000
    4.9492    1.8148   16.9450 H   0  0  0  0  0  0  0  0  0  0  0  0
    5.3863    1.3071   17.8005 C   0  0  0  0  0  0  0  0  0  0  0  0
    6.5468    0.6724   17.5708 N   0  0  0  0  0  0  0  0  0  0  0  0
    7.1256    0.0620   18.6127 C   0  0  0  0  0  0  0  0  0  0  0  0
    8.0734   -0.4370   18.4059 H   0  0  0  0  0  0  0  0  0  0  0  0
    6.6137    0.0528   19.9311 C   0  0  0  0  0  0  0  0  0  0  0  0
    7.3439   -0.6355   21.0363 C   0  0  0  0  0  0  0  0  0  0  0  0
    7.8107   -0.0057   22.1595 C   0  0  0  0  0  0  0  0  0  0  0  0
    7.8950    1.3770   22.2432 N   0  0  0  0  0  0  0  0  0  0  0  0
    7.5259    1.8163   21.4083 H   0  0  0  0  0  0  0  0  0  0  0  0
    7.6537    2.1226   23.4685 C   0  0  0  0  0  0  0  0  0  0  0  0
    8.5213    2.0050   24.1336 H   0  0  0  0  0  0  0  0  0  0  0  0
    6.4029    1.7319   24.2911 C   0  0  0  0  0  0  0  0  0  0  0  0
    5.6257    1.3208   23.6355 H   0  0  0  0  0  0  0  0  0  0  0  0
    6.6567    0.9489   25.0123 H   0  0  0  0  0  0  0  0  0  0  0  0
    5.9015    3.0358   24.9586 C   0  0  0  0  0  0  0  0  0  0  0  0
    4.8599    3.2213   24.6775 H   0  0  0  0  0  0  0  0  0  0  0  0
    5.9204    2.9714   26.0502 H   0  0  0  0  0  0  0  0  0  0  0  0
    6.8212    4.1689   24.4466 C   0  0  0  0  0  0  0  0  0  0  0  0
    6.2719    5.0973   24.2620 H   0  0  0  0  0  0  0  0  0  0  0  0
    7.5923    4.3976   25.1911 H   0  0  0  0  0  0  0  0  0  0  0  0
    7.4727    3.6080   23.1769 C   0  0  0  0  0  0  0  0  0  0  0  0
    6.7929    3.7226   22.3212 H   0  0  0  0  0  0  0  0  0  0  0  0
    8.4227    4.0899   22.9190 H   0  0  0  0  0  0  0  0  0  0  0  0
    8.3135   -0.8200   23.3362 C   0  0  2  0  0  0  0  0  0  0  0  0
    8.8119   -0.1548   24.0438 H   0  0  0  0  0  0  0  0  0  0  0  0
    9.5268   -2.0814   22.7982 S   0  0  0  0  0  0  0  0  0  0  0  0
    8.1195   -2.9155   21.9968 C   0  0  2  0  0  0  0  0  0  0  0  0
    8.4310   -3.9067   21.6526 H   0  0  0  0  0  0  0  0  0  0  0  0
    7.6868   -2.0776   20.7764 C   0  0  0  0  0  0  0  0  0  0  0  0
    8.5314   -2.0502   20.0732 H   0  0  0  0  0  0  0  0  0  0  0  0
    6.8486   -2.5702   20.2671 H   0  0  0  0  0  0  0  0  0  0  0  0
    7.0674   -2.9854   23.1227 C   0  0  0  0  0  0  0  0  0  0  0  0
    6.0651   -3.1211   22.7071 H   0  0  0  0  0  0  0  0  0  0  0  0
    7.2695   -3.8565   23.7524 H   0  0  0  0  0  0  0  0  0  0  0  0
    7.1896   -1.6879   23.9682 C   0  0  0  0  0  0  0  0  0  0  0  0
    6.2417   -1.1402   24.0040 H   0  0  0  0  0  0  0  0  0  0  0  0
    7.4612   -1.9196   25.0041 H   0  0  0  0  0  0  0  0  0  0  0  0
    5.3768    0.6980   20.1277 C   0  0  0  0  0  0  0  0  0  0  0  0
    4.9134    0.6880   21.1171 H   0  0  0  0  0  0  0  0  0  0  0  0
    4.7570    1.3367   19.0502 C   0  0  0  0  0  0  0  0  0  0  0  0
    3.8228    1.8725   19.1690 H   0  0  0  0  0  0  0  0  0  0  0  0
  1  2  1  0
  2  3  2  0
  3  4  1  0
  4  5  1  0
  4  6  2  0
  6  7  1  0
  7  8  2  0
  8  9  1  0
  9 10  1  0
  9 11  1  0
 11 12  1  0
 11 13  1  0
 13 14  1  0
 13 15  1  0
 13 16  1  0
 16 17  1  0
 16 18  1  0
 16 19  1  0
 19 20  1  0
 19 21  1  0
 19 22  1  0
 22 23  1  0
 22 24  1  0
  8 25  1  0
 25 26  1  1
 25 27  1  0
 27 28  1  0
 28 29  1  6
 28 30  1  0
 30 31  1  0
 30 32  1  0
 28 33  1  0
 33 34  1  0
 33 35  1  0
 33 36  1  0
 36 37  1  0
 36 38  1  0
  6 39  1  0
 39 40  1  0
 39 41  2  0
 41 42  1  0
 41  2  1  0
 30  7  1  0
 22 11  1  0
 36 25  1  0
M  END
>  <cnnaffinity>  (1) 
5.22536

>  <plip>  (1) 
-0.0

>  <filename>  (1) 
[H][c]1[n][c]([H])[c]([C]2=[C]([N]([H])[C]3([H])[C]([H])([H])[C]([H])([H])[C]([H])([H])[C]3([H])[H])[C@]3([H])[S][C@]([H])([C]2([H])[H])[C]([H])([H])[C]3([H])[H])[c]([H])[c]1[H]

>  <combo1>  (1) 
-6.080723166366432e-06

$$$$
