
     RDKit          3D

 31 33  0  0  0  0  0  0  0  0999 V2000
    4.9631    1.8194   16.9647 H   0  0  0  0  0  0  0  0  0  0  0  0
    5.4223    1.3076   17.8079 C   0  0  0  0  0  0  0  0  0  0  0  0
    6.5779    0.6727   17.5623 N   0  0  0  0  0  0  0  0  0  0  0  0
    7.1627    0.0422   18.5832 C   0  0  0  0  0  0  0  0  0  0  0  0
    8.0950   -0.4667   18.3410 H   0  0  0  0  0  0  0  0  0  0  0  0
    6.6422   -0.0011   19.8836 C   0  0  0  0  0  0  0  0  0  0  0  0
    7.3433   -0.7298   20.9452 C   0  0  0  0  0  0  0  0  0  0  0  0
    6.8150   -1.0630   22.1095 N   0  0  0  0  0  0  0  0  0  0  0  0
    7.8322   -1.6626   22.7805 C   0  0  0  0  0  0  0  0  0  0  0  0
    7.6585   -2.1736   24.1984 C   0  0  0  0  0  0  0  0  0  0  0  0
    8.3205   -1.6407   24.8886 H   0  0  0  0  0  0  0  0  0  0  0  0
    6.6287   -1.9482   24.5016 H   0  0  0  0  0  0  0  0  0  0  0  0
    7.9656   -3.5513   24.3901 O   0  0  0  0  0  0  0  0  0  0  0  0
    7.3209   -4.4943   23.6333 C   0  0  0  0  0  0  0  0  0  0  0  0
    6.0369   -4.3197   23.0889 C   0  0  0  0  0  0  0  0  0  0  0  0
    5.5464   -3.3519   23.1500 H   0  0  0  0  0  0  0  0  0  0  0  0
    5.4161   -5.4033   22.4594 C   0  0  0  0  0  0  0  0  0  0  0  0
    4.3863   -5.3041   22.1246 H   0  0  0  0  0  0  0  0  0  0  0  0
    6.0988   -6.6070   22.2783 C   0  0  0  0  0  0  0  0  0  0  0  0
    5.6336   -7.4297   21.7468 H   0  0  0  0  0  0  0  0  0  0  0  0
    7.4055   -6.7450   22.7641 C   0  0  0  0  0  0  0  0  0  0  0  0
    7.9472   -7.6722   22.5916 H   0  0  0  0  0  0  0  0  0  0  0  0
    8.0132   -5.7049   23.4642 C   0  0  0  0  0  0  0  0  0  0  0  0
    9.0186   -5.7914   23.8795 H   0  0  0  0  0  0  0  0  0  0  0  0
    8.9606   -1.7327   22.1016 N   0  0  0  0  0  0  0  0  0  0  0  0
    8.6306   -1.1457   20.9240 N   0  0  0  0  0  0  0  0  0  0  0  0
    9.3457   -0.9691   20.2342 H   0  0  0  0  0  0  0  0  0  0  0  0
    5.4255    0.6671   20.1272 C   0  0  0  0  0  0  0  0  0  0  0  0
    4.9738    0.6776   21.1221 H   0  0  0  0  0  0  0  0  0  0  0  0
    4.8100    1.3265   19.0646 C   0  0  0  0  0  0  0  0  0  0  0  0
    3.8748    1.8578   19.1938 H   0  0  0  0  0  0  0  0  0  0  0  0
  1  2  1  0
  2  3  2  0
  3  4  1  0
  4  5  1  0
  4  6  2  0
  6  7  1  0
  7  8  2  0
  8  9  1  0
  9 10  1  0
 10 11  1  0
 10 12  1  0
 10 13  1  0
 13 14  1  0
 14 15  2  0
 15 16  1  0
 15 17  1  0
 17 18  1  0
 17 19  2  0
 19 20  1  0
 19 21  1  0
 21 22  1  0
 21 23  2  0
 23 24  1  0
  9 25  2  0
 25 26  1  0
 26 27  1  0
  6 28  1  0
 28 29  1  0
 28 30  2  0
 30 31  1  0
 30  2  1  0
 26  7  1  0
 23 14  1  0
M  END
>  <cnnaffinity>  (1) 
4.99157

>  <plip>  (1) 
-0.06451612903225806

>  <filename>  (1) 
[H][c]1[n][c]([H])[c](-[c]2[n][c]([C]([H])([H])[O][c]3[c]([H])[c]([H])[c]([H])[c]([H])[c]3[H])[n][n]2[H])[c]([H])[c]1[H]

>  <combo1>  (1) 
-0.42550684920880405

$$$$
