
     RDKit          3D

 35 37  0  0  0  0  0  0  0  0999 V2000
    9.1559   -3.1235   22.3842 H   0  0  0  0  0  0  0  0  0  0  0  0
    8.5382   -2.2627   22.1806 C   0  0  0  0  0  0  0  0  0  0  0  0
    7.9904   -1.4629   23.1173 C   0  0  0  0  0  0  0  0  0  0  0  0
    8.1113   -1.7046   24.5055 N   0  0  0  0  0  0  0  0  0  0  0  0
    7.1247   -1.1520   25.4207 C   0  0  0  0  0  0  0  0  0  0  0  0
    7.0760   -1.7893   26.3150 H   0  0  0  0  0  0  0  0  0  0  0  0
    6.1425   -1.2046   24.9394 H   0  0  0  0  0  0  0  0  0  0  0  0
    7.4525    0.2905   25.7706 C   0  0  0  0  0  0  0  0  0  0  0  0
    6.8618    0.7063   26.5845 H   0  0  0  0  0  0  0  0  0  0  0  0
    7.3670    0.9291   24.8963 H   0  0  0  0  0  0  0  0  0  0  0  0
    9.1148    0.4090   26.3589 S   0  0  0  0  0  0  0  0  0  0  0  0
    9.5158    1.8001   26.2129 O   0  0  0  0  0  0  0  0  0  0  0  0
    9.1485   -0.3315   27.6161 O   0  0  0  0  0  0  0  0  0  0  0  0
   10.1017   -0.5266   25.2294 C   0  0  0  0  0  0  0  0  0  0  0  0
   11.0909   -0.5395   25.6800 H   0  0  0  0  0  0  0  0  0  0  0  0
   10.1277    0.0408   24.3003 H   0  0  0  0  0  0  0  0  0  0  0  0
    9.4510   -1.8910   25.0540 C   0  0  0  0  0  0  0  0  0  0  0  0
   10.0382   -2.5351   24.3893 H   0  0  0  0  0  0  0  0  0  0  0  0
    9.3799   -2.4277   26.0077 H   0  0  0  0  0  0  0  0  0  0  0  0
    7.2201   -0.3588   22.3950 C   0  0  0  0  0  0  0  0  0  0  0  0
    6.6083    0.5989   22.8421 O   0  0  0  0  0  0  0  0  0  0  0  0
    7.3623   -0.6316   21.0303 N   0  0  0  0  0  0  0  0  0  0  0  0
    6.6972    0.0374   19.9659 C   0  0  0  0  0  0  0  0  0  0  0  0
    7.2112    0.0377   18.6424 C   0  0  0  0  0  0  0  0  0  0  0  0
    8.1543   -0.4633   18.4256 H   0  0  0  0  0  0  0  0  0  0  0  0
    6.6150    0.6263   17.5996 N   0  0  0  0  0  0  0  0  0  0  0  0
    5.4520    1.2591   17.8249 C   0  0  0  0  0  0  0  0  0  0  0  0
    4.9859    1.7333   16.9642 H   0  0  0  0  0  0  0  0  0  0  0  0
    4.8551    1.3168   19.0859 C   0  0  0  0  0  0  0  0  0  0  0  0
    3.9188    1.8501   19.2129 H   0  0  0  0  0  0  0  0  0  0  0  0
    5.4793    0.7084   20.1782 C   0  0  0  0  0  0  0  0  0  0  0  0
    5.0562    0.7583   21.1750 H   0  0  0  0  0  0  0  0  0  0  0  0
    8.1065   -1.8624   20.8162 C   0  0  0  0  0  0  0  0  0  0  0  0
    8.9638   -1.7140   20.1442 H   0  0  0  0  0  0  0  0  0  0  0  0
    7.4428   -2.6183   20.3721 H   0  0  0  0  0  0  0  0  0  0  0  0
  1  2  1  0
  2  3  2  0
  3  4  1  0
  4  5  1  0
  5  6  1  0
  5  7  1  0
  5  8  1  0
  8  9  1  0
  8 10  1  0
  8 11  1  0
 11 12  2  0
 11 13  2  0
 11 14  1  0
 14 15  1  0
 14 16  1  0
 14 17  1  0
 17 18  1  0
 17 19  1  0
  3 20  1  0
 20 21  2  0
 20 22  1  0
 22 23  1  0
 23 24  2  0
 24 25  1  0
 24 26  1  0
 26 27  2  0
 27 28  1  0
 27 29  1  0
 29 30  1  0
 29 31  2  0
 31 32  1  0
 22 33  1  0
 33 34  1  0
 33 35  1  0
 33  2  1  0
 17  4  1  0
 31 23  1  0
M  END
>  <cnnaffinity>  (1) 
4.57876

>  <plip>  (1) 
-0.07142857142857142

>  <filename>  (1) 
[H][C]1=[C]([N]2[C]([H])([H])[C]([H])([H])[S](=[O])(=[O])[C]([H])([H])[C]2([H])[H])[C](=[O])[N]([c]2[c]([H])[n][c]([H])[c]([H])[c]2[H])[C]1([H])[H]

>  <combo1>  (1) 
-0.37163401570181226

$$$$
