
     RDKit          3D

 35 38  0  0  0  0  0  0  0  0999 V2000
    8.2757    1.2304   22.3083 C   0  0  0  0  0  0  0  0  0  0  0  0
    7.5290   -0.0200   22.2506 N   0  0  0  0  0  0  0  0  0  0  0  0
    6.9159   -0.6154   23.3206 C   0  0  0  0  0  0  0  0  0  0  0  0
    6.7943   -0.1403   24.4153 O   0  0  0  0  0  0  0  0  0  0  0  0
    6.4665   -1.8731   22.9130 N   0  0  0  0  0  0  0  0  0  0  0  0
    5.6859   -2.6829   23.7096 C   0  0  0  0  0  0  0  0  0  0  0  0
    5.1018   -3.7660   23.2075 N   0  0  0  0  0  0  0  0  0  0  0  0
    4.4450   -4.2369   24.2812 N   0  0  0  0  0  0  0  0  0  0  0  0
    3.7161   -5.4001   24.3297 C   0  0  0  0  0  0  0  0  0  0  0  0
    3.1614   -5.7688   25.5232 C   0  0  0  0  0  0  0  0  0  0  0  0
    3.3356   -4.9328   26.6767 C   0  0  0  0  0  0  0  0  0  0  0  0
    4.0494   -3.7680   26.6097 C   0  0  0  0  0  0  0  0  0  0  0  0
    4.6510   -3.4061   25.3690 C   0  0  0  0  0  0  0  0  0  0  0  0
    5.4429   -2.4048   25.0015 N   0  0  0  0  0  0  0  0  0  0  0  0
    4.2014   -3.1170   27.4622 H   0  0  0  0  0  0  0  0  0  0  0  0
    2.9044   -5.2337   27.6260 H   0  0  0  0  0  0  0  0  0  0  0  0
    2.6049   -6.6912   25.6096 H   0  0  0  0  0  0  0  0  0  0  0  0
    3.6786   -5.9195   23.3842 H   0  0  0  0  0  0  0  0  0  0  0  0
    6.5783   -2.0130   21.5412 C   0  0  0  0  0  0  0  0  0  0  0  0
    6.1978   -2.9304   20.8695 O   0  0  0  0  0  0  0  0  0  0  0  0
    7.3487   -0.7741   21.0282 C   0  0  0  0  0  0  0  0  0  0  0  0
    6.6481    0.0124   19.9123 C   0  0  0  0  0  0  0  0  0  0  0  0
    5.4268    0.6614   20.1427 C   0  0  0  0  0  0  0  0  0  0  0  0
    4.7991    1.3207   19.0822 C   0  0  0  0  0  0  0  0  0  0  0  0
    5.4090    1.3040   17.8222 C   0  0  0  0  0  0  0  0  0  0  0  0
    6.5778    0.6916   17.5764 N   0  0  0  0  0  0  0  0  0  0  0  0
    7.1718    0.0731   18.6077 C   0  0  0  0  0  0  0  0  0  0  0  0
    8.1177   -0.4130   18.3669 H   0  0  0  0  0  0  0  0  0  0  0  0
    4.9406    1.8002   16.9729 H   0  0  0  0  0  0  0  0  0  0  0  0
    3.8576    1.8466   19.2191 H   0  0  0  0  0  0  0  0  0  0  0  0
    4.9747    0.6534   21.1368 H   0  0  0  0  0  0  0  0  0  0  0  0
    8.3139   -1.1327   20.6399 H   0  0  0  0  0  0  0  0  0  0  0  0
    8.6725    1.4103   21.3035 H   0  0  0  0  0  0  0  0  0  0  0  0
    9.1135    1.1669   23.0150 H   0  0  0  0  0  0  0  0  0  0  0  0
    7.6354    2.0747   22.5959 H   0  0  0  0  0  0  0  0  0  0  0  0
  1  2  1  0
  2  3  1  0
  3  4  2  0
  3  5  1  0
  5  6  1  0
  6  7  2  0
  7  8  1  0
  8  9  1  0
  9 10  2  0
 10 11  1  0
 11 12  2  0
 12 13  1  0
 13 14  2  0
 12 15  1  0
 11 16  1  0
 10 17  1  0
  9 18  1  0
  5 19  1  0
 19 20  2  0
 19 21  1  0
 21 22  1  0
 22 23  2  0
 23 24  1  0
 24 25  2  0
 25 26  1  0
 26 27  2  0
 27 28  1  0
 25 29  1  0
 24 30  1  0
 23 31  1  0
 21 32  1  0
  1 33  1  0
  1 34  1  0
  1 35  1  0
 21  2  1  0
 27 22  1  0
 14  6  1  0
 13  8  1  0
M  END
>  <cnnaffinity>  (1) 
5.02668

>  <plip>  (1) 
-0.07142857142857142

>  <filename>  (1) 
[H][c]1[n][c]([H])[c]([C]2([H])[C](=[O])[N]([c]3[n][c]4[c]([H])[c]([H])[c]([H])[c]([H])[n]4[n]3)[C](=[O])[N]2[C]([H])([H])[H])[c]([H])[c]1[H]

>  <combo1>  (1) 
-0.38820132644025535

$$$$
