
     RDKit          3D

 37 38  0  0  0  0  0  0  0  0999 V2000
   10.7479   -3.3731   23.8194 C   0  0  0  0  0  0  0  0  0  0  0  0
   10.1336   -2.1106   24.0051 O   0  0  0  0  0  0  0  0  0  0  0  0
    9.6686   -1.5816   22.7516 C   0  0  0  0  0  0  0  0  0  0  0  0
    8.8940   -0.2478   22.8916 C   0  0  0  0  0  0  0  0  0  0  0  0
    8.2893    0.1230   21.5372 N   0  0  0  0  0  4  0  0  0  0  0  0
    7.2871   -0.7617   20.9011 C   0  0  0  0  0  0  0  0  0  0  0  0
    6.6102    0.0513   19.8375 C   0  0  0  0  0  0  0  0  0  0  0  0
    5.3811    0.7052   20.0457 C   0  0  0  0  0  0  0  0  0  0  0  0
    4.8129    1.4273   18.9906 C   0  0  0  0  0  0  0  0  0  0  0  0
    5.4916    1.4674   17.7686 C   0  0  0  0  0  0  0  0  0  0  0  0
    6.6649    0.8540   17.5545 N   0  0  0  0  0  0  0  0  0  0  0  0
    7.2060    0.1783   18.5718 C   0  0  0  0  0  0  0  0  0  0  0  0
    8.1649   -0.2985   18.3594 H   0  0  0  0  0  0  0  0  0  0  0  0
    5.0683    2.0020   16.9206 H   0  0  0  0  0  0  0  0  0  0  0  0
    3.8677    1.9465   19.0987 H   0  0  0  0  0  0  0  0  0  0  0  0
    4.8917    0.6564   21.0175 H   0  0  0  0  0  0  0  0  0  0  0  0
    6.5639   -1.1321   21.6373 H   0  0  0  0  0  0  0  0  0  0  0  0
    7.7685   -1.6382   20.4498 H   0  0  0  0  0  0  0  0  0  0  0  0
    9.0818    0.2340   20.8572 H   0  0  0  0  0  0  0  0  0  0  0  0
    7.8325    1.0620   21.5913 H   0  0  0  0  0  0  0  0  0  0  0  0
    9.7534    0.9287   23.3617 C   0  0  0  0  0  0  0  0  0  0  0  0
    9.8644    0.7985   24.9004 C   0  0  0  0  0  0  0  0  0  0  0  0
    8.8154   -0.2408   25.2495 N   0  0  0  0  0  4  0  0  0  0  0  0
    7.8963   -0.3331   24.0537 C   0  0  0  0  0  0  0  0  0  0  0  0
    7.2124    0.5245   23.9891 H   0  0  0  0  0  0  0  0  0  0  0  0
    7.2958   -1.2459   24.0418 H   0  0  0  0  0  0  0  0  0  0  0  0
    9.3121   -1.1652   25.2846 H   0  0  0  0  0  0  0  0  0  0  0  0
    8.3642   -0.1076   26.1620 H   0  0  0  0  0  0  0  0  0  0  0  0
   10.8597    0.4703   25.2239 H   0  0  0  0  0  0  0  0  0  0  0  0
    9.6714    1.7509   25.4139 H   0  0  0  0  0  0  0  0  0  0  0  0
    9.2029    1.8486   23.1183 H   0  0  0  0  0  0  0  0  0  0  0  0
   10.7203    0.9636   22.8478 H   0  0  0  0  0  0  0  0  0  0  0  0
   10.5249   -1.4117   22.0774 H   0  0  0  0  0  0  0  0  0  0  0  0
    8.9857   -2.3174   22.2977 H   0  0  0  0  0  0  0  0  0  0  0  0
   11.1234   -3.7243   24.7833 H   0  0  0  0  0  0  0  0  0  0  0  0
   10.0234   -4.1082   23.4360 H   0  0  0  0  0  0  0  0  0  0  0  0
   11.5991   -3.3073   23.1254 H   0  0  0  0  0  0  0  0  0  0  0  0
  1  2  1  0
  2  3  1  0
  3  4  1  0
  4  5  1  0
  5  6  1  0
  6  7  1  0
  7  8  2  0
  8  9  1  0
  9 10  2  0
 10 11  1  0
 11 12  2  0
 12 13  1  0
 10 14  1  0
  9 15  1  0
  8 16  1  0
  6 17  1  0
  6 18  1  0
  5 19  1  0
  5 20  1  0
  4 21  1  0
 21 22  1  0
 22 23  1  0
 23 24  1  0
 24 25  1  0
 24 26  1  0
 23 27  1  0
 23 28  1  0
 22 29  1  0
 22 30  1  0
 21 31  1  0
 21 32  1  0
  3 33  1  0
  3 34  1  0
  1 35  1  0
  1 36  1  0
  1 37  1  0
 24  4  1  0
 12  7  1  0
M  CHG  2   5   1  23   1
M  END
>  <cnnaffinity>  (1) 
4.22659

>  <plip>  (1) 
-0.07142857142857142

>  <filename>  (1) 
[H][c]1[n][c]([H])[c]([C]([H])([H])[N+]([H])([H])[C]2([C]([H])([H])[O][C]([H])([H])[H])[C]([H])([H])[C]([H])([H])[N+]([H])([H])[C]2([H])[H])[c]([H])[c]1[H]

>  <combo1>  (1) 
-0.45062285168410865

$$$$
