
     RDKit          3D

 30 32  0  0  0  0  0  0  0  0999 V2000
    8.4720   -6.7882   26.4296 H   0  0  0  0  0  0  0  0  0  0  0  0
    7.8040   -6.2073   25.7938 C   0  0  0  0  0  0  0  0  0  0  0  0
    8.3985   -5.3617   24.9506 N   0  0  0  0  0  0  0  0  0  0  0  0
    7.6088   -4.6585   24.1224 C   0  0  0  0  0  0  0  0  0  0  0  0
    8.2456   -3.6893   23.2776 C   0  0  0  0  0  0  0  0  0  0  0  0
    8.7064   -2.8144   22.5847 C   0  0  0  0  0  0  0  0  0  0  0  0
    9.2272   -1.7121   21.8601 C   0  0  0  0  0  0  0  0  0  0  0  0
    8.6193   -0.7409   21.0925 C   0  0  0  0  0  0  0  0  0  0  0  0
    7.2653   -0.6865   20.9232 O   0  0  0  0  0  0  0  0  0  0  0  0
    6.6952   -0.0102   19.8796 C   0  0  0  0  0  0  0  0  0  0  0  0
    7.2011    0.0148   18.5700 C   0  0  0  0  0  0  0  0  0  0  0  0
    8.1395   -0.4850   18.3289 H   0  0  0  0  0  0  0  0  0  0  0  0
    6.5846    0.6562   17.5682 N   0  0  0  0  0  0  0  0  0  0  0  0
    5.4333    1.2928   17.8334 C   0  0  0  0  0  0  0  0  0  0  0  0
    4.9656    1.8091   16.9971 H   0  0  0  0  0  0  0  0  0  0  0  0
    4.8442    1.2983   19.1036 C   0  0  0  0  0  0  0  0  0  0  0  0
    3.9042    1.8150   19.2591 H   0  0  0  0  0  0  0  0  0  0  0  0
    5.4862    0.6342   20.1495 C   0  0  0  0  0  0  0  0  0  0  0  0
    5.1031    0.6102   21.1681 H   0  0  0  0  0  0  0  0  0  0  0  0
    9.6525    0.1118   20.6568 C   0  0  0  0  0  0  0  0  0  0  0  0
    9.5758    0.9801   20.0201 H   0  0  0  0  0  0  0  0  0  0  0  0
   10.8270   -0.3045   21.1196 N   0  0  0  0  0  0  0  0  0  0  0  0
   10.5510   -1.3954   21.8356 N   0  0  0  0  0  0  0  0  0  0  0  0
   11.2814   -1.9234   22.2901 H   0  0  0  0  0  0  0  0  0  0  0  0
    6.2132   -4.8124   24.0726 C   0  0  0  0  0  0  0  0  0  0  0  0
    5.6517   -4.2199   23.3607 H   0  0  0  0  0  0  0  0  0  0  0  0
    5.6048   -5.7011   24.9541 C   0  0  0  0  0  0  0  0  0  0  0  0
    4.5242   -5.8339   24.9510 H   0  0  0  0  0  0  0  0  0  0  0  0
    6.4165   -6.3882   25.8633 C   0  0  0  0  0  0  0  0  0  0  0  0
    6.0079   -7.0385   26.6261 H   0  0  0  0  0  0  0  0  0  0  0  0
  1  2  1  0
  2  3  2  0
  3  4  1  0
  4  5  1  0
  5  6  3  0
  6  7  1  0
  7  8  2  0
  8  9  1  0
  9 10  1  0
 10 11  2  0
 11 12  1  0
 11 13  1  0
 13 14  2  0
 14 15  1  0
 14 16  1  0
 16 17  1  0
 16 18  2  0
 18 19  1  0
  8 20  1  0
 20 21  1  0
 20 22  2  0
 22 23  1  0
 23 24  1  0
  4 25  2  0
 25 26  1  0
 25 27  1  0
 27 28  1  0
 27 29  2  0
 29 30  1  0
 29  2  1  0
 23  7  1  0
 18 10  1  0
M  END
>  <cnnaffinity>  (1) 
5.31687

>  <plip>  (1) 
-0.13793103448275862

>  <filename>  (1) 
[H][c]1[n][c]([C]#[C][c]2[c]([O][c]3[c]([H])[n][c]([H])[c]([H])[c]3[H])[c]([H])[n][n]2[H])[c]([H])[c]([H])[c]1[H]

>  <combo1>  (1) 
-0.9320621076723717

$$$$
