
     RDKit          3D

 29 31  0  0  0  0  0  0  0  0999 V2000
    5.1661    1.7963   17.1936 H   0  0  0  0  0  0  0  0  0  0  0  0
    5.6017    1.2088   18.0004 C   0  0  0  0  0  0  0  0  0  0  0  0
    6.7347    0.5529   17.7033 N   0  0  0  0  0  0  0  0  0  0  0  0
    7.2912   -0.1898   18.6707 C   0  0  0  0  0  0  0  0  0  0  0  0
    8.2226   -0.7031   18.4326 H   0  0  0  0  0  0  0  0  0  0  0  0
    6.7412   -0.3325   19.9583 C   0  0  0  0  0  0  0  0  0  0  0  0
    7.3440   -1.1671   20.9635 N   0  0  0  0  0  0  0  0  0  0  0  0
    8.5155   -0.9146   21.6773 C   0  0  0  0  0  0  0  0  0  0  0  0
    9.3266    0.3110   21.3868 C   0  0  1  0  0  0  0  0  0  0  0  0
    9.4169    0.3647   20.2908 H   0  0  0  0  0  0  0  0  0  0  0  0
    8.6319    1.4672   21.8335 O   0  0  0  0  0  0  0  0  0  0  0  0
    9.5485    2.5391   21.7218 C   0  0  0  0  0  0  0  0  0  0  0  0
    9.3991    2.9891   20.7399 H   0  0  0  0  0  0  0  0  0  0  0  0
    9.3118    3.2817   22.4892 H   0  0  0  0  0  0  0  0  0  0  0  0
   10.9710    1.9445   21.8645 C   0  0  0  0  0  0  0  0  0  0  0  0
   11.5669    2.1681   20.9715 H   0  0  0  0  0  0  0  0  0  0  0  0
   11.4881    2.3908   22.7165 H   0  0  0  0  0  0  0  0  0  0  0  0
   10.7143    0.4320   22.0232 C   0  0  0  0  0  0  0  0  0  0  0  0
   10.6640    0.1354   23.0788 H   0  0  0  0  0  0  0  0  0  0  0  0
   11.4347   -0.2183   21.5153 H   0  0  0  0  0  0  0  0  0  0  0  0
    8.7228   -1.8234   22.5835 N   0  0  0  0  0  0  0  0  0  0  0  0
    7.6515   -2.6525   22.4584 N   0  0  0  0  0  0  0  0  0  0  0  0
    7.3994   -3.3364   23.1537 H   0  0  0  0  0  0  0  0  0  0  0  0
    6.7496   -2.2866   21.5243 C   0  0  0  0  0  0  0  0  0  0  0  0
    5.3111   -3.0557   21.2168 S   0  0  0  0  0  0  0  0  0  0  0  0
    5.5567    0.3409   20.2510 C   0  0  0  0  0  0  0  0  0  0  0  0
    5.1252    0.2293   21.2484 H   0  0  0  0  0  0  0  0  0  0  0  0
    4.9807    1.1401   19.2547 C   0  0  0  0  0  0  0  0  0  0  0  0
    4.0671    1.6974   19.4354 H   0  0  0  0  0  0  0  0  0  0  0  0
  1  2  1  0
  2  3  2  0
  3  4  1  0
  4  5  1  0
  4  6  2  0
  6  7  1  0
  7  8  1  0
  8  9  1  0
  9 10  1  6
  9 11  1  0
 11 12  1  0
 12 13  1  0
 12 14  1  0
 12 15  1  0
 15 16  1  0
 15 17  1  0
 15 18  1  0
 18 19  1  0
 18 20  1  0
  8 21  2  0
 21 22  1  0
 22 23  1  0
 22 24  1  0
 24 25  2  0
  6 26  1  0
 26 27  1  0
 26 28  2  0
 28 29  1  0
 28  2  1  0
 24  7  1  0
 18  9  1  0
M  END
>  <cnnaffinity>  (1) 
4.80913

>  <plip>  (1) 
-0.034482758620689655

>  <filename>  (1) 
[H][c]1[n][c]([H])[c](-[n]2[c]([C@@]3([H])[O][C]([H])([H])[C]([H])([H])[C]3([H])[H])[n][n]([H])[c]2=[S])[c]([H])[c]1[H]

>  <combo1>  (1) 
-0.2226134014273998

$$$$
