
     RDKit          3D

 38 39  0  0  0  0  0  0  0  0999 V2000
    8.5757    0.5804   26.6510 C   0  0  0  0  0  0  0  0  0  0  0  0
    8.5576   -0.8931   26.3746 C   0  0  0  0  0  0  0  0  0  0  0  0
    9.0754   -1.7235   27.2340 N   0  0  0  0  0  0  0  0  0  0  0  0
    8.8095   -3.2932   26.7243 S   0  0  0  0  0  0  0  0  0  0  0  0
    7.9504   -2.8489   25.2866 C   0  0  0  0  0  0  0  0  0  0  0  0
    7.3213   -3.8543   24.3467 C   0  0  0  0  0  0  0  0  0  0  0  0
    6.2253   -3.7533   24.3425 H   0  0  0  0  0  0  0  0  0  0  0  0
    7.6430   -3.6770   23.3105 H   0  0  0  0  0  0  0  0  0  0  0  0
    7.5779   -4.8825   24.6211 H   0  0  0  0  0  0  0  0  0  0  0  0
    7.9396   -1.4858   25.2102 C   0  0  0  0  0  0  0  0  0  0  0  0
    7.3621   -0.6493   24.1186 C   0  0  0  0  0  0  0  0  0  0  0  0
    8.4537   -0.3454   23.1746 N   0  0  0  0  0  4  0  0  0  0  0  0
    8.0901    0.3042   21.8882 C   0  0  0  0  0  0  0  0  0  0  0  0
    9.3496    0.9064   21.2880 C   0  0  0  0  0  0  0  0  0  0  0  0
    9.0748    1.4798   20.4042 H   0  0  0  0  0  0  0  0  0  0  0  0
   10.0795    0.1425   20.9869 H   0  0  0  0  0  0  0  0  0  0  0  0
    9.8224    1.6011   21.9913 H   0  0  0  0  0  0  0  0  0  0  0  0
    7.3759   -0.6941   20.9296 C   0  0  0  0  0  0  0  0  0  0  0  0
    6.6331   -0.0222   19.7934 C   0  0  0  0  0  0  0  0  0  0  0  0
    5.4225    0.6399   20.0497 C   0  0  0  0  0  0  0  0  0  0  0  0
    4.7920    1.3260   19.0123 C   0  0  0  0  0  0  0  0  0  0  0  0
    5.3886    1.3348   17.7470 C   0  0  0  0  0  0  0  0  0  0  0  0
    6.5275    0.6840   17.4676 N   0  0  0  0  0  0  0  0  0  0  0  0
    7.1187    0.0241   18.4736 C   0  0  0  0  0  0  0  0  0  0  0  0
    8.0393   -0.5014   18.2174 H   0  0  0  0  0  0  0  0  0  0  0  0
    4.9297    1.8862   16.9269 H   0  0  0  0  0  0  0  0  0  0  0  0
    3.8666    1.8657   19.1753 H   0  0  0  0  0  0  0  0  0  0  0  0
    4.9907    0.6220   21.0546 H   0  0  0  0  0  0  0  0  0  0  0  0
    8.1048   -1.4182   20.5408 H   0  0  0  0  0  0  0  0  0  0  0  0
    6.6410   -1.2654   21.5135 H   0  0  0  0  0  0  0  0  0  0  0  0
    7.3795    1.1209   22.0865 H   0  0  0  0  0  0  0  0  0  0  0  0
    9.1555    0.2211   23.7017 H   0  0  0  0  0  0  0  0  0  0  0  0
    8.9335   -1.2561   22.9657 H   0  0  0  0  0  0  0  0  0  0  0  0
    6.9394    0.2852   24.5040 H   0  0  0  0  0  0  0  0  0  0  0  0
    6.5256   -1.1611   23.6291 H   0  0  0  0  0  0  0  0  0  0  0  0
    8.6784    0.7724   27.7192 H   0  0  0  0  0  0  0  0  0  0  0  0
    9.3996    1.0700   26.1243 H   0  0  0  0  0  0  0  0  0  0  0  0
    7.6529    1.0424   26.2962 H   0  0  0  0  0  0  0  0  0  0  0  0
  1  2  1  0
  2  3  2  0
  3  4  1  0
  4  5  1  0
  5  6  1  0
  6  7  1  0
  6  8  1  0
  6  9  1  0
  5 10  2  0
 10 11  1  0
 11 12  1  0
 12 13  1  0
 13 14  1  0
 14 15  1  0
 14 16  1  0
 14 17  1  0
 13 18  1  0
 18 19  1  0
 19 20  2  0
 20 21  1  0
 21 22  2  0
 22 23  1  0
 23 24  2  0
 24 25  1  0
 22 26  1  0
 21 27  1  0
 20 28  1  0
 18 29  1  0
 18 30  1  0
 13 31  1  0
 12 32  1  0
 12 33  1  0
 11 34  1  0
 11 35  1  0
  1 36  1  0
  1 37  1  0
  1 38  1  0
 10  2  1  0
 24 19  1  0
M  CHG  1  12   1
M  END
>  <cnnaffinity>  (1) 
4.64598

>  <plip>  (1) 
-0.07142857142857142

>  <filename>  (1) 
[H][c]1[n][c]([H])[c]([C]([H])([H])[C]([H])([C]([H])([H])[H])[N+]([H])([H])[C]([H])([H])[c]2[c]([C]([H])([H])[H])[n][s][c]2[C]([H])([H])[H])[c]([H])[c]1[H]

>  <combo1>  (1) 
-0.42156146457942945

$$$$
