
     RDKit          3D

 37 39  0  0  0  0  0  0  0  0999 V2000
    5.9328   -7.3942   26.9209 F   0  0  0  0  0  0  0  0  0  0  0  0
    6.3800   -6.1383   27.0825 C   0  0  0  0  0  0  0  0  0  0  0  0
    5.4291   -5.1268   27.1790 C   0  0  0  0  0  0  0  0  0  0  0  0
    5.8663   -3.8099   27.3298 C   0  0  0  0  0  0  0  0  0  0  0  0
    7.2352   -3.5059   27.3758 C   0  0  0  0  0  0  0  0  0  0  0  0
    7.6741   -2.0551   27.4637 C   0  0  0  0  0  0  0  0  0  0  0  0
    7.8182   -1.4343   26.1183 C   0  0  0  0  0  0  0  0  0  0  0  0
    6.8588   -0.8309   25.5087 N   0  0  0  0  0  0  0  0  0  0  0  0
    7.2108   -0.3963   24.2574 N   0  0  0  0  0  0  0  0  0  0  0  0
    8.4494   -0.6784   23.9741 C   0  0  0  0  0  0  0  0  0  0  0  0
    9.0644   -0.3455   22.8202 N   0  0  0  0  0  0  0  0  0  0  0  0
    8.3410    0.2868   21.7293 C   0  0  0  0  0  0  0  0  0  0  0  0
    7.4026   -0.6944   21.0005 C   0  0  0  0  0  0  0  0  0  0  0  0
    6.6398   -0.0192   19.8851 C   0  0  0  0  0  0  0  0  0  0  0  0
    5.4304    0.6469   20.1365 C   0  0  0  0  0  0  0  0  0  0  0  0
    4.7962    1.3163   19.0872 C   0  0  0  0  0  0  0  0  0  0  0  0
    5.3887    1.3052   17.8222 C   0  0  0  0  0  0  0  0  0  0  0  0
    6.5517    0.6884   17.5616 N   0  0  0  0  0  0  0  0  0  0  0  0
    7.1519    0.0562   18.5780 C   0  0  0  0  0  0  0  0  0  0  0  0
    8.1057   -0.4193   18.3408 H   0  0  0  0  0  0  0  0  0  0  0  0
    4.9162    1.8056   16.9781 H   0  0  0  0  0  0  0  0  0  0  0  0
    3.8679    1.8516   19.2386 H   0  0  0  0  0  0  0  0  0  0  0  0
    5.0120    0.6378   21.1450 H   0  0  0  0  0  0  0  0  0  0  0  0
    6.7218   -1.1083   21.7558 H   0  0  0  0  0  0  0  0  0  0  0  0
    8.0023   -1.5293   20.6147 H   0  0  0  0  0  0  0  0  0  0  0  0
    9.0827    0.6817   21.0294 H   0  0  0  0  0  0  0  0  0  0  0  0
    7.7583    1.1361   22.1157 H   0  0  0  0  0  0  0  0  0  0  0  0
   10.0253   -0.6223   22.7358 H   0  0  0  0  0  0  0  0  0  0  0  0
    9.3166   -1.5194   25.2267 S   0  0  0  0  0  0  0  0  0  0  0  0
    6.9368   -1.4663   28.0223 H   0  0  0  0  0  0  0  0  0  0  0  0
    8.6356   -1.9487   27.9664 H   0  0  0  0  0  0  0  0  0  0  0  0
    8.1678   -4.5487   27.2990 C   0  0  0  0  0  0  0  0  0  0  0  0
    7.7494   -5.8773   27.1454 C   0  0  0  0  0  0  0  0  0  0  0  0
    8.4587   -6.6950   27.0667 H   0  0  0  0  0  0  0  0  0  0  0  0
    9.2338   -4.3222   27.3564 H   0  0  0  0  0  0  0  0  0  0  0  0
    5.1360   -3.0054   27.4118 H   0  0  0  0  0  0  0  0  0  0  0  0
    4.3807   -5.4007   27.1266 H   0  0  0  0  0  0  0  0  0  0  0  0
  1  2  1  0
  2  3  2  0
  3  4  1  0
  4  5  2  0
  5  6  1  0
  6  7  1  0
  7  8  2  0
  8  9  1  0
  9 10  2  0
 10 11  1  0
 11 12  1  0
 12 13  1  0
 13 14  1  0
 14 15  2  0
 15 16  1  0
 16 17  2  0
 17 18  1  0
 18 19  2  0
 19 20  1  0
 17 21  1  0
 16 22  1  0
 15 23  1  0
 13 24  1  0
 13 25  1  0
 12 26  1  0
 12 27  1  0
 11 28  1  0
 10 29  1  0
  6 30  1  0
  6 31  1  0
  5 32  1  0
 32 33  2  0
 33 34  1  0
 32 35  1  0
  4 36  1  0
  3 37  1  0
 33  2  1  0
 29  7  1  0
 19 14  1  0
M  END
>  <cnnaffinity>  (1) 
5.07733

>  <plip>  (1) 
-0.06896551724137931

>  <filename>  (1) 
[H][c]1[n][c]([H])[c]([C]([H])([H])[C]([H])([H])[N]([H])[c]2[n][n][c]([C]([H])([H])[c]3[c]([H])[c]([H])[c]([F])[c]([H])[c]3[H])[s]2)[c]([H])[c]1[H]

>  <combo1>  (1) 
-0.37126053992047264

$$$$
