
     RDKit          3D

 40 42  0  0  0  0  0  0  0  0999 V2000
    4.9312    1.7785   17.0054 H   0  0  0  0  0  0  0  0  0  0  0  0
    5.4061    1.2859   17.8514 C   0  0  0  0  0  0  0  0  0  0  0  0
    6.5603    0.6561   17.5965 N   0  0  0  0  0  0  0  0  0  0  0  0
    7.1757    0.0381   18.6115 C   0  0  0  0  0  0  0  0  0  0  0  0
    8.1263   -0.4234   18.3758 H   0  0  0  0  0  0  0  0  0  0  0  0
    6.6628   -0.0139   19.9234 C   0  0  0  0  0  0  0  0  0  0  0  0
    7.3522   -0.7068   20.9715 N   0  0  0  0  0  0  0  0  0  0  0  0
    6.5382   -1.5568   21.7499 N   0  0  0  0  0  0  0  0  0  0  0  0
    7.0232   -2.0695   22.8415 C   0  0  0  0  0  0  0  0  0  0  0  0
    6.2717   -2.9268   23.6234 N   0  0  0  0  0  0  0  0  0  0  0  0
    5.1047   -3.6014   23.0450 C   0  0  0  0  0  0  0  0  0  0  0  0
    4.1883   -3.0134   23.1818 H   0  0  0  0  0  0  0  0  0  0  0  0
    5.2503   -3.6984   21.9653 H   0  0  0  0  0  0  0  0  0  0  0  0
    4.8865   -4.9673   23.6947 C   0  0  0  0  0  0  0  0  0  0  0  0
    3.9777   -5.4246   23.2901 H   0  0  0  0  0  0  0  0  0  0  0  0
    5.7180   -5.6275   23.4226 H   0  0  0  0  0  0  0  0  0  0  0  0
    4.7901   -4.8778   25.2228 C   0  0  0  0  0  0  0  0  0  0  0  0
    3.9070   -4.2675   25.4784 H   0  0  0  0  0  0  0  0  0  0  0  0
    4.6144   -6.2573   25.8637 C   0  0  0  0  0  0  0  0  0  0  0  0
    4.5341   -6.1871   26.9555 H   0  0  0  0  0  0  0  0  0  0  0  0
    5.4718   -6.9044   25.6395 H   0  0  0  0  0  0  0  0  0  0  0  0
    3.7144   -6.7628   25.4922 H   0  0  0  0  0  0  0  0  0  0  0  0
    6.0355   -4.1554   25.7514 C   0  0  0  0  0  0  0  0  0  0  0  0
    5.9657   -4.0352   26.8376 H   0  0  0  0  0  0  0  0  0  0  0  0
    6.9186   -4.7793   25.5639 H   0  0  0  0  0  0  0  0  0  0  0  0
    6.2312   -2.7933   25.0882 C   0  0  0  0  0  0  0  0  0  0  0  0
    5.4153   -2.1219   25.4087 H   0  0  0  0  0  0  0  0  0  0  0  0
    7.1598   -2.3374   25.4538 H   0  0  0  0  0  0  0  0  0  0  0  0
    8.4563   -1.8127   23.2882 C   0  0  0  0  0  0  0  0  0  0  0  0
    8.4511   -0.9410   23.9559 H   0  0  0  0  0  0  0  0  0  0  0  0
    8.8276   -2.6559   23.8816 H   0  0  0  0  0  0  0  0  0  0  0  0
    9.3805   -1.5380   22.0911 C   0  0  0  0  0  0  0  0  0  0  0  0
   10.3475   -1.1301   22.3897 H   0  0  0  0  0  0  0  0  0  0  0  0
    9.6032   -2.4575   21.5284 H   0  0  0  0  0  0  0  0  0  0  0  0
    8.7562   -0.5527   21.1190 C   0  0  0  0  0  0  0  0  0  0  0  0
    9.4040    0.2605   20.4888 O   0  0  0  0  0  0  0  0  0  0  0  0
    5.4492    0.6343   20.1801 C   0  0  0  0  0  0  0  0  0  0  0  0
    5.0247    0.5993   21.1816 H   0  0  0  0  0  0  0  0  0  0  0  0
    4.8233    1.3041   19.1234 C   0  0  0  0  0  0  0  0  0  0  0  0
    3.8912    1.8331   19.2671 H   0  0  0  0  0  0  0  0  0  0  0  0
  1  2  1  0
  2  3  2  0
  3  4  1  0
  4  5  1  0
  4  6  2  0
  6  7  1  0
  7  8  1  0
  8  9  2  0
  9 10  1  0
 10 11  1  0
 11 12  1  0
 11 13  1  0
 11 14  1  0
 14 15  1  0
 14 16  1  0
 14 17  1  0
 17 18  1  0
 17 19  1  0
 19 20  1  0
 19 21  1  0
 19 22  1  0
 17 23  1  0
 23 24  1  0
 23 25  1  0
 23 26  1  0
 26 27  1  0
 26 28  1  0
  9 29  1  0
 29 30  1  0
 29 31  1  0
 29 32  1  0
 32 33  1  0
 32 34  1  0
 32 35  1  0
 35 36  2  0
  6 37  1  0
 37 38  1  0
 37 39  2  0
 39 40  1  0
 39  2  1  0
 35  7  1  0
 26 10  1  0
M  END
>  <cnnaffinity>  (1) 
5.22812

>  <plip>  (1) 
-0.07142857142857142

>  <filename>  (1) 
[H][c]1[n][c]([H])[c]([N]2[N]=[C]([N]3[C]([H])([H])[C]([H])([H])[C]([H])([C]([H])([H])[H])[C]([H])([H])[C]3([H])[H])[C]([H])([H])[C]([H])([H])[C]2=[O])[c]([H])[c]1[H]

>  <combo1>  (1) 
-0.45705207826286415

$$$$
