
     RDKit          3D

 34 36  0  0  0  0  0  0  0  0999 V2000
    4.8630    1.2510   19.1689 C   0  0  0  0  0  0  0  0  0  0  0  0
    5.4665    1.2334   17.9072 C   0  0  0  0  0  0  0  0  0  0  0  0
    6.6252    0.5965   17.6569 N   0  0  0  0  0  0  0  0  0  0  0  0
    7.2185   -0.0181   18.6838 C   0  0  0  0  0  0  0  0  0  0  0  0
    6.6962   -0.0480   19.9853 C   0  0  0  0  0  0  0  0  0  0  0  0
    7.5002   -0.6523   20.9222 O   0  0  0  0  0  0  0  0  0  0  0  0
    6.9791   -1.4597   21.9056 C   0  0  0  0  0  0  0  0  0  0  0  0
    7.6056   -1.3530   23.1405 C   0  0  0  0  0  0  0  0  0  0  0  0
    7.1313   -2.0888   24.2273 C   0  0  0  0  0  0  0  0  0  0  0  0
    7.8228   -1.8802   25.3933 O   0  0  0  0  0  0  0  0  0  0  0  0
    7.4880   -2.6291   26.5696 C   0  0  0  0  0  0  0  0  0  0  0  0
    7.7404   -4.1233   26.4208 C   0  0  0  0  0  0  0  0  0  0  0  0
    8.9559   -4.6174   25.9459 C   0  0  0  0  0  0  0  0  0  0  0  0
    9.0235   -5.9877   25.7481 C   0  0  0  0  0  0  0  0  0  0  0  0
    7.9917   -6.7848   25.9963 N   0  0  0  0  0  0  0  0  0  0  0  0
    6.8873   -6.2269   26.4807 C   0  0  0  0  0  0  0  0  0  0  0  0
    6.7120   -4.9276   26.7115 N   0  0  0  0  0  0  0  0  0  0  0  0
    6.0449   -6.8860   26.6889 H   0  0  0  0  0  0  0  0  0  0  0  0
    9.9288   -6.4574   25.3579 H   0  0  0  0  0  0  0  0  0  0  0  0
    9.7905   -3.9709   25.7160 H   0  0  0  0  0  0  0  0  0  0  0  0
    8.1235   -2.2066   27.3537 H   0  0  0  0  0  0  0  0  0  0  0  0
    6.4389   -2.4762   26.8607 H   0  0  0  0  0  0  0  0  0  0  0  0
    6.0427   -2.9682   24.0541 C   0  0  0  0  0  0  0  0  0  0  0  0
    5.4998   -3.1327   22.7748 C   0  0  0  0  0  0  0  0  0  0  0  0
    5.9480   -2.3858   21.6864 C   0  0  0  0  0  0  0  0  0  0  0  0
    5.5165   -2.5097   20.6986 H   0  0  0  0  0  0  0  0  0  0  0  0
    4.6806   -3.8336   22.6296 H   0  0  0  0  0  0  0  0  0  0  0  0
    5.6294   -3.5161   24.8945 H   0  0  0  0  0  0  0  0  0  0  0  0
    8.4828   -0.7286   23.2544 H   0  0  0  0  0  0  0  0  0  0  0  0
    5.4784    0.5904   20.2438 C   0  0  0  0  0  0  0  0  0  0  0  0
    5.0355    0.5835   21.2414 H   0  0  0  0  0  0  0  0  0  0  0  0
    8.1660   -0.5249   18.5142 H   0  0  0  0  0  0  0  0  0  0  0  0
    5.0082    1.7492   17.0656 H   0  0  0  0  0  0  0  0  0  0  0  0
    3.9316    1.7908   19.3015 H   0  0  0  0  0  0  0  0  0  0  0  0
  1  2  2  0
  2  3  1  0
  3  4  2  0
  4  5  1  0
  5  6  1  0
  6  7  1  0
  7  8  2  0
  8  9  1  0
  9 10  1  0
 10 11  1  0
 11 12  1  0
 12 13  2  0
 13 14  1  0
 14 15  2  0
 15 16  1  0
 16 17  2  0
 16 18  1  0
 14 19  1  0
 13 20  1  0
 11 21  1  0
 11 22  1  0
  9 23  2  0
 23 24  1  0
 24 25  2  0
 25 26  1  0
 24 27  1  0
 23 28  1  0
  8 29  1  0
  5 30  2  0
 30 31  1  0
  4 32  1  0
  2 33  1  0
  1 34  1  0
 30  1  1  0
 25  7  1  0
 17 12  1  0
M  END
>  <cnnaffinity>  (1) 
4.92488

>  <plip>  (1) 
-0.0

>  <filename>  (1) 
[H][c]1[n][c]([H])[c]([H])[c]([C]([H])([H])[O][c]2[c]([H])[c]([H])[c]([H])[c]([O][c]3[c]([H])[n][c]([H])[c]([H])[c]3[H])[c]2[H])[n]1

>  <combo1>  (1) 
-5.877667541475864e-06

$$$$
