
     RDKit          3D

 25 26  0  0  0  0  0  0  0  0999 V2000
    7.9342   -1.6362   20.5810 H   0  0  0  0  0  0  0  0  0  0  0  0
    7.4125   -0.7363   20.9046 C   0  0  0  0  0  0  0  0  0  0  0  0
    7.5589   -0.3934   22.1901 C   0  0  0  0  0  0  0  0  0  0  0  0
    7.0229    0.7761   22.6383 F   0  0  0  0  0  0  0  0  0  0  0  0
    8.3015   -1.1548   23.2414 C   0  0  0  0  0  0  0  0  0  0  0  0
    8.8128   -2.3399   22.8916 N   0  0  0  0  0  0  0  0  0  0  0  0
    9.3726   -3.0174   23.8740 C   0  0  0  0  0  0  0  0  0  0  0  0
    9.7152   -4.2816   23.5828 N   0  0  0  0  0  0  0  0  0  0  0  0
    9.8986   -4.2924   22.5942 H   0  0  0  0  0  0  0  0  0  0  0  0
   10.4872   -4.4910   24.1883 H   0  0  0  0  0  0  0  0  0  0  0  0
    9.6601   -2.6205   25.1014 N   0  0  0  0  0  0  0  0  0  0  0  0
    9.1533   -1.4361   25.4313 C   0  0  0  0  0  0  0  0  0  0  0  0
    9.3173   -1.1095   26.4619 H   0  0  0  0  0  0  0  0  0  0  0  0
    8.4376   -0.6466   24.5401 C   0  0  0  0  0  0  0  0  0  0  0  0
    8.0065    0.3019   24.8070 H   0  0  0  0  0  0  0  0  0  0  0  0
    6.6547   -0.0048   19.8661 C   0  0  0  0  0  0  0  0  0  0  0  0
    7.1492    0.0429   18.5431 C   0  0  0  0  0  0  0  0  0  0  0  0
    8.0976   -0.4399   18.3038 H   0  0  0  0  0  0  0  0  0  0  0  0
    6.5449    0.6762   17.5356 N   0  0  0  0  0  0  0  0  0  0  0  0
    5.3873    1.3036   17.8096 C   0  0  0  0  0  0  0  0  0  0  0  0
    4.9162    1.8195   16.9769 H   0  0  0  0  0  0  0  0  0  0  0  0
    4.7991    1.3176   19.0756 C   0  0  0  0  0  0  0  0  0  0  0  0
    3.8667    1.8509   19.2281 H   0  0  0  0  0  0  0  0  0  0  0  0
    5.4451    0.6629   20.1258 C   0  0  0  0  0  0  0  0  0  0  0  0
    5.0307    0.6618   21.1335 H   0  0  0  0  0  0  0  0  0  0  0  0
  1  2  1  0
  2  3  2  3
  3  4  1  0
  3  5  1  0
  5  6  2  0
  6  7  1  0
  7  8  1  0
  8  9  1  0
  8 10  1  0
  7 11  2  0
 11 12  1  0
 12 13  1  0
 12 14  2  0
 14 15  1  0
  2 16  1  0
 16 17  2  0
 17 18  1  0
 17 19  1  0
 19 20  2  0
 20 21  1  0
 20 22  1  0
 22 23  1  0
 22 24  2  0
 24 25  1  0
 14  5  1  0
 24 16  1  0
M  END
>  <cnnaffinity>  (1) 
4.49144

>  <plip>  (1) 
-0.034482758620689655

>  <filename>  (1) 
[H][C](=[C]([F])[c]1[n][c]([N]([H])[H])[n][c]([H])[c]1[H])[c]1[c]([H])[n][c]([H])[c]([H])[c]1[H]

>  <combo1>  (1) 
-0.23876600634743836

$$$$
