
     RDKit          3D

 18 18  0  0  0  0  0  0  0  0999 V2000
    6.9523    3.1170   22.0731 H   0  0  0  0  0  0  0  0  0  0  0  0
    7.2836    2.4345   22.7696 N   0  0  0  0  0  0  0  0  0  0  0  0
    7.4559    1.3242   22.3211 N   0  0  0  0  0  4  0  0  0  0  0  0
    7.7508    0.1623   22.1617 N   0  0  0  0  0  0  0  0  0  0  0  0
    7.3219   -0.5928   21.0327 C   0  0  0  0  0  0  0  0  0  0  0  0
    7.5949   -1.8973   21.0433 C   0  0  0  0  0  0  0  0  0  0  0  0
    8.2079   -2.3428   21.8237 H   0  0  0  0  0  0  0  0  0  0  0  0
    7.2056   -2.5535   20.2800 H   0  0  0  0  0  0  0  0  0  0  0  0
    6.5976    0.0867   19.9219 C   0  0  0  0  0  0  0  0  0  0  0  0
    7.1428    0.0852   18.6260 C   0  0  0  0  0  0  0  0  0  0  0  0
    8.0895   -0.4242   18.4308 H   0  0  0  0  0  0  0  0  0  0  0  0
    6.5682    0.6830   17.5788 N   0  0  0  0  0  0  0  0  0  0  0  0
    5.4000    1.3097   17.7971 C   0  0  0  0  0  0  0  0  0  0  0  0
    4.9579    1.8117   16.9410 H   0  0  0  0  0  0  0  0  0  0  0  0
    4.7528    1.3353   19.0357 C   0  0  0  0  0  0  0  0  0  0  0  0
    3.7949    1.8328   19.1299 H   0  0  0  0  0  0  0  0  0  0  0  0
    5.3611    0.7180   20.1272 C   0  0  0  0  0  0  0  0  0  0  0  0
    4.8944    0.7115   21.1160 H   0  0  0  0  0  0  0  0  0  0  0  0
  1  2  1  0
  2  3  2  0
  3  4  2  0
  4  5  1  0
  5  6  2  3
  6  7  1  0
  6  8  1  0
  5  9  1  0
  9 10  2  0
 10 11  1  0
 10 12  1  0
 12 13  2  0
 13 14  1  0
 13 15  1  0
 15 16  1  0
 15 17  2  0
 17 18  1  0
 17  9  1  0
M  CHG  1   3   1
M  END
>  <cnnaffinity>  (1) 
3.45125

>  <plip>  (1) 
-0.0

>  <filename>  (1) 
[H][N]=[N+]=[N][C](=[C]([H])[H])[c]1[c]([H])[n][c]([H])[c]([H])[c]1[H]

>  <combo1>  (1) 
-7.817401802560916e-06

$$$$
