
     RDKit          3D

 24 25  0  0  0  0  0  0  0  0999 V2000
    4.9434    1.7958   16.9473 H   0  0  0  0  0  0  0  0  0  0  0  0
    5.4180    1.3137   17.8030 C   0  0  0  0  0  0  0  0  0  0  0  0
    6.5908    0.7033   17.5613 N   0  0  0  0  0  0  0  0  0  0  0  0
    7.1724    0.0600   18.5834 C   0  0  0  0  0  0  0  0  0  0  0  0
    8.1043   -0.4647   18.3738 H   0  0  0  0  0  0  0  0  0  0  0  0
    6.6380    0.0196   19.8858 C   0  0  0  0  0  0  0  0  0  0  0  0
    7.4773   -0.8610   21.2154 S   0  0  0  0  0  0  0  0  0  0  0  0
    8.6345    0.4847   22.1915 S   0  0  0  0  0  0  0  0  0  0  0  0
    7.5640    1.2186   23.3108 O   0  0  0  0  0  0  0  0  0  0  0  0
    6.8676    2.3849   22.8995 C   0  0  0  0  0  0  0  0  0  0  0  0
    7.2142    3.1778   21.8053 C   0  0  0  0  0  0  0  0  0  0  0  0
    8.0852    2.9562   21.2020 H   0  0  0  0  0  0  0  0  0  0  0  0
    6.4197    4.2944   21.5101 C   0  0  0  0  0  0  0  0  0  0  0  0
    6.6246    4.9201   20.6430 H   0  0  0  0  0  0  0  0  0  0  0  0
    5.3292    4.6316   22.3046 C   0  0  0  0  0  0  0  0  0  0  0  0
    4.7311    5.5022   22.0719 H   0  0  0  0  0  0  0  0  0  0  0  0
    5.0320    3.8452   23.4245 C   0  0  0  0  0  0  0  0  0  0  0  0
    3.6674    4.2413   24.4249 Cl  0  0  0  0  0  0  0  0  0  0  0  0
    5.8088    2.7292   23.7394 C   0  0  0  0  0  0  0  0  0  0  0  0
    5.6256    2.1132   24.6134 H   0  0  0  0  0  0  0  0  0  0  0  0
    5.4034    0.6375   20.1138 C   0  0  0  0  0  0  0  0  0  0  0  0
    4.9716    0.5868   21.1166 H   0  0  0  0  0  0  0  0  0  0  0  0
    4.7794    1.2957   19.0476 C   0  0  0  0  0  0  0  0  0  0  0  0
    3.8150    1.7774   19.1749 H   0  0  0  0  0  0  0  0  0  0  0  0
  1  2  1  0
  2  3  2  0
  3  4  1  0
  4  5  1  0
  4  6  2  0
  6  7  1  0
  7  8  1  0
  8  9  1  0
  9 10  1  0
 10 11  2  0
 11 12  1  0
 11 13  1  0
 13 14  1  0
 13 15  2  0
 15 16  1  0
 15 17  1  0
 17 18  1  0
 17 19  2  0
 19 20  1  0
  6 21  1  0
 21 22  1  0
 21 23  2  0
 23 24  1  0
 23  2  1  0
 19 10  1  0
M  END
>  <cnnaffinity>  (1) 
4.67189

>  <plip>  (1) 
-0.03571428571428571

>  <filename>  (1) 
[H][c]1[n][c]([H])[c]([S][S][O][c]2[c]([H])[c]([H])[c]([H])[c]([Cl])[c]2[H])[c]([H])[c]1[H]

>  <combo1>  (1) 
-0.20616113283973525

$$$$
