
     RDKit          3D

 25 25  0  0  0  0  0  0  0  0999 V2000
   11.2457   -0.1525   26.6573 H   0  0  0  0  0  0  0  0  0  0  0  0
   10.6387    0.4015   25.9572 C   0  0  0  0  0  0  0  0  0  0  0  0
   10.4902    1.4673   26.1105 H   0  0  0  0  0  0  0  0  0  0  0  0
   10.0589   -0.2452   24.9091 C   0  0  0  0  0  0  0  0  0  0  0  0
   10.2170   -1.3126   24.7758 H   0  0  0  0  0  0  0  0  0  0  0  0
    9.2047    0.5065   23.9473 C   0  0  0  0  0  0  0  0  0  0  0  0
    8.3631    0.9608   24.4818 H   0  0  0  0  0  0  0  0  0  0  0  0
    9.7939    1.3024   23.4796 H   0  0  0  0  0  0  0  0  0  0  0  0
    8.7280   -0.3896   22.9568 O   0  0  0  0  0  0  0  0  0  0  0  0
    7.9102    0.2912   22.0153 C   0  0  0  0  0  0  0  0  0  0  0  0
    8.4967    1.0746   21.5228 H   0  0  0  0  0  0  0  0  0  0  0  0
    7.0629    0.7655   22.5235 H   0  0  0  0  0  0  0  0  0  0  0  0
    7.4147   -0.7063   20.9802 C   0  0  1  0  0  0  0  0  0  0  0  0
    8.2803   -1.2231   20.5542 H   0  0  0  0  0  0  0  0  0  0  0  0
    6.2475   -2.0694   21.8095 Br  0  0  0  0  0  0  0  0  0  0  0  0
    6.6608    0.0123   19.8949 C   0  0  0  0  0  0  0  0  0  0  0  0
    7.1855    0.0569   18.5938 C   0  0  0  0  0  0  0  0  0  0  0  0
    8.1320   -0.4391   18.3931 H   0  0  0  0  0  0  0  0  0  0  0  0
    6.5672    0.6806   17.5787 N   0  0  0  0  0  0  0  0  0  0  0  0
    5.4011    1.2932   17.8371 C   0  0  0  0  0  0  0  0  0  0  0  0
    4.8919    1.7813   17.0131 H   0  0  0  0  0  0  0  0  0  0  0  0
    4.8120    1.3091   19.1106 C   0  0  0  0  0  0  0  0  0  0  0  0
    3.8758    1.8396   19.2664 H   0  0  0  0  0  0  0  0  0  0  0  0
    5.4472    0.6486   20.1608 C   0  0  0  0  0  0  0  0  0  0  0  0
    5.0102    0.6307   21.1576 H   0  0  0  0  0  0  0  0  0  0  0  0
  1  2  1  0
  2  3  1  0
  2  4  2  3
  4  5  1  0
  4  6  1  0
  6  7  1  0
  6  8  1  0
  6  9  1  0
  9 10  1  0
 10 11  1  0
 10 12  1  0
 10 13  1  0
 13 14  1  6
 13 15  1  0
 13 16  1  0
 16 17  2  0
 17 18  1  0
 17 19  1  0
 19 20  2  0
 20 21  1  0
 20 22  1  0
 22 23  1  0
 22 24  2  0
 24 25  1  0
 24 16  1  0
M  END
>  <cnnaffinity>  (1) 
3.92764

>  <plip>  (1) 
-0.06896551724137931

>  <filename>  (1) 
[H][C]([H])=[C]([H])[C]([H])([H])[O][C]([H])([H])[C@@]([H])([Br])[c]1[c]([H])[n][c]([H])[c]([H])[c]1[H]

>  <combo1>  (1) 
-0.3729227920197082

$$$$
