
     RDKit          3D

 32 33  0  0  0  0  0  0  0  0999 V2000
    6.6905   -1.0681   22.2416 C   0  0  0  0  0  0  0  0  0  0  0  0
    7.4585   -0.6758   20.9788 C   0  0  0  0  0  0  0  0  0  0  0  0
    6.6283   -0.0044   19.9051 C   0  0  0  0  0  0  0  0  0  0  0  0
    5.4074    0.6333   20.1455 C   0  0  0  0  0  0  0  0  0  0  0  0
    4.7909    1.3030   19.0880 C   0  0  0  0  0  0  0  0  0  0  0  0
    5.3986    1.2929   17.8297 C   0  0  0  0  0  0  0  0  0  0  0  0
    6.5653    0.6788   17.5794 N   0  0  0  0  0  0  0  0  0  0  0  0
    7.1603    0.0664   18.6112 C   0  0  0  0  0  0  0  0  0  0  0  0
    8.1080   -0.4122   18.3697 H   0  0  0  0  0  0  0  0  0  0  0  0
    4.9291    1.7887   16.9847 H   0  0  0  0  0  0  0  0  0  0  0  0
    3.8706    1.8436   19.2431 H   0  0  0  0  0  0  0  0  0  0  0  0
    4.9935    0.6535   21.1593 H   0  0  0  0  0  0  0  0  0  0  0  0
    8.6711    0.0846   21.2991 N   0  0  0  0  0  0  0  0  0  0  0  0
    9.9438   -0.6255   21.3480 C   0  0  0  0  0  0  0  0  0  0  0  0
   10.5034   -0.3885   22.2575 H   0  0  0  0  0  0  0  0  0  0  0  0
    9.7656   -1.7061   21.3348 H   0  0  0  0  0  0  0  0  0  0  0  0
   10.5928   -0.3992   20.4977 H   0  0  0  0  0  0  0  0  0  0  0  0
    8.5993    1.4204   21.6413 C   0  0  0  0  0  0  0  0  0  0  0  0
    7.4620    2.0163   22.0174 N   0  0  0  0  0  0  0  0  0  0  0  0
    7.7740    3.3045   22.2556 N   0  0  0  0  0  0  0  0  0  0  0  0
    6.7962    4.2688   22.7166 C   0  0  0  0  0  0  0  0  0  0  0  0
    5.8016    3.9434   22.4241 H   0  0  0  0  0  0  0  0  0  0  0  0
    6.8346    4.4012   23.8018 H   0  0  0  0  0  0  0  0  0  0  0  0
    6.9871    5.2445   22.2615 H   0  0  0  0  0  0  0  0  0  0  0  0
    9.0829    3.5507   22.0924 C   0  0  0  0  0  0  0  0  0  0  0  0
    9.6587    2.3841   21.6724 C   0  0  0  0  0  0  0  0  0  0  0  0
   11.3161    2.2301   21.2263 Cl  0  0  0  0  0  0  0  0  0  0  0  0
    9.4926    4.5433   22.2346 H   0  0  0  0  0  0  0  0  0  0  0  0
    7.8213   -1.6173   20.5362 H   0  0  0  0  0  0  0  0  0  0  0  0
    6.3965   -0.1793   22.8109 H   0  0  0  0  0  0  0  0  0  0  0  0
    5.7992   -1.6363   21.9525 H   0  0  0  0  0  0  0  0  0  0  0  0
    7.3108   -1.7113   22.8784 H   0  0  0  0  0  0  0  0  0  0  0  0
  1  2  1  0
  2  3  1  0
  3  4  2  0
  4  5  1  0
  5  6  2  0
  6  7  1  0
  7  8  2  0
  8  9  1  0
  6 10  1  0
  5 11  1  0
  4 12  1  0
  2 13  1  0
 13 14  1  0
 14 15  1  0
 14 16  1  0
 14 17  1  0
 13 18  1  0
 18 19  2  0
 19 20  1  0
 20 21  1  0
 21 22  1  0
 21 23  1  0
 21 24  1  0
 20 25  1  0
 25 26  2  0
 26 27  1  0
 25 28  1  0
  2 29  1  0
  1 30  1  0
  1 31  1  0
  1 32  1  0
  8  3  1  0
 26 18  1  0
M  END
>  <cnnaffinity>  (1) 
4.8174

>  <plip>  (1) 
-0.0

>  <filename>  (1) 
[H][c]1[n][c]([H])[c]([C]([H])([N]([c]2[n][n]([C]([H])([H])[H])[c]([H])[c]2[Cl])[C]([H])([H])[H])[C]([H])([H])[H])[c]([H])[c]1[H]

>  <combo1>  (1) 
-6.40442223400988e-06

$$$$
