
     RDKit          3D

 32 33  0  0  0  0  0  0  0  0999 V2000
    5.0931    1.7707   16.9766 H   0  0  0  0  0  0  0  0  0  0  0  0
    5.4963    1.2550   17.8437 C   0  0  0  0  0  0  0  0  0  0  0  0
    6.6522    0.6049   17.6481 N   0  0  0  0  0  0  0  0  0  0  0  0
    7.1876   -0.0261   18.6963 C   0  0  0  0  0  0  0  0  0  0  0  0
    8.1238   -0.5551   18.5233 H   0  0  0  0  0  0  0  0  0  0  0  0
    6.6154   -0.0248   19.9697 C   0  0  0  0  0  0  0  0  0  0  0  0
    7.3533   -0.7298   21.0273 C   0  0  0  0  0  0  0  0  0  0  0  0
    8.1002   -1.7390   20.7057 N   0  0  0  0  0  0  0  0  0  0  0  0
    8.6903   -2.5207   21.7063 N   0  0  0  0  0  0  0  0  0  0  0  0
    9.7062   -2.4826   21.8036 H   0  0  0  0  0  0  0  0  0  0  0  0
    8.0288   -3.2542   22.6685 C   0  0  0  0  0  0  0  0  0  0  0  0
    6.6480   -3.5149   22.5640 C   0  0  0  0  0  0  0  0  0  0  0  0
    6.1306   -3.1588   21.6817 H   0  0  0  0  0  0  0  0  0  0  0  0
    5.9664   -4.1908   23.5706 C   0  0  0  0  0  0  0  0  0  0  0  0
    4.8974   -4.3675   23.4857 H   0  0  0  0  0  0  0  0  0  0  0  0
    6.6603   -4.6309   24.7041 C   0  0  0  0  0  0  0  0  0  0  0  0
    6.1446   -5.1578   25.5013 H   0  0  0  0  0  0  0  0  0  0  0  0
    8.0299   -4.4028   24.8072 C   0  0  0  0  0  0  0  0  0  0  0  0
    8.5623   -4.7447   25.6910 H   0  0  0  0  0  0  0  0  0  0  0  0
    8.7473   -3.7254   23.7983 C   0  0  0  0  0  0  0  0  0  0  0  0
   10.2051   -3.4519   23.8958 C   0  0  0  0  0  0  0  0  0  0  0  0
   10.8171   -2.6165   23.2368 O   0  0  0  0  0  0  0  0  0  0  0  0
   10.9412   -4.2056   24.7757 N   0  0  0  0  0  0  0  0  0  0  0  0
   10.6934   -5.1815   24.7688 H   0  0  0  0  0  0  0  0  0  0  0  0
   11.9104   -4.0118   24.5597 H   0  0  0  0  0  0  0  0  0  0  0  0
    7.1818   -0.2079   22.2951 N   0  0  0  0  0  0  0  0  0  0  0  0
    7.1651    0.8001   22.2766 H   0  0  0  0  0  0  0  0  0  0  0  0
    7.8873   -0.5799   22.9171 H   0  0  0  0  0  0  0  0  0  0  0  0
    5.3931    0.6453   20.1639 C   0  0  0  0  0  0  0  0  0  0  0  0
    4.9144    0.6538   21.1471 H   0  0  0  0  0  0  0  0  0  0  0  0
    4.8219    1.2911   19.0707 C   0  0  0  0  0  0  0  0  0  0  0  0
    3.8949    1.8478   19.1592 H   0  0  0  0  0  0  0  0  0  0  0  0
  1  2  1  0
  2  3  2  0
  3  4  1  0
  4  5  1  0
  4  6  2  0
  6  7  1  0
  7  8  2  3
  8  9  1  0
  9 10  1  0
  9 11  1  0
 11 12  2  0
 12 13  1  0
 12 14  1  0
 14 15  1  0
 14 16  2  0
 16 17  1  0
 16 18  1  0
 18 19  1  0
 18 20  2  0
 20 21  1  0
 21 22  2  0
 21 23  1  0
 23 24  1  0
 23 25  1  0
  7 26  1  0
 26 27  1  0
 26 28  1  0
  6 29  1  0
 29 30  1  0
 29 31  2  0
 31 32  1  0
 31  2  1  0
 20 11  1  0
M  END
>  <cnnaffinity>  (1) 
4.93483

>  <plip>  (1) 
-0.06451612903225806

>  <filename>  (1) 
[H][c]1[n][c]([H])[c]([C](=[N][N]([H])[c]2[c]([H])[c]([H])[c]([H])[c]([H])[c]2[C](=[O])[N]([H])[H])[N]([H])[H])[c]([H])[c]1[H]

>  <combo1>  (1) 
-0.4157198394870202

$$$$
