
     RDKit          3D

 33 35  0  0  0  0  0  0  0  0999 V2000
    6.2719   -2.2864   19.7551 H   0  0  0  0  0  0  0  0  0  0  0  0
    6.7394   -2.8358   20.4747 N   0  0  0  0  0  0  0  0  0  0  0  0
    7.3747   -1.9985   21.1692 C   0  0  0  0  0  0  0  0  0  0  0  0
    8.3294   -2.4384   22.5907 S   0  0  0  0  0  0  0  0  0  0  0  0
    8.4830   -0.7612   23.0342 C   0  0  0  0  0  0  0  0  0  0  0  0
    8.9380   -0.4467   23.9606 H   0  0  0  0  0  0  0  0  0  0  0  0
    7.8885    0.0362   22.1199 C   0  0  0  0  0  0  0  0  0  0  0  0
    7.6533    1.3574   22.1993 O   0  0  0  0  0  0  0  0  0  0  0  0
    8.4321    2.1737   23.0028 C   0  0  0  0  0  0  0  0  0  0  0  0
    7.7787    3.2252   23.6467 C   0  0  0  0  0  0  0  0  0  0  0  0
    6.7052    3.3370   23.5219 H   0  0  0  0  0  0  0  0  0  0  0  0
    8.5373    4.1101   24.4134 C   0  0  0  0  0  0  0  0  0  0  0  0
    8.0468    4.9366   24.9189 H   0  0  0  0  0  0  0  0  0  0  0  0
    9.9236    3.9472   24.5175 C   0  0  0  0  0  0  0  0  0  0  0  0
   10.5093    4.6621   25.0856 H   0  0  0  0  0  0  0  0  0  0  0  0
   10.5729    2.8892   23.8691 C   0  0  0  0  0  0  0  0  0  0  0  0
   12.0593    2.6858   23.9866 C   0  0  0  0  0  0  0  0  0  0  0  0
   12.5785    3.6417   24.0782 H   0  0  0  0  0  0  0  0  0  0  0  0
   12.3182    2.0717   24.8562 H   0  0  0  0  0  0  0  0  0  0  0  0
   12.4645    2.1822   23.1053 H   0  0  0  0  0  0  0  0  0  0  0  0
    9.8136    2.0046   23.0958 C   0  0  0  0  0  0  0  0  0  0  0  0
   10.2801    1.1876   22.5548 H   0  0  0  0  0  0  0  0  0  0  0  0
    7.3999   -0.5986   20.9906 N   0  0  0  0  0  0  0  0  0  0  0  0
    6.7047    0.0567   19.8942 C   0  0  0  0  0  0  0  0  0  0  0  0
    7.2052    0.1006   18.5705 C   0  0  0  0  0  0  0  0  0  0  0  0
    8.1560   -0.3681   18.3220 H   0  0  0  0  0  0  0  0  0  0  0  0
    6.5749    0.7095   17.5535 N   0  0  0  0  0  0  0  0  0  0  0  0
    5.4023    1.3120   17.8121 C   0  0  0  0  0  0  0  0  0  0  0  0
    4.9077    1.7988   16.9729 H   0  0  0  0  0  0  0  0  0  0  0  0
    4.8070    1.3064   19.0772 C   0  0  0  0  0  0  0  0  0  0  0  0
    3.8570    1.8082   19.2309 H   0  0  0  0  0  0  0  0  0  0  0  0
    5.4724    0.6743   20.1356 C   0  0  0  0  0  0  0  0  0  0  0  0
    5.0784    0.6804   21.1513 H   0  0  0  0  0  0  0  0  0  0  0  0
  1  2  1  0
  2  3  2  3
  3  4  1  0
  4  5  1  0
  5  6  1  0
  5  7  2  0
  7  8  1  0
  8  9  1  0
  9 10  2  0
 10 11  1  0
 10 12  1  0
 12 13  1  0
 12 14  2  0
 14 15  1  0
 14 16  1  0
 16 17  1  0
 17 18  1  0
 17 19  1  0
 17 20  1  0
 16 21  2  0
 21 22  1  0
  7 23  1  0
 23 24  1  0
 24 25  2  0
 25 26  1  0
 25 27  1  0
 27 28  2  0
 28 29  1  0
 28 30  1  0
 30 31  1  0
 30 32  2  0
 32 33  1  0
 23  3  1  0
 32 24  1  0
 21  9  1  0
M  END
>  <cnnaffinity>  (1) 
5.33806

>  <plip>  (1) 
-0.10344827586206896

>  <filename>  (1) 
[H][N]=[c]1[s][c]([H])[c]([O][c]2[c]([H])[c]([H])[c]([H])[c]([C]([H])([H])[H])[c]2[H])[n]1-[c]1[c]([H])[n][c]([H])[c]([H])[c]1[H]

>  <combo1>  (1) 
-0.6496105058045659

$$$$
