
     RDKit          3D

 32 35  0  0  0  0  0  0  0  0999 V2000
    5.0844    1.4912   19.0001 C   0  0  0  0  0  0  0  0  0  0  0  0
    5.8515    1.3478   17.8398 C   0  0  0  0  0  0  0  0  0  0  0  0
    7.0042    0.6652   17.7961 N   0  0  0  0  0  0  0  0  0  0  0  0
    7.4145    0.0843   18.9334 C   0  0  0  0  0  0  0  0  0  0  0  0
    6.7016    0.1126   20.1460 C   0  0  0  0  0  0  0  0  0  0  0  0
    7.1357   -0.6851   21.3320 C   0  0  0  0  0  0  0  0  0  0  0  0
    6.6629   -1.8930   21.7876 C   0  0  0  0  0  0  0  0  0  0  0  0
    7.2407   -2.0501   23.0704 C   0  0  0  0  0  0  0  0  0  0  0  0
    8.0451   -1.0436   23.3641 N   0  0  0  0  0  0  0  0  0  0  0  0
    8.0189   -0.2403   22.2844 N   0  0  0  0  0  0  0  0  0  0  0  0
    9.0195    0.8150   22.1599 C   0  0  0  0  0  0  0  0  0  0  0  0
   10.4626    0.3334   22.1174 C   0  0  0  0  0  0  0  0  0  0  0  0
   11.3927    0.9628   22.8989 C   0  0  0  0  0  0  0  0  0  0  0  0
   12.7208    0.4175   22.9014 C   0  0  0  0  0  0  0  0  0  0  0  0
   13.7668    0.7686   23.6037 N   0  0  0  0  0  0  0  0  0  0  0  0
   14.7232   -0.1017   23.2441 O   0  0  0  0  0  0  0  0  0  0  0  0
   14.3267   -1.0027   22.3250 N   0  0  0  0  0  0  0  0  0  0  0  0
   13.0684   -0.7011   22.0893 C   0  0  0  0  0  0  0  0  0  0  0  0
   12.0929   -1.3071   21.2311 C   0  0  0  0  0  0  0  0  0  0  0  0
   10.8297   -0.7820   21.2690 C   0  0  0  0  0  0  0  0  0  0  0  0
   10.0669   -1.2399   20.6429 H   0  0  0  0  0  0  0  0  0  0  0  0
   12.3471   -2.1776   20.6406 H   0  0  0  0  0  0  0  0  0  0  0  0
   11.1505    1.8026   23.5458 H   0  0  0  0  0  0  0  0  0  0  0  0
    8.8928    1.4826   23.0138 H   0  0  0  0  0  0  0  0  0  0  0  0
    8.7749    1.3625   21.2505 H   0  0  0  0  0  0  0  0  0  0  0  0
    7.1226   -2.8563   23.7864 H   0  0  0  0  0  0  0  0  0  0  0  0
    6.0134   -2.5707   21.2559 H   0  0  0  0  0  0  0  0  0  0  0  0
    5.5116    0.8642   20.1729 C   0  0  0  0  0  0  0  0  0  0  0  0
    4.9485    0.9601   21.1021 H   0  0  0  0  0  0  0  0  0  0  0  0
    8.3736   -0.4338   18.8848 H   0  0  0  0  0  0  0  0  0  0  0  0
    5.5191    1.7954   16.9023 H   0  0  0  0  0  0  0  0  0  0  0  0
    4.1787    2.0869   18.9745 H   0  0  0  0  0  0  0  0  0  0  0  0
  1  2  2  0
  2  3  1  0
  3  4  2  0
  4  5  1  0
  5  6  1  0
  6  7  2  0
  7  8  1  0
  8  9  2  0
  9 10  1  0
 10 11  1  0
 11 12  1  0
 12 13  2  0
 13 14  1  0
 14 15  2  0
 15 16  1  0
 16 17  1  0
 17 18  2  0
 18 19  1  0
 19 20  2  0
 20 21  1  0
 19 22  1  0
 13 23  1  0
 11 24  1  0
 11 25  1  0
  8 26  1  0
  7 27  1  0
  5 28  2  0
 28 29  1  0
  4 30  1  0
  2 31  1  0
  1 32  1  0
 28  1  1  0
 10  6  1  0
 20 12  1  0
 18 14  1  0
M  END
>  <cnnaffinity>  (1) 
6.00665

>  <plip>  (1) 
-0.03571428571428571

>  <filename>  (1) 
[H][c]1[n][c]([H])[c](-[c]2[c]([H])[c]([H])[n][n]2[C]([H])([H])[c]2[c]([H])[c]([H])[c]3[n][o][n][c]3[c]2[H])[c]([H])[c]1[H]

>  <combo1>  (1) 
-0.25788348568536623

$$$$
