
     RDKit          3D

 25 26  0  0  0  0  0  0  0  0999 V2000
    4.9259    1.7795   16.9966 H   0  0  0  0  0  0  0  0  0  0  0  0
    5.4077    1.2934   17.8416 C   0  0  0  0  0  0  0  0  0  0  0  0
    6.5735    0.6817   17.5861 N   0  0  0  0  0  0  0  0  0  0  0  0
    7.1663    0.0517   18.6036 C   0  0  0  0  0  0  0  0  0  0  0  0
    8.1163   -0.4299   18.3733 H   0  0  0  0  0  0  0  0  0  0  0  0
    6.6276   -0.0156   19.8923 C   0  0  0  0  0  0  0  0  0  0  0  0
    7.4402   -0.6610   20.9806 C   0  0  0  0  0  0  0  0  0  0  0  0
    6.6206   -1.0579   22.0022 F   0  0  0  0  0  0  0  0  0  0  0  0
    8.0212   -1.8120   20.5240 F   0  0  0  0  0  0  0  0  0  0  0  0
    8.5556    0.2365   21.5386 C   0  0  0  0  0  0  0  0  0  0  0  0
    9.1022   -0.3494   22.2845 H   0  0  0  0  0  0  0  0  0  0  0  0
    9.2367    0.4680   20.7139 H   0  0  0  0  0  0  0  0  0  0  0  0
    8.0338    1.4810   22.1773 C   0  0  0  0  0  0  0  0  0  0  0  0
    7.5222    1.6244   23.4404 C   0  0  0  0  0  0  0  0  0  0  0  0
    7.5035    0.8446   24.1909 H   0  0  0  0  0  0  0  0  0  0  0  0
    7.0176    2.9446   23.5507 C   0  0  0  0  0  0  0  0  0  0  0  0
    6.5793    3.3870   24.4311 H   0  0  0  0  0  0  0  0  0  0  0  0
    7.2112    3.5703   22.3457 C   0  0  0  0  0  0  0  0  0  0  0  0
    6.9741    4.5784   22.0140 H   0  0  0  0  0  0  0  0  0  0  0  0
    7.8344    2.6655   21.5219 N   0  0  0  0  0  0  0  0  0  0  0  0
    8.0351    2.8107   20.5506 H   0  0  0  0  0  0  0  0  0  0  0  0
    5.4201    0.6428   20.1585 C   0  0  0  0  0  0  0  0  0  0  0  0
    5.0001    0.6373   21.1697 H   0  0  0  0  0  0  0  0  0  0  0  0
    4.8013    1.3112   19.1039 C   0  0  0  0  0  0  0  0  0  0  0  0
    3.8690    1.8461   19.2542 H   0  0  0  0  0  0  0  0  0  0  0  0
  1  2  1  0
  2  3  2  0
  3  4  1  0
  4  5  1  0
  4  6  2  0
  6  7  1  0
  7  8  1  0
  7  9  1  0
  7 10  1  0
 10 11  1  0
 10 12  1  0
 10 13  1  0
 13 14  2  0
 14 15  1  0
 14 16  1  0
 16 17  1  0
 16 18  2  0
 18 19  1  0
 18 20  1  0
 20 21  1  0
  6 22  1  0
 22 23  1  0
 22 24  2  0
 24 25  1  0
 24  2  1  0
 20 13  1  0
M  END
>  <cnnaffinity>  (1) 
4.25669

>  <plip>  (1) 
-0.06896551724137931

>  <filename>  (1) 
[H][c]1[n][c]([H])[c]([C]([F])([F])[C]([H])([H])[c]2[c]([H])[c]([H])[c]([H])[n]2[H])[c]([H])[c]1[H]

>  <combo1>  (1) 
-0.46997969621554875

$$$$
