
     RDKit          3D

 32 34  0  0  0  0  0  0  0  0999 V2000
    4.9273    1.7891   17.0263 H   0  0  0  0  0  0  0  0  0  0  0  0
    5.4046    1.2738   17.8567 C   0  0  0  0  0  0  0  0  0  0  0  0
    6.5598    0.6500   17.5764 N   0  0  0  0  0  0  0  0  0  0  0  0
    7.1988    0.0430   18.5805 C   0  0  0  0  0  0  0  0  0  0  0  0
    8.1455   -0.4347   18.3485 H   0  0  0  0  0  0  0  0  0  0  0  0
    6.7076   -0.0027   19.9054 C   0  0  0  0  0  0  0  0  0  0  0  0
    7.4362   -0.6507   20.9728 N   0  0  0  0  0  0  0  0  0  0  0  0
    8.8047   -0.5481   21.1925 C   0  0  0  0  0  0  0  0  0  0  0  0
    9.5971    0.0281   20.4968 O   0  0  0  0  0  0  0  0  0  0  0  0
    9.0636   -1.3400   22.4944 C   0  0  0  0  0  0  0  0  0  0  0  0
   10.0954   -1.5817   23.0580 O   0  0  0  0  0  0  0  0  0  0  0  0
    7.8304   -1.7980   22.8805 N   0  0  0  0  0  0  0  0  0  0  0  0
    7.5122   -2.3024   24.2072 C   0  0  0  0  0  0  0  0  0  0  0  0
    8.3854   -2.8481   24.5846 H   0  0  0  0  0  0  0  0  0  0  0  0
    6.6444   -2.9673   24.1440 H   0  0  0  0  0  0  0  0  0  0  0  0
    7.2148   -1.2424   25.1384 N   0  0  0  0  0  0  0  0  0  0  0  0
    5.9354   -0.7076   25.3297 N   0  0  0  0  0  0  0  0  0  0  0  0
    6.1727    0.3212   26.0631 C   0  0  0  0  0  0  0  0  0  0  0  0
    5.2378    1.1566   26.4697 O   0  0  0  0  0  0  0  0  0  0  0  0
    5.5223    2.2709   27.3194 C   0  0  0  0  0  0  0  0  0  0  0  0
    6.2113    2.9813   26.8518 H   0  0  0  0  0  0  0  0  0  0  0  0
    4.5474    2.7381   27.4606 H   0  0  0  0  0  0  0  0  0  0  0  0
    5.9260    1.9515   28.2848 H   0  0  0  0  0  0  0  0  0  0  0  0
    7.4669    0.5268   26.3890 O   0  0  0  0  0  0  0  0  0  0  0  0
    8.1667   -0.5105   25.7929 C   0  0  0  0  0  0  0  0  0  0  0  0
    9.3408   -0.6945   25.9145 O   0  0  0  0  0  0  0  0  0  0  0  0
    6.8888   -1.5515   21.8973 C   0  0  0  0  0  0  0  0  0  0  0  0
    5.8295   -2.1054   21.8164 O   0  0  0  0  0  0  0  0  0  0  0  0
    5.4807    0.6163   20.1742 C   0  0  0  0  0  0  0  0  0  0  0  0
    5.0576    0.5678   21.1772 H   0  0  0  0  0  0  0  0  0  0  0  0
    4.8245    1.2836   19.1294 C   0  0  0  0  0  0  0  0  0  0  0  0
    3.8915    1.8204   19.2870 H   0  0  0  0  0  0  0  0  0  0  0  0
  1  2  1  0
  2  3  2  0
  3  4  1  0
  4  5  1  0
  4  6  2  0
  6  7  1  0
  7  8  1  0
  8  9  2  0
  8 10  1  0
 10 11  2  0
 10 12  1  0
 12 13  1  0
 13 14  1  0
 13 15  1  0
 13 16  1  0
 16 17  1  0
 17 18  2  0
 18 19  1  0
 19 20  1  0
 20 21  1  0
 20 22  1  0
 20 23  1  0
 18 24  1  0
 24 25  1  0
 25 26  2  0
 12 27  1  0
 27 28  2  0
  6 29  1  0
 29 30  1  0
 29 31  2  0
 31 32  1  0
 31  2  1  0
 27  7  1  0
 25 16  1  0
M  END
>  <cnnaffinity>  (1) 
5.00749

>  <plip>  (1) 
-0.07142857142857142

>  <filename>  (1) 
[H][c]1[n][c]([H])[c]([N]2[C](=[O])[C](=[O])[N]([C]([H])([H])[n]3[n][c]([O][C]([H])([H])[H])[o][c]3=[O])[C]2=[O])[c]([H])[c]1[H]

>  <combo1>  (1) 
-0.3734762771422514

$$$$
