
     RDKit          3D

 45 46  0  0  0  0  0  0  0  0999 V2000
    9.0470    2.2392   24.5938 C   0  0  0  0  0  0  0  0  0  0  0  0
    9.3775    1.4309   23.3404 C   0  0  0  0  0  0  0  0  0  0  0  0
    8.1493    0.7337   22.7447 C   0  0  0  0  0  0  0  0  0  0  0  0
    8.4975   -0.1050   21.5141 C   0  0  0  0  0  0  0  0  0  0  0  0
    7.3253   -0.7637   20.9172 N   0  0  0  0  0  0  0  0  0  0  0  0
    6.6589   -1.8357   21.5434 C   0  0  0  0  0  0  0  0  0  0  0  0
    5.5403   -2.1803   21.2269 O   0  0  0  0  0  0  0  0  0  0  0  0
    7.4633   -2.6055   22.5433 C   0  0  0  0  0  0  0  0  0  0  0  0
    8.7274   -3.0998   22.2122 C   0  0  0  0  0  0  0  0  0  0  0  0
    9.4998   -3.7479   23.1735 C   0  0  0  0  0  0  0  0  0  0  0  0
    8.9496   -4.0626   24.4184 C   0  0  0  0  0  0  0  0  0  0  0  0
    9.6365   -4.6828   25.4151 O   0  0  0  0  0  0  0  0  0  0  0  0
   10.5622   -5.6916   25.0669 C   0  0  0  0  0  0  0  0  0  0  0  0
   11.4021   -5.2993   24.4768 H   0  0  0  0  0  0  0  0  0  0  0  0
   10.9603   -6.0811   26.0038 H   0  0  0  0  0  0  0  0  0  0  0  0
   10.0736   -6.5130   24.5216 H   0  0  0  0  0  0  0  0  0  0  0  0
    7.6586   -3.6587   24.7377 C   0  0  0  0  0  0  0  0  0  0  0  0
    6.9515   -2.8620   23.8366 C   0  0  0  0  0  0  0  0  0  0  0  0
    5.7733   -2.2972   24.1557 O   0  0  0  0  0  0  0  0  0  0  0  0
    5.3107   -2.3604   25.4885 C   0  0  0  0  0  0  0  0  0  0  0  0
    6.0637   -1.9931   26.2018 H   0  0  0  0  0  0  0  0  0  0  0  0
    4.4378   -1.7115   25.5251 H   0  0  0  0  0  0  0  0  0  0  0  0
    5.0233   -3.3848   25.7603 H   0  0  0  0  0  0  0  0  0  0  0  0
    7.2458   -3.9548   25.6940 H   0  0  0  0  0  0  0  0  0  0  0  0
   10.5475   -3.9039   23.0200 H   0  0  0  0  0  0  0  0  0  0  0  0
    9.1579   -2.9304   21.2224 H   0  0  0  0  0  0  0  0  0  0  0  0
    6.6422   -0.0418   19.8742 C   0  0  0  0  0  0  0  0  0  0  0  0
    5.4265    0.6094   20.1210 C   0  0  0  0  0  0  0  0  0  0  0  0
    4.8262    1.3184   19.0740 C   0  0  0  0  0  0  0  0  0  0  0  0
    5.4435    1.3336   17.8177 C   0  0  0  0  0  0  0  0  0  0  0  0
    6.6053    0.7092   17.5607 N   0  0  0  0  0  0  0  0  0  0  0  0
    7.1876    0.0566   18.5757 C   0  0  0  0  0  0  0  0  0  0  0  0
    8.1315   -0.4439   18.3616 H   0  0  0  0  0  0  0  0  0  0  0  0
    4.9906    1.8613   16.9808 H   0  0  0  0  0  0  0  0  0  0  0  0
    3.8916    1.8522   19.2164 H   0  0  0  0  0  0  0  0  0  0  0  0
    4.9645    0.5436   21.1066 H   0  0  0  0  0  0  0  0  0  0  0  0
    8.9671    0.5093   20.7352 H   0  0  0  0  0  0  0  0  0  0  0  0
    9.2402   -0.8557   21.8021 H   0  0  0  0  0  0  0  0  0  0  0  0
    7.6968    0.0780   23.5040 H   0  0  0  0  0  0  0  0  0  0  0  0
    7.3849    1.4769   22.4751 H   0  0  0  0  0  0  0  0  0  0  0  0
   10.1420    0.6780   23.5844 H   0  0  0  0  0  0  0  0  0  0  0  0
    9.8287    2.0938   22.5866 H   0  0  0  0  0  0  0  0  0  0  0  0
    8.6194    1.6016   25.3767 H   0  0  0  0  0  0  0  0  0  0  0  0
    8.3159    3.0264   24.3754 H   0  0  0  0  0  0  0  0  0  0  0  0
    9.9386    2.7193   25.0097 H   0  0  0  0  0  0  0  0  0  0  0  0
  1  2  1  0
  2  3  1  0
  3  4  1  0
  4  5  1  0
  5  6  1  0
  6  7  2  0
  6  8  1  0
  8  9  2  0
  9 10  1  0
 10 11  2  0
 11 12  1  0
 12 13  1  0
 13 14  1  0
 13 15  1  0
 13 16  1  0
 11 17  1  0
 17 18  2  0
 18 19  1  0
 19 20  1  0
 20 21  1  0
 20 22  1  0
 20 23  1  0
 17 24  1  0
 10 25  1  0
  9 26  1  0
  5 27  1  0
 27 28  2  0
 28 29  1  0
 29 30  2  0
 30 31  1  0
 31 32  2  0
 32 33  1  0
 30 34  1  0
 29 35  1  0
 28 36  1  0
  4 37  1  0
  4 38  1  0
  3 39  1  0
  3 40  1  0
  2 41  1  0
  2 42  1  0
  1 43  1  0
  1 44  1  0
  1 45  1  0
 18  8  1  0
 32 27  1  0
M  END
>  <cnnaffinity>  (1) 
5.34954

>  <plip>  (1) 
-0.07142857142857142

>  <filename>  (1) 
[H][c]1[n][c]([H])[c]([N]([C](=[O])[c]2[c]([H])[c]([H])[c]([O][C]([H])([H])[H])[c]([H])[c]2[O][C]([H])([H])[H])[C]([H])([H])[C]([H])([H])[C]([H])([H])[C]([H])([H])[H])[c]([H])[c]1[H]

>  <combo1>  (1) 
-0.4051401943476948

$$$$
