
     RDKit          3D

 40 42  0  0  0  0  0  0  0  0999 V2000
    4.9746    1.8215   16.9622 H   0  0  0  0  0  0  0  0  0  0  0  0
    5.4241    1.3195   17.8161 C   0  0  0  0  0  0  0  0  0  0  0  0
    6.6004    0.7116   17.5980 N   0  0  0  0  0  0  0  0  0  0  0  0
    7.1694    0.0855   18.6372 C   0  0  0  0  0  0  0  0  0  0  0  0
    8.1389   -0.3742   18.4362 H   0  0  0  0  0  0  0  0  0  0  0  0
    6.5935   -0.0031   19.9133 C   0  0  0  0  0  0  0  0  0  0  0  0
    7.3471   -0.7230   20.9948 C   0  0  0  0  0  0  0  0  0  0  0  0
    7.8579   -1.5895   20.5451 H   0  0  0  0  0  0  0  0  0  0  0  0
    6.6606   -1.1312   21.7611 H   0  0  0  0  0  0  0  0  0  0  0  0
    8.3456    0.1793   21.5483 N   0  0  0  0  0  0  0  0  0  0  0  0
    7.8815    0.9895   21.9466 H   0  0  0  0  0  0  0  0  0  0  0  0
    9.2732   -0.4052   22.5032 C   0  0  1  0  0  0  0  0  0  0  0  0
    8.8420   -1.2831   23.0330 H   0  0  0  0  0  0  0  0  0  0  0  0
   10.4701   -0.9247   21.6897 C   0  0  0  0  0  0  0  0  0  0  0  0
   10.1276   -1.7328   21.0389 H   0  0  0  0  0  0  0  0  0  0  0  0
   10.8212   -0.1189   21.0329 H   0  0  0  0  0  0  0  0  0  0  0  0
   11.5868   -1.3958   22.6020 C   0  0  0  0  0  0  0  0  0  0  0  0
   11.2111   -2.2305   23.2170 H   0  0  0  0  0  0  0  0  0  0  0  0
   12.4541   -1.7929   22.0592 H   0  0  0  0  0  0  0  0  0  0  0  0
   11.9929   -0.3193   23.5105 N   0  0  0  0  0  0  0  0  0  0  0  0
   12.2239    0.4918   22.9344 H   0  0  0  0  0  0  0  0  0  0  0  0
   10.8770    0.0584   24.3806 C   0  0  0  0  0  0  0  0  0  0  0  0
   11.2287    0.7678   25.1347 H   0  0  0  0  0  0  0  0  0  0  0  0
   10.5457   -0.8431   24.9236 H   0  0  0  0  0  0  0  0  0  0  0  0
    9.6827    0.6318   23.5871 C   0  0  2  0  0  0  0  0  0  0  0  0
   10.0491    1.4986   23.0156 H   0  0  0  0  0  0  0  0  0  0  0  0
    8.5323    1.1014   24.4832 C   0  0  0  0  0  0  0  0  0  0  0  0
    8.2386    2.4714   24.6250 C   0  0  0  0  0  0  0  0  0  0  0  0
    8.8476    3.2064   24.0950 H   0  0  0  0  0  0  0  0  0  0  0  0
    7.2567    2.9645   25.3891 N   0  0  0  0  0  0  0  0  0  0  0  0
    6.5013    2.0896   26.0621 C   0  0  0  0  0  0  0  0  0  0  0  0
    5.7100    2.5062   26.6793 H   0  0  0  0  0  0  0  0  0  0  0  0
    6.6926    0.7066   26.0087 C   0  0  0  0  0  0  0  0  0  0  0  0
    6.0540    0.0482   26.5883 H   0  0  0  0  0  0  0  0  0  0  0  0
    7.7243    0.2120   25.2113 C   0  0  0  0  0  0  0  0  0  0  0  0
    7.9094   -0.8611   25.1699 H   0  0  0  0  0  0  0  0  0  0  0  0
    5.3751    0.6553   20.1243 C   0  0  0  0  0  0  0  0  0  0  0  0
    4.9120    0.6696   21.1130 H   0  0  0  0  0  0  0  0  0  0  0  0
    4.7765    1.3268   19.0557 C   0  0  0  0  0  0  0  0  0  0  0  0
    3.8367    1.8580   19.1712 H   0  0  0  0  0  0  0  0  0  0  0  0
  1  2  1  0
  2  3  2  0
  3  4  1  0
  4  5  1  0
  4  6  2  0
  6  7  1  0
  7  8  1  0
  7  9  1  0
  7 10  1  0
 10 11  1  0
 10 12  1  0
 12 13  1  1
 12 14  1  0
 14 15  1  0
 14 16  1  0
 14 17  1  0
 17 18  1  0
 17 19  1  0
 17 20  1  0
 20 21  1  0
 20 22  1  0
 22 23  1  0
 22 24  1  0
 22 25  1  0
 25 26  1  6
 25 27  1  0
 27 28  2  0
 28 29  1  0
 28 30  1  0
 30 31  2  0
 31 32  1  0
 31 33  1  0
 33 34  1  0
 33 35  2  0
 35 36  1  0
  6 37  1  0
 37 38  1  0
 37 39  2  0
 39 40  1  0
 39  2  1  0
 25 12  1  0
 35 27  1  0
M  END
>  <cnnaffinity>  (1) 
4.52024

>  <plip>  (1) 
-0.03571428571428571

>  <filename>  (1) 
[H][c]1[n][c]([H])[c]([C]([H])([H])[N]([H])[C@@]2([H])[C]([H])([H])[C]([H])([H])[N]([H])[C]([H])([H])[C@]2([H])[c]2[c]([H])[n][c]([H])[c]([H])[c]2[H])[c]([H])[c]1[H]

>  <combo1>  (1) 
-0.20052011802022982

$$$$
