
     RDKit          3D

 30 31  0  0  0  0  0  0  0  0999 V2000
    8.8109    3.5079   21.5313 H   0  0  0  0  0  0  0  0  0  0  0  0
    9.2768    2.6096   21.7016 N   0  0  0  0  0  0  0  0  0  0  0  0
    8.4540    1.6602   21.5380 N   0  0  0  0  0  4  0  0  0  0  0  0
    8.8892    0.4614   21.5236 N   0  0  0  0  0  0  0  0  0  0  0  0
    7.8574   -0.5986   21.3419 C   0  0  0  0  0  0  0  0  0  0  0  0
    6.8782   -0.2191   20.2140 C   0  0  0  0  0  0  0  0  0  0  0  0
    7.3658   -0.0671   18.9033 C   0  0  0  0  0  0  0  0  0  0  0  0
    8.3786   -0.3945   18.6648 H   0  0  0  0  0  0  0  0  0  0  0  0
    6.7070    0.5480   17.9139 N   0  0  0  0  0  0  0  0  0  0  0  0
    5.4916    1.0410   18.1963 C   0  0  0  0  0  0  0  0  0  0  0  0
    4.9772    1.5575   17.3893 H   0  0  0  0  0  0  0  0  0  0  0  0
    4.8843    0.9093   19.4508 C   0  0  0  0  0  0  0  0  0  0  0  0
    3.9029    1.3358   19.6325 H   0  0  0  0  0  0  0  0  0  0  0  0
    5.5808    0.2525   20.4632 C   0  0  0  0  0  0  0  0  0  0  0  0
    5.1439    0.1600   21.4603 H   0  0  0  0  0  0  0  0  0  0  0  0
    8.6703   -1.8910   21.0281 C   0  0  0  0  0  0  0  0  0  0  0  0
    9.5212   -1.9126   21.7202 H   0  0  0  0  0  0  0  0  0  0  0  0
    9.1086   -1.7952   20.0304 H   0  0  0  0  0  0  0  0  0  0  0  0
    7.8828   -3.2116   21.1761 C   0  0  0  0  0  0  0  0  0  0  0  0
    8.5406   -4.0698   20.9856 H   0  0  0  0  0  0  0  0  0  0  0  0
    7.0803   -3.2468   20.4229 H   0  0  0  0  0  0  0  0  0  0  0  0
    7.2361   -3.3315   22.5566 C   0  0  0  0  0  0  0  0  0  0  0  0
    6.6646   -4.2673   22.6429 H   0  0  0  0  0  0  0  0  0  0  0  0
    8.0221   -3.3525   23.3300 H   0  0  0  0  0  0  0  0  0  0  0  0
    6.3338   -2.1172   22.7829 C   0  0  0  0  0  0  0  0  0  0  0  0
    5.8004   -2.1925   23.7398 H   0  0  0  0  0  0  0  0  0  0  0  0
    5.5693   -2.0991   21.9854 H   0  0  0  0  0  0  0  0  0  0  0  0
    7.1597   -0.8192   22.7195 C   0  0  0  0  0  0  0  0  0  0  0  0
    6.5607    0.0617   22.9764 H   0  0  0  0  0  0  0  0  0  0  0  0
    7.9605   -0.8466   23.4681 H   0  0  0  0  0  0  0  0  0  0  0  0
  1  2  1  0
  2  3  2  0
  3  4  2  0
  4  5  1  0
  5  6  1  0
  6  7  2  0
  7  8  1  0
  7  9  1  0
  9 10  2  0
 10 11  1  0
 10 12  1  0
 12 13  1  0
 12 14  2  0
 14 15  1  0
  5 16  1  0
 16 17  1  0
 16 18  1  0
 16 19  1  0
 19 20  1  0
 19 21  1  0
 19 22  1  0
 22 23  1  0
 22 24  1  0
 22 25  1  0
 25 26  1  0
 25 27  1  0
 25 28  1  0
 28 29  1  0
 28 30  1  0
 28  5  1  0
 14  6  1  0
M  CHG  1   3   1
M  END
>  <cnnaffinity>  (1) 
3.73278

>  <plip>  (1) 
-0.07142857142857142

>  <filename>  (1) 
[H][N]=[N+]=[N][C]1([c]2[c]([H])[n][c]([H])[c]([H])[c]2[H])[C]([H])([H])[C]([H])([H])[C]([H])([H])[C]([H])([H])[C]1([H])[H]

>  <combo1>  (1) 
-0.4372320141571723

$$$$
