
     RDKit          3D

 46 48  0  0  0  0  0  0  0  0999 V2000
    4.4329   -3.8208   23.5564 O   0  0  0  0  0  0  0  0  0  0  0  0
    4.7219   -4.6155   24.4368 C   0  0  0  0  0  0  0  0  0  0  0  0
    6.0239   -4.8154   24.8081 N   0  0  0  0  0  0  0  0  0  0  0  0
    7.1081   -4.0045   24.2709 C   0  0  0  0  0  0  0  0  0  0  0  0
    7.1299   -2.5883   24.8477 C   0  0  0  0  0  0  0  0  0  0  0  0
    8.2745   -1.7246   24.2825 C   0  0  0  0  0  0  0  0  0  0  0  0
    8.1043   -1.4174   22.8273 C   0  0  0  0  0  0  0  0  0  0  0  0
    7.1943   -0.5614   22.2754 C   0  0  0  0  0  0  0  0  0  0  0  0
    7.3613   -0.6820   20.9340 N   0  0  0  0  0  0  0  0  0  0  0  0
    6.6635    0.0027   19.9005 C   0  0  0  0  0  0  0  0  0  0  0  0
    5.4442    0.6458   20.1658 C   0  0  0  0  0  0  0  0  0  0  0  0
    4.8137    1.3041   19.1085 C   0  0  0  0  0  0  0  0  0  0  0  0
    5.4029    1.2906   17.8420 C   0  0  0  0  0  0  0  0  0  0  0  0
    6.5694    0.6753   17.5891 N   0  0  0  0  0  0  0  0  0  0  0  0
    7.1841    0.0545   18.5966 C   0  0  0  0  0  0  0  0  0  0  0  0
    8.1300   -0.4314   18.3709 H   0  0  0  0  0  0  0  0  0  0  0  0
    4.9208    1.7800   16.9991 H   0  0  0  0  0  0  0  0  0  0  0  0
    3.8827    1.8357   19.2651 H   0  0  0  0  0  0  0  0  0  0  0  0
    4.9939    0.6294   21.1593 H   0  0  0  0  0  0  0  0  0  0  0  0
    8.3375   -1.5763   20.6818 N   0  0  0  0  0  0  0  0  0  0  0  0
    8.7830   -2.0244   21.8127 N   0  0  0  0  0  0  0  0  0  0  0  0
    6.4651    0.0905   22.7311 H   0  0  0  0  0  0  0  0  0  0  0  0
    9.2447   -2.2078   24.4409 H   0  0  0  0  0  0  0  0  0  0  0  0
    8.3068   -0.7762   24.8348 H   0  0  0  0  0  0  0  0  0  0  0  0
    7.2167   -2.6460   25.9383 H   0  0  0  0  0  0  0  0  0  0  0  0
    6.1634   -2.1151   24.6319 H   0  0  0  0  0  0  0  0  0  0  0  0
    7.0201   -3.9725   23.1801 H   0  0  0  0  0  0  0  0  0  0  0  0
    8.0559   -4.5042   24.4921 H   0  0  0  0  0  0  0  0  0  0  0  0
    6.2286   -5.5046   25.5065 H   0  0  0  0  0  0  0  0  0  0  0  0
    3.6493   -5.4421   25.1553 C   0  0  0  0  0  0  0  0  0  0  0  0
    3.7689   -6.9526   24.8589 C   0  0  0  0  0  0  0  0  0  0  0  0
    2.6629   -7.7588   25.5519 C   0  0  0  0  0  0  0  0  0  0  0  0
    2.6115   -7.4731   27.0586 C   0  0  0  0  0  0  0  0  0  0  0  0
    2.4621   -5.9734   27.3474 C   0  0  0  0  0  0  0  0  0  0  0  0
    3.5675   -5.1529   26.6699 C   0  0  0  0  0  0  0  0  0  0  0  0
    4.5330   -5.3992   27.1304 H   0  0  0  0  0  0  0  0  0  0  0  0
    3.4013   -4.0809   26.8429 H   0  0  0  0  0  0  0  0  0  0  0  0
    2.4735   -5.7886   28.4289 H   0  0  0  0  0  0  0  0  0  0  0  0
    1.4815   -5.6312   26.9870 H   0  0  0  0  0  0  0  0  0  0  0  0
    3.5407   -7.8336   27.5218 H   0  0  0  0  0  0  0  0  0  0  0  0
    1.7947   -8.0361   27.5269 H   0  0  0  0  0  0  0  0  0  0  0  0
    2.8142   -8.8302   25.3712 H   0  0  0  0  0  0  0  0  0  0  0  0
    1.6919   -7.5040   25.1036 H   0  0  0  0  0  0  0  0  0  0  0  0
    4.7479   -7.3032   25.2110 H   0  0  0  0  0  0  0  0  0  0  0  0
    3.7417   -7.1274   23.7746 H   0  0  0  0  0  0  0  0  0  0  0  0
    2.7108   -5.0987   24.7106 H   0  0  0  0  0  0  0  0  0  0  0  0
  1  2  2  0
  2  3  1  0
  3  4  1  0
  4  5  1  0
  5  6  1  0
  6  7  1  0
  7  8  2  0
  8  9  1  0
  9 10  1  0
 10 11  2  0
 11 12  1  0
 12 13  2  0
 13 14  1  0
 14 15  2  0
 15 16  1  0
 13 17  1  0
 12 18  1  0
 11 19  1  0
  9 20  1  0
 20 21  2  0
  8 22  1  0
  6 23  1  0
  6 24  1  0
  5 25  1  0
  5 26  1  0
  4 27  1  0
  4 28  1  0
  3 29  1  0
  2 30  1  0
 30 31  1  0
 31 32  1  0
 32 33  1  0
 33 34  1  0
 34 35  1  0
 35 36  1  0
 35 37  1  0
 34 38  1  0
 34 39  1  0
 33 40  1  0
 33 41  1  0
 32 42  1  0
 32 43  1  0
 31 44  1  0
 31 45  1  0
 30 46  1  0
 21  7  1  0
 35 30  1  0
 15 10  1  0
M  END
>  <cnnaffinity>  (1) 
5.65276

>  <plip>  (1) 
-0.06896551724137931

>  <filename>  (1) 
[H][c]1[n][c]([H])[c](-[n]2[n][n][c]([C]([H])([H])[C]([H])([H])[C]([H])([H])[N]([H])[C](=[O])[C]3([H])[C]([H])([H])[C]([H])([H])[C]([H])([H])[C]([H])([H])[C]3([H])[H])[c]2[H])[c]([H])[c]1[H]

>  <combo1>  (1) 
-0.4146344370610757

$$$$
