
     RDKit          3D

 27 29  0  0  0  0  0  0  0  0999 V2000
    4.9347    1.7888   17.0377 H   0  0  0  0  0  0  0  0  0  0  0  0
    5.4112    1.2693   17.8669 C   0  0  0  0  0  0  0  0  0  0  0  0
    6.5664    0.6450   17.5890 N   0  0  0  0  0  0  0  0  0  0  0  0
    7.2087    0.0363   18.5912 C   0  0  0  0  0  0  0  0  0  0  0  0
    8.1552   -0.4358   18.3452 H   0  0  0  0  0  0  0  0  0  0  0  0
    6.7164   -0.0148   19.9181 C   0  0  0  0  0  0  0  0  0  0  0  0
    7.4204   -0.6862   20.9934 N   0  0  0  0  0  0  0  0  0  0  0  0
    8.7986   -0.6441   21.1963 C   0  0  0  0  0  0  0  0  0  0  0  0
    9.5940   -0.0472   20.5224 O   0  0  0  0  0  0  0  0  0  0  0  0
    9.0570   -1.5408   22.4142 C   0  0  0  0  0  0  0  0  0  0  0  0
   10.1071   -1.8445   22.9290 O   0  0  0  0  0  0  0  0  0  0  0  0
    7.8151   -2.0009   22.8029 N   0  0  0  0  0  0  0  0  0  0  0  0
    7.5372   -2.8056   23.9228 C   0  0  0  0  0  0  0  0  0  0  0  0
    6.3646   -2.9773   24.6099 C   0  0  0  0  0  0  0  0  0  0  0  0
    5.4366   -2.4954   24.3384 H   0  0  0  0  0  0  0  0  0  0  0  0
    6.6420   -3.8897   25.6667 C   0  0  0  0  0  0  0  0  0  0  0  0
    5.9529   -4.2627   26.4226 H   0  0  0  0  0  0  0  0  0  0  0  0
    7.9734   -4.2285   25.5615 C   0  0  0  0  0  0  0  0  0  0  0  0
    8.5715   -4.8894   26.1722 H   0  0  0  0  0  0  0  0  0  0  0  0
    8.5103   -3.5650   24.4902 N   0  0  0  0  0  0  0  0  0  0  0  0
    9.4755   -3.4844   24.1986 H   0  0  0  0  0  0  0  0  0  0  0  0
    6.8618   -1.6498   21.8465 C   0  0  0  0  0  0  0  0  0  0  0  0
    5.7822   -2.1532   21.7267 O   0  0  0  0  0  0  0  0  0  0  0  0
    5.4904    0.6087   20.1803 C   0  0  0  0  0  0  0  0  0  0  0  0
    5.0663    0.5566   21.1802 H   0  0  0  0  0  0  0  0  0  0  0  0
    4.8316    1.2787   19.1385 C   0  0  0  0  0  0  0  0  0  0  0  0
    3.8980    1.8154   19.2959 H   0  0  0  0  0  0  0  0  0  0  0  0
  1  2  1  0
  2  3  2  0
  3  4  1  0
  4  5  1  0
  4  6  2  0
  6  7  1  0
  7  8  1  0
  8  9  2  0
  8 10  1  0
 10 11  2  0
 10 12  1  0
 12 13  1  0
 13 14  2  0
 14 15  1  0
 14 16  1  0
 16 17  1  0
 16 18  2  0
 18 19  1  0
 18 20  1  0
 20 21  1  0
 12 22  1  0
 22 23  2  0
  6 24  1  0
 24 25  1  0
 24 26  2  0
 26 27  1  0
 26  2  1  0
 22  7  1  0
 20 13  1  0
M  END
>  <cnnaffinity>  (1) 
4.60401

>  <plip>  (1) 
-0.07142857142857142

>  <filename>  (1) 
[H][c]1[n][c]([H])[c]([N]2[C](=[O])[C](=[O])[N]([c]3[c]([H])[c]([H])[c]([H])[n]3[H])[C]2=[O])[c]([H])[c]1[H]

>  <combo1>  (1) 
-0.42783099634411575

$$$$
