
     RDKit          3D

 32 34  0  0  0  0  0  0  0  0999 V2000
    4.9681    1.7759   16.9631 H   0  0  0  0  0  0  0  0  0  0  0  0
    5.4066    1.3052   17.8416 C   0  0  0  0  0  0  0  0  0  0  0  0
    6.5807    0.6820   17.6594 N   0  0  0  0  0  0  0  0  0  0  0  0
    7.1318    0.1021   18.7275 C   0  0  0  0  0  0  0  0  0  0  0  0
    8.0877   -0.3878   18.5446 H   0  0  0  0  0  0  0  0  0  0  0  0
    6.5698    0.1024   20.0148 C   0  0  0  0  0  0  0  0  0  0  0  0
    7.2763   -0.5968   21.1154 C   0  0  0  0  0  0  0  0  0  0  0  0
    7.2500   -0.1005   22.3047 N   0  0  0  0  0  0  0  0  0  0  0  0
    7.9837   -0.7259   23.3057 N   0  0  0  0  0  0  0  0  0  0  0  0
    7.8235   -0.1571   24.6427 C   0  0  2  0  0  0  0  0  0  0  0  0
    7.2913    0.7870   24.4803 H   0  0  0  0  0  0  0  0  0  0  0  0
    9.0940    0.0695   25.3184 N   0  0  0  0  0  0  0  0  0  0  0  0
    9.0512   -0.6728   26.3435 C   0  0  0  0  0  0  0  0  0  0  0  0
   10.0726   -0.8101   27.2127 N   0  0  0  0  0  0  0  0  0  0  0  0
   10.6223    0.0292   27.1189 H   0  0  0  0  0  0  0  0  0  0  0  0
    9.6811   -0.9484   28.1317 H   0  0  0  0  0  0  0  0  0  0  0  0
    7.9196   -1.2942   26.6943 O   0  0  0  0  0  0  0  0  0  0  0  0
    7.0280   -1.1196   25.5757 C   0  0  0  0  0  0  0  0  0  0  0  0
    6.0711   -0.7082   25.9136 H   0  0  0  0  0  0  0  0  0  0  0  0
    6.8496   -2.0953   25.1083 H   0  0  0  0  0  0  0  0  0  0  0  0
    8.8297   -1.8256   23.1913 C   0  0  0  0  0  0  0  0  0  0  0  0
    9.3170   -2.3930   24.1534 O   0  0  0  0  0  0  0  0  0  0  0  0
    9.1011   -2.2506   21.7685 C   0  0  0  0  0  0  0  0  0  0  0  0
   10.0361   -1.7668   21.4640 H   0  0  0  0  0  0  0  0  0  0  0  0
    9.3112   -3.3189   21.7971 H   0  0  0  0  0  0  0  0  0  0  0  0
    7.9600   -1.9055   20.8112 C   0  0  0  0  0  0  0  0  0  0  0  0
    7.1876   -2.6889   20.8078 H   0  0  0  0  0  0  0  0  0  0  0  0
    8.3614   -1.8276   19.8056 H   0  0  0  0  0  0  0  0  0  0  0  0
    5.3473    0.7669   20.1922 C   0  0  0  0  0  0  0  0  0  0  0  0
    4.8865    0.8064   21.1794 H   0  0  0  0  0  0  0  0  0  0  0  0
    4.7548    1.3631   19.0781 C   0  0  0  0  0  0  0  0  0  0  0  0
    3.8078    1.8834   19.1594 H   0  0  0  0  0  0  0  0  0  0  0  0
  1  2  1  0
  2  3  2  0
  3  4  1  0
  4  5  1  0
  4  6  2  0
  6  7  1  0
  7  8  2  0
  8  9  1  0
  9 10  1  0
 10 11  1  6
 10 12  1  0
 12 13  2  0
 13 14  1  0
 14 15  1  0
 14 16  1  0
 13 17  1  0
 17 18  1  0
 18 19  1  0
 18 20  1  0
  9 21  1  0
 21 22  2  0
 21 23  1  0
 23 24  1  0
 23 25  1  0
 23 26  1  0
 26 27  1  0
 26 28  1  0
  6 29  1  0
 29 30  1  0
 29 31  2  0
 31 32  1  0
 31  2  1  0
 26  7  1  0
 18 10  1  0
M  END
>  <cnnaffinity>  (1) 
4.71232

>  <plip>  (1) 
-0.034482758620689655

>  <filename>  (1) 
[H][c]1[n][c]([H])[c]([C]2=[N][N]([C@]3([H])[N]=[C]([N]([H])[H])[O][C]3([H])[H])[C](=[O])[C]([H])([H])[C]2([H])[H])[c]([H])[c]1[H]

>  <combo1>  (1) 
-0.20891274198284182

$$$$
