
     RDKit          3D

 42 44  0  0  0  0  0  0  0  0999 V2000
    8.6857   -0.4347   25.5184 C   0  0  0  0  0  0  0  0  0  0  0  0
    8.0976    0.1425   24.2313 C   0  0  0  0  0  0  0  0  0  0  0  0
    8.3639   -0.6994   22.9811 C   0  0  0  0  0  0  0  0  0  0  0  0
    7.6917   -0.0778   21.7762 N   0  0  0  0  0  4  0  0  0  0  0  0
    7.0167   -1.0528   20.8499 C   0  0  0  0  0  0  0  0  0  0  0  0
    6.3185   -0.2857   19.7649 C   0  0  0  0  0  0  0  0  0  0  0  0
    5.2125    0.5253   20.0352 C   0  0  0  0  0  0  0  0  0  0  0  0
    4.7292    1.3537   19.0178 C   0  0  0  0  0  0  0  0  0  0  0  0
    5.3710    1.3494   17.7758 C   0  0  0  0  0  0  0  0  0  0  0  0
    6.4442    0.5885   17.5119 N   0  0  0  0  0  0  0  0  0  0  0  0
    6.8966   -0.2010   18.4924 C   0  0  0  0  0  0  0  0  0  0  0  0
    7.7993   -0.7736   18.2704 H   0  0  0  0  0  0  0  0  0  0  0  0
    5.0161    1.9873   16.9647 H   0  0  0  0  0  0  0  0  0  0  0  0
    3.8955    2.0252   19.1824 H   0  0  0  0  0  0  0  0  0  0  0  0
    4.7588    0.5180   21.0300 H   0  0  0  0  0  0  0  0  0  0  0  0
    6.3056   -1.6639   21.4217 H   0  0  0  0  0  0  0  0  0  0  0  0
    7.7667   -1.7277   20.4187 H   0  0  0  0  0  0  0  0  0  0  0  0
    8.6367    0.9086   21.0373 C   0  0  0  0  0  0  0  0  0  0  0  0
    9.2453    1.9628   21.9026 C   0  0  0  0  0  0  0  0  0  0  0  0
    8.7359    3.1875   22.2311 C   0  0  0  0  0  0  0  0  0  0  0  0
    9.6352    3.8908   23.0014 N   0  0  0  0  0  0  0  0  0  0  0  0
   10.7486    3.1021   23.1984 C   0  0  0  0  0  0  0  0  0  0  0  0
   11.9490    3.2715   23.9167 C   0  0  0  0  0  0  0  0  0  0  0  0
   12.8983    2.3390   23.9249 N   0  0  0  0  0  0  0  0  0  0  0  0
   12.7044    1.1857   23.2439 C   0  0  0  0  0  0  0  0  0  0  0  0
   11.5489    0.9070   22.5342 C   0  0  0  0  0  0  0  0  0  0  0  0
   10.5426    1.8900   22.5050 C   0  0  0  0  0  0  0  0  0  0  0  0
   11.4401   -0.0305   21.9959 H   0  0  0  0  0  0  0  0  0  0  0  0
   13.5201    0.4641   23.2895 H   0  0  0  0  0  0  0  0  0  0  0  0
   12.1253    4.1754   24.5018 H   0  0  0  0  0  0  0  0  0  0  0  0
    9.4573    4.8033   23.3947 H   0  0  0  0  0  0  0  0  0  0  0  0
    7.7774    3.6299   21.9907 H   0  0  0  0  0  0  0  0  0  0  0  0
    8.0547    1.3900   20.2476 H   0  0  0  0  0  0  0  0  0  0  0  0
    9.4315    0.3204   20.5634 H   0  0  0  0  0  0  0  0  0  0  0  0
    6.9295    0.5361   22.1400 H   0  0  0  0  0  0  0  0  0  0  0  0
    9.4395   -0.7802   22.7841 H   0  0  0  0  0  0  0  0  0  0  0  0
    7.9910   -1.7242   23.1166 H   0  0  0  0  0  0  0  0  0  0  0  0
    8.4792    1.1553   24.0676 H   0  0  0  0  0  0  0  0  0  0  0  0
    7.0067    0.2385   24.3258 H   0  0  0  0  0  0  0  0  0  0  0  0
    8.3813    0.1592   26.3879 H   0  0  0  0  0  0  0  0  0  0  0  0
    9.7826   -0.4403   25.4990 H   0  0  0  0  0  0  0  0  0  0  0  0
    8.3484   -1.4625   25.6979 H   0  0  0  0  0  0  0  0  0  0  0  0
  1  2  1  0
  2  3  1  0
  3  4  1  0
  4  5  1  0
  5  6  1  0
  6  7  2  0
  7  8  1  0
  8  9  2  0
  9 10  1  0
 10 11  2  0
 11 12  1  0
  9 13  1  0
  8 14  1  0
  7 15  1  0
  5 16  1  0
  5 17  1  0
  4 18  1  0
 18 19  1  0
 19 20  2  0
 20 21  1  0
 21 22  1  0
 22 23  2  0
 23 24  1  0
 24 25  2  0
 25 26  1  0
 26 27  2  0
 26 28  1  0
 25 29  1  0
 23 30  1  0
 21 31  1  0
 20 32  1  0
 18 33  1  0
 18 34  1  0
  4 35  1  0
  3 36  1  0
  3 37  1  0
  2 38  1  0
  2 39  1  0
  1 40  1  0
  1 41  1  0
  1 42  1  0
 11  6  1  0
 27 19  1  0
 27 22  1  0
M  CHG  1   4   1
M  END
>  <cnnaffinity>  (1) 
5.25674

>  <plip>  (1) 
-0.07142857142857142

>  <filename>  (1) 
[H][c]1[n][c]([H])[c]([C]([H])([H])[N+]([H])([C]([H])([H])[c]2[c]([H])[n]([H])[c]3[c]([H])[n][c]([H])[c]([H])[c]23)[C]([H])([H])[C]([H])([H])[C]([H])([H])[H])[c]([H])[c]1[H]

>  <combo1>  (1) 
-0.44480468326258615

$$$$
