
     RDKit          3D

 33 35  0  0  0  0  0  0  0  0999 V2000
    4.9197    1.9478   16.8528 H   0  0  0  0  0  0  0  0  0  0  0  0
    5.3799    1.4098   17.6793 C   0  0  0  0  0  0  0  0  0  0  0  0
    6.5307    0.7770   17.3959 N   0  0  0  0  0  0  0  0  0  0  0  0
    7.1448    0.1247   18.3925 C   0  0  0  0  0  0  0  0  0  0  0  0
    8.0853   -0.3691   18.1519 H   0  0  0  0  0  0  0  0  0  0  0  0
    6.6297    0.0473   19.7053 C   0  0  0  0  0  0  0  0  0  0  0  0
    7.2929   -0.6823   20.7827 N   0  0  0  0  0  0  0  0  0  0  0  0
    6.6396   -1.7921   21.3850 C   0  0  0  0  0  0  0  0  0  0  0  0
    5.5984   -2.2272   20.9419 O   0  0  0  0  0  0  0  0  0  0  0  0
    7.2997   -2.4026   22.5272 C   0  0  0  0  0  0  0  0  0  0  0  0
    6.7664   -3.2516   22.9214 H   0  0  0  0  0  0  0  0  0  0  0  0
    8.4827   -1.9781   23.0065 C   0  0  0  0  0  0  0  0  0  0  0  0
    9.2484   -2.6820   24.1119 C   0  0  0  0  0  0  0  0  0  0  0  0
   10.4362   -3.1843   23.7428 N   0  0  0  0  0  0  0  0  0  0  0  0
   11.0196   -4.0744   24.5417 C   0  0  0  0  0  0  0  0  0  0  0  0
   11.9322   -4.5066   24.1579 H   0  0  0  0  0  0  0  0  0  0  0  0
   10.4993   -4.4684   25.7762 C   0  0  0  0  0  0  0  0  0  0  0  0
   11.0095   -5.2239   26.3604 H   0  0  0  0  0  0  0  0  0  0  0  0
    9.3429   -3.8525   26.2334 C   0  0  0  0  0  0  0  0  0  0  0  0
    8.9153   -4.0996   27.2067 H   0  0  0  0  0  0  0  0  0  0  0  0
    8.7340   -2.9049   25.4053 C   0  0  0  0  0  0  0  0  0  0  0  0
    7.5017   -2.1866   25.8632 C   0  0  0  0  0  0  0  0  0  0  0  0
    7.4548   -0.9164   25.4383 F   0  0  0  0  0  0  0  0  0  0  0  0
    7.3883   -2.1651   27.2028 F   0  0  0  0  0  0  0  0  0  0  0  0
    6.3991   -2.8061   25.3866 F   0  0  0  0  0  0  0  0  0  0  0  0
    9.0359   -0.8806   22.3599 N   0  0  0  0  0  0  0  0  0  0  0  0
    9.9646   -0.5206   22.5146 H   0  0  0  0  0  0  0  0  0  0  0  0
    8.5292   -0.2441   21.2476 C   0  0  0  0  0  0  0  0  0  0  0  0
    9.1826    0.6405   20.7357 O   0  0  0  0  0  0  0  0  0  0  0  0
    5.4172    0.6859   19.9733 C   0  0  0  0  0  0  0  0  0  0  0  0
    4.9845    0.6142   20.9698 H   0  0  0  0  0  0  0  0  0  0  0  0
    4.7866    1.3947   18.9438 C   0  0  0  0  0  0  0  0  0  0  0  0
    3.8557    1.9271   19.1089 H   0  0  0  0  0  0  0  0  0  0  0  0
  1  2  1  0
  2  3  2  0
  3  4  1  0
  4  5  1  0
  4  6  2  0
  6  7  1  0
  7  8  1  0
  8  9  2  0
  8 10  1  0
 10 11  1  0
 10 12  2  0
 12 13  1  0
 13 14  2  0
 14 15  1  0
 15 16  1  0
 15 17  2  0
 17 18  1  0
 17 19  1  0
 19 20  1  0
 19 21  2  0
 21 22  1  0
 22 23  1  0
 22 24  1  0
 22 25  1  0
 12 26  1  0
 26 27  1  0
 26 28  1  0
 28 29  2  0
  6 30  1  0
 30 31  1  0
 30 32  2  0
 32 33  1  0
 32  2  1  0
 28  7  1  0
 21 13  1  0
M  END
>  <cnnaffinity>  (1) 
5.76035

>  <plip>  (1) 
-0.10714285714285714

>  <filename>  (1) 
[H][c]1[n][c]([H])[c](-[n]2[c](=[O])[c]([H])[c](-[c]3[n][c]([H])[c]([H])[c]([H])[c]3[C]([F])([F])[F])[n]([H])[c]2=[O])[c]([H])[c]1[H]

>  <combo1>  (1) 
-0.6154748762607386

$$$$
