
     RDKit          3D

 46 48  0  0  0  0  0  0  0  0999 V2000
    6.3877   -5.0218   20.0536 Br  0  0  0  0  0  0  0  0  0  0  0  0
    5.8708   -4.9125   21.8884 C   0  0  0  0  0  0  0  0  0  0  0  0
    5.0497   -5.9139   22.4161 C   0  0  0  0  0  0  0  0  0  0  0  0
    4.6256   -5.8542   23.7470 C   0  0  0  0  0  0  0  0  0  0  0  0
    5.0435   -4.7987   24.5626 C   0  0  0  0  0  0  0  0  0  0  0  0
    5.8893   -3.8103   24.0473 C   0  0  0  0  0  0  0  0  0  0  0  0
    6.3076   -3.8565   22.7067 C   0  0  0  0  0  0  0  0  0  0  0  0
    7.2878   -2.8437   22.1903 C   0  0  0  0  0  0  0  0  0  0  0  0
    6.5613   -1.7600   21.5007 N   0  0  0  0  0  4  0  0  0  0  0  0
    7.4260   -0.7069   20.9650 C   0  0  0  0  0  0  0  0  0  0  0  0
    7.8346    0.2855   22.0625 C   0  0  0  0  0  0  0  0  0  0  0  0
    8.8022    1.3496   21.6579 N   0  0  0  0  0  4  0  0  0  0  0  0
    9.1157    2.2263   22.7976 C   0  0  0  0  0  0  0  0  0  0  0  0
   10.5274    2.7344   22.5308 C   0  0  0  0  0  0  0  0  0  0  0  0
   11.0731    1.8968   21.3800 C   0  0  0  0  0  0  0  0  0  0  0  0
   10.0677    0.7835   21.1777 C   0  0  0  0  0  0  0  0  0  0  0  0
   10.3561   -0.0892   21.7714 H   0  0  0  0  0  0  0  0  0  0  0  0
    9.9991    0.4719   20.1300 H   0  0  0  0  0  0  0  0  0  0  0  0
   11.1393    2.5075   20.4763 H   0  0  0  0  0  0  0  0  0  0  0  0
   12.0662    1.4959   21.6014 H   0  0  0  0  0  0  0  0  0  0  0  0
   11.1301    2.6071   23.4366 H   0  0  0  0  0  0  0  0  0  0  0  0
   10.5329    3.7896   22.2430 H   0  0  0  0  0  0  0  0  0  0  0  0
    8.3925    3.0496   22.8875 H   0  0  0  0  0  0  0  0  0  0  0  0
    9.0986    1.6516   23.7326 H   0  0  0  0  0  0  0  0  0  0  0  0
    8.3964    1.9275   20.9122 H   0  0  0  0  0  0  0  0  0  0  0  0
    6.9164    0.7330   22.4484 H   0  0  0  0  0  0  0  0  0  0  0  0
    8.2668   -0.3072   22.8726 H   0  0  0  0  0  0  0  0  0  0  0  0
    6.6002   -0.0482   19.9165 C   0  0  0  0  0  0  0  0  0  0  0  0
    5.3948    0.6229   20.1719 C   0  0  0  0  0  0  0  0  0  0  0  0
    4.7970    1.2914   19.1037 C   0  0  0  0  0  0  0  0  0  0  0  0
    5.4035    1.2684   17.8420 C   0  0  0  0  0  0  0  0  0  0  0  0
    6.5441    0.5944   17.6040 N   0  0  0  0  0  0  0  0  0  0  0  0
    7.1269   -0.0476   18.6254 C   0  0  0  0  0  0  0  0  0  0  0  0
    8.0713   -0.5569   18.4475 H   0  0  0  0  0  0  0  0  0  0  0  0
    4.9474    1.8391   17.0361 H   0  0  0  0  0  0  0  0  0  0  0  0
    3.8788    1.8529   19.2405 H   0  0  0  0  0  0  0  0  0  0  0  0
    4.9497    0.6450   21.1688 H   0  0  0  0  0  0  0  0  0  0  0  0
    8.3390   -1.1252   20.5150 H   0  0  0  0  0  0  0  0  0  0  0  0
    6.0319   -2.1531   20.7234 H   0  0  0  0  0  0  0  0  0  0  0  0
    5.8962   -1.3352   22.1515 H   0  0  0  0  0  0  0  0  0  0  0  0
    7.9844   -3.3449   21.5062 H   0  0  0  0  0  0  0  0  0  0  0  0
    7.8800   -2.4577   23.0303 H   0  0  0  0  0  0  0  0  0  0  0  0
    6.2329   -3.0145   24.7020 H   0  0  0  0  0  0  0  0  0  0  0  0
    4.7262   -4.7555   25.6016 H   0  0  0  0  0  0  0  0  0  0  0  0
    3.9855   -6.6344   24.1493 H   0  0  0  0  0  0  0  0  0  0  0  0
    4.7546   -6.7479   21.7858 H   0  0  0  0  0  0  0  0  0  0  0  0
  1  2  1  0
  2  3  2  0
  3  4  1  0
  4  5  2  0
  5  6  1  0
  6  7  2  0
  7  8  1  0
  8  9  1  0
  9 10  1  0
 10 11  1  0
 11 12  1  0
 12 13  1  0
 13 14  1  0
 14 15  1  0
 15 16  1  0
 16 17  1  0
 16 18  1  0
 15 19  1  0
 15 20  1  0
 14 21  1  0
 14 22  1  0
 13 23  1  0
 13 24  1  0
 12 25  1  0
 11 26  1  0
 11 27  1  0
 10 28  1  0
 28 29  2  0
 29 30  1  0
 30 31  2  0
 31 32  1  0
 32 33  2  0
 33 34  1  0
 31 35  1  0
 30 36  1  0
 29 37  1  0
 10 38  1  0
  9 39  1  0
  9 40  1  0
  8 41  1  0
  8 42  1  0
  6 43  1  0
  5 44  1  0
  4 45  1  0
  3 46  1  0
  7  2  1  0
 16 12  1  0
 33 28  1  0
M  CHG  2   9   1  12   1
M  END
>  <cnnaffinity>  (1) 
4.43775

>  <plip>  (1) 
-0.17857142857142858

>  <filename>  (1) 
[H][c]1[n][c]([H])[c]([C]([H])([C]([H])([H])[N+]2([H])[C]([H])([H])[C]([H])([H])[C]([H])([H])[C]2([H])[H])[N+]([H])([H])[C]([H])([H])[c]2[c]([H])[c]([H])[c]([H])[c]([H])[c]2[Br])[c]([H])[c]1[H]

>  <combo1>  (1) 
-0.7290666566779901

$$$$
