
     RDKit          3D

 29 31  0  0  0  0  0  0  0  0999 V2000
    8.2337   -3.3226   28.6224 H   0  0  0  0  0  0  0  0  0  0  0  0
    7.7511   -2.5740   27.2635 O   0  0  0  0  0  0  0  0  0  0  0  0
    7.7511   -2.5738   27.2638 C   0  0  0  0  0  0  0  0  0  0  0  0
    6.7196   -1.8297   26.4528 C   0  0  0  0  0  0  0  0  0  0  0  0
    5.8650   -1.4588   27.0501 H   0  0  0  0  0  0  0  0  0  0  0  0
    6.7839   -1.4761   25.1088 C   0  0  0  0  0  0  0  0  0  0  0  0
    5.9702   -0.8674   24.6286 H   0  0  0  0  0  0  0  0  0  0  0  0
    7.8458   -1.8858   24.3186 C   0  0  0  0  0  0  0  0  0  0  0  0
    7.9209   -1.5373   22.8776 C   0  0  0  0  0  0  0  0  0  0  0  0
    6.9453   -0.7810   22.1979 N   0  0  0  0  0  0  0  0  0  0  0  0
    7.3236   -0.6781   21.0052 C   0  0  0  0  0  0  0  0  0  0  0  0
    6.6653    0.0055   19.9062 C   0  0  0  0  0  0  0  0  0  0  0  0
    7.1872    0.0507   18.6068 C   0  0  0  0  0  0  0  0  0  0  0  0
    8.1304   -0.4335   18.3774 H   0  0  0  0  0  0  0  0  0  0  0  0
    6.5702    0.6733   17.5963 N   0  0  0  0  0  0  0  0  0  0  0  0
    5.4036    1.2868   17.8472 C   0  0  0  0  0  0  0  0  0  0  0  0
    4.9228    1.7727   17.0033 H   0  0  0  0  0  0  0  0  0  0  0  0
    4.8028    1.3143   19.1044 C   0  0  0  0  0  0  0  0  0  0  0  0
    3.8787    1.8411   19.2581 H   0  0  0  0  0  0  0  0  0  0  0  0
    5.4307    0.6586   20.1547 C   0  0  0  0  0  0  0  0  0  0  0  0
    5.0074    0.6305   21.1686 H   0  0  0  0  0  0  0  0  0  0  0  0
    8.5206   -1.3128   20.7520 O   0  0  0  0  0  0  0  0  0  0  0  0
    8.8621   -1.8430   21.9702 C   0  0  0  0  0  0  0  0  0  0  0  0
    9.7847   -2.3986   22.0243 H   0  0  0  0  0  0  0  0  0  0  0  0
    8.9053   -2.6722   24.9351 C   0  0  0  0  0  0  0  0  0  0  0  0
    9.7277   -2.9933   24.3028 H   0  0  0  0  0  0  0  0  0  0  0  0
    8.8385   -3.0109   26.2708 C   0  0  0  0  0  0  0  0  0  0  0  0
    9.9349   -3.8435   26.7889 O   0  0  0  0  0  0  0  0  0  0  0  0
   10.6091   -4.0080   26.1259 H   0  0  0  0  0  0  0  0  0  0  0  0
  1  2  1  0
  2  3  1  0
  3  4  2  0
  4  5  1  0
  4  6  1  0
  6  7  1  0
  6  8  2  0
  8  9  1  0
  9 10  1  0
 10 11  2  0
 11 12  1  0
 12 13  2  0
 13 14  1  0
 13 15  1  0
 15 16  2  0
 16 17  1  0
 16 18  1  0
 18 19  1  0
 18 20  2  0
 20 21  1  0
 11 22  1  0
 22 23  1  0
 23 24  1  0
  8 25  1  0
 25 26  1  0
 25 27  2  0
 27 28  1  0
 28 29  1  0
 27  3  1  0
 23  9  2  0
 20 12  1  0
M  END
>  <cnnaffinity>  (1) 
4.97326

>  <plip>  (1) 
-0.034482758620689655

>  <filename>  (1) 
[H][O][c]1[c]([H])[c]([H])[c](-[c]2[n][c](-[c]3[c]([H])[n][c]([H])[c]([H])[c]3[H])[o][c]2[H])[c]([H])[c]1[O][H]

>  <combo1>  (1) 
-0.22483788489833428

$$$$
