
     RDKit          3D

 23 24  0  0  0  0  0  0  0  0999 V2000
    4.9317    1.7877   16.9840 H   0  0  0  0  0  0  0  0  0  0  0  0
    5.4009    1.2882   17.8293 C   0  0  0  0  0  0  0  0  0  0  0  0
    6.5569    0.6575   17.5786 N   0  0  0  0  0  0  0  0  0  0  0  0
    7.1578    0.0472   18.6083 C   0  0  0  0  0  0  0  0  0  0  0  0
    8.1121   -0.4197   18.3682 H   0  0  0  0  0  0  0  0  0  0  0  0
    6.6484    0.0129   19.9084 C   0  0  0  0  0  0  0  0  0  0  0  0
    7.3916   -0.7368   20.9980 C   0  0  2  0  0  0  0  0  0  0  0  0
    8.4160   -0.9464   20.6764 H   0  0  0  0  0  0  0  0  0  0  0  0
    6.7142   -2.0074   21.3167 N   0  0  0  0  0  0  0  0  0  0  0  0
    5.7334   -1.7710   21.4577 H   0  0  0  0  0  0  0  0  0  0  0  0
    6.7260   -2.5723   20.4728 H   0  0  0  0  0  0  0  0  0  0  0  0
    7.5679    0.0941   22.2134 N   0  0  0  0  0  0  0  0  0  0  0  0
    8.5269    1.0512   22.2489 N   0  0  0  0  0  0  0  0  0  0  0  0
    8.3523    1.6804   23.3970 C   0  0  0  0  0  0  0  0  0  0  0  0
    9.0259    2.4921   23.6617 H   0  0  0  0  0  0  0  0  0  0  0  0
    7.2621    1.1462   24.1249 C   0  0  0  0  0  0  0  0  0  0  0  0
    6.9064    1.4317   25.1064 H   0  0  0  0  0  0  0  0  0  0  0  0
    6.7874    0.1389   23.3244 C   0  0  0  0  0  0  0  0  0  0  0  0
    5.9852   -0.5689   23.4596 H   0  0  0  0  0  0  0  0  0  0  0  0
    5.4293    0.6583   20.1532 C   0  0  0  0  0  0  0  0  0  0  0  0
    5.0015    0.6568   21.1610 H   0  0  0  0  0  0  0  0  0  0  0  0
    4.8046    1.3126   19.0949 C   0  0  0  0  0  0  0  0  0  0  0  0
    3.8744    1.8434   19.2463 H   0  0  0  0  0  0  0  0  0  0  0  0
  1  2  1  0
  2  3  2  0
  3  4  1  0
  4  5  1  0
  4  6  2  0
  6  7  1  0
  7  8  1  6
  7  9  1  0
  9 10  1  0
  9 11  1  0
  7 12  1  0
 12 13  1  0
 13 14  2  0
 14 15  1  0
 14 16  1  0
 16 17  1  0
 16 18  2  0
 18 19  1  0
  6 20  1  0
 20 21  1  0
 20 22  2  0
 22 23  1  0
 22  2  1  0
 18 12  1  0
M  END
>  <cnnaffinity>  (1) 
4.04156

>  <plip>  (1) 
-0.07142857142857142

>  <filename>  (1) 
[H][c]1[n][c]([H])[c]([C@]([H])([N]([H])[H])[n]2[n][c]([H])[c]([H])[c]2[H])[c]([H])[c]1[H]

>  <combo1>  (1) 
-0.5523751574139903

$$$$
