
     RDKit          3D

 34 36  0  0  0  0  0  0  0  0999 V2000
    9.4318    1.1987   20.8561 O   0  0  0  0  0  0  0  0  0  0  0  0
    8.6788    1.1396   21.8131 C   0  0  0  0  0  0  0  0  0  0  0  0
    7.7896    0.1036   22.0161 N   0  0  0  0  0  0  0  0  0  0  0  0
    7.4675   -0.8408   20.9326 C   0  0  0  0  0  0  0  0  0  0  0  0
    6.6933   -2.5061   21.3663 C   0  0  0  0  0  0  0  0  0  0  0  0
    5.4698   -2.5523   21.3320 O   0  0  0  0  0  0  0  0  0  0  0  0
    7.5874   -3.3204   21.5463 O   0  0  0  0  0  1  0  0  0  0  0  0
    6.7050   -0.1254   19.8440 C   0  0  0  0  0  0  0  0  0  0  0  0
    5.4356    0.4237   20.0707 C   0  0  0  0  0  0  0  0  0  0  0  0
    4.8294    1.1565   19.0464 C   0  0  0  0  0  0  0  0  0  0  0  0
    5.4958    1.3037   17.8268 C   0  0  0  0  0  0  0  0  0  0  0  0
    6.7055    0.7843   17.5829 N   0  0  0  0  0  0  0  0  0  0  0  0
    7.2916    0.1130   18.5848 C   0  0  0  0  0  0  0  0  0  0  0  0
    8.3015   -0.2422   18.3816 H   0  0  0  0  0  0  0  0  0  0  0  0
    5.0459    1.8748   17.0176 H   0  0  0  0  0  0  0  0  0  0  0  0
    3.8705    1.6342   19.1871 H   0  0  0  0  0  0  0  0  0  0  0  0
    4.9251    0.2761   21.0267 H   0  0  0  0  0  0  0  0  0  0  0  0
    8.4161   -1.2419   20.5667 H   0  0  0  0  0  0  0  0  0  0  0  0
    7.1154    0.2921   22.7406 H   0  0  0  0  0  0  0  0  0  0  0  0
    8.7742    2.0731   22.9543 C   0  0  0  0  0  0  0  0  0  0  0  0
    9.9884    2.0979   23.5955 C   0  0  0  0  0  0  0  0  0  0  0  0
   10.2102    2.7565   24.7605 N   0  0  0  0  0  0  0  0  0  0  0  0
    9.2116    3.4315   25.2851 C   0  0  0  0  0  0  0  0  0  0  0  0
    7.9342    3.5291   24.6826 C   0  0  0  0  0  0  0  0  0  0  0  0
    6.8866    4.2981   25.2416 C   0  0  0  0  0  0  0  0  0  0  0  0
    5.6977    4.4188   24.6998 N   0  0  0  0  0  0  0  0  0  0  0  0
    5.4760    3.7612   23.5273 C   0  0  0  0  0  0  0  0  0  0  0  0
    6.4107    2.9872   22.8798 C   0  0  0  0  0  0  0  0  0  0  0  0
    7.6954    2.8372   23.4673 C   0  0  0  0  0  0  0  0  0  0  0  0
    6.1731    2.5358   21.9214 H   0  0  0  0  0  0  0  0  0  0  0  0
    4.4750    3.8802   23.1248 H   0  0  0  0  0  0  0  0  0  0  0  0
    7.0660    4.8331   26.1749 H   0  0  0  0  0  0  0  0  0  0  0  0
    9.3891    3.9556   26.2276 H   0  0  0  0  0  0  0  0  0  0  0  0
   10.8368    1.5421   23.2021 H   0  0  0  0  0  0  0  0  0  0  0  0
  1  2  2  0
  2  3  1  0
  3  4  1  0
  4  5  1  0
  5  6  2  0
  5  7  1  0
  4  8  1  0
  8  9  2  0
  9 10  1  0
 10 11  2  0
 11 12  1  0
 12 13  2  0
 13 14  1  0
 11 15  1  0
 10 16  1  0
  9 17  1  0
  4 18  1  0
  3 19  1  0
  2 20  1  0
 20 21  2  0
 21 22  1  0
 22 23  2  0
 23 24  1  0
 24 25  2  0
 25 26  1  0
 26 27  2  0
 27 28  1  0
 28 29  2  0
 28 30  1  0
 27 31  1  0
 25 32  1  0
 23 33  1  0
 21 34  1  0
 13  8  1  0
 29 20  1  0
 29 24  1  0
M  CHG  1   7  -1
M  END
>  <cnnaffinity>  (1) 
4.64876

>  <plip>  (1) 
-0.10714285714285714

>  <filename>  (1) 
[H][c]1[n][c]([H])[c]([C]([H])([C](=[O])[O-])[N]([H])[C](=[O])[c]2[c]([H])[n][c]([H])[c]3[c]([H])[n][c]([H])[c]([H])[c]23)[c]([H])[c]1[H]

>  <combo1>  (1) 
-0.5402964078022411

$$$$
