
     RDKit          3D

 41 42  0  0  0  0  0  0  0  0999 V2000
    6.0485    2.8006   23.1583 C   0  0  0  0  0  0  0  0  0  0  0  0
    7.2443    2.6766   24.0465 C   0  0  0  0  0  0  0  0  0  0  0  0
    7.5349    3.2892   25.2358 C   0  0  0  0  0  0  0  0  0  0  0  0
    8.7656    2.7524   25.7149 C   0  0  0  0  0  0  0  0  0  0  0  0
    9.2101    1.8291   24.7980 C   0  0  0  0  0  0  0  0  0  0  0  0
   10.4359    0.9823   24.7460 C   0  0  0  0  0  0  0  0  0  0  0  0
   10.1801   -0.0555   24.5076 H   0  0  0  0  0  0  0  0  0  0  0  0
   11.1117    1.3357   23.9584 H   0  0  0  0  0  0  0  0  0  0  0  0
   10.9570    1.0097   25.7068 H   0  0  0  0  0  0  0  0  0  0  0  0
    8.2727    1.7989   23.7828 N   0  0  0  0  0  0  0  0  0  0  0  0
    8.3552    0.9669   22.6829 N   0  0  0  0  0  0  0  0  0  0  0  0
    7.3982   -0.0162   22.4878 C   0  0  0  0  0  0  0  0  0  0  0  0
    6.5680   -0.3347   23.3127 O   0  0  0  0  0  0  0  0  0  0  0  0
    7.5967   -0.6398   21.0640 C   0  0  0  0  0  0  0  0  0  0  0  0
    6.8173    0.0630   19.9746 C   0  0  0  0  0  0  0  0  0  0  0  0
    5.6087    0.7278   20.2259 C   0  0  0  0  0  0  0  0  0  0  0  0
    4.9504    1.3258   19.1480 C   0  0  0  0  0  0  0  0  0  0  0  0
    5.5134    1.2099   17.8703 C   0  0  0  0  0  0  0  0  0  0  0  0
    6.6329    0.5149   17.6113 N   0  0  0  0  0  0  0  0  0  0  0  0
    7.2485   -0.0637   18.6474 C   0  0  0  0  0  0  0  0  0  0  0  0
    8.1439   -0.6479   18.4183 H   0  0  0  0  0  0  0  0  0  0  0  0
    5.0385    1.6726   17.0073 H   0  0  0  0  0  0  0  0  0  0  0  0
    4.0178    1.8676   19.2659 H   0  0  0  0  0  0  0  0  0  0  0  0
    5.1911    0.7283   21.2413 H   0  0  0  0  0  0  0  0  0  0  0  0
    7.2719   -2.1590   20.9236 N   0  0  0  0  0  4  0  0  0  0  0  0
    8.0484   -2.9917   21.8855 C   0  0  0  0  0  0  0  0  0  0  0  0
    7.7592   -2.7374   22.9108 H   0  0  0  0  0  0  0  0  0  0  0  0
    9.1237   -2.8245   21.7875 H   0  0  0  0  0  0  0  0  0  0  0  0
    7.8575   -4.0586   21.7327 H   0  0  0  0  0  0  0  0  0  0  0  0
    5.7935   -2.4441   21.1032 C   0  0  0  0  0  0  0  0  0  0  0  0
    5.4552   -2.0051   22.0445 H   0  0  0  0  0  0  0  0  0  0  0  0
    5.2473   -1.9982   20.2716 H   0  0  0  0  0  0  0  0  0  0  0  0
    5.6100   -3.5231   21.1089 H   0  0  0  0  0  0  0  0  0  0  0  0
    7.5218   -2.3861   19.9294 H   0  0  0  0  0  0  0  0  0  0  0  0
    8.6679   -0.5636   20.8584 H   0  0  0  0  0  0  0  0  0  0  0  0
    8.6103    1.4726   21.8497 H   0  0  0  0  0  0  0  0  0  0  0  0
    9.2592    2.9975   26.6444 H   0  0  0  0  0  0  0  0  0  0  0  0
    6.9209    4.0509   25.7121 H   0  0  0  0  0  0  0  0  0  0  0  0
    5.5485    3.7500   23.3630 H   0  0  0  0  0  0  0  0  0  0  0  0
    6.3162    2.7690   22.0966 H   0  0  0  0  0  0  0  0  0  0  0  0
    5.3558    1.9733   23.3531 H   0  0  0  0  0  0  0  0  0  0  0  0
  1  2  1  0
  2  3  2  0
  3  4  1  0
  4  5  2  0
  5  6  1  0
  6  7  1  0
  6  8  1  0
  6  9  1  0
  5 10  1  0
 10 11  1  0
 11 12  1  0
 12 13  2  0
 12 14  1  0
 14 15  1  0
 15 16  2  0
 16 17  1  0
 17 18  2  0
 18 19  1  0
 19 20  2  0
 20 21  1  0
 18 22  1  0
 17 23  1  0
 16 24  1  0
 14 25  1  0
 25 26  1  0
 26 27  1  0
 26 28  1  0
 26 29  1  0
 25 30  1  0
 30 31  1  0
 30 32  1  0
 30 33  1  0
 25 34  1  0
 14 35  1  0
 11 36  1  0
  4 37  1  0
  3 38  1  0
  1 39  1  0
  1 40  1  0
  1 41  1  0
 10  2  1  0
 20 15  1  0
M  CHG  1  25   1
M  END
>  <cnnaffinity>  (1) 
4.78063

>  <plip>  (1) 
-0.07142857142857142

>  <filename>  (1) 
[H][c]1[n][c]([H])[c]([C]([H])([C](=[O])[N]([H])[n]2[c]([C]([H])([H])[H])[c]([H])[c]([H])[c]2[C]([H])([H])[H])[N+]([H])([C]([H])([H])[H])[C]([H])([H])[H])[c]([H])[c]1[H]

>  <combo1>  (1) 
-0.4163905611996045

$$$$
