
     RDKit          3D

 42 44  0  0  0  0  0  0  0  0999 V2000
   10.8875   -2.6531   23.0109 C   0  0  0  0  0  0  0  0  0  0  0  0
   10.2108   -2.0411   21.7743 C   0  0  0  0  0  0  0  0  0  0  0  0
    9.3784   -0.8713   22.2768 C   0  0  0  0  0  0  0  0  0  0  0  0
    8.6218   -0.1173   21.2386 N   0  0  0  0  0  4  0  0  0  0  0  0
    7.2242   -0.7048   21.0078 C   0  0  0  0  0  0  0  0  0  0  0  0
    6.5583    0.0312   19.8972 C   0  0  0  0  0  0  0  0  0  0  0  0
    5.3385    0.6911   20.0778 C   0  0  0  0  0  0  0  0  0  0  0  0
    4.7770    1.3614   18.9901 C   0  0  0  0  0  0  0  0  0  0  0  0
    5.4708    1.3580   17.7740 C   0  0  0  0  0  0  0  0  0  0  0  0
    6.6464    0.7413   17.5923 N   0  0  0  0  0  0  0  0  0  0  0  0
    7.1768    0.1099   18.6450 C   0  0  0  0  0  0  0  0  0  0  0  0
    8.1438   -0.3679   18.4854 H   0  0  0  0  0  0  0  0  0  0  0  0
    5.0637    1.8670   16.9030 H   0  0  0  0  0  0  0  0  0  0  0  0
    3.8337    1.8912   19.0670 H   0  0  0  0  0  0  0  0  0  0  0  0
    4.8688    0.7061   21.0650 H   0  0  0  0  0  0  0  0  0  0  0  0
    7.3077   -1.7825   20.8008 H   0  0  0  0  0  0  0  0  0  0  0  0
    6.6504   -0.5890   21.9287 H   0  0  0  0  0  0  0  0  0  0  0  0
    8.5385    1.3736   21.6205 C   0  0  0  0  0  0  0  0  0  0  0  0
    7.7329    1.6103   22.8463 C   0  0  0  0  0  0  0  0  0  0  0  0
    6.6399    2.4688   22.9743 C   0  0  0  0  0  0  0  0  0  0  0  0
    5.9319    3.3377   22.1064 C   0  0  0  0  0  0  0  0  0  0  0  0
    4.8324    4.0228   22.5769 C   0  0  0  0  0  0  0  0  0  0  0  0
    4.4040    3.8564   23.9330 C   0  0  0  0  0  0  0  0  0  0  0  0
    5.0919    3.0004   24.7626 C   0  0  0  0  0  0  0  0  0  0  0  0
    6.1877    2.3199   24.2759 N   0  0  0  0  0  0  0  0  0  0  0  0
    6.9277    1.4333   24.9808 N   0  0  0  0  0  0  0  0  0  0  0  0
    7.8465    1.0123   24.1106 C   0  0  0  0  0  0  0  0  0  0  0  0
    8.5609    0.2781   24.4481 H   0  0  0  0  0  0  0  0  0  0  0  0
    4.8702    2.7817   25.7972 H   0  0  0  0  0  0  0  0  0  0  0  0
    3.5433    4.4037   24.3059 H   0  0  0  0  0  0  0  0  0  0  0  0
    4.2931    4.6931   21.9090 H   0  0  0  0  0  0  0  0  0  0  0  0
    6.2795    3.4136   21.0860 H   0  0  0  0  0  0  0  0  0  0  0  0
    8.0878    1.9065   20.7855 H   0  0  0  0  0  0  0  0  0  0  0  0
    9.5596    1.7594   21.7267 H   0  0  0  0  0  0  0  0  0  0  0  0
    9.1144   -0.2194   20.3286 H   0  0  0  0  0  0  0  0  0  0  0  0
   10.0524   -0.1746   22.7974 H   0  0  0  0  0  0  0  0  0  0  0  0
    8.6681   -1.2756   23.0148 H   0  0  0  0  0  0  0  0  0  0  0  0
    9.5717   -2.7807   21.2746 H   0  0  0  0  0  0  0  0  0  0  0  0
   10.9444   -1.6719   21.0403 H   0  0  0  0  0  0  0  0  0  0  0  0
   10.2394   -3.3635   23.5379 H   0  0  0  0  0  0  0  0  0  0  0  0
   11.8369   -3.1511   22.8070 H   0  0  0  0  0  0  0  0  0  0  0  0
   11.0501   -1.8475   23.7329 H   0  0  0  0  0  0  0  0  0  0  0  0
  1  2  1  0
  2  3  1  0
  3  4  1  0
  4  5  1  0
  5  6  1  0
  6  7  2  0
  7  8  1  0
  8  9  2  0
  9 10  1  0
 10 11  2  0
 11 12  1  0
  9 13  1  0
  8 14  1  0
  7 15  1  0
  5 16  1  0
  5 17  1  0
  4 18  1  0
 18 19  1  0
 19 20  2  0
 20 21  1  0
 21 22  2  0
 22 23  1  0
 23 24  2  0
 24 25  1  0
 25 26  1  0
 26 27  2  0
 27 28  1  0
 24 29  1  0
 23 30  1  0
 22 31  1  0
 21 32  1  0
 18 33  1  0
 18 34  1  0
  4 35  1  0
  3 36  1  0
  3 37  1  0
  2 38  1  0
  2 39  1  0
  1 40  1  0
  1 41  1  0
  1 42  1  0
 11  6  1  0
 27 19  1  0
 25 20  1  0
M  CHG  1   4   1
M  END
>  <cnnaffinity>  (1) 
5.10237

>  <plip>  (1) 
-0.034482758620689655

>  <filename>  (1) 
[H][c]1[n][c]([H])[c]([C]([H])([H])[N+]([H])([C]([H])([H])[c]2[c]([H])[n][n]3[c]([H])[c]([H])[c]([H])[c]([H])[c]23)[C]([H])([H])[C]([H])([H])[C]([H])([H])[H])[c]([H])[c]1[H]

>  <combo1>  (1) 
-0.20842741400327242

$$$$
