
     RDKit          3D

 31 32  0  0  0  0  0  0  0  0999 V2000
    8.3100   -4.3907   22.8913 F   0  0  0  0  0  0  0  0  0  0  0  0
    8.0301   -3.6930   21.7317 C   0  0  0  0  0  0  0  0  0  0  0  0
    7.5474   -2.3035   22.1128 C   0  0  0  0  0  0  0  0  0  0  0  0
    7.3764   -1.4327   20.9253 N   0  0  0  0  0  4  0  0  0  0  0  0
    6.9318    0.0066   21.2142 C   0  0  0  0  0  0  0  0  0  0  0  0
    6.3423    0.4771   19.9043 C   0  0  0  0  0  0  0  0  0  0  0  0
    5.1394    1.2058   19.8913 C   0  0  0  0  0  0  0  0  0  0  0  0
    4.6394    1.6760   18.6762 C   0  0  0  0  0  0  0  0  0  0  0  0
    5.3608    1.4136   17.5078 C   0  0  0  0  0  0  0  0  0  0  0  0
    6.4966    0.7024   17.4935 N   0  0  0  0  0  0  0  0  0  0  0  0
    6.9572    0.2438   18.6631 C   0  0  0  0  0  0  0  0  0  0  0  0
    7.8829   -0.3265   18.5861 H   0  0  0  0  0  0  0  0  0  0  0  0
    5.0230    1.8026   16.5479 H   0  0  0  0  0  0  0  0  0  0  0  0
    3.7221    2.2549   18.6195 H   0  0  0  0  0  0  0  0  0  0  0  0
    4.6032    1.4004   20.8222 H   0  0  0  0  0  0  0  0  0  0  0  0
    8.0479    0.8505   21.8272 C   0  0  0  0  0  0  0  0  0  0  0  0
    9.2247    1.1657   21.1185 C   0  0  0  0  0  0  0  0  0  0  0  0
   10.2670    1.7866   21.7053 N   0  0  0  0  0  0  0  0  0  0  0  0
   10.1056    2.1323   22.9965 C   0  0  0  0  0  0  0  0  0  0  0  0
    8.9152    1.8603   23.6946 C   0  0  0  0  0  0  0  0  0  0  0  0
    7.8889    1.2119   23.1210 N   0  0  0  0  0  0  0  0  0  0  0  0
    8.7736    2.1481   24.7329 H   0  0  0  0  0  0  0  0  0  0  0  0
   10.9333    2.6323   23.4968 H   0  0  0  0  0  0  0  0  0  0  0  0
    9.3460    0.9148   20.0663 H   0  0  0  0  0  0  0  0  0  0  0  0
    6.1637   -0.0105   21.9938 H   0  0  0  0  0  0  0  0  0  0  0  0
    8.2885   -1.3204   20.4129 H   0  0  0  0  0  0  0  0  0  0  0  0
    6.6565   -1.7764   20.2452 H   0  0  0  0  0  0  0  0  0  0  0  0
    6.6196   -2.3865   22.6984 H   0  0  0  0  0  0  0  0  0  0  0  0
    8.2863   -1.8781   22.8021 H   0  0  0  0  0  0  0  0  0  0  0  0
    7.2732   -4.2417   21.1604 H   0  0  0  0  0  0  0  0  0  0  0  0
    8.9472   -3.6231   21.1361 H   0  0  0  0  0  0  0  0  0  0  0  0
  1  2  1  0
  2  3  1  0
  3  4  1  0
  4  5  1  0
  5  6  1  0
  6  7  2  0
  7  8  1  0
  8  9  2  0
  9 10  1  0
 10 11  2  0
 11 12  1  0
  9 13  1  0
  8 14  1  0
  7 15  1  0
  5 16  1  0
 16 17  2  0
 17 18  1  0
 18 19  2  0
 19 20  1  0
 20 21  2  0
 20 22  1  0
 19 23  1  0
 17 24  1  0
  5 25  1  0
  4 26  1  0
  4 27  1  0
  3 28  1  0
  3 29  1  0
  2 30  1  0
  2 31  1  0
 11  6  1  0
 21 16  1  0
M  CHG  1   4   1
M  END
>  <cnnaffinity>  (1) 
5.02189

>  <plip>  (1) 
-0.10714285714285714

>  <filename>  (1) 
[H][c]1[n][c]([H])[c]([C]([H])([c]2[c]([H])[n][c]([H])[c]([H])[c]2[H])[N+]([H])([H])[C]([H])([H])[C]([H])([H])[F])[n][c]1[H]

>  <combo1>  (1) 
-0.7688653246697571

$$$$
