
     RDKit          3D

 37 39  0  0  0  0  0  0  0  0999 V2000
    3.6646    1.0110   27.5816 C   0  0  0  0  0  0  0  0  0  0  0  0
    3.9490    2.3989   26.4489 S   0  0  0  0  0  0  0  0  0  0  0  0
    5.5858    1.9364   25.9290 C   0  0  0  0  0  0  0  0  0  0  0  0
    6.7065    2.3803   26.6435 C   0  0  0  0  0  0  0  0  0  0  0  0
    7.9866    1.9564   26.2840 C   0  0  0  0  0  0  0  0  0  0  0  0
    8.1676    1.0986   25.1967 C   0  0  0  0  0  0  0  0  0  0  0  0
    9.7909    0.6070   24.8240 Cl  0  0  0  0  0  0  0  0  0  0  0  0
    7.0497    0.6663   24.4535 C   0  0  0  0  0  0  0  0  0  0  0  0
    7.1689   -0.1402   23.2842 N   0  0  0  0  0  0  0  0  0  0  0  0
    7.7888    0.2840   22.1262 C   0  0  0  0  0  0  0  0  0  0  0  0
    8.5236    1.2290   22.0159 O   0  0  0  0  0  0  0  0  0  0  0  0
    7.3870   -0.7052   21.0184 C   0  0  0  0  0  0  0  0  0  0  0  0
    6.6293   -0.0289   19.8754 C   0  0  0  0  0  0  0  0  0  0  0  0
    5.4252    0.6418   20.1230 C   0  0  0  0  0  0  0  0  0  0  0  0
    4.7980    1.3102   19.0727 C   0  0  0  0  0  0  0  0  0  0  0  0
    5.3961    1.2944   17.8093 C   0  0  0  0  0  0  0  0  0  0  0  0
    6.5531    0.6641   17.5520 N   0  0  0  0  0  0  0  0  0  0  0  0
    7.1480    0.0314   18.5732 C   0  0  0  0  0  0  0  0  0  0  0  0
    8.1132   -0.4253   18.3405 H   0  0  0  0  0  0  0  0  0  0  0  0
    4.9322    1.8080   16.9683 H   0  0  0  0  0  0  0  0  0  0  0  0
    3.8741    1.8523   19.2300 H   0  0  0  0  0  0  0  0  0  0  0  0
    5.0042    0.6554   21.1282 H   0  0  0  0  0  0  0  0  0  0  0  0
    6.6047   -1.6776   21.7611 N   0  0  0  0  0  0  0  0  0  0  0  0
    5.9877   -2.8453   21.1535 C   0  0  0  0  0  0  0  0  0  0  0  0
    6.3615   -3.7766   21.5959 H   0  0  0  0  0  0  0  0  0  0  0  0
    4.8978   -2.8346   21.2663 H   0  0  0  0  0  0  0  0  0  0  0  0
    6.2367   -2.8189   20.0863 H   0  0  0  0  0  0  0  0  0  0  0  0
    6.5942   -1.4040   23.1022 C   0  0  0  0  0  0  0  0  0  0  0  0
    6.2083   -2.1246   23.9907 O   0  0  0  0  0  0  0  0  0  0  0  0
    8.3027   -1.1667   20.6114 H   0  0  0  0  0  0  0  0  0  0  0  0
    5.7679    1.0779   24.8432 C   0  0  0  0  0  0  0  0  0  0  0  0
    4.9115    0.6994   24.2953 H   0  0  0  0  0  0  0  0  0  0  0  0
    8.8604    2.2818   26.8368 H   0  0  0  0  0  0  0  0  0  0  0  0
    6.5661    3.0302   27.4996 H   0  0  0  0  0  0  0  0  0  0  0  0
    3.7198    0.0615   27.0409 H   0  0  0  0  0  0  0  0  0  0  0  0
    2.6665    1.1252   28.0099 H   0  0  0  0  0  0  0  0  0  0  0  0
    4.4019    1.0057   28.3904 H   0  0  0  0  0  0  0  0  0  0  0  0
  1  2  1  0
  2  3  1  0
  3  4  2  0
  4  5  1  0
  5  6  2  0
  6  7  1  0
  6  8  1  0
  8  9  1  0
  9 10  1  0
 10 11  2  0
 10 12  1  0
 12 13  1  0
 13 14  2  0
 14 15  1  0
 15 16  2  0
 16 17  1  0
 17 18  2  0
 18 19  1  0
 16 20  1  0
 15 21  1  0
 14 22  1  0
 12 23  1  0
 23 24  1  0
 24 25  1  0
 24 26  1  0
 24 27  1  0
 23 28  1  0
 28 29  2  0
 12 30  1  0
  8 31  2  0
 31 32  1  0
  5 33  1  0
  4 34  1  0
  1 35  1  0
  1 36  1  0
  1 37  1  0
 31  3  1  0
 28  9  1  0
 18 13  1  0
M  END
>  <cnnaffinity>  (1) 
5.2095

>  <plip>  (1) 
-0.03571428571428571

>  <filename>  (1) 
[H][c]1[n][c]([H])[c]([C]2([H])[C](=[O])[N]([c]3[c]([H])[c]([S][C]([H])([H])[H])[c]([H])[c]([H])[c]3[Cl])[C](=[O])[N]2[C]([H])([H])[H])[c]([H])[c]1[H]

>  <combo1>  (1) 
-0.17830087124592733

$$$$
