
     RDKit          3D

 39 40  0  0  0  0  0  0  0  0999 V2000
    0.4320   -2.7461   25.0444 C   0  0  0  0  0  0  0  0  0  0  0  0
    1.9180   -2.9814   24.8323 C   0  0  0  0  0  0  0  0  0  0  0  0
    2.6855   -2.1392   25.2832 O   0  0  0  0  0  0  0  0  0  0  0  0
    2.4086   -4.1899   24.1111 C   0  0  0  0  0  0  0  0  0  0  0  0
    1.5012   -5.1839   23.6826 C   0  0  0  0  0  0  0  0  0  0  0  0
    1.9316   -6.3091   22.9883 C   0  0  0  0  0  0  0  0  0  0  0  0
    3.2921   -6.4810   22.7254 C   0  0  0  0  0  0  0  0  0  0  0  0
    4.2131   -5.5074   23.1088 C   0  0  0  0  0  0  0  0  0  0  0  0
    3.7898   -4.3594   23.7844 C   0  0  0  0  0  0  0  0  0  0  0  0
    4.7188   -3.3950   24.1770 N   0  0  0  0  0  0  0  0  0  0  0  0
    5.7995   -2.9907   23.4264 C   0  0  0  0  0  0  0  0  0  0  0  0
    6.1593   -3.4633   22.3579 O   0  0  0  0  0  0  0  0  0  0  0  0
    6.4621   -1.9567   24.0257 N   0  0  0  0  0  0  0  0  0  0  0  0
    7.6013   -1.2415   23.4190 C   0  0  0  0  0  0  0  0  0  0  0  0
    7.3364   -0.2318   22.2690 C   0  0  0  0  0  0  0  0  0  0  0  0
    7.4628    0.9664   22.4146 O   0  0  0  0  0  0  0  0  0  0  0  0
    7.0203   -0.8317   21.0705 N   0  0  0  0  0  0  0  0  0  0  0  0
    6.5495   -0.0855   19.9384 C   0  0  0  0  0  0  0  0  0  0  0  0
    5.4040    0.7021   20.0853 C   0  0  0  0  0  0  0  0  0  0  0  0
    4.8832    1.3646   18.9694 C   0  0  0  0  0  0  0  0  0  0  0  0
    5.5510    1.2454   17.7475 C   0  0  0  0  0  0  0  0  0  0  0  0
    6.6922    0.5485   17.5979 N   0  0  0  0  0  0  0  0  0  0  0  0
    7.1841   -0.0881   18.6738 C   0  0  0  0  0  0  0  0  0  0  0  0
    8.1362   -0.6054   18.5429 H   0  0  0  0  0  0  0  0  0  0  0  0
    5.1627    1.7346   16.8563 H   0  0  0  0  0  0  0  0  0  0  0  0
    3.9895    1.9763   19.0471 H   0  0  0  0  0  0  0  0  0  0  0  0
    4.9589    0.8055   21.0733 H   0  0  0  0  0  0  0  0  0  0  0  0
    6.7597   -1.8119   21.1388 H   0  0  0  0  0  0  0  0  0  0  0  0
    8.1135   -0.6708   24.1947 H   0  0  0  0  0  0  0  0  0  0  0  0
    8.3058   -1.9767   23.0151 H   0  0  0  0  0  0  0  0  0  0  0  0
    6.0574   -1.6458   24.8931 H   0  0  0  0  0  0  0  0  0  0  0  0
    4.2954   -2.6732   24.7479 H   0  0  0  0  0  0  0  0  0  0  0  0
    5.2733   -5.6333   22.9209 H   0  0  0  0  0  0  0  0  0  0  0  0
    3.6366   -7.3750   22.2224 H   0  0  0  0  0  0  0  0  0  0  0  0
    1.2177   -7.0698   22.6873 H   0  0  0  0  0  0  0  0  0  0  0  0
    0.4413   -5.0888   23.9126 H   0  0  0  0  0  0  0  0  0  0  0  0
   -0.1095   -2.6889   24.0961 H   0  0  0  0  0  0  0  0  0  0  0  0
   -0.0206   -3.5613   25.6166 H   0  0  0  0  0  0  0  0  0  0  0  0
    0.2983   -1.8075   25.5900 H   0  0  0  0  0  0  0  0  0  0  0  0
  1  2  1  0
  2  3  2  0
  2  4  1  0
  4  5  2  0
  5  6  1  0
  6  7  2  0
  7  8  1  0
  8  9  2  0
  9 10  1  0
 10 11  1  0
 11 12  2  0
 11 13  1  0
 13 14  1  0
 14 15  1  0
 15 16  2  0
 15 17  1  0
 17 18  1  0
 18 19  2  0
 19 20  1  0
 20 21  2  0
 21 22  1  0
 22 23  2  0
 23 24  1  0
 21 25  1  0
 20 26  1  0
 19 27  1  0
 17 28  1  0
 14 29  1  0
 14 30  1  0
 13 31  1  0
 10 32  1  0
  8 33  1  0
  7 34  1  0
  6 35  1  0
  5 36  1  0
  1 37  1  0
  1 38  1  0
  1 39  1  0
  9  4  1  0
 23 18  1  0
M  END
>  <cnnaffinity>  (1) 
5.34699

>  <plip>  (1) 
-0.06896551724137931

>  <filename>  (1) 
[H][c]1[n][c]([H])[c]([N]([H])[C](=[O])[C]([H])([H])[N]([H])[C](=[O])[N]([H])[c]2[c]([H])[c]([H])[c]([H])[c]([H])[c]2[C](=[O])[C]([H])([H])[H])[c]([H])[c]1[H]

>  <combo1>  (1) 
-0.3935571475746014

$$$$
