
     RDKit          3D

 39 41  0  0  0  0  0  0  0  0999 V2000
    9.5055   -1.0884   24.8180 C   0  0  0  0  0  0  0  0  0  0  0  0
    9.4944    0.0468   23.9806 O   0  0  0  0  0  0  0  0  0  0  0  0
    8.3571    0.7867   23.8408 C   0  0  0  0  0  0  0  0  0  0  0  0
    7.1433    0.5245   24.4906 C   0  0  0  0  0  0  0  0  0  0  0  0
    6.0276    1.3293   24.2326 C   0  0  0  0  0  0  0  0  0  0  0  0
    6.1003    2.3669   23.3033 C   0  0  0  0  0  0  0  0  0  0  0  0
    7.3103    2.6128   22.6467 C   0  0  0  0  0  0  0  0  0  0  0  0
    8.4603    1.8708   22.9390 C   0  0  0  0  0  0  0  0  0  0  0  0
    9.7511    2.0933   22.1896 C   0  0  0  0  0  0  0  0  0  0  0  0
    9.7429    1.3153   20.8649 C   0  0  0  0  0  0  0  0  0  0  0  0
    9.7574   -0.1535   20.9600 N   0  0  0  0  0  0  0  0  0  0  0  0
   10.8283   -0.9990   21.1510 C   0  0  0  0  0  0  0  0  0  0  0  0
   10.4400   -2.2067   21.4325 N   0  0  0  0  0  0  0  0  0  0  0  0
    9.0573   -2.1963   21.4483 N   0  0  0  0  0  0  0  0  0  0  0  0
    8.6819   -0.9922   21.1191 C   0  0  0  0  0  0  0  0  0  0  0  0
    7.3670   -0.5897   20.9953 N   0  0  0  0  0  0  0  0  0  0  0  0
    6.7167    0.0027   19.9011 C   0  0  0  0  0  0  0  0  0  0  0  0
    5.4969    0.6354   20.1627 C   0  0  0  0  0  0  0  0  0  0  0  0
    4.8389    1.2876   19.1152 C   0  0  0  0  0  0  0  0  0  0  0  0
    5.4107    1.2856   17.8387 C   0  0  0  0  0  0  0  0  0  0  0  0
    6.5636    0.6606   17.5547 N   0  0  0  0  0  0  0  0  0  0  0  0
    7.1961    0.0373   18.5643 C   0  0  0  0  0  0  0  0  0  0  0  0
    8.1270   -0.4660   18.3105 H   0  0  0  0  0  0  0  0  0  0  0  0
    4.9228    1.8052   17.0141 H   0  0  0  0  0  0  0  0  0  0  0  0
    3.9002    1.8008   19.2766 H   0  0  0  0  0  0  0  0  0  0  0  0
    5.1361    0.6336   21.1926 H   0  0  0  0  0  0  0  0  0  0  0  0
    6.7789   -0.9656   21.7219 H   0  0  0  0  0  0  0  0  0  0  0  0
   11.8679   -0.7019   21.0534 H   0  0  0  0  0  0  0  0  0  0  0  0
    8.8317    1.5956   20.3225 H   0  0  0  0  0  0  0  0  0  0  0  0
   10.6156    1.6235   20.2909 H   0  0  0  0  0  0  0  0  0  0  0  0
   10.6198    1.8020   22.7913 H   0  0  0  0  0  0  0  0  0  0  0  0
    9.8794    3.1570   21.9527 H   0  0  0  0  0  0  0  0  0  0  0  0
    7.3620    3.3919   21.8890 H   0  0  0  0  0  0  0  0  0  0  0  0
    5.2232    2.9621   23.0610 H   0  0  0  0  0  0  0  0  0  0  0  0
    5.0895    1.1296   24.7400 H   0  0  0  0  0  0  0  0  0  0  0  0
    7.0603   -0.2982   25.1918 H   0  0  0  0  0  0  0  0  0  0  0  0
    8.7715   -1.8331   24.4828 H   0  0  0  0  0  0  0  0  0  0  0  0
   10.5089   -1.5149   24.7406 H   0  0  0  0  0  0  0  0  0  0  0  0
    9.3175   -0.8105   25.8640 H   0  0  0  0  0  0  0  0  0  0  0  0
  1  2  1  0
  2  3  1  0
  3  4  2  0
  4  5  1  0
  5  6  2  0
  6  7  1  0
  7  8  2  0
  8  9  1  0
  9 10  1  0
 10 11  1  0
 11 12  1  0
 12 13  2  0
 13 14  1  0
 14 15  2  0
 15 16  1  0
 16 17  1  0
 17 18  2  0
 18 19  1  0
 19 20  2  0
 20 21  1  0
 21 22  2  0
 22 23  1  0
 20 24  1  0
 19 25  1  0
 18 26  1  0
 16 27  1  0
 12 28  1  0
 10 29  1  0
 10 30  1  0
  9 31  1  0
  9 32  1  0
  7 33  1  0
  6 34  1  0
  5 35  1  0
  4 36  1  0
  1 37  1  0
  1 38  1  0
  1 39  1  0
  8  3  1  0
 15 11  1  0
 22 17  1  0
M  END
>  <cnnaffinity>  (1) 
5.5232

>  <plip>  (1) 
-0.07142857142857142

>  <filename>  (1) 
[H][c]1[n][c]([H])[c]([N]([H])[c]2[n][n][c]([H])[n]2[C]([H])([H])[C]([H])([H])[c]2[c]([H])[c]([H])[c]([H])[c]([H])[c]2[O][C]([H])([H])[H])[c]([H])[c]1[H]

>  <combo1>  (1) 
-0.4452566207253934

$$$$
