
     RDKit          3D

 54 57  0  0  0  0  0  0  0  0999 V2000
    2.8166   -1.8554   27.5318 F   0  0  0  0  0  0  0  0  0  0  0  0
    2.6999   -3.1868   27.3243 C   0  0  0  0  0  0  0  0  0  0  0  0
    1.5801   -3.8369   27.8312 C   0  0  0  0  0  0  0  0  0  0  0  0
    1.4418   -5.2164   27.6377 C   0  0  0  0  0  0  0  0  0  0  0  0
    2.4342   -5.9235   26.9467 C   0  0  0  0  0  0  0  0  0  0  0  0
    3.5543   -5.2575   26.4439 C   0  0  0  0  0  0  0  0  0  0  0  0
    3.6997   -3.8668   26.6113 C   0  0  0  0  0  0  0  0  0  0  0  0
    4.8191   -3.1657   26.0722 N   0  0  0  0  0  0  0  0  0  0  0  0
    4.8640   -1.8800   25.6042 C   0  0  0  0  0  0  0  0  0  0  0  0
    6.1529   -1.6472   25.1721 C   0  0  0  0  0  0  0  0  0  0  0  0
    6.7721   -0.4010   24.6049 C   0  0  0  0  0  0  0  0  0  0  0  0
    6.2623   -0.1727   23.1954 N   0  0  0  0  0  4  0  0  0  0  0  0
    6.6825   -1.2407   22.1761 C   0  0  0  0  0  0  0  0  0  0  0  0
    7.4511   -0.8082   20.9085 C   0  0  0  0  0  0  0  0  0  0  0  0
    6.6770    0.0028   19.8914 C   0  0  0  0  0  0  0  0  0  0  0  0
    5.4581    0.6525   20.1450 C   0  0  0  0  0  0  0  0  0  0  0  0
    4.8204    1.3211   19.0977 C   0  0  0  0  0  0  0  0  0  0  0  0
    5.4140    1.3089   17.8339 C   0  0  0  0  0  0  0  0  0  0  0  0
    6.5810    0.6996   17.5747 N   0  0  0  0  0  0  0  0  0  0  0  0
    7.1922    0.0804   18.5876 C   0  0  0  0  0  0  0  0  0  0  0  0
    8.1417   -0.4044   18.3444 H   0  0  0  0  0  0  0  0  0  0  0  0
    4.9320    1.8003   16.9892 H   0  0  0  0  0  0  0  0  0  0  0  0
    3.8816    1.8461   19.2415 H   0  0  0  0  0  0  0  0  0  0  0  0
    5.0019    0.6380   21.1370 H   0  0  0  0  0  0  0  0  0  0  0  0
    8.8007   -0.1375   21.1782 N   0  0  0  0  0  4  0  0  0  0  0  0
    8.7546    1.2593   21.8518 C   0  0  0  0  0  0  0  0  0  0  0  0
   10.1723    1.8333   21.9230 C   0  0  0  0  0  0  0  0  0  0  0  0
   11.0404    0.9751   22.6542 O   0  0  0  0  0  0  0  0  0  0  0  0
   11.1398   -0.3119   22.0614 C   0  0  0  0  0  0  0  0  0  0  0  0
    9.7795   -1.0024   21.9592 C   0  0  0  0  0  0  0  0  0  0  0  0
    9.4013   -1.1467   22.9799 H   0  0  0  0  0  0  0  0  0  0  0  0
    9.8911   -1.9889   21.4939 H   0  0  0  0  0  0  0  0  0  0  0  0
   11.8077   -0.8918   22.7004 H   0  0  0  0  0  0  0  0  0  0  0  0
   11.5833   -0.2448   21.0549 H   0  0  0  0  0  0  0  0  0  0  0  0
   10.1844    2.7899   22.4487 H   0  0  0  0  0  0  0  0  0  0  0  0
   10.5618    1.9982   20.9061 H   0  0  0  0  0  0  0  0  0  0  0  0
    8.3997    1.1549   22.8796 H   0  0  0  0  0  0  0  0  0  0  0  0
    8.0684    1.9036   21.2955 H   0  0  0  0  0  0  0  0  0  0  0  0
    9.1501    0.0246   20.2039 H   0  0  0  0  0  0  0  0  0  0  0  0
    7.6964   -1.7599   20.4184 H   0  0  0  0  0  0  0  0  0  0  0  0
    7.3113   -1.9677   22.6880 H   0  0  0  0  0  0  0  0  0  0  0  0
    5.7993   -1.7690   21.8215 H   0  0  0  0  0  0  0  0  0  0  0  0
    5.2249   -0.2444   23.3537 H   0  0  0  0  0  0  0  0  0  0  0  0
    6.4785    0.7651   22.8151 H   0  0  0  0  0  0  0  0  0  0  0  0
    6.5324    0.4763   25.2093 H   0  0  0  0  0  0  0  0  0  0  0  0
    7.8635   -0.4851   24.5953 H   0  0  0  0  0  0  0  0  0  0  0  0
    6.8058   -2.8775   25.4105 C   0  0  0  0  0  0  0  0  0  0  0  0
    6.0060   -3.7807   25.9405 N   0  0  0  0  0  0  0  0  0  0  0  0
    7.8344   -3.1579   25.2104 H   0  0  0  0  0  0  0  0  0  0  0  0
    3.9630   -1.2807   25.6396 H   0  0  0  0  0  0  0  0  0  0  0  0
    4.3329   -5.8094   25.9215 H   0  0  0  0  0  0  0  0  0  0  0  0
    2.3462   -6.9994   26.8032 H   0  0  0  0  0  0  0  0  0  0  0  0
    0.5706   -5.7381   28.0282 H   0  0  0  0  0  0  0  0  0  0  0  0
    0.8391   -3.2411   28.3565 H   0  0  0  0  0  0  0  0  0  0  0  0
  1  2  1  0
  2  3  2  0
  3  4  1  0
  4  5  2  0
  5  6  1  0
  6  7  2  0
  7  8  1  0
  8  9  1  0
  9 10  2  0
 10 11  1  0
 11 12  1  0
 12 13  1  0
 13 14  1  0
 14 15  1  0
 15 16  2  0
 16 17  1  0
 17 18  2  0
 18 19  1  0
 19 20  2  0
 20 21  1  0
 18 22  1  0
 17 23  1  0
 16 24  1  0
 14 25  1  0
 25 26  1  0
 26 27  1  0
 27 28  1  0
 28 29  1  0
 29 30  1  0
 30 31  1  0
 30 32  1  0
 29 33  1  0
 29 34  1  0
 27 35  1  0
 27 36  1  0
 26 37  1  0
 26 38  1  0
 25 39  1  0
 14 40  1  0
 13 41  1  0
 13 42  1  0
 12 43  1  0
 12 44  1  0
 11 45  1  0
 11 46  1  0
 10 47  1  0
 47 48  2  0
 47 49  1  0
  9 50  1  0
  6 51  1  0
  5 52  1  0
  4 53  1  0
  3 54  1  0
  7  2  1  0
 48  8  1  0
 20 15  1  0
 30 25  1  0
M  CHG  2  12   1  25   1
M  END
>  <cnnaffinity>  (1) 
5.1793

>  <plip>  (1) 
-0.13793103448275862

>  <filename>  (1) 
[H][c]1[n][c]([H])[c]([C]([H])([C]([H])([H])[N+]([H])([H])[C]([H])([H])[c]2[c]([H])[n][n](-[c]3[c]([H])[c]([H])[c]([H])[c]([H])[c]3[F])[c]2[H])[N+]2([H])[C]([H])([H])[C]([H])([H])[O][C]([H])([H])[C]2([H])[H])[c]([H])[c]1[H]

>  <combo1>  (1) 
-0.620982383627925

$$$$
