
     RDKit          3D

 37 39  0  0  0  0  0  0  0  0999 V2000
    8.7478   -0.3754   20.9767 O   0  0  0  0  0  0  0  0  0  0  0  0
    7.3446   -0.6468   21.0362 C   0  0  0  0  0  0  0  0  0  0  0  0
    7.2054   -2.1649   20.8071 C   0  0  0  0  0  0  0  0  0  0  0  0
    7.3398   -3.0784   22.0116 N   0  0  0  0  0  4  0  0  0  0  0  0
    6.2727   -2.9152   23.0937 C   0  0  0  0  0  0  0  0  0  0  0  0
    6.3684   -4.0973   24.0635 C   0  0  0  0  0  0  0  0  0  0  0  0
    7.7821   -4.3674   24.5680 C   0  0  0  0  0  0  0  0  0  0  0  0
    8.0340   -5.1686   25.6855 C   0  0  0  0  0  0  0  0  0  0  0  0
    9.3527   -5.4367   26.0611 C   0  0  0  0  0  0  0  0  0  0  0  0
   10.3839   -4.8809   25.2998 C   0  0  0  0  0  0  0  0  0  0  0  0
   10.1734   -4.0919   24.2420 N   0  0  0  0  0  0  0  0  0  0  0  0
    8.9033   -3.8508   23.8883 C   0  0  0  0  0  0  0  0  0  0  0  0
    8.7344   -2.9770   22.6718 C   0  0  0  0  0  0  0  0  0  0  0  0
    8.8977   -1.9374   22.9682 H   0  0  0  0  0  0  0  0  0  0  0  0
    9.5234   -3.2474   21.9690 H   0  0  0  0  0  0  0  0  0  0  0  0
   11.4224   -5.0860   25.5410 H   0  0  0  0  0  0  0  0  0  0  0  0
    9.5920   -6.0620   26.9120 H   0  0  0  0  0  0  0  0  0  0  0  0
    7.2024   -5.5838   26.2539 H   0  0  0  0  0  0  0  0  0  0  0  0
    5.9945   -4.9968   23.5531 H   0  0  0  0  0  0  0  0  0  0  0  0
    5.6973   -3.9204   24.9116 H   0  0  0  0  0  0  0  0  0  0  0  0
    6.4602   -1.9694   23.6152 H   0  0  0  0  0  0  0  0  0  0  0  0
    5.2849   -2.8662   22.6246 H   0  0  0  0  0  0  0  0  0  0  0  0
    7.2294   -4.0593   21.6543 H   0  0  0  0  0  0  0  0  0  0  0  0
    8.0125   -2.3600   20.1057 H   0  0  0  0  0  0  0  0  0  0  0  0
    6.2689   -2.3818   20.2860 H   0  0  0  0  0  0  0  0  0  0  0  0
    6.6207    0.1015   19.9403 C   0  0  0  0  0  0  0  0  0  0  0  0
    5.3752    0.7216   20.1329 C   0  0  0  0  0  0  0  0  0  0  0  0
    4.7576    1.3544   19.0495 C   0  0  0  0  0  0  0  0  0  0  0  0
    5.4036    1.3272   17.8102 C   0  0  0  0  0  0  0  0  0  0  0  0
    6.5770    0.7132   17.5964 N   0  0  0  0  0  0  0  0  0  0  0  0
    7.1654    0.1261   18.6448 C   0  0  0  0  0  0  0  0  0  0  0  0
    8.1257   -0.3480   18.4362 H   0  0  0  0  0  0  0  0  0  0  0  0
    4.9562    1.8167   16.9473 H   0  0  0  0  0  0  0  0  0  0  0  0
    3.8072    1.8745   19.1544 H   0  0  0  0  0  0  0  0  0  0  0  0
    4.9061    0.7246   21.1188 H   0  0  0  0  0  0  0  0  0  0  0  0
    6.9279   -0.3823   22.0250 H   0  0  0  0  0  0  0  0  0  0  0  0
    8.8633    0.5797   21.0190 H   0  0  0  0  0  0  0  0  0  0  0  0
  1  2  1  0
  2  3  1  0
  3  4  1  0
  4  5  1  0
  5  6  1  0
  6  7  1  0
  7  8  2  0
  8  9  1  0
  9 10  2  0
 10 11  1  0
 11 12  2  0
 12 13  1  0
 13 14  1  0
 13 15  1  0
 10 16  1  0
  9 17  1  0
  8 18  1  0
  6 19  1  0
  6 20  1  0
  5 21  1  0
  5 22  1  0
  4 23  1  0
  3 24  1  0
  3 25  1  0
  2 26  1  0
 26 27  2  0
 27 28  1  0
 28 29  2  0
 29 30  1  0
 30 31  2  0
 31 32  1  0
 29 33  1  0
 28 34  1  0
 27 35  1  0
  2 36  1  0
  1 37  1  0
 13  4  1  0
 31 26  1  0
 12  7  1  0
M  CHG  1   4   1
M  END
>  <cnnaffinity>  (1) 
4.33096

>  <plip>  (1) 
-0.10344827586206896

>  <filename>  (1) 
[H][O][C]([H])([c]1[c]([H])[n][c]([H])[c]([H])[c]1[H])[C]([H])([H])[N+]1([H])[C]([H])([H])[c]2[n][c]([H])[c]([H])[c]([H])[c]2[C]([H])([H])[C]1([H])[H]

>  <combo1>  (1) 
-0.5826240818473993

$$$$
