
     RDKit          3D

 33 36  0  0  0  0  0  0  0  0999 V2000
    4.9671    1.7947   16.9675 H   0  0  0  0  0  0  0  0  0  0  0  0
    5.4202    1.3004   17.8233 C   0  0  0  0  0  0  0  0  0  0  0  0
    6.5874    0.6783   17.5948 N   0  0  0  0  0  0  0  0  0  0  0  0
    7.1694    0.0711   18.6391 C   0  0  0  0  0  0  0  0  0  0  0  0
    8.1184   -0.4240   18.4329 H   0  0  0  0  0  0  0  0  0  0  0  0
    6.6289    0.0409   19.9391 C   0  0  0  0  0  0  0  0  0  0  0  0
    7.3493   -0.6509   21.0650 C   0  0  0  0  0  0  0  0  0  0  0  0
    8.3797    0.1770   21.7978 C   0  0  0  0  0  0  0  0  0  0  0  0
    9.6428    0.2434   21.5033 N   0  0  0  0  0  0  0  0  0  0  0  0
   10.3394    1.1071   22.3092 N   0  0  0  0  0  0  0  0  0  0  0  0
    9.5890    1.6799   23.2020 C   0  0  0  0  0  0  0  0  0  0  0  0
   10.0835    2.6909   24.2123 C   0  0  0  0  0  0  0  0  0  0  0  0
   11.1441    2.4817   24.3951 H   0  0  0  0  0  0  0  0  0  0  0  0
    9.5461    2.5570   25.1550 H   0  0  0  0  0  0  0  0  0  0  0  0
    9.9335    4.1030   23.6943 C   0  0  0  0  0  0  0  0  0  0  0  0
    8.5228    5.0700   23.9389 S   0  0  0  0  0  0  0  0  0  0  0  0
    9.0746    6.2635   22.8293 C   0  0  0  0  0  0  0  0  0  0  0  0
    8.4488    7.1162   22.5935 H   0  0  0  0  0  0  0  0  0  0  0  0
   10.2965    5.9529   22.3307 C   0  0  0  0  0  0  0  0  0  0  0  0
   10.7891    6.5140   21.5495 H   0  0  0  0  0  0  0  0  0  0  0  0
   10.7950    4.7173   22.8405 C   0  0  0  0  0  0  0  0  0  0  0  0
   11.7436    4.2774   22.5574 H   0  0  0  0  0  0  0  0  0  0  0  0
    7.9286    1.2016   23.1278 S   0  0  0  0  0  0  0  0  0  0  0  0
    7.5929   -2.1319   20.8932 C   0  0  0  0  0  0  0  0  0  0  0  0
    8.5853   -2.5182   21.1345 H   0  0  0  0  0  0  0  0  0  0  0  0
    7.0931   -2.5632   20.0329 H   0  0  0  0  0  0  0  0  0  0  0  0
    6.6049   -1.6584   21.9192 C   0  0  0  0  0  0  0  0  0  0  0  0
    5.5460   -1.8230   21.7070 H   0  0  0  0  0  0  0  0  0  0  0  0
    6.8694   -1.6885   22.9724 H   0  0  0  0  0  0  0  0  0  0  0  0
    5.4091    0.6931   20.1505 C   0  0  0  0  0  0  0  0  0  0  0  0
    4.9630    0.6973   21.1472 H   0  0  0  0  0  0  0  0  0  0  0  0
    4.7957    1.3318   19.0737 C   0  0  0  0  0  0  0  0  0  0  0  0
    3.8582    1.8576   19.1925 H   0  0  0  0  0  0  0  0  0  0  0  0
  1  2  1  0
  2  3  2  0
  3  4  1  0
  4  5  1  0
  4  6  2  0
  6  7  1  0
  7  8  1  0
  8  9  2  0
  9 10  1  0
 10 11  2  0
 11 12  1  0
 12 13  1  0
 12 14  1  0
 12 15  1  0
 15 16  1  0
 16 17  1  0
 17 18  1  0
 17 19  2  0
 19 20  1  0
 19 21  1  0
 21 22  1  0
 11 23  1  0
  7 24  1  0
 24 25  1  0
 24 26  1  0
 24 27  1  0
 27 28  1  0
 27 29  1  0
  6 30  1  0
 30 31  1  0
 30 32  2  0
 32 33  1  0
 32  2  1  0
 27  7  1  0
 23  8  1  0
 21 15  2  0
M  END
>  <cnnaffinity>  (1) 
5.55795

>  <plip>  (1) 
-0.14285714285714285

>  <filename>  (1) 
[H][c]1[n][c]([H])[c]([C]2([c]3[n][n][c]([C]([H])([H])[c]4[s][c]([H])[c]([H])[c]4[H])[s]3)[C]([H])([H])[C]2([H])[H])[c]([H])[c]1[H]

>  <combo1>  (1) 
-0.8839113955938257

$$$$
