
     RDKit          3D

 40 42  0  0  0  0  0  0  0  0999 V2000
   12.5623    4.4055   21.7603 C   0  0  0  0  0  0  0  0  0  0  0  0
   11.5061    3.4548   22.2231 C   0  0  0  0  0  0  0  0  0  0  0  0
   10.9668    3.4914   23.4798 C   0  0  0  0  0  0  0  0  0  0  0  0
    9.7794    2.6702   23.5886 C   0  0  0  0  0  0  0  0  0  0  0  0
    8.7126    2.5659   25.1729 Br  0  0  0  0  0  0  0  0  0  0  0  0
    9.4706    2.0503   22.4060 C   0  0  0  0  0  0  0  0  0  0  0  0
    8.2208    1.2698   22.1966 C   0  0  0  0  0  0  0  0  0  0  0  0
    8.6122    0.0520   21.4584 N   0  0  0  0  0  4  0  0  0  0  0  0
    9.4250   -0.8163   22.3644 C   0  0  0  0  0  0  0  0  0  0  0  0
    8.5572   -1.3220   23.5445 C   0  0  0  0  0  0  0  0  0  0  0  0
    7.4006   -2.1295   23.0588 N   0  0  0  0  0  4  0  0  0  0  0  0
    6.5989   -1.2750   22.1203 C   0  0  0  0  0  0  0  0  0  0  0  0
    7.4843   -0.7630   20.9583 C   0  0  0  0  0  0  0  0  0  0  0  0
    6.7441    0.0344   19.9273 C   0  0  0  0  0  0  0  0  0  0  0  0
    5.5244    0.6581   20.1918 C   0  0  0  0  0  0  0  0  0  0  0  0
    4.9005    1.3198   19.1384 C   0  0  0  0  0  0  0  0  0  0  0  0
    5.4898    1.3395   17.8688 C   0  0  0  0  0  0  0  0  0  0  0  0
    6.6646    0.7362   17.6192 N   0  0  0  0  0  0  0  0  0  0  0  0
    7.2783    0.1086   18.6335 C   0  0  0  0  0  0  0  0  0  0  0  0
    8.2182   -0.3908   18.4245 H   0  0  0  0  0  0  0  0  0  0  0  0
    4.9823    1.8563   17.0580 H   0  0  0  0  0  0  0  0  0  0  0  0
    3.9565    1.8249   19.2900 H   0  0  0  0  0  0  0  0  0  0  0  0
    5.0701    0.6195   21.1827 H   0  0  0  0  0  0  0  0  0  0  0  0
    7.8750   -1.6642   20.4711 H   0  0  0  0  0  0  0  0  0  0  0  0
    6.1995   -0.3907   22.6332 H   0  0  0  0  0  0  0  0  0  0  0  0
    5.7397   -1.8165   21.7060 H   0  0  0  0  0  0  0  0  0  0  0  0
    7.7404   -2.9697   22.5718 H   0  0  0  0  0  0  0  0  0  0  0  0
    6.8180   -2.4333   23.8524 H   0  0  0  0  0  0  0  0  0  0  0  0
    8.1933   -0.4316   24.0765 H   0  0  0  0  0  0  0  0  0  0  0  0
    9.1788   -1.8907   24.2488 H   0  0  0  0  0  0  0  0  0  0  0  0
    9.8312   -1.6842   21.8310 H   0  0  0  0  0  0  0  0  0  0  0  0
   10.2735   -0.2471   22.7675 H   0  0  0  0  0  0  0  0  0  0  0  0
    9.1703    0.3526   20.6531 H   0  0  0  0  0  0  0  0  0  0  0  0
    7.4881    1.8740   21.6383 H   0  0  0  0  0  0  0  0  0  0  0  0
    7.8018    1.0183   23.1793 H   0  0  0  0  0  0  0  0  0  0  0  0
   10.6726    2.3293   21.1634 S   0  0  0  0  0  0  0  0  0  0  0  0
   11.3425    4.1098   24.2854 H   0  0  0  0  0  0  0  0  0  0  0  0
   12.6964    5.2046   22.4921 H   0  0  0  0  0  0  0  0  0  0  0  0
   12.2636    4.8593   20.8126 H   0  0  0  0  0  0  0  0  0  0  0  0
   13.5102    3.8888   21.6237 H   0  0  0  0  0  0  0  0  0  0  0  0
  1  2  1  0
  2  3  2  0
  3  4  1  0
  4  5  1  0
  4  6  2  0
  6  7  1  0
  7  8  1  0
  8  9  1  0
  9 10  1  0
 10 11  1  0
 11 12  1  0
 12 13  1  0
 13 14  1  0
 14 15  2  0
 15 16  1  0
 16 17  2  0
 17 18  1  0
 18 19  2  0
 19 20  1  0
 17 21  1  0
 16 22  1  0
 15 23  1  0
 13 24  1  0
 12 25  1  0
 12 26  1  0
 11 27  1  0
 11 28  1  0
 10 29  1  0
 10 30  1  0
  9 31  1  0
  9 32  1  0
  8 33  1  0
  7 34  1  0
  7 35  1  0
  6 36  1  0
  3 37  1  0
  1 38  1  0
  1 39  1  0
  1 40  1  0
 36  2  1  0
 13  8  1  0
 19 14  1  0
M  CHG  2   8   1  11   1
M  END
>  <cnnaffinity>  (1) 
5.49708

>  <plip>  (1) 
-0.10344827586206896

>  <filename>  (1) 
[H][c]1[n][c]([H])[c]([C]2([H])[C]([H])([H])[N+]([H])([H])[C]([H])([H])[C]([H])([H])[N+]2([H])[C]([H])([H])[c]2[s][c]([C]([H])([H])[H])[c]([H])[c]2[Br])[c]([H])[c]1[H]

>  <combo1>  (1) 
-0.5349855715605543

$$$$
