
     RDKit          3D

 44 46  0  0  0  0  0  0  0  0999 V2000
   10.8661    5.8906   25.1782 C   0  0  0  0  0  0  0  0  0  0  0  0
    9.6755    5.3807   24.3550 C   0  0  0  0  0  0  0  0  0  0  0  0
    8.8489    4.2738   25.0293 C   0  0  0  0  0  0  0  0  0  0  0  0
    9.4522    3.0304   24.6915 O   0  0  0  0  0  0  0  0  0  0  0  0
   10.1387    3.1631   23.4471 C   0  0  0  0  0  0  0  0  0  0  0  0
    9.6387    2.1897   22.3598 C   0  0  0  0  0  0  0  0  0  0  0  0
    8.1438    2.2283   21.9683 N   0  0  0  0  0  4  0  0  0  0  0  0
    7.3331    1.3544   22.9047 C   0  0  0  0  0  0  0  0  0  0  0  0
    7.5601   -0.0369   22.4117 C   0  0  0  0  0  0  0  0  0  0  0  0
    8.2118   -1.0832   23.0307 C   0  0  0  0  0  0  0  0  0  0  0  0
    8.4115   -2.0397   22.1003 N   0  0  0  0  0  0  0  0  0  0  0  0
    9.1128   -3.2933   22.2651 C   0  0  0  0  0  0  0  0  0  0  0  0
    8.9619   -3.6863   23.2730 H   0  0  0  0  0  0  0  0  0  0  0  0
    8.7011   -3.9987   21.5395 H   0  0  0  0  0  0  0  0  0  0  0  0
   10.1847   -3.1459   22.0934 H   0  0  0  0  0  0  0  0  0  0  0  0
    7.9481   -1.6854   20.9008 N   0  0  0  0  0  0  0  0  0  0  0  0
    7.3964   -0.4864   21.0695 C   0  0  0  0  0  0  0  0  0  0  0  0
    6.6648    0.1501   19.9616 C   0  0  0  0  0  0  0  0  0  0  0  0
    5.4206    0.7743   20.1415 C   0  0  0  0  0  0  0  0  0  0  0  0
    4.8065    1.3731   19.0415 C   0  0  0  0  0  0  0  0  0  0  0  0
    5.4510    1.3217   17.8010 C   0  0  0  0  0  0  0  0  0  0  0  0
    6.6106    0.6767   17.6030 N   0  0  0  0  0  0  0  0  0  0  0  0
    7.1805    0.0830   18.6566 C   0  0  0  0  0  0  0  0  0  0  0  0
    8.0895   -0.4777   18.4470 H   0  0  0  0  0  0  0  0  0  0  0  0
    5.0078    1.7982   16.9263 H   0  0  0  0  0  0  0  0  0  0  0  0
    3.8412    1.8592   19.1253 H   0  0  0  0  0  0  0  0  0  0  0  0
    4.9406    0.7716   21.1212 H   0  0  0  0  0  0  0  0  0  0  0  0
    8.6000   -1.2173   24.0330 H   0  0  0  0  0  0  0  0  0  0  0  0
    7.7187    1.4821   23.9159 H   0  0  0  0  0  0  0  0  0  0  0  0
    6.2845    1.6600   22.9272 H   0  0  0  0  0  0  0  0  0  0  0  0
    8.0138    1.7442   21.0450 H   0  0  0  0  0  0  0  0  0  0  0  0
    7.8010    3.2088   21.8982 H   0  0  0  0  0  0  0  0  0  0  0  0
    9.8327    1.1791   22.7255 H   0  0  0  0  0  0  0  0  0  0  0  0
   10.2370    2.3385   21.4571 H   0  0  0  0  0  0  0  0  0  0  0  0
   10.0621    4.6508   23.0550 C   0  0  0  0  0  0  0  0  0  0  0  0
    9.2574    4.7908   22.3193 H   0  0  0  0  0  0  0  0  0  0  0  0
   10.9941    5.0003   22.5915 H   0  0  0  0  0  0  0  0  0  0  0  0
   11.1768    2.8594   23.6318 H   0  0  0  0  0  0  0  0  0  0  0  0
    7.8194    4.3057   24.6381 H   0  0  0  0  0  0  0  0  0  0  0  0
    8.7994    4.3411   26.1218 H   0  0  0  0  0  0  0  0  0  0  0  0
    9.0246    6.2403   24.1355 H   0  0  0  0  0  0  0  0  0  0  0  0
   10.5125    6.3388   26.1146 H   0  0  0  0  0  0  0  0  0  0  0  0
   11.4070    6.6627   24.6186 H   0  0  0  0  0  0  0  0  0  0  0  0
   11.5885    5.1045   25.4300 H   0  0  0  0  0  0  0  0  0  0  0  0
  1  2  1  0
  2  3  1  0
  3  4  1  0
  4  5  1  0
  5  6  1  0
  6  7  1  0
  7  8  1  0
  8  9  1  0
  9 10  2  0
 10 11  1  0
 11 12  1  0
 12 13  1  0
 12 14  1  0
 12 15  1  0
 11 16  1  0
 16 17  2  0
 17 18  1  0
 18 19  2  0
 19 20  1  0
 20 21  2  0
 21 22  1  0
 22 23  2  0
 23 24  1  0
 21 25  1  0
 20 26  1  0
 19 27  1  0
 10 28  1  0
  8 29  1  0
  8 30  1  0
  7 31  1  0
  7 32  1  0
  6 33  1  0
  6 34  1  0
  5 35  1  0
 35 36  1  0
 35 37  1  0
  5 38  1  0
  3 39  1  0
  3 40  1  0
  2 41  1  0
  1 42  1  0
  1 43  1  0
  1 44  1  0
 35  2  1  0
 17  9  1  0
 23 18  1  0
M  CHG  1   7   1
M  END
>  <cnnaffinity>  (1) 
5.01847

>  <plip>  (1) 
-0.14285714285714285

>  <filename>  (1) 
[H][c]1[n][c]([H])[c](-[c]2[n][n]([C]([H])([H])[H])[c]([H])[c]2[C]([H])([H])[N+]([H])([H])[C]([H])([H])[C]2([H])[O][C]([H])([H])[C]([H])([C]([H])([H])[H])[C]2([H])[H])[c]([H])[c]1[H]

>  <combo1>  (1) 
-0.8315433958556308

$$$$
