
     RDKit          3D

 28 29  0  0  0  0  0  0  0  0999 V2000
    6.9915   -1.9820   21.4371 C   0  0  0  0  0  0  0  0  0  0  0  0
    7.3479   -0.5088   21.2385 C   0  0  1  0  0  0  0  0  0  0  0  0
    8.7439   -0.4843   20.8259 N   0  0  0  0  0  0  0  0  0  0  0  0
    9.8158   -0.4930   21.6420 C   0  0  0  0  0  0  0  0  0  0  0  0
   10.6963   -1.2448   21.0130 N   0  0  0  0  0  0  0  0  0  0  0  0
   11.9268   -1.2997   21.5066 C   0  0  0  0  0  0  0  0  0  0  0  0
   12.2817   -0.6211   22.6722 C   0  0  0  0  0  0  0  0  0  0  0  0
   11.3361    0.1556   23.3469 C   0  0  0  0  0  0  0  0  0  0  0  0
   11.8553    1.2133   24.8446 Br  0  0  0  0  0  0  0  0  0  0  0  0
   10.0466    0.2337   22.8185 C   0  0  0  0  0  0  0  0  0  0  0  0
    9.1070    1.0393   23.3814 F   0  0  0  0  0  0  0  0  0  0  0  0
   13.3035   -0.6902   23.0214 H   0  0  0  0  0  0  0  0  0  0  0  0
   12.6622   -1.8821   20.9627 H   0  0  0  0  0  0  0  0  0  0  0  0
    8.9680   -1.0477   20.0139 H   0  0  0  0  0  0  0  0  0  0  0  0
    6.6314    0.0931   20.0636 C   0  0  0  0  0  0  0  0  0  0  0  0
    5.4126    0.7522   20.2333 C   0  0  0  0  0  0  0  0  0  0  0  0
    4.8350    1.3398   19.1079 C   0  0  0  0  0  0  0  0  0  0  0  0
    5.4832    1.2636   17.8654 C   0  0  0  0  0  0  0  0  0  0  0  0
    6.6517    0.6181   17.6953 N   0  0  0  0  0  0  0  0  0  0  0  0
    7.2038    0.0477   18.7785 C   0  0  0  0  0  0  0  0  0  0  0  0
    8.1647   -0.4445   18.6535 H   0  0  0  0  0  0  0  0  0  0  0  0
    5.0152    1.7398   17.0088 H   0  0  0  0  0  0  0  0  0  0  0  0
    3.8975    1.8793   19.1970 H   0  0  0  0  0  0  0  0  0  0  0  0
    4.9518    0.8274   21.2180 H   0  0  0  0  0  0  0  0  0  0  0  0
    7.1412    0.0787   22.1483 H   0  0  0  0  0  0  0  0  0  0  0  0
    6.9835   -2.2290   22.5024 H   0  0  0  0  0  0  0  0  0  0  0  0
    7.7364   -2.6162   20.9493 H   0  0  0  0  0  0  0  0  0  0  0  0
    6.0119   -2.2218   21.0150 H   0  0  0  0  0  0  0  0  0  0  0  0
  1  2  1  0
  2  3  1  0
  3  4  1  0
  4  5  2  0
  5  6  1  0
  6  7  2  0
  7  8  1  0
  8  9  1  0
  8 10  2  0
 10 11  1  0
  7 12  1  0
  6 13  1  0
  3 14  1  0
  2 15  1  0
 15 16  2  0
 16 17  1  0
 17 18  2  0
 18 19  1  0
 19 20  2  0
 20 21  1  0
 18 22  1  0
 17 23  1  0
 16 24  1  0
  2 25  1  1
  1 26  1  0
  1 27  1  0
  1 28  1  0
 10  4  1  0
 20 15  1  0
M  END
>  <cnnaffinity>  (1) 
5.21186

>  <plip>  (1) 
-0.10344827586206896

>  <filename>  (1) 
[H][c]1[n][c]([H])[c]([C@]([H])([N]([H])[c]2[n][c]([H])[c]([H])[c]([Br])[c]2[F])[C]([H])([H])[H])[c]([H])[c]1[H]

>  <combo1>  (1) 
-0.6068666500468614

$$$$
