
     RDKit          3D

 26 27  0  0  0  0  0  0  0  0999 V2000
    5.0783    1.7647   17.0046 H   0  0  0  0  0  0  0  0  0  0  0  0
    5.5233    1.2623   17.8643 C   0  0  0  0  0  0  0  0  0  0  0  0
    6.6988    0.6451   17.6709 N   0  0  0  0  0  0  0  0  0  0  0  0
    7.2565    0.0008   18.7109 C   0  0  0  0  0  0  0  0  0  0  0  0
    8.2276   -0.4591   18.5265 H   0  0  0  0  0  0  0  0  0  0  0  0
    6.6488   -0.0885   19.9798 C   0  0  0  0  0  0  0  0  0  0  0  0
    7.1054   -0.8489   21.0351 O   0  0  0  0  0  0  0  0  0  0  0  0
    8.4572   -1.0848   21.1543 C   0  0  0  0  0  0  0  0  0  0  0  0
    9.0482   -2.3184   21.5066 C   0  0  0  0  0  0  0  0  0  0  0  0
    8.5577   -3.2579   21.7421 H   0  0  0  0  0  0  0  0  0  0  0  0
   10.3715   -2.2459   21.4638 N   0  0  0  0  0  0  0  0  0  0  0  0
   10.6361   -0.9785   21.0974 N   0  0  0  0  0  0  0  0  0  0  0  0
   11.5759   -0.6733   20.8736 H   0  0  0  0  0  0  0  0  0  0  0  0
    9.5235   -0.2341   20.9282 C   0  0  0  0  0  0  0  0  0  0  0  0
    9.6539    1.0552   20.5382 O   0  0  0  0  0  0  0  0  0  0  0  0
    9.0125    2.0625   21.2997 C   0  0  0  0  0  0  0  0  0  0  0  0
    8.8199    2.8741   20.6038 H   0  0  0  0  0  0  0  0  0  0  0  0
    8.0693    1.7316   21.7423 H   0  0  0  0  0  0  0  0  0  0  0  0
    9.8552    2.6456   22.4295 C   0  0  0  0  0  0  0  0  0  0  0  0
    9.1991    3.7249   22.8918 F   0  0  0  0  0  0  0  0  0  0  0  0
   10.0026    1.7791   23.4410 F   0  0  0  0  0  0  0  0  0  0  0  0
   11.0689    3.0514   22.0489 F   0  0  0  0  0  0  0  0  0  0  0  0
    5.4491    0.5978   20.1813 C   0  0  0  0  0  0  0  0  0  0  0  0
    5.0051    0.5922   21.1761 H   0  0  0  0  0  0  0  0  0  0  0  0
    4.8743    1.2749   19.1042 C   0  0  0  0  0  0  0  0  0  0  0  0
    3.9362    1.8052   19.2170 H   0  0  0  0  0  0  0  0  0  0  0  0
  1  2  1  0
  2  3  2  0
  3  4  1  0
  4  5  1  0
  4  6  2  0
  6  7  1  0
  7  8  1  0
  8  9  1  0
  9 10  1  0
  9 11  2  0
 11 12  1  0
 12 13  1  0
 12 14  1  0
 14 15  1  0
 15 16  1  0
 16 17  1  0
 16 18  1  0
 16 19  1  0
 19 20  1  0
 19 21  1  0
 19 22  1  0
  6 23  1  0
 23 24  1  0
 23 25  2  0
 25 26  1  0
 25  2  1  0
 14  8  2  0
M  END
>  <cnnaffinity>  (1) 
4.94866

>  <plip>  (1) 
-0.07142857142857142

>  <filename>  (1) 
[H][c]1[n][c]([H])[c]([O][c]2[c]([H])[n][n]([H])[c]2[O][C]([H])([H])[C]([F])([F])[F])[c]([H])[c]1[H]

>  <combo1>  (1) 
-0.4545954777640781

$$$$
