
     RDKit          3D

 32 34  0  0  0  0  0  0  0  0999 V2000
    9.2580   -0.7892   25.3849 O   0  0  0  0  0  0  0  0  0  0  0  0
    9.7517   -0.5732   24.3018 C   0  0  0  0  0  0  0  0  0  0  0  0
    8.9674   -0.8059   23.1797 N   0  0  0  0  0  0  0  0  0  0  0  0
    9.2722   -0.1713   22.0220 C   0  0  0  0  0  0  0  0  0  0  0  0
    8.3018   -0.0538   21.1111 N   0  0  0  0  0  0  0  0  0  0  0  0
    6.9079   -0.4916   21.0658 C   0  0  0  0  0  0  0  0  0  0  0  0
    6.8113   -2.0500   21.0296 C   0  0  0  0  0  0  0  0  0  0  0  0
    5.5086   -2.6029   20.9123 O   0  0  0  0  0  0  0  0  0  0  0  0
    5.2226   -2.9045   21.7828 H   0  0  0  0  0  0  0  0  0  0  0  0
    7.3331   -2.4250   21.9174 H   0  0  0  0  0  0  0  0  0  0  0  0
    7.3854   -2.3540   20.1526 H   0  0  0  0  0  0  0  0  0  0  0  0
    6.3049    0.1950   19.8536 C   0  0  0  0  0  0  0  0  0  0  0  0
    5.0875    0.8842   19.9252 C   0  0  0  0  0  0  0  0  0  0  0  0
    4.6081    1.5348   18.7848 C   0  0  0  0  0  0  0  0  0  0  0  0
    5.3470    1.4439   17.6028 C   0  0  0  0  0  0  0  0  0  0  0  0
    6.4927    0.7535   17.4987 N   0  0  0  0  0  0  0  0  0  0  0  0
    6.9504    0.1569   18.6059 C   0  0  0  0  0  0  0  0  0  0  0  0
    7.8843   -0.3923   18.4754 H   0  0  0  0  0  0  0  0  0  0  0  0
    5.0127    1.9466   16.6974 H   0  0  0  0  0  0  0  0  0  0  0  0
    3.6906    2.1149   18.8008 H   0  0  0  0  0  0  0  0  0  0  0  0
    4.5330    0.9230   20.8659 H   0  0  0  0  0  0  0  0  0  0  0  0
    6.3578   -0.1347   21.9524 H   0  0  0  0  0  0  0  0  0  0  0  0
    8.6112    0.6285   20.4408 H   0  0  0  0  0  0  0  0  0  0  0  0
   10.4271    0.3477   21.7225 N   0  0  0  0  0  0  0  0  0  0  0  0
   11.3592    0.3407   22.7269 C   0  0  0  0  0  0  0  0  0  0  0  0
   11.0744   -0.0812   24.0135 C   0  0  0  0  0  0  0  0  0  0  0  0
   12.3765    0.1424   25.1008 S   0  0  0  0  0  0  0  0  0  0  0  0
   13.3604    0.7287   23.8125 C   0  0  0  0  0  0  0  0  0  0  0  0
   12.7002    0.8180   22.6251 C   0  0  0  0  0  0  0  0  0  0  0  0
   13.0936    1.2104   21.6986 H   0  0  0  0  0  0  0  0  0  0  0  0
   14.3947    0.9601   24.0129 H   0  0  0  0  0  0  0  0  0  0  0  0
    8.0007   -0.9122   23.4391 H   0  0  0  0  0  0  0  0  0  0  0  0
  1  2  2  0
  2  3  1  0
  3  4  1  0
  4  5  1  0
  5  6  1  0
  6  7  1  0
  7  8  1  0
  8  9  1  0
  7 10  1  0
  7 11  1  0
  6 12  1  0
 12 13  2  0
 13 14  1  0
 14 15  2  0
 15 16  1  0
 16 17  2  0
 17 18  1  0
 15 19  1  0
 14 20  1  0
 13 21  1  0
  6 22  1  0
  5 23  1  0
  4 24  2  0
 24 25  1  0
 25 26  2  0
 26 27  1  0
 27 28  1  0
 28 29  2  0
 29 30  1  0
 28 31  1  0
  3 32  1  0
 26  2  1  0
 17 12  1  0
 29 25  1  0
M  END
>  <cnnaffinity>  (1) 
4.75492

>  <plip>  (1) 
-0.14285714285714285

>  <filename>  (1) 
[H][O][C]([H])([H])[C]([H])([c]1[c]([H])[n][c]([H])[c]([H])[c]1[H])[N]([H])[c]1[n][c]2[c]([H])[c]([H])[s][c]2[c](=[O])[n]1[H]

>  <combo1>  (1) 
-0.785291822984483

$$$$
