
     RDKit          3D

 34 35  0  0  0  0  0  0  0  0999 V2000
    5.9340   -6.0155   27.6962 C   0  0  0  0  0  0  0  0  0  0  0  0
    6.8490   -5.2464   26.7735 C   0  0  0  0  0  0  0  0  0  0  0  0
    6.3616   -4.6480   25.6115 C   0  0  0  0  0  0  0  0  0  0  0  0
    7.2333   -3.9577   24.7530 C   0  0  0  0  0  0  0  0  0  0  0  0
    6.7029   -3.3165   23.5381 C   0  0  0  0  0  0  0  0  0  0  0  0
    7.2947   -2.3270   22.8515 C   0  0  0  0  0  0  0  0  0  0  0  0
    6.6693   -1.7402   21.6276 C   0  0  0  0  0  0  0  0  0  0  0  0
    5.6048   -2.1614   21.2020 O   0  0  0  0  0  0  0  0  0  0  0  0
    7.3444   -0.7040   20.9639 N   0  0  0  0  0  0  0  0  0  0  0  0
    8.7105   -0.3010   21.2802 C   0  0  0  0  0  0  0  0  0  0  0  0
    8.7849    0.1586   22.2733 H   0  0  0  0  0  0  0  0  0  0  0  0
    9.0429    0.4547   20.5646 H   0  0  0  0  0  0  0  0  0  0  0  0
    9.4106   -1.1411   21.2138 H   0  0  0  0  0  0  0  0  0  0  0  0
    6.6624   -0.0007   19.9087 C   0  0  0  0  0  0  0  0  0  0  0  0
    5.4439    0.6448   20.1614 C   0  0  0  0  0  0  0  0  0  0  0  0
    4.8127    1.3129   19.1069 C   0  0  0  0  0  0  0  0  0  0  0  0
    5.4025    1.2946   17.8363 C   0  0  0  0  0  0  0  0  0  0  0  0
    6.5678    0.6794   17.5743 N   0  0  0  0  0  0  0  0  0  0  0  0
    7.1799    0.0704   18.5988 C   0  0  0  0  0  0  0  0  0  0  0  0
    8.1209   -0.4266   18.3740 H   0  0  0  0  0  0  0  0  0  0  0  0
    4.9142    1.7816   16.9931 H   0  0  0  0  0  0  0  0  0  0  0  0
    3.8766    1.8420   19.2603 H   0  0  0  0  0  0  0  0  0  0  0  0
    5.0150    0.6092   21.1662 H   0  0  0  0  0  0  0  0  0  0  0  0
    8.2247   -1.8952   23.2053 H   0  0  0  0  0  0  0  0  0  0  0  0
    5.7279   -3.6918   23.2037 H   0  0  0  0  0  0  0  0  0  0  0  0
    8.5903   -3.9207   25.1229 C   0  0  0  0  0  0  0  0  0  0  0  0
    9.0891   -4.4906   26.2225 N   0  0  0  0  0  0  0  0  0  0  0  0
    8.2289   -5.1347   27.0209 C   0  0  0  0  0  0  0  0  0  0  0  0
    8.6505   -5.5950   27.9068 H   0  0  0  0  0  0  0  0  0  0  0  0
    9.3150   -3.4298   24.4860 H   0  0  0  0  0  0  0  0  0  0  0  0
    5.2977   -4.7150   25.3757 H   0  0  0  0  0  0  0  0  0  0  0  0
    6.2851   -6.0050   28.7319 H   0  0  0  0  0  0  0  0  0  0  0  0
    4.9215   -5.6004   27.6853 H   0  0  0  0  0  0  0  0  0  0  0  0
    5.8598   -7.0636   27.3862 H   0  0  0  0  0  0  0  0  0  0  0  0
  1  2  1  0
  2  3  2  0
  3  4  1  0
  4  5  1  0
  5  6  2  3
  6  7  1  0
  7  8  2  0
  7  9  1  0
  9 10  1  0
 10 11  1  0
 10 12  1  0
 10 13  1  0
  9 14  1  0
 14 15  2  0
 15 16  1  0
 16 17  2  0
 17 18  1  0
 18 19  2  0
 19 20  1  0
 17 21  1  0
 16 22  1  0
 15 23  1  0
  6 24  1  0
  5 25  1  0
  4 26  2  0
 26 27  1  0
 27 28  2  0
 28 29  1  0
 26 30  1  0
  3 31  1  0
  1 32  1  0
  1 33  1  0
  1 34  1  0
 28  2  1  0
 19 14  1  0
M  END
>  <cnnaffinity>  (1) 
4.80375

>  <plip>  (1) 
-0.07142857142857142

>  <filename>  (1) 
[H][C]([C](=[O])[N]([c]1[c]([H])[n][c]([H])[c]([H])[c]1[H])[C]([H])([H])[H])=[C]([H])[c]1[c]([H])[n][c]([H])[c]([C]([H])([H])[H])[c]1[H]

>  <combo1>  (1) 
-0.45153076330905406

$$$$
