
     RDKit          3D

 39 41  0  0  0  0  0  0  0  0999 V2000
    4.9190    1.7920   16.9824 H   0  0  0  0  0  0  0  0  0  0  0  0
    5.3932    1.3003   17.8279 C   0  0  0  0  0  0  0  0  0  0  0  0
    6.5570    0.6860   17.5669 N   0  0  0  0  0  0  0  0  0  0  0  0
    7.1516    0.0604   18.5896 C   0  0  0  0  0  0  0  0  0  0  0  0
    8.1014   -0.4180   18.3587 H   0  0  0  0  0  0  0  0  0  0  0  0
    6.6193   -0.0190   19.8894 C   0  0  0  0  0  0  0  0  0  0  0  0
    7.3786   -0.7109   21.0076 C   0  0  0  0  0  0  0  0  0  0  0  0
    6.7025   -0.9611   21.8390 H   0  0  0  0  0  0  0  0  0  0  0  0
    7.7960   -1.6585   20.6441 H   0  0  0  0  0  0  0  0  0  0  0  0
    8.5363    0.1164   21.4814 C   0  0  0  0  0  0  0  0  0  0  0  0
    9.8654   -0.0031   21.1547 C   0  0  0  0  0  0  0  0  0  0  0  0
   10.2698   -0.8175   20.5604 H   0  0  0  0  0  0  0  0  0  0  0  0
   10.5544    1.1165   21.6832 C   0  0  0  0  0  0  0  0  0  0  0  0
   11.6182    1.3003   21.5909 H   0  0  0  0  0  0  0  0  0  0  0  0
    9.6290    1.9097   22.3173 C   0  0  0  0  0  0  0  0  0  0  0  0
    9.7184    2.8721   22.8085 H   0  0  0  0  0  0  0  0  0  0  0  0
    8.4179    1.2704   22.2207 N   0  0  0  0  0  0  0  0  0  0  0  0
    7.2256    1.8902   22.5027 O   0  0  0  0  0  0  0  0  0  0  0  0
    6.5920    1.4301   23.7113 C   0  0  0  0  0  0  0  0  0  0  0  0
    5.6356    1.9473   23.6743 H   0  0  0  0  0  0  0  0  0  0  0  0
    6.3917    0.3563   23.6633 H   0  0  0  0  0  0  0  0  0  0  0  0
    7.3370    1.8007   24.9973 C   0  0  0  0  0  0  0  0  0  0  0  0
    7.5026    2.8844   25.0099 H   0  0  0  0  0  0  0  0  0  0  0  0
    8.3226    1.3224   24.9703 H   0  0  0  0  0  0  0  0  0  0  0  0
    6.5735    1.3779   26.2409 C   0  0  0  0  0  0  0  0  0  0  0  0
    5.6558    2.2429   26.8619 C   0  0  0  0  0  0  0  0  0  0  0  0
    5.5103    3.2427   26.4549 H   0  0  0  0  0  0  0  0  0  0  0  0
    4.9266    1.8330   27.9865 C   0  0  0  0  0  0  0  0  0  0  0  0
    4.2271    2.5206   28.4598 H   0  0  0  0  0  0  0  0  0  0  0  0
    5.1045    0.5431   28.5015 C   0  0  0  0  0  0  0  0  0  0  0  0
    4.5473    0.2218   29.3796 H   0  0  0  0  0  0  0  0  0  0  0  0
    6.0025   -0.3351   27.8839 C   0  0  0  0  0  0  0  0  0  0  0  0
    6.1435   -1.3419   28.2731 H   0  0  0  0  0  0  0  0  0  0  0  0
    6.7271    0.0832   26.7616 C   0  0  0  0  0  0  0  0  0  0  0  0
    7.4180   -0.6018   26.2729 H   0  0  0  0  0  0  0  0  0  0  0  0
    5.4226    0.6512   20.1447 C   0  0  0  0  0  0  0  0  0  0  0  0
    5.0289    0.6571   21.1660 H   0  0  0  0  0  0  0  0  0  0  0  0
    4.7920    1.3198   19.0922 C   0  0  0  0  0  0  0  0  0  0  0  0
    3.8621    1.8536   19.2429 H   0  0  0  0  0  0  0  0  0  0  0  0
  1  2  1  0
  2  3  2  0
  3  4  1  0
  4  5  1  0
  4  6  2  0
  6  7  1  0
  7  8  1  0
  7  9  1  0
  7 10  1  0
 10 11  2  0
 11 12  1  0
 11 13  1  0
 13 14  1  0
 13 15  2  0
 15 16  1  0
 15 17  1  0
 17 18  1  0
 18 19  1  0
 19 20  1  0
 19 21  1  0
 19 22  1  0
 22 23  1  0
 22 24  1  0
 22 25  1  0
 25 26  2  0
 26 27  1  0
 26 28  1  0
 28 29  1  0
 28 30  2  0
 30 31  1  0
 30 32  1  0
 32 33  1  0
 32 34  2  0
 34 35  1  0
  6 36  1  0
 36 37  1  0
 36 38  2  0
 38 39  1  0
 38  2  1  0
 17 10  1  0
 34 25  1  0
M  END
>  <cnnaffinity>  (1) 
5.0923

>  <plip>  (1) 
-0.0

>  <filename>  (1) 
[H][c]1[n][c]([H])[c]([C]([H])([H])[c]2[c]([H])[c]([H])[c]([H])[n]2[O][C]([H])([H])[C]([H])([H])[c]2[c]([H])[c]([H])[c]([H])[c]([H])[c]2[H])[c]([H])[c]1[H]

>  <combo1>  (1) 
-6.098088172776969e-06

$$$$
