
     RDKit          3D

 34 37  0  0  0  0  0  0  0  0999 V2000
    4.9280    1.7788   16.9983 H   0  0  0  0  0  0  0  0  0  0  0  0
    5.4035    1.2887   17.8453 C   0  0  0  0  0  0  0  0  0  0  0  0
    6.5654    0.6712   17.5878 N   0  0  0  0  0  0  0  0  0  0  0  0
    7.1705    0.0583   18.6087 C   0  0  0  0  0  0  0  0  0  0  0  0
    8.1174   -0.4278   18.3879 H   0  0  0  0  0  0  0  0  0  0  0  0
    6.6495    0.0136   19.9119 C   0  0  0  0  0  0  0  0  0  0  0  0
    7.4191   -0.6970   20.9302 C   0  0  0  0  0  0  0  0  0  0  0  0
    8.5419   -1.3303   20.7998 N   0  0  0  0  0  0  0  0  0  0  0  0
    8.8695   -1.8129   22.0587 N   0  0  0  0  0  0  0  0  0  0  0  0
    7.9254   -1.4398   22.8608 C   0  0  0  0  0  0  0  0  0  0  0  0
    7.7836   -1.7961   24.3040 C   0  0  0  0  0  0  0  0  0  0  0  0
    8.3212   -0.7735   25.3171 C   0  0  2  0  0  0  0  0  0  0  0  0
    8.1842   -1.1909   26.3200 H   0  0  0  0  0  0  0  0  0  0  0  0
    7.6216    0.5855   25.2152 C   0  0  0  0  0  0  0  0  0  0  0  0
    6.5996    0.5220   24.8304 H   0  0  0  0  0  0  0  0  0  0  0  0
    7.5818    1.0858   26.2002 H   0  0  0  0  0  0  0  0  0  0  0  0
    8.3649    1.3222   24.2648 O   0  0  0  0  0  0  0  0  0  0  0  0
    9.7183    0.9029   24.2489 C   0  0  0  0  0  0  0  0  0  0  0  0
    9.9953    0.7483   23.1991 H   0  0  0  0  0  0  0  0  0  0  0  0
   10.3843    1.6787   24.6645 H   0  0  0  0  0  0  0  0  0  0  0  0
    9.7932   -0.3997   25.0697 C   0  0  0  0  0  0  0  0  0  0  0  0
   10.3376   -1.1769   24.5262 H   0  0  0  0  0  0  0  0  0  0  0  0
   10.3206   -0.2394   26.0165 H   0  0  0  0  0  0  0  0  0  0  0  0
    6.5898   -2.6188   24.7339 C   0  0  0  0  0  0  0  0  0  0  0  0
    5.8451   -2.8931   23.9906 H   0  0  0  0  0  0  0  0  0  0  0  0
    6.1708   -2.4161   25.7170 H   0  0  0  0  0  0  0  0  0  0  0  0
    7.9429   -3.2564   24.6586 C   0  0  0  0  0  0  0  0  0  0  0  0
    8.4616   -3.5091   25.5813 H   0  0  0  0  0  0  0  0  0  0  0  0
    8.1347   -3.9551   23.8477 H   0  0  0  0  0  0  0  0  0  0  0  0
    6.9701   -0.7228   22.2111 O   0  0  0  0  0  0  0  0  0  0  0  0
    5.4262    0.6572   20.1718 C   0  0  0  0  0  0  0  0  0  0  0  0
    4.9877    0.6454   21.1736 H   0  0  0  0  0  0  0  0  0  0  0  0
    4.8018    1.3103   19.1099 C   0  0  0  0  0  0  0  0  0  0  0  0
    3.8712    1.8452   19.2527 H   0  0  0  0  0  0  0  0  0  0  0  0
  1  2  1  0
  2  3  2  0
  3  4  1  0
  4  5  1  0
  4  6  2  0
  6  7  1  0
  7  8  2  0
  8  9  1  0
  9 10  2  0
 10 11  1  0
 11 12  1  0
 12 13  1  1
 12 14  1  0
 14 15  1  0
 14 16  1  0
 14 17  1  0
 17 18  1  0
 18 19  1  0
 18 20  1  0
 18 21  1  0
 21 22  1  0
 21 23  1  0
 11 24  1  0
 24 25  1  0
 24 26  1  0
 24 27  1  0
 27 28  1  0
 27 29  1  0
 10 30  1  0
  6 31  1  0
 31 32  1  0
 31 33  2  0
 33 34  1  0
 33  2  1  0
 30  7  1  0
 27 11  1  0
 21 12  1  0
M  END
>  <cnnaffinity>  (1) 
4.91152

>  <plip>  (1) 
-0.0

>  <filename>  (1) 
[H][c]1[n][c]([H])[c](-[c]2[n][n][c]([C]3([C@]4([H])[C]([H])([H])[O][C]([H])([H])[C]4([H])[H])[C]([H])([H])[C]3([H])[H])[o]2)[c]([H])[c]1[H]

>  <combo1>  (1) 
-6.363069859395059e-06

$$$$
