
     RDKit          3D

 34 35  0  0  0  0  0  0  0  0999 V2000
    5.8833   -2.1973   21.6790 O   0  0  0  0  0  0  0  0  0  0  0  0
    6.8585   -1.5039   21.8752 C   0  0  0  0  0  0  0  0  0  0  0  0
    7.6103   -1.4959   23.2444 C   0  0  0  0  0  0  0  0  0  0  0  0
    7.0235   -0.7241   24.3757 N   0  0  0  0  0  0  0  0  0  0  0  0
    6.5078    0.5326   24.3708 C   0  0  0  0  0  0  0  0  0  0  0  0
    5.3080    0.9906   25.4146 S   0  0  0  0  0  0  0  0  0  0  0  0
    6.9989    1.4096   23.4424 N   0  0  0  0  0  0  0  0  0  0  0  0
    8.3679    1.6004   23.1549 C   0  0  0  0  0  0  0  0  0  0  0  0
    8.6953    2.1604   21.9186 C   0  0  0  0  0  0  0  0  0  0  0  0
   10.0319    2.3528   21.5780 C   0  0  0  0  0  0  0  0  0  0  0  0
   11.0474    2.0456   22.4904 C   0  0  0  0  0  0  0  0  0  0  0  0
   12.6795    2.4465   22.0963 Cl  0  0  0  0  0  0  0  0  0  0  0  0
   10.7120    1.4792   23.7292 C   0  0  0  0  0  0  0  0  0  0  0  0
   11.9286    1.0342   24.8760 Cl  0  0  0  0  0  0  0  0  0  0  0  0
    9.3748    1.2567   24.0624 C   0  0  0  0  0  0  0  0  0  0  0  0
    9.1285    0.7970   25.0137 H   0  0  0  0  0  0  0  0  0  0  0  0
   10.3251    2.7586   20.6196 H   0  0  0  0  0  0  0  0  0  0  0  0
    7.8756    2.3886   21.2444 H   0  0  0  0  0  0  0  0  0  0  0  0
    6.4447    2.2529   23.4305 H   0  0  0  0  0  0  0  0  0  0  0  0
    6.5577   -1.2476   25.1041 H   0  0  0  0  0  0  0  0  0  0  0  0
    8.6471   -1.1843   23.0834 H   0  0  0  0  0  0  0  0  0  0  0  0
    7.6471   -2.5378   23.5758 H   0  0  0  0  0  0  0  0  0  0  0  0
    7.4363   -0.7067   20.8998 N   0  0  0  0  0  0  0  0  0  0  0  0
    6.7356   -0.0246   19.8542 C   0  0  0  0  0  0  0  0  0  0  0  0
    5.5194    0.6128   20.1253 C   0  0  0  0  0  0  0  0  0  0  0  0
    4.8608    1.2949   19.0926 C   0  0  0  0  0  0  0  0  0  0  0  0
    5.4369    1.3152   17.8172 C   0  0  0  0  0  0  0  0  0  0  0  0
    6.6076    0.7177   17.5358 N   0  0  0  0  0  0  0  0  0  0  0  0
    7.2358    0.0745   18.5317 C   0  0  0  0  0  0  0  0  0  0  0  0
    8.1835   -0.3949   18.2698 H   0  0  0  0  0  0  0  0  0  0  0  0
    4.9379    1.8139   16.9883 H   0  0  0  0  0  0  0  0  0  0  0  0
    3.9166    1.8020   19.2606 H   0  0  0  0  0  0  0  0  0  0  0  0
    5.1119    0.5793   21.1374 H   0  0  0  0  0  0  0  0  0  0  0  0
    8.3580   -0.3615   21.1114 H   0  0  0  0  0  0  0  0  0  0  0  0
  1  2  2  0
  2  3  1  0
  3  4  1  0
  4  5  1  0
  5  6  2  0
  5  7  1  0
  7  8  1  0
  8  9  2  0
  9 10  1  0
 10 11  2  0
 11 12  1  0
 11 13  1  0
 13 14  1  0
 13 15  2  0
 15 16  1  0
 10 17  1  0
  9 18  1  0
  7 19  1  0
  4 20  1  0
  3 21  1  0
  3 22  1  0
  2 23  1  0
 23 24  1  0
 24 25  2  0
 25 26  1  0
 26 27  2  0
 27 28  1  0
 28 29  2  0
 29 30  1  0
 27 31  1  0
 26 32  1  0
 25 33  1  0
 23 34  1  0
 15  8  1  0
 29 24  1  0
M  END
>  <cnnaffinity>  (1) 
5.60817

>  <plip>  (1) 
-0.03571428571428571

>  <filename>  (1) 
[H][c]1[n][c]([H])[c]([N]([H])[C](=[O])[C]([H])([H])[N]([H])[C](=[S])[N]([H])[c]2[c]([H])[c]([H])[c]([Cl])[c]([Cl])[c]2[H])[c]([H])[c]1[H]

>  <combo1>  (1) 
-0.18793505579571734

$$$$
