
     RDKit          3D

 39 41  0  0  0  0  0  0  0  0999 V2000
    8.1535    3.6663   22.8560 C   0  0  0  0  0  0  0  0  0  0  0  0
    8.7510    2.2845   22.6976 C   0  0  0  0  0  0  0  0  0  0  0  0
    8.9116    2.0014   21.1297 N   0  0  0  0  0  4  0  0  0  0  0  0
    9.5438    0.6699   20.8453 C   0  0  0  0  0  0  0  0  0  0  0  0
    8.6876   -0.4338   21.3937 C   0  0  0  0  0  0  0  0  0  0  0  0
    8.8752   -1.3670   22.3946 C   0  0  0  0  0  0  0  0  0  0  0  0
    7.6224   -1.9997   22.5385 C   0  0  0  0  0  0  0  0  0  0  0  0
    6.7279   -1.5118   21.6933 N   0  0  0  0  0  0  0  0  0  0  0  0
    7.3833   -0.5649   20.9909 N   0  0  0  0  0  0  0  0  0  0  0  0
    6.6925    0.0741   19.9343 C   0  0  0  0  0  0  0  0  0  0  0  0
    5.4499    0.6721   20.1680 C   0  0  0  0  0  0  0  0  0  0  0  0
    4.8311    1.3244   19.1022 C   0  0  0  0  0  0  0  0  0  0  0  0
    5.4427    1.3097   17.8430 C   0  0  0  0  0  0  0  0  0  0  0  0
    6.5965    0.6695   17.5984 N   0  0  0  0  0  0  0  0  0  0  0  0
    7.1944    0.0492   18.6241 C   0  0  0  0  0  0  0  0  0  0  0  0
    8.1122   -0.4926   18.3999 H   0  0  0  0  0  0  0  0  0  0  0  0
    4.9784    1.8149   16.9982 H   0  0  0  0  0  0  0  0  0  0  0  0
    3.8850    1.8329   19.2386 H   0  0  0  0  0  0  0  0  0  0  0  0
    4.9882    0.6051   21.1557 H   0  0  0  0  0  0  0  0  0  0  0  0
    7.3349   -2.7927   23.2161 H   0  0  0  0  0  0  0  0  0  0  0  0
    9.7639   -1.5303   22.9889 H   0  0  0  0  0  0  0  0  0  0  0  0
   10.5275    0.6247   21.3225 H   0  0  0  0  0  0  0  0  0  0  0  0
    9.6929    0.5331   19.7720 H   0  0  0  0  0  0  0  0  0  0  0  0
    9.5086    2.7987   20.8089 H   0  0  0  0  0  0  0  0  0  0  0  0
    7.9825    2.0548   20.6589 H   0  0  0  0  0  0  0  0  0  0  0  0
   10.0885    2.1162   23.4595 C   0  0  0  0  0  0  0  0  0  0  0  0
   10.2290    1.2003   24.5141 C   0  0  0  0  0  0  0  0  0  0  0  0
   11.5040    0.9066   25.0010 C   0  0  0  0  0  0  0  0  0  0  0  0
   12.5923    1.5798   24.4505 C   0  0  0  0  0  0  0  0  0  0  0  0
   12.3299    2.5932   23.5245 C   0  0  0  0  0  0  0  0  0  0  0  0
   13.6409    3.5984   22.9624 Cl  0  0  0  0  0  0  0  0  0  0  0  0
   11.1293    2.8652   23.0388 N   0  0  0  0  0  0  0  0  0  0  0  0
   13.6083    1.3420   24.7094 H   0  0  0  0  0  0  0  0  0  0  0  0
   11.6389    0.1857   25.8125 H   0  0  0  0  0  0  0  0  0  0  0  0
    9.3496    0.7461   24.9484 H   0  0  0  0  0  0  0  0  0  0  0  0
    8.0598    1.5252   23.0673 H   0  0  0  0  0  0  0  0  0  0  0  0
    7.9950    3.8927   23.9167 H   0  0  0  0  0  0  0  0  0  0  0  0
    8.8371    4.4142   22.4376 H   0  0  0  0  0  0  0  0  0  0  0  0
    7.1774    3.7376   22.3593 H   0  0  0  0  0  0  0  0  0  0  0  0
  1  2  1  0
  2  3  1  0
  3  4  1  0
  4  5  1  0
  5  6  2  0
  6  7  1  0
  7  8  2  0
  8  9  1  0
  9 10  1  0
 10 11  2  0
 11 12  1  0
 12 13  2  0
 13 14  1  0
 14 15  2  0
 15 16  1  0
 13 17  1  0
 12 18  1  0
 11 19  1  0
  7 20  1  0
  6 21  1  0
  4 22  1  0
  4 23  1  0
  3 24  1  0
  3 25  1  0
  2 26  1  0
 26 27  2  0
 27 28  1  0
 28 29  2  0
 29 30  1  0
 30 31  1  0
 30 32  2  0
 29 33  1  0
 28 34  1  0
 27 35  1  0
  2 36  1  0
  1 37  1  0
  1 38  1  0
  1 39  1  0
  9  5  1  0
 15 10  1  0
 32 26  1  0
M  CHG  1   3   1
M  END
>  <cnnaffinity>  (1) 
5.648

>  <plip>  (1) 
-0.12903225806451613

>  <filename>  (1) 
[H][c]1[n][c]([H])[c](-[n]2[n][c]([H])[c]([H])[c]2[C]([H])([H])[N+]([H])([H])[C]([H])([c]2[n][c]([Cl])[c]([H])[c]([H])[c]2[H])[C]([H])([H])[H])[c]([H])[c]1[H]

>  <combo1>  (1) 
-0.7716795780902024

$$$$
