
     RDKit          3D

 36 38  0  0  0  0  0  0  0  0999 V2000
    4.9181    1.7969   16.9865 H   0  0  0  0  0  0  0  0  0  0  0  0
    5.3987    1.3036   17.8295 C   0  0  0  0  0  0  0  0  0  0  0  0
    6.5603    0.6865   17.5670 N   0  0  0  0  0  0  0  0  0  0  0  0
    7.1826    0.0762   18.5853 C   0  0  0  0  0  0  0  0  0  0  0  0
    8.1168   -0.4298   18.3500 H   0  0  0  0  0  0  0  0  0  0  0  0
    6.6751    0.0259   19.9029 C   0  0  0  0  0  0  0  0  0  0  0  0
    7.3542   -0.6651   20.9641 N   0  0  0  0  0  0  0  0  0  0  0  0
    8.6625   -0.4518   21.4368 C   0  0  0  0  0  0  0  0  0  0  0  0
    9.5502    0.6292   20.9399 C   0  0  0  0  0  0  0  0  0  0  0  0
    9.6503    0.5289   19.8568 H   0  0  0  0  0  0  0  0  0  0  0  0
   10.5388    0.5142   21.3916 H   0  0  0  0  0  0  0  0  0  0  0  0
    9.0532    2.0459   21.2252 C   0  0  0  0  0  0  0  0  0  0  0  0
    8.0677    2.1857   20.7429 H   0  0  0  0  0  0  0  0  0  0  0  0
    9.7493    2.7377   20.7400 H   0  0  0  0  0  0  0  0  0  0  0  0
    9.0274    2.3923   22.6378 N   0  0  0  0  0  0  0  0  0  0  0  0
    7.8763    1.8648   23.3814 C   0  0  0  0  0  0  0  0  0  0  0  0
    7.0595    1.5713   22.7002 H   0  0  0  0  0  0  0  0  0  0  0  0
    8.1472    0.9405   23.9087 H   0  0  0  0  0  0  0  0  0  0  0  0
    7.4435    2.9860   24.3517 C   0  0  0  0  0  0  0  0  0  0  0  0
    6.4645    3.3801   24.0552 H   0  0  0  0  0  0  0  0  0  0  0  0
    7.3321    2.6158   25.3759 H   0  0  0  0  0  0  0  0  0  0  0  0
    8.5375    4.0648   24.2457 C   0  0  0  0  0  0  0  0  0  0  0  0
    8.1424    5.0821   24.3410 H   0  0  0  0  0  0  0  0  0  0  0  0
    9.2981    3.9422   25.0253 H   0  0  0  0  0  0  0  0  0  0  0  0
    9.1418    3.8361   22.8641 C   0  0  0  0  0  0  0  0  0  0  0  0
   10.1952    4.1454   22.7997 H   0  0  0  0  0  0  0  0  0  0  0  0
    8.5972    4.4231   22.0976 H   0  0  0  0  0  0  0  0  0  0  0  0
    8.8544   -1.3188   22.4364 C   0  0  0  0  0  0  0  0  0  0  0  0
    9.6928   -1.4892   23.0953 H   0  0  0  0  0  0  0  0  0  0  0  0
    7.7195   -2.0723   22.6290 O   0  0  0  0  0  0  0  0  0  0  0  0
    6.7741   -1.6938   21.7175 C   0  0  0  0  0  0  0  0  0  0  0  0
    5.6943   -2.2154   21.6039 O   0  0  0  0  0  0  0  0  0  0  0  0
    5.4545    0.6574   20.1560 C   0  0  0  0  0  0  0  0  0  0  0  0
    5.0320    0.5892   21.1617 H   0  0  0  0  0  0  0  0  0  0  0  0
    4.8138    1.3183   19.1013 C   0  0  0  0  0  0  0  0  0  0  0  0
    3.8763    1.8390   19.2518 H   0  0  0  0  0  0  0  0  0  0  0  0
  1  2  1  0
  2  3  2  0
  3  4  1  0
  4  5  1  0
  4  6  2  0
  6  7  1  0
  7  8  1  0
  8  9  1  0
  9 10  1  0
  9 11  1  0
  9 12  1  0
 12 13  1  0
 12 14  1  0
 12 15  1  0
 15 16  1  0
 16 17  1  0
 16 18  1  0
 16 19  1  0
 19 20  1  0
 19 21  1  0
 19 22  1  0
 22 23  1  0
 22 24  1  0
 22 25  1  0
 25 26  1  0
 25 27  1  0
  8 28  2  0
 28 29  1  0
 28 30  1  0
 30 31  1  0
 31 32  2  0
  6 33  1  0
 33 34  1  0
 33 35  2  0
 35 36  1  0
 35  2  1  0
 31  7  1  0
 25 15  1  0
M  END
>  <cnnaffinity>  (1) 
4.71517

>  <plip>  (1) 
-0.07142857142857142

>  <filename>  (1) 
[H][c]1[n][c]([H])[c](-[n]2[c]([C]([H])([H])[C]([H])([H])[N]3[C]([H])([H])[C]([H])([H])[C]([H])([H])[C]3([H])[H])[c]([H])[o][c]2=[O])[c]([H])[c]1[H]

>  <combo1>  (1) 
-0.43294275316688724

$$$$
