
     RDKit          3D

 32 34  0  0  0  0  0  0  0  0999 V2000
    9.4646   -0.2197   20.6012 H   0  0  0  0  0  0  0  0  0  0  0  0
    8.7362   -0.8113   21.1414 C   0  0  0  0  0  0  0  0  0  0  0  0
    7.4262   -0.8680   20.8615 C   0  0  0  0  0  0  0  0  0  0  0  0
    6.7278   -0.0901   19.8127 C   0  0  0  0  0  0  0  0  0  0  0  0
    7.2585    0.0767   18.5126 C   0  0  0  0  0  0  0  0  0  0  0  0
    8.2169   -0.3725   18.2512 H   0  0  0  0  0  0  0  0  0  0  0  0
    6.6412    0.7390   17.5262 N   0  0  0  0  0  0  0  0  0  0  0  0
    5.4601    1.3082   17.8195 C   0  0  0  0  0  0  0  0  0  0  0  0
    4.9776    1.8441   17.0063 H   0  0  0  0  0  0  0  0  0  0  0  0
    4.8666    1.2566   19.0836 C   0  0  0  0  0  0  0  0  0  0  0  0
    3.9381    1.7862   19.2676 H   0  0  0  0  0  0  0  0  0  0  0  0
    5.5089    0.5454   20.0972 C   0  0  0  0  0  0  0  0  0  0  0  0
    5.1007    0.4946   21.1068 H   0  0  0  0  0  0  0  0  0  0  0  0
    6.7630   -1.8484   21.8117 C   0  0  0  0  0  0  0  0  0  0  0  0
    5.6501   -2.3343   21.7614 O   0  0  0  0  0  0  0  0  0  0  0  0
    7.7680   -2.1159   22.7530 N   0  0  0  0  0  0  0  0  0  0  0  0
    7.7359   -2.8322   23.9426 N   0  0  0  0  0  0  0  0  0  0  0  0
    8.0727   -3.7838   23.8659 H   0  0  0  0  0  0  0  0  0  0  0  0
    6.6333   -2.7891   24.8194 C   0  0  0  0  0  0  0  0  0  0  0  0
    5.9787   -1.6147   25.2018 C   0  0  0  0  0  0  0  0  0  0  0  0
    6.2767   -0.6727   24.7509 H   0  0  0  0  0  0  0  0  0  0  0  0
    4.9538   -1.6633   26.1567 C   0  0  0  0  0  0  0  0  0  0  0  0
    4.4482   -0.7526   26.4687 H   0  0  0  0  0  0  0  0  0  0  0  0
    4.5808   -2.8908   26.7130 C   0  0  0  0  0  0  0  0  0  0  0  0
    3.3152   -2.9528   27.9079 Cl  0  0  0  0  0  0  0  0  0  0  0  0
    5.2255   -4.0743   26.3347 C   0  0  0  0  0  0  0  0  0  0  0  0
    4.9292   -5.0200   26.7814 H   0  0  0  0  0  0  0  0  0  0  0  0
    6.2548   -4.0122   25.3965 C   0  0  0  0  0  0  0  0  0  0  0  0
    6.7725   -4.9199   25.0900 H   0  0  0  0  0  0  0  0  0  0  0  0
    9.0707   -1.6360   22.3342 C   0  0  0  0  0  0  0  0  0  0  0  0
    9.7400   -2.4743   22.0929 H   0  0  0  0  0  0  0  0  0  0  0  0
    9.5534   -1.0667   23.1368 H   0  0  0  0  0  0  0  0  0  0  0  0
  1  2  1  0
  2  3  2  0
  3  4  1  0
  4  5  2  0
  5  6  1  0
  5  7  1  0
  7  8  2  0
  8  9  1  0
  8 10  1  0
 10 11  1  0
 10 12  2  0
 12 13  1  0
  3 14  1  0
 14 15  2  0
 14 16  1  0
 16 17  1  0
 17 18  1  0
 17 19  1  0
 19 20  2  0
 20 21  1  0
 20 22  1  0
 22 23  1  0
 22 24  2  0
 24 25  1  0
 24 26  1  0
 26 27  1  0
 26 28  2  0
 28 29  1  0
 16 30  1  0
 30 31  1  0
 30 32  1  0
 30  2  1  0
 12  4  1  0
 28 19  1  0
M  END
>  <cnnaffinity>  (1) 
4.98137

>  <plip>  (1) 
-0.07142857142857142

>  <filename>  (1) 
[H][C]1=[C]([c]2[c]([H])[n][c]([H])[c]([H])[c]2[H])[C](=[O])[N]([N]([H])[c]2[c]([H])[c]([H])[c]([Cl])[c]([H])[c]2[H])[C]1([H])[H]

>  <combo1>  (1) 
-0.4150855257653889

$$$$
