
     RDKit          3D

 40 41  0  0  0  0  0  0  0  0999 V2000
    8.8978    0.2754   21.3126 H   0  0  0  0  0  0  0  0  0  0  0  0
    8.6540   -0.6119   20.9974 O   0  0  0  0  0  0  0  0  0  0  0  0
    7.2478   -0.6227   21.0650 N   0  0  0  0  0  0  0  0  0  0  0  0
    6.6245   -1.6882   21.7863 C   0  0  0  0  0  0  0  0  0  0  0  0
    5.4986   -2.0632   21.5316 O   0  0  0  0  0  0  0  0  0  0  0  0
    7.4035   -2.1609   22.8375 N   0  0  0  0  0  0  0  0  0  0  0  0
    8.3949   -2.1333   22.6506 H   0  0  0  0  0  0  0  0  0  0  0  0
    6.9689   -3.1090   23.7809 N   0  0  0  0  0  0  0  0  0  0  0  0
    6.3230   -2.7123   24.4525 H   0  0  0  0  0  0  0  0  0  0  0  0
    6.5536   -4.4063   23.4047 C   0  0  0  0  0  0  0  0  0  0  0  0
    6.8502   -4.9610   22.3681 O   0  0  0  0  0  0  0  0  0  0  0  0
    5.8022   -4.9843   24.3968 N   0  0  0  0  0  0  0  0  0  0  0  0
    5.4747   -4.3713   25.1230 H   0  0  0  0  0  0  0  0  0  0  0  0
    4.9709   -6.1399   24.0956 C   0  0  0  0  0  0  0  0  0  0  0  0
    5.5893   -6.8220   23.4985 H   0  0  0  0  0  0  0  0  0  0  0  0
    4.5451   -6.8355   25.4020 C   0  0  0  0  0  0  0  0  0  0  0  0
    5.4261   -7.3299   25.8215 H   0  0  0  0  0  0  0  0  0  0  0  0
    4.2621   -6.0548   26.1192 H   0  0  0  0  0  0  0  0  0  0  0  0
    3.3609   -7.8274   25.2208 C   0  0  0  0  0  0  0  0  0  0  0  0
    2.4418   -7.3685   25.6056 H   0  0  0  0  0  0  0  0  0  0  0  0
    3.5163   -8.7203   25.8345 H   0  0  0  0  0  0  0  0  0  0  0  0
    3.1878   -8.2041   23.7418 C   0  0  0  0  0  0  0  0  0  0  0  0
    2.4576   -9.0062   23.5954 H   0  0  0  0  0  0  0  0  0  0  0  0
    4.1535   -8.5821   23.3999 H   0  0  0  0  0  0  0  0  0  0  0  0
    2.8827   -6.9846   22.8512 C   0  0  0  0  0  0  0  0  0  0  0  0
    3.0881   -7.2558   21.8071 H   0  0  0  0  0  0  0  0  0  0  0  0
    1.8183   -6.7250   22.9082 H   0  0  0  0  0  0  0  0  0  0  0  0
    3.7302   -5.7543   23.2656 C   0  0  0  0  0  0  0  0  0  0  0  0
    4.0379   -5.1607   22.3952 H   0  0  0  0  0  0  0  0  0  0  0  0
    3.1202   -5.0939   23.8940 H   0  0  0  0  0  0  0  0  0  0  0  0
    6.6248    0.0202   19.9540 C   0  0  0  0  0  0  0  0  0  0  0  0
    7.2733    0.0836   18.7037 C   0  0  0  0  0  0  0  0  0  0  0  0
    8.2500   -0.3799   18.5847 H   0  0  0  0  0  0  0  0  0  0  0  0
    6.7502    0.6885   17.6338 N   0  0  0  0  0  0  0  0  0  0  0  0
    5.5583    1.2923   17.7748 C   0  0  0  0  0  0  0  0  0  0  0  0
    5.1630    1.7911   16.8897 H   0  0  0  0  0  0  0  0  0  0  0  0
    4.8531    1.3113   18.9836 C   0  0  0  0  0  0  0  0  0  0  0  0
    3.9097    1.8404   19.0375 H   0  0  0  0  0  0  0  0  0  0  0  0
    5.3779    0.6485   20.0980 C   0  0  0  0  0  0  0  0  0  0  0  0
    4.8613    0.6354   21.0587 H   0  0  0  0  0  0  0  0  0  0  0  0
  1  2  1  0
  2  3  1  0
  3  4  1  0
  4  5  2  0
  4  6  1  0
  6  7  1  0
  6  8  1  0
  8  9  1  0
  8 10  1  0
 10 11  2  0
 10 12  1  0
 12 13  1  0
 12 14  1  0
 14 15  1  0
 14 16  1  0
 16 17  1  0
 16 18  1  0
 16 19  1  0
 19 20  1  0
 19 21  1  0
 19 22  1  0
 22 23  1  0
 22 24  1  0
 22 25  1  0
 25 26  1  0
 25 27  1  0
 25 28  1  0
 28 29  1  0
 28 30  1  0
  3 31  1  0
 31 32  2  0
 32 33  1  0
 32 34  1  0
 34 35  2  0
 35 36  1  0
 35 37  1  0
 37 38  1  0
 37 39  2  0
 39 40  1  0
 28 14  1  0
 39 31  1  0
M  END
>  <cnnaffinity>  (1) 
4.97525

>  <plip>  (1) 
-0.13793103448275862

>  <filename>  (1) 
[H][O][N]([C](=[O])[N]([H])[N]([H])[C](=[O])[N]([H])[C]1([H])[C]([H])([H])[C]([H])([H])[C]([H])([H])[C]([H])([H])[C]1([H])[H])[c]1[c]([H])[n][c]([H])[c]([H])[c]1[H]

>  <combo1>  (1) 
-0.7798365865971477

$$$$
