
     RDKit          3D

 24 25  0  0  0  0  0  0  0  0999 V2000
    5.0761    1.8037   17.0012 H   0  0  0  0  0  0  0  0  0  0  0  0
    5.4839    1.2657   17.8550 C   0  0  0  0  0  0  0  0  0  0  0  0
    6.6262    0.5960   17.6312 N   0  0  0  0  0  0  0  0  0  0  0  0
    7.1761   -0.0638   18.6558 C   0  0  0  0  0  0  0  0  0  0  0  0
    8.1155   -0.5761   18.4699 H   0  0  0  0  0  0  0  0  0  0  0  0
    6.6174   -0.1095   19.9495 C   0  0  0  0  0  0  0  0  0  0  0  0
    7.1918   -0.7529   21.0778 N   0  0  0  0  0  0  0  0  0  0  0  0
    8.4048   -1.0509   20.9571 N   0  0  0  0  0  0  0  0  0  0  0  0
    8.9422   -1.5182   22.1020 N   0  0  0  0  0  0  0  0  0  0  0  0
   10.2591   -1.9891   22.1429 C   0  0  0  0  0  0  0  0  0  0  0  0
   11.1584   -1.6933   21.4004 O   0  0  0  0  0  0  0  0  0  0  0  0
   10.2782   -2.9438   23.3261 C   0  0  0  0  0  0  0  0  0  0  0  0
   10.0131   -3.9361   22.9634 H   0  0  0  0  0  0  0  0  0  0  0  0
   11.2757   -3.0197   23.7534 H   0  0  0  0  0  0  0  0  0  0  0  0
    9.1795   -2.4342   24.2702 C   0  0  0  0  0  0  0  0  0  0  0  0
    9.5810   -1.7230   24.9993 H   0  0  0  0  0  0  0  0  0  0  0  0
    8.7056   -3.2568   24.8195 H   0  0  0  0  0  0  0  0  0  0  0  0
    8.1860   -1.6995   23.3561 C   0  0  0  0  0  0  0  0  0  0  0  0
    7.8571   -0.7221   23.7313 H   0  0  0  0  0  0  0  0  0  0  0  0
    7.2778   -2.2572   23.1112 H   0  0  0  0  0  0  0  0  0  0  0  0
    5.4087    0.5693   20.1597 C   0  0  0  0  0  0  0  0  0  0  0  0
    4.9587    0.5544   21.1529 H   0  0  0  0  0  0  0  0  0  0  0  0
    4.8371    1.2810   19.0992 C   0  0  0  0  0  0  0  0  0  0  0  0
    3.9243    1.8588   19.2166 H   0  0  0  0  0  0  0  0  0  0  0  0
  1  2  1  0
  2  3  2  0
  3  4  1  0
  4  5  1  0
  4  6  2  0
  6  7  1  0
  7  8  2  3
  8  9  1  0
  9 10  1  0
 10 11  2  0
 10 12  1  0
 12 13  1  0
 12 14  1  0
 12 15  1  0
 15 16  1  0
 15 17  1  0
 15 18  1  0
 18 19  1  0
 18 20  1  0
  6 21  1  0
 21 22  1  0
 21 23  2  0
 23 24  1  0
 23  2  1  0
 18  9  1  0
M  END
>  <cnnaffinity>  (1) 
4.54549

>  <plip>  (1) 
-0.07142857142857142

>  <filename>  (1) 
[H][c]1[n][c]([H])[c]([N]=[N][N]2[C](=[O])[C]([H])([H])[C]([H])([H])[C]2([H])[H])[c]([H])[c]1[H]

>  <combo1>  (1) 
-0.5689933670912186

$$$$
