
     RDKit          3D

 30 32  0  0  0  0  0  0  0  0999 V2000
    6.6809   -1.1762   21.6755 H   0  0  0  0  0  0  0  0  0  0  0  0
    7.3117   -0.6442   20.9639 C   0  0  0  0  0  0  0  0  0  0  0  0
    8.6268   -0.6539   21.2031 C   0  0  0  0  0  0  0  0  0  0  0  0
    9.4781   -0.0312   20.3498 F   0  0  0  0  0  0  0  0  0  0  0  0
    9.2828   -1.3608   22.3168 C   0  0  0  0  0  0  0  0  0  0  0  0
   10.5969   -1.9128   22.1253 C   0  0  0  0  0  0  0  0  0  0  0  0
   11.1600   -1.6334   21.2343 H   0  0  0  0  0  0  0  0  0  0  0  0
   11.1054   -2.7916   23.0454 C   0  0  0  0  0  0  0  0  0  0  0  0
   12.0750   -3.2656   22.9410 H   0  0  0  0  0  0  0  0  0  0  0  0
   10.3726   -3.1214   24.2265 C   0  0  0  0  0  0  0  0  0  0  0  0
   10.9154   -4.0392   25.0800 N   0  0  0  0  0  0  0  0  0  0  0  0
   10.3128   -4.2299   26.2343 C   0  0  0  0  0  0  0  0  0  0  0  0
   10.8148   -4.8972   26.9385 H   0  0  0  0  0  0  0  0  0  0  0  0
    9.1167   -3.5590   26.6309 C   0  0  0  0  0  0  0  0  0  0  0  0
    8.7072   -3.7673   27.6131 H   0  0  0  0  0  0  0  0  0  0  0  0
    8.5393   -2.6589   25.7691 C   0  0  0  0  0  0  0  0  0  0  0  0
    7.6561   -2.0818   26.0412 H   0  0  0  0  0  0  0  0  0  0  0  0
    9.1406   -2.4428   24.4950 C   0  0  0  0  0  0  0  0  0  0  0  0
    8.5892   -1.6011   23.4966 C   0  0  0  0  0  0  0  0  0  0  0  0
    7.6217   -1.1312   23.6858 H   0  0  0  0  0  0  0  0  0  0  0  0
    6.6154    0.0174   19.8457 C   0  0  0  0  0  0  0  0  0  0  0  0
    7.1440    0.0873   18.5395 C   0  0  0  0  0  0  0  0  0  0  0  0
    8.0977   -0.3871   18.3125 H   0  0  0  0  0  0  0  0  0  0  0  0
    6.5326    0.7074   17.5227 N   0  0  0  0  0  0  0  0  0  0  0  0
    5.3692    1.3219   17.7870 C   0  0  0  0  0  0  0  0  0  0  0  0
    4.9084    1.8423   16.9520 H   0  0  0  0  0  0  0  0  0  0  0  0
    4.7570    1.3226   19.0457 C   0  0  0  0  0  0  0  0  0  0  0  0
    3.8295    1.8651   19.1934 H   0  0  0  0  0  0  0  0  0  0  0  0
    5.3849    0.6463   20.0891 C   0  0  0  0  0  0  0  0  0  0  0  0
    4.9609    0.6290   21.0930 H   0  0  0  0  0  0  0  0  0  0  0  0
  1  2  1  0
  2  3  2  3
  3  4  1  0
  3  5  1  0
  5  6  2  0
  6  7  1  0
  6  8  1  0
  8  9  1  0
  8 10  2  0
 10 11  1  0
 11 12  2  0
 12 13  1  0
 12 14  1  0
 14 15  1  0
 14 16  2  0
 16 17  1  0
 16 18  1  0
 18 19  2  0
 19 20  1  0
  2 21  1  0
 21 22  2  0
 22 23  1  0
 22 24  1  0
 24 25  2  0
 25 26  1  0
 25 27  1  0
 27 28  1  0
 27 29  2  0
 29 30  1  0
 19  5  1  0
 29 21  1  0
 18 10  1  0
M  END
>  <cnnaffinity>  (1) 
5.13291

>  <plip>  (1) 
-0.03571428571428571

>  <filename>  (1) 
[H][C](=[C]([F])[c]1[c]([H])[c]([H])[c]2[n][c]([H])[c]([H])[c]([H])[c]2[c]1[H])[c]1[c]([H])[n][c]([H])[c]([H])[c]1[H]

>  <combo1>  (1) 
-0.24415473888255934

$$$$
