
     RDKit          3D

 30 31  0  0  0  0  0  0  0  0999 V2000
    5.9202   -6.6432   18.2477 H   0  0  0  0  0  0  0  0  0  0  0  0
    5.7341   -6.1452   19.1996 C   0  0  0  0  0  0  0  0  0  0  0  0
    6.0410   -4.8511   19.2578 N   0  0  0  0  0  0  0  0  0  0  0  0
    5.8523   -4.2383   20.4339 C   0  0  0  0  0  0  0  0  0  0  0  0
    6.1213   -2.9027   20.3366 N   0  0  0  0  0  0  0  0  0  0  0  0
    6.5338   -2.8383   19.4134 H   0  0  0  0  0  0  0  0  0  0  0  0
    6.6089   -2.0400   21.4198 C   0  0  0  0  0  0  0  0  0  0  0  0
    7.2588   -2.5765   22.1305 H   0  0  0  0  0  0  0  0  0  0  0  0
    5.7354   -1.7192   21.9917 H   0  0  0  0  0  0  0  0  0  0  0  0
    7.3745   -0.7030   21.0337 C   0  0  2  0  0  0  0  0  0  0  0  0
    7.2729   -0.0736   21.9320 H   0  0  0  0  0  0  0  0  0  0  0  0
    6.6883    0.0358   19.9087 C   0  0  0  0  0  0  0  0  0  0  0  0
    7.2264    0.0831   18.6172 C   0  0  0  0  0  0  0  0  0  0  0  0
    8.1954   -0.3631   18.4109 H   0  0  0  0  0  0  0  0  0  0  0  0
    6.6328    0.6747   17.5678 N   0  0  0  0  0  0  0  0  0  0  0  0
    5.4593    1.2796   17.7896 C   0  0  0  0  0  0  0  0  0  0  0  0
    5.0011    1.7660   16.9287 H   0  0  0  0  0  0  0  0  0  0  0  0
    4.8277    1.3029   19.0387 C   0  0  0  0  0  0  0  0  0  0  0  0
    3.8841    1.8245   19.1552 H   0  0  0  0  0  0  0  0  0  0  0  0
    5.4486    0.6649   20.1138 C   0  0  0  0  0  0  0  0  0  0  0  0
    4.9879    0.6556   21.1052 H   0  0  0  0  0  0  0  0  0  0  0  0
    8.8176   -0.7609   20.7783 N   0  0  0  0  0  0  0  0  0  0  0  0
    9.3331   -0.9068   21.6386 H   0  0  0  0  0  0  0  0  0  0  0  0
    9.0665   -1.5130   20.1410 H   0  0  0  0  0  0  0  0  0  0  0  0
    5.3790   -4.8744   21.5907 C   0  0  0  0  0  0  0  0  0  0  0  0
    5.3250   -4.3085   22.5125 H   0  0  0  0  0  0  0  0  0  0  0  0
    5.0188   -6.2120   21.4943 C   0  0  0  0  0  0  0  0  0  0  0  0
    4.6104   -6.7501   22.3511 H   0  0  0  0  0  0  0  0  0  0  0  0
    5.1902   -6.8523   20.2674 C   0  0  0  0  0  0  0  0  0  0  0  0
    4.8624   -7.8671   20.1006 H   0  0  0  0  0  0  0  0  0  0  0  0
  1  2  1  0
  2  3  2  0
  3  4  1  0
  4  5  1  0
  5  6  1  0
  5  7  1  0
  7  8  1  0
  7  9  1  0
  7 10  1  0
 10 11  1  1
 10 12  1  0
 12 13  2  0
 13 14  1  0
 13 15  1  0
 15 16  2  0
 16 17  1  0
 16 18  1  0
 18 19  1  0
 18 20  2  0
 20 21  1  0
 10 22  1  0
 22 23  1  0
 22 24  1  0
  4 25  2  0
 25 26  1  0
 25 27  1  0
 27 28  1  0
 27 29  2  0
 29 30  1  0
 29  2  1  0
 20 12  1  0
M  END
>  <cnnaffinity>  (1) 
4.42702

>  <plip>  (1) 
-0.1

>  <filename>  (1) 
[H][c]1[n][c]([N]([H])[C]([H])([H])[C@]([H])([c]2[c]([H])[n][c]([H])[c]([H])[c]2[H])[N]([H])[H])[c]([H])[c]([H])[c]1[H]

>  <combo1>  (1) 
-0.6886916318199919

$$$$
