
     RDKit          3D

 36 39  0  0  0  0  0  0  0  0999 V2000
    8.7492   -0.5598   26.4741 F   0  0  0  0  0  0  0  0  0  0  0  0
    8.0572    0.4795   25.9799 C   0  0  0  0  0  0  0  0  0  0  0  0
    8.6158    1.7598   26.0589 C   0  0  0  0  0  0  0  0  0  0  0  0
    7.9851    2.8587   25.6291 N   0  0  0  0  0  0  0  0  0  0  0  0
    6.7577    2.7078   25.1053 C   0  0  0  0  0  0  0  0  0  0  0  0
    6.1433    1.4604   24.9537 C   0  0  0  0  0  0  0  0  0  0  0  0
    6.8146    0.2983   25.3645 C   0  0  0  0  0  0  0  0  0  0  0  0
    6.2386   -1.3059   24.8289 S   0  0  0  0  0  0  0  0  0  0  0  0
    7.0825   -1.2192   23.2566 C   0  0  0  0  0  0  0  0  0  0  0  0
    6.4218   -0.6627   22.2454 N   0  0  0  0  0  0  0  0  0  0  0  0
    7.0833   -0.4791   21.1041 C   0  0  0  0  0  0  0  0  0  0  0  0
    6.3742    0.1453   19.9778 C   0  0  0  0  0  0  0  0  0  0  0  0
    5.1399    0.8118   20.0527 C   0  0  0  0  0  0  0  0  0  0  0  0
    4.6613    1.4190   18.8912 C   0  0  0  0  0  0  0  0  0  0  0  0
    5.4036    1.3179   17.7087 C   0  0  0  0  0  0  0  0  0  0  0  0
    6.5578    0.6461   17.6199 N   0  0  0  0  0  0  0  0  0  0  0  0
    7.0185    0.0838   18.7358 C   0  0  0  0  0  0  0  0  0  0  0  0
    7.9545   -0.4589   18.6547 H   0  0  0  0  0  0  0  0  0  0  0  0
    5.0629    1.7979   16.7935 H   0  0  0  0  0  0  0  0  0  0  0  0
    3.7373    1.9865   18.8821 H   0  0  0  0  0  0  0  0  0  0  0  0
    4.5716    0.8550   20.9853 H   0  0  0  0  0  0  0  0  0  0  0  0
    8.3503   -0.8351   20.8852 N   0  0  0  0  0  0  0  0  0  0  0  0
    8.9720   -1.4116   21.8980 C   0  0  0  0  0  0  0  0  0  0  0  0
    8.4197   -1.5988   23.1603 C   0  0  0  0  0  0  0  0  0  0  0  0
    9.4441   -2.2142   24.0844 C   0  0  0  0  0  0  0  0  0  0  0  0
   10.4050   -2.8879   23.0765 C   0  0  0  0  0  0  0  0  0  0  0  0
   10.3302   -2.0214   21.7936 C   0  0  0  0  0  0  0  0  0  0  0  0
   10.3766   -2.5745   20.8531 H   0  0  0  0  0  0  0  0  0  0  0  0
   11.1096   -1.2512   21.7454 H   0  0  0  0  0  0  0  0  0  0  0  0
   11.4133   -3.0261   23.4777 H   0  0  0  0  0  0  0  0  0  0  0  0
   10.0114   -3.8863   22.8647 H   0  0  0  0  0  0  0  0  0  0  0  0
    9.9914   -1.4367   24.6358 H   0  0  0  0  0  0  0  0  0  0  0  0
    9.0194   -2.9098   24.8189 H   0  0  0  0  0  0  0  0  0  0  0  0
    5.1838    1.3604   24.4562 H   0  0  0  0  0  0  0  0  0  0  0  0
    6.2575    3.6166   24.7786 H   0  0  0  0  0  0  0  0  0  0  0  0
    9.6164    1.8721   26.4684 H   0  0  0  0  0  0  0  0  0  0  0  0
  1  2  1  0
  2  3  2  0
  3  4  1  0
  4  5  2  0
  5  6  1  0
  6  7  2  0
  7  8  1  0
  8  9  1  0
  9 10  2  0
 10 11  1  0
 11 12  1  0
 12 13  2  0
 13 14  1  0
 14 15  2  0
 15 16  1  0
 16 17  2  0
 17 18  1  0
 15 19  1  0
 14 20  1  0
 13 21  1  0
 11 22  2  0
 22 23  1  0
 23 24  2  0
 24 25  1  0
 25 26  1  0
 26 27  1  0
 27 28  1  0
 27 29  1  0
 26 30  1  0
 26 31  1  0
 25 32  1  0
 25 33  1  0
  6 34  1  0
  5 35  1  0
  3 36  1  0
  7  2  1  0
 24  9  1  0
 17 12  1  0
 27 23  1  0
M  END
>  <cnnaffinity>  (1) 
5.95978

>  <plip>  (1) 
-0.0

>  <filename>  (1) 
[H][c]1[n][c]([H])[c](-[c]2[n][c]([S][c]3[c]([H])[c]([H])[n][c]([H])[c]3[F])[c]3[c]([n]2)[C]([H])([H])[C]([H])([H])[C]3([H])[H])[c]([H])[c]1[H]

>  <combo1>  (1) 
-6.12420259116767e-06

$$$$
