
     RDKit          3D

 21 22  0  0  0  0  0  0  0  0999 V2000
    4.9217    1.7824   16.9934 H   0  0  0  0  0  0  0  0  0  0  0  0
    5.4006    1.2933   17.8380 C   0  0  0  0  0  0  0  0  0  0  0  0
    6.5669    0.6776   17.5770 N   0  0  0  0  0  0  0  0  0  0  0  0
    7.1688    0.0538   18.5967 C   0  0  0  0  0  0  0  0  0  0  0  0
    8.1187   -0.4283   18.3770 H   0  0  0  0  0  0  0  0  0  0  0  0
    6.6345   -0.0090   19.8896 C   0  0  0  0  0  0  0  0  0  0  0  0
    7.5987   -0.7768   21.1743 S   0  0  0  0  0  0  0  0  0  0  0  0
    8.5039    0.5482   21.6614 N   0  0  0  0  0  0  0  0  0  0  0  0
    9.3205    0.7868   21.1278 H   0  0  0  0  0  0  0  0  0  0  0  0
    8.0534    1.4609   22.5985 C   0  0  0  0  0  0  0  0  0  0  0  0
    6.9596    1.3652   23.3951 C   0  0  0  0  0  0  0  0  0  0  0  0
    6.1914    0.6093   23.4991 H   0  0  0  0  0  0  0  0  0  0  0  0
    6.9106    2.4360   24.2342 O   0  0  0  0  0  0  0  0  0  0  0  0
    7.9814    3.2097   23.9447 C   0  0  0  0  0  0  0  0  0  0  0  0
    8.0743    4.1081   24.5404 H   0  0  0  0  0  0  0  0  0  0  0  0
    8.7267    2.6777   22.9485 C   0  0  0  0  0  0  0  0  0  0  0  0
    9.6234    3.0882   22.5121 H   0  0  0  0  0  0  0  0  0  0  0  0
    5.4252    0.6390   20.1588 C   0  0  0  0  0  0  0  0  0  0  0  0
    4.9995    0.6295   21.1637 H   0  0  0  0  0  0  0  0  0  0  0  0
    4.7996    1.3110   19.1030 C   0  0  0  0  0  0  0  0  0  0  0  0
    3.8703    1.8472   19.2578 H   0  0  0  0  0  0  0  0  0  0  0  0
  1  2  1  0
  2  3  2  0
  3  4  1  0
  4  5  1  0
  4  6  2  0
  6  7  1  0
  7  8  1  0
  8  9  1  0
  8 10  1  0
 10 11  2  0
 11 12  1  0
 11 13  1  0
 13 14  1  0
 14 15  1  0
 14 16  2  0
 16 17  1  0
  6 18  1  0
 18 19  1  0
 18 20  2  0
 20 21  1  0
 20  2  1  0
 16 10  1  0
M  END
>  <cnnaffinity>  (1) 
4.31833

>  <plip>  (1) 
-0.03571428571428571

>  <filename>  (1) 
[H][c]1[n][c]([H])[c]([S][N]([H])[c]2[c]([H])[o][c]([H])[c]2[H])[c]([H])[c]1[H]

>  <combo1>  (1) 
-0.26741514893229124

$$$$
