
     RDKit          3D

 44 46  0  0  0  0  0  0  0  0999 V2000
    9.9127    7.1529   24.0830 C   0  0  0  0  0  0  0  0  0  0  0  0
    9.0494    6.0987   24.7469 C   0  0  0  0  0  0  0  0  0  0  0  0
    9.8800    4.9699   25.3878 C   0  0  0  0  0  0  0  0  0  0  0  0
    9.8705    3.8833   24.2999 C   0  0  0  0  0  0  0  0  0  0  0  0
    8.4743    4.0772   23.7091 C   0  0  0  0  0  0  0  0  0  0  0  0
    8.2066    3.6499   22.2621 C   0  0  0  0  0  0  0  0  0  0  0  0
    8.1990    2.1824   21.9945 N   0  0  0  0  0  4  0  0  0  0  0  0
    7.3185    1.3136   22.8626 C   0  0  0  0  0  0  0  0  0  0  0  0
    7.5771   -0.0595   22.3670 C   0  0  0  0  0  0  0  0  0  0  0  0
    8.2332   -1.0824   23.0133 C   0  0  0  0  0  0  0  0  0  0  0  0
    8.4318   -2.0535   22.0988 N   0  0  0  0  0  0  0  0  0  0  0  0
    9.1107   -3.3114   22.3063 C   0  0  0  0  0  0  0  0  0  0  0  0
    8.7091   -4.0250   21.5854 H   0  0  0  0  0  0  0  0  0  0  0  0
    8.9239   -3.6672   23.3231 H   0  0  0  0  0  0  0  0  0  0  0  0
   10.1889   -3.1942   22.1594 H   0  0  0  0  0  0  0  0  0  0  0  0
    7.9707   -1.7244   20.8885 N   0  0  0  0  0  0  0  0  0  0  0  0
    7.4106   -0.5256   21.0355 C   0  0  0  0  0  0  0  0  0  0  0  0
    6.6711    0.1193   19.9424 C   0  0  0  0  0  0  0  0  0  0  0  0
    5.4325    0.7614   20.1271 C   0  0  0  0  0  0  0  0  0  0  0  0
    4.8262    1.3715   19.0300 C   0  0  0  0  0  0  0  0  0  0  0  0
    5.4747    1.3195   17.7920 C   0  0  0  0  0  0  0  0  0  0  0  0
    6.6361    0.6775   17.5946 N   0  0  0  0  0  0  0  0  0  0  0  0
    7.1976    0.0693   18.6431 C   0  0  0  0  0  0  0  0  0  0  0  0
    8.1139   -0.4854   18.4445 H   0  0  0  0  0  0  0  0  0  0  0  0
    5.0382    1.7986   16.9176 H   0  0  0  0  0  0  0  0  0  0  0  0
    3.8762    1.8855   19.1190 H   0  0  0  0  0  0  0  0  0  0  0  0
    4.9507    0.7743   21.1059 H   0  0  0  0  0  0  0  0  0  0  0  0
    8.6047   -1.1866   24.0299 H   0  0  0  0  0  0  0  0  0  0  0  0
    7.6108    1.3981   23.9147 H   0  0  0  0  0  0  0  0  0  0  0  0
    6.2742    1.6353   22.7802 H   0  0  0  0  0  0  0  0  0  0  0  0
    7.9003    1.9275   21.0226 H   0  0  0  0  0  0  0  0  0  0  0  0
    9.1535    1.7668   22.0949 H   0  0  0  0  0  0  0  0  0  0  0  0
    7.2380    4.0932   22.0205 H   0  0  0  0  0  0  0  0  0  0  0  0
    8.9415    4.1495   21.6303 H   0  0  0  0  0  0  0  0  0  0  0  0
    8.2634    5.4855   23.7296 O   0  0  0  0  0  0  0  0  0  0  0  0
    7.7258    3.6089   24.3647 H   0  0  0  0  0  0  0  0  0  0  0  0
   10.6417    4.1069   23.5496 H   0  0  0  0  0  0  0  0  0  0  0  0
   10.0437    2.8664   24.6725 H   0  0  0  0  0  0  0  0  0  0  0  0
    9.3930    4.6283   26.3095 H   0  0  0  0  0  0  0  0  0  0  0  0
   10.8886    5.3122   25.6521 H   0  0  0  0  0  0  0  0  0  0  0  0
    8.3661    6.5700   25.4770 H   0  0  0  0  0  0  0  0  0  0  0  0
   10.6272    7.5507   24.8125 H   0  0  0  0  0  0  0  0  0  0  0  0
    9.2924    7.9706   23.7063 H   0  0  0  0  0  0  0  0  0  0  0  0
   10.4619    6.7150   23.2380 H   0  0  0  0  0  0  0  0  0  0  0  0
  1  2  1  0
  2  3  1  0
  3  4  1  0
  4  5  1  0
  5  6  1  0
  6  7  1  0
  7  8  1  0
  8  9  1  0
  9 10  2  0
 10 11  1  0
 11 12  1  0
 12 13  1  0
 12 14  1  0
 12 15  1  0
 11 16  1  0
 16 17  2  0
 17 18  1  0
 18 19  2  0
 19 20  1  0
 20 21  2  0
 21 22  1  0
 22 23  2  0
 23 24  1  0
 21 25  1  0
 20 26  1  0
 19 27  1  0
 10 28  1  0
  8 29  1  0
  8 30  1  0
  7 31  1  0
  7 32  1  0
  6 33  1  0
  6 34  1  0
  5 35  1  0
  5 36  1  0
  4 37  1  0
  4 38  1  0
  3 39  1  0
  3 40  1  0
  2 41  1  0
  1 42  1  0
  1 43  1  0
  1 44  1  0
 35  2  1  0
 17  9  1  0
 23 18  1  0
M  CHG  1   7   1
M  END
>  <cnnaffinity>  (1) 
4.81029

>  <plip>  (1) 
-0.14285714285714285

>  <filename>  (1) 
[H][c]1[n][c]([H])[c](-[c]2[n][n]([C]([H])([H])[H])[c]([H])[c]2[C]([H])([H])[N+]([H])([H])[C]([H])([H])[C]2([H])[O][C]([H])([C]([H])([H])[H])[C]([H])([H])[C]2([H])[H])[c]([H])[c]1[H]

>  <combo1>  (1) 
-0.7970486785116542

$$$$
