
     RDKit          3D

 31 33  0  0  0  0  0  0  0  0999 V2000
   10.4243   -2.1651   22.2923 H   0  0  0  0  0  0  0  0  0  0  0  0
   10.6974   -2.4718   23.1693 O   0  0  0  0  0  0  0  0  0  0  0  0
    9.9269   -3.5265   23.5339 C   0  0  0  0  0  0  0  0  0  0  0  0
   10.1920   -4.0829   24.7843 C   0  0  0  0  0  0  0  0  0  0  0  0
   11.0151   -3.7121   25.3793 H   0  0  0  0  0  0  0  0  0  0  0  0
    9.3988   -5.1132   25.2707 C   0  0  0  0  0  0  0  0  0  0  0  0
    9.6069   -5.5847   26.9265 Cl  0  0  0  0  0  0  0  0  0  0  0  0
    8.3933   -5.6806   24.4900 C   0  0  0  0  0  0  0  0  0  0  0  0
    7.7994   -6.4799   24.9061 H   0  0  0  0  0  0  0  0  0  0  0  0
    8.1543   -5.1594   23.2120 C   0  0  0  0  0  0  0  0  0  0  0  0
    7.3914   -5.5872   22.5678 H   0  0  0  0  0  0  0  0  0  0  0  0
    8.8632   -4.0484   22.7564 C   0  0  0  0  0  0  0  0  0  0  0  0
    8.5186   -3.4834   21.5162 O   0  0  0  0  0  0  0  0  0  0  0  0
    7.9381   -2.2695   21.5514 C   0  0  0  0  0  0  0  0  0  0  0  0
    7.4309   -1.5331   22.5522 C   0  0  0  0  0  0  0  0  0  0  0  0
    7.3546   -1.7552   23.5966 H   0  0  0  0  0  0  0  0  0  0  0  0
    6.8622   -0.3308   21.9767 C   0  0  0  0  0  0  0  0  0  0  0  0
    6.3651    0.6351   22.5198 O   0  0  0  0  0  0  0  0  0  0  0  0
    7.0134   -0.5121   20.5744 N   0  0  0  0  0  0  0  0  0  0  0  0
    6.4569    0.2347   19.5203 C   0  0  0  0  0  0  0  0  0  0  0  0
    6.9892    0.1713   18.2104 C   0  0  0  0  0  0  0  0  0  0  0  0
    7.8718   -0.4367   18.0230 H   0  0  0  0  0  0  0  0  0  0  0  0
    6.4858    0.8445   17.1715 N   0  0  0  0  0  0  0  0  0  0  0  0
    5.4178    1.6286   17.4038 C   0  0  0  0  0  0  0  0  0  0  0  0
    5.0221    2.1717   16.5499 H   0  0  0  0  0  0  0  0  0  0  0  0
    4.8281    1.7703   18.6647 C   0  0  0  0  0  0  0  0  0  0  0  0
    3.9852    2.4423   18.7905 H   0  0  0  0  0  0  0  0  0  0  0  0
    5.3546    1.0732   19.7534 C   0  0  0  0  0  0  0  0  0  0  0  0
    4.9543    1.1769   20.7609 H   0  0  0  0  0  0  0  0  0  0  0  0
    7.7747   -1.6683   20.3156 N   0  0  0  0  0  0  0  0  0  0  0  0
    7.3412   -2.2948   19.6403 H   0  0  0  0  0  0  0  0  0  0  0  0
  1  2  1  0
  2  3  1  0
  3  4  2  0
  4  5  1  0
  4  6  1  0
  6  7  1  0
  6  8  2  0
  8  9  1  0
  8 10  1  0
 10 11  1  0
 10 12  2  0
 12 13  1  0
 13 14  1  0
 14 15  2  0
 15 16  1  0
 15 17  1  0
 17 18  2  0
 17 19  1  0
 19 20  1  0
 20 21  2  0
 21 22  1  0
 21 23  1  0
 23 24  2  0
 24 25  1  0
 24 26  1  0
 26 27  1  0
 26 28  2  0
 28 29  1  0
 19 30  1  0
 30 31  1  0
 12  3  1  0
 30 14  1  0
 28 20  1  0
M  END
>  <cnnaffinity>  (1) 
5.46816

>  <plip>  (1) 
-0.13333333333333333

>  <filename>  (1) 
[H][O][c]1[c]([H])[c]([Cl])[c]([H])[c]([H])[c]1[O][c]1[c]([H])[c](=[O])[n](-[c]2[c]([H])[n][c]([H])[c]([H])[c]2[H])[n]1[H]

>  <combo1>  (1) 
-0.8002151210330201

$$$$
