
     RDKit          3D

 46 48  0  0  0  0  0  0  0  0999 V2000
    2.1510   -5.0812   26.1780 C   0  0  0  0  0  0  0  0  0  0  0  0
    2.7287   -5.5515   24.9634 O   0  0  0  0  0  0  0  0  0  0  0  0
    3.7315   -4.8762   24.3720 C   0  0  0  0  0  0  0  0  0  0  0  0
    4.2114   -5.4499   23.1834 C   0  0  0  0  0  0  0  0  0  0  0  0
    5.2411   -4.8243   22.5073 C   0  0  0  0  0  0  0  0  0  0  0  0
    5.8062   -5.4212   21.2446 C   0  0  0  0  0  0  0  0  0  0  0  0
    5.8523   -4.6678   20.4511 H   0  0  0  0  0  0  0  0  0  0  0  0
    5.1978   -6.2556   20.8888 H   0  0  0  0  0  0  0  0  0  0  0  0
    6.8250   -5.7936   21.4026 H   0  0  0  0  0  0  0  0  0  0  0  0
    5.7501   -3.6142   23.0581 C   0  0  0  0  0  0  0  0  0  0  0  0
    6.9105   -2.8864   22.4493 C   0  0  0  0  0  0  0  0  0  0  0  0
    6.4081   -1.8265   21.5704 N   0  0  0  0  0  4  0  0  0  0  0  0
    7.3626   -0.7148   21.0984 C   0  0  0  0  0  0  0  0  0  0  0  0
    6.6262   -0.0583   19.9424 C   0  0  0  0  0  0  0  0  0  0  0  0
    5.4085    0.6183   20.1601 C   0  0  0  0  0  0  0  0  0  0  0  0
    4.7892    1.2865   19.1043 C   0  0  0  0  0  0  0  0  0  0  0  0
    5.4044    1.2714   17.8479 C   0  0  0  0  0  0  0  0  0  0  0  0
    6.5565    0.6344   17.6049 N   0  0  0  0  0  0  0  0  0  0  0  0
    7.1440    0.0042   18.6329 C   0  0  0  0  0  0  0  0  0  0  0  0
    8.1051   -0.4463   18.3911 H   0  0  0  0  0  0  0  0  0  0  0  0
    4.9573    1.7947   17.0052 H   0  0  0  0  0  0  0  0  0  0  0  0
    3.8717    1.8490   19.2473 H   0  0  0  0  0  0  0  0  0  0  0  0
    4.9647    0.6665   21.1592 H   0  0  0  0  0  0  0  0  0  0  0  0
    8.7609   -1.2659   20.7665 C   0  0  0  0  0  0  0  0  0  0  0  0
    9.6948   -0.0559   20.8108 C   0  0  0  0  0  0  0  0  0  0  0  0
    9.0574    0.9381   21.8075 C   0  0  0  0  0  0  0  0  0  0  0  0
    7.7067    0.3046   22.2121 C   0  0  0  0  0  0  0  0  0  0  0  0
    6.9109    1.0447   22.3462 H   0  0  0  0  0  0  0  0  0  0  0  0
    7.8135   -0.2473   23.1516 H   0  0  0  0  0  0  0  0  0  0  0  0
    8.9045    1.9046   21.3149 H   0  0  0  0  0  0  0  0  0  0  0  0
    9.6851    1.1371   22.6836 H   0  0  0  0  0  0  0  0  0  0  0  0
    9.6915    0.3925   19.8166 H   0  0  0  0  0  0  0  0  0  0  0  0
   10.7275   -0.3376   21.0445 H   0  0  0  0  0  0  0  0  0  0  0  0
    9.0317   -1.9936   21.5359 H   0  0  0  0  0  0  0  0  0  0  0  0
    8.7901   -1.7758   19.8073 H   0  0  0  0  0  0  0  0  0  0  0  0
    5.6058   -1.3637   22.0691 H   0  0  0  0  0  0  0  0  0  0  0  0
    6.0291   -2.2344   20.6789 H   0  0  0  0  0  0  0  0  0  0  0  0
    7.5252   -2.4580   23.2532 H   0  0  0  0  0  0  0  0  0  0  0  0
    7.5548   -3.5912   21.9091 H   0  0  0  0  0  0  0  0  0  0  0  0
    5.1995   -3.1497   24.2450 C   0  0  0  0  0  0  0  0  0  0  0  0
    4.1953   -3.7591   24.9007 N   0  0  0  0  0  0  0  0  0  0  0  0
    5.5885   -2.2482   24.7261 H   0  0  0  0  0  0  0  0  0  0  0  0
    3.7537   -6.3730   22.8521 H   0  0  0  0  0  0  0  0  0  0  0  0
    1.7124   -4.0819   26.0580 H   0  0  0  0  0  0  0  0  0  0  0  0
    1.3752   -5.8190   26.3991 H   0  0  0  0  0  0  0  0  0  0  0  0
    2.8895   -5.0407   26.9895 H   0  0  0  0  0  0  0  0  0  0  0  0
  1  2  1  0
  2  3  1  0
  3  4  2  0
  4  5  1  0
  5  6  1  0
  6  7  1  0
  6  8  1  0
  6  9  1  0
  5 10  2  0
 10 11  1  0
 11 12  1  0
 12 13  1  0
 13 14  1  0
 14 15  2  0
 15 16  1  0
 16 17  2  0
 17 18  1  0
 18 19  2  0
 19 20  1  0
 17 21  1  0
 16 22  1  0
 15 23  1  0
 13 24  1  0
 24 25  1  0
 25 26  1  0
 26 27  1  0
 27 28  1  0
 27 29  1  0
 26 30  1  0
 26 31  1  0
 25 32  1  0
 25 33  1  0
 24 34  1  0
 24 35  1  0
 12 36  1  0
 12 37  1  0
 11 38  1  0
 11 39  1  0
 10 40  1  0
 40 41  2  0
 40 42  1  0
  4 43  1  0
  1 44  1  0
  1 45  1  0
  1 46  1  0
 41  3  1  0
 27 13  1  0
 19 14  1  0
M  CHG  1  12   1
M  END
>  <cnnaffinity>  (1) 
4.90804

>  <plip>  (1) 
-0.03571428571428571

>  <filename>  (1) 
[H][c]1[n][c]([H])[c]([C]2([N+]([H])([H])[C]([H])([H])[c]3[c]([H])[n][c]([O][C]([H])([H])[H])[c]([H])[c]3[C]([H])([H])[H])[C]([H])([H])[C]([H])([H])[C]([H])([H])[C]2([H])[H])[c]([H])[c]1[H]

>  <combo1>  (1) 
-0.19580123862822182

$$$$
