
     RDKit          3D

 42 44  0  0  0  0  0  0  0  0999 V2000
   10.0540   -0.0279   24.1289 C   0  0  0  0  0  0  0  0  0  0  0  0
    8.5779    0.3527   24.0413 C   0  0  1  0  0  0  0  0  0  0  0  0
    7.6844   -0.9294   24.1923 N   0  0  0  0  0  4  0  0  0  0  0  0
    7.5868   -1.9351   23.0516 C   0  0  0  0  0  0  0  0  0  0  0  0
    6.7883   -1.6362   21.7407 C   0  0  0  0  0  0  0  0  0  0  0  0
    5.7637   -2.2261   21.4749 O   0  0  0  0  0  0  0  0  0  0  0  0
    7.3813   -0.7179   20.8970 N   0  0  0  0  0  0  0  0  0  0  0  0
    6.7111   -0.0109   19.8474 C   0  0  0  0  0  0  0  0  0  0  0  0
    5.4835    0.6093   20.1088 C   0  0  0  0  0  0  0  0  0  0  0  0
    4.8449    1.3038   19.0763 C   0  0  0  0  0  0  0  0  0  0  0  0
    5.4423    1.3391   17.8133 C   0  0  0  0  0  0  0  0  0  0  0  0
    6.6206    0.7523   17.5443 N   0  0  0  0  0  0  0  0  0  0  0  0
    7.2422    0.1098   18.5405 C   0  0  0  0  0  0  0  0  0  0  0  0
    8.1963   -0.3584   18.2915 H   0  0  0  0  0  0  0  0  0  0  0  0
    4.9598    1.8500   16.9843 H   0  0  0  0  0  0  0  0  0  0  0  0
    3.9074    1.8196   19.2443 H   0  0  0  0  0  0  0  0  0  0  0  0
    5.0590    0.5346   21.1109 H   0  0  0  0  0  0  0  0  0  0  0  0
    8.3499   -0.5018   21.0836 H   0  0  0  0  0  0  0  0  0  0  0  0
    8.5980   -2.1764   22.7106 H   0  0  0  0  0  0  0  0  0  0  0  0
    7.1220   -2.8491   23.4120 H   0  0  0  0  0  0  0  0  0  0  0  0
    6.7453   -0.5733   24.4969 H   0  0  0  0  0  0  0  0  0  0  0  0
    8.0961   -1.3902   25.0398 H   0  0  0  0  0  0  0  0  0  0  0  0
    8.0675    1.3227   25.0882 C   0  0  0  0  0  0  0  0  0  0  0  0
    8.5178    1.2908   26.4018 C   0  0  0  0  0  0  0  0  0  0  0  0
    8.0826    2.2464   27.3587 C   0  0  0  0  0  0  0  0  0  0  0  0
    7.2188    3.2531   27.0155 C   0  0  0  0  0  0  0  0  0  0  0  0
    6.6925    3.3008   25.6899 C   0  0  0  0  0  0  0  0  0  0  0  0
    5.7614    4.3038   25.2819 C   0  0  0  0  0  0  0  0  0  0  0  0
    5.1419    4.3214   24.1232 N   0  0  0  0  0  0  0  0  0  0  0  0
    5.4447    3.3248   23.2484 C   0  0  0  0  0  0  0  0  0  0  0  0
    6.3766    2.3432   23.4816 C   0  0  0  0  0  0  0  0  0  0  0  0
    7.0634    2.3020   24.7332 C   0  0  0  0  0  0  0  0  0  0  0  0
    6.5748    1.6063   22.7069 H   0  0  0  0  0  0  0  0  0  0  0  0
    4.8884    3.3333   22.3154 H   0  0  0  0  0  0  0  0  0  0  0  0
    5.5275    5.1131   25.9773 H   0  0  0  0  0  0  0  0  0  0  0  0
    6.9158    3.9942   27.7562 H   0  0  0  0  0  0  0  0  0  0  0  0
    8.4225    2.1626   28.3851 H   0  0  0  0  0  0  0  0  0  0  0  0
    9.2180    0.5244   26.7314 H   0  0  0  0  0  0  0  0  0  0  0  0
    8.3865    0.7678   23.0504 H   0  0  0  0  0  0  0  0  0  0  0  0
   10.6680    0.8752   24.1621 H   0  0  0  0  0  0  0  0  0  0  0  0
   10.2755   -0.6279   25.0201 H   0  0  0  0  0  0  0  0  0  0  0  0
   10.3500   -0.6083   23.2469 H   0  0  0  0  0  0  0  0  0  0  0  0
  1  2  1  0
  2  3  1  0
  3  4  1  0
  4  5  1  0
  5  6  2  0
  5  7  1  0
  7  8  1  0
  8  9  2  0
  9 10  1  0
 10 11  2  0
 11 12  1  0
 12 13  2  0
 13 14  1  0
 11 15  1  0
 10 16  1  0
  9 17  1  0
  7 18  1  0
  4 19  1  0
  4 20  1  0
  3 21  1  0
  3 22  1  0
  2 23  1  0
 23 24  2  0
 24 25  1  0
 25 26  2  0
 26 27  1  0
 27 28  2  0
 28 29  1  0
 29 30  2  0
 30 31  1  0
 31 32  2  0
 31 33  1  0
 30 34  1  0
 28 35  1  0
 26 36  1  0
 25 37  1  0
 24 38  1  0
  2 39  1  6
  1 40  1  0
  1 41  1  0
  1 42  1  0
 13  8  1  0
 32 23  1  0
 32 27  1  0
M  CHG  1   3   1
M  END
>  <cnnaffinity>  (1) 
5.05692

>  <plip>  (1) 
-0.14285714285714285

>  <filename>  (1) 
[H][c]1[n][c]([H])[c]([N]([H])[C](=[O])[C]([H])([H])[N+]([H])([H])[C@@]([H])([c]2[c]([H])[c]([H])[c]([H])[c]3[c]([H])[n][c]([H])[c]([H])[c]23)[C]([H])([H])[H])[c]([H])[c]1[H]

>  <combo1>  (1) 
-0.7834213824902786

$$$$
