
     RDKit          3D

 39 42  0  0  0  0  0  0  0  0999 V2000
    5.6843    2.1984   24.3970 C   0  0  0  0  0  0  0  0  0  0  0  0
    7.0204    1.9545   25.0553 C   0  0  0  0  0  0  0  0  0  0  0  0
    7.9413    2.9977   25.2462 C   0  0  0  0  0  0  0  0  0  0  0  0
    9.1881    2.8668   25.7128 N   0  0  0  0  0  0  0  0  0  0  0  0
    9.5727    1.6302   26.0512 C   0  0  0  0  0  0  0  0  0  0  0  0
    8.7420    0.5207   25.9705 C   0  0  0  0  0  0  0  0  0  0  0  0
    7.4649    0.6728   25.4312 C   0  0  0  0  0  0  0  0  0  0  0  0
    6.5259   -0.7850   25.0007 S   0  0  0  0  0  0  0  0  0  0  0  0
    7.1909   -0.9372   23.3483 C   0  0  0  0  0  0  0  0  0  0  0  0
    6.5191   -0.3809   22.3361 N   0  0  0  0  0  0  0  0  0  0  0  0
    7.0835   -0.4247   21.1274 C   0  0  0  0  0  0  0  0  0  0  0  0
    6.3682    0.2011   20.0053 C   0  0  0  0  0  0  0  0  0  0  0  0
    5.1246    0.8495   20.0868 C   0  0  0  0  0  0  0  0  0  0  0  0
    4.6090    1.4277   18.9235 C   0  0  0  0  0  0  0  0  0  0  0  0
    5.3395    1.3386   17.7338 C   0  0  0  0  0  0  0  0  0  0  0  0
    6.5082    0.6937   17.6412 N   0  0  0  0  0  0  0  0  0  0  0  0
    6.9997    0.1465   18.7547 C   0  0  0  0  0  0  0  0  0  0  0  0
    7.9507   -0.3687   18.6601 H   0  0  0  0  0  0  0  0  0  0  0  0
    4.9630    1.7916   16.8147 H   0  0  0  0  0  0  0  0  0  0  0  0
    3.6664    1.9595   18.9312 H   0  0  0  0  0  0  0  0  0  0  0  0
    4.5707    0.9043   21.0275 H   0  0  0  0  0  0  0  0  0  0  0  0
    8.2710   -0.9695   20.8528 N   0  0  0  0  0  0  0  0  0  0  0  0
    8.9173   -1.5042   21.8733 C   0  0  0  0  0  0  0  0  0  0  0  0
    8.4340   -1.5392   23.1736 C   0  0  0  0  0  0  0  0  0  0  0  0
    9.4373   -2.2531   24.0573 C   0  0  0  0  0  0  0  0  0  0  0  0
   10.2110   -3.1097   23.0293 C   0  0  0  0  0  0  0  0  0  0  0  0
   10.2414   -2.1947   21.7845 C   0  0  0  0  0  0  0  0  0  0  0  0
   10.3306   -2.6834   20.8162 H   0  0  0  0  0  0  0  0  0  0  0  0
   11.0388   -1.4415   21.8619 H   0  0  0  0  0  0  0  0  0  0  0  0
   11.2012   -3.4369   23.3707 H   0  0  0  0  0  0  0  0  0  0  0  0
    9.6369   -4.0229   22.8212 H   0  0  0  0  0  0  0  0  0  0  0  0
   10.1507   -1.5337   24.4876 H   0  0  0  0  0  0  0  0  0  0  0  0
    9.0033   -2.8170   24.8881 H   0  0  0  0  0  0  0  0  0  0  0  0
    9.1029   -0.4466   26.3000 H   0  0  0  0  0  0  0  0  0  0  0  0
   10.5948    1.5195   26.3967 H   0  0  0  0  0  0  0  0  0  0  0  0
    7.6364    4.0084   24.9853 H   0  0  0  0  0  0  0  0  0  0  0  0
    4.8917    1.6139   24.8725 H   0  0  0  0  0  0  0  0  0  0  0  0
    5.3995    3.2530   24.4199 H   0  0  0  0  0  0  0  0  0  0  0  0
    5.7279    1.8645   23.3530 H   0  0  0  0  0  0  0  0  0  0  0  0
  1  2  1  0
  2  3  2  0
  3  4  1  0
  4  5  2  0
  5  6  1  0
  6  7  2  0
  7  8  1  0
  8  9  1  0
  9 10  2  0
 10 11  1  0
 11 12  1  0
 12 13  2  0
 13 14  1  0
 14 15  2  0
 15 16  1  0
 16 17  2  0
 17 18  1  0
 15 19  1  0
 14 20  1  0
 13 21  1  0
 11 22  2  0
 22 23  1  0
 23 24  2  0
 24 25  1  0
 25 26  1  0
 26 27  1  0
 27 28  1  0
 27 29  1  0
 26 30  1  0
 26 31  1  0
 25 32  1  0
 25 33  1  0
  6 34  1  0
  5 35  1  0
  3 36  1  0
  1 37  1  0
  1 38  1  0
  1 39  1  0
  7  2  1  0
 24  9  1  0
 17 12  1  0
 27 23  1  0
M  END
>  <cnnaffinity>  (1) 
5.86423

>  <plip>  (1) 
-0.0

>  <filename>  (1) 
[H][c]1[n][c]([H])[c](-[c]2[n][c]([S][c]3[c]([H])[c]([H])[n][c]([H])[c]3[C]([H])([H])[H])[c]3[c]([n]2)[C]([H])([H])[C]([H])([H])[C]3([H])[H])[c]([H])[c]1[H]

>  <combo1>  (1) 
-6.100546884671523e-06

$$$$
