
     RDKit          3D

 46 47  0  0  0  0  0  0  0  0999 V2000
   11.0460    0.1675   25.8017 C   0  0  0  0  0  0  0  0  0  0  0  0
   10.3841    0.7260   24.5491 C   0  0  0  0  0  0  0  0  0  0  0  0
    9.1120    1.3494   24.8682 N   0  0  0  0  0  0  0  0  0  0  0  0
    7.8598    0.6899   24.5665 C   0  0  0  0  0  0  0  0  0  0  0  0
    7.1034    1.4083   23.4426 C   0  0  0  0  0  0  0  0  0  0  0  0
    7.9769    1.6117   22.2104 C   0  0  0  0  0  0  0  0  0  0  0  0
    8.5405    0.3465   21.7248 N   0  0  0  0  0  0  0  0  0  0  0  0
    9.7968    0.4168   20.9883 C   0  0  0  0  0  0  0  0  0  0  0  0
   10.2084   -0.5871   20.8628 H   0  0  0  0  0  0  0  0  0  0  0  0
   10.5211    1.0001   21.5702 H   0  0  0  0  0  0  0  0  0  0  0  0
    9.6797    0.8821   20.0032 H   0  0  0  0  0  0  0  0  0  0  0  0
    7.4760   -0.8540   21.2647 S   0  0  0  0  0  0  0  0  0  0  0  0
    6.6054   -1.2078   22.3665 O   0  0  0  0  0  0  0  0  0  0  0  0
    8.2795   -1.8767   20.6259 O   0  0  0  0  0  0  0  0  0  0  0  0
    6.5476   -0.0514   20.0375 C   0  0  0  0  0  0  0  0  0  0  0  0
    5.3329    0.6227   20.2149 C   0  0  0  0  0  0  0  0  0  0  0  0
    4.8334    1.2913   19.0976 C   0  0  0  0  0  0  0  0  0  0  0  0
    5.5507    1.2594   17.9002 C   0  0  0  0  0  0  0  0  0  0  0  0
    6.7139    0.6081   17.7597 N   0  0  0  0  0  0  0  0  0  0  0  0
    7.2048   -0.0308   18.8184 C   0  0  0  0  0  0  0  0  0  0  0  0
    8.1465   -0.5560   18.6661 H   0  0  0  0  0  0  0  0  0  0  0  0
    5.1777    1.7735   17.0145 H   0  0  0  0  0  0  0  0  0  0  0  0
    3.9100    1.8552   19.1443 H   0  0  0  0  0  0  0  0  0  0  0  0
    4.7965    0.6589   21.1656 H   0  0  0  0  0  0  0  0  0  0  0  0
    8.8188    2.2645   22.4797 H   0  0  0  0  0  0  0  0  0  0  0  0
    7.4312    2.1583   21.4250 H   0  0  0  0  0  0  0  0  0  0  0  0
    6.7856    2.3896   23.8152 H   0  0  0  0  0  0  0  0  0  0  0  0
    6.2032    0.8460   23.1856 H   0  0  0  0  0  0  0  0  0  0  0  0
    7.2233    0.6541   25.4647 H   0  0  0  0  0  0  0  0  0  0  0  0
    8.0704   -0.3468   24.2821 H   0  0  0  0  0  0  0  0  0  0  0  0
    9.0802    2.6695   25.3697 C   0  0  0  0  0  0  0  0  0  0  0  0
    9.8119    3.7135   24.7660 C   0  0  0  0  0  0  0  0  0  0  0  0
    9.8111    4.9993   25.3189 C   0  0  0  0  0  0  0  0  0  0  0  0
    9.0412    5.2776   26.4529 C   0  0  0  0  0  0  0  0  0  0  0  0
    8.2608    4.2661   27.0227 C   0  0  0  0  0  0  0  0  0  0  0  0
    8.2851    2.9734   26.4922 C   0  0  0  0  0  0  0  0  0  0  0  0
    7.7166    2.1689   26.9493 H   0  0  0  0  0  0  0  0  0  0  0  0
    7.6312    4.4776   27.8863 H   0  0  0  0  0  0  0  0  0  0  0  0
    9.0390    6.2797   26.8774 H   0  0  0  0  0  0  0  0  0  0  0  0
   10.4152    5.7785   24.8559 H   0  0  0  0  0  0  0  0  0  0  0  0
   10.3728    3.4977   23.8610 H   0  0  0  0  0  0  0  0  0  0  0  0
   10.2429   -0.0731   23.8020 H   0  0  0  0  0  0  0  0  0  0  0  0
   11.0379    1.4865   24.1020 H   0  0  0  0  0  0  0  0  0  0  0  0
   12.0829   -0.1155   25.5989 H   0  0  0  0  0  0  0  0  0  0  0  0
   10.4864   -0.6946   26.1762 H   0  0  0  0  0  0  0  0  0  0  0  0
   11.0176    0.9281   26.5855 H   0  0  0  0  0  0  0  0  0  0  0  0
  1  2  1  0
  2  3  1  0
  3  4  1  0
  4  5  1  0
  5  6  1  0
  6  7  1  0
  7  8  1  0
  8  9  1  0
  8 10  1  0
  8 11  1  0
  7 12  1  0
 12 13  2  0
 12 14  2  0
 12 15  1  0
 15 16  2  0
 16 17  1  0
 17 18  2  0
 18 19  1  0
 19 20  2  0
 20 21  1  0
 18 22  1  0
 17 23  1  0
 16 24  1  0
  6 25  1  0
  6 26  1  0
  5 27  1  0
  5 28  1  0
  4 29  1  0
  4 30  1  0
  3 31  1  0
 31 32  2  0
 32 33  1  0
 33 34  2  0
 34 35  1  0
 35 36  2  0
 36 37  1  0
 35 38  1  0
 34 39  1  0
 33 40  1  0
 32 41  1  0
  2 42  1  0
  2 43  1  0
  1 44  1  0
  1 45  1  0
  1 46  1  0
 20 15  1  0
 36 31  1  0
M  END
>  <cnnaffinity>  (1) 
5.15074

>  <plip>  (1) 
-0.0967741935483871

>  <filename>  (1) 
[H][c]1[n][c]([H])[c]([S](=[O])(=[O])[N]([C]([H])([H])[H])[C]([H])([H])[C]([H])([H])[C]([H])([H])[N]([c]2[c]([H])[c]([H])[c]([H])[c]([H])[c]2[H])[C]([H])([H])[C]([H])([H])[H])[c]([H])[c]1[H]

>  <combo1>  (1) 
-0.49827385007904

$$$$
