
     RDKit          3D

 29 31  0  0  0  0  0  0  0  0999 V2000
    4.8163    1.3038   19.1097 C   0  0  0  0  0  0  0  0  0  0  0  0
    5.3990    1.2949   17.8368 C   0  0  0  0  0  0  0  0  0  0  0  0
    6.5671    0.6812   17.5688 N   0  0  0  0  0  0  0  0  0  0  0  0
    7.1790    0.0638   18.5861 C   0  0  0  0  0  0  0  0  0  0  0  0
    6.6803   -0.0065   19.9190 C   0  0  0  0  0  0  0  0  0  0  0  0
    7.3692   -0.6799   20.9111 N   0  0  0  0  0  0  0  0  0  0  0  0
    6.9225   -0.7808   22.2814 C   0  0  0  0  0  0  0  0  0  0  0  0
    7.9062   -1.5788   23.1021 C   0  0  0  0  0  0  0  0  0  0  0  0
    8.9827   -0.9150   23.7470 C   0  0  0  0  0  0  0  0  0  0  0  0
    9.9358   -1.6114   24.4878 C   0  0  0  0  0  0  0  0  0  0  0  0
    9.7768   -2.9995   24.5661 C   0  0  0  0  0  0  0  0  0  0  0  0
   10.5137   -3.9727   25.1927 N   0  0  0  0  0  0  0  0  0  0  0  0
    9.8997   -5.1686   24.9308 C   0  0  0  0  0  0  0  0  0  0  0  0
    8.8379   -5.0538   24.1897 N   0  0  0  0  0  0  0  0  0  0  0  0
    8.7254   -3.6917   23.9422 C   0  0  0  0  0  0  0  0  0  0  0  0
    7.7729   -2.9694   23.1993 C   0  0  0  0  0  0  0  0  0  0  0  0
    6.9666   -3.5098   22.7136 H   0  0  0  0  0  0  0  0  0  0  0  0
   10.2894   -6.1079   25.3148 H   0  0  0  0  0  0  0  0  0  0  0  0
   11.3448   -3.8158   25.7306 H   0  0  0  0  0  0  0  0  0  0  0  0
   10.7717   -1.1280   24.9853 H   0  0  0  0  0  0  0  0  0  0  0  0
    9.0853    0.1636   23.6614 H   0  0  0  0  0  0  0  0  0  0  0  0
    5.9461   -1.2727   22.3030 H   0  0  0  0  0  0  0  0  0  0  0  0
    6.7955    0.2210   22.7154 H   0  0  0  0  0  0  0  0  0  0  0  0
    8.2412   -1.1248   20.6733 H   0  0  0  0  0  0  0  0  0  0  0  0
    5.4540    0.6422   20.1668 C   0  0  0  0  0  0  0  0  0  0  0  0
    5.0137    0.6266   21.1647 H   0  0  0  0  0  0  0  0  0  0  0  0
    8.1263   -0.4278   18.3642 H   0  0  0  0  0  0  0  0  0  0  0  0
    4.9072    1.7811   16.9965 H   0  0  0  0  0  0  0  0  0  0  0  0
    3.8811    1.8373   19.2676 H   0  0  0  0  0  0  0  0  0  0  0  0
  1  2  2  0
  2  3  1  0
  3  4  2  0
  4  5  1  0
  5  6  1  0
  6  7  1  0
  7  8  1  0
  8  9  2  0
  9 10  1  0
 10 11  2  0
 11 12  1  0
 12 13  1  0
 13 14  2  0
 14 15  1  0
 15 16  2  0
 16 17  1  0
 13 18  1  0
 12 19  1  0
 10 20  1  0
  9 21  1  0
  7 22  1  0
  7 23  1  0
  6 24  1  0
  5 25  2  0
 25 26  1  0
  4 27  1  0
  2 28  1  0
  1 29  1  0
 25  1  1  0
 16  8  1  0
 15 11  1  0
M  END
>  <cnnaffinity>  (1) 
4.78391

>  <plip>  (1) 
-0.03571428571428571

>  <filename>  (1) 
[H][c]1[n][c]([H])[c]([N]([H])[C]([H])([H])[c]2[c]([H])[c]([H])[c]3[c]([n][c]([H])[n]3[H])[c]2[H])[c]([H])[c]1[H]

>  <combo1>  (1) 
-0.2539442250701596

$$$$
