
     RDKit          3D

 46 47  0  0  0  0  0  0  0  0999 V2000
    5.8119   -3.2568   20.3318 C   0  0  0  0  0  0  0  0  0  0  0  0
    7.0800   -2.6899   20.9475 C   0  0  0  0  0  0  0  0  0  0  0  0
    6.8251   -1.6449   21.9444 N   0  0  0  0  0  0  0  0  0  0  0  0
    7.2633   -0.2964   21.5740 C   0  0  0  0  0  0  0  0  0  0  0  0
    6.5836    0.2045   20.3131 C   0  0  0  0  0  0  0  0  0  0  0  0
    5.3290    0.8268   20.3570 C   0  0  0  0  0  0  0  0  0  0  0  0
    4.7843    1.3379   19.1759 C   0  0  0  0  0  0  0  0  0  0  0  0
    5.5050    1.1926   17.9880 C   0  0  0  0  0  0  0  0  0  0  0  0
    6.6845    0.5648   17.9095 N   0  0  0  0  0  0  0  0  0  0  0  0
    7.1973    0.0887   19.0525 C   0  0  0  0  0  0  0  0  0  0  0  0
    8.1770   -0.3869   18.9627 H   0  0  0  0  0  0  0  0  0  0  0  0
    5.1262    1.6151   17.0582 H   0  0  0  0  0  0  0  0  0  0  0  0
    3.8429    1.8764   19.1742 H   0  0  0  0  0  0  0  0  0  0  0  0
    4.7945    0.9357   21.3045 H   0  0  0  0  0  0  0  0  0  0  0  0
    7.0842    0.4202   22.3802 H   0  0  0  0  0  0  0  0  0  0  0  0
    8.3571   -0.3048   21.4373 H   0  0  0  0  0  0  0  0  0  0  0  0
    6.4550   -2.0779   23.1974 C   0  0  0  0  0  0  0  0  0  0  0  0
    6.2172   -3.2561   23.4370 O   0  0  0  0  0  0  0  0  0  0  0  0
    6.4142   -1.1000   24.1802 N   0  0  0  0  0  0  0  0  0  0  0  0
    5.9024   -1.4614   25.5019 C   0  0  0  0  0  0  0  0  0  0  0  0
    4.4073   -1.8018   25.4561 C   0  0  0  0  0  0  0  0  0  0  0  0
    3.7037   -1.9764   26.7739 N   0  0  0  0  0  4  0  0  0  0  0  0
    2.1967   -2.0829   26.5181 C   0  0  0  0  0  0  0  0  0  0  0  0
    1.7179   -3.5269   26.5055 C   0  0  0  0  0  0  0  0  0  0  0  0
    1.8259   -4.2968   28.1491 S   0  0  0  0  0  0  0  0  0  0  0  0
    3.2809   -3.3992   28.7781 C   0  0  0  0  0  0  0  0  0  0  0  0
    4.2784   -3.0730   27.6782 C   0  0  0  0  0  0  0  0  0  0  0  0
    5.2218   -2.7302   28.1192 H   0  0  0  0  0  0  0  0  0  0  0  0
    4.4882   -3.9629   27.0773 H   0  0  0  0  0  0  0  0  0  0  0  0
    2.9595   -2.4639   29.2472 H   0  0  0  0  0  0  0  0  0  0  0  0
    3.7178   -4.0300   29.5519 H   0  0  0  0  0  0  0  0  0  0  0  0
    0.6709   -3.5736   26.2090 H   0  0  0  0  0  0  0  0  0  0  0  0
    2.2989   -4.1042   25.7786 H   0  0  0  0  0  0  0  0  0  0  0  0
    1.6641   -1.5128   27.2817 H   0  0  0  0  0  0  0  0  0  0  0  0
    1.9808   -1.6162   25.5509 H   0  0  0  0  0  0  0  0  0  0  0  0
    3.8658   -1.0969   27.3070 H   0  0  0  0  0  0  0  0  0  0  0  0
    3.9019   -0.9910   24.9140 H   0  0  0  0  0  0  0  0  0  0  0  0
    4.3137   -2.7034   24.8426 H   0  0  0  0  0  0  0  0  0  0  0  0
    6.1206   -0.6449   26.1988 H   0  0  0  0  0  0  0  0  0  0  0  0
    6.4643   -2.3378   25.8391 H   0  0  0  0  0  0  0  0  0  0  0  0
    6.0789   -0.2349   23.7875 H   0  0  0  0  0  0  0  0  0  0  0  0
    7.6741   -3.4938   21.3979 H   0  0  0  0  0  0  0  0  0  0  0  0
    7.6990   -2.2453   20.1742 H   0  0  0  0  0  0  0  0  0  0  0  0
    5.2766   -2.4949   19.7542 H   0  0  0  0  0  0  0  0  0  0  0  0
    5.1622   -3.6365   21.1200 H   0  0  0  0  0  0  0  0  0  0  0  0
    6.0705   -4.0930   19.6704 H   0  0  0  0  0  0  0  0  0  0  0  0
  1  2  1  0
  2  3  1  0
  3  4  1  0
  4  5  1  0
  5  6  2  0
  6  7  1  0
  7  8  2  0
  8  9  1  0
  9 10  2  0
 10 11  1  0
  8 12  1  0
  7 13  1  0
  6 14  1  0
  4 15  1  0
  4 16  1  0
  3 17  1  0
 17 18  2  0
 17 19  1  0
 19 20  1  0
 20 21  1  0
 21 22  1  0
 22 23  1  0
 23 24  1  0
 24 25  1  0
 25 26  1  0
 26 27  1  0
 27 28  1  0
 27 29  1  0
 26 30  1  0
 26 31  1  0
 24 32  1  0
 24 33  1  0
 23 34  1  0
 23 35  1  0
 22 36  1  0
 21 37  1  0
 21 38  1  0
 20 39  1  0
 20 40  1  0
 19 41  1  0
  2 42  1  0
  2 43  1  0
  1 44  1  0
  1 45  1  0
  1 46  1  0
 10  5  1  0
 27 22  1  0
M  CHG  1  22   1
M  END
>  <cnnaffinity>  (1) 
3.937

>  <plip>  (1) 
-0.0

>  <filename>  (1) 
[H][c]1[n][c]([H])[c]([C]([H])([H])[N]([C](=[O])[N]([H])[C]([H])([H])[C]([H])([H])[N+]2([H])[C]([H])([H])[C]([H])([H])[S][C]([H])([H])[C]2([H])[H])[C]([H])([H])[C]([H])([H])[H])[c]([H])[c]1[H]

>  <combo1>  (1) 
-4.240734098324285e-06

$$$$
