
     RDKit          3D

 30 32  0  0  0  0  0  0  0  0999 V2000
    9.5266   -5.1313   26.2668 H   0  0  0  0  0  0  0  0  0  0  0  0
    8.9194   -4.2831   25.9624 C   0  0  0  0  0  0  0  0  0  0  0  0
    7.5716   -4.2156   26.1692 N   0  0  0  0  0  0  0  0  0  0  0  0
    7.2550   -3.0583   25.6360 C   0  0  0  0  0  0  0  0  0  0  0  0
    6.2686   -2.6082   25.6129 H   0  0  0  0  0  0  0  0  0  0  0  0
    8.3439   -2.4557   25.1292 N   0  0  0  0  0  0  0  0  0  0  0  0
    8.4257   -1.2005   24.3986 C   0  0  0  0  0  0  0  0  0  0  0  0
    7.7843   -0.4718   24.8940 H   0  0  0  0  0  0  0  0  0  0  0  0
    9.4736   -0.8791   24.4541 H   0  0  0  0  0  0  0  0  0  0  0  0
    7.9711   -1.3308   23.0330 N   0  0  0  0  0  0  0  0  0  0  0  0
    7.3508   -0.3056   22.3436 C   0  0  0  0  0  0  0  0  0  0  0  0
    6.9233    0.7181   22.8354 O   0  0  0  0  0  0  0  0  0  0  0  0
    7.3490   -0.6774   20.9986 N   0  0  0  0  0  0  0  0  0  0  0  0
    6.6749   -0.0055   19.9459 C   0  0  0  0  0  0  0  0  0  0  0  0
    7.1806    0.0349   18.6196 C   0  0  0  0  0  0  0  0  0  0  0  0
    8.1297   -0.4364   18.3677 H   0  0  0  0  0  0  0  0  0  0  0  0
    6.5732    0.6559   17.6018 N   0  0  0  0  0  0  0  0  0  0  0  0
    5.4123    1.2779   17.8521 C   0  0  0  0  0  0  0  0  0  0  0  0
    4.9425    1.7795   17.0074 H   0  0  0  0  0  0  0  0  0  0  0  0
    4.8247    1.2916   19.1193 C   0  0  0  0  0  0  0  0  0  0  0  0
    3.8955    1.8236   19.2640 H   0  0  0  0  0  0  0  0  0  0  0  0
    5.4557    0.6464   20.1865 C   0  0  0  0  0  0  0  0  0  0  0  0
    5.0466    0.6464   21.1960 H   0  0  0  0  0  0  0  0  0  0  0  0
    8.0362   -1.9444   20.7866 C   0  0  0  0  0  0  0  0  0  0  0  0
    7.3430   -2.6715   20.3547 H   0  0  0  0  0  0  0  0  0  0  0  0
    8.8859   -1.8241   20.1054 H   0  0  0  0  0  0  0  0  0  0  0  0
    8.4938   -2.3830   22.1878 C   0  0  0  0  0  0  0  0  0  0  0  0
    9.5871   -2.4544   22.2763 H   0  0  0  0  0  0  0  0  0  0  0  0
    8.0940   -3.3620   22.4804 H   0  0  0  0  0  0  0  0  0  0  0  0
    9.4314   -3.2399   25.3369 N   0  0  0  0  0  0  0  0  0  0  0  0
  1  2  1  0
  2  3  1  0
  3  4  2  0
  4  5  1  0
  4  6  1  0
  6  7  1  0
  7  8  1  0
  7  9  1  0
  7 10  1  0
 10 11  1  0
 11 12  2  0
 11 13  1  0
 13 14  1  0
 14 15  2  0
 15 16  1  0
 15 17  1  0
 17 18  2  0
 18 19  1  0
 18 20  1  0
 20 21  1  0
 20 22  2  0
 22 23  1  0
 13 24  1  0
 24 25  1  0
 24 26  1  0
 24 27  1  0
 27 28  1  0
 27 29  1  0
  6 30  1  0
 30  2  2  0
 27 10  1  0
 22 14  1  0
M  END
>  <cnnaffinity>  (1) 
4.43604

>  <plip>  (1) 
-0.03571428571428571

>  <filename>  (1) 
[H][c]1[n][c]([H])[n]([C]([H])([H])[N]2[C](=[O])[N]([c]3[c]([H])[n][c]([H])[c]([H])[c]3[H])[C]([H])([H])[C]2([H])[H])[n]1

>  <combo1>  (1) 
-0.21620581516265586

$$$$
