
     RDKit          3D

 38 40  0  0  0  0  0  0  0  0999 V2000
    4.9595    1.8140   16.9803 H   0  0  0  0  0  0  0  0  0  0  0  0
    5.4052    1.2912   17.8257 C   0  0  0  0  0  0  0  0  0  0  0  0
    6.5631    0.6596   17.5841 N   0  0  0  0  0  0  0  0  0  0  0  0
    7.1397    0.0206   18.6095 C   0  0  0  0  0  0  0  0  0  0  0  0
    8.1006   -0.4466   18.3911 H   0  0  0  0  0  0  0  0  0  0  0  0
    6.6044   -0.0393   19.9070 C   0  0  0  0  0  0  0  0  0  0  0  0
    7.4176   -0.6635   21.0182 C   0  0  2  0  0  0  0  0  0  0  0  0
    8.1560   -1.3521   20.5864 H   0  0  0  0  0  0  0  0  0  0  0  0
    6.5995   -1.4294   21.9029 O   0  0  0  0  0  0  0  0  0  0  0  0
    6.7703   -0.9906   23.1737 C   0  0  0  0  0  0  0  0  0  0  0  0
    6.4447   -1.6079   24.1480 O   0  0  0  0  0  0  0  0  0  0  0  0
    7.3735    0.2458   23.1650 N   0  0  0  0  0  0  0  0  0  0  0  0
    7.8483    0.3836   24.0407 H   0  0  0  0  0  0  0  0  0  0  0  0
    8.1228    0.3939   21.9372 C   0  0  1  0  0  0  0  0  0  0  0  0
    7.9797    1.3926   21.5129 H   0  0  0  0  0  0  0  0  0  0  0  0
    9.5498    0.2087   22.0609 N   0  0  0  0  0  0  0  0  0  0  0  0
   10.2841    1.4055   22.4711 C   0  0  0  0  0  0  0  0  0  0  0  0
   10.1193    1.6441   23.5396 H   0  0  0  0  0  0  0  0  0  0  0  0
    9.9024    2.2599   21.8964 H   0  0  0  0  0  0  0  0  0  0  0  0
   11.7887    1.2681   22.2088 C   0  0  0  0  0  0  0  0  0  0  0  0
   12.3002    2.1639   22.5845 H   0  0  0  0  0  0  0  0  0  0  0  0
   11.9486    1.2461   21.1228 H   0  0  0  0  0  0  0  0  0  0  0  0
   12.3800   -0.0068   22.8386 C   0  0  0  0  0  0  0  0  0  0  0  0
   12.2420    0.0619   23.9312 H   0  0  0  0  0  0  0  0  0  0  0  0
   13.8846   -0.1409   22.5655 C   0  0  0  0  0  0  0  0  0  0  0  0
   14.0924   -0.2487   21.4963 H   0  0  0  0  0  0  0  0  0  0  0  0
   14.4368    0.7395   22.9155 H   0  0  0  0  0  0  0  0  0  0  0  0
   14.3268   -1.0122   23.0586 H   0  0  0  0  0  0  0  0  0  0  0  0
   11.5536   -1.2038   22.3291 C   0  0  0  0  0  0  0  0  0  0  0  0
   11.6867   -1.2847   21.2418 H   0  0  0  0  0  0  0  0  0  0  0  0
   11.9001   -2.1536   22.7546 H   0  0  0  0  0  0  0  0  0  0  0  0
   10.0583   -1.0284   22.6464 C   0  0  0  0  0  0  0  0  0  0  0  0
    9.4928   -1.8862   22.2591 H   0  0  0  0  0  0  0  0  0  0  0  0
    9.9268   -1.0337   23.7450 H   0  0  0  0  0  0  0  0  0  0  0  0
    5.3917    0.6303   20.1380 C   0  0  0  0  0  0  0  0  0  0  0  0
    4.9460    0.6468   21.1323 H   0  0  0  0  0  0  0  0  0  0  0  0
    4.7819    1.3054   19.0778 C   0  0  0  0  0  0  0  0  0  0  0  0
    3.8572    1.8577   19.2133 H   0  0  0  0  0  0  0  0  0  0  0  0
  1  2  1  0
  2  3  2  0
  3  4  1  0
  4  5  1  0
  4  6  2  0
  6  7  1  0
  7  8  1  6
  7  9  1  0
  9 10  1  0
 10 11  2  0
 10 12  1  0
 12 13  1  0
 12 14  1  0
 14 15  1  6
 14 16  1  0
 16 17  1  0
 17 18  1  0
 17 19  1  0
 17 20  1  0
 20 21  1  0
 20 22  1  0
 20 23  1  0
 23 24  1  0
 23 25  1  0
 25 26  1  0
 25 27  1  0
 25 28  1  0
 23 29  1  0
 29 30  1  0
 29 31  1  0
 29 32  1  0
 32 33  1  0
 32 34  1  0
  6 35  1  0
 35 36  1  0
 35 37  2  0
 37 38  1  0
 37  2  1  0
 14  7  1  0
 32 16  1  0
M  END
>  <cnnaffinity>  (1) 
4.53407

>  <plip>  (1) 
-0.03571428571428571

>  <filename>  (1) 
[H][c]1[n][c]([H])[c]([C@]2([H])[O][C](=[O])[N]([H])[C@@]2([H])[N]2[C]([H])([H])[C]([H])([H])[C]([H])([C]([H])([H])[H])[C]([H])([H])[C]2([H])[H])[c]([H])[c]1[H]

>  <combo1>  (1) 
-0.2065513204229361

$$$$
