
     RDKit          3D

 35 38  0  0  0  0  0  0  0  0999 V2000
    5.0536    1.7081   16.9933 H   0  0  0  0  0  0  0  0  0  0  0  0
    5.4647    1.1997   17.8634 C   0  0  0  0  0  0  0  0  0  0  0  0
    6.6139    0.5346   17.6691 N   0  0  0  0  0  0  0  0  0  0  0  0
    7.1778   -0.0556   18.7345 C   0  0  0  0  0  0  0  0  0  0  0  0
    8.0993   -0.6090   18.5593 H   0  0  0  0  0  0  0  0  0  0  0  0
    6.6477    0.0047   20.0494 C   0  0  0  0  0  0  0  0  0  0  0  0
    7.2968   -0.5251   21.1602 N   0  0  0  0  0  0  0  0  0  0  0  0
    6.7849   -0.6007   22.0441 H   0  0  0  0  0  0  0  0  0  0  0  0
    8.6777   -0.5422   21.3626 C   0  0  0  0  0  0  0  0  0  0  0  0
    9.7133    0.2216   20.7629 C   0  0  0  0  0  0  0  0  0  0  0  0
    9.6258    0.9637   19.9880 H   0  0  0  0  0  0  0  0  0  0  0  0
   10.9018   -0.0539   21.2884 N   0  0  0  0  0  0  0  0  0  0  0  0
   10.6490   -1.0162   22.1867 N   0  0  0  0  0  0  0  0  0  0  0  0
   11.3776   -1.2843   22.8293 H   0  0  0  0  0  0  0  0  0  0  0  0
    9.3267   -1.3326   22.3056 C   0  0  0  0  0  0  0  0  0  0  0  0
    8.8308   -2.3696   23.2263 C   0  0  0  0  0  0  0  0  0  0  0  0
    9.5241   -3.5672   23.3903 C   0  0  0  0  0  0  0  0  0  0  0  0
   10.4636   -3.6943   22.8684 H   0  0  0  0  0  0  0  0  0  0  0  0
    9.0373   -4.6166   24.1952 C   0  0  0  0  0  0  0  0  0  0  0  0
    9.6306   -5.5215   24.3031 H   0  0  0  0  0  0  0  0  0  0  0  0
    7.8622   -4.4641   24.8973 C   0  0  0  0  0  0  0  0  0  0  0  0
    7.4635   -5.2829   25.4931 H   0  0  0  0  0  0  0  0  0  0  0  0
    7.1843   -3.2101   24.8734 C   0  0  0  0  0  0  0  0  0  0  0  0
    6.1145   -2.9105   25.7746 C   0  0  0  0  0  0  0  0  0  0  0  0
    5.7532   -3.6740   26.4640 H   0  0  0  0  0  0  0  0  0  0  0  0
    5.6027   -1.6348   25.7968 C   0  0  0  0  0  0  0  0  0  0  0  0
    4.8569   -1.3156   26.5168 H   0  0  0  0  0  0  0  0  0  0  0  0
    6.0724   -0.6883   24.8488 C   0  0  0  0  0  0  0  0  0  0  0  0
    5.6643    0.3170   24.8508 H   0  0  0  0  0  0  0  0  0  0  0  0
    6.9768   -0.9518   23.9309 N   0  0  0  0  0  0  0  0  0  0  0  0
    7.6359   -2.1594   23.9950 C   0  0  0  0  0  0  0  0  0  0  0  0
    5.4024    0.6267   20.2103 C   0  0  0  0  0  0  0  0  0  0  0  0
    4.9352    0.6326   21.1969 H   0  0  0  0  0  0  0  0  0  0  0  0
    4.8127    1.2481   19.1019 C   0  0  0  0  0  0  0  0  0  0  0  0
    3.8761    1.7862   19.1865 H   0  0  0  0  0  0  0  0  0  0  0  0
  1  2  1  0
  2  3  2  0
  3  4  1  0
  4  5  1  0
  4  6  2  0
  6  7  1  0
  7  8  1  0
  7  9  1  0
  9 10  1  0
 10 11  1  0
 10 12  2  0
 12 13  1  0
 13 14  1  0
 13 15  1  0
 15 16  1  0
 16 17  2  0
 17 18  1  0
 17 19  1  0
 19 20  1  0
 19 21  2  0
 21 22  1  0
 21 23  1  0
 23 24  2  0
 24 25  1  0
 24 26  1  0
 26 27  1  0
 26 28  2  0
 28 29  1  0
 28 30  1  0
 30 31  2  0
  6 32  1  0
 32 33  1  0
 32 34  2  0
 34 35  1  0
 34  2  1  0
 15  9  2  0
 31 16  1  0
 31 23  1  0
M  END
>  <cnnaffinity>  (1) 
5.61831

>  <plip>  (1) 
-0.07142857142857142

>  <filename>  (1) 
[H][c]1[n][c]([H])[c]([N]([H])[c]2[c]([H])[n][n]([H])[c]2-[c]2[c]([H])[c]([H])[c]([H])[c]3[c]([H])[c]([H])[c]([H])[n][c]23)[c]([H])[c]1[H]

>  <combo1>  (1) 
-0.46556624083544723

$$$$
