
     RDKit          3D

 40 42  0  0  0  0  0  0  0  0999 V2000
    6.6100   -2.5596   22.7898 O   0  0  0  0  0  0  0  0  0  0  0  0
    6.5556   -2.3770   21.5630 C   0  0  0  0  0  0  0  0  0  0  0  0
    6.1777   -3.1297   20.6587 O   0  0  0  0  0  1  0  0  0  0  0  0
    7.2622   -0.9352   20.9412 C   0  0  0  0  0  0  0  0  0  0  0  0
    7.6685    0.2510   21.9469 N   0  0  0  0  0  4  0  0  0  0  0  0
    8.2885   -0.2563   23.2033 C   0  0  0  0  0  0  0  0  0  0  0  0
    9.7870   -0.3096   22.9894 C   0  0  0  0  0  0  0  0  0  0  0  0
   10.4524   -1.5010   22.6621 C   0  0  0  0  0  0  0  0  0  0  0  0
   11.8238   -1.4962   22.3760 C   0  0  0  0  0  0  0  0  0  0  0  0
   12.5352   -0.2890   22.3660 C   0  0  0  0  0  0  0  0  0  0  0  0
   11.8623    0.9181   22.6107 C   0  0  0  0  0  0  0  0  0  0  0  0
   12.4926    2.2430   22.4163 C   0  0  0  0  0  0  0  0  0  0  0  0
   13.7598    2.5968   22.8747 C   0  0  0  0  0  0  0  0  0  0  0  0
   14.2726    3.8227   22.7259 N   0  0  0  0  0  0  0  0  0  0  0  0
   13.5367    4.7006   22.0473 C   0  0  0  0  0  0  0  0  0  0  0  0
   12.3316    4.4780   21.5296 N   0  0  0  0  0  0  0  0  0  0  0  0
   11.8244    3.2640   21.7304 C   0  0  0  0  0  0  0  0  0  0  0  0
   10.8466    3.0447   21.2962 H   0  0  0  0  0  0  0  0  0  0  0  0
   13.9739    5.6867   21.8992 H   0  0  0  0  0  0  0  0  0  0  0  0
   14.3836    1.8611   23.3807 H   0  0  0  0  0  0  0  0  0  0  0  0
   10.5130    0.8863   22.9798 C   0  0  0  0  0  0  0  0  0  0  0  0
   10.0265    1.8176   23.2704 H   0  0  0  0  0  0  0  0  0  0  0  0
   13.6018   -0.2604   22.1482 H   0  0  0  0  0  0  0  0  0  0  0  0
   12.3360   -2.4343   22.1796 H   0  0  0  0  0  0  0  0  0  0  0  0
    9.8840   -2.4310   22.6294 H   0  0  0  0  0  0  0  0  0  0  0  0
    7.8906   -1.2585   23.3946 H   0  0  0  0  0  0  0  0  0  0  0  0
    8.0304    0.3965   24.0425 H   0  0  0  0  0  0  0  0  0  0  0  0
    8.3769    0.8571   21.4592 H   0  0  0  0  0  0  0  0  0  0  0  0
    6.8106    0.8149   22.0953 H   0  0  0  0  0  0  0  0  0  0  0  0
    6.5364   -0.1928   19.8486 C   0  0  0  0  0  0  0  0  0  0  0  0
    5.2553    0.3522   20.0139 C   0  0  0  0  0  0  0  0  0  0  0  0
    4.7342    1.1533   18.9884 C   0  0  0  0  0  0  0  0  0  0  0  0
    5.4916    1.3503   17.8301 C   0  0  0  0  0  0  0  0  0  0  0  0
    6.7057    0.8074   17.6399 N   0  0  0  0  0  0  0  0  0  0  0  0
    7.2016    0.0694   18.6378 C   0  0  0  0  0  0  0  0  0  0  0  0
    8.1946   -0.3502   18.4739 H   0  0  0  0  0  0  0  0  0  0  0  0
    5.1133    1.9700   17.0173 H   0  0  0  0  0  0  0  0  0  0  0  0
    3.7731    1.6455   19.0904 H   0  0  0  0  0  0  0  0  0  0  0  0
    4.6915    0.1654   20.9284 H   0  0  0  0  0  0  0  0  0  0  0  0
    8.1959   -1.3431   20.5520 H   0  0  0  0  0  0  0  0  0  0  0  0
  1  2  2  0
  2  3  1  0
  2  4  1  0
  4  5  1  0
  5  6  1  0
  6  7  1  0
  7  8  2  0
  8  9  1  0
  9 10  2  0
 10 11  1  0
 11 12  1  0
 12 13  2  0
 13 14  1  0
 14 15  2  0
 15 16  1  0
 16 17  2  0
 17 18  1  0
 15 19  1  0
 13 20  1  0
 11 21  2  0
 21 22  1  0
 10 23  1  0
  9 24  1  0
  8 25  1  0
  6 26  1  0
  6 27  1  0
  5 28  1  0
  5 29  1  0
  4 30  1  0
 30 31  2  0
 31 32  1  0
 32 33  2  0
 33 34  1  0
 34 35  2  0
 35 36  1  0
 33 37  1  0
 32 38  1  0
 31 39  1  0
  4 40  1  0
 21  7  1  0
 35 30  1  0
 17 12  1  0
M  CHG  2   3  -1   5   1
M  END
>  <cnnaffinity>  (1) 
5.75929

>  <plip>  (1) 
-0.06666666666666667

>  <filename>  (1) 
[H][c]1[n][c]([H])[c](-[c]2[c]([H])[c]([H])[c]([H])[c]([C]([H])([H])[N+]([H])([H])[C]([H])([C](=[O])[O-])[c]3[c]([H])[n][c]([H])[c]([H])[c]3[H])[c]2[H])[c]([H])[n]1

>  <combo1>  (1) 
-0.3995112320891463

$$$$
