
     RDKit          3D

 35 37  0  0  0  0  0  0  0  0999 V2000
    4.9605    1.6927   17.0739 H   0  0  0  0  0  0  0  0  0  0  0  0
    5.5048    1.2202   17.8879 C   0  0  0  0  0  0  0  0  0  0  0  0
    6.6870    0.6666   17.5783 N   0  0  0  0  0  0  0  0  0  0  0  0
    7.3724    0.0650   18.5616 C   0  0  0  0  0  0  0  0  0  0  0  0
    8.3233   -0.3766   18.2676 H   0  0  0  0  0  0  0  0  0  0  0  0
    6.9335   -0.0428   19.9143 C   0  0  0  0  0  0  0  0  0  0  0  0
    7.6527   -0.7154   20.8945 N   0  0  0  0  0  0  0  0  0  0  0  0
    9.0397   -1.1374   20.7189 C   0  0  0  0  0  0  0  0  0  0  0  0
    9.1642   -1.7347   19.8137 H   0  0  0  0  0  0  0  0  0  0  0  0
    9.7079   -0.2695   20.5959 H   0  0  0  0  0  0  0  0  0  0  0  0
    9.3372   -1.9115   22.0030 C   0  0  0  0  0  0  0  0  0  0  0  0
   10.4002   -1.9357   22.2514 H   0  0  0  0  0  0  0  0  0  0  0  0
    8.9903   -2.9498   21.8943 H   0  0  0  0  0  0  0  0  0  0  0  0
    8.4922   -1.1468   23.0202 C   0  0  0  0  0  0  0  0  0  0  0  0
    8.3328   -1.6631   23.9697 H   0  0  0  0  0  0  0  0  0  0  0  0
    8.9502   -0.1742   23.2362 H   0  0  0  0  0  0  0  0  0  0  0  0
    7.1823   -0.8605   22.2579 C   0  0  2  0  0  0  0  0  0  0  0  0
    6.7436    0.0803   22.6327 H   0  0  0  0  0  0  0  0  0  0  0  0
    6.1673   -1.8533   22.3713 N   0  0  0  0  0  0  0  0  0  0  0  0
    5.5616   -1.7563   23.1648 H   0  0  0  0  0  0  0  0  0  0  0  0
    6.0312   -3.1212   21.7005 C   0  0  0  0  0  0  0  0  0  0  0  0
    6.8465   -3.2734   20.9858 H   0  0  0  0  0  0  0  0  0  0  0  0
    5.1029   -3.1182   21.1043 H   0  0  0  0  0  0  0  0  0  0  0  0
    5.9584   -4.2494   22.7165 C   0  0  0  0  0  0  0  0  0  0  0  0
    6.8959   -4.3853   23.2570 H   0  0  0  0  0  0  0  0  0  0  0  0
    5.1720   -5.5149   22.5238 C   0  0  0  0  0  0  0  0  0  0  0  0
    5.5889   -6.4489   22.8973 H   0  0  0  0  0  0  0  0  0  0  0  0
    4.5797   -5.6443   21.6209 H   0  0  0  0  0  0  0  0  0  0  0  0
    4.7163   -4.4947   23.5298 C   0  0  0  0  0  0  0  0  0  0  0  0
    4.8107   -4.7205   24.5911 H   0  0  0  0  0  0  0  0  0  0  0  0
    3.8187   -3.9315   23.2849 H   0  0  0  0  0  0  0  0  0  0  0  0
    5.6888    0.5588   20.2063 C   0  0  0  0  0  0  0  0  0  0  0  0
    5.2963    0.5183   21.2190 H   0  0  0  0  0  0  0  0  0  0  0  0
    4.9744    1.1910   19.1851 C   0  0  0  0  0  0  0  0  0  0  0  0
    4.0202    1.6614   19.3873 H   0  0  0  0  0  0  0  0  0  0  0  0
  1  2  1  0
  2  3  2  0
  3  4  1  0
  4  5  1  0
  4  6  2  0
  6  7  1  0
  7  8  1  0
  8  9  1  0
  8 10  1  0
  8 11  1  0
 11 12  1  0
 11 13  1  0
 11 14  1  0
 14 15  1  0
 14 16  1  0
 14 17  1  0
 17 18  1  1
 17 19  1  0
 19 20  1  0
 19 21  1  0
 21 22  1  0
 21 23  1  0
 21 24  1  0
 24 25  1  0
 24 26  1  0
 26 27  1  0
 26 28  1  0
 26 29  1  0
 29 30  1  0
 29 31  1  0
  6 32  1  0
 32 33  1  0
 32 34  2  0
 34 35  1  0
 34  2  1  0
 17  7  1  0
 29 24  1  0
M  END
>  <cnnaffinity>  (1) 
4.56644

>  <plip>  (1) 
-0.06896551724137931

>  <filename>  (1) 
[H][c]1[n][c]([H])[c]([N]2[C]([H])([H])[C]([H])([H])[C]([H])([H])[C@]2([H])[N]([H])[C]([H])([H])[C]2([H])[C]([H])([H])[C]2([H])[H])[c]([H])[c]1[H]

>  <combo1>  (1) 
-0.483055238380552

$$$$
