
     RDKit          3D

 39 42  0  0  0  0  0  0  0  0999 V2000
    4.9958    1.8295   16.8250 H   0  0  0  0  0  0  0  0  0  0  0  0
    5.3892    1.3622   17.7247 C   0  0  0  0  0  0  0  0  0  0  0  0
    6.5425    0.6910   17.5756 N   0  0  0  0  0  0  0  0  0  0  0  0
    7.0519    0.1108   18.6662 C   0  0  0  0  0  0  0  0  0  0  0  0
    7.9847   -0.4346   18.5186 H   0  0  0  0  0  0  0  0  0  0  0  0
    6.4873    0.1747   19.9630 C   0  0  0  0  0  0  0  0  0  0  0  0
    7.1550   -0.5078   21.0958 C   0  0  0  0  0  0  0  0  0  0  0  0
    7.3470   -0.0840   22.3663 C   0  0  0  0  0  0  0  0  0  0  0  0
    7.2182    1.2400   22.8058 N   0  0  0  0  0  0  0  0  0  0  0  0
    7.3102    1.9467   22.0924 H   0  0  0  0  0  0  0  0  0  0  0  0
    7.3195    1.6815   24.1039 C   0  0  0  0  0  0  0  0  0  0  0  0
    7.1753    0.9506   25.0672 O   0  0  0  0  0  0  0  0  0  0  0  0
    7.6015    3.1766   24.2721 C   0  0  0  0  0  0  0  0  0  0  0  0
    8.3010    3.9860   23.3508 C   0  0  0  0  0  0  0  0  0  0  0  0
    8.6970    3.6233   22.4062 H   0  0  0  0  0  0  0  0  0  0  0  0
    8.5506    5.3277   23.6590 C   0  0  0  0  0  0  0  0  0  0  0  0
    9.0865    5.9584   22.9518 H   0  0  0  0  0  0  0  0  0  0  0  0
    8.1600    5.9173   24.7967 N   0  0  0  0  0  0  0  0  0  0  0  0
    7.4948    5.1581   25.6749 C   0  0  0  0  0  0  0  0  0  0  0  0
    7.1777    5.6498   26.5939 H   0  0  0  0  0  0  0  0  0  0  0  0
    7.2019    3.8080   25.4669 C   0  0  0  0  0  0  0  0  0  0  0  0
    6.6764    3.2554   26.2370 H   0  0  0  0  0  0  0  0  0  0  0  0
    7.8915   -1.1511   23.2807 C   0  0  0  0  0  0  0  0  0  0  0  0
    7.1274   -1.4504   24.0115 H   0  0  0  0  0  0  0  0  0  0  0  0
    8.7152   -0.7468   23.8840 H   0  0  0  0  0  0  0  0  0  0  0  0
    8.3525   -2.2465   22.2993 C   0  0  0  0  0  0  0  0  0  0  0  0
    7.8196   -1.8529   20.9145 C   0  0  0  0  0  0  0  0  0  0  0  0
    8.6627   -1.7806   20.2076 H   0  0  0  0  0  0  0  0  0  0  0  0
    7.1150   -2.5952   20.5097 H   0  0  0  0  0  0  0  0  0  0  0  0
    8.5414   -3.6993   22.6187 C   0  0  0  0  0  0  0  0  0  0  0  0
    8.2856   -4.4431   21.8668 H   0  0  0  0  0  0  0  0  0  0  0  0
    8.3220   -4.0120   23.6311 H   0  0  0  0  0  0  0  0  0  0  0  0
    9.7428   -2.8216   22.4146 C   0  0  0  0  0  0  0  0  0  0  0  0
   10.3196   -2.8700   21.4978 H   0  0  0  0  0  0  0  0  0  0  0  0
   10.3535   -2.5782   23.2815 H   0  0  0  0  0  0  0  0  0  0  0  0
    5.2725    0.8814   20.0843 C   0  0  0  0  0  0  0  0  0  0  0  0
    4.7730    0.9495   21.0522 H   0  0  0  0  0  0  0  0  0  0  0  0
    4.7187    1.4729   18.9463 C   0  0  0  0  0  0  0  0  0  0  0  0
    3.7814    2.0150   18.9868 H   0  0  0  0  0  0  0  0  0  0  0  0
  1  2  1  0
  2  3  2  0
  3  4  1  0
  4  5  1  0
  4  6  2  0
  6  7  1  0
  7  8  2  0
  8  9  1  0
  9 10  1  0
  9 11  1  0
 11 12  2  0
 11 13  1  0
 13 14  2  0
 14 15  1  0
 14 16  1  0
 16 17  1  0
 16 18  2  0
 18 19  1  0
 19 20  1  0
 19 21  2  0
 21 22  1  0
  8 23  1  0
 23 24  1  0
 23 25  1  0
 23 26  1  0
 26 27  1  0
 27 28  1  0
 27 29  1  0
 26 30  1  0
 30 31  1  0
 30 32  1  0
 30 33  1  0
 33 34  1  0
 33 35  1  0
  6 36  1  0
 36 37  1  0
 36 38  2  0
 38 39  1  0
 38  2  1  0
 27  7  1  0
 21 13  1  0
 33 26  1  0
M  END
>  <cnnaffinity>  (1) 
5.16938

>  <plip>  (1) 
-0.03571428571428571

>  <filename>  (1) 
[H][c]1[n][c]([H])[c]([C]2=[C]([N]([H])[C](=[O])[c]3[c]([H])[c]([H])[n][c]([H])[c]3[H])[C]([H])([H])[C]3([C]2([H])[H])[C]([H])([H])[C]3([H])[H])[c]([H])[c]1[H]

>  <combo1>  (1) 
-0.2112215315226085

$$$$
