
     RDKit          3D

 40 41  0  0  0  0  0  0  0  0999 V2000
    8.4754   -1.8863   19.9368 H   0  0  0  0  0  0  0  0  0  0  0  0
    8.6635   -1.1381   20.5185 O   0  0  0  0  0  0  0  0  0  0  0  0
    7.3994   -0.7113   21.0322 C   0  0  2  0  0  0  0  0  0  0  0  0
    6.6277   -0.0305   19.9003 C   0  0  0  0  0  0  0  0  0  0  0  0
    7.1500    0.0462   18.5937 C   0  0  0  0  0  0  0  0  0  0  0  0
    8.1159   -0.3939   18.3623 H   0  0  0  0  0  0  0  0  0  0  0  0
    6.5545    0.6704   17.5706 N   0  0  0  0  0  0  0  0  0  0  0  0
    5.3951    1.2930   17.8185 C   0  0  0  0  0  0  0  0  0  0  0  0
    4.9425    1.8081   16.9741 H   0  0  0  0  0  0  0  0  0  0  0  0
    4.7882    1.3023   19.0803 C   0  0  0  0  0  0  0  0  0  0  0  0
    3.8637    1.8510   19.2255 H   0  0  0  0  0  0  0  0  0  0  0  0
    5.4111    0.6332   20.1342 C   0  0  0  0  0  0  0  0  0  0  0  0
    4.9701    0.6688   21.1351 H   0  0  0  0  0  0  0  0  0  0  0  0
    7.7235    0.3001   22.1360 C   0  0  0  0  0  0  0  0  0  0  0  0
    8.1284    1.2083   21.6813 H   0  0  0  0  0  0  0  0  0  0  0  0
    6.8294    0.5691   22.7118 H   0  0  0  0  0  0  0  0  0  0  0  0
    8.4695   -0.1065   22.8270 H   0  0  0  0  0  0  0  0  0  0  0  0
    6.5398   -1.9190   21.5694 C   0  0  0  0  0  0  0  0  0  0  0  0
    5.5376   -1.5273   21.7470 H   0  0  0  0  0  0  0  0  0  0  0  0
    6.4480   -2.6291   20.7305 H   0  0  0  0  0  0  0  0  0  0  0  0
    6.9416   -2.6835   22.7468 N   0  0  0  0  0  0  0  0  0  0  0  0
    8.3038   -3.2089   22.6598 C   0  0  0  0  0  0  0  0  0  0  0  0
    9.0530   -2.4019   22.7913 H   0  0  0  0  0  0  0  0  0  0  0  0
    8.4569   -3.6202   21.6531 H   0  0  0  0  0  0  0  0  0  0  0  0
    8.5124   -4.2934   23.7147 C   0  0  0  0  0  0  0  0  0  0  0  0
    7.8581   -5.1522   23.5033 H   0  0  0  0  0  0  0  0  0  0  0  0
    9.5529   -4.6406   23.7020 H   0  0  0  0  0  0  0  0  0  0  0  0
    8.1937   -3.7468   25.1061 C   0  0  0  0  0  0  0  0  0  0  0  0
    8.9111   -2.9306   25.3279 H   0  0  0  0  0  0  0  0  0  0  0  0
    8.3281   -4.7958   26.0390 O   0  0  0  0  0  0  0  0  0  0  0  0
    8.7873   -4.4107   27.3112 C   0  0  0  0  0  0  0  0  0  0  0  0
    8.1916   -3.5962   27.7533 H   0  0  0  0  0  0  0  0  0  0  0  0
    8.7061   -5.2956   27.9441 H   0  0  0  0  0  0  0  0  0  0  0  0
    9.8354   -4.0769   27.2752 H   0  0  0  0  0  0  0  0  0  0  0  0
    6.7820   -3.1616   25.1381 C   0  0  0  0  0  0  0  0  0  0  0  0
    6.5621   -2.7302   26.1251 H   0  0  0  0  0  0  0  0  0  0  0  0
    6.0524   -3.9623   24.9534 H   0  0  0  0  0  0  0  0  0  0  0  0
    6.6456   -2.0959   24.0553 C   0  0  0  0  0  0  0  0  0  0  0  0
    7.3049   -1.2354   24.2824 H   0  0  0  0  0  0  0  0  0  0  0  0
    5.6207   -1.7289   24.0942 H   0  0  0  0  0  0  0  0  0  0  0  0
  1  2  1  0
  3  2  1  6
  3  4  1  0
  4  5  2  0
  5  6  1  0
  5  7  1  0
  7  8  2  0
  8  9  1  0
  8 10  1  0
 10 11  1  0
 10 12  2  0
 12 13  1  0
  3 14  1  0
 14 15  1  0
 14 16  1  0
 14 17  1  0
  3 18  1  0
 18 19  1  0
 18 20  1  0
 18 21  1  0
 21 22  1  0
 22 23  1  0
 22 24  1  0
 22 25  1  0
 25 26  1  0
 25 27  1  0
 25 28  1  0
 28 29  1  0
 28 30  1  0
 30 31  1  0
 31 32  1  0
 31 33  1  0
 31 34  1  0
 28 35  1  0
 35 36  1  0
 35 37  1  0
 35 38  1  0
 38 39  1  0
 38 40  1  0
 12  4  1  0
 38 21  1  0
M  END
>  <cnnaffinity>  (1) 
4.32074

>  <plip>  (1) 
-0.0

>  <filename>  (1) 
[H][O][C@]([c]1[c]([H])[n][c]([H])[c]([H])[c]1[H])([C]([H])([H])[H])[C]([H])([H])[N]1[C]([H])([H])[C]([H])([H])[C]([H])([O][C]([H])([H])[H])[C]([H])([H])[C]1([H])[H]

>  <combo1>  (1) 
-5.753116403426777e-06

$$$$
