
     RDKit          3D

 24 24  0  0  0  0  0  0  0  0999 V2000
   13.7873   -1.6830   20.9497 H   0  0  0  0  0  0  0  0  0  0  0  0
   12.7649   -1.7017   21.2532 C   0  0  0  0  0  0  0  0  0  0  0  0
   11.5968   -1.7020   21.5487 C   0  0  0  0  0  0  0  0  0  0  0  0
   10.1945   -1.6833   21.9736 C   0  0  0  0  0  0  0  0  0  0  0  0
   10.0325   -0.7349   22.5107 H   0  0  0  0  0  0  0  0  0  0  0  0
   10.0274   -2.5159   22.6762 H   0  0  0  0  0  0  0  0  0  0  0  0
    9.3478   -1.8079   20.8457 O   0  0  0  0  0  0  0  0  0  0  0  0
    7.9530   -1.8354   21.1261 C   0  0  0  0  0  0  0  0  0  0  0  0
    7.4901   -2.3566   20.2877 H   0  0  0  0  0  0  0  0  0  0  0  0
    7.7466   -2.4456   22.0213 H   0  0  0  0  0  0  0  0  0  0  0  0
    7.3178   -0.4528   21.2818 C   0  0  0  0  0  0  0  0  0  0  0  0
    7.3466    0.1748   22.4587 C   0  0  0  0  0  0  0  0  0  0  0  0
    6.9718    1.1898   22.5691 H   0  0  0  0  0  0  0  0  0  0  0  0
    7.7997   -0.2788   23.3381 H   0  0  0  0  0  0  0  0  0  0  0  0
    6.6520    0.1666   20.1029 C   0  0  0  0  0  0  0  0  0  0  0  0
    7.2385    0.1019   18.8278 C   0  0  0  0  0  0  0  0  0  0  0  0
    8.1994   -0.4062   18.7173 H   0  0  0  0  0  0  0  0  0  0  0  0
    6.7066    0.6372   17.7211 N   0  0  0  0  0  0  0  0  0  0  0  0
    5.5203    1.2516   17.8481 C   0  0  0  0  0  0  0  0  0  0  0  0
    5.1022    1.6751   16.9352 H   0  0  0  0  0  0  0  0  0  0  0  0
    4.8378    1.3654   19.0665 C   0  0  0  0  0  0  0  0  0  0  0  0
    3.8813    1.8751   19.1002 H   0  0  0  0  0  0  0  0  0  0  0  0
    5.4155    0.8293   20.2159 C   0  0  0  0  0  0  0  0  0  0  0  0
    4.9267    0.8852   21.1910 H   0  0  0  0  0  0  0  0  0  0  0  0
  1  2  1  0
  2  3  3  0
  3  4  1  0
  4  5  1  0
  4  6  1  0
  4  7  1  0
  7  8  1  0
  8  9  1  0
  8 10  1  0
  8 11  1  0
 11 12  2  3
 12 13  1  0
 12 14  1  0
 11 15  1  0
 15 16  2  0
 16 17  1  0
 16 18  1  0
 18 19  2  0
 19 20  1  0
 19 21  1  0
 21 22  1  0
 21 23  2  0
 23 24  1  0
 23 15  1  0
M  END
>  <cnnaffinity>  (1) 
4.41687

>  <plip>  (1) 
-0.03571428571428571

>  <filename>  (1) 
[H][C]#[C][C]([H])([H])[O][C]([H])([H])[C](=[C]([H])[H])[c]1[c]([H])[n][c]([H])[c]([H])[c]1[H]

>  <combo1>  (1) 
-0.30356369664455

$$$$
