
     RDKit          3D

 42 44  0  0  0  0  0  0  0  0999 V2000
   12.3453    4.6836   21.6214 C   0  0  0  0  0  0  0  0  0  0  0  0
   11.3504    3.6839   22.1112 C   0  0  0  0  0  0  0  0  0  0  0  0
   10.9028    3.6816   23.3259 N   0  0  0  0  0  0  0  0  0  0  0  0
    9.8613    2.7966   23.4758 C   0  0  0  0  0  0  0  0  0  0  0  0
    9.3370    2.4364   24.8257 C   0  0  0  0  0  0  0  0  0  0  0  0
    9.8531    2.9977   25.5959 H   0  0  0  0  0  0  0  0  0  0  0  0
    9.4993    1.3683   25.0141 H   0  0  0  0  0  0  0  0  0  0  0  0
    8.2648    2.6275   24.9249 H   0  0  0  0  0  0  0  0  0  0  0  0
    9.4284    2.2025   22.3339 C   0  0  0  0  0  0  0  0  0  0  0  0
    8.1664    1.4537   22.0976 C   0  0  0  0  0  0  0  0  0  0  0  0
    8.5716    0.1114   21.4825 N   0  0  0  0  0  4  0  0  0  0  0  0
    9.4377   -0.7315   22.4486 C   0  0  0  0  0  0  0  0  0  0  0  0
    8.6128   -1.3512   23.5937 C   0  0  0  0  0  0  0  0  0  0  0  0
    7.4311   -2.1825   23.0597 N   0  0  0  0  0  4  0  0  0  0  0  0
    6.5730   -1.3196   22.0967 C   0  0  0  0  0  0  0  0  0  0  0  0
    7.4295   -0.7548   20.9393 C   0  0  0  0  0  0  0  0  0  0  0  0
    6.6431    0.0069   19.9048 C   0  0  0  0  0  0  0  0  0  0  0  0
    5.4248    0.6573   20.1436 C   0  0  0  0  0  0  0  0  0  0  0  0
    4.7960    1.3192   19.0858 C   0  0  0  0  0  0  0  0  0  0  0  0
    5.4021    1.3038   17.8261 C   0  0  0  0  0  0  0  0  0  0  0  0
    6.5714    0.6939   17.5836 N   0  0  0  0  0  0  0  0  0  0  0  0
    7.1712    0.0808   18.6077 C   0  0  0  0  0  0  0  0  0  0  0  0
    8.1259   -0.3984   18.3840 H   0  0  0  0  0  0  0  0  0  0  0  0
    4.9328    1.7999   16.9770 H   0  0  0  0  0  0  0  0  0  0  0  0
    3.8658    1.8556   19.2282 H   0  0  0  0  0  0  0  0  0  0  0  0
    4.9753    0.6613   21.1404 H   0  0  0  0  0  0  0  0  0  0  0  0
    7.9068   -1.6182   20.4555 H   0  0  0  0  0  0  0  0  0  0  0  0
    5.7352   -1.8724   21.6813 H   0  0  0  0  0  0  0  0  0  0  0  0
    6.1726   -0.4638   22.6444 H   0  0  0  0  0  0  0  0  0  0  0  0
    7.8187   -2.9964   22.5134 H   0  0  0  0  0  0  0  0  0  0  0  0
    6.8397   -2.5498   23.8379 H   0  0  0  0  0  0  0  0  0  0  0  0
    9.2625   -1.9608   24.2207 H   0  0  0  0  0  0  0  0  0  0  0  0
    8.2242   -0.5319   24.2071 H   0  0  0  0  0  0  0  0  0  0  0  0
   10.2137   -0.0880   22.8684 H   0  0  0  0  0  0  0  0  0  0  0  0
    9.9381   -1.5274   21.8837 H   0  0  0  0  0  0  0  0  0  0  0  0
    9.1334    0.4816   20.6753 H   0  0  0  0  0  0  0  0  0  0  0  0
    7.6094    1.2933   23.0220 H   0  0  0  0  0  0  0  0  0  0  0  0
    7.4847    1.9716   21.4116 H   0  0  0  0  0  0  0  0  0  0  0  0
   10.6208    2.4513   21.0988 S   0  0  0  0  0  0  0  0  0  0  0  0
   13.1137    4.8148   22.3887 H   0  0  0  0  0  0  0  0  0  0  0  0
   12.7868    4.4065   20.6622 H   0  0  0  0  0  0  0  0  0  0  0  0
   11.8317    5.6465   21.5066 H   0  0  0  0  0  0  0  0  0  0  0  0
  1  2  1  0
  2  3  2  0
  3  4  1  0
  4  5  1  0
  5  6  1  0
  5  7  1  0
  5  8  1  0
  4  9  2  0
  9 10  1  0
 10 11  1  0
 11 12  1  0
 12 13  1  0
 13 14  1  0
 14 15  1  0
 15 16  1  0
 16 17  1  0
 17 18  2  0
 18 19  1  0
 19 20  2  0
 20 21  1  0
 21 22  2  0
 22 23  1  0
 20 24  1  0
 19 25  1  0
 18 26  1  0
 16 27  1  0
 15 28  1  0
 15 29  1  0
 14 30  1  0
 14 31  1  0
 13 32  1  0
 13 33  1  0
 12 34  1  0
 12 35  1  0
 11 36  1  0
 10 37  1  0
 10 38  1  0
  9 39  1  0
  1 40  1  0
  1 41  1  0
  1 42  1  0
 39  2  1  0
 16 11  1  0
 22 17  1  0
M  CHG  2  11   1  14   1
M  END
>  <cnnaffinity>  (1) 
5.31435

>  <plip>  (1) 
-0.10344827586206896

>  <filename>  (1) 
[H][c]1[n][c]([H])[c]([C]2([H])[C]([H])([H])[N+]([H])([H])[C]([H])([H])[C]([H])([H])[N+]2([H])[C]([H])([H])[c]2[s][c]([C]([H])([H])[H])[n][c]2[C]([H])([H])[H])[c]([H])[c]1[H]

>  <combo1>  (1) 
-0.6309598268667178

$$$$
