
     RDKit          3D

 38 39  0  0  0  0  0  0  0  0999 V2000
    6.8977   -3.5236   22.1791 C   0  0  0  0  0  0  0  0  0  0  0  0
    8.2356   -2.9945   21.6523 C   0  0  2  0  0  0  0  0  0  0  0  0
    9.1424   -2.4928   22.7978 C   0  0  0  0  0  0  0  0  0  0  0  0
    9.5734   -3.5718   23.6123 O   0  0  0  0  0  0  0  0  0  0  0  0
   10.2752   -4.0393   23.1426 H   0  0  0  0  0  0  0  0  0  0  0  0
    8.6029   -1.7937   23.4431 H   0  0  0  0  0  0  0  0  0  0  0  0
    9.9826   -1.9194   22.3776 H   0  0  0  0  0  0  0  0  0  0  0  0
    8.0126   -1.9466   20.5832 N   0  0  0  0  0  4  0  0  0  0  0  0
    7.3912   -0.6417   21.0417 C   0  0  0  0  0  0  0  0  0  0  0  0
    8.4064    0.3358   21.6408 C   0  0  0  0  0  0  0  0  0  0  0  0
    8.1412    0.9266   22.8854 C   0  0  0  0  0  0  0  0  0  0  0  0
    9.0132    1.8529   23.4470 C   0  0  0  0  0  0  0  0  0  0  0  0
   10.1736    2.2241   22.7619 C   0  0  0  0  0  0  0  0  0  0  0  0
   10.9777    3.1229   23.3854 O   0  0  0  0  0  0  0  0  0  0  0  0
   11.7183    3.3013   22.7977 H   0  0  0  0  0  0  0  0  0  0  0  0
   10.4527    1.6719   21.5038 C   0  0  0  0  0  0  0  0  0  0  0  0
    9.5657    0.7309   20.9614 C   0  0  0  0  0  0  0  0  0  0  0  0
    9.7357    0.3201   19.9681 H   0  0  0  0  0  0  0  0  0  0  0  0
   11.3460    1.9688   20.9541 H   0  0  0  0  0  0  0  0  0  0  0  0
    8.8226    2.3004   24.4117 H   0  0  0  0  0  0  0  0  0  0  0  0
    7.2401    0.6550   23.4303 H   0  0  0  0  0  0  0  0  0  0  0  0
    6.6332   -0.0381   19.8938 C   0  0  0  0  0  0  0  0  0  0  0  0
    5.4295    0.6389   20.1487 C   0  0  0  0  0  0  0  0  0  0  0  0
    4.8036    1.3095   19.1009 C   0  0  0  0  0  0  0  0  0  0  0  0
    5.4051    1.2904   17.8379 C   0  0  0  0  0  0  0  0  0  0  0  0
    6.5667    0.6715   17.5816 N   0  0  0  0  0  0  0  0  0  0  0  0
    7.1590    0.0303   18.5987 C   0  0  0  0  0  0  0  0  0  0  0  0
    8.1162   -0.4351   18.3531 H   0  0  0  0  0  0  0  0  0  0  0  0
    4.9267    1.7831   16.9952 H   0  0  0  0  0  0  0  0  0  0  0  0
    3.8752    1.8474   19.2536 H   0  0  0  0  0  0  0  0  0  0  0  0
    4.9961    0.6432   21.1535 H   0  0  0  0  0  0  0  0  0  0  0  0
    6.6725   -0.8914   21.8246 H   0  0  0  0  0  0  0  0  0  0  0  0
    8.9237   -1.6719   20.1619 H   0  0  0  0  0  0  0  0  0  0  0  0
    7.3955   -2.3090   19.8226 H   0  0  0  0  0  0  0  0  0  0  0  0
    8.7765   -3.8363   21.2089 H   0  0  0  0  0  0  0  0  0  0  0  0
    6.2122   -3.7507   21.3568 H   0  0  0  0  0  0  0  0  0  0  0  0
    7.0664   -4.4404   22.7486 H   0  0  0  0  0  0  0  0  0  0  0  0
    6.3941   -2.8159   22.8475 H   0  0  0  0  0  0  0  0  0  0  0  0
  1  2  1  0
  2  3  1  0
  3  4  1  0
  4  5  1  0
  3  6  1  0
  3  7  1  0
  2  8  1  0
  8  9  1  0
  9 10  1  0
 10 11  2  0
 11 12  1  0
 12 13  2  0
 13 14  1  0
 14 15  1  0
 13 16  1  0
 16 17  2  0
 17 18  1  0
 16 19  1  0
 12 20  1  0
 11 21  1  0
  9 22  1  0
 22 23  2  0
 23 24  1  0
 24 25  2  0
 25 26  1  0
 26 27  2  0
 27 28  1  0
 25 29  1  0
 24 30  1  0
 23 31  1  0
  9 32  1  0
  8 33  1  0
  8 34  1  0
  2 35  1  6
  1 36  1  0
  1 37  1  0
  1 38  1  0
 17 10  1  0
 27 22  1  0
M  CHG  1   8   1
M  END
>  <cnnaffinity>  (1) 
4.64385

>  <plip>  (1) 
-0.06666666666666667

>  <filename>  (1) 
[H][O][c]1[c]([H])[c]([H])[c]([C]([H])([c]2[c]([H])[n][c]([H])[c]([H])[c]2[H])[N+]([H])([H])[C@]([H])([C]([H])([H])[H])[C]([H])([H])[O][H])[c]([H])[c]1[H]

>  <combo1>  (1) 
-0.3979372405965652

$$$$
