
     RDKit          3D

 25 25  0  0  0  0  0  0  0  0999 V2000
    4.9206    1.7809   17.0042 H   0  0  0  0  0  0  0  0  0  0  0  0
    5.4070    1.2869   17.8464 C   0  0  0  0  0  0  0  0  0  0  0  0
    6.5707    0.6690   17.5835 N   0  0  0  0  0  0  0  0  0  0  0  0
    7.1889    0.0529   18.5962 C   0  0  0  0  0  0  0  0  0  0  0  0
    8.1328   -0.4301   18.3662 H   0  0  0  0  0  0  0  0  0  0  0  0
    6.6952   -0.0072   19.9152 C   0  0  0  0  0  0  0  0  0  0  0  0
    7.3244   -0.6849   21.0113 N   0  0  0  0  0  0  0  0  0  0  0  0
    8.4057   -1.2446   20.7350 N   0  0  0  0  0  0  0  0  0  0  0  0
    9.0137   -1.9291   21.8805 C   0  0  0  0  0  0  0  0  0  0  0  0
   10.0143   -2.2114   21.5495 H   0  0  0  0  0  0  0  0  0  0  0  0
    9.1413   -1.2327   22.7150 H   0  0  0  0  0  0  0  0  0  0  0  0
    8.2511   -3.1829   22.3007 C   0  0  0  0  0  0  0  0  0  0  0  0
    7.2656   -2.8699   22.6551 H   0  0  0  0  0  0  0  0  0  0  0  0
    8.0805   -3.7796   21.4000 H   0  0  0  0  0  0  0  0  0  0  0  0
    8.9425   -4.0246   23.3771 C   0  0  0  0  0  0  0  0  0  0  0  0
    8.4314   -4.9926   23.4674 H   0  0  0  0  0  0  0  0  0  0  0  0
    9.9611   -4.2544   23.0669 H   0  0  0  0  0  0  0  0  0  0  0  0
    9.0231   -3.3599   24.7472 C   0  0  0  0  0  0  0  0  0  0  0  0
    8.0298   -3.0567   25.0878 H   0  0  0  0  0  0  0  0  0  0  0  0
    9.4462   -4.0379   25.4966 H   0  0  0  0  0  0  0  0  0  0  0  0
    9.6531   -2.4645   24.7236 H   0  0  0  0  0  0  0  0  0  0  0  0
    5.4723    0.6315   20.1749 C   0  0  0  0  0  0  0  0  0  0  0  0
    5.0496    0.6063   21.1790 H   0  0  0  0  0  0  0  0  0  0  0  0
    4.8281    1.2921   19.1218 C   0  0  0  0  0  0  0  0  0  0  0  0
    3.8948    1.8255   19.2698 H   0  0  0  0  0  0  0  0  0  0  0  0
  1  2  1  0
  2  3  2  0
  3  4  1  0
  4  5  1  0
  4  6  2  0
  6  7  1  0
  7  8  2  3
  8  9  1  0
  9 10  1  0
  9 11  1  0
  9 12  1  0
 12 13  1  0
 12 14  1  0
 12 15  1  0
 15 16  1  0
 15 17  1  0
 15 18  1  0
 18 19  1  0
 18 20  1  0
 18 21  1  0
  6 22  1  0
 22 23  1  0
 22 24  2  0
 24 25  1  0
 24  2  1  0
M  END
>  <cnnaffinity>  (1) 
3.85747

>  <plip>  (1) 
-0.06896551724137931

>  <filename>  (1) 
[H][c]1[n][c]([H])[c]([N]=[N][C]([H])([H])[C]([H])([H])[C]([H])([H])[C]([H])([H])[H])[c]([H])[c]1[H]

>  <combo1>  (1) 
-0.5432869630959161

$$$$
