
     RDKit          3D

 53 55  0  0  0  0  0  0  0  0999 V2000
    3.3070   -6.5643   26.2511 C   0  0  0  0  0  0  0  0  0  0  0  0
    3.9742   -6.7874   25.0214 O   0  0  0  0  0  0  0  0  0  0  0  0
    4.6880   -5.7777   24.4629 C   0  0  0  0  0  0  0  0  0  0  0  0
    4.7891   -4.4762   24.9825 C   0  0  0  0  0  0  0  0  0  0  0  0
    5.5163   -3.4815   24.3123 C   0  0  0  0  0  0  0  0  0  0  0  0
    6.1654   -3.8031   23.1197 C   0  0  0  0  0  0  0  0  0  0  0  0
    6.1206   -5.1143   22.6246 C   0  0  0  0  0  0  0  0  0  0  0  0
    5.3796   -6.0807   23.2727 C   0  0  0  0  0  0  0  0  0  0  0  0
    5.3449   -7.3235   22.7614 F   0  0  0  0  0  0  0  0  0  0  0  0
    6.9835   -5.3142   21.4059 C   0  0  0  0  0  0  0  0  0  0  0  0
    7.3817   -3.8684   21.0494 C   0  0  0  0  0  0  0  0  0  0  0  0
    7.0493   -2.9558   22.2553 C   0  0  0  0  0  0  0  0  0  0  0  0
    6.3754   -1.7023   21.8350 N   0  0  0  0  0  4  0  0  0  0  0  0
    7.2474   -0.7233   21.1674 C   0  0  0  0  0  0  0  0  0  0  0  0
    7.8381    0.1980   22.2412 C   0  0  0  0  0  0  0  0  0  0  0  0
    8.9915    1.0667   21.7765 C   0  0  0  0  0  0  0  0  0  0  0  0
    9.3840    2.0255   22.8837 N   0  0  0  0  0  4  0  0  0  0  0  0
    9.9697    3.2771   22.3327 C   0  0  0  0  0  0  0  0  0  0  0  0
    9.2405    3.7694   21.6808 H   0  0  0  0  0  0  0  0  0  0  0  0
   10.8640    3.0538   21.7367 H   0  0  0  0  0  0  0  0  0  0  0  0
   10.2507    3.9670   23.1319 H   0  0  0  0  0  0  0  0  0  0  0  0
   10.3047    1.4122   23.9081 C   0  0  0  0  0  0  0  0  0  0  0  0
   10.7003    2.1911   24.5684 H   0  0  0  0  0  0  0  0  0  0  0  0
   11.1478    0.9147   23.4109 H   0  0  0  0  0  0  0  0  0  0  0  0
    9.7878    0.6724   24.5275 H   0  0  0  0  0  0  0  0  0  0  0  0
    8.4823    2.2675   23.3511 H   0  0  0  0  0  0  0  0  0  0  0  0
    9.8719    0.4643   21.5091 H   0  0  0  0  0  0  0  0  0  0  0  0
    8.7153    1.6526   20.8926 H   0  0  0  0  0  0  0  0  0  0  0  0
    7.0264    0.8230   22.6334 H   0  0  0  0  0  0  0  0  0  0  0  0
    8.1938   -0.4344   23.0676 H   0  0  0  0  0  0  0  0  0  0  0  0
    6.4993   -0.0306   20.0454 C   0  0  0  0  0  0  0  0  0  0  0  0
    5.2906    0.6701   20.1910 C   0  0  0  0  0  0  0  0  0  0  0  0
    4.7606    1.3400   19.0886 C   0  0  0  0  0  0  0  0  0  0  0  0
    5.4414    1.2784   17.8675 C   0  0  0  0  0  0  0  0  0  0  0  0
    6.5728    0.5817   17.6941 N   0  0  0  0  0  0  0  0  0  0  0  0
    7.0688   -0.0539   18.7578 C   0  0  0  0  0  0  0  0  0  0  0  0
    7.9756   -0.6355   18.5771 H   0  0  0  0  0  0  0  0  0  0  0  0
    5.0623    1.7988   16.9898 H   0  0  0  0  0  0  0  0  0  0  0  0
    3.8413    1.9137   19.1530 H   0  0  0  0  0  0  0  0  0  0  0  0
    4.7668    0.6871   21.1518 H   0  0  0  0  0  0  0  0  0  0  0  0
    8.0819   -1.2586   20.6945 H   0  0  0  0  0  0  0  0  0  0  0  0
    5.5959   -1.9676   21.1871 H   0  0  0  0  0  0  0  0  0  0  0  0
    5.9287   -1.2689   22.6897 H   0  0  0  0  0  0  0  0  0  0  0  0
    7.9821   -2.7097   22.7826 H   0  0  0  0  0  0  0  0  0  0  0  0
    6.7797   -3.5136   20.2073 H   0  0  0  0  0  0  0  0  0  0  0  0
    8.4426   -3.7671   20.8175 H   0  0  0  0  0  0  0  0  0  0  0  0
    6.4456   -5.8283   20.5997 H   0  0  0  0  0  0  0  0  0  0  0  0
    7.8531   -5.9317   21.6539 H   0  0  0  0  0  0  0  0  0  0  0  0
    5.5801   -2.4799   24.7320 H   0  0  0  0  0  0  0  0  0  0  0  0
    4.3118   -4.2546   25.9300 H   0  0  0  0  0  0  0  0  0  0  0  0
    2.7953   -7.4987   26.4805 H   0  0  0  0  0  0  0  0  0  0  0  0
    2.5720   -5.7512   26.1740 H   0  0  0  0  0  0  0  0  0  0  0  0
    4.0136   -6.3219   27.0566 H   0  0  0  0  0  0  0  0  0  0  0  0
  1  2  1  0
  2  3  1  0
  3  4  2  0
  4  5  1  0
  5  6  2  0
  6  7  1  0
  7  8  2  0
  8  9  1  0
  7 10  1  0
 10 11  1  0
 11 12  1  0
 12 13  1  0
 13 14  1  0
 14 15  1  0
 15 16  1  0
 16 17  1  0
 17 18  1  0
 18 19  1  0
 18 20  1  0
 18 21  1  0
 17 22  1  0
 22 23  1  0
 22 24  1  0
 22 25  1  0
 17 26  1  0
 16 27  1  0
 16 28  1  0
 15 29  1  0
 15 30  1  0
 14 31  1  0
 31 32  2  0
 32 33  1  0
 33 34  2  0
 34 35  1  0
 35 36  2  0
 36 37  1  0
 34 38  1  0
 33 39  1  0
 32 40  1  0
 14 41  1  0
 13 42  1  0
 13 43  1  0
 12 44  1  0
 11 45  1  0
 11 46  1  0
 10 47  1  0
 10 48  1  0
  5 49  1  0
  4 50  1  0
  1 51  1  0
  1 52  1  0
  1 53  1  0
  8  3  1  0
 36 31  1  0
 12  6  1  0
M  CHG  2  13   1  17   1
M  END
>  <cnnaffinity>  (1) 
4.94173

>  <plip>  (1) 
-0.03333333333333333

>  <filename>  (1) 
[H][c]1[n][c]([H])[c]([C]([H])([C]([H])([H])[C]([H])([H])[N+]([H])([C]([H])([H])[H])[C]([H])([H])[H])[N+]([H])([H])[C]2([H])[c]3[c]([H])[c]([H])[c]([O][C]([H])([H])[H])[c]([F])[c]3[C]([H])([H])[C]2([H])[H])[c]([H])[c]1[H]

>  <combo1>  (1) 
-0.15894110238205977

$$$$
