
     RDKit          3D

 42 43  0  0  0  0  0  0  0  0999 V2000
   12.5012    3.7804   20.6113 N   0  0  0  0  0  4  0  0  0  0  0  0
   11.9203    3.1524   21.8507 C   0  0  0  0  0  0  0  0  0  0  0  0
   10.7973    2.1919   21.4448 C   0  0  0  0  0  0  0  0  0  0  0  0
    9.7454    1.8669   22.5227 C   0  0  0  0  0  0  0  0  0  0  0  0
    8.3918    1.4173   21.9695 C   0  0  0  0  0  0  0  0  0  0  0  0
    8.4852    0.0358   21.4544 N   0  0  0  0  0  4  0  0  0  0  0  0
    7.2000   -0.6490   21.1437 C   0  0  0  0  0  0  0  0  0  0  0  0
    6.5399    0.0644   19.9811 C   0  0  0  0  0  0  0  0  0  0  0  0
    5.3184    0.7328   20.1368 C   0  0  0  0  0  0  0  0  0  0  0  0
    4.7574    1.3859   19.0357 C   0  0  0  0  0  0  0  0  0  0  0  0
    5.4447    1.3489   17.8207 C   0  0  0  0  0  0  0  0  0  0  0  0
    6.6150    0.7191   17.6516 N   0  0  0  0  0  0  0  0  0  0  0  0
    7.1465    0.1014   18.7162 C   0  0  0  0  0  0  0  0  0  0  0  0
    8.0936   -0.4062   18.5220 H   0  0  0  0  0  0  0  0  0  0  0  0
    5.0411    1.8487   16.9398 H   0  0  0  0  0  0  0  0  0  0  0  0
    3.8196    1.9316   19.1074 H   0  0  0  0  0  0  0  0  0  0  0  0
    4.8302    0.7495   21.1143 H   0  0  0  0  0  0  0  0  0  0  0  0
    7.5293   -2.1076   20.8577 C   0  0  0  0  0  0  0  0  0  0  0  0
    7.8986   -3.0596   22.0355 C   0  0  0  0  0  0  0  0  0  0  0  0
    6.6480   -3.9252   21.7395 C   0  0  0  0  0  0  0  0  0  0  0  0
    6.3147   -3.0253   20.5250 C   0  0  0  0  0  0  0  0  0  0  0  0
    5.3576   -2.5070   20.6147 H   0  0  0  0  0  0  0  0  0  0  0  0
    6.3070   -3.5164   19.5441 H   0  0  0  0  0  0  0  0  0  0  0  0
    5.8944   -3.9210   22.5371 H   0  0  0  0  0  0  0  0  0  0  0  0
    6.8361   -4.9747   21.4995 H   0  0  0  0  0  0  0  0  0  0  0  0
    8.8502   -3.5770   21.8706 H   0  0  0  0  0  0  0  0  0  0  0  0
    7.9421   -2.6062   23.0328 H   0  0  0  0  0  0  0  0  0  0  0  0
    8.3413   -2.0640   20.1273 H   0  0  0  0  0  0  0  0  0  0  0  0
    6.5291   -0.5848   22.0116 H   0  0  0  0  0  0  0  0  0  0  0  0
    9.0066    0.0529   20.5477 H   0  0  0  0  0  0  0  0  0  0  0  0
    9.0255   -0.5598   22.1175 H   0  0  0  0  0  0  0  0  0  0  0  0
    8.0665    2.0999   21.1704 H   0  0  0  0  0  0  0  0  0  0  0  0
    7.6093    1.4697   22.7433 H   0  0  0  0  0  0  0  0  0  0  0  0
    9.5711    2.7615   23.1311 H   0  0  0  0  0  0  0  0  0  0  0  0
   10.0924    1.0937   23.2200 H   0  0  0  0  0  0  0  0  0  0  0  0
   10.2752    2.6741   20.6158 H   0  0  0  0  0  0  0  0  0  0  0  0
   11.2195    1.2607   21.0455 H   0  0  0  0  0  0  0  0  0  0  0  0
   12.7167    2.6481   22.4068 H   0  0  0  0  0  0  0  0  0  0  0  0
   11.5117    3.9276   22.5031 H   0  0  0  0  0  0  0  0  0  0  0  0
   12.7339    3.0378   19.9293 H   0  0  0  0  0  0  0  0  0  0  0  0
   13.3582    4.3103   20.7944 H   0  0  0  0  0  0  0  0  0  0  0  0
   11.7986    4.4042   20.1761 H   0  0  0  0  0  0  0  0  0  0  0  0
  1  2  1  0
  2  3  1  0
  3  4  1  0
  4  5  1  0
  5  6  1  0
  6  7  1  0
  7  8  1  0
  8  9  2  0
  9 10  1  0
 10 11  2  0
 11 12  1  0
 12 13  2  0
 13 14  1  0
 11 15  1  0
 10 16  1  0
  9 17  1  0
  7 18  1  0
 18 19  1  0
 19 20  1  0
 20 21  1  0
 21 22  1  0
 21 23  1  0
 20 24  1  0
 20 25  1  0
 19 26  1  0
 19 27  1  0
 18 28  1  0
  7 29  1  0
  6 30  1  0
  6 31  1  0
  5 32  1  0
  5 33  1  0
  4 34  1  0
  4 35  1  0
  3 36  1  0
  3 37  1  0
  2 38  1  0
  2 39  1  0
  1 40  1  0
  1 41  1  0
  1 42  1  0
 13  8  1  0
 21 18  1  0
M  CHG  2   1   1   6   1
M  END
>  <cnnaffinity>  (1) 
4.73324

>  <plip>  (1) 
-0.14285714285714285

>  <filename>  (1) 
[H][c]1[n][c]([H])[c]([C]([H])([C]2([H])[C]([H])([H])[C]([H])([H])[C]2([H])[H])[N+]([H])([H])[C]([H])([H])[C]([H])([H])[C]([H])([H])[C]([H])([H])[N+]([H])([H])[H])[c]([H])[c]1[H]

>  <combo1>  (1) 
-0.9575884480186118

$$$$
