
     RDKit          3D

 23 24  0  0  0  0  0  0  0  0999 V2000
    5.9724   -0.9368   22.3057 H   0  0  0  0  0  0  0  0  0  0  0  0
    7.0135   -1.0792   21.9911 C   0  0  0  0  0  0  0  0  0  0  0  0
    7.4749   -0.6738   20.8764 N   0  0  0  0  0  0  0  0  0  0  0  0
    6.6745   -0.0032   19.9239 C   0  0  0  0  0  0  0  0  0  0  0  0
    7.1728    0.0591   18.5976 C   0  0  0  0  0  0  0  0  0  0  0  0
    8.1200   -0.4266   18.3945 H   0  0  0  0  0  0  0  0  0  0  0  0
    6.5621    0.6726   17.5834 N   0  0  0  0  0  0  0  0  0  0  0  0
    5.3964    1.2916   17.8430 C   0  0  0  0  0  0  0  0  0  0  0  0
    4.9207    1.7858   16.9969 H   0  0  0  0  0  0  0  0  0  0  0  0
    4.8133    1.3005   19.1130 C   0  0  0  0  0  0  0  0  0  0  0  0
    3.8824    1.8345   19.2618 H   0  0  0  0  0  0  0  0  0  0  0  0
    5.4454    0.6372   20.1756 C   0  0  0  0  0  0  0  0  0  0  0  0
    5.0131    0.6373   21.1751 H   0  0  0  0  0  0  0  0  0  0  0  0
    7.8783   -1.8097   22.9511 C   0  0  1  0  0  0  0  0  0  0  0  0
    8.6796   -1.2101   23.3700 H   0  0  0  0  0  0  0  0  0  0  0  0
    7.2863   -2.8841   23.8266 C   0  0  0  0  0  0  0  0  0  0  0  0
    7.6368   -3.0006   24.8478 H   0  0  0  0  0  0  0  0  0  0  0  0
    6.2306   -3.1022   23.6796 H   0  0  0  0  0  0  0  0  0  0  0  0
    8.1907   -3.2577   22.6905 C   0  0  1  0  0  0  0  0  0  0  0  0
    9.2012   -3.5883   22.9632 H   0  0  0  0  0  0  0  0  0  0  0  0
    7.5299   -3.8214   21.5531 N   0  0  0  0  0  0  0  0  0  0  0  0
    7.4069   -4.8192   21.6774 H   0  0  0  0  0  0  0  0  0  0  0  0
    8.0773   -3.6545   20.7121 H   0  0  0  0  0  0  0  0  0  0  0  0
  1  2  1  0
  2  3  2  3
  3  4  1  0
  4  5  2  0
  5  6  1  0
  5  7  1  0
  7  8  2  0
  8  9  1  0
  8 10  1  0
 10 11  1  0
 10 12  2  0
 12 13  1  0
  2 14  1  0
 14 15  1  1
 14 16  1  0
 16 17  1  0
 16 18  1  0
 16 19  1  0
 19 20  1  1
 19 21  1  0
 21 22  1  0
 21 23  1  0
 12  4  1  0
 19 14  1  0
M  END
>  <cnnaffinity>  (1) 
4.03077

>  <plip>  (1) 
-0.0

>  <filename>  (1) 
[H][C](=[N][c]1[c]([H])[n][c]([H])[c]([H])[c]1[H])[C@@]1([H])[C]([H])([H])[C@@]1([H])[N]([H])[H]

>  <combo1>  (1) 
-8.33451193489157e-06

$$$$
