
     RDKit          3D

 29 30  0  0  0  0  0  0  0  0999 V2000
    7.9674    0.0905   29.3522 H   0  0  0  0  0  0  0  0  0  0  0  0
    7.5341    0.6900   28.7305 O   0  0  0  0  0  0  0  0  0  0  0  0
    7.5634    0.1221   27.4744 C   0  0  0  0  0  0  0  0  0  0  0  0
    6.4784    0.3766   26.6418 C   0  0  0  0  0  0  0  0  0  0  0  0
    5.6775    0.9687   27.0720 H   0  0  0  0  0  0  0  0  0  0  0  0
    6.4522   -0.0798   25.3203 C   0  0  0  0  0  0  0  0  0  0  0  0
    5.6015    0.0869   24.6736 H   0  0  0  0  0  0  0  0  0  0  0  0
    7.5694   -0.7425   24.8012 C   0  0  0  0  0  0  0  0  0  0  0  0
    7.6409   -1.0579   23.4193 N   0  0  0  0  0  0  0  0  0  0  0  0
    8.3476   -1.7271   23.1486 H   0  0  0  0  0  0  0  0  0  0  0  0
    7.2232   -0.1842   22.4442 C   0  0  0  0  0  0  0  0  0  0  0  0
    6.6268    0.8489   22.6943 O   0  0  0  0  0  0  0  0  0  0  0  0
    7.5498   -0.6063   20.9416 C   0  0  0  0  0  0  0  0  0  0  0  0
    8.4843   -1.3543   20.7036 O   0  0  0  0  0  0  0  0  0  0  0  0
    6.7291   -0.0210   19.8440 C   0  0  0  0  0  0  0  0  0  0  0  0
    7.1819   -0.1733   18.5217 C   0  0  0  0  0  0  0  0  0  0  0  0
    8.0389   -0.8109   18.3086 H   0  0  0  0  0  0  0  0  0  0  0  0
    6.6120    0.4325   17.4804 N   0  0  0  0  0  0  0  0  0  0  0  0
    5.5255    1.1875   17.7151 C   0  0  0  0  0  0  0  0  0  0  0  0
    5.0845    1.6789   16.8505 H   0  0  0  0  0  0  0  0  0  0  0  0
    4.9477    1.3308   18.9778 C   0  0  0  0  0  0  0  0  0  0  0  0
    4.0601    1.9438   19.1126 H   0  0  0  0  0  0  0  0  0  0  0  0
    5.5508    0.7149   20.0684 C   0  0  0  0  0  0  0  0  0  0  0  0
    5.1363    0.8246   21.0673 H   0  0  0  0  0  0  0  0  0  0  0  0
    8.6312   -1.0751   25.6485 C   0  0  0  0  0  0  0  0  0  0  0  0
    9.4910   -1.6433   25.3147 H   0  0  0  0  0  0  0  0  0  0  0  0
    8.6409   -0.6486   26.9791 C   0  0  0  0  0  0  0  0  0  0  0  0
    9.6937   -1.0317   27.7850 O   0  0  0  0  0  0  0  0  0  0  0  0
    9.9628   -0.2609   28.3115 H   0  0  0  0  0  0  0  0  0  0  0  0
  1  2  1  0
  2  3  1  0
  3  4  2  0
  4  5  1  0
  4  6  1  0
  6  7  1  0
  6  8  2  0
  8  9  1  0
  9 10  1  0
  9 11  1  0
 11 12  2  0
 11 13  1  0
 13 14  2  0
 13 15  1  0
 15 16  2  0
 16 17  1  0
 16 18  1  0
 18 19  2  0
 19 20  1  0
 19 21  1  0
 21 22  1  0
 21 23  2  0
 23 24  1  0
  8 25  1  0
 25 26  1  0
 25 27  2  0
 27 28  1  0
 28 29  1  0
 27  3  1  0
 23 15  1  0
M  END
>  <cnnaffinity>  (1) 
4.41644

>  <plip>  (1) 
-0.10344827586206896

>  <filename>  (1) 
[H][O][c]1[c]([H])[c]([H])[c]([N]([H])[C](=[O])[C](=[O])[c]2[c]([H])[n][c]([H])[c]([H])[c]2[H])[c]([H])[c]1[O][H]

>  <combo1>  (1) 
-0.5897427303356217

$$$$
