
     RDKit          3D

 35 37  0  0  0  0  0  0  0  0999 V2000
    8.3405    1.1124   23.7292 H   0  0  0  0  0  0  0  0  0  0  0  0
    8.0439    0.9758   22.6849 C   0  0  0  0  0  0  0  0  0  0  0  0
    7.8684   -0.2808   22.2543 C   0  0  0  0  0  0  0  0  0  0  0  0
    7.3288   -0.8056   20.9771 C   0  0  0  0  0  0  0  0  0  0  0  0
    6.6300   -0.0164   19.9328 C   0  0  0  0  0  0  0  0  0  0  0  0
    7.1579   -0.0424   18.6395 C   0  0  0  0  0  0  0  0  0  0  0  0
    8.0546   -0.6220   18.4233 H   0  0  0  0  0  0  0  0  0  0  0  0
    6.6194    0.6137   17.6078 N   0  0  0  0  0  0  0  0  0  0  0  0
    5.4902    1.3041   17.8349 C   0  0  0  0  0  0  0  0  0  0  0  0
    5.0736    1.8273   16.9764 H   0  0  0  0  0  0  0  0  0  0  0  0
    4.8505    1.3500   19.0773 C   0  0  0  0  0  0  0  0  0  0  0  0
    3.9268    1.9060   19.1905 H   0  0  0  0  0  0  0  0  0  0  0  0
    5.4302    0.6725   20.1528 C   0  0  0  0  0  0  0  0  0  0  0  0
    4.9576    0.6641   21.1359 H   0  0  0  0  0  0  0  0  0  0  0  0
    7.4875   -2.0684   20.8120 N   0  0  0  0  0  0  0  0  0  0  0  0
    8.0919   -2.6506   22.0125 C   0  0  0  0  0  0  0  0  0  0  0  0
    9.0303   -3.1290   21.7167 H   0  0  0  0  0  0  0  0  0  0  0  0
    7.4263   -3.4305   22.3963 H   0  0  0  0  0  0  0  0  0  0  0  0
    8.3084   -1.5107   23.0356 C   0  0  0  0  0  0  0  0  0  0  0  0
    9.3549   -1.4245   23.3505 H   0  0  0  0  0  0  0  0  0  0  0  0
    7.6966   -1.6435   23.9354 H   0  0  0  0  0  0  0  0  0  0  0  0
    7.9028    2.2419   21.8661 C   0  0  0  0  0  0  0  0  0  0  0  0
    6.8358    2.4692   21.7535 H   0  0  0  0  0  0  0  0  0  0  0  0
    8.2574    2.0521   20.8434 H   0  0  0  0  0  0  0  0  0  0  0  0
    8.6023    3.4519   22.4937 C   0  0  0  0  0  0  0  0  0  0  0  0
   10.0028    3.5728   22.4842 C   0  0  0  0  0  0  0  0  0  0  0  0
   10.5889    2.7847   22.0213 H   0  0  0  0  0  0  0  0  0  0  0  0
   10.6345    4.7070   23.0223 C   0  0  0  0  0  0  0  0  0  0  0  0
   11.7169    4.7993   22.9771 H   0  0  0  0  0  0  0  0  0  0  0  0
    9.8795    5.7442   23.5847 C   0  0  0  0  0  0  0  0  0  0  0  0
   10.3250    6.6612   23.9572 H   0  0  0  0  0  0  0  0  0  0  0  0
    8.4974    5.5844   23.6474 C   0  0  0  0  0  0  0  0  0  0  0  0
    7.7555    6.5357   24.2454 F   0  0  0  0  0  0  0  0  0  0  0  0
    7.8598    4.4517   23.1397 C   0  0  0  0  0  0  0  0  0  0  0  0
    6.7844    4.3705   23.2564 H   0  0  0  0  0  0  0  0  0  0  0  0
  1  2  1  0
  2  3  2  3
  3  4  1  0
  4  5  1  0
  5  6  2  0
  6  7  1  0
  6  8  1  0
  8  9  2  0
  9 10  1  0
  9 11  1  0
 11 12  1  0
 11 13  2  0
 13 14  1  0
  4 15  2  0
 15 16  1  0
 16 17  1  0
 16 18  1  0
 16 19  1  0
 19 20  1  0
 19 21  1  0
  2 22  1  0
 22 23  1  0
 22 24  1  0
 22 25  1  0
 25 26  2  0
 26 27  1  0
 26 28  1  0
 28 29  1  0
 28 30  2  0
 30 31  1  0
 30 32  1  0
 32 33  1  0
 32 34  2  0
 34 35  1  0
 19  3  1  0
 34 25  1  0
 13  5  1  0
M  END
>  <cnnaffinity>  (1) 
5.07501

>  <plip>  (1) 
-0.03571428571428571

>  <filename>  (1) 
[H][C](=[C]1[C]([c]2[c]([H])[n][c]([H])[c]([H])[c]2[H])=[N][C]([H])([H])[C]1([H])[H])[C]([H])([H])[c]1[c]([H])[c]([H])[c]([H])[c]([F])[c]1[H]

>  <combo1>  (1) 
-0.22685871347626604

$$$$
