
     RDKit          3D

 39 42  0  0  0  0  0  0  0  0999 V2000
    4.9277    1.7795   16.9971 H   0  0  0  0  0  0  0  0  0  0  0  0
    5.4033    1.2899   17.8432 C   0  0  0  0  0  0  0  0  0  0  0  0
    6.5653    0.6731   17.5835 N   0  0  0  0  0  0  0  0  0  0  0  0
    7.1699    0.0605   18.6034 C   0  0  0  0  0  0  0  0  0  0  0  0
    8.1166   -0.4270   18.3857 H   0  0  0  0  0  0  0  0  0  0  0  0
    6.6472    0.0166   19.9053 C   0  0  0  0  0  0  0  0  0  0  0  0
    7.4091   -0.7035   20.9150 C   0  0  0  0  0  0  0  0  0  0  0  0
    8.5247   -1.3479   20.7782 N   0  0  0  0  0  0  0  0  0  0  0  0
    8.8284   -1.8780   22.0202 N   0  0  0  0  0  0  0  0  0  0  0  0
    7.8814   -1.5189   22.8226 C   0  0  0  0  0  0  0  0  0  0  0  0
    7.7928   -1.8397   24.2796 C   0  0  0  0  0  0  0  0  0  0  0  0
    7.3685   -3.1429   24.6106 O   0  0  0  0  0  0  0  0  0  0  0  0
    5.9811   -3.4133   24.3713 C   0  0  0  0  0  0  0  0  0  0  0  0
    5.4473   -2.4653   24.2328 H   0  0  0  0  0  0  0  0  0  0  0  0
    5.8189   -4.2764   23.1141 C   0  0  0  0  0  0  0  0  0  0  0  0
    4.7513   -4.3278   22.8721 H   0  0  0  0  0  0  0  0  0  0  0  0
    6.3341   -3.8085   22.2714 H   0  0  0  0  0  0  0  0  0  0  0  0
    6.3461   -5.6899   23.3390 C   0  0  0  0  0  0  0  0  0  0  0  0
    6.1303   -6.3097   22.4612 H   0  0  0  0  0  0  0  0  0  0  0  0
    7.4458   -5.6541   23.4559 H   0  0  0  0  0  0  0  0  0  0  0  0
    5.6547   -6.2565   24.5006 N   0  0  0  0  0  0  0  0  0  0  0  0
    5.9436   -7.2160   24.6247 H   0  0  0  0  0  0  0  0  0  0  0  0
    5.9595   -5.5379   25.7394 C   0  0  0  0  0  0  0  0  0  0  0  0
    7.0412   -5.5015   25.9678 H   0  0  0  0  0  0  0  0  0  0  0  0
    5.4676   -6.0526   26.5734 H   0  0  0  0  0  0  0  0  0  0  0  0
    5.4201   -4.1206   25.6056 C   0  0  0  0  0  0  0  0  0  0  0  0
    5.6588   -3.5409   26.5004 H   0  0  0  0  0  0  0  0  0  0  0  0
    4.3298   -4.1630   25.5163 H   0  0  0  0  0  0  0  0  0  0  0  0
    8.8857   -1.3028   25.1595 C   0  0  0  0  0  0  0  0  0  0  0  0
    9.2806   -1.9703   25.9203 H   0  0  0  0  0  0  0  0  0  0  0  0
    9.6306   -0.6637   24.6931 H   0  0  0  0  0  0  0  0  0  0  0  0
    7.4876   -0.7731   25.2974 C   0  0  0  0  0  0  0  0  0  0  0  0
    7.2516    0.2285   24.9582 H   0  0  0  0  0  0  0  0  0  0  0  0
    6.9354   -1.1012   26.1730 H   0  0  0  0  0  0  0  0  0  0  0  0
    6.9412   -0.7582   22.1886 O   0  0  0  0  0  0  0  0  0  0  0  0
    5.4243    0.6584   20.1691 C   0  0  0  0  0  0  0  0  0  0  0  0
    4.9862    0.6449   21.1712 H   0  0  0  0  0  0  0  0  0  0  0  0
    4.8012    1.3114   19.1078 C   0  0  0  0  0  0  0  0  0  0  0  0
    3.8703    1.8460   19.2517 H   0  0  0  0  0  0  0  0  0  0  0  0
  1  2  1  0
  2  3  2  0
  3  4  1  0
  4  5  1  0
  4  6  2  0
  6  7  1  0
  7  8  2  0
  8  9  1  0
  9 10  2  0
 10 11  1  0
 11 12  1  0
 12 13  1  0
 13 14  1  0
 13 15  1  0
 15 16  1  0
 15 17  1  0
 15 18  1  0
 18 19  1  0
 18 20  1  0
 18 21  1  0
 21 22  1  0
 21 23  1  0
 23 24  1  0
 23 25  1  0
 23 26  1  0
 26 27  1  0
 26 28  1  0
 11 29  1  0
 29 30  1  0
 29 31  1  0
 29 32  1  0
 32 33  1  0
 32 34  1  0
 10 35  1  0
  6 36  1  0
 36 37  1  0
 36 38  2  0
 38 39  1  0
 38  2  1  0
 35  7  1  0
 32 11  1  0
 26 13  1  0
M  END
>  <cnnaffinity>  (1) 
5.05836

>  <plip>  (1) 
-0.03571428571428571

>  <filename>  (1) 
[H][c]1[n][c]([H])[c](-[c]2[n][n][c]([C]3([O][C]4([H])[C]([H])([H])[C]([H])([H])[N]([H])[C]([H])([H])[C]4([H])[H])[C]([H])([H])[C]3([H])[H])[o]2)[c]([H])[c]1[H]

>  <combo1>  (1) 
-0.2103081056404959

$$$$
