
     RDKit          3D

 29 31  0  0  0  0  0  0  0  0999 V2000
    7.0985    5.3131   26.2521 H   0  0  0  0  0  0  0  0  0  0  0  0
    6.6248    5.0155   25.3168 C   0  0  0  0  0  0  0  0  0  0  0  0
    7.0030    3.8259   24.8496 N   0  0  0  0  0  0  0  0  0  0  0  0
    6.4479    3.4128   23.6974 C   0  0  0  0  0  0  0  0  0  0  0  0
    6.8600    2.1226   23.2219 C   0  0  0  0  0  0  0  0  0  0  0  0
    7.2150    1.0366   22.8369 C   0  0  0  0  0  0  0  0  0  0  0  0
    7.6304   -0.2183   22.3175 C   0  0  0  0  0  0  0  0  0  0  0  0
    8.3145   -1.1298   22.9662 N   0  0  0  0  0  0  0  0  0  0  0  0
    8.5088   -2.1477   22.0789 C   0  0  0  0  0  0  0  0  0  0  0  0
    9.0563   -3.0325   22.3660 H   0  0  0  0  0  0  0  0  0  0  0  0
    7.9269   -1.8406   20.8856 C   0  0  0  0  0  0  0  0  0  0  0  0
    7.6681   -2.3686   20.0010 H   0  0  0  0  0  0  0  0  0  0  0  0
    7.3783   -0.5957   21.0108 N   0  0  0  0  0  0  0  0  0  0  0  0
    6.6747    0.0495   19.9458 C   0  0  0  0  0  0  0  0  0  0  0  0
    7.1754    0.0487   18.6233 C   0  0  0  0  0  0  0  0  0  0  0  0
    8.1230   -0.4280   18.3716 H   0  0  0  0  0  0  0  0  0  0  0  0
    6.5601    0.6511   17.6012 N   0  0  0  0  0  0  0  0  0  0  0  0
    5.4008    1.2834   17.8420 C   0  0  0  0  0  0  0  0  0  0  0  0
    4.9382    1.7903   16.9953 H   0  0  0  0  0  0  0  0  0  0  0  0
    4.8053    1.3068   19.1051 C   0  0  0  0  0  0  0  0  0  0  0  0
    3.8704    1.8373   19.2424 H   0  0  0  0  0  0  0  0  0  0  0  0
    5.4440    0.6681   20.1731 C   0  0  0  0  0  0  0  0  0  0  0  0
    5.0147    0.6446   21.1705 H   0  0  0  0  0  0  0  0  0  0  0  0
    5.5082    4.1607   22.9754 C   0  0  0  0  0  0  0  0  0  0  0  0
    5.1265    3.7444   22.0490 H   0  0  0  0  0  0  0  0  0  0  0  0
    5.1164    5.4023   23.4734 C   0  0  0  0  0  0  0  0  0  0  0  0
    4.3888    6.0084   22.9344 H   0  0  0  0  0  0  0  0  0  0  0  0
    5.6900    5.8370   24.6739 C   0  0  0  0  0  0  0  0  0  0  0  0
    5.4385    6.7901   25.1194 H   0  0  0  0  0  0  0  0  0  0  0  0
  1  2  1  0
  2  3  2  0
  3  4  1  0
  4  5  1  0
  5  6  3  0
  6  7  1  0
  7  8  2  0
  8  9  1  0
  9 10  1  0
  9 11  2  0
 11 12  1  0
 11 13  1  0
 13 14  1  0
 14 15  2  0
 15 16  1  0
 15 17  1  0
 17 18  2  0
 18 19  1  0
 18 20  1  0
 20 21  1  0
 20 22  2  0
 22 23  1  0
  4 24  2  0
 24 25  1  0
 24 26  1  0
 26 27  1  0
 26 28  2  0
 28 29  1  0
 28  2  1  0
 13  7  1  0
 22 14  1  0
M  END
>  <cnnaffinity>  (1) 
4.98894

>  <plip>  (1) 
-0.0

>  <filename>  (1) 
[H][c]1[n][c]([C]#[C][c]2[n][c]([H])[c]([H])[n]2-[c]2[c]([H])[n][c]([H])[c]([H])[c]2[H])[c]([H])[c]([H])[c]1[H]

>  <combo1>  (1) 
-6.752587575576699e-06

$$$$
