
     RDKit          3D

 32 34  0  0  0  0  0  0  0  0999 V2000
    4.9794    1.7866   17.0051 H   0  0  0  0  0  0  0  0  0  0  0  0
    5.4472    1.2365   17.8196 C   0  0  0  0  0  0  0  0  0  0  0  0
    6.5731    0.5723   17.5214 N   0  0  0  0  0  0  0  0  0  0  0  0
    7.1725   -0.1036   18.5116 C   0  0  0  0  0  0  0  0  0  0  0  0
    8.0930   -0.6140   18.2286 H   0  0  0  0  0  0  0  0  0  0  0  0
    6.7157   -0.1418   19.8388 C   0  0  0  0  0  0  0  0  0  0  0  0
    7.5476   -0.8457   20.8795 C   0  0  0  0  0  0  0  0  0  0  0  0
    7.6460   -2.2804   20.7960 N   0  0  0  0  0  0  0  0  0  0  0  0
    8.0647   -2.5682   19.9298 H   0  0  0  0  0  0  0  0  0  0  0  0
    6.6059   -3.1305   21.1733 C   0  0  0  0  0  0  0  0  0  0  0  0
    6.5416   -4.4742   20.7680 C   0  0  0  0  0  0  0  0  0  0  0  0
    7.2898   -4.8781   20.0959 H   0  0  0  0  0  0  0  0  0  0  0  0
    5.5150   -5.3093   21.2109 C   0  0  0  0  0  0  0  0  0  0  0  0
    5.4637   -6.3595   20.9254 H   0  0  0  0  0  0  0  0  0  0  0  0
    4.5450   -4.7917   22.0816 C   0  0  0  0  0  0  0  0  0  0  0  0
    3.4140   -5.6291   22.5399 N   0  0  0  0  0  4  0  0  0  0  0  0
    2.5533   -5.1015   23.2266 O   0  0  0  0  0  0  0  0  0  0  0  0
    3.3910   -6.7980   22.1983 O   0  0  0  0  0  1  0  0  0  0  0  0
    4.6034   -3.4629   22.4992 C   0  0  0  0  0  0  0  0  0  0  0  0
    3.8821   -3.1040   23.2170 H   0  0  0  0  0  0  0  0  0  0  0  0
    5.6211   -2.6529   22.0276 C   0  0  0  0  0  0  0  0  0  0  0  0
    5.7462   -1.6287   22.3183 H   0  0  0  0  0  0  0  0  0  0  0  0
    7.6446   -0.2956   22.2736 C   0  0  0  0  0  0  0  0  0  0  0  0
    7.0747    0.6000   22.5152 H   0  0  0  0  0  0  0  0  0  0  0  0
    7.6849   -1.0463   23.0568 H   0  0  0  0  0  0  0  0  0  0  0  0
    8.8252   -0.2024   21.3570 C   0  0  0  0  0  0  0  0  0  0  0  0
    9.0919    0.7664   20.9524 H   0  0  0  0  0  0  0  0  0  0  0  0
    9.6572   -0.8735   21.5473 H   0  0  0  0  0  0  0  0  0  0  0  0
    5.5142    0.5354   20.1181 C   0  0  0  0  0  0  0  0  0  0  0  0
    5.1027    0.5263   21.1302 H   0  0  0  0  0  0  0  0  0  0  0  0
    4.8734    1.2359   19.0955 C   0  0  0  0  0  0  0  0  0  0  0  0
    3.9611    1.7949   19.2759 H   0  0  0  0  0  0  0  0  0  0  0  0
  1  2  1  0
  2  3  2  0
  3  4  1  0
  4  5  1  0
  4  6  2  0
  6  7  1  0
  7  8  1  0
  8  9  1  0
  8 10  1  0
 10 11  2  0
 11 12  1  0
 11 13  1  0
 13 14  1  0
 13 15  2  0
 15 16  1  0
 16 17  2  0
 16 18  1  0
 15 19  1  0
 19 20  1  0
 19 21  2  0
 21 22  1  0
  7 23  1  0
 23 24  1  0
 23 25  1  0
 23 26  1  0
 26 27  1  0
 26 28  1  0
  6 29  1  0
 29 30  1  0
 29 31  2  0
 31 32  1  0
 31  2  1  0
 26  7  1  0
 21 10  1  0
M  CHG  2  16   1  18  -1
M  END
>  <cnnaffinity>  (1) 
4.75499

>  <plip>  (1) 
-0.06451612903225806

>  <filename>  (1) 
[H][c]1[n][c]([H])[c]([C]2([N]([H])[c]3[c]([H])[c]([H])[c]([N+](=[O])[O-])[c]([H])[c]3[H])[C]([H])([H])[C]2([H])[H])[c]([H])[c]1[H]

>  <combo1>  (1) 
-0.4005760388220075

$$$$
