
     RDKit          3D

 44 46  0  0  0  0  0  0  0  0999 V2000
    6.7553    0.7880   23.8155 C   0  0  0  0  0  0  0  0  0  0  0  0
    7.2305    1.2613   22.4455 C   0  0  0  0  0  0  0  0  0  0  0  0
    7.7204    0.0755   21.6292 N   0  0  0  0  0  4  0  0  0  0  0  0
    8.7415    0.4987   20.5759 C   0  0  0  0  0  0  0  0  0  0  0  0
   10.0923    0.8241   21.1747 C   0  0  0  0  0  0  0  0  0  0  0  0
   10.4788    2.1707   21.2232 C   0  0  0  0  0  0  0  0  0  0  0  0
   11.7138    2.5805   21.7372 C   0  0  0  0  0  0  0  0  0  0  0  0
   12.5562    1.6099   22.2640 C   0  0  0  0  0  0  0  0  0  0  0  0
   13.8612    1.6998   23.0049 C   0  0  0  0  0  0  0  0  0  0  0  0
   14.2616    0.2166   23.0794 C   0  0  0  0  0  0  0  0  0  0  0  0
   13.0988   -0.5704   22.7681 O   0  0  0  0  0  0  0  0  0  0  0  0
   12.1816    0.2618   22.2067 C   0  0  0  0  0  0  0  0  0  0  0  0
   10.9699   -0.1603   21.6664 C   0  0  0  0  0  0  0  0  0  0  0  0
   10.7146   -1.2161   21.6505 H   0  0  0  0  0  0  0  0  0  0  0  0
   15.0264   -0.0144   22.3391 H   0  0  0  0  0  0  0  0  0  0  0  0
   14.6179   -0.0892   24.0622 H   0  0  0  0  0  0  0  0  0  0  0  0
   13.7232    2.1327   23.9992 H   0  0  0  0  0  0  0  0  0  0  0  0
   14.6201    2.3098   22.5113 H   0  0  0  0  0  0  0  0  0  0  0  0
   12.0107    3.6286   21.7237 H   0  0  0  0  0  0  0  0  0  0  0  0
    9.7594    2.9000   20.8774 H   0  0  0  0  0  0  0  0  0  0  0  0
    8.3530    1.3838   20.0566 H   0  0  0  0  0  0  0  0  0  0  0  0
    8.8476   -0.2856   19.8237 H   0  0  0  0  0  0  0  0  0  0  0  0
    6.5628   -0.8074   21.1000 C   0  0  0  0  0  0  0  0  0  0  0  0
    7.1028   -2.2171   20.9937 C   0  0  0  0  0  0  0  0  0  0  0  0
    8.0315   -2.2141   20.4235 H   0  0  0  0  0  0  0  0  0  0  0  0
    6.3723   -2.8891   20.5403 H   0  0  0  0  0  0  0  0  0  0  0  0
    7.3509   -2.5778   21.9956 H   0  0  0  0  0  0  0  0  0  0  0  0
    5.9331   -0.2374   19.8509 C   0  0  0  0  0  0  0  0  0  0  0  0
    4.8708    0.6667   19.9625 C   0  0  0  0  0  0  0  0  0  0  0  0
    4.5204    1.4390   18.8558 C   0  0  0  0  0  0  0  0  0  0  0  0
    5.2112    1.2355   17.6562 C   0  0  0  0  0  0  0  0  0  0  0  0
    6.1388    0.2826   17.4945 N   0  0  0  0  0  0  0  0  0  0  0  0
    6.4585   -0.4548   18.5693 C   0  0  0  0  0  0  0  0  0  0  0  0
    7.1779   -1.2538   18.3911 H   0  0  0  0  0  0  0  0  0  0  0  0
    5.0061    1.8533   16.7860 H   0  0  0  0  0  0  0  0  0  0  0  0
    3.7607    2.2092   18.9201 H   0  0  0  0  0  0  0  0  0  0  0  0
    4.3578    0.7741   20.9212 H   0  0  0  0  0  0  0  0  0  0  0  0
    5.7850   -0.7754   21.8673 H   0  0  0  0  0  0  0  0  0  0  0  0
    8.2755   -0.5073   22.2918 H   0  0  0  0  0  0  0  0  0  0  0  0
    8.0479    1.9821   22.5550 H   0  0  0  0  0  0  0  0  0  0  0  0
    6.4278    1.7798   21.9054 H   0  0  0  0  0  0  0  0  0  0  0  0
    5.8319    0.2061   23.7442 H   0  0  0  0  0  0  0  0  0  0  0  0
    7.5108    0.1570   24.2985 H   0  0  0  0  0  0  0  0  0  0  0  0
    6.5636    1.6316   24.4806 H   0  0  0  0  0  0  0  0  0  0  0  0
  1  2  1  0
  2  3  1  0
  3  4  1  0
  4  5  1  0
  5  6  2  0
  6  7  1  0
  7  8  2  0
  8  9  1  0
  9 10  1  0
 10 11  1  0
 11 12  1  0
 12 13  2  0
 13 14  1  0
 10 15  1  0
 10 16  1  0
  9 17  1  0
  9 18  1  0
  7 19  1  0
  6 20  1  0
  4 21  1  0
  4 22  1  0
  3 23  1  0
 23 24  1  0
 24 25  1  0
 24 26  1  0
 24 27  1  0
 23 28  1  0
 28 29  2  0
 29 30  1  0
 30 31  2  0
 31 32  1  0
 32 33  2  0
 33 34  1  0
 31 35  1  0
 30 36  1  0
 29 37  1  0
 23 38  1  0
  3 39  1  0
  2 40  1  0
  2 41  1  0
  1 42  1  0
  1 43  1  0
  1 44  1  0
 13  5  1  0
 33 28  1  0
 12  8  1  0
M  CHG  1   3   1
M  END
>  <cnnaffinity>  (1) 
5.28114

>  <plip>  (1) 
-0.07142857142857142

>  <filename>  (1) 
[H][c]1[n][c]([H])[c]([C]([H])([C]([H])([H])[H])[N+]([H])([C]([H])([H])[c]2[c]([H])[c]([H])[c]3[c]([c]2[H])[O][C]([H])([H])[C]3([H])[H])[C]([H])([H])[C]([H])([H])[H])[c]([H])[c]1[H]

>  <combo1>  (1) 
-0.4436967080274127

$$$$
