
     RDKit          3D

 28 31  0  0  0  0  0  0  0  0999 V2000
    2.4726   -5.5723   23.9211 H   0  0  0  0  0  0  0  0  0  0  0  0
    3.5110   -5.2619   23.9525 C   0  0  0  0  0  0  0  0  0  0  0  0
    4.4479   -5.8165   24.7739 N   0  0  0  0  0  0  0  0  0  0  0  0
    5.5412   -5.1688   24.4536 C   0  0  0  0  0  0  0  0  0  0  0  0
    6.5244   -5.2882   24.8901 H   0  0  0  0  0  0  0  0  0  0  0  0
    5.2829   -4.2652   23.4833 N   0  0  0  0  0  0  0  0  0  0  0  0
    6.1763   -3.3876   22.8440 C   0  0  0  0  0  0  0  0  0  0  0  0
    7.4743   -3.3279   23.1567 N   0  0  0  0  0  0  0  0  0  0  0  0
    7.9046   -2.3696   22.3050 N   0  0  0  0  0  0  0  0  0  0  0  0
    9.1122   -1.7369   22.0769 C   0  0  0  0  0  0  0  0  0  0  0  0
    9.9843   -1.9700   22.6613 H   0  0  0  0  0  0  0  0  0  0  0  0
    8.8843   -0.8347   21.0862 C   0  0  0  0  0  0  0  0  0  0  0  0
    9.5349   -0.1073   20.6276 H   0  0  0  0  0  0  0  0  0  0  0  0
    7.5407   -0.8790   20.7147 N   0  0  0  0  0  0  0  0  0  0  0  0
    6.8753   -0.0650   19.7601 C   0  0  0  0  0  0  0  0  0  0  0  0
    7.3442    0.0646   18.4380 C   0  0  0  0  0  0  0  0  0  0  0  0
    8.2801   -0.4034   18.1283 H   0  0  0  0  0  0  0  0  0  0  0  0
    6.6779    0.7263   17.4834 N   0  0  0  0  0  0  0  0  0  0  0  0
    5.5163    1.3146   17.8191 C   0  0  0  0  0  0  0  0  0  0  0  0
    4.9982    1.8370   17.0219 H   0  0  0  0  0  0  0  0  0  0  0  0
    4.9866    1.2880   19.1136 C   0  0  0  0  0  0  0  0  0  0  0  0
    4.0625    1.8174   19.3367 H   0  0  0  0  0  0  0  0  0  0  0  0
    5.6837    0.5976   20.1057 C   0  0  0  0  0  0  0  0  0  0  0  0
    5.3414    0.5779   21.1398 H   0  0  0  0  0  0  0  0  0  0  0  0
    6.9387   -1.8504   21.5065 C   0  0  0  0  0  0  0  0  0  0  0  0
    5.7758   -2.5293   21.8111 C   0  0  0  0  0  0  0  0  0  0  0  0
    4.7497   -2.4892   21.5262 H   0  0  0  0  0  0  0  0  0  0  0  0
    3.9584   -4.3242   23.1507 N   0  0  0  0  0  0  0  0  0  0  0  0
  1  2  1  0
  2  3  1  0
  3  4  2  0
  4  5  1  0
  4  6  1  0
  6  7  1  0
  7  8  2  0
  8  9  1  0
  9 10  1  0
 10 11  1  0
 10 12  2  0
 12 13  1  0
 12 14  1  0
 14 15  1  0
 15 16  2  0
 16 17  1  0
 16 18  1  0
 18 19  2  0
 19 20  1  0
 19 21  1  0
 21 22  1  0
 21 23  2  0
 23 24  1  0
 14 25  1  0
 25 26  2  0
 26 27  1  0
  6 28  1  0
 28  2  2  0
 26  7  1  0
 25  9  1  0
 23 15  1  0
M  END
>  <cnnaffinity>  (1) 
4.85138

>  <plip>  (1) 
-0.1

>  <filename>  (1) 
[H][c]1[n][c]([H])[n](-[c]2[n][n]3[c]([H])[c]([H])[n](-[c]4[c]([H])[n][c]([H])[c]([H])[c]4[H])[c]3[c]2[H])[n]1

>  <combo1>  (1) 
-0.6436248190734704

$$$$
