
     RDKit          3D

 30 32  0  0  0  0  0  0  0  0999 V2000
    4.7980    1.3033   19.0958 C   0  0  0  0  0  0  0  0  0  0  0  0
    5.4027    1.2803   17.8351 C   0  0  0  0  0  0  0  0  0  0  0  0
    6.5558    0.6427   17.5850 N   0  0  0  0  0  0  0  0  0  0  0  0
    7.1533    0.0225   18.6113 C   0  0  0  0  0  0  0  0  0  0  0  0
    6.6521   -0.0002   19.9175 C   0  0  0  0  0  0  0  0  0  0  0  0
    7.4021   -0.7298   21.0005 C   0  0  0  0  0  0  0  0  0  0  0  0
    6.9908   -2.1129   21.0110 N   0  0  0  0  0  0  0  0  0  0  0  0
    7.4168   -3.0461   21.9263 C   0  0  0  0  0  0  0  0  0  0  0  0
    8.3790   -2.7290   22.8797 C   0  0  0  0  0  0  0  0  0  0  0  0
    8.8713   -3.6815   23.8129 C   0  0  0  0  0  0  0  0  0  0  0  0
    8.3886   -4.9703   23.7898 C   0  0  0  0  0  0  0  0  0  0  0  0
    7.4042   -5.3310   22.8375 C   0  0  0  0  0  0  0  0  0  0  0  0
    6.9892   -6.6395   22.8532 N   0  0  0  0  0  0  0  0  0  0  0  0
    6.1059   -6.9886   21.9513 C   0  0  0  0  0  0  0  0  0  0  0  0
    5.5835   -6.0705   20.9830 C   0  0  0  0  0  0  0  0  0  0  0  0
    5.9325   -4.7979   20.9547 N   0  0  0  0  0  0  0  0  0  0  0  0
    6.8795   -4.3978   21.8887 C   0  0  0  0  0  0  0  0  0  0  0  0
    4.9200   -6.4277   20.2041 H   0  0  0  0  0  0  0  0  0  0  0  0
    5.8185   -8.0318   21.9751 H   0  0  0  0  0  0  0  0  0  0  0  0
    8.6962   -5.7733   24.4533 H   0  0  0  0  0  0  0  0  0  0  0  0
    9.6271   -3.3824   24.5408 H   0  0  0  0  0  0  0  0  0  0  0  0
    8.7558   -1.7133   22.8997 H   0  0  0  0  0  0  0  0  0  0  0  0
    6.2690   -2.4418   20.3840 H   0  0  0  0  0  0  0  0  0  0  0  0
    8.4898   -0.6682   20.8304 H   0  0  0  0  0  0  0  0  0  0  0  0
    7.2164   -0.2613   21.9824 H   0  0  0  0  0  0  0  0  0  0  0  0
    5.4313    0.6441   20.1539 C   0  0  0  0  0  0  0  0  0  0  0  0
    4.9927    0.6462   21.1542 H   0  0  0  0  0  0  0  0  0  0  0  0
    8.1063   -0.4512   18.3744 H   0  0  0  0  0  0  0  0  0  0  0  0
    4.9491    1.7967   16.9879 H   0  0  0  0  0  0  0  0  0  0  0  0
    3.8691    1.8492   19.2336 H   0  0  0  0  0  0  0  0  0  0  0  0
  1  2  2  0
  2  3  1  0
  3  4  2  0
  4  5  1  0
  5  6  1  0
  6  7  1  0
  7  8  1  0
  8  9  2  0
  9 10  1  0
 10 11  2  0
 11 12  1  0
 12 13  2  0
 13 14  1  0
 14 15  2  0
 15 16  1  0
 16 17  2  0
 15 18  1  0
 14 19  1  0
 11 20  1  0
 10 21  1  0
  9 22  1  0
  7 23  1  0
  6 24  1  0
  6 25  1  0
  5 26  2  0
 26 27  1  0
  4 28  1  0
  2 29  1  0
  1 30  1  0
 26  1  1  0
 17  8  1  0
 17 12  1  0
M  END
>  <cnnaffinity>  (1) 
4.8509

>  <plip>  (1) 
-0.07142857142857142

>  <filename>  (1) 
[H][c]1[n][c]2[c]([H])[c]([H])[c]([H])[c]([N]([H])[C]([H])([H])[c]3[c]([H])[n][c]([H])[c]([H])[c]3[H])[c]2[n][c]1[H]

>  <combo1>  (1) 
-0.48882087645747385

$$$$
