
     RDKit          3D

 26 27  0  0  0  0  0  0  0  0999 V2000
    5.0101    1.7123   16.8799 H   0  0  0  0  0  0  0  0  0  0  0  0
    5.4565    1.2382   17.7545 C   0  0  0  0  0  0  0  0  0  0  0  0
    6.6170    0.5903   17.5630 N   0  0  0  0  0  0  0  0  0  0  0  0
    7.1902   -0.0151   18.6140 C   0  0  0  0  0  0  0  0  0  0  0  0
    8.1362   -0.5256   18.4181 H   0  0  0  0  0  0  0  0  0  0  0  0
    6.6453   -0.0000   19.9227 C   0  0  0  0  0  0  0  0  0  0  0  0
    7.2394   -0.6477   21.0470 N   0  0  0  0  0  0  0  0  0  0  0  0
    7.9729   -1.3244   20.9449 H   0  0  0  0  0  0  0  0  0  0  0  0
    7.4284   -0.1280   22.2847 C   0  0  0  0  0  0  0  0  0  0  0  0
    6.8886    0.9448   22.7103 N   0  0  0  0  0  0  0  0  0  0  0  0
    7.2457    1.4187   23.9150 C   0  0  0  0  0  0  0  0  0  0  0  0
    7.9944    0.9751   24.8953 N   0  0  0  0  0  0  0  0  0  0  0  0
    7.9364    1.9306   25.9047 N   0  0  0  0  0  0  0  0  0  0  0  0
    7.1717    2.8654   25.4678 C   0  0  0  0  0  0  0  0  0  0  0  0
    6.7268    4.1279   26.1224 C   0  0  0  0  0  0  0  0  0  0  0  0
    5.7210    4.3626   25.7750 H   0  0  0  0  0  0  0  0  0  0  0  0
    6.7212    4.0357   27.2085 H   0  0  0  0  0  0  0  0  0  0  0  0
    7.3757    4.9616   25.8388 H   0  0  0  0  0  0  0  0  0  0  0  0
    6.7092    2.6298   24.2241 O   0  0  0  0  0  0  0  0  0  0  0  0
    8.2389   -0.9777   22.9739 N   0  0  0  0  0  0  0  0  0  0  0  0
    8.3022   -0.6730   23.9375 H   0  0  0  0  0  0  0  0  0  0  0  0
    7.7973   -1.8746   22.8803 H   0  0  0  0  0  0  0  0  0  0  0  0
    5.4357    0.6838   20.1007 C   0  0  0  0  0  0  0  0  0  0  0  0
    5.0133    0.7316   21.1002 H   0  0  0  0  0  0  0  0  0  0  0  0
    4.8284    1.2967   19.0002 C   0  0  0  0  0  0  0  0  0  0  0  0
    3.8887    1.8238   19.1078 H   0  0  0  0  0  0  0  0  0  0  0  0
  1  2  1  0
  2  3  2  0
  3  4  1  0
  4  5  1  0
  4  6  2  0
  6  7  1  0
  7  8  1  0
  7  9  1  0
  9 10  2  3
 10 11  1  0
 11 12  2  0
 12 13  1  0
 13 14  2  0
 14 15  1  0
 15 16  1  0
 15 17  1  0
 15 18  1  0
 14 19  1  0
  9 20  1  0
 20 21  1  0
 20 22  1  0
  6 23  1  0
 23 24  1  0
 23 25  2  0
 25 26  1  0
 25  2  1  0
 19 11  1  0
M  END
>  <cnnaffinity>  (1) 
4.39622

>  <plip>  (1) 
-0.07142857142857142

>  <filename>  (1) 
[H][c]1[n][c]([H])[c]([N]([H])[C](=[N][c]2[n][n][c]([C]([H])([H])[H])[o]2)[N]([H])[H])[c]([H])[c]1[H]

>  <combo1>  (1) 
-0.4796622892581098

$$$$
