
     RDKit          3D

 37 39  0  0  0  0  0  0  0  0999 V2000
    4.9567    1.7860   16.9957 H   0  0  0  0  0  0  0  0  0  0  0  0
    5.4128    1.2788   17.8464 C   0  0  0  0  0  0  0  0  0  0  0  0
    6.5744    0.6462   17.6166 N   0  0  0  0  0  0  0  0  0  0  0  0
    7.1818    0.0414   18.6435 C   0  0  0  0  0  0  0  0  0  0  0  0
    8.1353   -0.4127   18.3774 H   0  0  0  0  0  0  0  0  0  0  0  0
    6.6677    0.0178   19.9629 C   0  0  0  0  0  0  0  0  0  0  0  0
    7.3491   -0.6243   21.0369 N   0  0  0  0  0  0  0  0  0  0  0  0
    7.3300   -0.3837   22.3896 C   0  0  0  0  0  0  0  0  0  0  0  0
    6.8017    0.4642   22.8087 H   0  0  0  0  0  0  0  0  0  0  0  0
    8.0817   -1.2339   23.0642 N   0  0  0  0  0  0  0  0  0  0  0  0
    8.6097   -2.0523   22.1170 C   0  0  0  0  0  0  0  0  0  0  0  0
    9.4248   -3.0936   22.3244 O   0  0  0  0  0  0  0  0  0  0  0  0
    9.8109   -3.4543   23.6467 C   0  0  0  0  0  0  0  0  0  0  0  0
   10.8446   -3.7990   23.5316 H   0  0  0  0  0  0  0  0  0  0  0  0
    9.7744   -2.5712   24.2966 H   0  0  0  0  0  0  0  0  0  0  0  0
    8.9437   -4.5937   24.2121 C   0  0  0  0  0  0  0  0  0  0  0  0
    8.9662   -5.4100   23.4675 H   0  0  0  0  0  0  0  0  0  0  0  0
    9.5154   -5.1294   25.5504 C   0  0  0  0  0  0  0  0  0  0  0  0
   10.5110   -5.5678   25.3963 H   0  0  0  0  0  0  0  0  0  0  0  0
    9.6474   -4.2897   26.2542 H   0  0  0  0  0  0  0  0  0  0  0  0
    8.5791   -6.1693   26.1926 C   0  0  0  0  0  0  0  0  0  0  0  0
    8.5534   -7.0711   25.5703 H   0  0  0  0  0  0  0  0  0  0  0  0
    8.9319   -6.4771   27.1806 H   0  0  0  0  0  0  0  0  0  0  0  0
    7.2055   -5.6944   26.3509 N   0  0  0  0  0  0  0  0  0  0  0  0
    7.2237   -4.9074   26.9994 H   0  0  0  0  0  0  0  0  0  0  0  0
    6.6336   -5.2342   25.0876 C   0  0  0  0  0  0  0  0  0  0  0  0
    6.5373   -6.1056   24.4194 H   0  0  0  0  0  0  0  0  0  0  0  0
    5.6165   -4.8766   25.2872 H   0  0  0  0  0  0  0  0  0  0  0  0
    7.4751   -4.1467   24.4041 C   0  0  0  0  0  0  0  0  0  0  0  0
    7.0286   -3.8699   23.4412 H   0  0  0  0  0  0  0  0  0  0  0  0
    7.4635   -3.2344   25.0221 H   0  0  0  0  0  0  0  0  0  0  0  0
    8.2028   -1.6925   20.8725 C   0  0  0  0  0  0  0  0  0  0  0  0
    8.5693   -2.0050   19.9255 H   0  0  0  0  0  0  0  0  0  0  0  0
    5.4364    0.6505   20.1761 C   0  0  0  0  0  0  0  0  0  0  0  0
    4.9744    0.6298   21.1596 H   0  0  0  0  0  0  0  0  0  0  0  0
    4.8135    1.2988   19.1064 C   0  0  0  0  0  0  0  0  0  0  0  0
    3.8805    1.8328   19.2472 H   0  0  0  0  0  0  0  0  0  0  0  0
  1  2  1  0
  2  3  2  0
  3  4  1  0
  4  5  1  0
  4  6  2  0
  6  7  1  0
  7  8  1  0
  8  9  1  0
  8 10  2  0
 10 11  1  0
 11 12  1  0
 12 13  1  0
 13 14  1  0
 13 15  1  0
 13 16  1  0
 16 17  1  0
 16 18  1  0
 18 19  1  0
 18 20  1  0
 18 21  1  0
 21 22  1  0
 21 23  1  0
 21 24  1  0
 24 25  1  0
 24 26  1  0
 26 27  1  0
 26 28  1  0
 26 29  1  0
 29 30  1  0
 29 31  1  0
 11 32  2  0
 32 33  1  0
  6 34  1  0
 34 35  1  0
 34 36  2  0
 36 37  1  0
 36  2  1  0
 32  7  1  0
 29 16  1  0
M  END
>  <cnnaffinity>  (1) 
5.2825

>  <plip>  (1) 
-0.03571428571428571

>  <filename>  (1) 
[H][c]1[n][c]([H])[c](-[n]2[c]([H])[n][c]([O][C]([H])([H])[C]3([H])[C]([H])([H])[C]([H])([H])[N]([H])[C]([H])([H])[C]3([H])[H])[c]2[H])[c]([H])[c]1[H]

>  <combo1>  (1) 
-0.24344103266003958

$$$$
