
     RDKit          3D

 32 33  0  0  0  0  0  0  0  0999 V2000
    5.8775   -3.3233   22.0620 O   0  0  0  0  0  0  0  0  0  0  0  0
    7.0450   -3.2315   22.3640 C   0  0  0  0  0  0  0  0  0  0  0  0
    7.5893   -3.6209   23.5647 N   0  0  0  0  0  0  0  0  0  0  0  0
    6.7152   -3.7312   24.7633 C   0  0  0  0  0  0  0  0  0  0  0  0
    7.3381   -4.4107   25.9797 C   0  0  0  0  0  0  0  0  0  0  0  0
    8.5152   -3.9470   26.4196 N   0  0  0  0  0  0  0  0  0  0  0  0
    9.0369   -4.5587   27.4810 C   0  0  0  0  0  0  0  0  0  0  0  0
    8.3953   -5.6051   28.1242 C   0  0  0  0  0  0  0  0  0  0  0  0
    7.1722   -5.9864   27.6031 C   0  0  0  0  0  0  0  0  0  0  0  0
    6.6276   -5.3925   26.5446 N   0  0  0  0  0  0  0  0  0  0  0  0
    6.5883   -6.7954   28.0392 H   0  0  0  0  0  0  0  0  0  0  0  0
    8.8341   -6.0989   28.9722 H   0  0  0  0  0  0  0  0  0  0  0  0
   10.0113   -4.2043   27.8157 H   0  0  0  0  0  0  0  0  0  0  0  0
    6.3660   -2.7367   25.0903 H   0  0  0  0  0  0  0  0  0  0  0  0
    5.8245   -4.3072   24.4991 H   0  0  0  0  0  0  0  0  0  0  0  0
    8.4872   -3.1716   23.7072 H   0  0  0  0  0  0  0  0  0  0  0  0
    8.1136   -2.6912   21.5707 N   0  0  0  0  0  0  0  0  0  0  0  0
    7.6605   -1.9820   20.4480 O   0  0  0  0  0  0  0  0  0  0  0  0
    7.4220   -0.6239   20.8366 C   0  0  0  0  0  0  0  0  0  0  0  0
    6.7063    0.0668   19.7108 C   0  0  0  0  0  0  0  0  0  0  0  0
    5.5120    0.7586   19.9263 C   0  0  0  0  0  0  0  0  0  0  0  0
    4.8739    1.3482   18.8345 C   0  0  0  0  0  0  0  0  0  0  0  0
    5.4663    1.2361   17.5740 C   0  0  0  0  0  0  0  0  0  0  0  0
    6.6204    0.5877   17.3493 N   0  0  0  0  0  0  0  0  0  0  0  0
    7.2149    0.0148   18.4022 C   0  0  0  0  0  0  0  0  0  0  0  0
    8.1438   -0.5170   18.1971 H   0  0  0  0  0  0  0  0  0  0  0  0
    4.9941    1.6799   16.7011 H   0  0  0  0  0  0  0  0  0  0  0  0
    3.9445    1.8925   18.9516 H   0  0  0  0  0  0  0  0  0  0  0  0
    5.0982    0.8295   20.9355 H   0  0  0  0  0  0  0  0  0  0  0  0
    8.3839   -0.1481   21.0814 H   0  0  0  0  0  0  0  0  0  0  0  0
    6.7887   -0.6091   21.7378 H   0  0  0  0  0  0  0  0  0  0  0  0
    8.6514   -3.4738   21.2057 H   0  0  0  0  0  0  0  0  0  0  0  0
  1  2  2  0
  2  3  1  0
  3  4  1  0
  4  5  1  0
  5  6  2  0
  6  7  1  0
  7  8  2  0
  8  9  1  0
  9 10  2  0
  9 11  1  0
  8 12  1  0
  7 13  1  0
  4 14  1  0
  4 15  1  0
  3 16  1  0
  2 17  1  0
 17 18  1  0
 18 19  1  0
 19 20  1  0
 20 21  2  0
 21 22  1  0
 22 23  2  0
 23 24  1  0
 24 25  2  0
 25 26  1  0
 23 27  1  0
 22 28  1  0
 21 29  1  0
 19 30  1  0
 19 31  1  0
 17 32  1  0
 10  5  1  0
 25 20  1  0
M  END
>  <cnnaffinity>  (1) 
4.4915

>  <plip>  (1) 
-0.06896551724137931

>  <filename>  (1) 
[H][c]1[n][c]([C]([H])([H])[N]([H])[C](=[O])[N]([H])[O][C]([H])([H])[c]2[c]([H])[n][c]([H])[c]([H])[c]2[H])[n][c]([H])[c]1[H]

>  <combo1>  (1) 
-0.3982461210681508

$$$$
