
     RDKit          3D

 40 42  0  0  0  0  0  0  0  0999 V2000
    5.8521   -5.2622   23.2157 C   0  0  0  0  0  0  0  0  0  0  0  0
    5.6575   -5.0644   21.7464 C   0  0  0  0  0  0  0  0  0  0  0  0
    5.7795   -3.8769   21.0570 C   0  0  0  0  0  0  0  0  0  0  0  0
    6.0991   -2.5514   21.6676 C   0  0  0  0  0  0  0  0  0  0  0  0
    7.3000   -2.0719   20.9559 N   0  0  0  0  0  4  0  0  0  0  0  0
    8.5619   -2.7287   21.4151 C   0  0  0  0  0  0  0  0  0  0  0  0
    9.0252   -2.0795   22.7264 C   0  0  0  0  0  0  0  0  0  0  0  0
    9.5184   -0.6931   22.4496 N   0  0  0  0  0  4  0  0  0  0  0  0
    8.8257   -0.0884   21.2541 C   0  0  0  0  0  0  0  0  0  0  0  0
    7.3676   -0.6114   21.1314 C   0  0  0  0  0  0  0  0  0  0  0  0
    6.6536   -0.0208   19.9590 C   0  0  0  0  0  0  0  0  0  0  0  0
    5.4482    0.6516   20.1520 C   0  0  0  0  0  0  0  0  0  0  0  0
    4.8693    1.2862   19.0588 C   0  0  0  0  0  0  0  0  0  0  0  0
    5.4941    1.2113   17.8118 C   0  0  0  0  0  0  0  0  0  0  0  0
    6.6252    0.5064   17.6131 N   0  0  0  0  0  0  0  0  0  0  0  0
    7.1844   -0.1060   18.6685 C   0  0  0  0  0  0  0  0  0  0  0  0
    8.0924   -0.6779   18.5092 H   0  0  0  0  0  0  0  0  0  0  0  0
    5.0447    1.7415   16.9769 H   0  0  0  0  0  0  0  0  0  0  0  0
    3.9538    1.8585   19.1737 H   0  0  0  0  0  0  0  0  0  0  0  0
    4.9818    0.6960   21.1329 H   0  0  0  0  0  0  0  0  0  0  0  0
    6.8527   -0.3255   22.0591 H   0  0  0  0  0  0  0  0  0  0  0  0
    9.3518   -0.3463   20.3256 H   0  0  0  0  0  0  0  0  0  0  0  0
    8.7962    1.0065   21.3055 H   0  0  0  0  0  0  0  0  0  0  0  0
    9.3471   -0.1040   23.2733 H   0  0  0  0  0  0  0  0  0  0  0  0
   10.5354   -0.7179   22.2862 H   0  0  0  0  0  0  0  0  0  0  0  0
    9.7950   -2.7026   23.2003 H   0  0  0  0  0  0  0  0  0  0  0  0
    8.1564   -2.0627   23.4001 H   0  0  0  0  0  0  0  0  0  0  0  0
    8.4036   -3.8006   21.5582 H   0  0  0  0  0  0  0  0  0  0  0  0
    9.3714   -2.5941   20.6810 H   0  0  0  0  0  0  0  0  0  0  0  0
    7.1572   -2.2794   19.9623 H   0  0  0  0  0  0  0  0  0  0  0  0
    6.2832   -2.6518   22.7408 H   0  0  0  0  0  0  0  0  0  0  0  0
    5.2611   -1.8485   21.5501 H   0  0  0  0  0  0  0  0  0  0  0  0
    5.7287   -4.0995   19.3165 S   0  0  0  0  0  0  0  0  0  0  0  0
    5.6310   -5.8360   19.5501 C   0  0  0  0  0  0  0  0  0  0  0  0
    5.6676   -7.0920   18.1309 Br  0  0  0  0  0  0  0  0  0  0  0  0
    5.5416   -6.2020   20.8627 C   0  0  0  0  0  0  0  0  0  0  0  0
    5.4628   -7.2320   21.2029 H   0  0  0  0  0  0  0  0  0  0  0  0
    6.7723   -4.7514   23.5135 H   0  0  0  0  0  0  0  0  0  0  0  0
    4.9995   -4.8744   23.7832 H   0  0  0  0  0  0  0  0  0  0  0  0
    5.9631   -6.3280   23.4431 H   0  0  0  0  0  0  0  0  0  0  0  0
  1  2  1  0
  2  3  2  0
  3  4  1  0
  4  5  1  0
  5  6  1  0
  6  7  1  0
  7  8  1  0
  8  9  1  0
  9 10  1  0
 10 11  1  0
 11 12  2  0
 12 13  1  0
 13 14  2  0
 14 15  1  0
 15 16  2  0
 16 17  1  0
 14 18  1  0
 13 19  1  0
 12 20  1  0
 10 21  1  0
  9 22  1  0
  9 23  1  0
  8 24  1  0
  8 25  1  0
  7 26  1  0
  7 27  1  0
  6 28  1  0
  6 29  1  0
  5 30  1  0
  4 31  1  0
  4 32  1  0
  3 33  1  0
 33 34  1  0
 34 35  1  0
 34 36  2  0
 36 37  1  0
  1 38  1  0
  1 39  1  0
  1 40  1  0
 36  2  1  0
 10  5  1  0
 16 11  1  0
M  CHG  2   5   1   8   1
M  END
>  <cnnaffinity>  (1) 
5.44919

>  <plip>  (1) 
-0.06451612903225806

>  <filename>  (1) 
[H][c]1[n][c]([H])[c]([C]2([H])[C]([H])([H])[N+]([H])([H])[C]([H])([H])[C]([H])([H])[N+]2([H])[C]([H])([H])[c]2[s][c]([Br])[c]([H])[c]2[C]([H])([H])[H])[c]([H])[c]1[H]

>  <combo1>  (1) 
-0.33074021771585915

$$$$
