
     RDKit          3D

 38 39  0  0  0  0  0  0  0  0999 V2000
   12.0900    3.8958   22.2526 N   0  0  0  0  0  0  0  0  0  0  0  0
   11.1294    2.9819   21.9414 C   0  0  0  0  0  0  0  0  0  0  0  0
   11.0869    2.4089   20.8772 O   0  0  0  0  0  0  0  0  0  0  0  0
   10.2434    2.8385   22.9702 N   0  0  0  0  0  0  0  0  0  0  0  0
    8.9584    2.3541   22.8373 C   0  0  0  0  0  0  0  0  0  0  0  0
    8.1450    2.7382   23.6478 O   0  0  0  0  0  0  0  0  0  0  0  0
    8.6639    1.3326   21.7323 C   0  0  0  0  0  0  0  0  0  0  0  0
    7.7658    0.1467   22.1269 N   0  0  0  0  0  4  0  0  0  0  0  0
    8.4331   -0.6567   23.2500 C   0  0  0  0  0  0  0  0  0  0  0  0
    7.5763   -1.8445   23.6911 C   0  0  0  0  0  0  0  0  0  0  0  0
    7.2809   -2.7911   22.5240 N   0  0  0  0  0  4  0  0  0  0  0  0
    6.5689   -1.9783   21.4205 C   0  0  0  0  0  0  0  0  0  0  0  0
    7.3952   -0.7726   20.9273 C   0  0  0  0  0  0  0  0  0  0  0  0
    6.6397    0.0129   19.8859 C   0  0  0  0  0  0  0  0  0  0  0  0
    5.4294    0.6785   20.1374 C   0  0  0  0  0  0  0  0  0  0  0  0
    4.7934    1.3370   19.0806 C   0  0  0  0  0  0  0  0  0  0  0  0
    5.3951    1.3158   17.8171 C   0  0  0  0  0  0  0  0  0  0  0  0
    6.5536    0.6969   17.5579 N   0  0  0  0  0  0  0  0  0  0  0  0
    7.1551    0.0794   18.5820 C   0  0  0  0  0  0  0  0  0  0  0  0
    8.1058   -0.4035   18.3578 H   0  0  0  0  0  0  0  0  0  0  0  0
    4.9239    1.8201   16.9744 H   0  0  0  0  0  0  0  0  0  0  0  0
    3.8622    1.8738   19.2220 H   0  0  0  0  0  0  0  0  0  0  0  0
    4.9872    0.6923   21.1400 H   0  0  0  0  0  0  0  0  0  0  0  0
    8.3462   -1.1396   20.5148 H   0  0  0  0  0  0  0  0  0  0  0  0
    5.6395   -1.5561   21.8191 H   0  0  0  0  0  0  0  0  0  0  0  0
    6.3224   -2.5902   20.5571 H   0  0  0  0  0  0  0  0  0  0  0  0
    8.1962   -3.1674   22.1502 H   0  0  0  0  0  0  0  0  0  0  0  0
    6.6961   -3.5965   22.8357 H   0  0  0  0  0  0  0  0  0  0  0  0
    6.6329   -1.4392   24.0735 H   0  0  0  0  0  0  0  0  0  0  0  0
    8.0727   -2.3746   24.5018 H   0  0  0  0  0  0  0  0  0  0  0  0
    8.6185    0.0025   24.0992 H   0  0  0  0  0  0  0  0  0  0  0  0
    9.4091   -1.0179   22.8868 H   0  0  0  0  0  0  0  0  0  0  0  0
    6.8318    0.5399   22.4367 H   0  0  0  0  0  0  0  0  0  0  0  0
    8.2027    1.8802   20.9066 H   0  0  0  0  0  0  0  0  0  0  0  0
    9.6231    0.9764   21.3741 H   0  0  0  0  0  0  0  0  0  0  0  0
   10.2380    3.5755   23.6539 H   0  0  0  0  0  0  0  0  0  0  0  0
   12.8087    3.7620   21.5591 H   0  0  0  0  0  0  0  0  0  0  0  0
   12.4343    3.7773   23.1859 H   0  0  0  0  0  0  0  0  0  0  0  0
  1  2  1  0
  2  3  2  0
  2  4  1  0
  4  5  1  0
  5  6  2  0
  5  7  1  0
  7  8  1  0
  8  9  1  0
  9 10  1  0
 10 11  1  0
 11 12  1  0
 12 13  1  0
 13 14  1  0
 14 15  2  0
 15 16  1  0
 16 17  2  0
 17 18  1  0
 18 19  2  0
 19 20  1  0
 17 21  1  0
 16 22  1  0
 15 23  1  0
 13 24  1  0
 12 25  1  0
 12 26  1  0
 11 27  1  0
 11 28  1  0
 10 29  1  0
 10 30  1  0
  9 31  1  0
  9 32  1  0
  8 33  1  0
  7 34  1  0
  7 35  1  0
  4 36  1  0
  1 37  1  0
  1 38  1  0
 13  8  1  0
 19 14  1  0
M  CHG  2   8   1  11   1
M  END
>  <cnnaffinity>  (1) 
4.49231

>  <plip>  (1) 
-0.10714285714285714

>  <filename>  (1) 
[H][c]1[n][c]([H])[c]([C]2([H])[C]([H])([H])[N+]([H])([H])[C]([H])([H])[C]([H])([H])[N+]2([H])[C]([H])([H])[C](=[O])[N]([H])[C](=[O])[N]([H])[H])[c]([H])[c]1[H]

>  <combo1>  (1) 
-0.6047092453824781

$$$$
