
     RDKit          3D

 28 29  0  0  0  0  0  0  0  0999 V2000
    8.4614   -2.1831   22.3367 C   0  0  0  0  0  0  0  0  0  0  0  0
    8.4249   -1.1549   21.1964 C   0  0  0  0  0  0  0  0  0  0  0  0
    7.1043   -0.5971   21.1687 O   0  0  0  0  0  0  0  0  0  0  0  0
    6.6116    0.0205   20.0494 C   0  0  0  0  0  0  0  0  0  0  0  0
    5.3853    0.6931   20.2028 C   0  0  0  0  0  0  0  0  0  0  0  0
    4.8242    1.3233   19.0936 C   0  0  0  0  0  0  0  0  0  0  0  0
    5.4929    1.2725   17.8650 C   0  0  0  0  0  0  0  0  0  0  0  0
    6.6517    0.6258   17.7026 N   0  0  0  0  0  0  0  0  0  0  0  0
    7.1999    0.0164   18.7674 C   0  0  0  0  0  0  0  0  0  0  0  0
    8.1381   -0.5083   18.5847 H   0  0  0  0  0  0  0  0  0  0  0  0
    5.0748    1.7500   16.9805 H   0  0  0  0  0  0  0  0  0  0  0  0
    3.8768    1.8447   19.1575 H   0  0  0  0  0  0  0  0  0  0  0  0
    4.8951    0.6911   21.1761 H   0  0  0  0  0  0  0  0  0  0  0  0
    9.5690   -0.1185   21.3165 C   0  0  0  0  0  0  0  0  0  0  0  0
   10.7074   -0.5011   21.1015 O   0  0  0  0  0  0  0  0  0  0  0  0
    9.2939    1.1718   21.6585 N   0  0  0  0  0  0  0  0  0  0  0  0
   10.3206    2.0995   21.8039 C   0  0  0  0  0  0  0  0  0  0  0  0
   11.5499    2.0876   21.2047 C   0  0  0  0  0  0  0  0  0  0  0  0
   12.1379    3.1994   21.7007 N   0  0  0  0  0  0  0  0  0  0  0  0
   11.3378    3.8454   22.5509 N   0  0  0  0  0  0  0  0  0  0  0  0
   10.2210    3.1739   22.6108 N   0  0  0  0  0  0  0  0  0  0  0  0
   13.0628    3.5580   21.5116 H   0  0  0  0  0  0  0  0  0  0  0  0
   11.9766    1.3718   20.5388 H   0  0  0  0  0  0  0  0  0  0  0  0
    8.3645    1.4433   21.9254 H   0  0  0  0  0  0  0  0  0  0  0  0
    8.6340   -1.6752   20.2521 H   0  0  0  0  0  0  0  0  0  0  0  0
    7.6415   -2.8961   22.1990 H   0  0  0  0  0  0  0  0  0  0  0  0
    9.4059   -2.7408   22.3165 H   0  0  0  0  0  0  0  0  0  0  0  0
    8.3594   -1.7017   23.3196 H   0  0  0  0  0  0  0  0  0  0  0  0
  1  2  1  0
  2  3  1  0
  3  4  1  0
  4  5  2  0
  5  6  1  0
  6  7  2  0
  7  8  1  0
  8  9  2  0
  9 10  1  0
  7 11  1  0
  6 12  1  0
  5 13  1  0
  2 14  1  0
 14 15  2  0
 14 16  1  0
 16 17  1  0
 17 18  2  0
 18 19  1  0
 19 20  1  0
 20 21  2  0
 19 22  1  0
 18 23  1  0
 16 24  1  0
  2 25  1  0
  1 26  1  0
  1 27  1  0
  1 28  1  0
  9  4  1  0
 21 17  1  0
M  END
>  <cnnaffinity>  (1) 
4.70502

>  <plip>  (1) 
-0.07142857142857142

>  <filename>  (1) 
[H][c]1[n][c]([H])[c]([O][C]([H])([C](=[O])[N]([H])[c]2[n][n][n]([H])[c]2[H])[C]([H])([H])[H])[c]([H])[c]1[H]

>  <combo1>  (1) 
-0.48031473395168606

$$$$
