
     RDKit          3D

 34 37  0  0  0  0  0  0  0  0999 V2000
    4.6661    0.9904   26.2461 Cl  0  0  0  0  0  0  0  0  0  0  0  0
    5.2321    1.7438   24.7941 C   0  0  0  0  0  0  0  0  0  0  0  0
    6.3901    1.2724   24.1510 C   0  0  0  0  0  0  0  0  0  0  0  0
    6.8606    1.8665   22.9750 C   0  0  0  0  0  0  0  0  0  0  0  0
    8.0992    1.2867   22.3057 C   0  0  0  0  0  0  0  0  0  0  0  0
    8.0071   -0.1338   21.9943 N   0  0  0  0  0  0  0  0  0  0  0  0
    8.5776   -1.0565   22.7901 N   0  0  0  0  0  0  0  0  0  0  0  0
    8.3048   -2.2262   22.2248 C   0  0  0  0  0  0  0  0  0  0  0  0
    7.5569   -2.0592   21.0459 C   0  0  0  0  0  0  0  0  0  0  0  0
    7.3836   -0.7050   20.9268 C   0  0  0  0  0  0  0  0  0  0  0  0
    6.6534    0.0378   19.8836 C   0  0  0  0  0  0  0  0  0  0  0  0
    5.4266    0.6629   20.1323 C   0  0  0  0  0  0  0  0  0  0  0  0
    4.7889    1.3242   19.0835 C   0  0  0  0  0  0  0  0  0  0  0  0
    5.3862    1.3080   17.8167 C   0  0  0  0  0  0  0  0  0  0  0  0
    6.5467    0.6886   17.5525 N   0  0  0  0  0  0  0  0  0  0  0  0
    7.1549    0.0715   18.5743 C   0  0  0  0  0  0  0  0  0  0  0  0
    8.1026   -0.4182   18.3551 H   0  0  0  0  0  0  0  0  0  0  0  0
    4.9149    1.8075   16.9707 H   0  0  0  0  0  0  0  0  0  0  0  0
    3.8561    1.8552   19.2303 H   0  0  0  0  0  0  0  0  0  0  0  0
    5.0087    0.6228   21.1388 H   0  0  0  0  0  0  0  0  0  0  0  0
    7.1483   -2.7872   20.3634 H   0  0  0  0  0  0  0  0  0  0  0  0
    8.6617   -3.1442   22.6813 H   0  0  0  0  0  0  0  0  0  0  0  0
    8.2801    1.8130   21.3667 H   0  0  0  0  0  0  0  0  0  0  0  0
    8.9802    1.3934   22.9456 H   0  0  0  0  0  0  0  0  0  0  0  0
    6.1825    2.9841   22.4317 C   0  0  0  0  0  0  0  0  0  0  0  0
    5.0440    3.4242   23.0764 C   0  0  0  0  0  0  0  0  0  0  0  0
    4.5629    2.8217   24.2397 C   0  0  0  0  0  0  0  0  0  0  0  0
    3.4316    3.4518   24.6592 O   0  0  0  0  0  0  0  0  0  0  0  0
    3.1922    4.4984   23.7136 C   0  0  0  0  0  0  0  0  0  0  0  0
    4.2146    4.4499   22.7237 O   0  0  0  0  0  0  0  0  0  0  0  0
    2.2171    4.3336   23.2382 H   0  0  0  0  0  0  0  0  0  0  0  0
    3.2309    5.4671   24.2285 H   0  0  0  0  0  0  0  0  0  0  0  0
    6.4903    3.4597   21.5055 H   0  0  0  0  0  0  0  0  0  0  0  0
    6.9164    0.4255   24.5762 H   0  0  0  0  0  0  0  0  0  0  0  0
  1  2  1  0
  2  3  2  0
  3  4  1  0
  4  5  1  0
  5  6  1  0
  6  7  1  0
  7  8  2  0
  8  9  1  0
  9 10  2  0
 10 11  1  0
 11 12  2  0
 12 13  1  0
 13 14  2  0
 14 15  1  0
 15 16  2  0
 16 17  1  0
 14 18  1  0
 13 19  1  0
 12 20  1  0
  9 21  1  0
  8 22  1  0
  5 23  1  0
  5 24  1  0
  4 25  2  0
 25 26  1  0
 26 27  2  0
 27 28  1  0
 28 29  1  0
 29 30  1  0
 29 31  1  0
 29 32  1  0
 25 33  1  0
  3 34  1  0
 27  2  1  0
 10  6  1  0
 16 11  1  0
 30 26  1  0
M  END
>  <cnnaffinity>  (1) 
5.10592

>  <plip>  (1) 
-0.10714285714285714

>  <filename>  (1) 
[H][c]1[n][c]([H])[c](-[c]2[c]([H])[c]([H])[n][n]2[C]([H])([H])[c]2[c]([H])[c]([Cl])[c]3[c]([c]2[H])[O][C]([H])([H])[O]3)[c]([H])[c]1[H]

>  <combo1>  (1) 
-0.5812199937346554

$$$$
