
     RDKit          3D

 36 37  0  0  0  0  0  0  0  0999 V2000
    9.3042    0.9785   21.2735 C   0  0  0  0  0  0  0  0  0  0  0  0
    8.1333    0.2758   21.9470 C   0  0  0  0  0  0  0  0  0  0  0  0
    7.3864   -0.7027   21.0175 C   0  0  0  0  0  0  0  0  0  0  0  0
    6.6548   -0.0521   19.8670 C   0  0  0  0  0  0  0  0  0  0  0  0
    5.4505    0.6260   20.1190 C   0  0  0  0  0  0  0  0  0  0  0  0
    4.8204    1.3002   19.0710 C   0  0  0  0  0  0  0  0  0  0  0  0
    5.4235    1.2879   17.8061 C   0  0  0  0  0  0  0  0  0  0  0  0
    6.5694    0.6452   17.5355 N   0  0  0  0  0  0  0  0  0  0  0  0
    7.1566   -0.0016   18.5543 C   0  0  0  0  0  0  0  0  0  0  0  0
    8.0881   -0.5111   18.3127 H   0  0  0  0  0  0  0  0  0  0  0  0
    4.9638    1.8226   16.9765 H   0  0  0  0  0  0  0  0  0  0  0  0
    3.8901    1.8436   19.2201 H   0  0  0  0  0  0  0  0  0  0  0  0
    5.0323    0.6243   21.1326 H   0  0  0  0  0  0  0  0  0  0  0  0
    8.1082   -1.4583   20.6723 H   0  0  0  0  0  0  0  0  0  0  0  0
    6.6524   -1.2304   21.6437 H   0  0  0  0  0  0  0  0  0  0  0  0
    8.5696   -0.4936   23.0928 N   0  0  0  0  0  0  0  0  0  0  0  0
    7.7673   -0.6173   24.1775 C   0  0  0  0  0  0  0  0  0  0  0  0
    6.7043   -0.0160   24.3144 O   0  0  0  0  0  0  0  0  0  0  0  0
    8.3355   -1.5436   25.1991 C   0  0  0  0  0  0  0  0  0  0  0  0
    9.1725   -2.6766   25.1257 C   0  0  0  0  0  0  0  0  0  0  0  0
    9.8228   -3.3613   23.9412 C   0  0  0  0  0  0  0  0  0  0  0  0
   10.6000   -4.2861   24.1877 O   0  0  0  0  0  0  0  0  0  0  0  0
    9.5148   -2.9068   22.8027 O   0  0  0  0  0  1  0  0  0  0  0  0
    9.3092   -3.1013   26.4461 C   0  0  0  0  0  0  0  0  0  0  0  0
    8.6361   -2.3122   27.2648 N   0  0  0  0  0  0  0  0  0  0  0  0
    8.0565   -1.3860   26.5108 N   0  0  0  0  0  0  0  0  0  0  0  0
    7.2054   -0.3674   27.1025 C   0  0  0  0  0  0  0  0  0  0  0  0
    7.3789   -0.3757   28.1755 H   0  0  0  0  0  0  0  0  0  0  0  0
    7.4701    0.6009   26.6805 H   0  0  0  0  0  0  0  0  0  0  0  0
    6.1560   -0.5576   26.8723 H   0  0  0  0  0  0  0  0  0  0  0  0
    9.8860   -3.9340   26.8364 H   0  0  0  0  0  0  0  0  0  0  0  0
    9.0734   -1.3820   22.8952 H   0  0  0  0  0  0  0  0  0  0  0  0
    7.4267    1.0432   22.3013 H   0  0  0  0  0  0  0  0  0  0  0  0
    9.8160    1.6427   21.9755 H   0  0  0  0  0  0  0  0  0  0  0  0
    8.9316    1.5919   20.4458 H   0  0  0  0  0  0  0  0  0  0  0  0
   10.0310    0.2575   20.8751 H   0  0  0  0  0  0  0  0  0  0  0  0
  1  2  1  0
  2  3  1  0
  3  4  1  0
  4  5  2  0
  5  6  1  0
  6  7  2  0
  7  8  1  0
  8  9  2  0
  9 10  1  0
  7 11  1  0
  6 12  1  0
  5 13  1  0
  3 14  1  0
  3 15  1  0
  2 16  1  0
 16 17  1  0
 17 18  2  0
 17 19  1  0
 19 20  2  0
 20 21  1  0
 21 22  2  0
 21 23  1  0
 20 24  1  0
 24 25  2  0
 25 26  1  0
 26 27  1  0
 27 28  1  0
 27 29  1  0
 27 30  1  0
 24 31  1  0
 16 32  1  0
  2 33  1  0
  1 34  1  0
  1 35  1  0
  1 36  1  0
  9  4  1  0
 26 19  1  0
M  CHG  1  23  -1
M  END
>  <cnnaffinity>  (1) 
4.96883

>  <plip>  (1) 
-0.07142857142857142

>  <filename>  (1) 
[H][c]1[n][c]([H])[c]([C]([H])([H])[C]([H])([N]([H])[C](=[O])[c]2[c]([C](=[O])[O-])[c]([H])[n][n]2[C]([H])([H])[H])[C]([H])([H])[H])[c]([H])[c]1[H]

>  <combo1>  (1) 
-0.4117852000545643

$$$$
