
     RDKit          3D

 45 49  0  0  0  0  0  0  0  0999 V2000
    4.8171    1.3389   19.0564 C   0  0  0  0  0  0  0  0  0  0  0  0
    5.4314    1.4067   17.8031 C   0  0  0  0  0  0  0  0  0  0  0  0
    6.6604    0.9308   17.5609 N   0  0  0  0  0  0  0  0  0  0  0  0
    7.3195    0.3903   18.5927 C   0  0  0  0  0  0  0  0  0  0  0  0
    6.7921    0.2511   19.8997 C   0  0  0  0  0  0  0  0  0  0  0  0
    7.5921   -0.3690   21.0145 C   0  0  0  0  0  0  0  0  0  0  0  0
    6.9346   -0.5652   22.3608 C   0  0  0  0  0  0  0  0  0  0  0  0
    7.0353   -1.6779   23.0403 N   0  0  0  0  0  0  0  0  0  0  0  0
    6.5128   -1.3582   24.2754 O   0  0  0  0  0  0  0  0  0  0  0  0
    6.1660   -0.0691   24.2321 C   0  0  0  0  0  0  0  0  0  0  0  0
    5.6574    0.5422   25.5169 C   0  0  0  0  0  0  0  0  0  0  0  0
    4.6108    1.6689   25.3393 C   0  0  0  0  0  0  0  0  0  0  0  0
    4.6255    2.6555   26.5285 C   0  0  0  0  0  0  0  0  0  0  0  0
    5.0981    1.9346   27.7900 C   0  0  0  0  0  0  0  0  0  0  0  0
    6.5342    1.3858   27.5892 C   0  0  0  0  0  0  0  0  0  0  0  0
    6.8570    0.2455   28.5725 C   0  0  0  0  0  0  0  0  0  0  0  0
    7.6857    0.9265   29.6870 C   0  0  0  0  0  0  0  0  0  0  0  0
    7.7651    2.3121   29.3648 O   0  0  0  0  0  0  0  0  0  0  0  0
    7.5837    2.4413   27.9645 C   0  0  0  0  0  0  0  0  0  0  0  0
    7.2531    3.4643   27.7546 H   0  0  0  0  0  0  0  0  0  0  0  0
    8.5069    2.2623   27.3936 H   0  0  0  0  0  0  0  0  0  0  0  0
    7.2053    0.8442   30.6687 H   0  0  0  0  0  0  0  0  0  0  0  0
    8.6980    0.4975   29.7519 H   0  0  0  0  0  0  0  0  0  0  0  0
    7.4231   -0.5340   28.0484 H   0  0  0  0  0  0  0  0  0  0  0  0
    5.9461   -0.2206   28.9644 H   0  0  0  0  0  0  0  0  0  0  0  0
    6.7927    1.0103   26.2403 O   0  0  0  0  0  0  0  0  0  0  0  0
    4.4187    1.0988   28.0035 H   0  0  0  0  0  0  0  0  0  0  0  0
    5.0893    2.5736   28.6778 H   0  0  0  0  0  0  0  0  0  0  0  0
    5.2986    3.4985   26.3245 H   0  0  0  0  0  0  0  0  0  0  0  0
    3.6330    3.0879   26.6867 H   0  0  0  0  0  0  0  0  0  0  0  0
    3.6314    1.1844   25.2616 H   0  0  0  0  0  0  0  0  0  0  0  0
    4.7840    2.1993   24.3986 H   0  0  0  0  0  0  0  0  0  0  0  0
    5.2034   -0.2834   26.0730 H   0  0  0  0  0  0  0  0  0  0  0  0
    6.3662    0.4722   23.0703 N   0  0  0  0  0  0  0  0  0  0  0  0
    8.6910   -1.3406   20.6487 C   0  0  0  0  0  0  0  0  0  0  0  0
    9.0746    0.0066   21.1434 C   0  0  0  0  0  0  0  0  0  0  0  0
    9.4868    0.7383   20.4505 H   0  0  0  0  0  0  0  0  0  0  0  0
    9.4523    0.0969   22.1593 H   0  0  0  0  0  0  0  0  0  0  0  0
    8.8393   -1.5373   19.5930 H   0  0  0  0  0  0  0  0  0  0  0  0
    8.8389   -2.1956   21.3027 H   0  0  0  0  0  0  0  0  0  0  0  0
    5.4966    0.7383   20.1146 C   0  0  0  0  0  0  0  0  0  0  0  0
    5.0534    0.6646   21.1089 H   0  0  0  0  0  0  0  0  0  0  0  0
    8.3272    0.0522   18.3622 H   0  0  0  0  0  0  0  0  0  0  0  0
    4.9210    1.8619   16.9578 H   0  0  0  0  0  0  0  0  0  0  0  0
    3.8404    1.7855   19.2043 H   0  0  0  0  0  0  0  0  0  0  0  0
  1  2  2  0
  2  3  1  0
  3  4  2  0
  4  5  1  0
  5  6  1  0
  6  7  1  0
  7  8  2  0
  8  9  1  0
  9 10  1  0
 10 11  1  0
 11 12  1  0
 12 13  1  0
 13 14  1  0
 14 15  1  0
 15 16  1  0
 16 17  1  0
 17 18  1  0
 18 19  1  0
 19 20  1  0
 19 21  1  0
 17 22  1  0
 17 23  1  0
 16 24  1  0
 16 25  1  0
 15 26  1  0
 14 27  1  0
 14 28  1  0
 13 29  1  0
 13 30  1  0
 12 31  1  0
 12 32  1  0
 11 33  1  0
 10 34  2  0
  6 35  1  0
 35 36  1  0
 36 37  1  0
 36 38  1  0
 35 39  1  0
 35 40  1  0
  5 41  2  0
 41 42  1  0
  4 43  1  0
  2 44  1  0
  1 45  1  0
 41  1  1  0
 36  6  1  0
 34  7  1  0
 26 11  1  0
 19 15  1  0
M  END
>  <cnnaffinity>  (1) 
4.84114

>  <plip>  (1) 
-0.10714285714285714

>  <filename>  (1) 
[H][c]1[n][c]([H])[c]([C]2([c]3[n][o][c]([C]4([H])[O][C]5([C]([H])([H])[O][C]([H])([H])[C]5([H])[H])[C]([H])([H])[C]([H])([H])[C]4([H])[H])[n]3)[C]([H])([H])[C]2([H])[H])[c]([H])[c]1[H]

>  <combo1>  (1) 
-0.5281194473244181

$$$$
