
     RDKit          3D

 39 41  0  0  0  0  0  0  0  0999 V2000
    7.5843   -2.3006   20.9744 C   0  0  0  0  0  0  0  0  0  0  0  0
    7.8445   -2.2763   20.8744 C   0  0  0  0  0  0  0  0  0  0  0  0
    5.5075   -2.4485   21.7383 C   0  0  0  0  0  0  0  0  0  0  0  0
    5.1810   -3.4559   21.8491 H   0  0  0  0  0  0  0  0  0  0  0  0
    5.8825   -1.8769   22.5577 H   0  0  0  0  0  0  0  0  0  0  0  0
    5.2754   -1.8663   20.8757 H   0  0  0  0  0  0  0  0  0  0  0  0
    7.5267   -0.7622   20.8920 N   0  0  0  0  0  0  0  0  0  0  0  0
    8.4055    0.1415   21.6100 C   0  0  0  0  0  0  0  0  0  0  0  0
    9.0169    1.0250   21.0411 O   0  0  0  0  0  0  0  0  0  0  0  0
    8.5469    0.0351   23.1598 C   0  0  0  0  0  0  0  0  0  0  0  0
    9.6800   -0.9070   23.7119 C   0  0  0  0  0  0  0  0  0  0  0  0
    8.8837   -1.8664   24.5751 C   0  0  0  0  0  0  0  0  0  0  0  0
    9.2601   -2.9529   25.3749 C   0  0  0  0  0  0  0  0  0  0  0  0
    8.3024   -3.5663   26.2021 C   0  0  0  0  0  0  0  0  0  0  0  0
    6.9798   -3.0974   26.2320 C   0  0  0  0  0  0  0  0  0  0  0  0
    6.5864   -2.0255   25.4209 C   0  0  0  0  0  0  0  0  0  0  0  0
    7.5537   -1.4478   24.5994 C   0  0  0  0  0  0  0  0  0  0  0  0
    7.3077   -0.3953   23.7657 O   0  0  0  0  0  0  0  0  0  0  0  0
    5.5701   -1.6418   25.3963 H   0  0  0  0  0  0  0  0  0  0  0  0
    6.2485   -3.5716   26.8848 H   0  0  0  0  0  0  0  0  0  0  0  0
    8.5904   -4.4073   26.8293 H   0  0  0  0  0  0  0  0  0  0  0  0
   10.2803   -3.3310   25.3561 H   0  0  0  0  0  0  0  0  0  0  0  0
   10.3909   -0.3254   24.3189 H   0  0  0  0  0  0  0  0  0  0  0  0
   10.2856   -1.4104   22.9444 H   0  0  0  0  0  0  0  0  0  0  0  0
    8.7106    1.0689   23.4648 H   0  0  0  0  0  0  0  0  0  0  0  0
    6.7589   -0.1062   19.7865 C   0  0  0  0  0  0  0  0  0  0  0  0
    5.5592    0.5312   20.1139 C   0  0  0  0  0  0  0  0  0  0  0  0
    4.8586    1.2435   19.1269 C   0  0  0  0  0  0  0  0  0  0  0  0
    5.3994    1.3070   17.8425 C   0  0  0  0  0  0  0  0  0  0  0  0
    6.5624    0.7279   17.5057 N   0  0  0  0  0  0  0  0  0  0  0  0
    7.2344    0.0671   18.4572 C   0  0  0  0  0  0  0  0  0  0  0  0
    8.2015   -0.3388   18.1551 H   0  0  0  0  0  0  0  0  0  0  0  0
    4.8946    1.8593   17.0517 H   0  0  0  0  0  0  0  0  0  0  0  0
    3.9254    1.7455   19.3508 H   0  0  0  0  0  0  0  0  0  0  0  0
    5.1866    0.4475   21.1364 H   0  0  0  0  0  0  0  0  0  0  0  0
    7.9104   -2.2765   22.1525 H   0  0  0  0  0  0  0  0  0  0  0  0
    7.0590   -2.5409   19.8993 H   0  0  0  0  0  0  0  0  0  0  0  0
    9.3767   -2.3152   20.3583 H   0  0  0  0  0  0  0  0  0  0  0  0
    7.5237   -3.5243   20.9901 H   0  0  0  0  0  0  0  0  0  0  0  0
  1  2  1  0
  2  3  1  0
  3  4  1  0
  3  5  1  0
  3  6  1  0
  2  7  1  0
  7  8  1  0
  8  9  2  0
  8 10  1  0
 10 11  1  0
 11 12  1  0
 12 13  2  0
 13 14  1  0
 14 15  2  0
 15 16  1  0
 16 17  2  0
 17 18  1  0
 16 19  1  0
 15 20  1  0
 14 21  1  0
 13 22  1  0
 11 23  1  0
 11 24  1  0
 10 25  1  0
  7 26  1  0
 26 27  2  0
 27 28  1  0
 28 29  2  0
 29 30  1  0
 30 31  2  0
 31 32  1  0
 29 33  1  0
 28 34  1  0
 27 35  1  0
  2 36  1  0
  1 37  1  0
  1 38  1  0
  1 39  1  0
 18 10  1  0
 31 26  1  0
 17 12  1  0
M  END
>  <cnnaffinity>  (1) 
4.80579

>  <plip>  (1) 
-0.034482758620689655

>  <filename>  (1) 
[H][c]1[n][c]([H])[c]([N]([C](=[O])[C]2([H])[O][c]3[c]([H])[c]([H])[c]([H])[c]([H])[c]3[C]2([H])[H])[C]([H])([C]([H])([H])[H])[C]([H])([H])[H])[c]([H])[c]1[H]

>  <combo1>  (1) 
-0.19564489120410777

$$$$
