
     RDKit          3D

 33 35  0  0  0  0  0  0  0  0999 V2000
    8.6834   -4.0723   27.4562 C   0  0  0  0  0  0  0  0  0  0  0  0
    8.2194   -4.2149   26.0935 N   0  0  0  0  0  0  0  0  0  0  0  0
    7.9971   -5.4192   25.4338 C   0  0  0  0  0  0  0  0  0  0  0  0
    8.1435   -6.5194   25.9189 O   0  0  0  0  0  0  0  0  0  0  0  0
    7.5405   -5.0899   24.0198 C   0  0  0  0  0  0  0  0  0  0  0  0
    7.5818   -3.6020   23.9984 C   0  0  0  0  0  0  0  0  0  0  0  0
    7.3255   -2.7358   22.9622 C   0  0  0  0  0  0  0  0  0  0  0  0
    7.4305   -1.3589   23.1962 C   0  0  0  0  0  0  0  0  0  0  0  0
    7.1456   -0.4544   22.1482 N   0  0  0  0  0  0  0  0  0  0  0  0
    7.4138   -0.6841   20.8252 C   0  0  0  0  0  0  0  0  0  0  0  0
    8.2149   -1.5196   20.4513 O   0  0  0  0  0  0  0  0  0  0  0  0
    6.6559    0.1449   19.8467 C   0  0  0  0  0  0  0  0  0  0  0  0
    5.4317    0.7903   20.0813 C   0  0  0  0  0  0  0  0  0  0  0  0
    4.8070    1.4228   19.0083 C   0  0  0  0  0  0  0  0  0  0  0  0
    5.4284    1.3949   17.7530 C   0  0  0  0  0  0  0  0  0  0  0  0
    6.5858    0.7607   17.5144 N   0  0  0  0  0  0  0  0  0  0  0  0
    7.1773    0.1539   18.5445 C   0  0  0  0  0  0  0  0  0  0  0  0
    8.1137   -0.3535   18.3185 H   0  0  0  0  0  0  0  0  0  0  0  0
    4.9703    1.8934   16.9013 H   0  0  0  0  0  0  0  0  0  0  0  0
    3.8668    1.9507   19.1357 H   0  0  0  0  0  0  0  0  0  0  0  0
    4.9528    0.7816   21.0658 H   0  0  0  0  0  0  0  0  0  0  0  0
    6.6399    0.3805   22.3721 H   0  0  0  0  0  0  0  0  0  0  0  0
    7.7921   -0.8682   24.4635 C   0  0  0  0  0  0  0  0  0  0  0  0
    8.0919   -1.7529   25.5120 C   0  0  0  0  0  0  0  0  0  0  0  0
    7.9861   -3.1273   25.2557 C   0  0  0  0  0  0  0  0  0  0  0  0
    8.4040   -1.3882   26.4894 H   0  0  0  0  0  0  0  0  0  0  0  0
    7.8700    0.2089   24.5963 H   0  0  0  0  0  0  0  0  0  0  0  0
    7.0659   -3.0944   21.9732 H   0  0  0  0  0  0  0  0  0  0  0  0
    6.5380   -5.4905   23.8568 H   0  0  0  0  0  0  0  0  0  0  0  0
    8.2145   -5.5608   23.3019 H   0  0  0  0  0  0  0  0  0  0  0  0
    9.7526   -3.8260   27.4872 H   0  0  0  0  0  0  0  0  0  0  0  0
    8.5165   -4.9980   28.0061 H   0  0  0  0  0  0  0  0  0  0  0  0
    8.1173   -3.2637   27.9311 H   0  0  0  0  0  0  0  0  0  0  0  0
  1  2  1  0
  2  3  1  0
  3  4  2  0
  3  5  1  0
  5  6  1  0
  6  7  2  0
  7  8  1  0
  8  9  1  0
  9 10  1  0
 10 11  2  0
 10 12  1  0
 12 13  2  0
 13 14  1  0
 14 15  2  0
 15 16  1  0
 16 17  2  0
 17 18  1  0
 15 19  1  0
 14 20  1  0
 13 21  1  0
  9 22  1  0
  8 23  2  0
 23 24  1  0
 24 25  2  0
 24 26  1  0
 23 27  1  0
  7 28  1  0
  5 29  1  0
  5 30  1  0
  1 31  1  0
  1 32  1  0
  1 33  1  0
 25  2  1  0
 25  6  1  0
 17 12  1  0
M  END
>  <cnnaffinity>  (1) 
4.65877

>  <plip>  (1) 
-0.07142857142857142

>  <filename>  (1) 
[H][c]1[n][c]([H])[c]([C](=[O])[N]([H])[c]2[c]([H])[c]([H])[c]3[c]([c]2[H])[C]([H])([H])[C](=[O])[N]3[C]([H])([H])[H])[c]([H])[c]1[H]

>  <combo1>  (1) 
-0.4149946695627759

$$$$
