
     RDKit          3D

 35 36  0  0  0  0  0  0  0  0999 V2000
    4.9130    1.7870   16.9900 H   0  0  0  0  0  0  0  0  0  0  0  0
    5.3956    1.2978   17.8332 C   0  0  0  0  0  0  0  0  0  0  0  0
    6.5595    0.6848   17.5726 N   0  0  0  0  0  0  0  0  0  0  0  0
    7.1579    0.0562   18.5931 C   0  0  0  0  0  0  0  0  0  0  0  0
    8.1170   -0.4178   18.3790 H   0  0  0  0  0  0  0  0  0  0  0  0
    6.6333   -0.0162   19.8935 C   0  0  0  0  0  0  0  0  0  0  0  0
    7.3891   -0.7059   21.0158 C   0  0  0  0  0  0  0  0  0  0  0  0
    7.9692   -1.5474   20.6236 H   0  0  0  0  0  0  0  0  0  0  0  0
    6.6692   -1.1071   21.7488 H   0  0  0  0  0  0  0  0  0  0  0  0
    8.3472    0.2867   21.6677 C   0  0  0  0  0  0  0  0  0  0  0  0
    9.8532    0.4908   21.0836 S   0  0  0  0  0  0  0  0  0  0  0  0
    7.8423    1.1168   22.8254 C   0  0  0  0  0  0  0  0  0  0  0  0
    6.7459    1.0462   22.9253 H   0  0  0  0  0  0  0  0  0  0  0  0
    8.0692    2.1682   22.6138 H   0  0  0  0  0  0  0  0  0  0  0  0
    8.4912    0.7215   24.1693 C   0  0  0  0  0  0  0  0  0  0  0  0
    9.5853    0.7736   24.0493 H   0  0  0  0  0  0  0  0  0  0  0  0
    8.1038    1.7201   25.2738 C   0  0  0  0  0  0  0  0  0  0  0  0
    7.0086    1.7550   25.3561 H   0  0  0  0  0  0  0  0  0  0  0  0
    8.4298    2.7320   24.9937 H   0  0  0  0  0  0  0  0  0  0  0  0
    8.7012    1.3362   26.6296 C   0  0  0  0  0  0  0  0  0  0  0  0
    9.7936    1.4131   26.5389 H   0  0  0  0  0  0  0  0  0  0  0  0
    8.3828    2.0452   27.4048 H   0  0  0  0  0  0  0  0  0  0  0  0
    8.3332   -0.0978   27.0326 C   0  0  0  0  0  0  0  0  0  0  0  0
    7.2476   -0.1523   27.1971 H   0  0  0  0  0  0  0  0  0  0  0  0
    8.8082   -0.3635   27.9853 H   0  0  0  0  0  0  0  0  0  0  0  0
    8.7244   -1.1023   25.9410 C   0  0  0  0  0  0  0  0  0  0  0  0
    9.8192   -1.1298   25.8536 H   0  0  0  0  0  0  0  0  0  0  0  0
    8.4071   -2.1145   26.2200 H   0  0  0  0  0  0  0  0  0  0  0  0
    8.1312   -0.7172   24.5802 C   0  0  0  0  0  0  0  0  0  0  0  0
    7.0352   -0.8046   24.6275 H   0  0  0  0  0  0  0  0  0  0  0  0
    8.4642   -1.4224   23.8069 H   0  0  0  0  0  0  0  0  0  0  0  0
    5.4328    0.6511   20.1483 C   0  0  0  0  0  0  0  0  0  0  0  0
    5.0065    0.6368   21.1548 H   0  0  0  0  0  0  0  0  0  0  0  0
    4.7990    1.3202   19.0968 C   0  0  0  0  0  0  0  0  0  0  0  0
    3.8680    1.8498   19.2521 H   0  0  0  0  0  0  0  0  0  0  0  0
  1  2  1  0
  2  3  2  0
  3  4  1  0
  4  5  1  0
  4  6  2  0
  6  7  1  0
  7  8  1  0
  7  9  1  0
  7 10  1  0
 10 11  2  0
 10 12  1  0
 12 13  1  0
 12 14  1  0
 12 15  1  0
 15 16  1  0
 15 17  1  0
 17 18  1  0
 17 19  1  0
 17 20  1  0
 20 21  1  0
 20 22  1  0
 20 23  1  0
 23 24  1  0
 23 25  1  0
 23 26  1  0
 26 27  1  0
 26 28  1  0
 26 29  1  0
 29 30  1  0
 29 31  1  0
  6 32  1  0
 32 33  1  0
 32 34  2  0
 34 35  1  0
 34  2  1  0
 29 15  1  0
M  END
>  <cnnaffinity>  (1) 
4.82954

>  <plip>  (1) 
-0.07142857142857142

>  <filename>  (1) 
[H][c]1[n][c]([H])[c]([C]([H])([H])[C](=[S])[C]([H])([H])[C]2([H])[C]([H])([H])[C]([H])([H])[C]([H])([H])[C]([H])([H])[C]2([H])[H])[c]([H])[c]1[H]

>  <combo1>  (1) 
-0.49271166174928266

$$$$
