
     RDKit          3D

 22 23  0  0  0  0  0  0  0  0999 V2000
    9.0819   -2.4670   26.0059 H   0  0  0  0  0  0  0  0  0  0  0  0
    8.9654   -2.3382   24.9351 C   0  0  0  0  0  0  0  0  0  0  0  0
    9.5709   -2.9333   23.9061 C   0  0  0  0  0  0  0  0  0  0  0  0
   10.3349   -3.6987   23.8508 H   0  0  0  0  0  0  0  0  0  0  0  0
    9.0252   -2.3830   22.6341 C   0  0  0  0  0  0  0  0  0  0  0  0
    9.3191   -2.6899   21.5158 O   0  0  0  0  0  0  0  0  0  0  0  0
    8.0708   -1.4236   23.0123 N   0  0  0  0  0  0  0  0  0  0  0  0
    7.3075   -0.6514   22.1705 C   0  0  0  0  0  0  0  0  0  0  0  0
    6.6573    0.0211   22.7354 H   0  0  0  0  0  0  0  0  0  0  0  0
    7.4224   -0.7618   20.9169 N   0  0  0  0  0  0  0  0  0  0  0  0
    6.6766   -0.0098   19.9750 C   0  0  0  0  0  0  0  0  0  0  0  0
    7.1869    0.0438   18.6481 C   0  0  0  0  0  0  0  0  0  0  0  0
    8.1329   -0.4515   18.4300 H   0  0  0  0  0  0  0  0  0  0  0  0
    6.5854    0.6573   17.6238 N   0  0  0  0  0  0  0  0  0  0  0  0
    5.4164    1.2772   17.8714 C   0  0  0  0  0  0  0  0  0  0  0  0
    4.9510    1.7732   17.0212 H   0  0  0  0  0  0  0  0  0  0  0  0
    4.8298    1.2927   19.1347 C   0  0  0  0  0  0  0  0  0  0  0  0
    3.8971    1.8172   19.2739 H   0  0  0  0  0  0  0  0  0  0  0  0
    5.4574    0.6387   20.2061 C   0  0  0  0  0  0  0  0  0  0  0  0
    4.9887    0.6260   21.1850 H   0  0  0  0  0  0  0  0  0  0  0  0
    7.9804   -1.3456   24.4014 C   0  0  0  0  0  0  0  0  0  0  0  0
    7.2477   -0.6150   25.0152 O   0  0  0  0  0  0  0  0  0  0  0  0
  1  2  1  0
  2  3  2  0
  3  4  1  0
  3  5  1  0
  5  6  2  0
  5  7  1  0
  7  8  1  0
  8  9  1  0
  8 10  2  3
 10 11  1  0
 11 12  2  0
 12 13  1  0
 12 14  1  0
 14 15  2  0
 15 16  1  0
 15 17  1  0
 17 18  1  0
 17 19  2  0
 19 20  1  0
  7 21  1  0
 21 22  2  0
 21  2  1  0
 19 11  1  0
M  END
>  <cnnaffinity>  (1) 
4.49089

>  <plip>  (1) 
-0.03571428571428571

>  <filename>  (1) 
[H][C](=[N][c]1[c]([H])[n][c]([H])[c]([H])[c]1[H])[N]1[C](=[O])[C]([H])=[C]([H])[C]1=[O]

>  <combo1>  (1) 
-0.2657403692644889

$$$$
