
     RDKit          3D

 34 37  0  0  0  0  0  0  0  0999 V2000
    4.9203    1.8788   16.9826 H   0  0  0  0  0  0  0  0  0  0  0  0
    5.3953    1.3353   17.7963 C   0  0  0  0  0  0  0  0  0  0  0  0
    6.5471    0.7090   17.5050 N   0  0  0  0  0  0  0  0  0  0  0  0
    7.1600    0.0397   18.4971 C   0  0  0  0  0  0  0  0  0  0  0  0
    8.0799   -0.4778   18.2294 H   0  0  0  0  0  0  0  0  0  0  0  0
    6.6699   -0.0432   19.8259 C   0  0  0  0  0  0  0  0  0  0  0  0
    7.2870   -0.7758   20.8621 N   0  0  0  0  0  0  0  0  0  0  0  0
    6.7087   -0.8223   21.6972 H   0  0  0  0  0  0  0  0  0  0  0  0
    8.6785   -0.7903   21.1399 C   0  0  0  0  0  0  0  0  0  0  0  0
    9.6914    0.1319   20.7842 C   0  0  0  0  0  0  0  0  0  0  0  0
    9.5572    1.0446   20.2257 H   0  0  0  0  0  0  0  0  0  0  0  0
   10.8861   -0.2318   21.2360 N   0  0  0  0  0  0  0  0  0  0  0  0
   10.6502   -1.3760   21.9024 N   0  0  0  0  0  0  0  0  0  0  0  0
   11.4295   -1.9504   22.1954 H   0  0  0  0  0  0  0  0  0  0  0  0
    9.3396   -1.7629   21.8806 C   0  0  0  0  0  0  0  0  0  0  0  0
    8.8045   -2.9611   22.4796 C   0  0  0  0  0  0  0  0  0  0  0  0
    7.7379   -3.6601   21.9789 C   0  0  0  0  0  0  0  0  0  0  0  0
    7.2309   -3.4675   21.0416 H   0  0  0  0  0  0  0  0  0  0  0  0
    7.4413   -4.7160   22.7962 N   0  0  0  0  0  0  0  0  0  0  0  0
    6.7501   -5.4242   22.6286 H   0  0  0  0  0  0  0  0  0  0  0  0
    8.3384   -4.7435   23.8378 C   0  0  0  0  0  0  0  0  0  0  0  0
    8.4467   -5.6523   24.9051 C   0  0  0  0  0  0  0  0  0  0  0  0
    7.6789   -6.3952   25.0945 H   0  0  0  0  0  0  0  0  0  0  0  0
    9.5350   -5.5188   25.7571 C   0  0  0  0  0  0  0  0  0  0  0  0
    9.6970   -6.2438   26.5533 H   0  0  0  0  0  0  0  0  0  0  0  0
   10.4471   -4.4490   25.6029 C   0  0  0  0  0  0  0  0  0  0  0  0
   11.2791   -4.3815   26.2903 H   0  0  0  0  0  0  0  0  0  0  0  0
   10.2859   -3.5076   24.5950 C   0  0  0  0  0  0  0  0  0  0  0  0
   10.9547   -2.6575   24.5382 H   0  0  0  0  0  0  0  0  0  0  0  0
    9.2307   -3.6620   23.6728 C   0  0  0  0  0  0  0  0  0  0  0  0
    5.4501    0.5983   20.0926 C   0  0  0  0  0  0  0  0  0  0  0  0
    5.0239    0.5477   21.0953 H   0  0  0  0  0  0  0  0  0  0  0  0
    4.8089    1.3010   19.0677 C   0  0  0  0  0  0  0  0  0  0  0  0
    3.8740    1.8268   19.2439 H   0  0  0  0  0  0  0  0  0  0  0  0
  1  2  1  0
  2  3  2  0
  3  4  1  0
  4  5  1  0
  4  6  2  0
  6  7  1  0
  7  8  1  0
  7  9  1  0
  9 10  1  0
 10 11  1  0
 10 12  2  0
 12 13  1  0
 13 14  1  0
 13 15  1  0
 15 16  1  0
 16 17  2  0
 17 18  1  0
 17 19  1  0
 19 20  1  0
 19 21  1  0
 21 22  2  0
 22 23  1  0
 22 24  1  0
 24 25  1  0
 24 26  2  0
 26 27  1  0
 26 28  1  0
 28 29  1  0
 28 30  2  0
  6 31  1  0
 31 32  1  0
 31 33  2  0
 33 34  1  0
 33  2  1  0
 15  9  2  0
 30 16  1  0
 30 21  1  0
M  END
>  <cnnaffinity>  (1) 
5.85338

>  <plip>  (1) 
-0.16666666666666666

>  <filename>  (1) 
[H][c]1[n][c]([H])[c]([N]([H])[c]2[c]([H])[n][n]([H])[c]2-[c]2[c]([H])[n]([H])[c]3[c]([H])[c]([H])[c]([H])[c]([H])[c]23)[c]([H])[c]1[H]

>  <combo1>  (1) 
-1.181148058688331

$$$$
