
     RDKit          3D

 41 43  0  0  0  0  0  0  0  0999 V2000
    6.8550   -3.6110   22.9875 H   0  0  0  0  0  0  0  0  0  0  0  0
    7.1989   -2.6088   22.7410 C   0  0  0  0  0  0  0  0  0  0  0  0
    8.0666   -1.9770   23.5398 C   0  0  0  0  0  0  0  0  0  0  0  0
    8.6194   -2.4593   24.6949 O   0  0  0  0  0  0  0  0  0  0  0  0
    8.3648   -3.8035   25.1198 C   0  0  0  0  0  0  0  0  0  0  0  0
    7.2873   -4.0070   25.0100 H   0  0  0  0  0  0  0  0  0  0  0  0
    8.7411   -3.8951   26.6030 C   0  0  0  0  0  0  0  0  0  0  0  0
    8.1040   -3.2290   27.1955 H   0  0  0  0  0  0  0  0  0  0  0  0
    9.7746   -3.5368   26.7066 H   0  0  0  0  0  0  0  0  0  0  0  0
    8.6559   -5.3462   27.1072 C   0  0  0  0  0  0  0  0  0  0  0  0
    9.0100   -5.4351   28.1412 H   0  0  0  0  0  0  0  0  0  0  0  0
    7.6103   -5.7007   27.1030 H   0  0  0  0  0  0  0  0  0  0  0  0
    9.4398   -6.2621   26.2846 N   0  0  0  0  0  0  0  0  0  0  0  0
   10.4258   -6.0263   26.3862 H   0  0  0  0  0  0  0  0  0  0  0  0
    9.0772   -6.2025   24.8766 C   0  0  0  0  0  0  0  0  0  0  0  0
    8.0377   -6.5497   24.7963 H   0  0  0  0  0  0  0  0  0  0  0  0
    9.7114   -6.9110   24.3337 H   0  0  0  0  0  0  0  0  0  0  0  0
    9.1849   -4.7971   24.2826 C   0  0  0  0  0  0  0  0  0  0  0  0
   10.2338   -4.4696   24.2931 H   0  0  0  0  0  0  0  0  0  0  0  0
    8.8545   -4.7910   23.2378 H   0  0  0  0  0  0  0  0  0  0  0  0
    8.6117   -0.5972   23.2290 C   0  0  0  0  0  0  0  0  0  0  0  0
    8.7270   -0.0498   24.1706 H   0  0  0  0  0  0  0  0  0  0  0  0
    9.6346   -0.7386   22.8440 H   0  0  0  0  0  0  0  0  0  0  0  0
    7.7630    0.1715   22.1933 C   0  0  0  0  0  0  0  0  0  0  0  0
    8.2933    1.0636   21.8385 H   0  0  0  0  0  0  0  0  0  0  0  0
    6.8261    0.5303   22.6485 H   0  0  0  0  0  0  0  0  0  0  0  0
    7.4171   -0.7403   20.9945 C   0  0  2  0  0  0  0  0  0  0  0  0
    8.3712   -1.0977   20.5738 H   0  0  0  0  0  0  0  0  0  0  0  0
    6.6675    0.0010   19.8945 C   0  0  0  0  0  0  0  0  0  0  0  0
    7.1618    0.0648   18.5769 C   0  0  0  0  0  0  0  0  0  0  0  0
    8.1102   -0.4129   18.3347 H   0  0  0  0  0  0  0  0  0  0  0  0
    6.5523    0.6813   17.5572 N   0  0  0  0  0  0  0  0  0  0  0  0
    5.3927    1.3010   17.8164 C   0  0  0  0  0  0  0  0  0  0  0  0
    4.9193    1.8086   16.9766 H   0  0  0  0  0  0  0  0  0  0  0  0
    4.8027    1.3148   19.0845 C   0  0  0  0  0  0  0  0  0  0  0  0
    3.8685    1.8442   19.2375 H   0  0  0  0  0  0  0  0  0  0  0  0
    5.4474    0.6543   20.1368 C   0  0  0  0  0  0  0  0  0  0  0  0
    5.0045    0.6512   21.1343 H   0  0  0  0  0  0  0  0  0  0  0  0
    6.6224   -1.9728   21.4943 C   0  0  0  0  0  0  0  0  0  0  0  0
    5.5847   -1.6662   21.6895 H   0  0  0  0  0  0  0  0  0  0  0  0
    6.5398   -2.7170   20.6927 H   0  0  0  0  0  0  0  0  0  0  0  0
  1  2  1  0
  2  3  2  0
  3  4  1  0
  4  5  1  0
  5  6  1  0
  5  7  1  0
  7  8  1  0
  7  9  1  0
  7 10  1  0
 10 11  1  0
 10 12  1  0
 10 13  1  0
 13 14  1  0
 13 15  1  0
 15 16  1  0
 15 17  1  0
 15 18  1  0
 18 19  1  0
 18 20  1  0
  3 21  1  0
 21 22  1  0
 21 23  1  0
 21 24  1  0
 24 25  1  0
 24 26  1  0
 24 27  1  0
 27 28  1  6
 27 29  1  0
 29 30  2  0
 30 31  1  0
 30 32  1  0
 32 33  2  0
 33 34  1  0
 33 35  1  0
 35 36  1  0
 35 37  2  0
 37 38  1  0
 27 39  1  0
 39 40  1  0
 39 41  1  0
 39  2  1  0
 18  5  1  0
 37 29  1  0
M  END
>  <cnnaffinity>  (1) 
4.80921

>  <plip>  (1) 
-0.10714285714285714

>  <filename>  (1) 
[H][C]1=[C]([O][C]2([H])[C]([H])([H])[C]([H])([H])[N]([H])[C]([H])([H])[C]2([H])[H])[C]([H])([H])[C]([H])([H])[C@]([H])([c]2[c]([H])[n][c]([H])[c]([H])[c]2[H])[C]1([H])[H]

>  <combo1>  (1) 
-0.6647862520078185

$$$$
