
     RDKit          3D

 32 34  0  0  0  0  0  0  0  0999 V2000
    9.4465    0.8028   20.7637 O   0  0  0  0  0  0  0  0  0  0  0  0
    8.4677    0.5282   21.4490 C   0  0  0  0  0  0  0  0  0  0  0  0
    7.4481   -0.5091   21.0024 C   0  0  0  0  0  0  0  0  0  0  0  0
    6.6140    0.0199   19.8452 C   0  0  0  0  0  0  0  0  0  0  0  0
    5.4152    0.7010   20.0750 C   0  0  0  0  0  0  0  0  0  0  0  0
    4.7942    1.3553   19.0077 C   0  0  0  0  0  0  0  0  0  0  0  0
    5.3876    1.2797   17.7422 C   0  0  0  0  0  0  0  0  0  0  0  0
    6.5113    0.5908   17.4905 N   0  0  0  0  0  0  0  0  0  0  0  0
    7.0996   -0.0183   18.5253 C   0  0  0  0  0  0  0  0  0  0  0  0
    8.0204   -0.5631   18.3162 H   0  0  0  0  0  0  0  0  0  0  0  0
    4.9345    1.7849   16.8894 H   0  0  0  0  0  0  0  0  0  0  0  0
    3.8798    1.9246   19.1428 H   0  0  0  0  0  0  0  0  0  0  0  0
    4.9660    0.7047   21.0712 H   0  0  0  0  0  0  0  0  0  0  0  0
    8.0355   -1.3745   20.6835 H   0  0  0  0  0  0  0  0  0  0  0  0
    6.8029   -0.8161   21.8338 H   0  0  0  0  0  0  0  0  0  0  0  0
    8.2084    1.1690   22.6546 N   0  0  0  0  0  0  0  0  0  0  0  0
    8.8810    2.2538   23.1828 C   0  0  0  0  0  0  0  0  0  0  0  0
    9.9134    2.7601   22.5429 N   0  0  0  0  0  4  0  0  0  0  0  0
   10.6490    3.9401   22.9430 C   0  0  0  0  0  0  0  0  0  0  0  0
   11.8599    4.2990   22.3481 C   0  0  0  0  0  0  0  0  0  0  0  0
   12.5488    5.3902   22.6898 N   0  0  0  0  0  0  0  0  0  0  0  0
   12.0284    6.1508   23.6534 C   0  0  0  0  0  0  0  0  0  0  0  0
   10.9016    5.9111   24.3124 N   0  0  0  0  0  0  0  0  0  0  0  0
   10.2318    4.8100   23.9808 C   0  0  0  0  0  0  0  0  0  0  0  0
    8.7790    4.4735   24.9483 S   0  0  0  0  0  0  0  0  0  0  0  0
    8.3999    2.7111   24.4904 C   0  0  0  0  0  0  0  0  0  0  0  0
    7.3041    2.5944   24.5416 H   0  0  0  0  0  0  0  0  0  0  0  0
    8.8096    2.0561   25.2765 H   0  0  0  0  0  0  0  0  0  0  0  0
   12.5650    7.0596   23.9403 H   0  0  0  0  0  0  0  0  0  0  0  0
   12.2996    3.6704   21.5677 H   0  0  0  0  0  0  0  0  0  0  0  0
   10.1077    2.2144   21.6655 H   0  0  0  0  0  0  0  0  0  0  0  0
    7.3486    0.9416   23.1430 H   0  0  0  0  0  0  0  0  0  0  0  0
  1  2  2  0
  2  3  1  0
  3  4  1  0
  4  5  2  0
  5  6  1  0
  6  7  2  0
  7  8  1  0
  8  9  2  0
  9 10  1  0
  7 11  1  0
  6 12  1  0
  5 13  1  0
  3 14  1  0
  3 15  1  0
  2 16  1  0
 16 17  1  0
 17 18  2  0
 18 19  1  0
 19 20  2  0
 20 21  1  0
 21 22  2  0
 22 23  1  0
 23 24  2  0
 24 25  1  0
 25 26  1  0
 26 27  1  0
 26 28  1  0
 22 29  1  0
 20 30  1  0
 18 31  1  0
 16 32  1  0
  9  4  1  0
 26 17  1  0
 24 19  1  0
M  CHG  1  18   1
M  END
>  <cnnaffinity>  (1) 
4.74153

>  <plip>  (1) 
-0.10714285714285714

>  <filename>  (1) 
[H][c]1[n][c]([H])[c]2[c]([n]1)[S][C]([H])([H])[C]([N]([H])[C](=[O])[C]([H])([H])[c]1[c]([H])[n][c]([H])[c]([H])[c]1[H])=[N+]2[H]

>  <combo1>  (1) 
-0.5913960925572999

$$$$
