
     RDKit          3D

 35 37  0  0  0  0  0  0  0  0999 V2000
    6.8343    1.2669   22.5864 O   0  0  0  0  0  0  0  0  0  0  0  0
    7.2212    0.1417   22.3263 C   0  0  0  0  0  0  0  0  0  0  0  0
    7.2158   -0.4041   21.0558 N   0  0  0  0  0  0  0  0  0  0  0  0
    6.6246    0.1462   19.8915 C   0  0  0  0  0  0  0  0  0  0  0  0
    5.4424    0.8924   19.9593 C   0  0  0  0  0  0  0  0  0  0  0  0
    4.9229    1.4308   18.7757 C   0  0  0  0  0  0  0  0  0  0  0  0
    5.5928    1.1953   17.5710 C   0  0  0  0  0  0  0  0  0  0  0  0
    6.7166    0.4636   17.4844 N   0  0  0  0  0  0  0  0  0  0  0  0
    7.2107   -0.0470   18.6200 C   0  0  0  0  0  0  0  0  0  0  0  0
    8.1291   -0.6314   18.5457 H   0  0  0  0  0  0  0  0  0  0  0  0
    5.2256    1.6123   16.6371 H   0  0  0  0  0  0  0  0  0  0  0  0
    4.0285    2.0463   18.7803 H   0  0  0  0  0  0  0  0  0  0  0  0
    4.9647    1.0507   20.9232 H   0  0  0  0  0  0  0  0  0  0  0  0
    7.7069   -1.2883   20.9805 H   0  0  0  0  0  0  0  0  0  0  0  0
    7.7617   -0.7816   23.4242 C   0  0  0  0  0  0  0  0  0  0  0  0
    7.9693   -2.0205   23.1166 N   0  0  0  0  0  0  0  0  0  0  0  0
    8.3051   -2.9287   24.1206 N   0  0  0  0  0  0  0  0  0  0  0  0
    8.2830   -4.2974   23.7826 C   0  0  0  0  0  0  0  0  0  0  0  0
    7.4229   -4.7128   22.7536 C   0  0  0  0  0  0  0  0  0  0  0  0
    7.4700   -6.0361   22.3361 C   0  0  0  0  0  0  0  0  0  0  0  0
    8.3875   -6.8873   22.9642 C   0  0  0  0  0  0  0  0  0  0  0  0
    9.1514   -6.3779   24.0225 C   0  0  0  0  0  0  0  0  0  0  0  0
    9.1185   -5.1075   24.4315 N   0  0  0  0  0  0  0  0  0  0  0  0
    9.8724   -7.0138   24.5332 H   0  0  0  0  0  0  0  0  0  0  0  0
    8.4988   -7.9230   22.6499 H   0  0  0  0  0  0  0  0  0  0  0  0
    6.8212   -6.3985   21.5367 H   0  0  0  0  0  0  0  0  0  0  0  0
    6.7909   -3.9439   22.3277 H   0  0  0  0  0  0  0  0  0  0  0  0
    8.5528   -2.5791   25.4666 C   0  0  0  0  0  0  0  0  0  0  0  0
    8.3984   -3.3189   26.4054 O   0  0  0  0  0  0  0  0  0  0  0  0
    8.9983   -1.1309   25.5697 C   0  0  0  0  0  0  0  0  0  0  0  0
    7.9994   -0.2323   24.8203 C   0  0  0  0  0  0  0  0  0  0  0  0
    8.3368    0.8103   24.7652 H   0  0  0  0  0  0  0  0  0  0  0  0
    7.0359   -0.2187   25.3573 H   0  0  0  0  0  0  0  0  0  0  0  0
    9.0815   -0.8834   26.6251 H   0  0  0  0  0  0  0  0  0  0  0  0
   10.0050   -1.0626   25.1346 H   0  0  0  0  0  0  0  0  0  0  0  0
  1  2  2  0
  2  3  1  0
  3  4  1  0
  4  5  2  0
  5  6  1  0
  6  7  2  0
  7  8  1  0
  8  9  2  0
  9 10  1  0
  7 11  1  0
  6 12  1  0
  5 13  1  0
  3 14  1  0
  2 15  1  0
 15 16  2  0
 16 17  1  0
 17 18  1  0
 18 19  2  0
 19 20  1  0
 20 21  2  0
 21 22  1  0
 22 23  2  0
 22 24  1  0
 21 25  1  0
 20 26  1  0
 19 27  1  0
 17 28  1  0
 28 29  2  0
 28 30  1  0
 30 31  1  0
 31 32  1  0
 31 33  1  0
 30 34  1  0
 30 35  1  0
  9  4  1  0
 31 15  1  0
 23 18  1  0
M  END
>  <cnnaffinity>  (1) 
5.39337

>  <plip>  (1) 
-0.06896551724137931

>  <filename>  (1) 
[H][c]1[n][c]([N]2[N]=[C]([C](=[O])[N]([H])[c]3[c]([H])[n][c]([H])[c]([H])[c]3[H])[C]([H])([H])[C]([H])([H])[C]2=[O])[c]([H])[c]([H])[c]1[H]

>  <combo1>  (1) 
-0.41986006610649207

$$$$
