
     RDKit          3D

 35 36  0  0  0  0  0  0  0  0999 V2000
    4.8195    1.6970   16.6300 H   0  0  0  0  0  0  0  0  0  0  0  0
    5.1715    1.1323   17.4890 C   0  0  0  0  0  0  0  0  0  0  0  0
    6.3162    0.4509   17.3099 N   0  0  0  0  0  0  0  0  0  0  0  0
    6.8156   -0.2002   18.3676 C   0  0  0  0  0  0  0  0  0  0  0  0
    7.7623   -0.7220   18.2238 H   0  0  0  0  0  0  0  0  0  0  0  0
    6.1950   -0.2394   19.6326 C   0  0  0  0  0  0  0  0  0  0  0  0
    6.8465   -0.8010   20.7533 N   0  0  0  0  0  0  0  0  0  0  0  0
    8.1770   -0.4398   20.9030 N   0  0  0  0  0  0  0  0  0  0  0  0
    8.8810   -1.1602   20.9271 H   0  0  0  0  0  0  0  0  0  0  0  0
    8.5863    0.8697   21.0272 C   0  0  0  0  0  0  0  0  0  0  0  0
    7.8794    1.8192   20.7364 O   0  0  0  0  0  0  0  0  0  0  0  0
   10.0002    1.0615   21.5248 C   0  0  0  0  0  0  0  0  0  0  0  0
   10.4233    2.3820   21.7999 C   0  0  0  0  0  0  0  0  0  0  0  0
    9.6966    3.1866   21.7392 H   0  0  0  0  0  0  0  0  0  0  0  0
   11.7430    2.6472   22.1610 C   0  0  0  0  0  0  0  0  0  0  0  0
   12.0817    3.6687   22.3273 H   0  0  0  0  0  0  0  0  0  0  0  0
   12.6474    1.5932   22.2796 C   0  0  0  0  0  0  0  0  0  0  0  0
   13.6803    1.8094   22.5321 H   0  0  0  0  0  0  0  0  0  0  0  0
   12.2359    0.2690   22.0502 C   0  0  0  0  0  0  0  0  0  0  0  0
   13.1413   -0.9077   22.2691 C   0  0  0  0  0  0  0  0  0  0  0  0
   12.7869   -2.0439   22.0200 O   0  0  0  0  0  0  0  0  0  0  0  0
   14.4746   -0.6219   22.8937 C   0  0  0  0  0  0  0  0  0  0  0  0
   15.0204   -1.5600   22.9964 H   0  0  0  0  0  0  0  0  0  0  0  0
   14.2992   -0.1413   23.8628 H   0  0  0  0  0  0  0  0  0  0  0  0
   15.0247    0.1113   22.3043 H   0  0  0  0  0  0  0  0  0  0  0  0
   10.9237    0.0161   21.6485 C   0  0  0  0  0  0  0  0  0  0  0  0
   10.6868   -1.0302   21.4445 H   0  0  0  0  0  0  0  0  0  0  0  0
    6.4214   -2.0458   21.3593 C   0  0  0  0  0  0  0  0  0  0  0  0
    5.3293   -2.0620   21.3781 H   0  0  0  0  0  0  0  0  0  0  0  0
    6.7776   -2.0731   22.3969 H   0  0  0  0  0  0  0  0  0  0  0  0
    6.7757   -2.9480   20.8292 H   0  0  0  0  0  0  0  0  0  0  0  0
    4.9782    0.4383   19.7895 C   0  0  0  0  0  0  0  0  0  0  0  0
    4.5102    0.4468   20.7754 H   0  0  0  0  0  0  0  0  0  0  0  0
    4.4650    1.1462   18.6963 C   0  0  0  0  0  0  0  0  0  0  0  0
    3.5554    1.7291   18.7830 H   0  0  0  0  0  0  0  0  0  0  0  0
  1  2  1  0
  2  3  2  0
  3  4  1  0
  4  5  1  0
  4  6  2  0
  6  7  1  0
  7  8  1  0
  8  9  1  0
  8 10  1  0
 10 11  2  0
 10 12  1  0
 12 13  2  0
 13 14  1  0
 13 15  1  0
 15 16  1  0
 15 17  2  0
 17 18  1  0
 17 19  1  0
 19 20  1  0
 20 21  2  0
 20 22  1  0
 22 23  1  0
 22 24  1  0
 22 25  1  0
 19 26  2  0
 26 27  1  0
  7 28  1  0
 28 29  1  0
 28 30  1  0
 28 31  1  0
  6 32  1  0
 32 33  1  0
 32 34  2  0
 34 35  1  0
 34  2  1  0
 26 12  1  0
M  END
>  <cnnaffinity>  (1) 
5.46794

>  <plip>  (1) 
-0.13793103448275862

>  <filename>  (1) 
[H][c]1[n][c]([H])[c]([N]([N]([H])[C](=[O])[c]2[c]([H])[c]([H])[c]([H])[c]([C](=[O])[C]([H])([H])[H])[c]2[H])[C]([H])([H])[H])[c]([H])[c]1[H]

>  <combo1>  (1) 
-0.9335158045550197

$$$$
