
     RDKit          3D

 41 42  0  0  0  0  0  0  0  0999 V2000
    4.9267    1.8016   16.9749 H   0  0  0  0  0  0  0  0  0  0  0  0
    5.3893    1.3036   17.8266 C   0  0  0  0  0  0  0  0  0  0  0  0
    6.5523    0.6832   17.5769 N   0  0  0  0  0  0  0  0  0  0  0  0
    7.1444    0.0616   18.6066 C   0  0  0  0  0  0  0  0  0  0  0  0
    8.0997   -0.4100   18.3762 H   0  0  0  0  0  0  0  0  0  0  0  0
    6.6211   -0.0128   19.9103 C   0  0  0  0  0  0  0  0  0  0  0  0
    7.3989   -0.7225   21.0003 C   0  0  0  0  0  0  0  0  0  0  0  0
    6.7837   -0.8555   21.9014 H   0  0  0  0  0  0  0  0  0  0  0  0
    7.6712   -1.7358   20.6788 H   0  0  0  0  0  0  0  0  0  0  0  0
    8.6586    0.0197   21.3573 C   0  0  0  0  0  0  0  0  0  0  0  0
    9.9747   -0.2105   20.9082 C   0  0  0  0  0  0  0  0  0  0  0  0
   10.3241   -0.9806   20.2352 H   0  0  0  0  0  0  0  0  0  0  0  0
   10.8407    0.6848   21.3746 N   0  0  0  0  0  0  0  0  0  0  0  0
   10.0720    1.4953   22.1250 N   0  0  0  0  0  0  0  0  0  0  0  0
   10.5109    2.2204   22.6752 H   0  0  0  0  0  0  0  0  0  0  0  0
    8.7554    1.1496   22.1465 C   0  0  0  0  0  0  0  0  0  0  0  0
    7.7386    1.8321   23.0129 C   0  0  0  0  0  0  0  0  0  0  0  0
    6.7535    1.6933   22.5570 H   0  0  0  0  0  0  0  0  0  0  0  0
    7.9103    2.9145   23.0503 H   0  0  0  0  0  0  0  0  0  0  0  0
    7.7047    1.2843   24.4540 C   0  0  0  0  0  0  0  0  0  0  0  0
    8.7037    1.4001   24.8842 H   0  0  0  0  0  0  0  0  0  0  0  0
    7.0335    1.9120   25.0662 H   0  0  0  0  0  0  0  0  0  0  0  0
    7.3159   -0.1250   24.5185 N   0  0  0  0  0  0  0  0  0  0  0  0
    5.8885   -0.3450   24.7113 C   0  0  0  0  0  0  0  0  0  0  0  0
    5.6788   -1.3786   24.4005 H   0  0  0  0  0  0  0  0  0  0  0  0
    5.3548    0.3266   24.0270 H   0  0  0  0  0  0  0  0  0  0  0  0
    5.3859   -0.1384   26.1434 C   0  0  0  0  0  0  0  0  0  0  0  0
    5.8291   -0.8876   26.8084 H   0  0  0  0  0  0  0  0  0  0  0  0
    5.6788    0.8504   26.5146 H   0  0  0  0  0  0  0  0  0  0  0  0
    4.2962   -0.2252   26.1975 H   0  0  0  0  0  0  0  0  0  0  0  0
    8.1660   -0.9755   25.3475 C   0  0  0  0  0  0  0  0  0  0  0  0
    8.3842   -0.5169   26.3362 H   0  0  0  0  0  0  0  0  0  0  0  0
    7.6217   -1.9056   25.5568 H   0  0  0  0  0  0  0  0  0  0  0  0
    9.4740   -1.3279   24.6534 C   0  0  0  0  0  0  0  0  0  0  0  0
   10.0309   -2.0352   25.2691 H   0  0  0  0  0  0  0  0  0  0  0  0
    9.2942   -1.7927   23.6765 H   0  0  0  0  0  0  0  0  0  0  0  0
   10.1063   -0.4479   24.5082 H   0  0  0  0  0  0  0  0  0  0  0  0
    5.4120    0.6472   20.1408 C   0  0  0  0  0  0  0  0  0  0  0  0
    4.9772    0.6435   21.1440 H   0  0  0  0  0  0  0  0  0  0  0  0
    4.7855    1.3198   19.0869 C   0  0  0  0  0  0  0  0  0  0  0  0
    3.8596    1.8561   19.2317 H   0  0  0  0  0  0  0  0  0  0  0  0
  1  2  1  0
  2  3  2  0
  3  4  1  0
  4  5  1  0
  4  6  2  0
  6  7  1  0
  7  8  1  0
  7  9  1  0
  7 10  1  0
 10 11  1  0
 11 12  1  0
 11 13  2  0
 13 14  1  0
 14 15  1  0
 14 16  1  0
 16 17  1  0
 17 18  1  0
 17 19  1  0
 17 20  1  0
 20 21  1  0
 20 22  1  0
 20 23  1  0
 23 24  1  0
 24 25  1  0
 24 26  1  0
 24 27  1  0
 27 28  1  0
 27 29  1  0
 27 30  1  0
 23 31  1  0
 31 32  1  0
 31 33  1  0
 31 34  1  0
 34 35  1  0
 34 36  1  0
 34 37  1  0
  6 38  1  0
 38 39  1  0
 38 40  2  0
 40 41  1  0
 40  2  1  0
 16 10  2  0
M  END
>  <cnnaffinity>  (1) 
4.83926

>  <plip>  (1) 
-0.03571428571428571

>  <filename>  (1) 
[H][c]1[n][c]([H])[c]([C]([H])([H])[c]2[c]([H])[n][n]([H])[c]2[C]([H])([H])[C]([H])([H])[N]([C]([H])([H])[C]([H])([H])[H])[C]([H])([H])[C]([H])([H])[H])[c]([H])[c]1[H]

>  <combo1>  (1) 
-0.22297658811714283

$$$$
