
     RDKit          3D

 38 40  0  0  0  0  0  0  0  0999 V2000
   13.5301   -0.5117   22.2295 C   0  0  0  0  0  0  0  0  0  0  0  0
   12.6133   -1.4736   22.0690 C   0  0  0  0  0  0  0  0  0  0  0  0
   11.2846   -1.4666   22.7761 C   0  0  0  0  0  0  0  0  0  0  0  0
   10.3274   -2.2067   21.8656 N   0  0  0  0  0  4  0  0  0  0  0  0
    8.9884   -2.5240   22.4648 C   0  0  0  0  0  0  0  0  0  0  0  0
    7.9057   -1.5550   22.0409 C   0  0  0  0  0  0  0  0  0  0  0  0
    6.9500   -1.1408   22.8606 N   0  0  0  0  0  0  0  0  0  0  0  0
    6.2079   -0.2989   22.1123 N   0  0  0  0  0  0  0  0  0  0  0  0
    6.6486   -0.1731   20.8363 C   0  0  0  0  0  0  0  0  0  0  0  0
    6.0581    0.6262   19.7479 C   0  0  0  0  0  0  0  0  0  0  0  0
    4.8365    1.3238   19.7626 C   0  0  0  0  0  0  0  0  0  0  0  0
    4.4059    1.9301   18.5786 C   0  0  0  0  0  0  0  0  0  0  0  0
    5.2052    1.8490   17.4333 C   0  0  0  0  0  0  0  0  0  0  0  0
    6.3903    1.2201   17.4130 N   0  0  0  0  0  0  0  0  0  0  0  0
    6.7929    0.6522   18.5471 C   0  0  0  0  0  0  0  0  0  0  0  0
    7.7770    0.1894   18.5157 H   0  0  0  0  0  0  0  0  0  0  0  0
    4.8876    2.2934   16.4911 H   0  0  0  0  0  0  0  0  0  0  0  0
    3.4692    2.4737   18.5311 H   0  0  0  0  0  0  0  0  0  0  0  0
    4.2297    1.4150   20.6655 H   0  0  0  0  0  0  0  0  0  0  0  0
    7.7684   -0.9788   20.7714 C   0  0  0  0  0  0  0  0  0  0  0  0
    8.3664   -1.2171   19.9089 H   0  0  0  0  0  0  0  0  0  0  0  0
    5.3441    0.0428   22.5114 H   0  0  0  0  0  0  0  0  0  0  0  0
    8.6967   -3.5452   22.2067 H   0  0  0  0  0  0  0  0  0  0  0  0
    9.0464   -2.4808   23.5559 H   0  0  0  0  0  0  0  0  0  0  0  0
   10.8484   -3.0550   21.5555 H   0  0  0  0  0  0  0  0  0  0  0  0
   10.2198   -1.5592   21.0434 H   0  0  0  0  0  0  0  0  0  0  0  0
   10.8591   -0.0181   23.0973 C   0  0  0  0  0  0  0  0  0  0  0  0
   11.9920    0.6753   23.8816 C   0  0  0  0  0  0  0  0  0  0  0  0
   13.2699    0.7506   23.0185 C   0  0  0  0  0  0  0  0  0  0  0  0
   13.1540    1.5697   22.2936 H   0  0  0  0  0  0  0  0  0  0  0  0
   14.1536    1.0217   23.6140 H   0  0  0  0  0  0  0  0  0  0  0  0
   12.1852    0.1226   24.8141 H   0  0  0  0  0  0  0  0  0  0  0  0
   11.7013    1.6889   24.1795 H   0  0  0  0  0  0  0  0  0  0  0  0
   10.6936    0.5250   22.1522 H   0  0  0  0  0  0  0  0  0  0  0  0
    9.9158   -0.0278   23.6551 H   0  0  0  0  0  0  0  0  0  0  0  0
   11.2719   -2.0277   23.7227 H   0  0  0  0  0  0  0  0  0  0  0  0
   12.7968   -2.2871   21.3686 H   0  0  0  0  0  0  0  0  0  0  0  0
   14.4833   -0.5666   21.7075 H   0  0  0  0  0  0  0  0  0  0  0  0
  1  2  2  0
  2  3  1  0
  3  4  1  0
  4  5  1  0
  5  6  1  0
  6  7  2  0
  7  8  1  0
  8  9  1  0
  9 10  1  0
 10 11  2  0
 11 12  1  0
 12 13  2  0
 13 14  1  0
 14 15  2  0
 15 16  1  0
 13 17  1  0
 12 18  1  0
 11 19  1  0
  9 20  2  0
 20 21  1  0
  8 22  1  0
  5 23  1  0
  5 24  1  0
  4 25  1  0
  4 26  1  0
  3 27  1  0
 27 28  1  0
 28 29  1  0
 29 30  1  0
 29 31  1  0
 28 32  1  0
 28 33  1  0
 27 34  1  0
 27 35  1  0
  3 36  1  0
  2 37  1  0
  1 38  1  0
 29  1  1  0
 20  6  1  0
 15 10  1  0
M  CHG  1   4   1
M  END
>  <cnnaffinity>  (1) 
5.39148

>  <plip>  (1) 
-0.034482758620689655

>  <filename>  (1) 
[H][C]1=[C]([H])[C]([H])([N+]([H])([H])[C]([H])([H])[c]2[n][n]([H])[c](-[c]3[c]([H])[n][c]([H])[c]([H])[c]3[H])[c]2[H])[C]([H])([H])[C]([H])([H])[C]1([H])[H]

>  <combo1>  (1) 
-0.24269531215711515

$$$$
