
     RDKit          3D

 35 38  0  0  0  0  0  0  0  0999 V2000
    9.5723    0.0261   20.5840 O   0  0  0  0  0  0  0  0  0  0  0  0
    8.7728   -0.6376   21.1986 C   0  0  0  0  0  0  0  0  0  0  0  0
    9.0695   -1.4670   22.2402 N   0  0  0  0  0  0  0  0  0  0  0  0
    7.8682   -1.9624   22.9001 C   0  0  0  0  0  0  0  0  0  0  0  0
    7.6048   -1.3725   24.2868 C   0  0  0  0  0  0  0  0  0  0  0  0
    7.3311   -2.2429   25.3579 C   0  0  0  0  0  0  0  0  0  0  0  0
    7.0956   -1.7640   26.6517 C   0  0  0  0  0  0  0  0  0  0  0  0
    7.1367   -0.3907   26.8499 C   0  0  0  0  0  0  0  0  0  0  0  0
    6.9113    0.2041   28.0483 O   0  0  0  0  0  0  0  0  0  0  0  0
    7.0297    1.6273   27.8712 C   0  0  0  0  0  0  0  0  0  0  0  0
    7.3476    1.8951   26.3789 C   0  0  0  0  0  0  0  0  0  0  0  0
    7.3961    0.5025   25.8091 C   0  0  0  0  0  0  0  0  0  0  0  0
    7.6310    0.0175   24.5238 C   0  0  0  0  0  0  0  0  0  0  0  0
    7.8454    0.7105   23.7120 H   0  0  0  0  0  0  0  0  0  0  0  0
    6.5661    2.5002   25.9094 H   0  0  0  0  0  0  0  0  0  0  0  0
    8.2982    2.4259   26.2655 H   0  0  0  0  0  0  0  0  0  0  0  0
    6.0893    2.0799   28.1950 H   0  0  0  0  0  0  0  0  0  0  0  0
    7.8160    1.9806   28.5419 H   0  0  0  0  0  0  0  0  0  0  0  0
    6.8815   -2.4152   27.4901 H   0  0  0  0  0  0  0  0  0  0  0  0
    7.3184   -3.3203   25.1962 H   0  0  0  0  0  0  0  0  0  0  0  0
    6.8120   -1.6446   21.8170 C   0  0  0  0  0  0  0  0  0  0  0  0
    5.7498   -2.1791   21.6415 O   0  0  0  0  0  0  0  0  0  0  0  0
    7.4000   -0.7112   20.9569 N   0  0  0  0  0  0  0  0  0  0  0  0
    6.7260   -0.0111   19.8963 C   0  0  0  0  0  0  0  0  0  0  0  0
    5.5093    0.6179   20.1649 C   0  0  0  0  0  0  0  0  0  0  0  0
    4.8558    1.2859   19.1222 C   0  0  0  0  0  0  0  0  0  0  0  0
    5.4304    1.2839   17.8483 C   0  0  0  0  0  0  0  0  0  0  0  0
    6.5964    0.6747   17.5745 N   0  0  0  0  0  0  0  0  0  0  0  0
    7.2352    0.0604   18.5789 C   0  0  0  0  0  0  0  0  0  0  0  0
    8.1894   -0.4100   18.3510 H   0  0  0  0  0  0  0  0  0  0  0  0
    4.9409    1.7814   17.0111 H   0  0  0  0  0  0  0  0  0  0  0  0
    3.9166    1.7997   19.2828 H   0  0  0  0  0  0  0  0  0  0  0  0
    5.0995    0.5649   21.1708 H   0  0  0  0  0  0  0  0  0  0  0  0
    7.9066   -3.0582   22.9876 H   0  0  0  0  0  0  0  0  0  0  0  0
    9.9290   -1.2328   22.7064 H   0  0  0  0  0  0  0  0  0  0  0  0
  1  2  2  0
  2  3  1  0
  3  4  1  0
  4  5  1  0
  5  6  2  0
  6  7  1  0
  7  8  2  0
  8  9  1  0
  9 10  1  0
 10 11  1  0
 11 12  1  0
 12 13  2  0
 13 14  1  0
 11 15  1  0
 11 16  1  0
 10 17  1  0
 10 18  1  0
  7 19  1  0
  6 20  1  0
  4 21  1  0
 21 22  2  0
 21 23  1  0
 23 24  1  0
 24 25  2  0
 25 26  1  0
 26 27  2  0
 27 28  1  0
 28 29  2  0
 29 30  1  0
 27 31  1  0
 26 32  1  0
 25 33  1  0
  4 34  1  0
  3 35  1  0
 23  2  1  0
 29 24  1  0
 13  5  1  0
 12  8  1  0
M  END
>  <cnnaffinity>  (1) 
5.11413

>  <plip>  (1) 
-0.10714285714285714

>  <filename>  (1) 
[H][c]1[n][c]([H])[c]([N]2[C](=[O])[N]([H])[C]([H])([c]3[c]([H])[c]([H])[c]4[c]([c]3[H])[C]([H])([H])[C]([H])([H])[O]4)[C]2=[O])[c]([H])[c]1[H]

>  <combo1>  (1) 
-0.6185192585117408

$$$$
