
     RDKit          3D

 32 34  0  0  0  0  0  0  0  0999 V2000
   10.9685   -1.4574   20.6588 H   0  0  0  0  0  0  0  0  0  0  0  0
   11.5378   -0.8407   21.1419 O   0  0  0  0  0  0  0  0  0  0  0  0
   10.8586    0.3193   21.3540 C   0  0  0  0  0  0  0  0  0  0  0  0
   11.6374    1.4197   21.6998 C   0  0  0  0  0  0  0  0  0  0  0  0
   12.7105    1.2816   21.7962 H   0  0  0  0  0  0  0  0  0  0  0  0
   11.0284    2.6623   21.8824 C   0  0  0  0  0  0  0  0  0  0  0  0
   12.0025    4.0711   22.1605 Cl  0  0  0  0  0  0  0  0  0  0  0  0
    9.6406    2.7794   21.8527 C   0  0  0  0  0  0  0  0  0  0  0  0
    9.1963    3.7518   22.0351 H   0  0  0  0  0  0  0  0  0  0  0  0
    8.8427    1.6746   21.5625 C   0  0  0  0  0  0  0  0  0  0  0  0
    7.7619    1.7590   21.6316 H   0  0  0  0  0  0  0  0  0  0  0  0
    9.4388    0.4445   21.2605 C   0  0  0  0  0  0  0  0  0  0  0  0
    8.7485   -0.6662   20.8173 O   0  0  0  0  0  0  0  0  0  0  0  0
    7.3366   -0.7809   20.9576 C   0  0  0  0  0  0  0  0  0  0  0  0
    6.6103    0.0044   19.8937 C   0  0  0  0  0  0  0  0  0  0  0  0
    7.1694    0.0170   18.6166 C   0  0  0  0  0  0  0  0  0  0  0  0
    8.1162   -0.4862   18.4346 H   0  0  0  0  0  0  0  0  0  0  0  0
    6.6184    0.6433   17.5669 N   0  0  0  0  0  0  0  0  0  0  0  0
    5.4650    1.2897   17.7777 C   0  0  0  0  0  0  0  0  0  0  0  0
    5.0381    1.7946   16.9144 H   0  0  0  0  0  0  0  0  0  0  0  0
    4.8061    1.3184   19.0148 C   0  0  0  0  0  0  0  0  0  0  0  0
    3.8753    1.8653   19.1159 H   0  0  0  0  0  0  0  0  0  0  0  0
    5.3925    0.6653   20.0976 C   0  0  0  0  0  0  0  0  0  0  0  0
    4.9328    0.6871   21.0877 H   0  0  0  0  0  0  0  0  0  0  0  0
    7.1087   -2.1501   20.8496 O   0  0  0  0  0  0  0  0  0  0  0  0
    6.5775   -2.6128   22.0866 C   0  0  0  0  0  0  0  0  0  0  0  0
    5.4830   -2.6851   22.0211 H   0  0  0  0  0  0  0  0  0  0  0  0
    7.0068   -3.5926   22.3142 H   0  0  0  0  0  0  0  0  0  0  0  0
    6.9960   -1.5222   23.0670 C   0  0  0  0  0  0  0  0  0  0  0  0
    6.2949   -1.4013   23.8993 H   0  0  0  0  0  0  0  0  0  0  0  0
    8.0153   -1.6529   23.4529 H   0  0  0  0  0  0  0  0  0  0  0  0
    6.9228   -0.3752   22.2315 O   0  0  0  0  0  0  0  0  0  0  0  0
  1  2  1  0
  2  3  1  0
  3  4  2  0
  4  5  1  0
  4  6  1  0
  6  7  1  0
  6  8  2  0
  8  9  1  0
  8 10  1  0
 10 11  1  0
 10 12  2  0
 12 13  1  0
 13 14  1  0
 14 15  1  0
 15 16  2  0
 16 17  1  0
 16 18  1  0
 18 19  2  0
 19 20  1  0
 19 21  1  0
 21 22  1  0
 21 23  2  0
 23 24  1  0
 14 25  1  0
 25 26  1  0
 26 27  1  0
 26 28  1  0
 26 29  1  0
 29 30  1  0
 29 31  1  0
 29 32  1  0
 12  3  1  0
 32 14  1  0
 23 15  1  0
M  END
>  <cnnaffinity>  (1) 
5.12789

>  <plip>  (1) 
-0.10344827586206896

>  <filename>  (1) 
[H][O][c]1[c]([H])[c]([Cl])[c]([H])[c]([H])[c]1[O][C]1([c]2[c]([H])[n][c]([H])[c]([H])[c]2[H])[O][C]([H])([H])[C]([H])([H])[O]1

>  <combo1>  (1) 
-0.6020435166576383

$$$$
