
     RDKit          3D

 22 23  0  0  0  0  0  0  0  0999 V2000
    4.9734    1.8471   16.9201 H   0  0  0  0  0  0  0  0  0  0  0  0
    5.4273    1.3380   17.7684 C   0  0  0  0  0  0  0  0  0  0  0  0
    6.6065    0.7428   17.5369 N   0  0  0  0  0  0  0  0  0  0  0  0
    7.2073    0.1273   18.5623 C   0  0  0  0  0  0  0  0  0  0  0  0
    8.1773   -0.3243   18.3563 H   0  0  0  0  0  0  0  0  0  0  0  0
    6.6582    0.0491   19.8520 C   0  0  0  0  0  0  0  0  0  0  0  0
    7.3849   -0.6554   20.9724 C   0  0  2  0  0  0  0  0  0  0  0  0
    6.9870   -0.2988   21.9325 H   0  0  0  0  0  0  0  0  0  0  0  0
    8.7958   -0.3706   20.9209 O   0  0  0  0  0  0  0  0  0  0  0  0
    9.4648   -1.4904   21.3035 C   0  0  0  0  0  0  0  0  0  0  0  0
   10.5506   -1.5216   21.8033 O   0  0  0  0  0  0  0  0  0  0  0  0
    8.7020   -2.5915   21.0169 N   0  0  0  0  0  0  0  0  0  0  0  0
    8.9449   -3.3610   21.6090 H   0  0  0  0  0  0  0  0  0  0  0  0
    7.3179   -2.2287   21.0358 C   0  0  1  0  0  0  0  0  0  0  0  0
    6.7464   -2.6710   20.2127 H   0  0  0  0  0  0  0  0  0  0  0  0
    6.7532   -2.7020   22.2628 N   0  0  0  0  0  0  0  0  0  0  0  0
    6.8562   -2.9494   23.4245 C   0  0  0  0  0  0  0  0  0  0  0  0
    6.9121   -3.2561   24.9733 S   0  0  0  0  0  0  0  0  0  0  0  0
    5.4186    0.6723   20.0728 C   0  0  0  0  0  0  0  0  0  0  0  0
    4.9620    0.6644   21.0647 H   0  0  0  0  0  0  0  0  0  0  0  0
    4.7913    1.3245   19.0113 C   0  0  0  0  0  0  0  0  0  0  0  0
    3.8452    1.8393   19.1349 H   0  0  0  0  0  0  0  0  0  0  0  0
  1  2  1  0
  2  3  2  0
  3  4  1  0
  4  5  1  0
  4  6  2  0
  6  7  1  0
  7  8  1  1
  7  9  1  0
  9 10  1  0
 10 11  2  0
 10 12  1  0
 12 13  1  0
 12 14  1  0
 14 15  1  6
 14 16  1  0
 16 17  2  0
 17 18  2  0
  6 19  1  0
 19 20  1  0
 19 21  2  0
 21 22  1  0
 21  2  1  0
 14  7  1  0
M  END
>  <cnnaffinity>  (1) 
4.29427

>  <plip>  (1) 
-0.034482758620689655

>  <filename>  (1) 
[H][c]1[n][c]([H])[c]([C@]2([H])[O][C](=[O])[N]([H])[C@@]2([H])[N]=[C]=[S])[c]([H])[c]1[H]

>  <combo1>  (1) 
-0.22310252298333635

$$$$
