
     RDKit          3D

 26 28  0  0  0  0  0  0  0  0999 V2000
    4.9427    1.7798   17.0407 H   0  0  0  0  0  0  0  0  0  0  0  0
    5.4185    1.2656   17.8744 C   0  0  0  0  0  0  0  0  0  0  0  0
    6.5739    0.6401   17.6005 N   0  0  0  0  0  0  0  0  0  0  0  0
    7.2090    0.0300   18.6068 C   0  0  0  0  0  0  0  0  0  0  0  0
    8.1556   -0.4435   18.3648 H   0  0  0  0  0  0  0  0  0  0  0  0
    6.7135   -0.0224   19.9330 C   0  0  0  0  0  0  0  0  0  0  0  0
    7.4126   -0.6995   21.0108 N   0  0  0  0  0  0  0  0  0  0  0  0
    8.7928   -0.6556   21.2190 C   0  0  0  0  0  0  0  0  0  0  0  0
    9.5969   -0.0646   20.5479 O   0  0  0  0  0  0  0  0  0  0  0  0
    9.0376   -1.5415   22.4506 C   0  0  0  0  0  0  0  0  0  0  0  0
   10.0678   -1.8515   22.9988 O   0  0  0  0  0  0  0  0  0  0  0  0
    7.7978   -1.9816   22.8243 N   0  0  0  0  0  0  0  0  0  0  0  0
    7.5389   -2.8095   23.9012 C   0  0  0  0  0  0  0  0  0  0  0  0
    6.3583   -3.1770   24.2762 N   0  0  0  0  0  0  0  0  0  0  0  0
    6.5833   -3.9606   25.3752 C   0  0  0  0  0  0  0  0  0  0  0  0
    5.7546   -4.4154   25.9002 H   0  0  0  0  0  0  0  0  0  0  0  0
    7.9209   -4.0517   25.6470 C   0  0  0  0  0  0  0  0  0  0  0  0
    8.4495   -4.5768   26.4276 H   0  0  0  0  0  0  0  0  0  0  0  0
    8.5305   -3.2916   24.6735 N   0  0  0  0  0  0  0  0  0  0  0  0
    9.4882   -3.0404   24.4695 H   0  0  0  0  0  0  0  0  0  0  0  0
    6.8452   -1.6629   21.8682 C   0  0  0  0  0  0  0  0  0  0  0  0
    5.7824   -2.1834   21.7323 O   0  0  0  0  0  0  0  0  0  0  0  0
    5.4888    0.6087   20.1918 C   0  0  0  0  0  0  0  0  0  0  0  0
    5.0566    0.5653   21.1910 H   0  0  0  0  0  0  0  0  0  0  0  0
    4.8358    1.2781   19.1450 C   0  0  0  0  0  0  0  0  0  0  0  0
    3.9006    1.8151   19.2977 H   0  0  0  0  0  0  0  0  0  0  0  0
  1  2  1  0
  2  3  2  0
  3  4  1  0
  4  5  1  0
  4  6  2  0
  6  7  1  0
  7  8  1  0
  8  9  2  0
  8 10  1  0
 10 11  2  0
 10 12  1  0
 12 13  1  0
 13 14  2  0
 14 15  1  0
 15 16  1  0
 15 17  2  0
 17 18  1  0
 17 19  1  0
 19 20  1  0
 12 21  1  0
 21 22  2  0
  6 23  1  0
 23 24  1  0
 23 25  2  0
 25 26  1  0
 25  2  1  0
 21  7  1  0
 19 13  1  0
M  END
>  <cnnaffinity>  (1) 
4.66921

>  <plip>  (1) 
-0.07142857142857142

>  <filename>  (1) 
[H][c]1[n][c]([H])[c]([N]2[C](=[O])[C](=[O])[N]([c]3[n][c]([H])[c]([H])[n]3[H])[C]2=[O])[c]([H])[c]1[H]

>  <combo1>  (1) 
-0.43222308187764286

$$$$
