
     RDKit          3D

 31 33  0  0  0  0  0  0  0  0999 V2000
    5.2579   -8.3334   23.6512 O   0  0  0  0  0  0  0  0  0  0  0  0
    5.7791   -7.5788   22.8375 C   0  0  0  0  0  0  0  0  0  0  0  0
    6.7696   -7.6807   22.0927 O   0  0  0  0  0  1  0  0  0  0  0  0
    5.0270   -5.9825   22.6846 C   0  0  0  0  0  0  0  0  0  0  0  0
    3.9099   -5.5948   23.2928 N   0  0  0  0  0  0  0  0  0  0  0  0
    3.8070   -4.2849   23.0369 N   0  0  0  0  0  0  0  0  0  0  0  0
    4.8239   -3.8393   22.2675 C   0  0  0  0  0  0  0  0  0  0  0  0
    5.6071   -4.9132   21.9780 C   0  0  0  0  0  0  0  0  0  0  0  0
    6.7069   -4.5071   21.0425 C   0  0  0  0  0  0  0  0  0  0  0  0
    6.6473   -3.0341   21.1379 N   0  0  0  0  0  0  0  0  0  0  0  0
    7.7793   -2.2633   21.0202 C   0  0  0  0  0  0  0  0  0  0  0  0
    8.8975   -2.7507   20.9735 O   0  0  0  0  0  0  0  0  0  0  0  0
    7.5820   -0.7272   21.0030 C   0  0  0  0  0  0  0  0  0  0  0  0
    6.7433   -0.1019   19.8863 C   0  0  0  0  0  0  0  0  0  0  0  0
    5.5310    0.5537   20.1401 C   0  0  0  0  0  0  0  0  0  0  0  0
    4.8865    1.2330   19.1006 C   0  0  0  0  0  0  0  0  0  0  0  0
    5.4660    1.2174   17.8305 C   0  0  0  0  0  0  0  0  0  0  0  0
    6.6007    0.5600   17.5479 N   0  0  0  0  0  0  0  0  0  0  0  0
    7.2080   -0.0788   18.5546 C   0  0  0  0  0  0  0  0  0  0  0  0
    8.1281   -0.6073   18.3071 H   0  0  0  0  0  0  0  0  0  0  0  0
    5.0073    1.7553   17.0022 H   0  0  0  0  0  0  0  0  0  0  0  0
    3.9697    1.7873   19.2634 H   0  0  0  0  0  0  0  0  0  0  0  0
    5.1035    0.5443   21.1441 H   0  0  0  0  0  0  0  0  0  0  0  0
    7.1621   -0.4319   21.9746 H   0  0  0  0  0  0  0  0  0  0  0  0
    8.5948   -0.3124   20.9849 H   0  0  0  0  0  0  0  0  0  0  0  0
    5.5124   -2.5673   21.9329 C   0  0  0  0  0  0  0  0  0  0  0  0
    4.9361   -1.8230   21.3938 H   0  0  0  0  0  0  0  0  0  0  0  0
    5.8591   -2.0971   22.8604 H   0  0  0  0  0  0  0  0  0  0  0  0
    7.7053   -4.8703   21.3074 H   0  0  0  0  0  0  0  0  0  0  0  0
    6.4947   -4.8293   20.0109 H   0  0  0  0  0  0  0  0  0  0  0  0
    3.0317   -3.7865   23.4415 H   0  0  0  0  0  0  0  0  0  0  0  0
  1  2  2  0
  2  3  1  0
  2  4  1  0
  4  5  2  0
  5  6  1  0
  6  7  1  0
  7  8  2  0
  8  9  1  0
  9 10  1  0
 10 11  1  0
 11 12  2  0
 11 13  1  0
 13 14  1  0
 14 15  2  0
 15 16  1  0
 16 17  2  0
 17 18  1  0
 18 19  2  0
 19 20  1  0
 17 21  1  0
 16 22  1  0
 15 23  1  0
 13 24  1  0
 13 25  1  0
 10 26  1  0
 26 27  1  0
 26 28  1  0
  9 29  1  0
  9 30  1  0
  6 31  1  0
  8  4  1  0
 19 14  1  0
 26  7  1  0
M  CHG  1   3  -1
M  END
>  <cnnaffinity>  (1) 
4.61347

>  <plip>  (1) 
-0.1

>  <filename>  (1) 
[H][c]1[n][c]([H])[c]([C]([H])([H])[C](=[O])[N]2[C]([H])([H])[c]3[c]([C](=[O])[O-])[n][n]([H])[c]3[C]2([H])[H])[c]([H])[c]1[H]

>  <combo1>  (1) 
-0.566926937407222

$$$$
