
     RDKit          3D

 37 38  0  0  0  0  0  0  0  0999 V2000
    8.3688    0.9230   22.4057 C   0  0  0  0  0  0  0  0  0  0  0  0
    8.5736   -0.2222   21.4176 C   0  0  0  0  0  0  0  0  0  0  0  0
    7.3307   -0.8009   20.9017 N   0  0  0  0  0  0  0  0  0  0  0  0
    6.6160   -1.8115   21.5534 C   0  0  0  0  0  0  0  0  0  0  0  0
    5.5544   -2.2262   21.1331 O   0  0  0  0  0  0  0  0  0  0  0  0
    7.2616   -2.4843   22.7475 C   0  0  0  0  0  0  0  0  0  0  0  0
    8.0766   -3.7069   22.3059 C   0  0  0  0  0  0  0  0  0  0  0  0
    8.5390   -4.4943   23.4492 N   0  0  0  0  0  0  0  0  0  0  0  0
    9.7201   -4.2892   24.1758 C   0  0  0  0  0  0  0  0  0  0  0  0
   10.7422   -3.2883   23.7393 C   0  0  0  0  0  0  0  0  0  0  0  0
   11.6706   -3.5249   24.2537 H   0  0  0  0  0  0  0  0  0  0  0  0
   10.9408   -3.3198   22.6659 H   0  0  0  0  0  0  0  0  0  0  0  0
   10.4626   -2.2624   23.9998 H   0  0  0  0  0  0  0  0  0  0  0  0
    9.8326   -5.0858   25.2494 C   0  0  0  0  0  0  0  0  0  0  0  0
    8.4673   -6.1534   25.4433 S   0  0  0  0  0  0  0  0  0  0  0  0
    7.7114   -5.4792   23.9721 C   0  0  0  0  0  0  0  0  0  0  0  0
    6.6543   -5.8442   23.5100 O   0  0  0  0  0  0  0  0  0  0  0  0
   10.6715   -5.1070   25.9419 H   0  0  0  0  0  0  0  0  0  0  0  0
    8.9371   -3.4029   21.6981 H   0  0  0  0  0  0  0  0  0  0  0  0
    7.4659   -4.3680   21.6838 H   0  0  0  0  0  0  0  0  0  0  0  0
    7.8936   -1.7928   23.3058 H   0  0  0  0  0  0  0  0  0  0  0  0
    6.4542   -2.8061   23.4039 H   0  0  0  0  0  0  0  0  0  0  0  0
    6.6764   -0.0718   19.8443 C   0  0  0  0  0  0  0  0  0  0  0  0
    5.4596    0.5720   20.0947 C   0  0  0  0  0  0  0  0  0  0  0  0
    4.8571    1.2997   19.0644 C   0  0  0  0  0  0  0  0  0  0  0  0
    5.4841    1.3482   17.8127 C   0  0  0  0  0  0  0  0  0  0  0  0
    6.6455    0.7263   17.5463 N   0  0  0  0  0  0  0  0  0  0  0  0
    7.2259    0.0494   18.5479 C   0  0  0  0  0  0  0  0  0  0  0  0
    8.1651   -0.4488   18.3129 H   0  0  0  0  0  0  0  0  0  0  0  0
    5.0325    1.9028   16.9921 H   0  0  0  0  0  0  0  0  0  0  0  0
    3.9234    1.8325   19.2254 H   0  0  0  0  0  0  0  0  0  0  0  0
    5.0045    0.4878   21.0825 H   0  0  0  0  0  0  0  0  0  0  0  0
    9.1780   -1.0190   21.8610 H   0  0  0  0  0  0  0  0  0  0  0  0
    9.1387    0.1480   20.5547 H   0  0  0  0  0  0  0  0  0  0  0  0
    7.8801    0.6059   23.3347 H   0  0  0  0  0  0  0  0  0  0  0  0
    9.3426    1.3513   22.6646 H   0  0  0  0  0  0  0  0  0  0  0  0
    7.7647    1.7210   21.9599 H   0  0  0  0  0  0  0  0  0  0  0  0
  1  2  1  0
  2  3  1  0
  3  4  1  0
  4  5  2  0
  4  6  1  0
  6  7  1  0
  7  8  1  0
  8  9  1  0
  9 10  1  0
 10 11  1  0
 10 12  1  0
 10 13  1  0
  9 14  2  0
 14 15  1  0
 15 16  1  0
 16 17  2  0
 14 18  1  0
  7 19  1  0
  7 20  1  0
  6 21  1  0
  6 22  1  0
  3 23  1  0
 23 24  2  0
 24 25  1  0
 25 26  2  0
 26 27  1  0
 27 28  2  0
 28 29  1  0
 26 30  1  0
 25 31  1  0
 24 32  1  0
  2 33  1  0
  2 34  1  0
  1 35  1  0
  1 36  1  0
  1 37  1  0
 16  8  1  0
 28 23  1  0
M  END
>  <cnnaffinity>  (1) 
5.05409

>  <plip>  (1) 
-0.10714285714285714

>  <filename>  (1) 
[H][c]1[n][c]([H])[c]([N]([C](=[O])[C]([H])([H])[C]([H])([H])[n]2[c]([C]([H])([H])[H])[c]([H])[s][c]2=[O])[C]([H])([H])[C]([H])([H])[H])[c]([H])[c]1[H]

>  <combo1>  (1) 
-0.6194855248397753

$$$$
