
     RDKit          3D

 34 34  0  0  0  0  0  0  0  0999 V2000
    5.0471    1.7959   16.8815 H   0  0  0  0  0  0  0  0  0  0  0  0
    5.4676    1.3013   17.7532 C   0  0  0  0  0  0  0  0  0  0  0  0
    6.6287    0.6470   17.5557 N   0  0  0  0  0  0  0  0  0  0  0  0
    7.1632    0.0248   18.6087 C   0  0  0  0  0  0  0  0  0  0  0  0
    8.0973   -0.5149   18.4512 H   0  0  0  0  0  0  0  0  0  0  0  0
    6.5886    0.0213   19.8893 C   0  0  0  0  0  0  0  0  0  0  0  0
    7.3376   -0.6945   20.8673 N   0  0  0  0  0  0  0  0  0  0  0  0
    6.8709   -0.6621   22.0191 N   0  0  0  0  0  0  0  0  0  0  0  0
    7.7000   -1.3992   22.9809 C   0  0  0  0  0  0  0  0  0  0  0  0
    7.8282   -2.4352   22.6408 H   0  0  0  0  0  0  0  0  0  0  0  0
    8.7001   -0.9502   23.0490 H   0  0  0  0  0  0  0  0  0  0  0  0
    7.0067   -1.3378   24.3357 C   0  0  0  0  0  0  0  0  0  0  0  0
    6.9254   -0.2859   24.6224 H   0  0  0  0  0  0  0  0  0  0  0  0
    5.9785   -1.6939   24.2120 H   0  0  0  0  0  0  0  0  0  0  0  0
    7.7311   -2.1385   25.4131 C   0  0  0  0  0  0  0  0  0  0  0  0
    8.7767   -1.7957   25.4797 H   0  0  0  0  0  0  0  0  0  0  0  0
    7.2820   -1.9286   26.3933 H   0  0  0  0  0  0  0  0  0  0  0  0
    7.7164   -3.6475   25.1427 C   0  0  0  0  0  0  0  0  0  0  0  0
    6.6787   -4.0121   25.1311 H   0  0  0  0  0  0  0  0  0  0  0  0
    8.1095   -3.8417   24.1355 H   0  0  0  0  0  0  0  0  0  0  0  0
    8.5768   -4.4557   26.1123 C   0  0  0  0  0  0  0  0  0  0  0  0
    9.6146   -4.1293   25.9523 H   0  0  0  0  0  0  0  0  0  0  0  0
    8.5112   -5.5223   25.8439 H   0  0  0  0  0  0  0  0  0  0  0  0
    8.2598   -4.3093   27.5996 C   0  0  0  0  0  0  0  0  0  0  0  0
    9.0410   -4.8432   28.1492 H   0  0  0  0  0  0  0  0  0  0  0  0
    8.3559   -3.2595   27.8948 H   0  0  0  0  0  0  0  0  0  0  0  0
    6.8966   -4.8494   28.0142 C   0  0  0  0  0  0  0  0  0  0  0  0
    6.7807   -4.8106   29.1012 H   0  0  0  0  0  0  0  0  0  0  0  0
    6.0793   -4.2717   27.5702 H   0  0  0  0  0  0  0  0  0  0  0  0
    6.7793   -5.8903   27.6910 H   0  0  0  0  0  0  0  0  0  0  0  0
    5.3710    0.6967   20.0858 C   0  0  0  0  0  0  0  0  0  0  0  0
    4.9161    0.6899   21.0745 H   0  0  0  0  0  0  0  0  0  0  0  0
    4.8072    1.3491   18.9865 C   0  0  0  0  0  0  0  0  0  0  0  0
    3.8754    1.8968   19.0794 H   0  0  0  0  0  0  0  0  0  0  0  0
  1  2  1  0
  2  3  2  0
  3  4  1  0
  4  5  1  0
  4  6  2  0
  6  7  1  0
  7  8  2  3
  8  9  1  0
  9 10  1  0
  9 11  1  0
  9 12  1  0
 12 13  1  0
 12 14  1  0
 12 15  1  0
 15 16  1  0
 15 17  1  0
 15 18  1  0
 18 19  1  0
 18 20  1  0
 18 21  1  0
 21 22  1  0
 21 23  1  0
 21 24  1  0
 24 25  1  0
 24 26  1  0
 24 27  1  0
 27 28  1  0
 27 29  1  0
 27 30  1  0
  6 31  1  0
 31 32  1  0
 31 33  2  0
 33 34  1  0
 33  2  1  0
M  END
>  <cnnaffinity>  (1) 
4.37672

>  <plip>  (1) 
-0.07142857142857142

>  <filename>  (1) 
[H][c]1[n][c]([H])[c]([N]=[N][C]([H])([H])[C]([H])([H])[C]([H])([H])[C]([H])([H])[C]([H])([H])[C]([H])([H])[C]([H])([H])[H])[c]([H])[c]1[H]

>  <combo1>  (1) 
-0.5075746769324615

$$$$
