
     RDKit          3D

 25 27  0  0  0  0  0  0  0  0999 V2000
    6.7302   -1.0582   22.0614 O   0  0  0  0  0  0  0  0  0  0  0  0
    7.3457   -0.7776   21.0619 C   0  0  0  0  0  0  0  0  0  0  0  0
    8.6582   -1.1290   20.8311 N   0  0  0  0  0  0  0  0  0  0  0  0
    9.3388   -1.8999   21.7090 C   0  0  0  0  0  0  0  0  0  0  0  0
   10.6594   -1.6342   21.6859 N   0  0  0  0  0  0  0  0  0  0  0  0
   11.4298   -2.3581   22.4869 C   0  0  0  0  0  0  0  0  0  0  0  0
   10.8716   -3.3109   23.3644 C   0  0  0  0  0  0  0  0  0  0  0  0
   11.3113   -4.1634   24.3589 N   0  0  0  0  0  0  0  0  0  0  0  0
   10.2965   -4.8036   24.8130 N   0  0  0  0  0  0  0  0  0  0  0  0
    9.1872   -4.3977   24.1383 N   0  0  0  0  0  0  0  0  0  0  0  0
    9.4947   -3.4652   23.2213 C   0  0  0  0  0  0  0  0  0  0  0  0
    8.6870   -2.8114   22.3967 N   0  0  0  0  0  0  0  0  0  0  0  0
    8.2743   -4.7768   24.3055 H   0  0  0  0  0  0  0  0  0  0  0  0
   12.5047   -2.1773   22.4323 H   0  0  0  0  0  0  0  0  0  0  0  0
    9.2920   -0.4570   20.4473 H   0  0  0  0  0  0  0  0  0  0  0  0
    6.7410   -0.0068   19.9502 C   0  0  0  0  0  0  0  0  0  0  0  0
    5.5286    0.6566   20.1725 C   0  0  0  0  0  0  0  0  0  0  0  0
    4.9153    1.2923   19.1028 C   0  0  0  0  0  0  0  0  0  0  0  0
    5.5395    1.2563   17.8495 C   0  0  0  0  0  0  0  0  0  0  0  0
    6.7098    0.6335   17.6298 N   0  0  0  0  0  0  0  0  0  0  0  0
    7.2919    0.0214   18.6676 C   0  0  0  0  0  0  0  0  0  0  0  0
    8.2215   -0.5048   18.4546 H   0  0  0  0  0  0  0  0  0  0  0  0
    5.0743    1.7466   16.9933 H   0  0  0  0  0  0  0  0  0  0  0  0
    3.9735    1.8108   19.2385 H   0  0  0  0  0  0  0  0  0  0  0  0
    5.1028    0.6384   21.1755 H   0  0  0  0  0  0  0  0  0  0  0  0
  1  2  2  0
  2  3  1  0
  3  4  1  0
  4  5  2  0
  5  6  1  0
  6  7  2  0
  7  8  1  0
  8  9  2  0
  9 10  1  0
 10 11  1  0
 11 12  2  0
 10 13  1  0
  6 14  1  0
  3 15  1  0
  2 16  1  0
 16 17  2  0
 17 18  1  0
 18 19  2  0
 19 20  1  0
 20 21  2  0
 21 22  1  0
 19 23  1  0
 18 24  1  0
 17 25  1  0
 12  4  1  0
 21 16  1  0
 11  7  1  0
M  END
>  <cnnaffinity>  (1) 
5.06915

>  <plip>  (1) 
-0.06666666666666667

>  <filename>  (1) 
[H][c]1[n][c]([H])[c]([C](=[O])[N]([H])[c]2[n][c]([H])[c]3[n][n][n]([H])[c]3[n]2)[c]([H])[c]1[H]

>  <combo1>  (1) 
-0.4670034814636702

$$$$
