
     RDKit          3D

 37 40  0  0  0  0  0  0  0  0999 V2000
    8.2984    1.2468   22.2852 C   0  0  0  0  0  0  0  0  0  0  0  0
    7.5564   -0.0006   22.2374 N   0  0  0  0  0  0  0  0  0  0  0  0
    6.9889   -0.5549   23.3471 C   0  0  0  0  0  0  0  0  0  0  0  0
    6.9435   -0.0236   24.4365 O   0  0  0  0  0  0  0  0  0  0  0  0
    6.4865   -1.8234   23.0115 N   0  0  0  0  0  0  0  0  0  0  0  0
    5.7677   -2.7124   23.8846 C   0  0  0  0  0  0  0  0  0  0  0  0
    4.9949   -2.1745   24.9510 C   0  0  0  0  0  0  0  0  0  0  0  0
    4.1111   -2.9724   25.6695 C   0  0  0  0  0  0  0  0  0  0  0  0
    4.1135   -4.3484   25.3897 C   0  0  0  0  0  0  0  0  0  0  0  0
    3.4182   -5.3749   25.9762 N   0  0  0  0  0  0  0  0  0  0  0  0
    3.8176   -6.5704   25.4160 C   0  0  0  0  0  0  0  0  0  0  0  0
    4.7464   -6.3308   24.4499 C   0  0  0  0  0  0  0  0  0  0  0  0
    4.9575   -4.9152   24.4032 C   0  0  0  0  0  0  0  0  0  0  0  0
    5.7689   -4.0795   23.6148 C   0  0  0  0  0  0  0  0  0  0  0  0
    6.3405   -4.4884   22.7901 H   0  0  0  0  0  0  0  0  0  0  0  0
    5.2337   -7.0641   23.8265 H   0  0  0  0  0  0  0  0  0  0  0  0
    3.4223   -7.5153   25.7594 H   0  0  0  0  0  0  0  0  0  0  0  0
    2.7688   -5.2554   26.7331 H   0  0  0  0  0  0  0  0  0  0  0  0
    3.4360   -2.5576   26.4157 H   0  0  0  0  0  0  0  0  0  0  0  0
    5.1228   -1.1223   25.1713 H   0  0  0  0  0  0  0  0  0  0  0  0
    6.5445   -1.9900   21.6379 C   0  0  0  0  0  0  0  0  0  0  0  0
    6.1301   -2.9326   21.0076 O   0  0  0  0  0  0  0  0  0  0  0  0
    7.3171   -0.7937   21.0536 C   0  0  0  0  0  0  0  0  0  0  0  0
    6.6080   -0.0216   19.9359 C   0  0  0  0  0  0  0  0  0  0  0  0
    5.3926    0.6469   20.1486 C   0  0  0  0  0  0  0  0  0  0  0  0
    4.8009    1.3143   19.0723 C   0  0  0  0  0  0  0  0  0  0  0  0
    5.4440    1.3059   17.8299 C   0  0  0  0  0  0  0  0  0  0  0  0
    6.6167    0.6936   17.6109 N   0  0  0  0  0  0  0  0  0  0  0  0
    7.1726    0.0572   18.6506 C   0  0  0  0  0  0  0  0  0  0  0  0
    8.1271   -0.4271   18.4431 H   0  0  0  0  0  0  0  0  0  0  0  0
    4.9959    1.8113   16.9746 H   0  0  0  0  0  0  0  0  0  0  0  0
    3.8655    1.8543   19.1804 H   0  0  0  0  0  0  0  0  0  0  0  0
    4.9293    0.6805   21.1375 H   0  0  0  0  0  0  0  0  0  0  0  0
    8.2605   -1.2087   20.6623 H   0  0  0  0  0  0  0  0  0  0  0  0
    8.7055    1.4731   21.2937 H   0  0  0  0  0  0  0  0  0  0  0  0
    9.1269    1.1639   22.9976 H   0  0  0  0  0  0  0  0  0  0  0  0
    7.6423    2.0633   22.6067 H   0  0  0  0  0  0  0  0  0  0  0  0
  1  2  1  0
  2  3  1  0
  3  4  2  0
  3  5  1  0
  5  6  1  0
  6  7  2  0
  7  8  1  0
  8  9  2  0
  9 10  1  0
 10 11  1  0
 11 12  2  0
 12 13  1  0
 13 14  2  0
 14 15  1  0
 12 16  1  0
 11 17  1  0
 10 18  1  0
  8 19  1  0
  7 20  1  0
  5 21  1  0
 21 22  2  0
 21 23  1  0
 23 24  1  0
 24 25  2  0
 25 26  1  0
 26 27  2  0
 27 28  1  0
 28 29  2  0
 29 30  1  0
 27 31  1  0
 26 32  1  0
 25 33  1  0
 23 34  1  0
  1 35  1  0
  1 36  1  0
  1 37  1  0
 23  2  1  0
 29 24  1  0
 14  6  1  0
 13  9  1  0
M  END
>  <cnnaffinity>  (1) 
5.12217

>  <plip>  (1) 
-0.10714285714285714

>  <filename>  (1) 
[H][c]1[n][c]([H])[c]([C]2([H])[C](=[O])[N]([c]3[c]([H])[c]([H])[c]4[c]([c]3[H])[c]([H])[c]([H])[n]4[H])[C](=[O])[N]2[C]([H])([H])[H])[c]([H])[c]1[H]

>  <combo1>  (1) 
-0.5971913583845356

$$$$
