
     RDKit          3D

 20 20  0  0  0  0  0  0  0  0999 V2000
    5.3481   -2.1169   16.9985 H   0  0  0  0  0  0  0  0  0  0  0  0
    5.6724   -2.6238   17.9025 N   0  0  0  0  0  0  0  0  0  0  0  0
    5.2702   -2.4860   18.9746 N   0  0  0  0  0  4  0  0  0  0  0  0
    5.9690   -2.1853   21.7755 N   0  0  0  0  0  0  0  0  0  0  0  0
    7.0165   -1.9879   21.1066 C   0  0  0  0  0  0  0  0  0  0  0  0
    7.6548   -2.7836   20.7003 H   0  0  0  0  0  0  0  0  0  0  0  0
    5.5658   -3.0918   21.5317 H   0  0  0  0  0  0  0  0  0  0  0  0
    7.5268   -0.5703   20.9616 C   0  0  1  0  0  0  0  0  0  0  0  0
    7.3319   -0.0579   21.9113 H   0  0  0  0  0  0  0  0  0  0  0  0
    9.3082   -0.6118   20.7350 Cl  0  0  0  0  0  0  0  0  0  0  0  0
    6.8400    0.1489   19.8296 C   0  0  0  0  0  0  0  0  0  0  0  0
    7.3521    0.1585   18.5246 C   0  0  0  0  0  0  0  0  0  0  0  0
    8.3595   -0.2098   18.3293 H   0  0  0  0  0  0  0  0  0  0  0  0
    6.6524    0.5853   17.4682 N   0  0  0  0  0  0  0  0  0  0  0  0
    5.4500    1.1412   17.6821 C   0  0  0  0  0  0  0  0  0  0  0  0
    4.9295    1.4972   16.7915 H   0  0  0  0  0  0  0  0  0  0  0  0
    4.8844    1.2522   18.9506 C   0  0  0  0  0  0  0  0  0  0  0  0
    3.9168    1.7251   19.0648 H   0  0  0  0  0  0  0  0  0  0  0  0
    5.5955    0.7535   20.0463 C   0  0  0  0  0  0  0  0  0  0  0  0
    5.2020    0.8433   21.0588 H   0  0  0  0  0  0  0  0  0  0  0  0
  1  2  1  0
  2  3  2  0
  3  4  2  0
  4  5  1  0
  5  6  1  0
  5  7  1  0
  5  8  1  0
  8  9  1  1
  8 10  1  0
  8 11  1  0
 11 12  2  0
 12 13  1  0
 12 14  1  0
 14 15  2  0
 15 16  1  0
 15 17  1  0
 17 18  1  0
 17 19  2  0
 19 20  1  0
 19 11  1  0
M  CHG  1   3   1
M  END
>  <cnnaffinity>  (1) 
4.00309

>  <plip>  (1) 
-0.2413793103448276

>  <filename>  (1) 
[H][N]=[N+]=[N][C]([H])([H])[C@@]([H])([Cl])[c]1[c]([H])[n][c]([H])[c]([H])[c]1[H]

>  <combo1>  (1) 
-1.7540801273781208

$$$$
