
     RDKit          3D

 35 37  0  0  0  0  0  0  0  0999 V2000
   11.1366    2.3029   21.4933 C   0  0  0  0  0  0  0  0  0  0  0  0
    9.7490    2.4621   21.6073 C   0  0  0  0  0  0  0  0  0  0  0  0
    9.0656    1.9163   22.6974 C   0  0  0  0  0  0  0  0  0  0  0  0
    9.7456    1.1111   23.6221 C   0  0  0  0  0  0  0  0  0  0  0  0
    9.0296    0.1619   24.5592 C   0  0  0  0  0  0  0  0  0  0  0  0
    9.0828   -1.2585   24.0358 C   0  0  0  0  0  0  0  0  0  0  0  0
    9.2937   -2.2209   24.9014 N   0  0  0  0  0  0  0  0  0  0  0  0
    9.3337   -3.3947   24.1900 O   0  0  0  0  0  0  0  0  0  0  0  0
    9.1606   -3.1131   22.8976 C   0  0  0  0  0  0  0  0  0  0  0  0
    9.0188   -1.7813   22.6996 C   0  0  0  0  0  0  0  0  0  0  0  0
    8.7972   -1.0709   21.3990 C   0  0  0  0  0  0  0  0  0  0  0  0
    7.4468   -0.5640   21.3420 N   0  0  0  0  0  0  0  0  0  0  0  0
    6.8555    0.0104   20.2288 C   0  0  0  0  0  0  0  0  0  0  0  0
    5.5891    0.6211   20.3520 C   0  0  0  0  0  0  0  0  0  0  0  0
    4.9984    1.1954   19.2234 C   0  0  0  0  0  0  0  0  0  0  0  0
    5.6601    1.1431   17.9902 C   0  0  0  0  0  0  0  0  0  0  0  0
    6.8573    0.5600   17.8332 N   0  0  0  0  0  0  0  0  0  0  0  0
    7.4336    0.0200   18.9206 C   0  0  0  0  0  0  0  0  0  0  0  0
    8.4118   -0.4314   18.7617 H   0  0  0  0  0  0  0  0  0  0  0  0
    5.2158    1.5801   17.0981 H   0  0  0  0  0  0  0  0  0  0  0  0
    4.0384    1.6960   19.2880 H   0  0  0  0  0  0  0  0  0  0  0  0
    5.0995    0.6462   21.3263 H   0  0  0  0  0  0  0  0  0  0  0  0
    6.9381   -0.5137   22.2118 H   0  0  0  0  0  0  0  0  0  0  0  0
    9.5261   -0.2613   21.2539 H   0  0  0  0  0  0  0  0  0  0  0  0
    8.9624   -1.7553   20.5565 H   0  0  0  0  0  0  0  0  0  0  0  0
    9.1367   -3.9722   22.2423 H   0  0  0  0  0  0  0  0  0  0  0  0
    9.5220    0.1564   25.5396 H   0  0  0  0  0  0  0  0  0  0  0  0
    7.9820    0.4560   24.7193 H   0  0  0  0  0  0  0  0  0  0  0  0
   11.1446    1.0239   23.5419 C   0  0  0  0  0  0  0  0  0  0  0  0
   11.8449    1.6249   22.4941 C   0  0  0  0  0  0  0  0  0  0  0  0
   12.9301    1.5319   22.4541 H   0  0  0  0  0  0  0  0  0  0  0  0
   11.6658    0.4309   24.2904 H   0  0  0  0  0  0  0  0  0  0  0  0
    7.9954    2.0926   22.7796 H   0  0  0  0  0  0  0  0  0  0  0  0
    9.1891    3.0048   20.8464 H   0  0  0  0  0  0  0  0  0  0  0  0
   11.6666    2.6901   20.6290 H   0  0  0  0  0  0  0  0  0  0  0  0
  1  2  2  0
  2  3  1  0
  3  4  2  0
  4  5  1  0
  5  6  1  0
  6  7  2  0
  7  8  1  0
  8  9  1  0
  9 10  2  0
 10 11  1  0
 11 12  1  0
 12 13  1  0
 13 14  2  0
 14 15  1  0
 15 16  2  0
 16 17  1  0
 17 18  2  0
 18 19  1  0
 16 20  1  0
 15 21  1  0
 14 22  1  0
 12 23  1  0
 11 24  1  0
 11 25  1  0
  9 26  1  0
  5 27  1  0
  5 28  1  0
  4 29  1  0
 29 30  2  0
 30 31  1  0
 29 32  1  0
  3 33  1  0
  2 34  1  0
  1 35  1  0
 30  1  1  0
 10  6  1  0
 18 13  1  0
M  END
>  <cnnaffinity>  (1) 
5.19195

>  <plip>  (1) 
-0.10714285714285714

>  <filename>  (1) 
[H][c]1[n][c]([H])[c]([N]([H])[C]([H])([H])[c]2[c]([C]([H])([H])[c]3[c]([H])[c]([H])[c]([H])[c]([H])[c]3[H])[n][o][c]2[H])[c]([H])[c]1[H]

>  <combo1>  (1) 
-0.698890325929404

$$$$
