
     RDKit          3D

 27 29  0  0  0  0  0  0  0  0999 V2000
    9.0466   -3.2498   22.3805 H   0  0  0  0  0  0  0  0  0  0  0  0
    8.4901   -2.3474   22.1624 C   0  0  0  0  0  0  0  0  0  0  0  0
    8.0785   -1.4372   23.0651 C   0  0  0  0  0  0  0  0  0  0  0  0
    8.2685   -1.4695   24.4627 N   0  0  0  0  0  0  0  0  0  0  0  0
    8.9988   -2.4592   25.0080 N   0  0  0  0  0  0  0  0  0  0  0  0
    8.9857   -2.2203   26.3076 C   0  0  0  0  0  0  0  0  0  0  0  0
    9.5112   -2.8811   26.9882 H   0  0  0  0  0  0  0  0  0  0  0  0
    8.2377   -1.0621   26.6209 C   0  0  0  0  0  0  0  0  0  0  0  0
    8.0707   -0.6379   27.6012 H   0  0  0  0  0  0  0  0  0  0  0  0
    7.7883   -0.6055   25.4063 C   0  0  0  0  0  0  0  0  0  0  0  0
    7.1833    0.2377   25.1030 H   0  0  0  0  0  0  0  0  0  0  0  0
    7.3617   -0.3300   22.3715 C   0  0  0  0  0  0  0  0  0  0  0  0
    6.8719    0.6925   22.8157 O   0  0  0  0  0  0  0  0  0  0  0  0
    7.3597   -0.6849   21.0107 N   0  0  0  0  0  0  0  0  0  0  0  0
    6.6810   -0.0011   19.9491 C   0  0  0  0  0  0  0  0  0  0  0  0
    7.1784    0.0489   18.6176 C   0  0  0  0  0  0  0  0  0  0  0  0
    8.1213   -0.4279   18.3670 H   0  0  0  0  0  0  0  0  0  0  0  0
    6.5706    0.6662   17.5956 N   0  0  0  0  0  0  0  0  0  0  0  0
    5.4062    1.2877   17.8419 C   0  0  0  0  0  0  0  0  0  0  0  0
    4.9227    1.7811   16.9976 H   0  0  0  0  0  0  0  0  0  0  0  0
    4.8199    1.2962   19.1120 C   0  0  0  0  0  0  0  0  0  0  0  0
    3.8878    1.8318   19.2619 H   0  0  0  0  0  0  0  0  0  0  0  0
    5.4516    0.6452   20.1803 C   0  0  0  0  0  0  0  0  0  0  0  0
    5.0290    0.6367   21.1814 H   0  0  0  0  0  0  0  0  0  0  0  0
    8.0848   -1.9285   20.7925 C   0  0  0  0  0  0  0  0  0  0  0  0
    8.9544   -1.7928   20.1242 H   0  0  0  0  0  0  0  0  0  0  0  0
    7.4269   -2.6711   20.3227 H   0  0  0  0  0  0  0  0  0  0  0  0
  1  2  1  0
  2  3  2  0
  3  4  1  0
  4  5  1  0
  5  6  2  0
  6  7  1  0
  6  8  1  0
  8  9  1  0
  8 10  2  0
 10 11  1  0
  3 12  1  0
 12 13  2  0
 12 14  1  0
 14 15  1  0
 15 16  2  0
 16 17  1  0
 16 18  1  0
 18 19  2  0
 19 20  1  0
 19 21  1  0
 21 22  1  0
 21 23  2  0
 23 24  1  0
 14 25  1  0
 25 26  1  0
 25 27  1  0
 25  2  1  0
 10  4  1  0
 23 15  1  0
M  END
>  <cnnaffinity>  (1) 
4.37124

>  <plip>  (1) 
-0.03571428571428571

>  <filename>  (1) 
[H][C]1=[C]([n]2[n][c]([H])[c]([H])[c]2[H])[C](=[O])[N]([c]2[c]([H])[n][c]([H])[c]([H])[c]2[H])[C]1([H])[H]

>  <combo1>  (1) 
-0.23001591869028518

$$$$
