
     RDKit          3D

 39 40  0  0  0  0  0  0  0  0999 V2000
    4.9684    1.8164   16.9613 H   0  0  0  0  0  0  0  0  0  0  0  0
    5.4466    1.3145   17.8012 C   0  0  0  0  0  0  0  0  0  0  0  0
    6.6173    0.7091   17.5377 N   0  0  0  0  0  0  0  0  0  0  0  0
    7.2301    0.0748   18.5455 C   0  0  0  0  0  0  0  0  0  0  0  0
    8.1789   -0.4027   18.3093 H   0  0  0  0  0  0  0  0  0  0  0  0
    6.7180   -0.0033   19.8594 C   0  0  0  0  0  0  0  0  0  0  0  0
    7.4310   -0.6630   20.9128 N   0  0  0  0  0  0  0  0  0  0  0  0
    8.2630   -0.1909   21.2418 H   0  0  0  0  0  0  0  0  0  0  0  0
    6.8356   -1.4606   21.8794 C   0  0  0  0  0  0  0  0  0  0  0  0
    5.8535   -2.1353   21.6406 O   0  0  0  0  0  0  0  0  0  0  0  0
    7.6012   -1.5627   23.2460 C   0  0  0  0  0  0  0  0  0  0  0  0
    8.3638   -0.2649   23.6117 C   0  0  0  0  0  0  0  0  0  0  0  0
    9.6848   -0.2817   24.0902 C   0  0  0  0  0  0  0  0  0  0  0  0
   10.2291   -1.2156   24.1764 H   0  0  0  0  0  0  0  0  0  0  0  0
   10.3307    0.9020   24.4641 C   0  0  0  0  0  0  0  0  0  0  0  0
   11.3515    0.8720   24.8356 H   0  0  0  0  0  0  0  0  0  0  0  0
    9.6724    2.1243   24.3742 C   0  0  0  0  0  0  0  0  0  0  0  0
   10.1690    3.0479   24.6641 H   0  0  0  0  0  0  0  0  0  0  0  0
    8.3419    2.1821   23.9191 C   0  0  0  0  0  0  0  0  0  0  0  0
    7.6648    3.5294   23.8401 C   0  0  0  0  0  0  0  0  0  0  0  0
    8.2018    4.5357   24.2679 O   0  0  0  0  0  0  0  0  0  0  0  0
    6.2834    3.5941   23.2286 C   0  0  0  0  0  0  0  0  0  0  0  0
    6.2730    3.1109   22.2447 H   0  0  0  0  0  0  0  0  0  0  0  0
    5.9811    4.6398   23.1405 H   0  0  0  0  0  0  0  0  0  0  0  0
    5.5751    3.0605   23.8726 H   0  0  0  0  0  0  0  0  0  0  0  0
    7.6990    0.9772   23.5628 C   0  0  0  0  0  0  0  0  0  0  0  0
    6.6575    0.9797   23.2339 H   0  0  0  0  0  0  0  0  0  0  0  0
    8.5277   -2.7991   23.0849 C   0  0  0  0  0  0  0  0  0  0  0  0
    9.0205   -3.0480   24.0327 H   0  0  0  0  0  0  0  0  0  0  0  0
    9.2976   -2.6303   22.3208 H   0  0  0  0  0  0  0  0  0  0  0  0
    7.9337   -3.6713   22.7876 H   0  0  0  0  0  0  0  0  0  0  0  0
    6.6097   -1.8495   24.3996 C   0  0  0  0  0  0  0  0  0  0  0  0
    5.9318   -1.0045   24.5728 H   0  0  0  0  0  0  0  0  0  0  0  0
    7.1672   -2.0275   25.3278 H   0  0  0  0  0  0  0  0  0  0  0  0
    6.0048   -2.7344   24.1787 H   0  0  0  0  0  0  0  0  0  0  0  0
    5.4906    0.6225   20.1124 C   0  0  0  0  0  0  0  0  0  0  0  0
    5.0656    0.5777   21.1161 H   0  0  0  0  0  0  0  0  0  0  0  0
    4.8509    1.2971   19.0652 C   0  0  0  0  0  0  0  0  0  0  0  0
    3.9082    1.8130   19.2138 H   0  0  0  0  0  0  0  0  0  0  0  0
  1  2  1  0
  2  3  2  0
  3  4  1  0
  4  5  1  0
  4  6  2  0
  6  7  1  0
  7  8  1  0
  7  9  1  0
  9 10  2  0
  9 11  1  0
 11 12  1  0
 12 13  2  0
 13 14  1  0
 13 15  1  0
 15 16  1  0
 15 17  2  0
 17 18  1  0
 17 19  1  0
 19 20  1  0
 20 21  2  0
 20 22  1  0
 22 23  1  0
 22 24  1  0
 22 25  1  0
 19 26  2  0
 26 27  1  0
 11 28  1  0
 28 29  1  0
 28 30  1  0
 28 31  1  0
 11 32  1  0
 32 33  1  0
 32 34  1  0
 32 35  1  0
  6 36  1  0
 36 37  1  0
 36 38  2  0
 38 39  1  0
 38  2  1  0
 26 12  1  0
M  END
>  <cnnaffinity>  (1) 
5.0685

>  <plip>  (1) 
-0.10714285714285714

>  <filename>  (1) 
[H][c]1[n][c]([H])[c]([N]([H])[C](=[O])[C]([c]2[c]([H])[c]([H])[c]([H])[c]([C](=[O])[C]([H])([H])[H])[c]2[H])([C]([H])([H])[H])[C]([H])([H])[H])[c]([H])[c]1[H]

>  <combo1>  (1) 
-0.6411274837444424

$$$$
