
     RDKit          3D

 32 34  0  0  0  0  0  0  0  0999 V2000
    4.8107    1.8943   16.8659 H   0  0  0  0  0  0  0  0  0  0  0  0
    5.2760    1.4037   17.7313 C   0  0  0  0  0  0  0  0  0  0  0  0
    6.4520    0.8254   17.4315 N   0  0  0  0  0  0  0  0  0  0  0  0
    7.1235    0.2469   18.4531 C   0  0  0  0  0  0  0  0  0  0  0  0
    8.0389   -0.2400   18.1843 H   0  0  0  0  0  0  0  0  0  0  0  0
    6.6645    0.1394   19.7802 C   0  0  0  0  0  0  0  0  0  0  0  0
    7.3509   -0.7816   20.8788 N   0  0  0  0  0  0  0  0  0  0  0  0
    7.5328   -2.2143   20.7561 C   0  0  0  0  0  0  0  0  0  0  0  0
    7.5328   -2.2142   20.7560 O   0  0  0  0  0  0  0  0  0  0  0  0
    9.7488   -1.8428   22.0706 N   0  0  0  0  0  0  0  0  0  0  0  0
    9.9923   -2.7519   22.4919 H   0  0  0  0  0  0  0  0  0  0  0  0
    9.1483   -1.0463   22.8884 C   0  0  0  0  0  0  0  0  0  0  0  0
    9.4299   -0.5858   23.9702 O   0  0  0  0  0  0  0  0  0  0  0  0
    7.8461   -0.3005   22.1852 C   0  0  2  0  0  0  0  0  0  0  0  0
    8.1151    0.7615   22.0930 H   0  0  0  0  0  0  0  0  0  0  0  0
    6.9121   -0.0178   23.4585 C   0  0  0  0  0  0  0  0  0  0  0  0
    6.4658    1.2162   23.7666 N   0  0  0  0  0  0  0  0  0  0  0  0
    5.5540    1.3949   24.7307 C   0  0  0  0  0  0  0  0  0  0  0  0
    5.1369    2.7596   25.2177 C   0  0  0  0  0  0  0  0  0  0  0  0
    4.1260    3.0899   24.9266 H   0  0  0  0  0  0  0  0  0  0  0  0
    5.1127    2.7253   26.3138 H   0  0  0  0  0  0  0  0  0  0  0  0
    5.8618    3.4964   24.9094 H   0  0  0  0  0  0  0  0  0  0  0  0
    4.9151    0.2960   25.3393 C   0  0  0  0  0  0  0  0  0  0  0  0
    3.9080    0.4480   25.7244 H   0  0  0  0  0  0  0  0  0  0  0  0
    5.3358   -0.9746   25.0717 C   0  0  0  0  0  0  0  0  0  0  0  0
    4.7620   -1.9078   25.3571 H   0  0  0  0  0  0  0  0  0  0  0  0
    6.2789   -1.1076   24.0900 C   0  0  0  0  0  0  0  0  0  0  0  0
    6.4110   -2.0166   23.5124 H   0  0  0  0  0  0  0  0  0  0  0  0
    5.4339    0.7789   20.0979 C   0  0  0  0  0  0  0  0  0  0  0  0
    5.0204    0.6734   21.1162 H   0  0  0  0  0  0  0  0  0  0  0  0
    4.7212    1.4066   19.0284 C   0  0  0  0  0  0  0  0  0  0  0  0
    3.7553    1.9119   19.1688 H   0  0  0  0  0  0  0  0  0  0  0  0
  1  2  1  0
  2  3  2  0
  3  4  1  0
  4  5  1  0
  4  6  2  0
  6  7  1  0
  7  8  1  0
  8  9  2  0
  8 10  1  0
 10 11  1  0
 10 12  1  0
 12 13  2  0
 12 14  1  0
 14 15  1  6
 14 16  1  0
 16 17  2  0
 17 18  1  0
 18 19  1  0
 19 20  1  0
 19 21  1  0
 19 22  1  0
 18 23  2  0
 23 24  1  0
 23 25  1  0
 25 26  1  0
 25 27  2  0
 27 28  1  0
  6 29  1  0
 29 30  1  0
 29 31  2  0
 31 32  1  0
 31  2  1  0
 14  7  1  0
 27 16  1  0
M  END
>  <cnnaffinity>  (1) 
4.70115

>  <plip>  (1) 
-0.06666666666666667

>  <filename>  (1) 
[H][c]1[n][c]([H])[c]([N]2[C](=[O])[N]([H])[C](=[O])[C@]2([H])[c]2[n][c]([C]([H])([H])[H])[c]([H])[c]([H])[c]2[H])[c]([H])[c]1[H]

>  <combo1>  (1) 
-0.3894123961889994

$$$$
