
     RDKit          3D

 29 30  0  0  0  0  0  0  0  0999 V2000
    6.7915   -1.7712   24.9074 H   0  0  0  0  0  0  0  0  0  0  0  0
    7.8150   -1.8498   24.8237 N   0  0  0  0  0  0  0  0  0  0  0  0
    8.2481   -1.2998   23.8321 N   0  0  0  0  0  4  0  0  0  0  0  0
    8.9258   -0.8844   22.9218 N   0  0  0  0  0  0  0  0  0  0  0  0
    8.3197    0.1157   21.9680 C   0  0  2  0  0  0  0  0  0  0  0  0
    7.3566   -0.6763   21.0353 C   0  0  0  0  0  0  0  0  0  0  0  0
    7.9355   -1.5203   20.6467 H   0  0  0  0  0  0  0  0  0  0  0  0
    6.5800   -1.1117   21.6705 H   0  0  0  0  0  0  0  0  0  0  0  0
    6.6812    0.0626   19.9042 C   0  0  0  0  0  0  0  0  0  0  0  0
    7.1950    0.0937   18.5939 C   0  0  0  0  0  0  0  0  0  0  0  0
    8.1214   -0.4383   18.3660 H   0  0  0  0  0  0  0  0  0  0  0  0
    6.6121    0.7123   17.5572 N   0  0  0  0  0  0  0  0  0  0  0  0
    5.4540    1.3456   17.7960 C   0  0  0  0  0  0  0  0  0  0  0  0
    4.9953    1.8478   16.9456 H   0  0  0  0  0  0  0  0  0  0  0  0
    4.8356    1.3706   19.0496 C   0  0  0  0  0  0  0  0  0  0  0  0
    3.8891    1.8854   19.1759 H   0  0  0  0  0  0  0  0  0  0  0  0
    5.4587    0.7172   20.1159 C   0  0  0  0  0  0  0  0  0  0  0  0
    5.0005    0.7110   21.1083 H   0  0  0  0  0  0  0  0  0  0  0  0
    9.4358    0.8136   21.1706 C   0  0  0  0  0  0  0  0  0  0  0  0
    9.6524    0.2745   20.2390 H   0  0  0  0  0  0  0  0  0  0  0  0
   10.3726    0.8354   21.7417 H   0  0  0  0  0  0  0  0  0  0  0  0
    8.9194    2.1462   20.8668 N   0  0  0  0  0  0  0  0  0  0  0  0
    9.6350    2.8666   20.7909 H   0  0  0  0  0  0  0  0  0  0  0  0
    7.8329    2.5138   21.7713 C   0  0  0  0  0  0  0  0  0  0  0  0
    8.0432    3.4375   22.3334 H   0  0  0  0  0  0  0  0  0  0  0  0
    6.9084    2.6976   21.2038 H   0  0  0  0  0  0  0  0  0  0  0  0
    7.6828    1.3127   22.7038 C   0  0  0  0  0  0  0  0  0  0  0  0
    6.6471    1.1279   22.9997 H   0  0  0  0  0  0  0  0  0  0  0  0
    8.2693    1.4790   23.6127 H   0  0  0  0  0  0  0  0  0  0  0  0
  1  2  1  0
  2  3  2  0
  3  4  2  0
  4  5  1  0
  5  6  1  6
  6  7  1  0
  6  8  1  0
  6  9  1  0
  9 10  2  0
 10 11  1  0
 10 12  1  0
 12 13  2  0
 13 14  1  0
 13 15  1  0
 15 16  1  0
 15 17  2  0
 17 18  1  0
  5 19  1  0
 19 20  1  0
 19 21  1  0
 19 22  1  0
 22 23  1  0
 22 24  1  0
 24 25  1  0
 24 26  1  0
 24 27  1  0
 27 28  1  0
 27 29  1  0
 27  5  1  0
 17  9  1  0
M  CHG  1   3   1
M  END
>  <cnnaffinity>  (1) 
4.05553

>  <plip>  (1) 
-0.14285714285714285

>  <filename>  (1) 
[H][N]=[N+]=[N][C@]1([C]([H])([H])[c]2[c]([H])[n][c]([H])[c]([H])[c]2[H])[C]([H])([H])[N]([H])[C]([H])([H])[C]1([H])[H]

>  <combo1>  (1) 
-0.9454778841874508

$$$$
