
     RDKit          3D

 37 39  0  0  0  0  0  0  0  0999 V2000
   10.5734    0.3935   22.2696 C   0  0  0  0  0  0  0  0  0  0  0  0
    9.4499    0.7598   21.3054 C   0  0  0  0  0  0  0  0  0  0  0  0
    8.1739    0.2640   21.8224 N   0  0  0  0  0  0  0  0  0  0  0  0
    7.4010   -0.6813   21.0235 C   0  0  0  0  0  0  0  0  0  0  0  0
    6.6485   -0.0001   19.9035 C   0  0  0  0  0  0  0  0  0  0  0  0
    5.4308    0.6475   20.1479 C   0  0  0  0  0  0  0  0  0  0  0  0
    4.8004    1.3109   19.0952 C   0  0  0  0  0  0  0  0  0  0  0  0
    5.3988    1.2950   17.8323 C   0  0  0  0  0  0  0  0  0  0  0  0
    6.5633    0.6820   17.5767 N   0  0  0  0  0  0  0  0  0  0  0  0
    7.1673    0.0631   18.6006 C   0  0  0  0  0  0  0  0  0  0  0  0
    8.1168   -0.4208   18.3604 H   0  0  0  0  0  0  0  0  0  0  0  0
    4.9217    1.7874   16.9876 H   0  0  0  0  0  0  0  0  0  0  0  0
    3.8728    1.8454   19.2466 H   0  0  0  0  0  0  0  0  0  0  0  0
    4.9932    0.6404   21.1492 H   0  0  0  0  0  0  0  0  0  0  0  0
    6.7079   -1.2075   21.6879 H   0  0  0  0  0  0  0  0  0  0  0  0
    8.0960   -1.4371   20.6313 H   0  0  0  0  0  0  0  0  0  0  0  0
    7.5727    0.9986   22.8493 C   0  0  0  0  0  0  0  0  0  0  0  0
    7.5639    2.2182   22.8336 O   0  0  0  0  0  0  0  0  0  0  0  0
    6.9612    0.2764   23.9684 C   0  0  0  0  0  0  0  0  0  0  0  0
    6.0908    0.7896   24.9050 C   0  0  0  0  0  0  0  0  0  0  0  0
    5.8357   -0.1686   25.8421 N   0  0  0  0  0  0  0  0  0  0  0  0
    6.5471   -1.3068   25.5622 C   0  0  0  0  0  0  0  0  0  0  0  0
    6.6350   -2.5373   26.2307 C   0  0  0  0  0  0  0  0  0  0  0  0
    7.4997   -3.4598   25.6515 C   0  0  0  0  0  0  0  0  0  0  0  0
    8.2166   -3.1228   24.4732 C   0  0  0  0  0  0  0  0  0  0  0  0
    8.1294   -1.9661   23.8244 N   0  0  0  0  0  0  0  0  0  0  0  0
    7.2860   -1.0601   24.3707 C   0  0  0  0  0  0  0  0  0  0  0  0
    8.8923   -3.8607   24.0384 H   0  0  0  0  0  0  0  0  0  0  0  0
    7.6411   -4.4441   26.0879 H   0  0  0  0  0  0  0  0  0  0  0  0
    6.0684   -2.7519   27.1411 H   0  0  0  0  0  0  0  0  0  0  0  0
    5.2381   -0.0672   26.6414 H   0  0  0  0  0  0  0  0  0  0  0  0
    5.6478    1.7779   24.9836 H   0  0  0  0  0  0  0  0  0  0  0  0
    9.6252    0.2989   20.3244 H   0  0  0  0  0  0  0  0  0  0  0  0
    9.4052    1.8468   21.1364 H   0  0  0  0  0  0  0  0  0  0  0  0
   11.5490    0.7063   21.8817 H   0  0  0  0  0  0  0  0  0  0  0  0
   10.5924   -0.6906   22.4352 H   0  0  0  0  0  0  0  0  0  0  0  0
   10.4192    0.8786   23.2390 H   0  0  0  0  0  0  0  0  0  0  0  0
  1  2  1  0
  2  3  1  0
  3  4  1  0
  4  5  1  0
  5  6  2  0
  6  7  1  0
  7  8  2  0
  8  9  1  0
  9 10  2  0
 10 11  1  0
  8 12  1  0
  7 13  1  0
  6 14  1  0
  4 15  1  0
  4 16  1  0
  3 17  1  0
 17 18  2  0
 17 19  1  0
 19 20  2  0
 20 21  1  0
 21 22  1  0
 22 23  2  0
 23 24  1  0
 24 25  2  0
 25 26  1  0
 26 27  2  0
 25 28  1  0
 24 29  1  0
 23 30  1  0
 21 31  1  0
 20 32  1  0
  2 33  1  0
  2 34  1  0
  1 35  1  0
  1 36  1  0
  1 37  1  0
 10  5  1  0
 27 19  1  0
 27 22  1  0
M  END
>  <cnnaffinity>  (1) 
4.97559

>  <plip>  (1) 
-0.0

>  <filename>  (1) 
[H][c]1[n][c]([H])[c]([C]([H])([H])[N]([C](=[O])[c]2[c]([H])[n]([H])[c]3[c]([H])[c]([H])[c]([H])[n][c]23)[C]([H])([H])[C]([H])([H])[H])[c]([H])[c]1[H]

>  <combo1>  (1) 
-5.916327484295357e-06

$$$$
