
     RDKit          3D

 43 46  0  0  0  0  0  0  0  0999 V2000
    6.8120   -3.7185   20.5440 H   0  0  0  0  0  0  0  0  0  0  0  0
    6.6727   -2.7415   20.3228 N   0  0  0  0  0  0  0  0  0  0  0  0
    7.3686   -2.0133   21.0875 C   0  0  0  0  0  0  0  0  0  0  0  0
    8.4623   -2.4881   22.4167 S   0  0  0  0  0  0  0  0  0  0  0  0
    8.3684   -0.8641   23.0494 C   0  0  0  0  0  0  0  0  0  0  0  0
    8.7618   -0.5811   24.0096 H   0  0  0  0  0  0  0  0  0  0  0  0
    7.7163   -0.0272   22.2226 C   0  0  0  0  0  0  0  0  0  0  0  0
    7.4496    1.3043   22.4473 N   0  0  0  0  0  0  0  0  0  0  0  0
    8.2300    2.2992   21.6859 C   0  0  0  0  0  0  0  0  0  0  0  0
    7.8758    2.3160   20.6488 H   0  0  0  0  0  0  0  0  0  0  0  0
    9.2908    2.0034   21.6578 H   0  0  0  0  0  0  0  0  0  0  0  0
    8.0837    3.7060   22.3000 C   0  0  0  0  0  0  0  0  0  0  0  0
    7.0668    4.0594   22.0663 H   0  0  0  0  0  0  0  0  0  0  0  0
    8.7641    4.4190   21.8278 H   0  0  0  0  0  0  0  0  0  0  0  0
    8.2799    3.7181   23.7504 N   0  0  0  0  0  0  0  0  0  0  0  0
    9.3198    4.4340   24.3614 C   0  0  0  0  0  0  0  0  0  0  0  0
    9.0586    5.0985   25.5727 C   0  0  0  0  0  0  0  0  0  0  0  0
    8.0609    5.0149   25.9928 H   0  0  0  0  0  0  0  0  0  0  0  0
   10.0459    5.8684   26.1868 C   0  0  0  0  0  0  0  0  0  0  0  0
    9.8114    6.4040   27.1037 H   0  0  0  0  0  0  0  0  0  0  0  0
   11.3220    5.9516   25.6201 C   0  0  0  0  0  0  0  0  0  0  0  0
   12.0887    6.5525   26.0987 H   0  0  0  0  0  0  0  0  0  0  0  0
   11.6055    5.2627   24.4357 C   0  0  0  0  0  0  0  0  0  0  0  0
   12.5977    5.3213   23.9931 H   0  0  0  0  0  0  0  0  0  0  0  0
   10.6093    4.5127   23.8016 C   0  0  0  0  0  0  0  0  0  0  0  0
   10.8160    3.9752   22.8797 H   0  0  0  0  0  0  0  0  0  0  0  0
    7.6223    2.6704   24.5380 C   0  0  0  0  0  0  0  0  0  0  0  0
    8.3772    2.0552   25.0563 H   0  0  0  0  0  0  0  0  0  0  0  0
    6.9939    3.1161   25.3265 H   0  0  0  0  0  0  0  0  0  0  0  0
    6.7480    1.7614   23.6531 C   0  0  0  0  0  0  0  0  0  0  0  0
    5.8554    2.3384   23.3624 H   0  0  0  0  0  0  0  0  0  0  0  0
    6.4003    0.8996   24.2275 H   0  0  0  0  0  0  0  0  0  0  0  0
    7.3271   -0.6186   21.0137 N   0  0  0  0  0  0  0  0  0  0  0  0
    6.6480    0.0465   19.9244 C   0  0  0  0  0  0  0  0  0  0  0  0
    7.1731    0.0707   18.6112 C   0  0  0  0  0  0  0  0  0  0  0  0
    8.1076   -0.4502   18.4063 H   0  0  0  0  0  0  0  0  0  0  0  0
    6.5794    0.6963   17.5846 N   0  0  0  0  0  0  0  0  0  0  0  0
    5.4100    1.3138   17.8223 C   0  0  0  0  0  0  0  0  0  0  0  0
    4.9445    1.7990   16.9674 H   0  0  0  0  0  0  0  0  0  0  0  0
    4.7947    1.3292   19.0784 C   0  0  0  0  0  0  0  0  0  0  0  0
    3.8417    1.8299   19.2044 H   0  0  0  0  0  0  0  0  0  0  0  0
    5.4278    0.6894   20.1495 C   0  0  0  0  0  0  0  0  0  0  0  0
    5.0013    0.6779   21.1511 H   0  0  0  0  0  0  0  0  0  0  0  0
  1  2  1  0
  2  3  2  3
  3  4  1  0
  4  5  1  0
  5  6  1  0
  5  7  2  0
  7  8  1  0
  8  9  1  0
  9 10  1  0
  9 11  1  0
  9 12  1  0
 12 13  1  0
 12 14  1  0
 12 15  1  0
 15 16  1  0
 16 17  2  0
 17 18  1  0
 17 19  1  0
 19 20  1  0
 19 21  2  0
 21 22  1  0
 21 23  1  0
 23 24  1  0
 23 25  2  0
 25 26  1  0
 15 27  1  0
 27 28  1  0
 27 29  1  0
 27 30  1  0
 30 31  1  0
 30 32  1  0
  7 33  1  0
 33 34  1  0
 34 35  2  0
 35 36  1  0
 35 37  1  0
 37 38  2  0
 38 39  1  0
 38 40  1  0
 40 41  1  0
 40 42  2  0
 42 43  1  0
 33  3  1  0
 42 34  1  0
 30  8  1  0
 25 16  1  0
M  END
>  <cnnaffinity>  (1) 
5.32743

>  <plip>  (1) 
-0.10714285714285714

>  <filename>  (1) 
[H][N]=[c]1[s][c]([H])[c]([N]2[C]([H])([H])[C]([H])([H])[N]([c]3[c]([H])[c]([H])[c]([H])[c]([H])[c]3[H])[C]([H])([H])[C]2([H])[H])[n]1-[c]1[c]([H])[n][c]([H])[c]([H])[c]1[H]

>  <combo1>  (1) 
-0.563829395418777

$$$$
