
     RDKit          3D

 28 30  0  0  0  0  0  0  0  0999 V2000
    6.0504   -2.3183   19.7565 H   0  0  0  0  0  0  0  0  0  0  0  0
    6.5150   -2.9059   20.4487 N   0  0  0  0  0  0  0  0  0  0  0  0
    7.1995   -2.0995   21.1509 C   0  0  0  0  0  0  0  0  0  0  0  0
    8.1998   -2.5803   22.5328 S   0  0  0  0  0  0  0  0  0  0  0  0
    8.6797   -0.9424   22.8160 C   0  0  0  0  0  0  0  0  0  0  0  0
    9.3207   -0.6807   23.6490 H   0  0  0  0  0  0  0  0  0  0  0  0
    8.1233   -0.0747   21.9301 C   0  0  0  0  0  0  0  0  0  0  0  0
    8.1852    1.3759   21.9467 C   0  0  0  0  0  0  0  0  0  0  0  0
    7.2471    1.8738   21.6970 H   0  0  0  0  0  0  0  0  0  0  0  0
    9.2824    2.1143   22.2589 C   0  0  0  0  0  0  0  0  0  0  0  0
    9.3093    3.8167   22.7514 S   0  0  0  0  0  0  0  0  0  0  0  0
   11.0586    3.9449   22.5050 C   0  0  0  0  0  0  0  0  0  0  0  0
   11.9630    5.2977   22.5872 S   0  0  0  0  0  0  0  0  0  0  0  0
   11.5421    2.7123   22.2166 N   0  0  0  0  0  0  0  0  0  0  0  0
   12.5039    2.5950   21.9468 H   0  0  0  0  0  0  0  0  0  0  0  0
   10.6787    1.6577   22.0092 C   0  0  0  0  0  0  0  0  0  0  0  0
   11.0681    0.5780   21.6319 O   0  0  0  0  0  0  0  0  0  0  0  0
    7.2926   -0.7084   20.9845 N   0  0  0  0  0  0  0  0  0  0  0  0
    6.6459   -0.0190   19.8881 C   0  0  0  0  0  0  0  0  0  0  0  0
    7.1913    0.0748   18.5824 C   0  0  0  0  0  0  0  0  0  0  0  0
    8.1532   -0.3855   18.3484 H   0  0  0  0  0  0  0  0  0  0  0  0
    6.5878    0.7192   17.5700 N   0  0  0  0  0  0  0  0  0  0  0  0
    5.4141    1.3245   17.8199 C   0  0  0  0  0  0  0  0  0  0  0  0
    4.9448    1.8417   16.9858 H   0  0  0  0  0  0  0  0  0  0  0  0
    4.7938    1.3012   19.0712 C   0  0  0  0  0  0  0  0  0  0  0  0
    3.8614    1.8333   19.2247 H   0  0  0  0  0  0  0  0  0  0  0  0
    5.4269    0.6268   20.1224 C   0  0  0  0  0  0  0  0  0  0  0  0
    5.0245    0.6279   21.1336 H   0  0  0  0  0  0  0  0  0  0  0  0
  1  2  1  0
  2  3  2  3
  3  4  1  0
  4  5  1  0
  5  6  1  0
  5  7  2  0
  7  8  1  0
  8  9  1  0
  8 10  2  3
 10 11  1  0
 11 12  1  0
 12 13  2  0
 12 14  1  0
 14 15  1  0
 14 16  1  0
 16 17  2  0
  7 18  1  0
 18 19  1  0
 19 20  2  0
 20 21  1  0
 20 22  1  0
 22 23  2  0
 23 24  1  0
 23 25  1  0
 25 26  1  0
 25 27  2  0
 27 28  1  0
 18  3  1  0
 27 19  1  0
 16 10  1  0
M  END
>  <cnnaffinity>  (1) 
5.46627

>  <plip>  (1) 
-0.07142857142857142

>  <filename>  (1) 
[H][N]=[c]1[s][c]([H])[c]([C]([H])=[C]2[S][C](=[S])[N]([H])[C]2=[O])[n]1-[c]1[c]([H])[n][c]([H])[c]([H])[c]1[H]

>  <combo1>  (1) 
-0.40617833156781546

$$$$
