
     RDKit          3D

 44 47  0  0  0  0  0  0  0  0999 V2000
    5.5297   -2.2734   26.4719 C   0  0  0  0  0  0  0  0  0  0  0  0
    6.3026   -1.3277   25.6996 N   0  0  0  0  0  0  0  0  0  0  0  0
    7.2015   -1.6291   24.7001 C   0  0  0  0  0  0  0  0  0  0  0  0
    7.7256   -0.4979   24.1418 C   0  0  0  0  0  0  0  0  0  0  0  0
    8.7633   -0.4195   23.0667 C   0  0  0  0  0  0  0  0  0  0  0  0
   10.0113    0.4201   23.3944 C   0  0  0  0  0  0  0  0  0  0  0  0
   10.2549    1.3740   22.2013 C   0  0  0  0  0  0  0  0  0  0  0  0
    9.3145    0.9185   21.0774 C   0  0  0  0  0  0  0  0  0  0  0  0
    8.1987    0.2300   21.8055 N   0  0  0  0  0  4  0  0  0  0  0  0
    7.3811   -0.7044   20.9945 C   0  0  0  0  0  0  0  0  0  0  0  0
    6.6435    0.0253   19.9133 C   0  0  0  0  0  0  0  0  0  0  0  0
    5.4230    0.6688   20.1509 C   0  0  0  0  0  0  0  0  0  0  0  0
    4.7916    1.3216   19.0917 C   0  0  0  0  0  0  0  0  0  0  0  0
    5.3974    1.3055   17.8316 C   0  0  0  0  0  0  0  0  0  0  0  0
    6.5672    0.6970   17.5901 N   0  0  0  0  0  0  0  0  0  0  0  0
    7.1689    0.0828   18.6147 C   0  0  0  0  0  0  0  0  0  0  0  0
    8.1193   -0.4050   18.3867 H   0  0  0  0  0  0  0  0  0  0  0  0
    4.9331    1.8015   16.9789 H   0  0  0  0  0  0  0  0  0  0  0  0
    3.8593    1.8533   19.2267 H   0  0  0  0  0  0  0  0  0  0  0  0
    4.9955    0.6558   21.1552 H   0  0  0  0  0  0  0  0  0  0  0  0
    8.0417   -1.4745   20.5625 H   0  0  0  0  0  0  0  0  0  0  0  0
    6.6892   -1.2193   21.6697 H   0  0  0  0  0  0  0  0  0  0  0  0
    7.5129    0.9347   22.2014 H   0  0  0  0  0  0  0  0  0  0  0  0
    8.9256    1.7374   20.4662 H   0  0  0  0  0  0  0  0  0  0  0  0
    9.8025    0.2094   20.3950 H   0  0  0  0  0  0  0  0  0  0  0  0
   10.0416    2.4142   22.4807 H   0  0  0  0  0  0  0  0  0  0  0  0
   11.2971    1.3550   21.8647 H   0  0  0  0  0  0  0  0  0  0  0  0
   10.8482   -0.2612   23.5620 H   0  0  0  0  0  0  0  0  0  0  0  0
    9.8825    0.9642   24.3378 H   0  0  0  0  0  0  0  0  0  0  0  0
    9.0626   -1.4409   22.7894 H   0  0  0  0  0  0  0  0  0  0  0  0
    7.1064    0.6076   24.8412 C   0  0  0  0  0  0  0  0  0  0  0  0
    7.2080    2.0129   24.7544 C   0  0  0  0  0  0  0  0  0  0  0  0
    6.4509    2.8086   25.6014 C   0  0  0  0  0  0  0  0  0  0  0  0
    5.5734    2.2288   26.5486 C   0  0  0  0  0  0  0  0  0  0  0  0
    5.4524    0.8506   26.6610 C   0  0  0  0  0  0  0  0  0  0  0  0
    6.2277    0.0452   25.8020 C   0  0  0  0  0  0  0  0  0  0  0  0
    4.7764    0.4050   27.3858 H   0  0  0  0  0  0  0  0  0  0  0  0
    4.9831    2.8764   27.1943 H   0  0  0  0  0  0  0  0  0  0  0  0
    6.5235    3.8916   25.5381 H   0  0  0  0  0  0  0  0  0  0  0  0
    7.8856    2.4565   24.0277 H   0  0  0  0  0  0  0  0  0  0  0  0
    7.3893   -2.6703   24.4606 H   0  0  0  0  0  0  0  0  0  0  0  0
    5.6833   -2.1005   27.5444 H   0  0  0  0  0  0  0  0  0  0  0  0
    5.8543   -3.2900   26.2274 H   0  0  0  0  0  0  0  0  0  0  0  0
    4.4610   -2.1740   26.2424 H   0  0  0  0  0  0  0  0  0  0  0  0
  1  2  1  0
  2  3  1  0
  3  4  2  0
  4  5  1  0
  5  6  1  0
  6  7  1  0
  7  8  1  0
  8  9  1  0
  9 10  1  0
 10 11  1  0
 11 12  2  0
 12 13  1  0
 13 14  2  0
 14 15  1  0
 15 16  2  0
 16 17  1  0
 14 18  1  0
 13 19  1  0
 12 20  1  0
 10 21  1  0
 10 22  1  0
  9 23  1  0
  8 24  1  0
  8 25  1  0
  7 26  1  0
  7 27  1  0
  6 28  1  0
  6 29  1  0
  5 30  1  0
  4 31  1  0
 31 32  2  0
 32 33  1  0
 33 34  2  0
 34 35  1  0
 35 36  2  0
 35 37  1  0
 34 38  1  0
 33 39  1  0
 32 40  1  0
  3 41  1  0
  1 42  1  0
  1 43  1  0
  1 44  1  0
 36  2  1  0
  9  5  1  0
 16 11  1  0
 36 31  1  0
M  CHG  1   9   1
M  END
>  <cnnaffinity>  (1) 
4.97758

>  <plip>  (1) 
-0.03571428571428571

>  <filename>  (1) 
[H][c]1[n][c]([H])[c]([C]([H])([H])[N+]2([H])[C]([H])([H])[C]([H])([H])[C]([H])([H])[C]2([H])[c]2[c]([H])[n]([C]([H])([H])[H])[c]3[c]([H])[c]([H])[c]([H])[c]([H])[c]23)[c]([H])[c]1[H]

>  <combo1>  (1) 
-0.2026528346268707

$$$$
