
     RDKit          3D

 43 45  0  0  0  0  0  0  0  0999 V2000
   12.3101    5.7180   23.7997 C   0  0  0  0  0  0  0  0  0  0  0  0
   11.7823    4.2875   23.6986 C   0  0  0  0  0  0  0  0  0  0  0  0
   12.7249    3.2915   22.9804 C   0  0  0  0  0  0  0  0  0  0  0  0
   11.9430    2.7548   21.7717 C   0  0  0  0  0  0  0  0  0  0  0  0
   10.4432    2.9169   22.0866 C   0  0  0  0  0  0  0  0  0  0  0  0
    9.6994    1.7439   22.7287 C   0  0  0  0  0  0  0  0  0  0  0  0
    8.2302    1.9009   22.3358 N   0  0  0  0  0  4  0  0  0  0  0  0
    7.3035    0.9794   23.0180 C   0  0  0  0  0  0  0  0  0  0  0  0
    7.5516   -0.3609   22.3956 C   0  0  0  0  0  0  0  0  0  0  0  0
    8.2758   -1.3999   22.9310 C   0  0  0  0  0  0  0  0  0  0  0  0
    8.5768   -2.2193   21.8943 N   0  0  0  0  0  0  0  0  0  0  0  0
    8.1006   -1.7783   20.7236 N   0  0  0  0  0  0  0  0  0  0  0  0
    7.4521   -0.6506   21.0071 C   0  0  0  0  0  0  0  0  0  0  0  0
    6.7159    0.0868   19.9606 C   0  0  0  0  0  0  0  0  0  0  0  0
    5.4880    0.7344   20.1780 C   0  0  0  0  0  0  0  0  0  0  0  0
    4.8568    1.3548   19.0982 C   0  0  0  0  0  0  0  0  0  0  0  0
    5.4762    1.3140   17.8448 C   0  0  0  0  0  0  0  0  0  0  0  0
    6.6450    0.6988   17.6227 N   0  0  0  0  0  0  0  0  0  0  0  0
    7.2350    0.0899   18.6555 C   0  0  0  0  0  0  0  0  0  0  0  0
    8.1666   -0.4252   18.4340 H   0  0  0  0  0  0  0  0  0  0  0  0
    5.0111    1.7842   16.9789 H   0  0  0  0  0  0  0  0  0  0  0  0
    3.9093    1.8656   19.2099 H   0  0  0  0  0  0  0  0  0  0  0  0
    5.0328    0.7495   21.1687 H   0  0  0  0  0  0  0  0  0  0  0  0
    9.1227   -3.0688   21.9036 H   0  0  0  0  0  0  0  0  0  0  0  0
    8.6368   -1.5625   23.9425 H   0  0  0  0  0  0  0  0  0  0  0  0
    6.2697    1.3127   22.9046 H   0  0  0  0  0  0  0  0  0  0  0  0
    7.5152    0.9247   24.0914 H   0  0  0  0  0  0  0  0  0  0  0  0
    8.1320    1.6349   21.3143 H   0  0  0  0  0  0  0  0  0  0  0  0
    7.9986    2.9050   22.4517 H   0  0  0  0  0  0  0  0  0  0  0  0
   10.0624    0.7782   22.3636 H   0  0  0  0  0  0  0  0  0  0  0  0
    9.8047    1.7348   23.8249 H   0  0  0  0  0  0  0  0  0  0  0  0
   10.4234    4.2108   22.9575 C   0  0  0  0  0  0  0  0  0  0  0  0
    9.5975    4.2321   23.6819 H   0  0  0  0  0  0  0  0  0  0  0  0
   10.2775    5.1014   22.3317 H   0  0  0  0  0  0  0  0  0  0  0  0
    9.9340    3.0221   21.1240 H   0  0  0  0  0  0  0  0  0  0  0  0
   12.1512    3.3918   20.9003 H   0  0  0  0  0  0  0  0  0  0  0  0
   12.2337    1.7406   21.4745 H   0  0  0  0  0  0  0  0  0  0  0  0
   13.0158    2.4834   23.6604 H   0  0  0  0  0  0  0  0  0  0  0  0
   13.6633    3.7606   22.6626 H   0  0  0  0  0  0  0  0  0  0  0  0
   11.6225    3.9320   24.7194 H   0  0  0  0  0  0  0  0  0  0  0  0
   13.1631    5.7763   24.4833 H   0  0  0  0  0  0  0  0  0  0  0  0
   11.5333    6.4032   24.1591 H   0  0  0  0  0  0  0  0  0  0  0  0
   12.6304    6.0939   22.8219 H   0  0  0  0  0  0  0  0  0  0  0  0
  1  2  1  0
  2  3  1  0
  3  4  1  0
  4  5  1  0
  5  6  1  0
  6  7  1  0
  7  8  1  0
  8  9  1  0
  9 10  2  0
 10 11  1  0
 11 12  1  0
 12 13  2  0
 13 14  1  0
 14 15  2  0
 15 16  1  0
 16 17  2  0
 17 18  1  0
 18 19  2  0
 19 20  1  0
 17 21  1  0
 16 22  1  0
 15 23  1  0
 11 24  1  0
 10 25  1  0
  8 26  1  0
  8 27  1  0
  7 28  1  0
  7 29  1  0
  6 30  1  0
  6 31  1  0
  5 32  1  0
 32 33  1  0
 32 34  1  0
  5 35  1  0
  4 36  1  0
  4 37  1  0
  3 38  1  0
  3 39  1  0
  2 40  1  0
  1 41  1  0
  1 42  1  0
  1 43  1  0
 32  2  1  0
 13  9  1  0
 19 14  1  0
M  CHG  1   7   1
M  END
>  <cnnaffinity>  (1) 
5.22918

>  <plip>  (1) 
-0.1724137931034483

>  <filename>  (1) 
[H][c]1[n][c]([H])[c](-[c]2[n][n]([H])[c]([H])[c]2[C]([H])([H])[N+]([H])([H])[C]([H])([H])[C]2([H])[C]([H])([H])[C]([H])([H])[C]([H])([C]([H])([H])[H])[C]2([H])[H])[c]([H])[c]1[H]

>  <combo1>  (1) 
-1.1073724195870738

$$$$
