
     RDKit          3D

 28 30  0  0  0  0  0  0  0  0999 V2000
    4.8045    1.3101   19.1028 C   0  0  0  0  0  0  0  0  0  0  0  0
    5.4027    1.2899   17.8376 C   0  0  0  0  0  0  0  0  0  0  0  0
    6.5626    0.6680   17.5794 N   0  0  0  0  0  0  0  0  0  0  0  0
    7.1579    0.0427   18.6045 C   0  0  0  0  0  0  0  0  0  0  0  0
    6.6440   -0.0169   19.9064 C   0  0  0  0  0  0  0  0  0  0  0  0
    7.3780   -0.7679   20.9919 C   0  0  0  0  0  0  0  0  0  0  0  0
    6.9663   -2.1541   21.0282 N   0  0  0  0  0  0  0  0  0  0  0  0
    7.4253   -3.0863   21.9266 C   0  0  0  0  0  0  0  0  0  0  0  0
    8.3695   -2.7765   22.8788 C   0  0  0  0  0  0  0  0  0  0  0  0
    8.8020   -3.7479   23.7386 N   0  0  0  0  0  0  0  0  0  0  0  0
    9.7114   -3.5992   24.7095 N   0  0  0  0  0  0  0  0  0  0  0  0
    9.7588   -4.8263   25.2295 C   0  0  0  0  0  0  0  0  0  0  0  0
    8.9503   -5.7510   24.6662 N   0  0  0  0  0  0  0  0  0  0  0  0
    8.3422   -5.0536   23.7157 C   0  0  0  0  0  0  0  0  0  0  0  0
    7.3590   -5.3934   22.7382 C   0  0  0  0  0  0  0  0  0  0  0  0
    6.9105   -4.4403   21.8670 C   0  0  0  0  0  0  0  0  0  0  0  0
    6.1593   -4.6865   21.1176 H   0  0  0  0  0  0  0  0  0  0  0  0
    7.0095   -6.4173   22.7432 H   0  0  0  0  0  0  0  0  0  0  0  0
   10.4089   -5.0739   26.0621 H   0  0  0  0  0  0  0  0  0  0  0  0
    8.8123   -1.8042   23.0115 H   0  0  0  0  0  0  0  0  0  0  0  0
    6.2643   -2.4367   20.3695 H   0  0  0  0  0  0  0  0  0  0  0  0
    8.4632   -0.7168   20.8250 H   0  0  0  0  0  0  0  0  0  0  0  0
    7.1808   -0.2925   21.9644 H   0  0  0  0  0  0  0  0  0  0  0  0
    5.4365    0.6455   20.1574 C   0  0  0  0  0  0  0  0  0  0  0  0
    5.0043    0.6363   21.1620 H   0  0  0  0  0  0  0  0  0  0  0  0
    8.1124   -0.4250   18.3724 H   0  0  0  0  0  0  0  0  0  0  0  0
    4.9243    1.7835   16.9925 H   0  0  0  0  0  0  0  0  0  0  0  0
    3.8731    1.8458   19.2530 H   0  0  0  0  0  0  0  0  0  0  0  0
  1  2  2  0
  2  3  1  0
  3  4  2  0
  4  5  1  0
  5  6  1  0
  6  7  1  0
  7  8  1  0
  8  9  2  0
  9 10  1  0
 10 11  1  0
 11 12  2  0
 12 13  1  0
 13 14  2  0
 14 15  1  0
 15 16  2  0
 16 17  1  0
 15 18  1  0
 12 19  1  0
  9 20  1  0
  7 21  1  0
  6 22  1  0
  6 23  1  0
  5 24  2  0
 24 25  1  0
  4 26  1  0
  2 27  1  0
  1 28  1  0
 24  1  1  0
 16  8  1  0
 14 10  1  0
M  END
>  <cnnaffinity>  (1) 
4.90153

>  <plip>  (1) 
-0.14285714285714285

>  <filename>  (1) 
[H][c]1[n][c]2[c]([H])[c]([H])[c]([N]([H])[C]([H])([H])[c]3[c]([H])[n][c]([H])[c]([H])[c]3[H])[c]([H])[n]2[n]1

>  <combo1>  (1) 
-1.0361865018587397

$$$$
