
     RDKit          3D

 21 22  0  0  0  0  0  0  0  0999 V2000
    4.9491    1.7920   16.9936 H   0  0  0  0  0  0  0  0  0  0  0  0
    5.4086    1.2935   17.8467 C   0  0  0  0  0  0  0  0  0  0  0  0
    6.5696    0.6661   17.6009 N   0  0  0  0  0  0  0  0  0  0  0  0
    7.1647    0.0361   18.6146 C   0  0  0  0  0  0  0  0  0  0  0  0
    8.1158   -0.4409   18.3806 H   0  0  0  0  0  0  0  0  0  0  0  0
    6.6474   -0.0183   19.9269 C   0  0  0  0  0  0  0  0  0  0  0  0
    7.3836   -0.7551   20.9911 C   0  0  0  0  0  0  0  0  0  0  0  0
    8.4085   -1.9860   20.7481 S   0  0  0  0  0  0  0  0  0  0  0  0
    7.2282   -0.1633   22.6663 S   0  0  0  0  0  0  0  0  0  0  0  0
    8.4662    1.0937   22.5225 C   0  0  0  0  0  0  0  0  0  0  0  0
   10.1433    0.7641   22.8061 S   0  0  0  0  0  0  0  0  0  0  0  0
   10.5468    2.4073   22.4662 C   0  0  0  0  0  0  0  0  0  0  0  0
   12.1913    2.8923   22.4687 Cl  0  0  0  0  0  0  0  0  0  0  0  0
    9.4556    3.1745   22.2041 C   0  0  0  0  0  0  0  0  0  0  0  0
    9.4904    4.2569   22.1149 H   0  0  0  0  0  0  0  0  0  0  0  0
    8.2701    2.3918   22.1643 C   0  0  0  0  0  0  0  0  0  0  0  0
    7.3058    2.7568   21.8348 H   0  0  0  0  0  0  0  0  0  0  0  0
    5.4356    0.6581   20.1664 C   0  0  0  0  0  0  0  0  0  0  0  0
    4.9868    0.6682   21.1598 H   0  0  0  0  0  0  0  0  0  0  0  0
    4.8082    1.3178   19.1084 C   0  0  0  0  0  0  0  0  0  0  0  0
    3.8693    1.8455   19.2396 H   0  0  0  0  0  0  0  0  0  0  0  0
  1  2  1  0
  2  3  2  0
  3  4  1  0
  4  5  1  0
  4  6  2  0
  6  7  1  0
  7  8  2  0
  7  9  1  0
  9 10  1  0
 10 11  1  0
 11 12  1  0
 12 13  1  0
 12 14  2  0
 14 15  1  0
 14 16  1  0
 16 17  1  0
  6 18  1  0
 18 19  1  0
 18 20  2  0
 20 21  1  0
 20  2  1  0
 16 10  2  0
M  END
>  <cnnaffinity>  (1) 
4.78565

>  <plip>  (1) 
-0.0

>  <filename>  (1) 
[H][c]1[n][c]([H])[c]([C](=[S])[S][c]2[s][c]([Cl])[c]([H])[c]2[H])[c]([H])[c]1[H]

>  <combo1>  (1) 
-5.868672413137663e-06

$$$$
