
     RDKit          3D

 33 34  0  0  0  0  0  0  0  0999 V2000
    5.1330    1.8800   16.8528 H   0  0  0  0  0  0  0  0  0  0  0  0
    5.4886    1.3171   17.7172 C   0  0  0  0  0  0  0  0  0  0  0  0
    6.6043    0.5992   17.5242 N   0  0  0  0  0  0  0  0  0  0  0  0
    7.0903   -0.0834   18.5703 C   0  0  0  0  0  0  0  0  0  0  0  0
    7.9929   -0.6656   18.3886 H   0  0  0  0  0  0  0  0  0  0  0  0
    6.5157   -0.0781   19.8617 C   0  0  0  0  0  0  0  0  0  0  0  0
    7.1543   -0.7349   21.0416 C   0  0  0  0  0  0  0  0  0  0  0  0
    7.5677    0.0054   22.1029 C   0  0  0  0  0  0  0  0  0  0  0  0
    7.4209    1.0806   22.1836 H   0  0  0  0  0  0  0  0  0  0  0  0
    8.2764   -0.5516   23.1615 N   0  0  0  0  0  0  0  0  0  0  0  0
    8.4194    0.2572   24.3301 N   0  0  0  0  0  0  0  0  0  0  0  0
    8.9252   -0.2152   25.0768 H   0  0  0  0  0  0  0  0  0  0  0  0
    8.9209    1.5765   24.2297 C   0  0  0  0  0  0  0  0  0  0  0  0
    9.2472    2.1465   23.2135 O   0  0  0  0  0  0  0  0  0  0  0  0
    8.9545    2.1057   25.5038 N   0  0  0  0  0  0  0  0  0  0  0  0
    8.1762    1.7193   26.0194 H   0  0  0  0  0  0  0  0  0  0  0  0
    9.1205    3.5514   25.6412 C   0  0  0  0  0  0  0  0  0  0  0  0
   10.0191    3.8308   25.0798 H   0  0  0  0  0  0  0  0  0  0  0  0
    9.3080    3.7606   26.6993 H   0  0  0  0  0  0  0  0  0  0  0  0
    7.9092    4.3265   25.1415 C   0  0  0  0  0  0  0  0  0  0  0  0
    7.0195    4.0526   25.7203 H   0  0  0  0  0  0  0  0  0  0  0  0
    8.0705    5.4045   25.2358 H   0  0  0  0  0  0  0  0  0  0  0  0
    7.7186    4.0876   24.0900 H   0  0  0  0  0  0  0  0  0  0  0  0
    8.6617   -1.9077   23.1658 C   0  0  0  0  0  0  0  0  0  0  0  0
    9.2166   -2.4621   24.0916 O   0  0  0  0  0  0  0  0  0  0  0  0
    8.3437   -2.5815   22.0294 N   0  0  0  0  0  0  0  0  0  0  0  0
    8.4077   -3.5725   22.1641 H   0  0  0  0  0  0  0  0  0  0  0  0
    7.3387   -2.2066   21.1465 C   0  0  0  0  0  0  0  0  0  0  0  0
    6.7322   -3.0901   20.5915 O   0  0  0  0  0  0  0  0  0  0  0  0
    5.3302    0.6546   20.0231 C   0  0  0  0  0  0  0  0  0  0  0  0
    4.8353    0.6623   20.9950 H   0  0  0  0  0  0  0  0  0  0  0  0
    4.8109    1.3643   18.9385 C   0  0  0  0  0  0  0  0  0  0  0  0
    3.9137    1.9648   19.0266 H   0  0  0  0  0  0  0  0  0  0  0  0
  1  2  1  0
  2  3  2  0
  3  4  1  0
  4  5  1  0
  4  6  2  0
  6  7  1  0
  7  8  2  0
  8  9  1  0
  8 10  1  0
 10 11  1  0
 11 12  1  0
 11 13  1  0
 13 14  2  0
 13 15  1  0
 15 16  1  0
 15 17  1  0
 17 18  1  0
 17 19  1  0
 17 20  1  0
 20 21  1  0
 20 22  1  0
 20 23  1  0
 10 24  1  0
 24 25  2  0
 24 26  1  0
 26 27  1  0
 26 28  1  0
 28 29  2  0
  6 30  1  0
 30 31  1  0
 30 32  2  0
 32 33  1  0
 32  2  1  0
 28  7  1  0
M  END
>  <cnnaffinity>  (1) 
4.71217

>  <plip>  (1) 
-0.10344827586206896

>  <filename>  (1) 
[H][c]1[n][c]([H])[c](-[c]2[c]([H])[n]([N]([H])[C](=[O])[N]([H])[C]([H])([H])[C]([H])([H])[H])[c](=[O])[n]([H])[c]2=[O])[c]([H])[c]1[H]

>  <combo1>  (1) 
-0.5902924447798333

$$$$
