
     RDKit          3D

 39 41  0  0  0  0  0  0  0  0999 V2000
    6.1024   -2.9720   19.8366 O   0  0  0  0  0  0  0  0  0  0  0  0
    6.0005   -2.8155   21.0410 C   0  0  0  0  0  0  0  0  0  0  0  0
    6.5470   -1.7489   21.7101 N   0  0  0  0  0  0  0  0  0  0  0  0
    7.3509   -0.7410   21.0226 C   0  0  0  0  0  0  0  0  0  0  0  0
    6.5838   -0.0327   19.9104 C   0  0  0  0  0  0  0  0  0  0  0  0
    5.3756    0.6490   20.1234 C   0  0  0  0  0  0  0  0  0  0  0  0
    4.7812    1.3219   19.0525 C   0  0  0  0  0  0  0  0  0  0  0  0
    5.4180    1.3064   17.8072 C   0  0  0  0  0  0  0  0  0  0  0  0
    6.5720    0.6634   17.5758 N   0  0  0  0  0  0  0  0  0  0  0  0
    7.1224    0.0150   18.6158 C   0  0  0  0  0  0  0  0  0  0  0  0
    8.0647   -0.4965   18.3976 H   0  0  0  0  0  0  0  0  0  0  0  0
    4.9860    1.8395   16.9624 H   0  0  0  0  0  0  0  0  0  0  0  0
    3.8556    1.8732   19.1742 H   0  0  0  0  0  0  0  0  0  0  0  0
    4.9152    0.6742   21.1134 H   0  0  0  0  0  0  0  0  0  0  0  0
    7.9857    0.2621   22.0236 C   0  0  0  0  0  0  0  0  0  0  0  0
    8.8425   -0.3783   23.1303 C   0  0  0  0  0  0  0  0  0  0  0  0
    9.8296    0.7071   23.6110 C   0  0  0  0  0  0  0  0  0  0  0  0
    9.8772    1.7734   22.4932 C   0  0  0  0  0  0  0  0  0  0  0  0
    8.9692    1.2506   21.3659 C   0  0  0  0  0  0  0  0  0  0  0  0
    8.4448    2.0526   20.8360 H   0  0  0  0  0  0  0  0  0  0  0  0
    9.5807    0.7117   20.6302 H   0  0  0  0  0  0  0  0  0  0  0  0
    9.5046    2.7308   22.8727 H   0  0  0  0  0  0  0  0  0  0  0  0
   10.8988    1.9477   22.1366 H   0  0  0  0  0  0  0  0  0  0  0  0
    9.4908    1.1637   24.5473 H   0  0  0  0  0  0  0  0  0  0  0  0
   10.8176    0.2751   23.8096 H   0  0  0  0  0  0  0  0  0  0  0  0
    9.4129   -1.2184   22.7127 H   0  0  0  0  0  0  0  0  0  0  0  0
    8.2354   -0.7633   23.9571 H   0  0  0  0  0  0  0  0  0  0  0  0
    7.1735    0.8364   22.5006 H   0  0  0  0  0  0  0  0  0  0  0  0
    8.1841   -1.2783   20.5438 H   0  0  0  0  0  0  0  0  0  0  0  0
    6.0370   -1.4752   22.5408 H   0  0  0  0  0  0  0  0  0  0  0  0
    5.1981   -3.8508   21.9077 C   0  0  0  0  0  0  0  0  0  0  0  0
    4.6051   -3.4482   23.0513 N   0  0  0  0  0  0  0  0  0  0  0  0
    3.6905   -4.2314   23.6173 C   0  0  0  0  0  0  0  0  0  0  0  0
    3.3358   -5.4412   23.1853 N   0  0  0  0  0  0  0  0  0  0  0  0
    4.0101   -5.9147   22.1420 C   0  0  0  0  0  0  0  0  0  0  0  0
    4.9899   -5.1751   21.4662 C   0  0  0  0  0  0  0  0  0  0  0  0
    5.7916   -5.8969   20.1258 Cl  0  0  0  0  0  0  0  0  0  0  0  0
    3.7357   -6.9118   21.7942 H   0  0  0  0  0  0  0  0  0  0  0  0
    3.1546   -3.8240   24.4761 H   0  0  0  0  0  0  0  0  0  0  0  0
  1  2  2  0
  2  3  1  0
  3  4  1  0
  4  5  1  0
  5  6  2  0
  6  7  1  0
  7  8  2  0
  8  9  1  0
  9 10  2  0
 10 11  1  0
  8 12  1  0
  7 13  1  0
  6 14  1  0
  4 15  1  0
 15 16  1  0
 16 17  1  0
 17 18  1  0
 18 19  1  0
 19 20  1  0
 19 21  1  0
 18 22  1  0
 18 23  1  0
 17 24  1  0
 17 25  1  0
 16 26  1  0
 16 27  1  0
 15 28  1  0
  4 29  1  0
  3 30  1  0
  2 31  1  0
 31 32  2  0
 32 33  1  0
 33 34  2  0
 34 35  1  0
 35 36  2  0
 36 37  1  0
 35 38  1  0
 33 39  1  0
 10  5  1  0
 19 15  1  0
 36 31  1  0
M  END
>  <cnnaffinity>  (1) 
6.10724

>  <plip>  (1) 
-0.14285714285714285

>  <filename>  (1) 
[H][c]1[n][c]([H])[c]([Cl])[c]([C](=[O])[N]([H])[C]([H])([c]2[c]([H])[n][c]([H])[c]([H])[c]2[H])[C]2([H])[C]([H])([H])[C]([H])([H])[C]([H])([H])[C]2([H])[H])[n]1

>  <combo1>  (1) 
-0.9180186127836316

$$$$
