
     RDKit          3D

 25 26  0  0  0  0  0  0  0  0999 V2000
    9.5180   -2.3363   22.6985 H   0  0  0  0  0  0  0  0  0  0  0  0
    8.5273   -1.9288   22.9195 C   0  0  0  0  0  0  0  0  0  0  0  0
    7.9182   -1.2448   21.8297 C   0  0  0  0  0  0  0  0  0  0  0  0
    7.3675   -0.6842   20.9129 C   0  0  0  0  0  0  0  0  0  0  0  0
    6.6723   -0.0014   19.8636 C   0  0  0  0  0  0  0  0  0  0  0  0
    7.1849    0.0444   18.5517 C   0  0  0  0  0  0  0  0  0  0  0  0
    8.1282   -0.4558   18.3293 H   0  0  0  0  0  0  0  0  0  0  0  0
    6.5803    0.6778   17.5389 N   0  0  0  0  0  0  0  0  0  0  0  0
    5.4210    1.3060   17.8006 C   0  0  0  0  0  0  0  0  0  0  0  0
    4.9535    1.8307   16.9678 H   0  0  0  0  0  0  0  0  0  0  0  0
    4.8185    1.3104   19.0627 C   0  0  0  0  0  0  0  0  0  0  0  0
    3.8811    1.8329   19.2132 H   0  0  0  0  0  0  0  0  0  0  0  0
    5.4544    0.6519   20.1150 C   0  0  0  0  0  0  0  0  0  0  0  0
    5.0346    0.6484   21.1212 H   0  0  0  0  0  0  0  0  0  0  0  0
    7.9530   -2.0645   24.0521 N   0  0  0  0  0  0  0  0  0  0  0  0
    8.5331   -2.8588   25.0719 C   0  0  0  0  0  0  0  0  0  0  0  0
    7.7497   -3.0428   26.2376 C   0  0  0  0  0  0  0  0  0  0  0  0
    6.7808   -2.5539   26.2465 H   0  0  0  0  0  0  0  0  0  0  0  0
    8.1197   -3.7612   27.3007 N   0  0  0  0  0  0  0  0  0  0  0  0
    9.3234   -4.3589   27.2466 C   0  0  0  0  0  0  0  0  0  0  0  0
    9.6119   -4.9492   28.1144 H   0  0  0  0  0  0  0  0  0  0  0  0
   10.1789   -4.2371   26.1492 C   0  0  0  0  0  0  0  0  0  0  0  0
   11.1300   -4.7517   26.1513 H   0  0  0  0  0  0  0  0  0  0  0  0
    9.7987   -3.4685   25.0429 C   0  0  0  0  0  0  0  0  0  0  0  0
   10.4823   -3.3570   24.1995 H   0  0  0  0  0  0  0  0  0  0  0  0
  1  2  1  0
  2  3  1  0
  3  4  3  0
  4  5  1  0
  5  6  2  0
  6  7  1  0
  6  8  1  0
  8  9  2  0
  9 10  1  0
  9 11  1  0
 11 12  1  0
 11 13  2  0
 13 14  1  0
  2 15  2  3
 15 16  1  0
 16 17  2  0
 17 18  1  0
 17 19  1  0
 19 20  2  0
 20 21  1  0
 20 22  1  0
 22 23  1  0
 22 24  2  0
 24 25  1  0
 13  5  1  0
 24 16  1  0
M  END
>  <cnnaffinity>  (1) 
4.24605

>  <plip>  (1) 
-0.03571428571428571

>  <filename>  (1) 
[H][C]([C]#[C][c]1[c]([H])[n][c]([H])[c]([H])[c]1[H])=[N][c]1[c]([H])[n][c]([H])[c]([H])[c]1[H]

>  <combo1>  (1) 
-0.24391618389524158

$$$$
