
     RDKit          3D

 28 30  0  0  0  0  0  0  0  0999 V2000
    4.9935    1.7646   16.9999 H   0  0  0  0  0  0  0  0  0  0  0  0
    5.4540    1.2860   17.8592 C   0  0  0  0  0  0  0  0  0  0  0  0
    6.6109    0.6475   17.6215 N   0  0  0  0  0  0  0  0  0  0  0  0
    7.2072    0.0320   18.6510 C   0  0  0  0  0  0  0  0  0  0  0  0
    8.1240   -0.5121   18.4234 H   0  0  0  0  0  0  0  0  0  0  0  0
    6.6846    0.0643   19.9501 C   0  0  0  0  0  0  0  0  0  0  0  0
    7.5040   -0.8651   21.2540 S   0  0  0  0  0  4  0  0  0  0  0  0
    8.2068   -1.9842   20.5471 O   0  0  0  0  0  0  0  0  0  0  0  0
    8.8500    0.2515   21.6216 C   0  0  0  0  0  0  0  0  0  0  0  0
    9.9825    0.0877   20.8696 C   0  0  0  0  0  0  0  0  0  0  0  0
    9.9812   -0.6291   20.0471 H   0  0  0  0  0  0  0  0  0  0  0  0
   11.1290    0.7835   21.0943 N   0  0  0  0  0  0  0  0  0  0  0  0
   11.1662    1.6418   22.0866 C   0  0  0  0  0  0  0  0  0  0  0  0
   12.0981    2.1972   22.2047 H   0  0  0  0  0  0  0  0  0  0  0  0
   10.0821    1.8472   22.9957 C   0  0  0  0  0  0  0  0  0  0  0  0
   10.1614    2.6984   24.1419 C   0  0  0  0  0  0  0  0  0  0  0  0
   11.0760    3.2583   24.3185 H   0  0  0  0  0  0  0  0  0  0  0  0
    9.1066    2.7728   25.0236 C   0  0  0  0  0  0  0  0  0  0  0  0
    9.1716    3.4125   25.9005 H   0  0  0  0  0  0  0  0  0  0  0  0
    7.9243    2.0138   24.8059 C   0  0  0  0  0  0  0  0  0  0  0  0
    7.1058    2.0762   25.5203 H   0  0  0  0  0  0  0  0  0  0  0  0
    7.8212    1.1984   23.6992 C   0  0  0  0  0  0  0  0  0  0  0  0
    6.9561    0.5729   23.5191 H   0  0  0  0  0  0  0  0  0  0  0  0
    8.8859    1.1057   22.7654 C   0  0  0  0  0  0  0  0  0  0  0  0
    5.4675    0.7065   20.1880 C   0  0  0  0  0  0  0  0  0  0  0  0
    5.0071    0.7028   21.1790 H   0  0  0  0  0  0  0  0  0  0  0  0
    4.8348    1.3305   19.1129 C   0  0  0  0  0  0  0  0  0  0  0  0
    3.8760    1.8275   19.2310 H   0  0  0  0  0  0  0  0  0  0  0  0
  1  2  1  0
  2  3  2  0
  3  4  1  0
  4  5  1  0
  4  6  2  0
  7  6  1  6
  7  8  2  0
  7  9  1  0
  9 10  2  0
 10 11  1  0
 10 12  1  0
 12 13  2  0
 13 14  1  0
 13 15  1  0
 15 16  2  0
 16 17  1  0
 16 18  1  0
 18 19  1  0
 18 20  2  0
 20 21  1  0
 20 22  1  0
 22 23  1  0
 22 24  2  0
  6 25  1  0
 25 26  1  0
 25 27  2  0
 27 28  1  0
 27  2  1  0
 24  9  1  0
 24 15  1  0
M  END
>  <cnnaffinity>  (1) 
4.72902

>  <plip>  (1) 
-0.10344827586206896

>  <filename>  (1) 
[H][c]1[n][c]([H])[c]([S@@](=[O])[c]2[c]([H])[n][c]([H])[c]3[c]([H])[c]([H])[c]([H])[c]([H])[c]23)[c]([H])[c]1[H]

>  <combo1>  (1) 
-0.6412138347570869

$$$$
