
     RDKit          3D

 29 31  0  0  0  0  0  0  0  0999 V2000
    4.9351    1.8156   17.0153 H   0  0  0  0  0  0  0  0  0  0  0  0
    5.4083    1.2920   17.8450 C   0  0  0  0  0  0  0  0  0  0  0  0
    6.5747    0.6773   17.5730 N   0  0  0  0  0  0  0  0  0  0  0  0
    7.1836    0.0331   18.5742 C   0  0  0  0  0  0  0  0  0  0  0  0
    8.1459   -0.4362   18.3719 H   0  0  0  0  0  0  0  0  0  0  0  0
    6.6519   -0.0627   19.8727 C   0  0  0  0  0  0  0  0  0  0  0  0
    7.4569   -0.7127   20.8175 O   0  0  0  0  0  0  0  0  0  0  0  0
    6.9765   -1.5037   21.7848 C   0  0  0  0  0  0  0  0  0  0  0  0
    5.8891   -2.2334   21.7817 N   0  0  0  0  0  0  0  0  0  0  0  0
    5.8973   -2.8919   22.9731 N   0  0  0  0  0  0  0  0  0  0  0  0
    6.9342   -2.6098   23.6637 N   0  0  0  0  0  0  0  0  0  0  0  0
    7.6654   -1.7242   22.9465 N   0  0  0  0  0  0  0  0  0  0  0  0
    8.9258   -1.3866   23.4642 N   0  0  0  0  0  0  0  0  0  0  0  0
    9.4005   -2.1976   23.8397 H   0  0  0  0  0  0  0  0  0  0  0  0
    9.7168   -0.3573   22.9186 C   0  0  0  0  0  0  0  0  0  0  0  0
   11.0671   -0.5661   22.5938 C   0  0  0  0  0  0  0  0  0  0  0  0
   11.4809   -1.5678   22.6763 H   0  0  0  0  0  0  0  0  0  0  0  0
   11.8632    0.4944   22.1368 C   0  0  0  0  0  0  0  0  0  0  0  0
   12.9112    0.3638   21.8869 H   0  0  0  0  0  0  0  0  0  0  0  0
   11.2915    1.7571   21.9944 C   0  0  0  0  0  0  0  0  0  0  0  0
   12.0404    2.7718   21.5298 F   0  0  0  0  0  0  0  0  0  0  0  0
    9.9549    1.9878   22.3068 C   0  0  0  0  0  0  0  0  0  0  0  0
    9.5426    2.9819   22.1685 H   0  0  0  0  0  0  0  0  0  0  0  0
    9.1761    0.9251   22.7759 C   0  0  0  0  0  0  0  0  0  0  0  0
    8.1336    1.0509   23.0445 H   0  0  0  0  0  0  0  0  0  0  0  0
    5.4467    0.5836   20.1623 C   0  0  0  0  0  0  0  0  0  0  0  0
    5.0283    0.5569   21.1692 H   0  0  0  0  0  0  0  0  0  0  0  0
    4.8197    1.2798   19.1123 C   0  0  0  0  0  0  0  0  0  0  0  0
    3.8931    1.8261   19.2667 H   0  0  0  0  0  0  0  0  0  0  0  0
  1  2  1  0
  2  3  2  0
  3  4  1  0
  4  5  1  0
  4  6  2  0
  6  7  1  0
  7  8  1  0
  8  9  2  0
  9 10  1  0
 10 11  2  0
 11 12  1  0
 12 13  1  0
 13 14  1  0
 13 15  1  0
 15 16  2  0
 16 17  1  0
 16 18  1  0
 18 19  1  0
 18 20  2  0
 20 21  1  0
 20 22  1  0
 22 23  1  0
 22 24  2  0
 24 25  1  0
  6 26  1  0
 26 27  1  0
 26 28  2  0
 28 29  1  0
 28  2  1  0
 12  8  1  0
 24 15  1  0
M  END
>  <cnnaffinity>  (1) 
5.27875

>  <plip>  (1) 
-0.03571428571428571

>  <filename>  (1) 
[H][c]1[n][c]([H])[c]([O][c]2[n][n][n][n]2[N]([H])[c]2[c]([H])[c]([H])[c]([F])[c]([H])[c]2[H])[c]([H])[c]1[H]

>  <combo1>  (1) 
-0.2308315067963617

$$$$
