
     RDKit          3D

 31 33  0  0  0  0  0  0  0  0999 V2000
   11.6014    5.3473   25.1808 O   0  0  0  0  0  0  0  0  0  0  0  0
   11.3809    4.3726   24.4168 C   0  0  0  0  0  0  0  0  0  0  0  0
   12.3026    3.7600   23.8066 O   0  0  0  0  0  1  0  0  0  0  0  0
    9.9647    3.9023   24.2530 C   0  0  0  0  0  0  0  0  0  0  0  0
    8.8679    4.4260   24.8540 C   0  0  0  0  0  0  0  0  0  0  0  0
    7.7480    3.7385   24.4730 O   0  0  0  0  0  0  0  0  0  0  0  0
    8.1791    2.7778   23.6201 C   0  0  0  0  0  0  0  0  0  0  0  0
    9.5135    2.8225   23.4535 C   0  0  0  0  0  0  0  0  0  0  0  0
    9.9775    1.7574   22.5272 C   0  0  0  0  0  0  0  0  0  0  0  0
    8.7023    1.0708   22.2007 N   0  0  0  0  0  0  0  0  0  0  0  0
    8.7331   -0.0005   21.3535 C   0  0  0  0  0  0  0  0  0  0  0  0
    9.7808   -0.3803   20.8528 O   0  0  0  0  0  0  0  0  0  0  0  0
    7.4085   -0.6980   21.0131 C   0  0  0  0  0  0  0  0  0  0  0  0
    6.6406    0.0077   19.9035 C   0  0  0  0  0  0  0  0  0  0  0  0
    5.4268    0.6582   20.1404 C   0  0  0  0  0  0  0  0  0  0  0  0
    4.7861    1.3208   19.0873 C   0  0  0  0  0  0  0  0  0  0  0  0
    5.3824    1.3019   17.8237 C   0  0  0  0  0  0  0  0  0  0  0  0
    6.5406    0.6760   17.5674 N   0  0  0  0  0  0  0  0  0  0  0  0
    7.1482    0.0605   18.5891 C   0  0  0  0  0  0  0  0  0  0  0  0
    8.1041   -0.4144   18.3702 H   0  0  0  0  0  0  0  0  0  0  0  0
    4.9165    1.8044   16.9775 H   0  0  0  0  0  0  0  0  0  0  0  0
    3.8577    1.8570   19.2358 H   0  0  0  0  0  0  0  0  0  0  0  0
    4.9974    0.6440   21.1437 H   0  0  0  0  0  0  0  0  0  0  0  0
    7.6862   -1.7131   20.7128 H   0  0  0  0  0  0  0  0  0  0  0  0
    6.7816   -0.7940   21.9053 H   0  0  0  0  0  0  0  0  0  0  0  0
    7.5173    1.6882   22.8373 C   0  0  0  0  0  0  0  0  0  0  0  0
    6.9742    0.9746   23.4698 H   0  0  0  0  0  0  0  0  0  0  0  0
    6.8070    2.0617   22.0882 H   0  0  0  0  0  0  0  0  0  0  0  0
   10.6913    1.0580   22.9817 H   0  0  0  0  0  0  0  0  0  0  0  0
   10.4669    2.1496   21.6250 H   0  0  0  0  0  0  0  0  0  0  0  0
    8.7006    5.2410   25.5455 H   0  0  0  0  0  0  0  0  0  0  0  0
  1  2  2  0
  2  3  1  0
  2  4  1  0
  4  5  2  0
  5  6  1  0
  6  7  1  0
  7  8  2  0
  8  9  1  0
  9 10  1  0
 10 11  1  0
 11 12  2  0
 11 13  1  0
 13 14  1  0
 14 15  2  0
 15 16  1  0
 16 17  2  0
 17 18  1  0
 18 19  2  0
 19 20  1  0
 17 21  1  0
 16 22  1  0
 15 23  1  0
 13 24  1  0
 13 25  1  0
 10 26  1  0
 26 27  1  0
 26 28  1  0
  9 29  1  0
  9 30  1  0
  5 31  1  0
  8  4  1  0
 19 14  1  0
 26  7  1  0
M  CHG  1   3  -1
M  END
>  <cnnaffinity>  (1) 
4.3416

>  <plip>  (1) 
-0.06896551724137931

>  <filename>  (1) 
[H][c]1[n][c]([H])[c]([C]([H])([H])[C](=[O])[N]2[C]([H])([H])[c]3[o][c]([H])[c]([C](=[O])[O-])[c]3[C]2([H])[H])[c]([H])[c]1[H]

>  <combo1>  (1) 
-0.3679489793687205

$$$$
