
     RDKit          3D

 42 45  0  0  0  0  0  0  0  0999 V2000
    6.8726   -2.1655   22.2250 H   0  0  0  0  0  0  0  0  0  0  0  0
    6.4501   -1.4111   21.7891 O   0  0  0  0  0  0  0  0  0  0  0  0
    7.4167   -0.7668   20.9744 C   0  0  1  0  0  0  0  0  0  0  0  0
    8.0195   -1.5279   20.4472 H   0  0  0  0  0  0  0  0  0  0  0  0
    6.6555   -0.0005   19.9145 C   0  0  0  0  0  0  0  0  0  0  0  0
    7.1526    0.0480   18.6038 C   0  0  0  0  0  0  0  0  0  0  0  0
    8.1024   -0.4307   18.3614 H   0  0  0  0  0  0  0  0  0  0  0  0
    6.5571    0.6682   17.5762 N   0  0  0  0  0  0  0  0  0  0  0  0
    5.4005    1.2943   17.8366 C   0  0  0  0  0  0  0  0  0  0  0  0
    4.9264    1.7865   16.9910 H   0  0  0  0  0  0  0  0  0  0  0  0
    4.8088    1.3123   19.1024 C   0  0  0  0  0  0  0  0  0  0  0  0
    3.8789    1.8413   19.2536 H   0  0  0  0  0  0  0  0  0  0  0  0
    5.4379    0.6527   20.1592 C   0  0  0  0  0  0  0  0  0  0  0  0
    4.9985    0.6162   21.1594 H   0  0  0  0  0  0  0  0  0  0  0  0
    8.4222    0.0851   21.8324 C   0  0  0  0  0  0  0  0  0  0  0  0
    9.2341   -0.8394   22.7350 C   0  0  1  0  0  0  0  0  0  0  0  0
    9.7036   -1.6473   22.1743 H   0  0  0  0  0  0  0  0  0  0  0  0
   10.0159   -0.3431   23.9146 C   0  0  0  0  0  0  0  0  0  0  0  0
    9.9762    0.7202   24.1357 H   0  0  0  0  0  0  0  0  0  0  0  0
   10.9770   -0.7950   24.1434 H   0  0  0  0  0  0  0  0  0  0  0  0
    8.7818   -1.1946   24.1184 C   0  0  2  0  0  0  0  0  0  0  0  0
    7.8966   -0.6607   24.4571 H   0  0  0  0  0  0  0  0  0  0  0  0
    8.8688   -2.5980   24.6226 C   0  0  0  0  0  0  0  0  0  0  0  0
    7.8392   -3.1115   25.4265 C   0  0  0  0  0  0  0  0  0  0  0  0
    6.9832   -2.4798   25.6644 H   0  0  0  0  0  0  0  0  0  0  0  0
    7.9048   -4.4194   25.9172 C   0  0  0  0  0  0  0  0  0  0  0  0
    7.0975   -4.8041   26.5349 H   0  0  0  0  0  0  0  0  0  0  0  0
    9.0065   -5.2286   25.6149 C   0  0  0  0  0  0  0  0  0  0  0  0
    9.0623   -6.2453   25.9968 H   0  0  0  0  0  0  0  0  0  0  0  0
   10.0413   -4.7210   24.8220 C   0  0  0  0  0  0  0  0  0  0  0  0
   10.9073   -5.3348   24.5908 H   0  0  0  0  0  0  0  0  0  0  0  0
    9.9721   -3.4185   24.3273 C   0  0  0  0  0  0  0  0  0  0  0  0
   10.7858   -3.0313   23.7170 H   0  0  0  0  0  0  0  0  0  0  0  0
    7.8052    1.3518   22.5139 C   0  0  0  0  0  0  0  0  0  0  0  0
    7.9344    1.4325   23.5948 H   0  0  0  0  0  0  0  0  0  0  0  0
    6.7402    1.4886   22.3277 H   0  0  0  0  0  0  0  0  0  0  0  0
    8.7279    2.2630   21.6715 C   0  0  0  0  0  0  0  0  0  0  0  0
    9.4093    2.8956   22.2491 H   0  0  0  0  0  0  0  0  0  0  0  0
    8.1968    2.9197   20.9868 H   0  0  0  0  0  0  0  0  0  0  0  0
    9.3727    1.0187   21.0132 C   0  0  0  0  0  0  0  0  0  0  0  0
   10.4350    0.8872   21.2439 H   0  0  0  0  0  0  0  0  0  0  0  0
    9.2699    0.9406   19.9317 H   0  0  0  0  0  0  0  0  0  0  0  0
  1  2  1  0
  2  3  1  0
  3  4  1  6
  3  5  1  0
  5  6  2  0
  6  7  1  0
  6  8  1  0
  8  9  2  0
  9 10  1  0
  9 11  1  0
 11 12  1  0
 11 13  2  0
 13 14  1  0
  3 15  1  0
 15 16  1  0
 16 17  1  6
 16 18  1  0
 18 19  1  0
 18 20  1  0
 18 21  1  0
 21 22  1  1
 21 23  1  0
 23 24  2  0
 24 25  1  0
 24 26  1  0
 26 27  1  0
 26 28  2  0
 28 29  1  0
 28 30  1  0
 30 31  1  0
 30 32  2  0
 32 33  1  0
 15 34  1  0
 34 35  1  0
 34 36  1  0
 34 37  1  0
 37 38  1  0
 37 39  1  0
 37 40  1  0
 40 41  1  0
 40 42  1  0
 13  5  1  0
 40 15  1  0
 21 16  1  0
 32 23  1  0
M  END
>  <cnnaffinity>  (1) 
5.41387

>  <plip>  (1) 
-0.03571428571428571

>  <filename>  (1) 
[H][O][C@@]([H])([c]1[c]([H])[n][c]([H])[c]([H])[c]1[H])[C]1([C@@]2([H])[C]([H])([H])[C@]2([H])[c]2[c]([H])[c]([H])[c]([H])[c]([H])[c]2[H])[C]([H])([H])[C]([H])([H])[C]1([H])[H]

>  <combo1>  (1) 
-0.23068988926789866

$$$$
