
     RDKit          3D

 36 39  0  0  0  0  0  0  0  0999 V2000
   11.7300    5.0345   23.8889 H   0  0  0  0  0  0  0  0  0  0  0  0
   11.0327    4.2300   23.6609 C   0  0  0  0  0  0  0  0  0  0  0  0
   11.5854    3.1377   23.1373 N   0  0  0  0  0  0  0  0  0  0  0  0
   10.7548    2.1314   22.8273 C   0  0  0  0  0  0  0  0  0  0  0  0
   11.4431    1.0981   22.2924 N   0  0  0  0  0  0  0  0  0  0  0  0
   12.4071    1.4005   22.2549 H   0  0  0  0  0  0  0  0  0  0  0  0
   10.9240   -0.1607   21.8340 C   0  0  1  0  0  0  0  0  0  0  0  0
   11.7774   -0.7290   21.4554 H   0  0  0  0  0  0  0  0  0  0  0  0
   10.2475   -0.9777   22.9852 C   0  0  0  0  0  0  0  0  0  0  0  0
   10.2796   -0.4380   23.9337 H   0  0  0  0  0  0  0  0  0  0  0  0
   10.7530   -1.9260   23.1537 H   0  0  0  0  0  0  0  0  0  0  0  0
    8.8380   -1.1602   22.5083 C   0  0  0  0  0  0  0  0  0  0  0  0
    7.7320   -1.6190   23.0533 N   0  0  0  0  0  0  0  0  0  0  0  0
    6.7741   -1.2986   22.1301 N   0  0  0  0  0  0  0  0  0  0  0  0
    5.8044   -1.4427   22.3865 H   0  0  0  0  0  0  0  0  0  0  0  0
    7.2757   -0.6692   21.0182 C   0  0  0  0  0  0  0  0  0  0  0  0
    6.5307   -0.0258   19.9154 C   0  0  0  0  0  0  0  0  0  0  0  0
    7.1066    0.0347   18.6268 C   0  0  0  0  0  0  0  0  0  0  0  0
    8.0569   -0.4558   18.4129 H   0  0  0  0  0  0  0  0  0  0  0  0
    6.5506    0.6641   17.5811 N   0  0  0  0  0  0  0  0  0  0  0  0
    5.3918    1.3052   17.7987 C   0  0  0  0  0  0  0  0  0  0  0  0
    4.9599    1.8298   16.9515 H   0  0  0  0  0  0  0  0  0  0  0  0
    4.7409    1.3314   19.0382 C   0  0  0  0  0  0  0  0  0  0  0  0
    3.8229    1.8974   19.1605 H   0  0  0  0  0  0  0  0  0  0  0  0
    5.3159    0.6553   20.1125 C   0  0  0  0  0  0  0  0  0  0  0  0
    4.8666    0.6964   21.1064 H   0  0  0  0  0  0  0  0  0  0  0  0
    8.6270   -0.6259   21.2448 C   0  0  0  0  0  0  0  0  0  0  0  0
    9.8614   -0.0116   20.6914 C   0  0  0  0  0  0  0  0  0  0  0  0
    9.7054    1.0332   20.4022 H   0  0  0  0  0  0  0  0  0  0  0  0
   10.1919   -0.5474   19.8070 H   0  0  0  0  0  0  0  0  0  0  0  0
    9.3621    2.1661   23.0405 C   0  0  0  0  0  0  0  0  0  0  0  0
    8.7614    1.3140   22.7532 H   0  0  0  0  0  0  0  0  0  0  0  0
    8.8179    3.3179   23.6073 C   0  0  0  0  0  0  0  0  0  0  0  0
    7.7458    3.3979   23.7947 H   0  0  0  0  0  0  0  0  0  0  0  0
    9.6701    4.3794   23.9257 C   0  0  0  0  0  0  0  0  0  0  0  0
    9.3026    5.3025   24.3601 H   0  0  0  0  0  0  0  0  0  0  0  0
  1  2  1  0
  2  3  2  0
  3  4  1  0
  4  5  1  0
  5  6  1  0
  5  7  1  0
  7  8  1  6
  7  9  1  0
  9 10  1  0
  9 11  1  0
  9 12  1  0
 12 13  2  0
 13 14  1  0
 14 15  1  0
 14 16  1  0
 16 17  1  0
 17 18  2  0
 18 19  1  0
 18 20  1  0
 20 21  2  0
 21 22  1  0
 21 23  1  0
 23 24  1  0
 23 25  2  0
 25 26  1  0
 16 27  2  0
 27 28  1  0
 28 29  1  0
 28 30  1  0
  4 31  2  0
 31 32  1  0
 31 33  1  0
 33 34  1  0
 33 35  2  0
 35 36  1  0
 35  2  1  0
 28  7  1  0
 27 12  1  0
 25 17  1  0
M  END
>  <cnnaffinity>  (1) 
5.46817

>  <plip>  (1) 
-0.03571428571428571

>  <filename>  (1) 
[H][c]1[n][c]([N]([H])[C@@]2([H])[C]([H])([H])[c]3[n][n]([H])[c](-[c]4[c]([H])[n][c]([H])[c]([H])[c]4[H])[c]3[C]2([H])[H])[c]([H])[c]([H])[c]1[H]

>  <combo1>  (1) 
-0.23472767885581453

$$$$
