
     RDKit          3D

 35 36  0  0  0  0  0  0  0  0999 V2000
    5.6797   -4.6496   19.8820 O   0  0  0  0  0  0  0  0  0  0  0  0
    5.7704   -4.0088   20.9137 C   0  0  0  0  0  0  0  0  0  0  0  0
    6.0172   -2.4999   20.9559 C   0  0  0  0  0  0  0  0  0  0  0  0
    7.4348   -1.9110   21.1814 C   0  0  0  0  0  0  0  0  0  0  0  0
    7.3991   -0.3572   21.2111 C   0  0  0  0  0  0  0  0  0  0  0  0
    6.7093    0.2897   20.0151 C   0  0  0  0  0  0  0  0  0  0  0  0
    5.4746    0.9510   20.1473 C   0  0  0  0  0  0  0  0  0  0  0  0
    4.8319    1.4458   19.0077 C   0  0  0  0  0  0  0  0  0  0  0  0
    5.4498    1.2826   17.7654 C   0  0  0  0  0  0  0  0  0  0  0  0
    6.6360    0.6739   17.6056 N   0  0  0  0  0  0  0  0  0  0  0  0
    7.2356    0.2022   18.7099 C   0  0  0  0  0  0  0  0  0  0  0  0
    8.2095   -0.2684   18.5524 H   0  0  0  0  0  0  0  0  0  0  0  0
    4.9779    1.6584   16.8585 H   0  0  0  0  0  0  0  0  0  0  0  0
    3.8727    1.9565   19.0686 H   0  0  0  0  0  0  0  0  0  0  0  0
    5.0277    1.0863   21.1356 H   0  0  0  0  0  0  0  0  0  0  0  0
    6.8979   -0.0304   22.1366 H   0  0  0  0  0  0  0  0  0  0  0  0
    8.4290    0.0196   21.2852 H   0  0  0  0  0  0  0  0  0  0  0  0
    8.1331   -2.2275   20.4000 H   0  0  0  0  0  0  0  0  0  0  0  0
    7.8720   -2.2557   22.1279 H   0  0  0  0  0  0  0  0  0  0  0  0
    5.3685   -2.0886   21.7371 H   0  0  0  0  0  0  0  0  0  0  0  0
    5.6431   -2.1171   20.0016 H   0  0  0  0  0  0  0  0  0  0  0  0
    5.5794   -4.5859   22.1306 N   0  0  0  0  0  0  0  0  0  0  0  0
    5.2775   -5.9857   22.3749 C   0  0  0  0  0  0  0  0  0  0  0  0
    5.7110   -6.3061   23.7749 C   0  0  0  0  0  0  0  0  0  0  0  0
    4.7718   -6.9103   24.4979 C   0  0  0  0  0  0  0  0  0  0  0  0
    3.5039   -7.1345   23.7116 C   0  0  0  0  0  0  0  0  0  0  0  0
    3.7662   -6.3703   22.3871 C   0  0  0  0  0  0  0  0  0  0  0  0
    3.1504   -5.4701   22.3184 H   0  0  0  0  0  0  0  0  0  0  0  0
    3.5132   -7.0067   21.5409 H   0  0  0  0  0  0  0  0  0  0  0  0
    2.6098   -6.7561   24.2243 H   0  0  0  0  0  0  0  0  0  0  0  0
    3.3300   -8.2081   23.5311 H   0  0  0  0  0  0  0  0  0  0  0  0
    4.8931   -7.2175   25.5340 H   0  0  0  0  0  0  0  0  0  0  0  0
    6.6974   -6.0244   24.1294 H   0  0  0  0  0  0  0  0  0  0  0  0
    5.8088   -6.5938   21.6315 H   0  0  0  0  0  0  0  0  0  0  0  0
    5.6446   -3.9896   22.9359 H   0  0  0  0  0  0  0  0  0  0  0  0
  1  2  2  0
  2  3  1  0
  3  4  1  0
  4  5  1  0
  5  6  1  0
  6  7  2  0
  7  8  1  0
  8  9  2  0
  9 10  1  0
 10 11  2  0
 11 12  1  0
  9 13  1  0
  8 14  1  0
  7 15  1  0
  5 16  1  0
  5 17  1  0
  4 18  1  0
  4 19  1  0
  3 20  1  0
  3 21  1  0
  2 22  1  0
 22 23  1  0
 23 24  1  0
 24 25  2  0
 25 26  1  0
 26 27  1  0
 27 28  1  0
 27 29  1  0
 26 30  1  0
 26 31  1  0
 25 32  1  0
 24 33  1  0
 23 34  1  0
 22 35  1  0
 11  6  1  0
 27 23  1  0
M  END
>  <cnnaffinity>  (1) 
4.56968

>  <plip>  (1) 
-0.1724137931034483

>  <filename>  (1) 
[H][C]1=[C]([H])[C]([H])([N]([H])[C](=[O])[C]([H])([H])[C]([H])([H])[C]([H])([H])[c]2[c]([H])[n][c]([H])[c]([H])[c]2[H])[C]([H])([H])[C]1([H])[H]

>  <combo1>  (1) 
-1.1403071818381305

$$$$
