
     RDKit          3D

 36 38  0  0  0  0  0  0  0  0999 V2000
    8.7638   -4.8390   27.5286 C   0  0  0  0  0  0  0  0  0  0  0  0
    8.4712   -4.5544   26.1119 C   0  0  0  0  0  0  0  0  0  0  0  0
    8.1093   -3.3579   25.6757 N   0  0  0  0  0  0  0  0  0  0  0  0
    7.9355   -3.5776   24.3615 N   0  0  0  0  0  0  0  0  0  0  0  0
    7.4334   -2.5517   23.4669 C   0  0  0  0  0  0  0  0  0  0  0  0
    7.6510   -2.9877   21.9897 C   0  0  0  0  0  0  0  0  0  0  0  0
    6.9301   -2.1080   21.0395 N   0  0  0  0  0  4  0  0  0  0  0  0
    7.3968   -0.7112   20.9925 C   0  0  0  0  0  0  0  0  0  0  0  0
    6.6310   -0.0228   19.9042 C   0  0  0  0  0  0  0  0  0  0  0  0
    5.4188    0.6395   20.1443 C   0  0  0  0  0  0  0  0  0  0  0  0
    4.7909    1.3062   19.0902 C   0  0  0  0  0  0  0  0  0  0  0  0
    5.3924    1.2850   17.8278 C   0  0  0  0  0  0  0  0  0  0  0  0
    6.5426    0.6445   17.5765 N   0  0  0  0  0  0  0  0  0  0  0  0
    7.1402    0.0199   18.5971 C   0  0  0  0  0  0  0  0  0  0  0  0
    8.1043   -0.4318   18.3618 H   0  0  0  0  0  0  0  0  0  0  0  0
    4.9420    1.8057   16.9822 H   0  0  0  0  0  0  0  0  0  0  0  0
    3.8700    1.8606   19.2319 H   0  0  0  0  0  0  0  0  0  0  0  0
    4.9858    0.6604   21.1476 H   0  0  0  0  0  0  0  0  0  0  0  0
    7.2221   -0.2177   21.9551 H   0  0  0  0  0  0  0  0  0  0  0  0
    8.4803   -0.6831   20.8117 H   0  0  0  0  0  0  0  0  0  0  0  0
    6.9571   -2.4644   20.0527 H   0  0  0  0  0  0  0  0  0  0  0  0
    5.9112   -2.0779   21.3093 H   0  0  0  0  0  0  0  0  0  0  0  0
    7.2152   -4.4443   21.7852 C   0  0  0  0  0  0  0  0  0  0  0  0
    8.0429   -5.3939   22.6861 C   0  0  0  0  0  0  0  0  0  0  0  0
    8.1660   -4.8731   24.0773 C   0  0  0  0  0  0  0  0  0  0  0  0
    8.5328   -5.5229   25.1599 N   0  0  0  0  0  0  0  0  0  0  0  0
    9.0693   -5.4946   22.3261 H   0  0  0  0  0  0  0  0  0  0  0  0
    7.6500   -6.4128   22.7618 H   0  0  0  0  0  0  0  0  0  0  0  0
    6.1437   -4.5279   22.0190 H   0  0  0  0  0  0  0  0  0  0  0  0
    7.3443   -4.7033   20.7293 H   0  0  0  0  0  0  0  0  0  0  0  0
    8.7355   -2.9218   21.8086 H   0  0  0  0  0  0  0  0  0  0  0  0
    6.3644   -2.3842   23.6768 H   0  0  0  0  0  0  0  0  0  0  0  0
    7.9722   -1.6286   23.7025 H   0  0  0  0  0  0  0  0  0  0  0  0
    9.1664   -3.9378   27.9655 H   0  0  0  0  0  0  0  0  0  0  0  0
    7.8527   -5.1381   28.0573 H   0  0  0  0  0  0  0  0  0  0  0  0
    9.4895   -5.6500   27.5795 H   0  0  0  0  0  0  0  0  0  0  0  0
  1  2  1  0
  2  3  2  0
  3  4  1  0
  4  5  1  0
  5  6  1  0
  6  7  1  0
  7  8  1  0
  8  9  1  0
  9 10  2  0
 10 11  1  0
 11 12  2  0
 12 13  1  0
 13 14  2  0
 14 15  1  0
 12 16  1  0
 11 17  1  0
 10 18  1  0
  8 19  1  0
  8 20  1  0
  7 21  1  0
  7 22  1  0
  6 23  1  0
 23 24  1  0
 24 25  1  0
 25 26  2  0
 24 27  1  0
 24 28  1  0
 23 29  1  0
 23 30  1  0
  6 31  1  0
  5 32  1  0
  5 33  1  0
  1 34  1  0
  1 35  1  0
  1 36  1  0
 26  2  1  0
 25  4  1  0
 14  9  1  0
M  CHG  1   7   1
M  END
>  <cnnaffinity>  (1) 
4.66529

>  <plip>  (1) 
-0.10714285714285714

>  <filename>  (1) 
[H][c]1[n][c]([H])[c]([C]([H])([H])[N+]([H])([H])[C]2([H])[C]([H])([H])[n]3[n][c]([C]([H])([H])[H])[n][c]3[C]([H])([H])[C]2([H])[H])[c]([H])[c]1[H]

>  <combo1>  (1) 
-0.681958644739319

$$$$
