
     RDKit          3D

 29 31  0  0  0  0  0  0  0  0999 V2000
    5.9823   -0.9920   22.3251 H   0  0  0  0  0  0  0  0  0  0  0  0
    7.0192   -1.0948   22.0018 C   0  0  0  0  0  0  0  0  0  0  0  0
    7.4447   -0.6924   20.8675 N   0  0  0  0  0  0  0  0  0  0  0  0
    6.6456   -0.0114   19.9218 C   0  0  0  0  0  0  0  0  0  0  0  0
    7.1561    0.0512   18.6006 C   0  0  0  0  0  0  0  0  0  0  0  0
    8.1124   -0.4307   18.4088 H   0  0  0  0  0  0  0  0  0  0  0  0
    6.5572    0.6666   17.5822 N   0  0  0  0  0  0  0  0  0  0  0  0
    5.3922    1.2915   17.8391 C   0  0  0  0  0  0  0  0  0  0  0  0
    4.9370    1.8023   16.9916 H   0  0  0  0  0  0  0  0  0  0  0  0
    4.8025    1.3005   19.1057 C   0  0  0  0  0  0  0  0  0  0  0  0
    3.8743    1.8372   19.2494 H   0  0  0  0  0  0  0  0  0  0  0  0
    5.4301    0.6399   20.1713 C   0  0  0  0  0  0  0  0  0  0  0  0
    5.0062    0.6551   21.1745 H   0  0  0  0  0  0  0  0  0  0  0  0
    7.8789   -1.7983   23.0086 C   0  0  0  0  0  0  0  0  0  0  0  0
    7.3080   -2.2002   24.1327 N   0  0  0  0  0  0  0  0  0  0  0  0
    8.0926   -2.8616   25.0482 C   0  0  0  0  0  0  0  0  0  0  0  0
    7.5074   -3.2963   26.2791 C   0  0  0  0  0  0  0  0  0  0  0  0
    6.4501   -3.0816   26.4069 H   0  0  0  0  0  0  0  0  0  0  0  0
    8.2704   -3.9613   27.2169 C   0  0  0  0  0  0  0  0  0  0  0  0
    7.8364   -4.2961   28.1585 H   0  0  0  0  0  0  0  0  0  0  0  0
    9.6426   -4.2410   26.9666 C   0  0  0  0  0  0  0  0  0  0  0  0
   10.2426   -4.7344   27.7258 H   0  0  0  0  0  0  0  0  0  0  0  0
   10.2190   -3.8626   25.7760 C   0  0  0  0  0  0  0  0  0  0  0  0
   11.2558   -4.0772   25.5457 H   0  0  0  0  0  0  0  0  0  0  0  0
    9.4759   -3.1391   24.8086 C   0  0  0  0  0  0  0  0  0  0  0  0
   10.0548   -2.6663   23.5981 C   0  0  0  0  0  0  0  0  0  0  0  0
   11.1095   -2.8362   23.3945 H   0  0  0  0  0  0  0  0  0  0  0  0
    9.2606   -2.0029   22.7055 C   0  0  0  0  0  0  0  0  0  0  0  0
    9.6055   -1.6233   21.7550 H   0  0  0  0  0  0  0  0  0  0  0  0
  1  2  1  0
  2  3  2  3
  3  4  1  0
  4  5  2  0
  5  6  1  0
  5  7  1  0
  7  8  2  0
  8  9  1  0
  8 10  1  0
 10 11  1  0
 10 12  2  0
 12 13  1  0
  2 14  1  0
 14 15  2  0
 15 16  1  0
 16 17  2  0
 17 18  1  0
 17 19  1  0
 19 20  1  0
 19 21  2  0
 21 22  1  0
 21 23  1  0
 23 24  1  0
 23 25  2  0
 25 26  1  0
 26 27  1  0
 26 28  2  0
 28 29  1  0
 12  4  1  0
 28 14  1  0
 25 16  1  0
M  END
>  <cnnaffinity>  (1) 
4.75147

>  <plip>  (1) 
-0.0

>  <filename>  (1) 
[H][C](=[N][c]1[c]([H])[n][c]([H])[c]([H])[c]1[H])[c]1[n][c]2[c]([H])[c]([H])[c]([H])[c]([H])[c]2[c]([H])[c]1[H]

>  <combo1>  (1) 
-6.7895407689383885e-06

$$$$
