
     RDKit          3D

 36 39  0  0  0  0  0  0  0  0999 V2000
    4.9160    1.8134   16.9653 H   0  0  0  0  0  0  0  0  0  0  0  0
    5.3859    1.3082   17.8093 C   0  0  0  0  0  0  0  0  0  0  0  0
    6.5480    0.6884   17.5508 N   0  0  0  0  0  0  0  0  0  0  0  0
    7.1610    0.0732   18.5712 C   0  0  0  0  0  0  0  0  0  0  0  0
    8.1028   -0.4165   18.3269 H   0  0  0  0  0  0  0  0  0  0  0  0
    6.6576    0.0091   19.8850 C   0  0  0  0  0  0  0  0  0  0  0  0
    7.3802   -0.7215   20.9612 C   0  0  0  0  0  0  0  0  0  0  0  0
    6.6780   -1.5632   21.8706 C   0  0  0  0  0  0  0  0  0  0  0  0
    5.6065   -1.6775   21.7325 H   0  0  0  0  0  0  0  0  0  0  0  0
    7.3306   -2.2255   22.8629 C   0  0  0  0  0  0  0  0  0  0  0  0
    6.8470   -2.8601   23.5881 H   0  0  0  0  0  0  0  0  0  0  0  0
    8.7609   -2.1078   23.0604 C   0  0  0  0  0  0  0  0  0  0  0  0
    9.3672   -2.6996   23.9340 O   0  0  0  0  0  0  0  0  0  0  0  0
    9.4225   -1.2173   22.1397 N   0  0  0  0  0  0  0  0  0  0  0  0
   10.8485   -0.9859   22.2600 C   0  0  0  0  0  0  0  0  0  0  0  0
   11.6845   -2.0617   22.0771 C   0  0  0  0  0  0  0  0  0  0  0  0
   11.1998   -3.0250   21.9996 H   0  0  0  0  0  0  0  0  0  0  0  0
   13.0937   -1.9037   22.0852 C   0  0  0  0  0  0  0  0  0  0  0  0
   13.7265   -2.7686   21.9169 H   0  0  0  0  0  0  0  0  0  0  0  0
   13.6683   -0.6924   22.3932 C   0  0  0  0  0  0  0  0  0  0  0  0
   14.7464   -0.5903   22.5035 H   0  0  0  0  0  0  0  0  0  0  0  0
   12.8420    0.4416   22.6453 C   0  0  0  0  0  0  0  0  0  0  0  0
   13.3635    1.7191   23.0016 C   0  0  0  0  0  0  0  0  0  0  0  0
   14.4435    1.8324   23.0616 H   0  0  0  0  0  0  0  0  0  0  0  0
   12.4947    2.7595   23.2283 C   0  0  0  0  0  0  0  0  0  0  0  0
   12.8356    3.7572   23.4757 H   0  0  0  0  0  0  0  0  0  0  0  0
   11.0981    2.5306   23.0991 C   0  0  0  0  0  0  0  0  0  0  0  0
   10.3905    3.3404   23.2735 H   0  0  0  0  0  0  0  0  0  0  0  0
   10.5720    1.3741   22.7697 N   0  0  0  0  0  0  0  0  0  0  0  0
   11.4133    0.3139   22.5505 C   0  0  0  0  0  0  0  0  0  0  0  0
    8.7288   -0.5878   21.1286 C   0  0  0  0  0  0  0  0  0  0  0  0
    9.3276    0.0777   20.5175 H   0  0  0  0  0  0  0  0  0  0  0  0
    5.4367    0.6611   20.1256 C   0  0  0  0  0  0  0  0  0  0  0  0
    5.0141    0.6541   21.1302 H   0  0  0  0  0  0  0  0  0  0  0  0
    4.7940    1.3248   19.0775 C   0  0  0  0  0  0  0  0  0  0  0  0
    3.8587    1.8545   19.2266 H   0  0  0  0  0  0  0  0  0  0  0  0
  1  2  1  0
  2  3  2  0
  3  4  1  0
  4  5  1  0
  4  6  2  0
  6  7  1  0
  7  8  1  0
  8  9  1  0
  8 10  2  0
 10 11  1  0
 10 12  1  0
 12 13  2  0
 12 14  1  0
 14 15  1  0
 15 16  2  0
 16 17  1  0
 16 18  1  0
 18 19  1  0
 18 20  2  0
 20 21  1  0
 20 22  1  0
 22 23  2  0
 23 24  1  0
 23 25  1  0
 25 26  1  0
 25 27  2  0
 27 28  1  0
 27 29  1  0
 29 30  2  0
 14 31  1  0
 31 32  1  0
  6 33  1  0
 33 34  1  0
 33 35  2  0
 35 36  1  0
 35  2  1  0
 31  7  2  0
 30 15  1  0
 30 22  1  0
M  END
>  <cnnaffinity>  (1) 
6.17103

>  <plip>  (1) 
-0.10714285714285714

>  <filename>  (1) 
[H][c]1[n][c]([H])[c](-[c]2[c]([H])[c]([H])[c](=[O])[n](-[c]3[c]([H])[c]([H])[c]([H])[c]4[c]([H])[c]([H])[c]([H])[n][c]34)[c]2[H])[c]([H])[c]1[H]

>  <combo1>  (1) 
-0.7362834320687279

$$$$
