
     RDKit          3D

 40 42  0  0  0  0  0  0  0  0999 V2000
    4.9108    1.7885   16.9919 H   0  0  0  0  0  0  0  0  0  0  0  0
    5.3990    1.2983   17.8306 C   0  0  0  0  0  0  0  0  0  0  0  0
    6.5599    0.6830   17.5592 N   0  0  0  0  0  0  0  0  0  0  0  0
    7.1739    0.0722   18.5787 C   0  0  0  0  0  0  0  0  0  0  0  0
    8.1184   -0.4223   18.3469 H   0  0  0  0  0  0  0  0  0  0  0  0
    6.6774    0.0238   19.8923 C   0  0  0  0  0  0  0  0  0  0  0  0
    7.3875   -0.7265   21.0073 C   0  0  2  0  0  0  0  0  0  0  0  0
    8.2971   -1.1970   20.6246 H   0  0  0  0  0  0  0  0  0  0  0  0
    6.5349   -1.8696   21.5611 C   0  0  0  0  0  0  0  0  0  0  0  0
    5.9642   -2.7446   20.9436 O   0  0  0  0  0  0  0  0  0  0  0  0
    6.5021   -1.7465   22.9059 N   0  0  0  0  0  0  0  0  0  0  0  0
    6.0407   -2.4838   23.4150 H   0  0  0  0  0  0  0  0  0  0  0  0
    7.3761   -0.7414   23.4596 C   0  0  0  0  0  0  0  0  0  0  0  0
    8.2840   -1.1874   23.8928 H   0  0  0  0  0  0  0  0  0  0  0  0
    6.8707   -0.1515   24.2376 H   0  0  0  0  0  0  0  0  0  0  0  0
    7.7504    0.1388   22.2415 C   0  0  1  0  0  0  0  0  0  0  0  0
    7.0813    1.0192   22.2440 H   0  0  0  0  0  0  0  0  0  0  0  0
    9.1475    0.5911   22.2707 N   0  0  0  0  0  0  0  0  0  0  0  0
    9.5182    1.3598   21.0692 C   0  0  0  0  0  0  0  0  0  0  0  0
    8.9023    2.2774   20.9707 H   0  0  0  0  0  0  0  0  0  0  0  0
    9.3313    0.7672   20.1697 H   0  0  0  0  0  0  0  0  0  0  0  0
   10.9942    1.7586   21.0896 C   0  0  0  0  0  0  0  0  0  0  0  0
   11.6060    0.8496   21.0472 H   0  0  0  0  0  0  0  0  0  0  0  0
   11.2420    2.3430   20.1964 H   0  0  0  0  0  0  0  0  0  0  0  0
   11.3592    2.5607   22.3410 C   0  0  0  0  0  0  0  0  0  0  0  0
   10.8031    3.5110   22.3036 H   0  0  0  0  0  0  0  0  0  0  0  0
   12.8484    2.8818   22.4017 C   0  0  0  0  0  0  0  0  0  0  0  0
   13.1004    3.4649   23.2942 H   0  0  0  0  0  0  0  0  0  0  0  0
   13.1605    3.4601   21.5251 H   0  0  0  0  0  0  0  0  0  0  0  0
   13.4390    1.9569   22.4332 H   0  0  0  0  0  0  0  0  0  0  0  0
   10.8925    1.7838   23.5732 C   0  0  0  0  0  0  0  0  0  0  0  0
   11.4930    0.8719   23.6817 H   0  0  0  0  0  0  0  0  0  0  0  0
   11.0551    2.3798   24.4779 H   0  0  0  0  0  0  0  0  0  0  0  0
    9.4209    1.4018   23.4737 C   0  0  0  0  0  0  0  0  0  0  0  0
    8.8099    2.3288   23.4754 H   0  0  0  0  0  0  0  0  0  0  0  0
    9.1362    0.8394   24.3683 H   0  0  0  0  0  0  0  0  0  0  0  0
    5.4512    0.6537   20.1510 C   0  0  0  0  0  0  0  0  0  0  0  0
    5.0089    0.6219   21.1518 H   0  0  0  0  0  0  0  0  0  0  0  0
    4.8104    1.3103   19.0993 C   0  0  0  0  0  0  0  0  0  0  0  0
    3.8789    1.8408   19.2569 H   0  0  0  0  0  0  0  0  0  0  0  0
  1  2  1  0
  2  3  2  0
  3  4  1  0
  4  5  1  0
  4  6  2  0
  6  7  1  0
  7  8  1  6
  7  9  1  0
  9 10  2  0
  9 11  1  0
 11 12  1  0
 11 13  1  0
 13 14  1  0
 13 15  1  0
 13 16  1  0
 16 17  1  6
 16 18  1  0
 18 19  1  0
 19 20  1  0
 19 21  1  0
 19 22  1  0
 22 23  1  0
 22 24  1  0
 22 25  1  0
 25 26  1  0
 25 27  1  0
 27 28  1  0
 27 29  1  0
 27 30  1  0
 25 31  1  0
 31 32  1  0
 31 33  1  0
 31 34  1  0
 34 35  1  0
 34 36  1  0
  6 37  1  0
 37 38  1  0
 37 39  2  0
 39 40  1  0
 39  2  1  0
 16  7  1  0
 34 18  1  0
M  END
>  <cnnaffinity>  (1) 
5.04811

>  <plip>  (1) 
-0.10714285714285714

>  <filename>  (1) 
[H][c]1[n][c]([H])[c]([C@]2([H])[C](=[O])[N]([H])[C]([H])([H])[C@@]2([H])[N]2[C]([H])([H])[C]([H])([H])[C]([H])([C]([H])([H])[H])[C]([H])([H])[C]2([H])[H])[c]([H])[c]1[H]

>  <combo1>  (1) 
-0.6951515612202012

$$$$
