
     RDKit          3D

 46 48  0  0  0  0  0  0  0  0999 V2000
   11.8983    1.8723   24.9634 F   0  0  0  0  0  0  0  0  0  0  0  0
   10.9423    2.4057   24.1974 C   0  0  0  0  0  0  0  0  0  0  0  0
   11.0898    3.7222   23.7594 C   0  0  0  0  0  0  0  0  0  0  0  0
   10.1227    4.2918   22.9332 C   0  0  0  0  0  0  0  0  0  0  0  0
    9.0268    3.5302   22.5222 C   0  0  0  0  0  0  0  0  0  0  0  0
    8.8660    2.1953   22.9369 C   0  0  0  0  0  0  0  0  0  0  0  0
    7.7163    1.3602   22.4485 C   0  0  0  0  0  0  0  0  0  0  0  0
    8.3278    0.3146   21.5131 N   0  0  0  0  0  4  0  0  0  0  0  0
    7.4158   -0.7353   20.9371 C   0  0  0  0  0  0  0  0  0  0  0  0
    6.5604   -1.4849   21.9911 C   0  0  0  0  0  0  0  0  0  0  0  0
    7.2930   -2.4270   22.9122 N   0  0  0  0  0  4  0  0  0  0  0  0
    8.0313   -3.5687   22.2512 C   0  0  0  0  0  0  0  0  0  0  0  0
    8.1800   -4.6523   23.3357 C   0  0  0  0  0  0  0  0  0  0  0  0
    7.2088   -4.2574   24.4690 C   0  0  0  0  0  0  0  0  0  0  0  0
    6.3760   -3.1091   23.9021 C   0  0  0  0  0  0  0  0  0  0  0  0
    5.4992   -3.4905   23.3612 H   0  0  0  0  0  0  0  0  0  0  0  0
    6.0211   -2.4060   24.6623 H   0  0  0  0  0  0  0  0  0  0  0  0
    7.7571   -3.9282   25.3591 H   0  0  0  0  0  0  0  0  0  0  0  0
    6.5711   -5.0893   24.7837 H   0  0  0  0  0  0  0  0  0  0  0  0
    7.9400   -5.6344   22.9183 H   0  0  0  0  0  0  0  0  0  0  0  0
    9.2088   -4.7124   23.7062 H   0  0  0  0  0  0  0  0  0  0  0  0
    8.9884   -3.2231   21.8529 H   0  0  0  0  0  0  0  0  0  0  0  0
    7.4259   -3.9399   21.4143 H   0  0  0  0  0  0  0  0  0  0  0  0
    7.9900   -1.8754   23.4857 H   0  0  0  0  0  0  0  0  0  0  0  0
    6.0282   -0.7440   22.5949 H   0  0  0  0  0  0  0  0  0  0  0  0
    5.7943   -2.0366   21.4331 H   0  0  0  0  0  0  0  0  0  0  0  0
    6.6200   -0.0320   19.8471 C   0  0  0  0  0  0  0  0  0  0  0  0
    5.4111    0.6354   20.0673 C   0  0  0  0  0  0  0  0  0  0  0  0
    4.8177    1.3384   19.0113 C   0  0  0  0  0  0  0  0  0  0  0  0
    5.4706    1.3654   17.7780 C   0  0  0  0  0  0  0  0  0  0  0  0
    6.6343    0.7368   17.5476 N   0  0  0  0  0  0  0  0  0  0  0  0
    7.1855    0.0681   18.5656 C   0  0  0  0  0  0  0  0  0  0  0  0
    8.1401   -0.4155   18.3415 H   0  0  0  0  0  0  0  0  0  0  0  0
    5.0427    1.9105   16.9356 H   0  0  0  0  0  0  0  0  0  0  0  0
    3.8843    1.8751   19.1368 H   0  0  0  0  0  0  0  0  0  0  0  0
    4.9547    0.6392   21.0599 H   0  0  0  0  0  0  0  0  0  0  0  0
    8.0479   -1.4849   20.4590 H   0  0  0  0  0  0  0  0  0  0  0  0
    8.7006    0.8857   20.7116 H   0  0  0  0  0  0  0  0  0  0  0  0
    9.1331   -0.0795   22.0281 H   0  0  0  0  0  0  0  0  0  0  0  0
    6.9840    1.9698   21.9176 H   0  0  0  0  0  0  0  0  0  0  0  0
    7.2047    0.8803   23.2917 H   0  0  0  0  0  0  0  0  0  0  0  0
    9.8341    1.6483   23.8036 C   0  0  0  0  0  0  0  0  0  0  0  0
    9.6603    0.0178   24.4044 Cl  0  0  0  0  0  0  0  0  0  0  0  0
    8.3050    3.9547   21.8276 H   0  0  0  0  0  0  0  0  0  0  0  0
   10.2142    5.3317   22.6175 H   0  0  0  0  0  0  0  0  0  0  0  0
   11.9707    4.2754   24.0579 H   0  0  0  0  0  0  0  0  0  0  0  0
  1  2  1  0
  2  3  2  0
  3  4  1  0
  4  5  2  0
  5  6  1  0
  6  7  1  0
  7  8  1  0
  8  9  1  0
  9 10  1  0
 10 11  1  0
 11 12  1  0
 12 13  1  0
 13 14  1  0
 14 15  1  0
 15 16  1  0
 15 17  1  0
 14 18  1  0
 14 19  1  0
 13 20  1  0
 13 21  1  0
 12 22  1  0
 12 23  1  0
 11 24  1  0
 10 25  1  0
 10 26  1  0
  9 27  1  0
 27 28  2  0
 28 29  1  0
 29 30  2  0
 30 31  1  0
 31 32  2  0
 32 33  1  0
 30 34  1  0
 29 35  1  0
 28 36  1  0
  9 37  1  0
  8 38  1  0
  8 39  1  0
  7 40  1  0
  7 41  1  0
  6 42  2  0
 42 43  1  0
  5 44  1  0
  4 45  1  0
  3 46  1  0
 42  2  1  0
 15 11  1  0
 32 27  1  0
M  CHG  2   8   1  11   1
M  END
>  <cnnaffinity>  (1) 
5.55744

>  <plip>  (1) 
-0.10714285714285714

>  <filename>  (1) 
[H][c]1[n][c]([H])[c]([C]([H])([C]([H])([H])[N+]2([H])[C]([H])([H])[C]([H])([H])[C]([H])([H])[C]2([H])[H])[N+]([H])([H])[C]([H])([H])[c]2[c]([H])[c]([H])[c]([H])[c]([F])[c]2[Cl])[c]([H])[c]1[H]

>  <combo1>  (1) 
-0.5909710767178598

$$$$
