
     RDKit          3D

 38 40  0  0  0  0  0  0  0  0999 V2000
    4.9126    1.7903   16.9911 H   0  0  0  0  0  0  0  0  0  0  0  0
    5.3951    1.2978   17.8335 C   0  0  0  0  0  0  0  0  0  0  0  0
    6.5572    0.6772   17.5689 N   0  0  0  0  0  0  0  0  0  0  0  0
    7.1671    0.0548   18.5880 C   0  0  0  0  0  0  0  0  0  0  0  0
    8.1189   -0.4227   18.3648 H   0  0  0  0  0  0  0  0  0  0  0  0
    6.6735    0.0113   19.9169 C   0  0  0  0  0  0  0  0  0  0  0  0
    7.3499   -0.6589   20.9704 N   0  0  0  0  0  0  0  0  0  0  0  0
    7.8700   -0.1393   22.1570 C   0  0  0  0  0  0  0  0  0  0  0  0
    7.6930    1.3218   22.5127 C   0  0  0  0  0  0  0  0  0  0  0  0
    8.5513    1.5750   23.1494 H   0  0  0  0  0  0  0  0  0  0  0  0
    7.7841    1.9216   21.5999 H   0  0  0  0  0  0  0  0  0  0  0  0
    6.4037    1.6095   23.1703 N   0  0  0  0  0  0  0  0  0  0  0  0
    6.3487    1.1434   24.5647 C   0  0  0  0  0  0  0  0  0  0  0  0
    6.7380    0.1232   24.6002 H   0  0  0  0  0  0  0  0  0  0  0  0
    5.2912    1.0854   24.8527 H   0  0  0  0  0  0  0  0  0  0  0  0
    7.1044    2.0476   25.5535 C   0  0  0  0  0  0  0  0  0  0  0  0
    8.1826    1.9512   25.3691 H   0  0  0  0  0  0  0  0  0  0  0  0
    6.9387    1.6937   26.5778 H   0  0  0  0  0  0  0  0  0  0  0  0
    6.6757    3.5162   25.4008 C   0  0  0  0  0  0  0  0  0  0  0  0
    7.2903    4.1631   26.0338 H   0  0  0  0  0  0  0  0  0  0  0  0
    5.6390    3.6215   25.7495 H   0  0  0  0  0  0  0  0  0  0  0  0
    6.7518    3.9651   23.9320 C   0  0  0  0  0  0  0  0  0  0  0  0
    6.3694    4.9835   23.8059 H   0  0  0  0  0  0  0  0  0  0  0  0
    7.7979    3.9759   23.5981 H   0  0  0  0  0  0  0  0  0  0  0  0
    5.9681    2.9967   23.0332 C   0  0  0  0  0  0  0  0  0  0  0  0
    6.0416    3.2807   21.9756 H   0  0  0  0  0  0  0  0  0  0  0  0
    4.9004    3.0387   23.2882 H   0  0  0  0  0  0  0  0  0  0  0  0
    8.5119   -0.9659   22.9018 N   0  0  0  0  0  0  0  0  0  0  0  0
    8.4677   -2.2694   22.2456 C   0  0  0  0  0  0  0  0  0  0  0  0
    7.9394   -2.9953   22.8729 H   0  0  0  0  0  0  0  0  0  0  0  0
    9.4880   -2.6395   22.0964 H   0  0  0  0  0  0  0  0  0  0  0  0
    7.7565   -2.0519   20.8964 C   0  0  0  0  0  0  0  0  0  0  0  0
    6.9004   -2.7228   20.7229 H   0  0  0  0  0  0  0  0  0  0  0  0
    8.4830   -2.1339   20.0941 H   0  0  0  0  0  0  0  0  0  0  0  0
    5.4512    0.6581   20.1661 C   0  0  0  0  0  0  0  0  0  0  0  0
    5.0486    0.6372   21.1797 H   0  0  0  0  0  0  0  0  0  0  0  0
    4.8104    1.3107   19.1045 C   0  0  0  0  0  0  0  0  0  0  0  0
    3.8780    1.8378   19.2556 H   0  0  0  0  0  0  0  0  0  0  0  0
  1  2  1  0
  2  3  2  0
  3  4  1  0
  4  5  1  0
  4  6  2  0
  6  7  1  0
  7  8  1  0
  8  9  1  0
  9 10  1  0
  9 11  1  0
  9 12  1  0
 12 13  1  0
 13 14  1  0
 13 15  1  0
 13 16  1  0
 16 17  1  0
 16 18  1  0
 16 19  1  0
 19 20  1  0
 19 21  1  0
 19 22  1  0
 22 23  1  0
 22 24  1  0
 22 25  1  0
 25 26  1  0
 25 27  1  0
  8 28  2  0
 28 29  1  0
 29 30  1  0
 29 31  1  0
 29 32  1  0
 32 33  1  0
 32 34  1  0
  6 35  1  0
 35 36  1  0
 35 37  2  0
 37 38  1  0
 37  2  1  0
 32  7  1  0
 25 12  1  0
M  END
>  <cnnaffinity>  (1) 
4.74505

>  <plip>  (1) 
-0.03571428571428571

>  <filename>  (1) 
[H][c]1[n][c]([H])[c]([N]2[C]([C]([H])([H])[N]3[C]([H])([H])[C]([H])([H])[C]([H])([H])[C]([H])([H])[C]3([H])[H])=[N][C]([H])([H])[C]2([H])[H])[c]([H])[c]1[H]

>  <combo1>  (1) 
-0.23118698576663219

$$$$
