
     RDKit          3D

 31 33  0  0  0  0  0  0  0  0999 V2000
    4.9272    1.8560   16.9755 H   0  0  0  0  0  0  0  0  0  0  0  0
    5.4105    1.3241   17.7912 C   0  0  0  0  0  0  0  0  0  0  0  0
    6.5526    0.6834   17.4938 N   0  0  0  0  0  0  0  0  0  0  0  0
    7.1733    0.0326   18.4888 C   0  0  0  0  0  0  0  0  0  0  0  0
    8.0823   -0.5110   18.2288 H   0  0  0  0  0  0  0  0  0  0  0  0
    6.7137    0.0033   19.8284 C   0  0  0  0  0  0  0  0  0  0  0  0
    7.3250   -0.7621   20.8367 N   0  0  0  0  0  0  0  0  0  0  0  0
    8.3872   -0.3951   21.4655 C   0  0  0  0  0  0  0  0  0  0  0  0
    8.8772   -1.2377   22.5961 C   0  0  0  0  0  0  0  0  0  0  0  0
    9.5456   -0.6699   23.6913 C   0  0  0  0  0  0  0  0  0  0  0  0
    9.6941    0.4121   23.7307 H   0  0  0  0  0  0  0  0  0  0  0  0
   10.0242   -1.4673   24.7476 C   0  0  0  0  0  0  0  0  0  0  0  0
   10.4800   -0.9669   25.5981 H   0  0  0  0  0  0  0  0  0  0  0  0
    9.9165   -2.8592   24.7248 C   0  0  0  0  0  0  0  0  0  0  0  0
   10.3303   -3.4673   25.5271 H   0  0  0  0  0  0  0  0  0  0  0  0
    9.2608   -3.4376   23.6252 C   0  0  0  0  0  0  0  0  0  0  0  0
    8.6822   -2.6522   22.5945 C   0  0  0  0  0  0  0  0  0  0  0  0
    8.0071   -3.5742   21.7156 C   0  0  0  0  0  0  0  0  0  0  0  0
    7.4083   -3.2878   20.8671 H   0  0  0  0  0  0  0  0  0  0  0  0
    8.2282   -4.8332   22.1798 C   0  0  0  0  0  0  0  0  0  0  0  0
    7.8937   -5.7914   21.7955 H   0  0  0  0  0  0  0  0  0  0  0  0
    8.9858   -4.7540   23.3328 N   0  0  0  0  0  0  0  0  0  0  0  0
    9.3168   -5.5331   23.8747 H   0  0  0  0  0  0  0  0  0  0  0  0
    9.1653    0.8707   21.1404 C   0  0  0  0  0  0  0  0  0  0  0  0
   10.1630    0.8713   21.5827 H   0  0  0  0  0  0  0  0  0  0  0  0
    9.2784    0.9718   20.0618 H   0  0  0  0  0  0  0  0  0  0  0  0
    8.6218    1.7444   21.5102 H   0  0  0  0  0  0  0  0  0  0  0  0
    5.5001    0.6493   20.1064 C   0  0  0  0  0  0  0  0  0  0  0  0
    5.1107    0.6060   21.1233 H   0  0  0  0  0  0  0  0  0  0  0  0
    4.8444    1.3200   19.0727 C   0  0  0  0  0  0  0  0  0  0  0  0
    3.9066    1.8309   19.2477 H   0  0  0  0  0  0  0  0  0  0  0  0
  1  2  1  0
  2  3  2  0
  3  4  1  0
  4  5  1  0
  4  6  2  0
  6  7  1  0
  7  8  2  3
  8  9  1  0
  9 10  2  0
 10 11  1  0
 10 12  1  0
 12 13  1  0
 12 14  2  0
 14 15  1  0
 14 16  1  0
 16 17  2  0
 17 18  1  0
 18 19  1  0
 18 20  2  0
 20 21  1  0
 20 22  1  0
 22 23  1  0
  8 24  1  0
 24 25  1  0
 24 26  1  0
 24 27  1  0
  6 28  1  0
 28 29  1  0
 28 30  2  0
 30 31  1  0
 30  2  1  0
 17  9  1  0
 22 16  1  0
M  END
>  <cnnaffinity>  (1) 
5.04037

>  <plip>  (1) 
-0.07142857142857142

>  <filename>  (1) 
[H][c]1[n][c]([H])[c]([N]=[C]([c]2[c]([H])[c]([H])[c]([H])[c]3[c]2[c]([H])[c]([H])[n]3[H])[C]([H])([H])[H])[c]([H])[c]1[H]

>  <combo1>  (1) 
-0.5100463662876004

$$$$
