
     RDKit          3D

 27 27  0  0  0  0  0  0  0  0999 V2000
    4.7275   -4.0817   27.4690 H   0  0  0  0  0  0  0  0  0  0  0  0
    4.9231   -3.4597   26.7564 O   0  0  0  0  0  0  0  0  0  0  0  0
    5.0253   -4.2164   25.5161 C   0  0  0  0  0  0  0  0  0  0  0  0
    4.1558   -4.8947   25.5955 H   0  0  0  0  0  0  0  0  0  0  0  0
    5.9325   -4.8748   25.5915 H   0  0  0  0  0  0  0  0  0  0  0  0
    4.7488   -3.2890   24.4036 C   0  0  0  0  0  0  0  0  0  0  0  0
    4.4439   -4.1908   23.4958 H   0  0  0  0  0  0  0  0  0  0  0  0
    6.4840   -3.2038   23.7191 H   0  0  0  0  0  0  0  0  0  0  0  0
    4.9155   -3.2389   24.2635 C   0  0  0  0  0  0  0  0  0  0  0  0
    4.9065   -2.0903   24.9149 H   0  0  0  0  0  0  0  0  0  0  0  0
    3.5263   -2.9927   24.5554 H   0  0  0  0  0  0  0  0  0  0  0  0
    5.9973   -2.2564   21.7272 N   0  0  0  0  0  0  0  0  0  0  0  0
    5.6876   -2.5558   22.6813 H   0  0  0  0  0  0  0  0  0  0  0  0
    7.1881   -1.2214   21.9214 S   0  0  0  0  0  4  0  0  0  0  0  0
    6.9892   -0.1903   22.9270 O   0  0  0  0  0  0  0  0  0  0  0  0
    7.7283   -0.7706   20.4258 N   0  0  0  0  0  0  0  0  0  0  0  0
    8.7375   -0.6600   20.3529 H   0  0  0  0  0  0  0  0  0  0  0  0
    6.9540    0.0245   19.5287 C   0  0  0  0  0  0  0  0  0  0  0  0
    7.4336    0.2405   18.2154 C   0  0  0  0  0  0  0  0  0  0  0  0
    8.3940   -0.1904   17.9261 H   0  0  0  0  0  0  0  0  0  0  0  0
    6.7834    0.9394   17.2785 N   0  0  0  0  0  0  0  0  0  0  0  0
    5.6059    1.4892   17.6233 C   0  0  0  0  0  0  0  0  0  0  0  0
    5.1123    2.0724   16.8512 H   0  0  0  0  0  0  0  0  0  0  0  0
    5.0391    1.3358   18.8932 C   0  0  0  0  0  0  0  0  0  0  0  0
    4.0944    1.8203   19.1108 H   0  0  0  0  0  0  0  0  0  0  0  0
    5.7114    0.5758   19.8635 C   0  0  0  0  0  0  0  0  0  0  0  0
    5.3040    0.4041   20.8631 H   0  0  0  0  0  0  0  0  0  0  0  0
  1  2  1  0
  2  3  1  0
  3  4  1  0
  3  5  1  0
  3  6  1  0
  6  7  1  0
  6  8  1  0
  6  9  1  0
  9 10  1  0
  9 11  1  0
  9 12  1  0
 12 13  1  0
 14 12  1  6
 14 15  2  0
 14 16  1  0
 16 17  1  0
 16 18  1  0
 18 19  2  0
 19 20  1  0
 19 21  1  0
 21 22  2  0
 22 23  1  0
 22 24  1  0
 24 25  1  0
 24 26  2  0
 26 27  1  0
 26 18  1  0
M  END
>  <cnnaffinity>  (1) 
3.44949

>  <plip>  (1) 
-0.10344827586206896

>  <filename>  (1) 
[H][O][C]([H])([H])[C]([H])([H])[C]([H])([H])[N]([H])[S@](=[O])[N]([H])[c]1[c]([H])[n][c]([H])[c]([H])[c]1[H]

>  <combo1>  (1) 
-0.5525317544499797

$$$$
