
     RDKit          3D

 36 38  0  0  0  0  0  0  0  0999 V2000
    4.9444    1.7855   17.0062 H   0  0  0  0  0  0  0  0  0  0  0  0
    5.4157    1.2773   17.8437 C   0  0  0  0  0  0  0  0  0  0  0  0
    6.5796    0.6511   17.5895 N   0  0  0  0  0  0  0  0  0  0  0  0
    7.2128    0.0607   18.6148 C   0  0  0  0  0  0  0  0  0  0  0  0
    8.1543   -0.4376   18.3980 H   0  0  0  0  0  0  0  0  0  0  0  0
    6.6920    0.0446   19.9255 C   0  0  0  0  0  0  0  0  0  0  0  0
    7.4516   -0.5059   20.9676 O   0  0  0  0  0  0  0  0  0  0  0  0
    6.8875   -1.3732   21.8650 C   0  0  0  0  0  0  0  0  0  0  0  0
    5.8461   -1.9541   21.6715 O   0  0  0  0  0  0  0  0  0  0  0  0
    7.8101   -1.6506   23.0641 C   0  0  0  0  0  0  0  0  0  0  0  0
    8.3890   -0.5826   23.7738 O   0  0  0  0  0  0  0  0  0  0  0  0
    7.5539    0.1439   24.6825 C   0  0  0  0  0  0  0  0  0  0  0  0
    8.2100    0.5407   25.4675 H   0  0  0  0  0  0  0  0  0  0  0  0
    6.8127   -0.4986   25.1765 H   0  0  0  0  0  0  0  0  0  0  0  0
    6.8671    1.3307   24.0053 C   0  0  1  0  0  0  0  0  0  0  0  0
    6.0895    0.9614   23.3181 H   0  0  0  0  0  0  0  0  0  0  0  0
    6.2487    2.1125   25.0140 O   0  0  0  0  0  0  0  0  0  0  0  0
    6.3093    3.4963   24.6852 C   0  0  0  0  0  0  0  0  0  0  0  0
    5.2898    3.8929   24.5898 H   0  0  0  0  0  0  0  0  0  0  0  0
    6.7882    4.0268   25.5173 H   0  0  0  0  0  0  0  0  0  0  0  0
    7.1108    3.6219   23.3752 C   0  0  0  0  0  0  0  0  0  0  0  0
    7.7971    4.4751   23.3966 H   0  0  0  0  0  0  0  0  0  0  0  0
    6.4362    3.7710   22.5247 H   0  0  0  0  0  0  0  0  0  0  0  0
    7.8283    2.2732   23.2700 C   0  0  0  0  0  0  0  0  0  0  0  0
    8.0157    1.9327   22.2474 H   0  0  0  0  0  0  0  0  0  0  0  0
    8.7890    2.2996   23.7992 H   0  0  0  0  0  0  0  0  0  0  0  0
    8.7233   -2.8360   22.8749 C   0  0  0  0  0  0  0  0  0  0  0  0
    9.7441   -2.7114   23.2326 H   0  0  0  0  0  0  0  0  0  0  0  0
    8.6449   -3.3849   21.9400 H   0  0  0  0  0  0  0  0  0  0  0  0
    7.5992   -2.8983   23.8702 C   0  0  0  0  0  0  0  0  0  0  0  0
    6.7044   -3.4813   23.6701 H   0  0  0  0  0  0  0  0  0  0  0  0
    7.8836   -2.7991   24.9162 H   0  0  0  0  0  0  0  0  0  0  0  0
    5.4611    0.6539   20.1707 C   0  0  0  0  0  0  0  0  0  0  0  0
    5.0212    0.6017   21.1643 H   0  0  0  0  0  0  0  0  0  0  0  0
    4.8188    1.3007   19.1083 C   0  0  0  0  0  0  0  0  0  0  0  0
    3.8818    1.8285   19.2620 H   0  0  0  0  0  0  0  0  0  0  0  0
  1  2  1  0
  2  3  2  0
  3  4  1  0
  4  5  1  0
  4  6  2  0
  6  7  1  0
  7  8  1  0
  8  9  2  0
  8 10  1  0
 10 11  1  0
 11 12  1  0
 12 13  1  0
 12 14  1  0
 12 15  1  0
 15 16  1  6
 15 17  1  0
 17 18  1  0
 18 19  1  0
 18 20  1  0
 18 21  1  0
 21 22  1  0
 21 23  1  0
 21 24  1  0
 24 25  1  0
 24 26  1  0
 10 27  1  0
 27 28  1  0
 27 29  1  0
 27 30  1  0
 30 31  1  0
 30 32  1  0
  6 33  1  0
 33 34  1  0
 33 35  2  0
 35 36  1  0
 35  2  1  0
 30 10  1  0
 24 15  1  0
M  END
>  <cnnaffinity>  (1) 
4.5598

>  <plip>  (1) 
-0.07142857142857142

>  <filename>  (1) 
[H][c]1[n][c]([H])[c]([O][C](=[O])[C]2([O][C]([H])([H])[C@@]3([H])[O][C]([H])([H])[C]([H])([H])[C]3([H])[H])[C]([H])([H])[C]2([H])[H])[c]([H])[c]1[H]

>  <combo1>  (1) 
-0.41234163713682714

$$$$
