
     RDKit          3D

 33 35  0  0  0  0  0  0  0  0999 V2000
    4.9909    1.7822   17.0091 H   0  0  0  0  0  0  0  0  0  0  0  0
    5.4488    1.2697   17.8504 C   0  0  0  0  0  0  0  0  0  0  0  0
    6.6085    0.6401   17.6061 N   0  0  0  0  0  0  0  0  0  0  0  0
    7.1948    0.0277   18.6401 C   0  0  0  0  0  0  0  0  0  0  0  0
    8.1330   -0.4806   18.4310 H   0  0  0  0  0  0  0  0  0  0  0  0
    6.6848   -0.0001   19.9583 C   0  0  0  0  0  0  0  0  0  0  0  0
    7.3797   -0.6392   20.9824 N   0  0  0  0  0  0  0  0  0  0  0  0
    6.8202   -0.8058   22.2030 N   0  0  0  0  0  0  0  0  0  0  0  0
    7.6330   -1.4661   22.9565 C   0  0  0  0  0  0  0  0  0  0  0  0
    7.2945   -1.6988   24.3952 C   0  0  0  0  0  0  0  0  0  0  0  0
    6.2729   -2.0962   24.4513 H   0  0  0  0  0  0  0  0  0  0  0  0
    7.9654   -2.4564   24.8200 H   0  0  0  0  0  0  0  0  0  0  0  0
    7.4162   -0.3872   25.1499 C   0  0  0  0  0  0  0  0  0  0  0  0
    6.2799    0.3523   25.4974 C   0  0  0  0  0  0  0  0  0  0  0  0
    5.2874   -0.0520   25.3061 H   0  0  0  0  0  0  0  0  0  0  0  0
    6.4185    1.6064   26.1062 C   0  0  0  0  0  0  0  0  0  0  0  0
    5.5368    2.1433   26.4415 H   0  0  0  0  0  0  0  0  0  0  0  0
    7.6893    2.1602   26.3002 C   0  0  0  0  0  0  0  0  0  0  0  0
    7.8404    3.1425   26.7326 H   0  0  0  0  0  0  0  0  0  0  0  0
    8.8047    1.4126   25.9330 C   0  0  0  0  0  0  0  0  0  0  0  0
   10.0332    1.9441   26.0466 F   0  0  0  0  0  0  0  0  0  0  0  0
    8.6914    0.1428   25.3867 C   0  0  0  0  0  0  0  0  0  0  0  0
    9.5979   -0.4185   25.1663 H   0  0  0  0  0  0  0  0  0  0  0  0
    8.9198   -1.8344   22.2535 C   0  0  0  0  0  0  0  0  0  0  0  0
    9.7919   -1.4266   22.7788 H   0  0  0  0  0  0  0  0  0  0  0  0
    9.0534   -2.9196   22.1868 H   0  0  0  0  0  0  0  0  0  0  0  0
    8.7182   -1.1931   20.8716 C   0  0  0  0  0  0  0  0  0  0  0  0
    8.7650   -1.9340   20.0652 H   0  0  0  0  0  0  0  0  0  0  0  0
    9.4603   -0.4129   20.6260 H   0  0  0  0  0  0  0  0  0  0  0  0
    5.4541    0.6448   20.1916 C   0  0  0  0  0  0  0  0  0  0  0  0
    5.0200    0.6354   21.1922 H   0  0  0  0  0  0  0  0  0  0  0  0
    4.8396    1.2839   19.1140 C   0  0  0  0  0  0  0  0  0  0  0  0
    3.8981    1.8026   19.2468 H   0  0  0  0  0  0  0  0  0  0  0  0
  1  2  1  0
  2  3  2  0
  3  4  1  0
  4  5  1  0
  4  6  2  0
  6  7  1  0
  7  8  1  0
  8  9  2  0
  9 10  1  0
 10 11  1  0
 10 12  1  0
 10 13  1  0
 13 14  2  0
 14 15  1  0
 14 16  1  0
 16 17  1  0
 16 18  2  0
 18 19  1  0
 18 20  1  0
 20 21  1  0
 20 22  2  0
 22 23  1  0
  9 24  1  0
 24 25  1  0
 24 26  1  0
 24 27  1  0
 27 28  1  0
 27 29  1  0
  6 30  1  0
 30 31  1  0
 30 32  2  0
 32 33  1  0
 32  2  1  0
 27  7  1  0
 22 13  1  0
M  END
>  <cnnaffinity>  (1) 
4.7662

>  <plip>  (1) 
-0.03571428571428571

>  <filename>  (1) 
[H][c]1[n][c]([H])[c]([N]2[N]=[C]([C]([H])([H])[c]3[c]([H])[c]([H])[c]([H])[c]([F])[c]3[H])[C]([H])([H])[C]2([H])[H])[c]([H])[c]1[H]

>  <combo1>  (1) 
-0.22225368274660073

$$$$
