
     RDKit          3D

 34 36  0  0  0  0  0  0  0  0999 V2000
    7.3305   -0.4127   25.4173 O   0  0  0  0  0  0  0  0  0  0  0  0
    8.0912   -1.3617   25.4941 C   0  0  0  0  0  0  0  0  0  0  0  0
    8.4381   -1.9182   26.8483 C   0  0  0  0  0  0  0  0  0  0  0  0
    7.5835   -3.1204   27.1163 C   0  0  0  0  0  0  0  0  0  0  0  0
    6.2729   -2.9542   27.5828 C   0  0  0  0  0  0  0  0  0  0  0  0
    5.5326   -4.0743   27.9731 C   0  0  0  0  0  0  0  0  0  0  0  0
    6.0550   -5.3610   27.7836 C   0  0  0  0  0  0  0  0  0  0  0  0
    4.8767   -7.1613   28.3874 I   0  0  0  0  0  0  0  0  0  0  0  0
    7.3283   -5.5251   27.2335 C   0  0  0  0  0  0  0  0  0  0  0  0
    8.0966   -4.4044   26.9066 C   0  0  0  0  0  0  0  0  0  0  0  0
    9.1017   -4.5281   26.5107 H   0  0  0  0  0  0  0  0  0  0  0  0
    7.7189   -6.5253   27.0654 H   0  0  0  0  0  0  0  0  0  0  0  0
    4.5602   -3.9458   28.4393 H   0  0  0  0  0  0  0  0  0  0  0  0
    5.8736   -1.9484   27.7086 H   0  0  0  0  0  0  0  0  0  0  0  0
    9.4938   -2.1874   26.8645 H   0  0  0  0  0  0  0  0  0  0  0  0
    8.2664   -1.1414   27.5976 H   0  0  0  0  0  0  0  0  0  0  0  0
    8.6156   -1.9048   24.3603 N   0  0  0  0  0  0  0  0  0  0  0  0
    8.1982   -1.5204   23.1250 C   0  0  0  0  0  0  0  0  0  0  0  0
    8.8689   -2.0727   22.1672 N   0  0  0  0  0  0  0  0  0  0  0  0
    8.4010   -1.5690   20.9654 C   0  0  0  0  0  0  0  0  0  0  0  0
    7.3648   -0.6611   21.0341 C   0  0  0  0  0  0  0  0  0  0  0  0
    6.6795    0.0071   19.9135 C   0  0  0  0  0  0  0  0  0  0  0  0
    5.4647    0.6614   20.1540 C   0  0  0  0  0  0  0  0  0  0  0  0
    4.8348    1.3014   19.0888 C   0  0  0  0  0  0  0  0  0  0  0  0
    5.4289    1.2773   17.8217 C   0  0  0  0  0  0  0  0  0  0  0  0
    6.5847    0.6342   17.5661 N   0  0  0  0  0  0  0  0  0  0  0  0
    7.1919    0.0138   18.5975 C   0  0  0  0  0  0  0  0  0  0  0  0
    8.1302   -0.5001   18.4001 H   0  0  0  0  0  0  0  0  0  0  0  0
    4.9401    1.8086   17.0147 H   0  0  0  0  0  0  0  0  0  0  0  0
    3.8992    1.8358   19.2338 H   0  0  0  0  0  0  0  0  0  0  0  0
    5.0337    0.6687   21.1548 H   0  0  0  0  0  0  0  0  0  0  0  0
    6.9214   -0.3906   22.7034 S   0  0  0  0  0  0  0  0  0  0  0  0
    8.8380   -1.8897   20.0253 H   0  0  0  0  0  0  0  0  0  0  0  0
    9.2798   -2.6652   24.4073 H   0  0  0  0  0  0  0  0  0  0  0  0
  1  2  2  0
  2  3  1  0
  3  4  1  0
  4  5  2  0
  5  6  1  0
  6  7  2  0
  7  8  1  0
  7  9  1  0
  9 10  2  0
 10 11  1  0
  9 12  1  0
  6 13  1  0
  5 14  1  0
  3 15  1  0
  3 16  1  0
  2 17  1  0
 17 18  1  0
 18 19  2  0
 19 20  1  0
 20 21  2  0
 21 22  1  0
 22 23  2  0
 23 24  1  0
 24 25  2  0
 25 26  1  0
 26 27  2  0
 27 28  1  0
 25 29  1  0
 24 30  1  0
 23 31  1  0
 21 32  1  0
 20 33  1  0
 17 34  1  0
 10  4  1  0
 32 18  1  0
 27 22  1  0
M  END
>  <cnnaffinity>  (1) 
5.11946

>  <plip>  (1) 
-0.03333333333333333

>  <filename>  (1) 
[H][c]1[n][c]([N]([H])[C](=[O])[C]([H])([H])[c]2[c]([H])[c]([H])[c]([I])[c]([H])[c]2[H])[s][c]1-[c]1[c]([H])[n][c]([H])[c]([H])[c]1[H]

>  <combo1>  (1) 
-0.13502939704861067

$$$$
