
     RDKit          3D

 34 36  0  0  0  0  0  0  0  0999 V2000
    6.7141   -1.5071   21.8467 C   0  0  0  0  0  0  0  0  0  0  0  0
    7.3633   -0.7457   20.9528 C   0  0  0  0  0  0  0  0  0  0  0  0
    6.6493    0.0005   19.8665 C   0  0  0  0  0  0  0  0  0  0  0  0
    5.4255    0.6617   20.1030 C   0  0  0  0  0  0  0  0  0  0  0  0
    4.7897    1.3355   19.0576 C   0  0  0  0  0  0  0  0  0  0  0  0
    5.3913    1.3272   17.7940 C   0  0  0  0  0  0  0  0  0  0  0  0
    6.5477    0.7000   17.5311 N   0  0  0  0  0  0  0  0  0  0  0  0
    7.1534    0.0772   18.5504 C   0  0  0  0  0  0  0  0  0  0  0  0
    8.0983   -0.4045   18.3021 H   0  0  0  0  0  0  0  0  0  0  0  0
    4.9177    1.8387   16.9589 H   0  0  0  0  0  0  0  0  0  0  0  0
    3.8513    1.8700   19.2069 H   0  0  0  0  0  0  0  0  0  0  0  0
    4.9972    0.6727   21.1063 H   0  0  0  0  0  0  0  0  0  0  0  0
    8.8711   -0.6233   21.0082 C   0  0  0  0  0  0  0  0  0  0  0  0
    9.4109   -0.9694   22.4355 N   0  0  0  0  0  4  0  0  0  0  0  0
   10.9022   -0.7621   22.5206 C   0  0  0  0  0  0  0  0  0  0  0  0
   11.3045    0.6787   22.3821 C   0  0  0  0  0  0  0  0  0  0  0  0
   11.3968    1.7128   23.2774 C   0  0  0  0  0  0  0  0  0  0  0  0
   11.8118    2.7526   22.5150 N   0  0  0  0  0  0  0  0  0  0  0  0
   11.9647    2.4080   21.2377 N   0  0  0  0  0  0  0  0  0  0  0  0
   11.6526    1.1577   21.1518 N   0  0  0  0  0  0  0  0  0  0  0  0
   12.1143    3.6717   22.7905 H   0  0  0  0  0  0  0  0  0  0  0  0
   11.1560    1.7895   24.3318 H   0  0  0  0  0  0  0  0  0  0  0  0
   11.3773   -1.2793   21.6801 H   0  0  0  0  0  0  0  0  0  0  0  0
   11.2917   -1.2119   23.4412 H   0  0  0  0  0  0  0  0  0  0  0  0
    8.8781   -2.3098   22.8763 C   0  0  0  0  0  0  0  0  0  0  0  0
    7.3656   -2.1904   23.0269 C   0  0  0  0  0  0  0  0  0  0  0  0
    6.9350   -3.1856   23.1629 H   0  0  0  0  0  0  0  0  0  0  0  0
    7.1194   -1.6362   23.9426 H   0  0  0  0  0  0  0  0  0  0  0  0
    9.1290   -3.0640   22.1227 H   0  0  0  0  0  0  0  0  0  0  0  0
    9.3420   -2.6106   23.8227 H   0  0  0  0  0  0  0  0  0  0  0  0
    8.9488   -0.2588   23.0552 H   0  0  0  0  0  0  0  0  0  0  0  0
    9.3460   -1.3027   20.2881 H   0  0  0  0  0  0  0  0  0  0  0  0
    9.1948    0.3918   20.7714 H   0  0  0  0  0  0  0  0  0  0  0  0
    5.6438   -1.6621   21.7187 H   0  0  0  0  0  0  0  0  0  0  0  0
  1  2  2  0
  2  3  1  0
  3  4  2  0
  4  5  1  0
  5  6  2  0
  6  7  1  0
  7  8  2  0
  8  9  1  0
  6 10  1  0
  5 11  1  0
  4 12  1  0
  2 13  1  0
 13 14  1  0
 14 15  1  0
 15 16  1  0
 16 17  2  0
 17 18  1  0
 18 19  1  0
 19 20  2  0
 18 21  1  0
 17 22  1  0
 15 23  1  0
 15 24  1  0
 14 25  1  0
 25 26  1  0
 26 27  1  0
 26 28  1  0
 25 29  1  0
 25 30  1  0
 14 31  1  0
 13 32  1  0
 13 33  1  0
  1 34  1  0
 26  1  1  0
  8  3  1  0
 20 16  1  0
M  CHG  1  14   1
M  END
>  <cnnaffinity>  (1) 
5.197

>  <plip>  (1) 
-0.07142857142857142

>  <filename>  (1) 
[H][C]1=[C]([c]2[c]([H])[n][c]([H])[c]([H])[c]2[H])[C]([H])([H])[N+]([H])([C]([H])([H])[c]2[n][n][n]([H])[c]2[H])[C]([H])([H])[C]1([H])[H]

>  <combo1>  (1) 
-0.5106687215260671

$$$$
