
     RDKit          3D

 34 36  0  0  0  0  0  0  0  0999 V2000
    9.4444   -0.4221   20.1904 H   0  0  0  0  0  0  0  0  0  0  0  0
    8.8114   -0.7498   21.0031 C   0  0  0  0  0  0  0  0  0  0  0  0
    9.4400   -1.2494   22.0624 N   0  0  0  0  0  0  0  0  0  0  0  0
    8.7020   -1.6912   23.0911 N   0  0  0  0  0  0  0  0  0  0  0  0
    7.3608   -1.6032   23.0276 C   0  0  0  0  0  0  0  0  0  0  0  0
    6.5822   -2.2534   24.1365 C   0  0  0  0  0  0  0  0  0  0  0  0
    7.2026   -2.2853   25.0327 H   0  0  0  0  0  0  0  0  0  0  0  0
    5.6850   -1.6734   24.3527 H   0  0  0  0  0  0  0  0  0  0  0  0
    6.2272   -3.6534   23.6747 C   0  0  0  0  0  0  0  0  0  0  0  0
    7.1936   -4.6237   23.3849 C   0  0  0  0  0  0  0  0  0  0  0  0
    8.2451   -4.4102   23.4506 H   0  0  0  0  0  0  0  0  0  0  0  0
    6.8113   -5.9490   22.8765 C   0  0  0  0  0  0  0  0  0  0  0  0
    7.7443   -6.5087   23.2695 H   0  0  0  0  0  0  0  0  0  0  0  0
    5.4663   -6.6638   22.9875 C   0  0  0  0  0  0  0  0  0  0  0  0
    5.5431   -6.6713   23.0602 C   0  0  0  0  0  0  0  0  0  0  0  0
    5.0282   -7.7892   23.7113 F   0  0  0  0  0  0  0  0  0  0  0  0
    5.3318   -6.8191   20.7907 F   0  0  0  0  0  0  0  0  0  0  0  0
    6.4796   -8.3737   22.1486 F   0  0  0  0  0  0  0  0  0  0  0  0
    4.8403   -5.3435   22.6750 C   0  0  0  0  0  0  0  0  0  0  0  0
    4.0325   -5.5006   21.8965 H   0  0  0  0  0  0  0  0  0  0  0  0
    4.9428   -4.0549   23.2861 C   0  0  0  0  0  0  0  0  0  0  0  0
    4.1201   -3.3659   23.2063 H   0  0  0  0  0  0  0  0  0  0  0  0
    6.6737   -1.0850   22.0009 N   0  0  0  0  0  0  0  0  0  0  0  0
    7.3948   -0.6373   20.9692 C   0  0  0  0  0  0  0  0  0  0  0  0
    6.6591   -0.0096   19.8488 C   0  0  0  0  0  0  0  0  0  0  0  0
    7.1595   -0.0731   18.5391 C   0  0  0  0  0  0  0  0  0  0  0  0
    8.0490   -0.6608   18.3102 H   0  0  0  0  0  0  0  0  0  0  0  0
    6.6050    0.5489   17.4969 N   0  0  0  0  0  0  0  0  0  0  0  0
    5.4954    1.2670   17.7245 C   0  0  0  0  0  0  0  0  0  0  0  0
    5.0737    1.7860   16.8664 H   0  0  0  0  0  0  0  0  0  0  0  0
    4.8838    1.3561   18.9789 C   0  0  0  0  0  0  0  0  0  0  0  0
    3.9811    1.9441   19.0963 H   0  0  0  0  0  0  0  0  0  0  0  0
    5.4630    0.6971   20.0596 C   0  0  0  0  0  0  0  0  0  0  0  0
    5.0119    0.7204   21.0537 H   0  0  0  0  0  0  0  0  0  0  0  0
  1  2  1  0
  2  3  2  0
  3  4  1  0
  4  5  2  0
  5  6  1  0
  6  7  1  0
  6  8  1  0
  6  9  1  0
  9 10  2  0
 10 11  1  0
 10 12  1  0
 12 13  1  0
 12 14  2  0
 14 15  1  0
 15 16  1  0
 15 17  1  0
 15 18  1  0
 14 19  1  0
 19 20  1  0
 19 21  2  0
 21 22  1  0
  5 23  1  0
 23 24  2  0
 24 25  1  0
 25 26  2  0
 26 27  1  0
 26 28  1  0
 28 29  2  0
 29 30  1  0
 29 31  1  0
 31 32  1  0
 31 33  2  0
 33 34  1  0
 24  2  1  0
 33 25  1  0
 21  9  1  0
M  END
>  <cnnaffinity>  (1) 
5.59769

>  <plip>  (1) 
-0.06896551724137931

>  <filename>  (1) 
[H][c]1[n][n][c]([C]([H])([H])[c]2[c]([H])[c]([H])[c]([C]([F])([F])[F])[c]([H])[c]2[H])[n][c]1-[c]1[c]([H])[n][c]([H])[c]([H])[c]1[H]

>  <combo1>  (1) 
-0.40685496270980126

$$$$
