
     RDKit          3D

 43 46  0  0  0  0  0  0  0  0999 V2000
    4.7868    1.3254   19.0800 C   0  0  0  0  0  0  0  0  0  0  0  0
    5.3885    1.3105   17.8170 C   0  0  0  0  0  0  0  0  0  0  0  0
    6.5518    0.6923   17.5670 N   0  0  0  0  0  0  0  0  0  0  0  0
    7.1512    0.0711   18.5881 C   0  0  0  0  0  0  0  0  0  0  0  0
    6.6346    0.0143   19.8891 C   0  0  0  0  0  0  0  0  0  0  0  0
    7.3773   -0.7205   20.9665 C   0  0  0  0  0  0  0  0  0  0  0  0
    8.0709    0.2295   21.9100 N   0  0  0  0  0  4  0  0  0  0  0  0
    9.2180    0.9851   21.2279 C   0  0  0  0  0  0  0  0  0  0  0  0
    9.8674    1.9682   22.1967 C   0  0  0  0  0  0  0  0  0  0  0  0
   10.3794    1.2641   23.4643 C   0  0  0  0  0  0  0  0  0  0  0  0
    9.2255    0.5330   24.1598 C   0  0  0  0  0  0  0  0  0  0  0  0
    8.5375   -0.4855   23.2373 C   0  0  0  0  0  0  0  0  0  0  0  0
    7.4127   -1.2036   23.9556 C   0  0  0  0  0  0  0  0  0  0  0  0
    7.3887   -2.4685   24.2663 N   0  0  0  0  0  0  0  0  0  0  0  0
    6.1804   -2.6410   24.9258 C   0  0  0  0  0  0  0  0  0  0  0  0
    5.6168   -3.8143   25.4461 C   0  0  0  0  0  0  0  0  0  0  0  0
    4.3615   -3.7321   26.0431 C   0  0  0  0  0  0  0  0  0  0  0  0
    3.6647   -2.5002   26.1147 C   0  0  0  0  0  0  0  0  0  0  0  0
    4.2145   -1.3285   25.5988 C   0  0  0  0  0  0  0  0  0  0  0  0
    5.4878   -1.4215   25.0197 C   0  0  0  0  0  0  0  0  0  0  0  0
    6.3136   -0.5065   24.3965 N   0  0  0  0  0  0  0  0  0  0  0  0
    6.0802    0.4404   24.1513 H   0  0  0  0  0  0  0  0  0  0  0  0
    3.6620   -0.3941   25.6156 H   0  0  0  0  0  0  0  0  0  0  0  0
    2.6826   -2.4729   26.5744 H   0  0  0  0  0  0  0  0  0  0  0  0
    3.9173   -4.6259   26.4653 H   0  0  0  0  0  0  0  0  0  0  0  0
    6.1879   -4.7329   25.3584 H   0  0  0  0  0  0  0  0  0  0  0  0
    9.2450   -1.2708   22.9487 H   0  0  0  0  0  0  0  0  0  0  0  0
    9.5729   -0.0060   25.0484 H   0  0  0  0  0  0  0  0  0  0  0  0
    8.4724    1.2559   24.5010 H   0  0  0  0  0  0  0  0  0  0  0  0
   10.8536    1.9773   24.1535 H   0  0  0  0  0  0  0  0  0  0  0  0
   11.1622    0.5368   23.1954 H   0  0  0  0  0  0  0  0  0  0  0  0
   10.6775    2.4896   21.6717 H   0  0  0  0  0  0  0  0  0  0  0  0
    9.1249    2.7337   22.4694 H   0  0  0  0  0  0  0  0  0  0  0  0
    9.9605    0.2532   20.8779 H   0  0  0  0  0  0  0  0  0  0  0  0
    8.8230    1.5021   20.3492 H   0  0  0  0  0  0  0  0  0  0  0  0
    7.3536    0.9662   22.1383 H   0  0  0  0  0  0  0  0  0  0  0  0
    8.1193   -1.4053   20.5348 H   0  0  0  0  0  0  0  0  0  0  0  0
    6.6894   -1.3363   21.5496 H   0  0  0  0  0  0  0  0  0  0  0  0
    5.4212    0.6662   20.1348 C   0  0  0  0  0  0  0  0  0  0  0  0
    5.0018    0.6585   21.1441 H   0  0  0  0  0  0  0  0  0  0  0  0
    8.1072   -0.4056   18.3629 H   0  0  0  0  0  0  0  0  0  0  0  0
    4.9257    1.8172   16.9684 H   0  0  0  0  0  0  0  0  0  0  0  0
    3.8547    1.8621   19.2164 H   0  0  0  0  0  0  0  0  0  0  0  0
  1  2  2  0
  2  3  1  0
  3  4  2  0
  4  5  1  0
  5  6  1  0
  6  7  1  0
  7  8  1  0
  8  9  1  0
  9 10  1  0
 10 11  1  0
 11 12  1  0
 12 13  1  0
 13 14  2  0
 14 15  1  0
 15 16  2  0
 16 17  1  0
 17 18  2  0
 18 19  1  0
 19 20  2  0
 20 21  1  0
 21 22  1  0
 19 23  1  0
 18 24  1  0
 17 25  1  0
 16 26  1  0
 12 27  1  0
 11 28  1  0
 11 29  1  0
 10 30  1  0
 10 31  1  0
  9 32  1  0
  9 33  1  0
  8 34  1  0
  8 35  1  0
  7 36  1  0
  6 37  1  0
  6 38  1  0
  5 39  2  0
 39 40  1  0
  4 41  1  0
  2 42  1  0
  1 43  1  0
 39  1  1  0
 12  7  1  0
 21 13  1  0
 20 15  1  0
M  CHG  1   7   1
M  END
>  <cnnaffinity>  (1) 
5.35198

>  <plip>  (1) 
-0.03571428571428571

>  <filename>  (1) 
[H][c]1[n][c]([H])[c]([C]([H])([H])[N+]2([H])[C]([H])([H])[C]([H])([H])[C]([H])([H])[C]([H])([H])[C]2([H])[c]2[n][c]3[c]([H])[c]([H])[c]([H])[c]([H])[c]3[n]2[H])[c]([H])[c]1[H]

>  <combo1>  (1) 
-0.21716206745552982

$$$$
