
     RDKit          3D

 26 27  0  0  0  0  0  0  0  0999 V2000
    4.9467    1.7711   17.0005 H   0  0  0  0  0  0  0  0  0  0  0  0
    5.4173    1.2797   17.8514 C   0  0  0  0  0  0  0  0  0  0  0  0
    6.5778    0.6541   17.6070 N   0  0  0  0  0  0  0  0  0  0  0  0
    7.1986    0.0527   18.6299 C   0  0  0  0  0  0  0  0  0  0  0  0
    8.1184   -0.4709   18.3731 H   0  0  0  0  0  0  0  0  0  0  0  0
    6.6976    0.0733   19.9381 C   0  0  0  0  0  0  0  0  0  0  0  0
    7.4985   -0.8422   21.2549 S   0  0  0  0  0  4  0  0  0  0  0  0
    7.8628   -2.1763   20.6735 O   0  0  0  0  0  0  0  0  0  0  0  0
    9.0772    0.0385   21.3484 C   0  0  0  0  0  0  0  0  0  0  0  0
    9.6111   -0.1588   20.4155 H   0  0  0  0  0  0  0  0  0  0  0  0
    8.8807    1.1031   21.4792 H   0  0  0  0  0  0  0  0  0  0  0  0
    9.8558   -0.5215   22.5402 C   0  0  2  0  0  0  0  0  0  0  0  0
    9.9671   -1.6067   22.4172 H   0  0  0  0  0  0  0  0  0  0  0  0
    9.1576   -0.2376   23.7820 N   0  0  0  0  0  0  0  0  0  0  0  0
    9.9836    0.4196   24.4934 C   0  0  0  0  0  0  0  0  0  0  0  0
    9.6970    0.8848   25.7021 N   0  0  0  0  0  0  0  0  0  0  0  0
    8.7946    0.5880   26.0114 H   0  0  0  0  0  0  0  0  0  0  0  0
   10.4098    1.3433   26.2307 H   0  0  0  0  0  0  0  0  0  0  0  0
   11.2141    0.7039   24.0434 O   0  0  0  0  0  0  0  0  0  0  0  0
   11.2577    0.1316   22.7150 C   0  0  0  0  0  0  0  0  0  0  0  0
   12.0767   -0.5932   22.6826 H   0  0  0  0  0  0  0  0  0  0  0  0
   11.4547    0.9412   22.0019 H   0  0  0  0  0  0  0  0  0  0  0  0
    5.4626    0.6835   20.1807 C   0  0  0  0  0  0  0  0  0  0  0  0
    5.0122    0.6420   21.1724 H   0  0  0  0  0  0  0  0  0  0  0  0
    4.8189    1.3122   19.1151 C   0  0  0  0  0  0  0  0  0  0  0  0
    3.8766    1.8292   19.2506 H   0  0  0  0  0  0  0  0  0  0  0  0
  1  2  1  0
  2  3  2  0
  3  4  1  0
  4  5  1  0
  4  6  2  0
  6  7  1  0
  7  8  2  0
  7  9  1  1
  9 10  1  0
  9 11  1  0
  9 12  1  0
 12 13  1  6
 12 14  1  0
 14 15  2  0
 15 16  1  0
 16 17  1  0
 16 18  1  0
 15 19  1  0
 19 20  1  0
 20 21  1  0
 20 22  1  0
  6 23  1  0
 23 24  1  0
 23 25  2  0
 25 26  1  0
 25  2  1  0
 20 12  1  0
M  END
>  <cnnaffinity>  (1) 
4.21066

>  <plip>  (1) 
-0.06896551724137931

>  <filename>  (1) 
[H][c]1[n][c]([H])[c]([S@](=[O])[C]([H])([H])[C@]2([H])[N]=[C]([N]([H])[H])[O][C]2([H])[H])[c]([H])[c]1[H]

>  <combo1>  (1) 
-0.4296865652306109

$$$$
