
     RDKit          3D

 44 46  0  0  0  0  0  0  0  0999 V2000
    4.1584   -0.2860   29.2930 C   0  0  0  0  0  0  0  0  0  0  0  0
    5.3004    0.2683   28.6377 O   0  0  0  0  0  0  0  0  0  0  0  0
    5.6631   -0.1702   27.4177 C   0  0  0  0  0  0  0  0  0  0  0  0
    6.7072    0.5357   26.8047 C   0  0  0  0  0  0  0  0  0  0  0  0
    7.0465    0.1554   25.5231 C   0  0  0  0  0  0  0  0  0  0  0  0
    7.9111    0.8295   24.7043 O   0  0  0  0  0  0  0  0  0  0  0  0
    8.9551    1.6077   25.2832 C   0  0  0  0  0  0  0  0  0  0  0  0
    8.5779    2.5709   25.6505 H   0  0  0  0  0  0  0  0  0  0  0  0
    9.4675    1.0790   26.0993 H   0  0  0  0  0  0  0  0  0  0  0  0
    9.6711    1.7875   24.4770 H   0  0  0  0  0  0  0  0  0  0  0  0
    6.4447   -0.9819   24.9381 C   0  0  0  0  0  0  0  0  0  0  0  0
    6.9020   -1.4705   23.6036 C   0  0  0  0  0  0  0  0  0  0  0  0
    6.6999   -0.3388   22.6748 N   0  0  0  0  0  4  0  0  0  0  0  0
    7.2894   -0.3968   21.2945 C   0  0  0  0  0  0  0  0  0  0  0  0
    6.4759    0.3658   20.2640 C   0  0  0  0  0  0  0  0  0  0  0  0
    5.2214    0.9663   20.4545 C   0  0  0  0  0  0  0  0  0  0  0  0
    4.5725    1.5643   19.3668 C   0  0  0  0  0  0  0  0  0  0  0  0
    5.1792    1.5390   18.1088 C   0  0  0  0  0  0  0  0  0  0  0  0
    6.3671    0.9645   17.8885 N   0  0  0  0  0  0  0  0  0  0  0  0
    6.9823    0.4133   18.9401 C   0  0  0  0  0  0  0  0  0  0  0  0
    7.9484   -0.0250   18.6859 H   0  0  0  0  0  0  0  0  0  0  0  0
    4.6973    1.9876   17.2412 H   0  0  0  0  0  0  0  0  0  0  0  0
    3.6243    2.0757   19.4874 H   0  0  0  0  0  0  0  0  0  0  0  0
    4.7396    0.9881   21.4342 H   0  0  0  0  0  0  0  0  0  0  0  0
    7.6540   -1.8315   20.7928 C   0  0  0  0  0  0  0  0  0  0  0  0
    9.1277   -1.3977   20.5977 C   0  0  0  0  0  0  0  0  0  0  0  0
    8.8094   -0.0393   21.2691 C   0  0  0  0  0  0  0  0  0  0  0  0
    9.0539    0.8602   20.6964 H   0  0  0  0  0  0  0  0  0  0  0  0
    9.2244    0.0987   22.2719 H   0  0  0  0  0  0  0  0  0  0  0  0
    9.8983   -2.0095   21.0768 H   0  0  0  0  0  0  0  0  0  0  0  0
    9.3905   -1.2945   19.5453 H   0  0  0  0  0  0  0  0  0  0  0  0
    7.0936   -2.1185   19.9002 H   0  0  0  0  0  0  0  0  0  0  0  0
    7.4956   -2.6187   21.5254 H   0  0  0  0  0  0  0  0  0  0  0  0
    7.1114    0.4806   23.1695 H   0  0  0  0  0  0  0  0  0  0  0  0
    5.6724   -0.2101   22.5990 H   0  0  0  0  0  0  0  0  0  0  0  0
    7.9641   -1.7492   23.6256 H   0  0  0  0  0  0  0  0  0  0  0  0
    6.3385   -2.3591   23.2938 H   0  0  0  0  0  0  0  0  0  0  0  0
    5.4486   -1.5915   25.6642 C   0  0  0  0  0  0  0  0  0  0  0  0
    5.0346   -1.2004   26.8780 N   0  0  0  0  0  0  0  0  0  0  0  0
    4.9280   -2.4534   25.2482 H   0  0  0  0  0  0  0  0  0  0  0  0
    7.1802    1.3469   27.3400 H   0  0  0  0  0  0  0  0  0  0  0  0
    4.2981   -1.3512   29.5146 H   0  0  0  0  0  0  0  0  0  0  0  0
    4.0656    0.2903   30.2161 H   0  0  0  0  0  0  0  0  0  0  0  0
    3.2496   -0.1767   28.6877 H   0  0  0  0  0  0  0  0  0  0  0  0
  1  2  1  0
  2  3  1  0
  3  4  2  0
  4  5  1  0
  5  6  1  0
  6  7  1  0
  7  8  1  0
  7  9  1  0
  7 10  1  0
  5 11  2  0
 11 12  1  0
 12 13  1  0
 13 14  1  0
 14 15  1  0
 15 16  2  0
 16 17  1  0
 17 18  2  0
 18 19  1  0
 19 20  2  0
 20 21  1  0
 18 22  1  0
 17 23  1  0
 16 24  1  0
 14 25  1  0
 25 26  1  0
 26 27  1  0
 27 28  1  0
 27 29  1  0
 26 30  1  0
 26 31  1  0
 25 32  1  0
 25 33  1  0
 13 34  1  0
 13 35  1  0
 12 36  1  0
 12 37  1  0
 11 38  1  0
 38 39  2  0
 38 40  1  0
  4 41  1  0
  1 42  1  0
  1 43  1  0
  1 44  1  0
 39  3  1  0
 27 14  1  0
 20 15  1  0
M  CHG  1  13   1
M  END
>  <cnnaffinity>  (1) 
4.7376

>  <plip>  (1) 
-0.03571428571428571

>  <filename>  (1) 
[H][c]1[n][c]([H])[c]([C]2([N+]([H])([H])[C]([H])([H])[c]3[c]([H])[n][c]([O][C]([H])([H])[H])[c]([H])[c]3[O][C]([H])([H])[H])[C]([H])([H])[C]([H])([H])[C]2([H])[H])[c]([H])[c]1[H]

>  <combo1>  (1) 
-0.1877609177647131

$$$$
