
     RDKit          3D

 36 38  0  0  0  0  0  0  0  0999 V2000
    7.4002   -2.4491   20.2673 H   0  0  0  0  0  0  0  0  0  0  0  0
    8.0860   -1.8370   20.5626 O   0  0  0  0  0  0  0  0  0  0  0  0
    7.3840   -0.6975   21.0261 C   0  0  2  0  0  0  0  0  0  0  0  0
    6.6326   -1.0063   21.7744 H   0  0  0  0  0  0  0  0  0  0  0  0
    6.6396   -0.0164   19.9001 C   0  0  0  0  0  0  0  0  0  0  0  0
    7.1595    0.0434   18.5972 C   0  0  0  0  0  0  0  0  0  0  0  0
    8.1144   -0.4308   18.3764 H   0  0  0  0  0  0  0  0  0  0  0  0
    6.5605    0.6707   17.5746 N   0  0  0  0  0  0  0  0  0  0  0  0
    5.4014    1.2928   17.8352 C   0  0  0  0  0  0  0  0  0  0  0  0
    4.9193    1.7841   16.9934 H   0  0  0  0  0  0  0  0  0  0  0  0
    4.7981    1.3094   19.0992 C   0  0  0  0  0  0  0  0  0  0  0  0
    3.8683    1.8478   19.2512 H   0  0  0  0  0  0  0  0  0  0  0  0
    5.4232    0.6384   20.1488 C   0  0  0  0  0  0  0  0  0  0  0  0
    5.0094    0.6459   21.1648 H   0  0  0  0  0  0  0  0  0  0  0  0
    8.3955    0.2328   21.7734 C   0  0  2  0  0  0  0  0  0  0  0  0
    8.8216   -0.3924   22.5656 H   0  0  0  0  0  0  0  0  0  0  0  0
    7.6886    1.4228   22.4245 C   0  0  0  0  0  0  0  0  0  0  0  0
    7.5747    2.6487   21.8001 C   0  0  0  0  0  0  0  0  0  0  0  0
    8.0075    2.7759   20.8152 H   0  0  0  0  0  0  0  0  0  0  0  0
    6.9458    3.7534   22.2910 N   0  0  0  0  0  0  0  0  0  0  0  0
    6.3853    3.6367   23.4734 C   0  0  0  0  0  0  0  0  0  0  0  0
    5.8959    4.5152   23.8859 H   0  0  0  0  0  0  0  0  0  0  0  0
    6.3756    2.4330   24.2440 C   0  0  0  0  0  0  0  0  0  0  0  0
    5.7341    2.3503   25.5186 C   0  0  0  0  0  0  0  0  0  0  0  0
    5.2524    3.2372   25.9304 H   0  0  0  0  0  0  0  0  0  0  0  0
    5.7194    1.1633   26.2129 C   0  0  0  0  0  0  0  0  0  0  0  0
    5.2311    1.0978   27.1838 H   0  0  0  0  0  0  0  0  0  0  0  0
    6.3393    0.0074   25.6635 C   0  0  0  0  0  0  0  0  0  0  0  0
    6.3187   -0.9295   26.2163 H   0  0  0  0  0  0  0  0  0  0  0  0
    6.9697    0.0612   24.4396 C   0  0  0  0  0  0  0  0  0  0  0  0
    7.4259   -0.8376   24.0277 H   0  0  0  0  0  0  0  0  0  0  0  0
    7.0259    1.2816   23.6980 C   0  0  0  0  0  0  0  0  0  0  0  0
    9.5911    0.6360   20.8992 C   0  0  0  0  0  0  0  0  0  0  0  0
   10.1734   -0.2433   20.6076 H   0  0  0  0  0  0  0  0  0  0  0  0
   10.2442    1.3335   21.4350 H   0  0  0  0  0  0  0  0  0  0  0  0
    9.2467    1.0997   19.9802 H   0  0  0  0  0  0  0  0  0  0  0  0
  1  2  1  0
  2  3  1  0
  3  4  1  1
  3  5  1  0
  5  6  2  0
  6  7  1  0
  6  8  1  0
  8  9  2  0
  9 10  1  0
  9 11  1  0
 11 12  1  0
 11 13  2  0
 13 14  1  0
  3 15  1  0
 15 16  1  1
 15 17  1  0
 17 18  2  0
 18 19  1  0
 18 20  1  0
 20 21  2  0
 21 22  1  0
 21 23  1  0
 23 24  2  0
 24 25  1  0
 24 26  1  0
 26 27  1  0
 26 28  2  0
 28 29  1  0
 28 30  1  0
 30 31  1  0
 30 32  2  0
 15 33  1  0
 33 34  1  0
 33 35  1  0
 33 36  1  0
 13  5  1  0
 32 17  1  0
 32 23  1  0
M  END
>  <cnnaffinity>  (1) 
4.82359

>  <plip>  (1) 
-0.034482758620689655

>  <filename>  (1) 
[H][O][C@]([H])([c]1[c]([H])[n][c]([H])[c]([H])[c]1[H])[C@]([H])([c]1[c]([H])[n][c]([H])[c]2[c]([H])[c]([H])[c]([H])[c]([H])[c]12)[C]([H])([H])[H]

>  <combo1>  (1) 
-0.20975289495774496

$$$$
