
     RDKit          3D

 32 32  0  0  0  0  0  0  0  0999 V2000
    7.5666   -5.5069   22.1928 H   0  0  0  0  0  0  0  0  0  0  0  0
    8.0614   -5.2996   23.0268 O   0  0  0  0  0  0  0  0  0  0  0  0
    7.3394   -3.9270   22.9699 P   0  0  0  0  0  0  0  0  0  0  0  0
    6.0536   -3.9015   23.6673 O   0  0  0  0  0  0  0  0  0  0  0  0
    7.6037   -4.6980   21.6816 O   0  0  0  0  0  0  0  0  0  0  0  0
    8.3425   -5.1693   22.1400 H   0  0  0  0  0  0  0  0  0  0  0  0
    7.9416   -2.2024   23.2452 C   0  0  0  0  0  0  0  0  0  0  0  0
    7.1070   -1.6722   23.7009 H   0  0  0  0  0  0  0  0  0  0  0  0
    8.7027   -1.1799   22.2679 N   0  0  0  0  0  0  0  0  0  0  0  0
    9.5800   -0.7412   22.5683 H   0  0  0  0  0  0  0  0  0  0  0  0
    8.1989   -0.4847   21.1467 C   0  0  0  0  0  0  0  0  0  0  0  0
    6.9840   -0.7009   20.7094 N   0  0  0  0  0  0  0  0  0  0  0  0
    6.4803    0.0234   19.6172 C   0  0  0  0  0  0  0  0  0  0  0  0
    7.0979    0.0958   18.3433 C   0  0  0  0  0  0  0  0  0  0  0  0
    8.0209   -0.4563   18.2009 H   0  0  0  0  0  0  0  0  0  0  0  0
    6.6110    0.8097   17.3009 N   0  0  0  0  0  0  0  0  0  0  0  0
    5.4638    1.4886   17.4948 C   0  0  0  0  0  0  0  0  0  0  0  0
    5.0597    2.0798   16.6793 H   0  0  0  0  0  0  0  0  0  0  0  0
    4.7753    1.4580   18.7139 C   0  0  0  0  0  0  0  0  0  0  0  0
    3.8593    2.0293   18.8181 H   0  0  0  0  0  0  0  0  0  0  0  0
    5.2824    0.7137   19.7859 C   0  0  0  0  0  0  0  0  0  0  0  0
    4.7782    0.6756   20.7486 H   0  0  0  0  0  0  0  0  0  0  0  0
    9.1208    0.5219   20.5303 C   0  0  0  0  0  0  0  0  0  0  0  0
   10.1306    0.4040   20.9314 H   0  0  0  0  0  0  0  0  0  0  0  0
    8.7649    1.5292   20.7522 H   0  0  0  0  0  0  0  0  0  0  0  0
    9.1519    0.3897   19.4493 H   0  0  0  0  0  0  0  0  0  0  0  0
    8.6184   -3.3294   24.5426 P   0  0  0  0  0  0  0  0  0  0  0  0
    8.9762   -2.8493   25.8666 O   0  0  0  0  0  0  0  0  0  0  0  0
    7.7761   -4.1236   25.4823 O   0  0  0  0  0  0  0  0  0  0  0  0
    8.3492   -3.5986   26.1198 H   0  0  0  0  0  0  0  0  0  0  0  0
    9.7743   -4.1887   23.9597 O   0  0  0  0  0  0  0  0  0  0  0  0
   10.0702   -4.5230   24.8207 H   0  0  0  0  0  0  0  0  0  0  0  0
  1  2  1  0
  2  3  1  0
  3  4  2  0
  3  5  1  0
  5  6  1  0
  3  7  1  0
  7  8  1  0
  7  9  1  0
  9 10  1  0
  9 11  1  0
 11 12  2  3
 12 13  1  0
 13 14  2  0
 14 15  1  0
 14 16  1  0
 16 17  2  0
 17 18  1  0
 17 19  1  0
 19 20  1  0
 19 21  2  0
 21 22  1  0
 11 23  1  0
 23 24  1  0
 23 25  1  0
 23 26  1  0
  7 27  1  0
 27 28  2  0
 27 29  1  0
 29 30  1  0
 27 31  1  0
 31 32  1  0
 21 13  1  0
M  END
>  <cnnaffinity>  (1) 
4.47883

>  <plip>  (1) 
-0.06896551724137931

>  <filename>  (1) 
[H][O][P](=[O])([O][H])[C]([H])([N]([H])[C](=[N][c]1[c]([H])[n][c]([H])[c]([H])[c]1[H])[C]([H])([H])[H])[P](=[O])([O][H])[O][H]

>  <combo1>  (1) 
-0.3330420313286289

$$$$
