
     RDKit          3D

 54 57  0  0  0  0  0  0  0  0999 V2000
    5.9606   -2.9743   19.8881 O   0  0  0  0  0  0  0  0  0  0  0  0
    5.9504   -2.8003   21.0923 C   0  0  0  0  0  0  0  0  0  0  0  0
    5.4066   -3.8533   22.0383 C   0  0  0  0  0  0  0  0  0  0  0  0
    6.4612   -4.9056   22.4939 C   0  0  0  0  0  0  0  0  0  0  0  0
    5.7787   -6.0303   23.3138 C   0  0  0  0  0  0  0  0  0  0  0  0
    5.9447   -5.6417   24.8002 C   0  0  0  0  0  0  0  0  0  0  0  0
    7.1540   -4.7327   24.7918 C   0  0  0  0  0  0  0  0  0  0  0  0
    7.8943   -4.2372   25.8690 C   0  0  0  0  0  0  0  0  0  0  0  0
    8.9753   -3.3819   25.6172 C   0  0  0  0  0  0  0  0  0  0  0  0
    9.3300   -3.0566   24.2981 C   0  0  0  0  0  0  0  0  0  0  0  0
    8.5956   -3.5630   23.2191 C   0  0  0  0  0  0  0  0  0  0  0  0
    7.4789   -4.3624   23.4774 C   0  0  0  0  0  0  0  0  0  0  0  0
    8.8837   -3.3559   22.1895 H   0  0  0  0  0  0  0  0  0  0  0  0
   10.1813   -2.4035   24.1153 H   0  0  0  0  0  0  0  0  0  0  0  0
    9.5375   -2.9730   26.4536 H   0  0  0  0  0  0  0  0  0  0  0  0
    7.6271   -4.5053   26.8918 H   0  0  0  0  0  0  0  0  0  0  0  0
    5.0726   -5.0890   25.1776 H   0  0  0  0  0  0  0  0  0  0  0  0
    6.0633   -6.5199   25.4418 H   0  0  0  0  0  0  0  0  0  0  0  0
    6.2842   -6.9796   23.1035 H   0  0  0  0  0  0  0  0  0  0  0  0
    4.7276   -6.1678   23.0380 H   0  0  0  0  0  0  0  0  0  0  0  0
    6.9649   -5.3184   21.6080 H   0  0  0  0  0  0  0  0  0  0  0  0
    4.6164   -4.3826   21.5042 H   0  0  0  0  0  0  0  0  0  0  0  0
    4.9461   -3.3882   22.9160 H   0  0  0  0  0  0  0  0  0  0  0  0
    6.4540   -1.6829   21.6857 N   0  0  0  0  0  0  0  0  0  0  0  0
    7.3135   -0.7303   21.0048 C   0  0  0  0  0  0  0  0  0  0  0  0
    7.8933    0.2325   22.0675 C   0  0  0  0  0  0  0  0  0  0  0  0
    9.0210    1.1121   21.6021 N   0  0  0  0  0  4  0  0  0  0  0  0
   10.2733    0.3346   21.2568 C   0  0  0  0  0  0  0  0  0  0  0  0
   11.4143    1.3466   21.3610 C   0  0  0  0  0  0  0  0  0  0  0  0
   10.9364    2.4472   22.3259 C   0  0  0  0  0  0  0  0  0  0  0  0
    9.4562    2.1624   22.6138 C   0  0  0  0  0  0  0  0  0  0  0  0
    8.8269    3.0494   22.5076 H   0  0  0  0  0  0  0  0  0  0  0  0
    9.3192    1.7708   23.6272 H   0  0  0  0  0  0  0  0  0  0  0  0
   11.0677    3.4397   21.8909 H   0  0  0  0  0  0  0  0  0  0  0  0
   11.5137    2.4270   23.2578 H   0  0  0  0  0  0  0  0  0  0  0  0
   11.6516    1.7763   20.3847 H   0  0  0  0  0  0  0  0  0  0  0  0
   12.3208    0.8616   21.7281 H   0  0  0  0  0  0  0  0  0  0  0  0
   10.1654   -0.1277   20.2691 H   0  0  0  0  0  0  0  0  0  0  0  0
   10.3996   -0.4674   21.9965 H   0  0  0  0  0  0  0  0  0  0  0  0
    8.6665    1.6127   20.7472 H   0  0  0  0  0  0  0  0  0  0  0  0
    7.0730    0.8387   22.4722 H   0  0  0  0  0  0  0  0  0  0  0  0
    8.2686   -0.3943   22.8866 H   0  0  0  0  0  0  0  0  0  0  0  0
    6.5555   -0.0244   19.8989 C   0  0  0  0  0  0  0  0  0  0  0  0
    5.3472    0.6536   20.1076 C   0  0  0  0  0  0  0  0  0  0  0  0
    4.7853    1.3521   19.0357 C   0  0  0  0  0  0  0  0  0  0  0  0
    5.4356    1.3345   17.7952 C   0  0  0  0  0  0  0  0  0  0  0  0
    6.5661    0.6517   17.5642 N   0  0  0  0  0  0  0  0  0  0  0  0
    7.0876   -0.0147   18.6040 C   0  0  0  0  0  0  0  0  0  0  0  0
    7.9995   -0.5803   18.4021 H   0  0  0  0  0  0  0  0  0  0  0  0
    5.0234    1.8788   16.9456 H   0  0  0  0  0  0  0  0  0  0  0  0
    3.8594    1.9026   19.1396 H   0  0  0  0  0  0  0  0  0  0  0  0
    4.8446    0.6204   21.0797 H   0  0  0  0  0  0  0  0  0  0  0  0
    8.1507   -1.2681   20.5320 H   0  0  0  0  0  0  0  0  0  0  0  0
    6.3702   -1.6214   22.6874 H   0  0  0  0  0  0  0  0  0  0  0  0
  1  2  2  0
  2  3  1  0
  3  4  1  0
  4  5  1  0
  5  6  1  0
  6  7  1  0
  7  8  2  0
  8  9  1  0
  9 10  2  0
 10 11  1  0
 11 12  2  0
 11 13  1  0
 10 14  1  0
  9 15  1  0
  8 16  1  0
  6 17  1  0
  6 18  1  0
  5 19  1  0
  5 20  1  0
  4 21  1  0
  3 22  1  0
  3 23  1  0
  2 24  1  0
 24 25  1  0
 25 26  1  0
 26 27  1  0
 27 28  1  0
 28 29  1  0
 29 30  1  0
 30 31  1  0
 31 32  1  0
 31 33  1  0
 30 34  1  0
 30 35  1  0
 29 36  1  0
 29 37  1  0
 28 38  1  0
 28 39  1  0
 27 40  1  0
 26 41  1  0
 26 42  1  0
 25 43  1  0
 43 44  2  0
 44 45  1  0
 45 46  2  0
 46 47  1  0
 47 48  2  0
 48 49  1  0
 46 50  1  0
 45 51  1  0
 44 52  1  0
 25 53  1  0
 24 54  1  0
 12  4  1  0
 31 27  1  0
 48 43  1  0
 12  7  1  0
M  CHG  1  27   1
M  END
>  <cnnaffinity>  (1) 
5.66068

>  <plip>  (1) 
-0.3103448275862069

>  <filename>  (1) 
[H][c]1[n][c]([H])[c]([C]([H])([N]([H])[C](=[O])[C]([H])([H])[C]2([H])[c]3[c]([H])[c]([H])[c]([H])[c]([H])[c]3[C]([H])([H])[C]2([H])[H])[C]([H])([H])[N+]2([H])[C]([H])([H])[C]([H])([H])[C]([H])([H])[C]2([H])[H])[c]([H])[c]1[H]

>  <combo1>  (1) 
-1.6707873815413363

$$$$
