
     RDKit          3D

 26 28  0  0  0  0  0  0  0  0999 V2000
    4.9935    1.8801   16.9930 H   0  0  0  0  0  0  0  0  0  0  0  0
    5.4225    1.2871   17.7972 C   0  0  0  0  0  0  0  0  0  0  0  0
    6.5449    0.6115   17.4998 N   0  0  0  0  0  0  0  0  0  0  0  0
    7.1153   -0.1062   18.4771 C   0  0  0  0  0  0  0  0  0  0  0  0
    8.0338   -0.6413   18.2343 H   0  0  0  0  0  0  0  0  0  0  0  0
    6.5826   -0.1942   19.7817 C   0  0  0  0  0  0  0  0  0  0  0  0
    7.2815   -0.8649   20.8414 N   0  0  0  0  0  0  0  0  0  0  0  0
    8.5107   -0.5244   21.4088 C   0  0  0  0  0  0  0  0  0  0  0  0
    9.1240    0.7974   21.1666 C   0  0  0  0  0  0  0  0  0  0  0  0
   10.5963    0.7523   21.2133 C   0  0  0  0  0  0  0  0  0  0  0  0
   11.1080   -0.0134   21.7082 H   0  0  0  0  0  0  0  0  0  0  0  0
   11.3493    1.6947   21.7167 C   0  0  0  0  0  0  0  0  0  0  0  0
   12.5913    1.8627   21.4906 H   0  0  0  0  0  0  0  0  0  0  0  0
   11.3782    2.1219   21.4759 C   0  0  0  0  0  0  0  0  0  0  0  0
   11.1523    2.9651   20.8571 H   0  0  0  0  0  0  0  0  0  0  0  0
    8.5698    1.9146   20.9809 N   0  0  0  0  0  0  0  0  0  0  0  0
    7.5502    1.9108   20.9000 H   0  0  0  0  0  0  0  0  0  0  0  0
    8.8955   -1.4041   22.2866 N   0  0  0  0  0  0  0  0  0  0  0  0
    7.8789   -2.3204   22.3023 N   0  0  0  0  0  0  0  0  0  0  0  0
    7.7939   -3.0284   23.0072 H   0  0  0  0  0  0  0  0  0  0  0  0
    6.8179   -2.0099   21.5079 C   0  0  0  0  0  0  0  0  0  0  0  0
    5.7583   -2.5932   21.4055 O   0  0  0  0  0  0  0  0  0  0  0  0
    5.3889    0.4672   20.0635 C   0  0  0  0  0  0  0  0  0  0  0  0
    4.9604    0.3747   21.0627 H   0  0  0  0  0  0  0  0  0  0  0  0
    4.8116    1.2499   19.0557 C   0  0  0  0  0  0  0  0  0  0  0  0
    3.9207    1.8361   19.2414 H   0  0  0  0  0  0  0  0  0  0  0  0
  1  2  1  0
  2  3  2  0
  3  4  1  0
  4  5  1  0
  4  6  2  0
  6  7  1  0
  7  8  1  0
  8  9  1  0
  9 10  2  0
 10 11  1  0
 10 12  1  0
 12 13  1  0
 12 14  2  0
 14 15  1  0
 14 16  1  0
 16 17  1  0
  8 18  2  0
 18 19  1  0
 19 20  1  0
 19 21  1  0
 21 22  2  0
  6 23  1  0
 23 24  1  0
 23 25  2  0
 25 26  1  0
 25  2  1  0
 21  7  1  0
 16  9  1  0
M  END
>  <cnnaffinity>  (1) 
4.74444

>  <plip>  (1) 
-0.13793103448275862

>  <filename>  (1) 
[H][c]1[n][c]([H])[c](-[n]2[c](-[c]3[c]([H])[c]([H])[c]([H])[n]3[H])[n][n]([H])[c]2=[O])[c]([H])[c]1[H]

>  <combo1>  (1) 
-0.959987908187817

$$$$
