
     RDKit          3D

 28 30  0  0  0  0  0  0  0  0999 V2000
   11.7777    4.8322   23.2035 Br  0  0  0  0  0  0  0  0  0  0  0  0
   10.4481    3.4708   23.0374 C   0  0  0  0  0  0  0  0  0  0  0  0
   10.7433    2.2449   22.4172 C   0  0  0  0  0  0  0  0  0  0  0  0
    9.7582    1.2502   22.3019 C   0  0  0  0  0  0  0  0  0  0  0  0
    8.4783    1.5110   22.8216 C   0  0  0  0  0  0  0  0  0  0  0  0
    7.2442    0.7646   22.8836 C   0  0  0  0  0  0  0  0  0  0  0  0
    7.0713   -0.6307   22.3337 C   0  0  0  0  0  0  0  0  0  0  0  0
    7.3802   -0.7355   20.8874 N   0  0  0  0  0  0  0  0  0  0  0  0
    6.6785   -0.0171   19.8935 C   0  0  0  0  0  0  0  0  0  0  0  0
    5.4689    0.6364   20.1677 C   0  0  0  0  0  0  0  0  0  0  0  0
    4.8289    1.3024   19.1076 C   0  0  0  0  0  0  0  0  0  0  0  0
    5.3981    1.2998   17.8210 C   0  0  0  0  0  0  0  0  0  0  0  0
    6.5629    0.6851   17.5441 N   0  0  0  0  0  0  0  0  0  0  0  0
    7.1773    0.0566   18.5719 C   0  0  0  0  0  0  0  0  0  0  0  0
    8.1244   -0.4361   18.3872 H   0  0  0  0  0  0  0  0  0  0  0  0
    4.8790    1.8051   17.0116 H   0  0  0  0  0  0  0  0  0  0  0  0
    3.8903    1.8265   19.2634 H   0  0  0  0  0  0  0  0  0  0  0  0
    5.0393    0.6196   21.1704 H   0  0  0  0  0  0  0  0  0  0  0  0
    8.2168   -1.2548   20.6092 H   0  0  0  0  0  0  0  0  0  0  0  0
    7.7284   -1.3071   22.8889 H   0  0  0  0  0  0  0  0  0  0  0  0
    6.0466   -0.9503   22.5064 H   0  0  0  0  0  0  0  0  0  0  0  0
    6.3038    1.4559   23.4888 N   0  0  0  0  0  0  0  0  0  0  0  0
    6.8805    2.7178   23.8383 O   0  0  0  0  0  0  0  0  0  0  0  0
    8.1847    2.7113   23.4258 C   0  0  0  0  0  0  0  0  0  0  0  0
    9.1594    3.6980   23.5407 C   0  0  0  0  0  0  0  0  0  0  0  0
    8.8943    4.6310   24.0214 H   0  0  0  0  0  0  0  0  0  0  0  0
    9.9888    0.3004   21.8184 H   0  0  0  0  0  0  0  0  0  0  0  0
   11.7425    2.0749   22.0270 H   0  0  0  0  0  0  0  0  0  0  0  0
  1  2  1  0
  2  3  2  0
  3  4  1  0
  4  5  2  0
  5  6  1  0
  6  7  1  0
  7  8  1  0
  8  9  1  0
  9 10  2  0
 10 11  1  0
 11 12  2  0
 12 13  1  0
 13 14  2  0
 14 15  1  0
 12 16  1  0
 11 17  1  0
 10 18  1  0
  8 19  1  0
  7 20  1  0
  7 21  1  0
  6 22  2  0
 22 23  1  0
 23 24  1  0
 24 25  2  0
 25 26  1  0
  4 27  1  0
  3 28  1  0
 25  2  1  0
 24  5  1  0
 14  9  1  0
M  END
>  <cnnaffinity>  (1) 
5.04274

>  <plip>  (1) 
-0.07142857142857142

>  <filename>  (1) 
[H][c]1[n][c]([H])[c]([N]([H])[C]([H])([H])[c]2[n][o][c]3[c]([H])[c]([Br])[c]([H])[c]([H])[c]23)[c]([H])[c]1[H]

>  <combo1>  (1) 
-0.3947605535982208

$$$$
