
     RDKit          3D

 33 35  0  0  0  0  0  0  0  0999 V2000
    5.2711    1.7472   16.9486 H   0  0  0  0  0  0  0  0  0  0  0  0
    5.6760    1.1807   17.7858 C   0  0  0  0  0  0  0  0  0  0  0  0
    6.8184    0.5181   17.5544 N   0  0  0  0  0  0  0  0  0  0  0  0
    7.3436   -0.1744   18.5771 C   0  0  0  0  0  0  0  0  0  0  0  0
    8.2719   -0.7066   18.3626 H   0  0  0  0  0  0  0  0  0  0  0  0
    6.7636   -0.2629   19.8576 C   0  0  0  0  0  0  0  0  0  0  0  0
    7.4211   -0.9898   20.9521 C   0  0  0  0  0  0  0  0  0  0  0  0
    8.5718   -0.5861   21.5559 C   0  0  0  0  0  0  0  0  0  0  0  0
    9.3388    0.6995   21.3920 C   0  0  0  0  0  0  0  0  0  0  0  0
    9.2670    1.0826   20.3641 H   0  0  0  0  0  0  0  0  0  0  0  0
   10.4004    0.4686   21.5778 H   0  0  0  0  0  0  0  0  0  0  0  0
    8.9034    1.8454   22.3179 C   0  0  0  0  0  0  0  0  0  0  0  0
    8.9814    1.8020   23.7447 C   0  0  0  0  0  0  0  0  0  0  0  0
    9.3485    0.9591   24.3472 H   0  0  0  0  0  0  0  0  0  0  0  0
    8.5808    3.0782   24.2753 C   0  0  0  0  0  0  0  0  0  0  0  0
    9.2573    3.8346   24.6548 H   0  0  0  0  0  0  0  0  0  0  0  0
    8.1484    3.9990   23.1270 C   0  0  0  0  0  0  0  0  0  0  0  0
    7.6967    5.1013   23.0515 H   0  0  0  0  0  0  0  0  0  0  0  0
    8.0194    3.9464   23.0156 C   0  0  0  0  0  0  0  0  0  0  0  0
    5.9003    2.9514   22.8557 Cl  0  0  0  0  0  0  0  0  0  0  0  0
    8.4371    3.1118   21.7967 C   0  0  0  0  0  0  0  0  0  0  0  0
    7.5132    3.1971   21.2169 H   0  0  0  0  0  0  0  0  0  0  0  0
    8.8353   -1.4639   22.7108 C   0  0  0  0  0  0  0  0  0  0  0  0
    9.6948   -1.4014   23.5722 O   0  0  0  0  0  0  0  0  0  0  0  0
    7.8734   -2.4400   22.6658 N   0  0  0  0  0  0  0  0  0  0  0  0
    7.7655   -2.9670   23.5164 H   0  0  0  0  0  0  0  0  0  0  0  0
    6.8496   -2.1825   21.6714 C   0  0  0  0  0  0  0  0  0  0  0  0
    6.7081   -3.0391   20.9964 H   0  0  0  0  0  0  0  0  0  0  0  0
    5.8689   -1.9474   22.1164 H   0  0  0  0  0  0  0  0  0  0  0  0
    5.5521    0.4197   20.0639 C   0  0  0  0  0  0  0  0  0  0  0  0
    5.0879    0.4154   21.0544 H   0  0  0  0  0  0  0  0  0  0  0  0
    5.0125    1.1669   19.0184 C   0  0  0  0  0  0  0  0  0  0  0  0
    4.1005    1.7388   19.1477 H   0  0  0  0  0  0  0  0  0  0  0  0
  1  2  1  0
  2  3  2  0
  3  4  1  0
  4  5  1  0
  4  6  2  0
  6  7  1  0
  7  8  2  0
  8  9  1  0
  9 10  1  0
  9 11  1  0
  9 12  1  0
 12 13  2  0
 13 14  1  0
 13 15  1  0
 15 16  1  0
 15 17  2  0
 17 18  1  0
 17 19  1  0
 19 20  1  0
 19 21  2  0
 21 22  1  0
  8 23  1  0
 23 24  2  0
 23 25  1  0
 25 26  1  0
 25 27  1  0
 27 28  1  0
 27 29  1  0
  6 30  1  0
 30 31  1  0
 30 32  2  0
 32 33  1  0
 32  2  1  0
 27  7  1  0
 21 12  1  0
M  END
>  <cnnaffinity>  (1) 
4.99475

>  <plip>  (1) 
-0.0

>  <filename>  (1) 
[H][c]1[n][c]([H])[c]([C]2=[C]([C]([H])([H])[c]3[c]([H])[c]([H])[c]([H])[c]([Cl])[c]3[H])[C](=[O])[N]([H])[C]2([H])[H])[c]([H])[c]1[H]

>  <combo1>  (1) 
-5.847023897321356e-06

$$$$
