
     RDKit          3D

 46 48  0  0  0  0  0  0  0  0999 V2000
   11.8484    2.5243   24.8677 F   0  0  0  0  0  0  0  0  0  0  0  0
   10.7298    2.7934   24.1783 C   0  0  0  0  0  0  0  0  0  0  0  0
    9.9723    3.9178   24.4898 C   0  0  0  0  0  0  0  0  0  0  0  0
    8.7725    4.1242   23.8028 C   0  0  0  0  0  0  0  0  0  0  0  0
    8.3864    3.2393   22.7903 C   0  0  0  0  0  0  0  0  0  0  0  0
    6.8362    3.5003   22.0304 Cl  0  0  0  0  0  0  0  0  0  0  0  0
    9.1893    2.1422   22.4173 C   0  0  0  0  0  0  0  0  0  0  0  0
    8.8481    1.2241   21.2698 C   0  0  0  0  0  0  0  0  0  0  0  0
    7.8249    0.2628   21.8047 N   0  0  0  0  0  4  0  0  0  0  0  0
    7.2922   -0.8232   20.9148 C   0  0  0  0  0  0  0  0  0  0  0  0
    6.4272   -1.8565   21.6796 C   0  0  0  0  0  0  0  0  0  0  0  0
    7.1128   -3.0522   22.3188 N   0  0  0  0  0  4  0  0  0  0  0  0
    6.1625   -3.9801   23.0585 C   0  0  0  0  0  0  0  0  0  0  0  0
    7.0030   -5.2245   23.3340 C   0  0  0  0  0  0  0  0  0  0  0  0
    7.8863   -5.3623   22.0736 C   0  0  0  0  0  0  0  0  0  0  0  0
    7.9108   -3.9659   21.4085 C   0  0  0  0  0  0  0  0  0  0  0  0
    7.4092   -3.9755   20.4385 H   0  0  0  0  0  0  0  0  0  0  0  0
    8.9203   -3.5655   21.2664 H   0  0  0  0  0  0  0  0  0  0  0  0
    8.8909   -5.7039   22.3336 H   0  0  0  0  0  0  0  0  0  0  0  0
    7.4840   -6.1107   21.3789 H   0  0  0  0  0  0  0  0  0  0  0  0
    6.3837   -6.1132   23.5082 H   0  0  0  0  0  0  0  0  0  0  0  0
    7.6129   -5.0903   24.2403 H   0  0  0  0  0  0  0  0  0  0  0  0
    5.7543   -3.4946   23.9524 H   0  0  0  0  0  0  0  0  0  0  0  0
    5.3253   -4.2271   22.3915 H   0  0  0  0  0  0  0  0  0  0  0  0
    7.7724   -2.6830   23.0403 H   0  0  0  0  0  0  0  0  0  0  0  0
    5.8672   -1.3347   22.4621 H   0  0  0  0  0  0  0  0  0  0  0  0
    5.6797   -2.2363   20.9767 H   0  0  0  0  0  0  0  0  0  0  0  0
    6.5335   -0.0755   19.8246 C   0  0  0  0  0  0  0  0  0  0  0  0
    5.3372    0.6238   20.0521 C   0  0  0  0  0  0  0  0  0  0  0  0
    4.7922    1.3865   19.0129 C   0  0  0  0  0  0  0  0  0  0  0  0
    5.4546    1.4201   17.7817 C   0  0  0  0  0  0  0  0  0  0  0  0
    6.6028    0.7653   17.5499 N   0  0  0  0  0  0  0  0  0  0  0  0
    7.1233    0.0586   18.5587 C   0  0  0  0  0  0  0  0  0  0  0  0
    8.0855   -0.4152   18.3485 H   0  0  0  0  0  0  0  0  0  0  0  0
    5.0552    2.0010   16.9498 H   0  0  0  0  0  0  0  0  0  0  0  0
    3.8964    1.9814   19.1553 H   0  0  0  0  0  0  0  0  0  0  0  0
    4.8389    0.5957   21.0261 H   0  0  0  0  0  0  0  0  0  0  0  0
    8.1213   -1.3632   20.4444 H   0  0  0  0  0  0  0  0  0  0  0  0
    7.0000    0.8941   22.0000 H   0  0  0  0  0  0  0  0  0  0  0  0
    8.2030   -0.0606   22.7143 H   0  0  0  0  0  0  0  0  0  0  0  0
    8.4369    1.8027   20.4389 H   0  0  0  0  0  0  0  0  0  0  0  0
    9.7552    0.7180   20.9190 H   0  0  0  0  0  0  0  0  0  0  0  0
   10.3505    1.9092   23.1742 C   0  0  0  0  0  0  0  0  0  0  0  0
   10.9533    1.0208   23.0203 H   0  0  0  0  0  0  0  0  0  0  0  0
    8.1151    4.9507   24.0543 H   0  0  0  0  0  0  0  0  0  0  0  0
   10.3093    4.6053   25.2587 H   0  0  0  0  0  0  0  0  0  0  0  0
  1  2  1  0
  2  3  2  0
  3  4  1  0
  4  5  2  0
  5  6  1  0
  5  7  1  0
  7  8  1  0
  8  9  1  0
  9 10  1  0
 10 11  1  0
 11 12  1  0
 12 13  1  0
 13 14  1  0
 14 15  1  0
 15 16  1  0
 16 17  1  0
 16 18  1  0
 15 19  1  0
 15 20  1  0
 14 21  1  0
 14 22  1  0
 13 23  1  0
 13 24  1  0
 12 25  1  0
 11 26  1  0
 11 27  1  0
 10 28  1  0
 28 29  2  0
 29 30  1  0
 30 31  2  0
 31 32  1  0
 32 33  2  0
 33 34  1  0
 31 35  1  0
 30 36  1  0
 29 37  1  0
 10 38  1  0
  9 39  1  0
  9 40  1  0
  8 41  1  0
  8 42  1  0
  7 43  2  0
 43 44  1  0
  4 45  1  0
  3 46  1  0
 43  2  1  0
 16 12  1  0
 33 28  1  0
M  CHG  2   9   1  12   1
M  END
>  <cnnaffinity>  (1) 
5.20347

>  <plip>  (1) 
-0.13333333333333333

>  <filename>  (1) 
[H][c]1[n][c]([H])[c]([C]([H])([C]([H])([H])[N+]2([H])[C]([H])([H])[C]([H])([H])[C]([H])([H])[C]2([H])[H])[N+]([H])([H])[C]([H])([H])[c]2[c]([H])[c]([F])[c]([H])[c]([H])[c]2[Cl])[c]([H])[c]1[H]

>  <combo1>  (1) 
-0.6885888908077122

$$$$
