
     RDKit          3D

 32 34  0  0  0  0  0  0  0  0999 V2000
   11.3786    2.7441   22.2199 H   0  0  0  0  0  0  0  0  0  0  0  0
   10.4102    3.0068   22.4640 N   0  0  0  0  0  0  0  0  0  0  0  0
    9.5827    2.1719   22.1744 N   0  0  0  0  0  4  0  0  0  0  0  0
    8.5709    1.5220   22.0201 N   0  0  0  0  0  0  0  0  0  0  0  0
    8.7005    0.1393   21.4449 C   0  0  2  0  0  0  0  0  0  0  0  0
    9.2076    0.2180   20.4721 H   0  0  0  0  0  0  0  0  0  0  0  0
    7.2643   -0.4218   21.2258 C   0  0  1  0  0  0  0  0  0  0  0  0
    6.7087   -0.2282   22.1548 H   0  0  0  0  0  0  0  0  0  0  0  0
    6.5448    0.2595   20.0645 C   0  0  0  0  0  0  0  0  0  0  0  0
    7.0997    0.1918   18.7697 C   0  0  0  0  0  0  0  0  0  0  0  0
    8.0312   -0.3594   18.6227 H   0  0  0  0  0  0  0  0  0  0  0  0
    6.5687    0.7443   17.6746 N   0  0  0  0  0  0  0  0  0  0  0  0
    5.3863    1.3620   17.8155 C   0  0  0  0  0  0  0  0  0  0  0  0
    4.9721    1.8065   16.9121 H   0  0  0  0  0  0  0  0  0  0  0  0
    4.7045    1.4402   19.0338 C   0  0  0  0  0  0  0  0  0  0  0  0
    3.7398    1.9373   19.0653 H   0  0  0  0  0  0  0  0  0  0  0  0
    5.2920    0.8821   20.1765 C   0  0  0  0  0  0  0  0  0  0  0  0
    4.7757    0.9306   21.1386 H   0  0  0  0  0  0  0  0  0  0  0  0
    7.2312   -1.9457   20.9446 C   0  0  0  0  0  0  0  0  0  0  0  0
    6.2090   -2.3080   21.1086 H   0  0  0  0  0  0  0  0  0  0  0  0
    7.4166   -2.0774   19.8805 H   0  0  0  0  0  0  0  0  0  0  0  0
    8.2121   -2.8099   21.7505 C   0  0  1  0  0  0  0  0  0  0  0  0
    8.0936   -3.8642   21.4774 H   0  0  0  0  0  0  0  0  0  0  0  0
    9.9285   -2.3035   21.3790 S   0  0  0  0  0  0  0  0  0  0  0  0
    9.5841   -0.7870   22.3269 C   0  0  2  0  0  0  0  0  0  0  0  0
   10.5258   -0.2857   22.5547 H   0  0  0  0  0  0  0  0  0  0  0  0
    8.9117   -1.2988   23.6174 C   0  0  0  0  0  0  0  0  0  0  0  0
    8.2786   -0.5307   24.0737 H   0  0  0  0  0  0  0  0  0  0  0  0
    9.6908   -1.5384   24.3503 H   0  0  0  0  0  0  0  0  0  0  0  0
    8.1195   -2.5914   23.2720 C   0  0  0  0  0  0  0  0  0  0  0  0
    7.0808   -2.5543   23.6246 H   0  0  0  0  0  0  0  0  0  0  0  0
    8.5878   -3.4492   23.7651 H   0  0  0  0  0  0  0  0  0  0  0  0
  1  2  1  0
  2  3  2  0
  3  4  2  0
  4  5  1  0
  5  6  1  6
  5  7  1  0
  7  8  1  1
  7  9  1  0
  9 10  2  0
 10 11  1  0
 10 12  1  0
 12 13  2  0
 13 14  1  0
 13 15  1  0
 15 16  1  0
 15 17  2  0
 17 18  1  0
  7 19  1  0
 19 20  1  0
 19 21  1  0
 19 22  1  0
 22 23  1  1
 22 24  1  0
 24 25  1  0
 25 26  1  1
 25 27  1  0
 27 28  1  0
 27 29  1  0
 27 30  1  0
 30 31  1  0
 30 32  1  0
 25  5  1  0
 17  9  1  0
 30 22  1  0
M  CHG  1   3   1
M  END
>  <cnnaffinity>  (1) 
5.02777

>  <plip>  (1) 
-0.10714285714285714

>  <filename>  (1) 
[H][N]=[N+]=[N][C@]1([H])[C@@]([H])([c]2[c]([H])[n][c]([H])[c]([H])[c]2[H])[C]([H])([H])[C@@]2([H])[S][C@]1([H])[C]([H])([H])[C]2([H])[H]

>  <combo1>  (1) 
-0.7259567097466888

$$$$
