
     RDKit          3D

 34 36  0  0  0  0  0  0  0  0999 V2000
    8.3136   -5.9468   28.4020 C   0  0  0  0  0  0  0  0  0  0  0  0
    9.4003   -5.1775   27.9894 C   0  0  0  0  0  0  0  0  0  0  0  0
    9.2498   -3.9870   27.4145 N   0  0  0  0  0  0  0  0  0  0  0  0
    8.0024   -3.5202   27.3078 C   0  0  0  0  0  0  0  0  0  0  0  0
    7.8380   -2.1274   26.7406 C   0  0  0  0  0  0  0  0  0  0  0  0
    7.7659   -2.2147   25.3114 O   0  0  0  0  0  0  0  0  0  0  0  0
    7.5989   -1.1118   24.5286 C   0  0  0  0  0  0  0  0  0  0  0  0
    7.5080    0.2105   24.9939 C   0  0  0  0  0  0  0  0  0  0  0  0
    7.3648    1.2448   24.0597 C   0  0  0  0  0  0  0  0  0  0  0  0
    7.3048    0.9779   22.6913 C   0  0  0  0  0  0  0  0  0  0  0  0
    7.3716   -0.3504   22.2445 C   0  0  0  0  0  0  0  0  0  0  0  0
    7.3556   -0.6970   20.9059 O   0  0  0  0  0  0  0  0  0  0  0  0
    6.6563    0.0098   19.9532 C   0  0  0  0  0  0  0  0  0  0  0  0
    5.4336    0.6424   20.1870 C   0  0  0  0  0  0  0  0  0  0  0  0
    4.8107    1.2906   19.1154 C   0  0  0  0  0  0  0  0  0  0  0  0
    5.4146    1.2733   17.8587 C   0  0  0  0  0  0  0  0  0  0  0  0
    6.5825    0.6526   17.6242 N   0  0  0  0  0  0  0  0  0  0  0  0
    7.1856    0.0365   18.6477 C   0  0  0  0  0  0  0  0  0  0  0  0
    8.1311   -0.4581   18.4301 H   0  0  0  0  0  0  0  0  0  0  0  0
    4.9647    1.7770   17.0075 H   0  0  0  0  0  0  0  0  0  0  0  0
    3.8802    1.8236   19.2491 H   0  0  0  0  0  0  0  0  0  0  0  0
    4.9972    0.6315   21.1834 H   0  0  0  0  0  0  0  0  0  0  0  0
    7.5356   -1.3871   23.1566 C   0  0  0  0  0  0  0  0  0  0  0  0
    7.6311   -2.4121   22.8236 H   0  0  0  0  0  0  0  0  0  0  0  0
    7.2000    1.7665   21.9583 H   0  0  0  0  0  0  0  0  0  0  0  0
    7.2889    2.2765   24.3995 H   0  0  0  0  0  0  0  0  0  0  0  0
    7.5494    0.4194   26.0565 H   0  0  0  0  0  0  0  0  0  0  0  0
    8.7105   -1.5412   27.0541 H   0  0  0  0  0  0  0  0  0  0  0  0
    6.9151   -1.7125   27.1623 H   0  0  0  0  0  0  0  0  0  0  0  0
    6.8979   -4.1586   27.7057 N   0  0  0  0  0  0  0  0  0  0  0  0
    7.0591   -5.3736   28.2260 C   0  0  0  0  0  0  0  0  0  0  0  0
    6.1409   -5.8934   28.5116 H   0  0  0  0  0  0  0  0  0  0  0  0
   10.4365   -5.4766   28.1670 H   0  0  0  0  0  0  0  0  0  0  0  0
    8.4269   -6.9262   28.8439 H   0  0  0  0  0  0  0  0  0  0  0  0
  1  2  2  0
  2  3  1  0
  3  4  2  0
  4  5  1  0
  5  6  1  0
  6  7  1  0
  7  8  2  0
  8  9  1  0
  9 10  2  0
 10 11  1  0
 11 12  1  0
 12 13  1  0
 13 14  2  0
 14 15  1  0
 15 16  2  0
 16 17  1  0
 17 18  2  0
 18 19  1  0
 16 20  1  0
 15 21  1  0
 14 22  1  0
 11 23  2  0
 23 24  1  0
 10 25  1  0
  9 26  1  0
  8 27  1  0
  5 28  1  0
  5 29  1  0
  4 30  1  0
 30 31  2  0
 31 32  1  0
  2 33  1  0
  1 34  1  0
 31  1  1  0
 23  7  1  0
 18 13  1  0
M  END
>  <cnnaffinity>  (1) 
4.86033

>  <plip>  (1) 
-0.0

>  <filename>  (1) 
[H][c]1[n][c]([C]([H])([H])[O][c]2[c]([H])[c]([H])[c]([H])[c]([O][c]3[c]([H])[n][c]([H])[c]([H])[c]3[H])[c]2[H])[n][c]([H])[c]1[H]

>  <combo1>  (1) 
-5.800629432973266e-06

$$$$
