
     RDKit          3D

 39 42  0  0  0  0  0  0  0  0999 V2000
    5.8187   -2.5558   20.0824 O   0  0  0  0  0  0  0  0  0  0  0  0
    6.5805   -2.2225   20.9832 C   0  0  0  0  0  0  0  0  0  0  0  0
    6.7095   -3.0481   22.0802 N   0  0  0  0  0  0  0  0  0  0  0  0
    5.5330   -3.8562   22.4302 C   0  0  0  0  0  0  0  0  0  0  0  0
    6.0113   -4.6873   23.5739 C   0  0  0  0  0  0  0  0  0  0  0  0
    7.3584   -4.4327   23.8291 C   0  0  0  0  0  0  0  0  0  0  0  0
    7.8793   -3.3508   22.9070 C   0  0  0  0  0  0  0  0  0  0  0  0
    8.7502   -3.7153   22.3437 H   0  0  0  0  0  0  0  0  0  0  0  0
    8.2204   -2.4802   23.4827 H   0  0  0  0  0  0  0  0  0  0  0  0
    7.9989   -5.1405   24.8465 C   0  0  0  0  0  0  0  0  0  0  0  0
    9.7203   -4.9852   25.0882 Cl  0  0  0  0  0  0  0  0  0  0  0  0
    7.2719   -6.0217   25.6617 C   0  0  0  0  0  0  0  0  0  0  0  0
    5.9115   -6.2431   25.4017 C   0  0  0  0  0  0  0  0  0  0  0  0
    5.2780   -5.5935   24.3380 C   0  0  0  0  0  0  0  0  0  0  0  0
    4.2410   -5.8115   24.0893 H   0  0  0  0  0  0  0  0  0  0  0  0
    5.3556   -6.9531   26.0127 H   0  0  0  0  0  0  0  0  0  0  0  0
    7.7696   -6.5464   26.4739 H   0  0  0  0  0  0  0  0  0  0  0  0
    5.2013   -4.4585   21.5749 H   0  0  0  0  0  0  0  0  0  0  0  0
    4.6971   -3.1996   22.7114 H   0  0  0  0  0  0  0  0  0  0  0  0
    7.3215   -0.8338   20.9722 C   0  0  0  0  0  0  0  0  0  0  0  0
    6.7017    0.0350   19.8702 C   0  0  0  0  0  0  0  0  0  0  0  0
    5.4700    0.6667   20.1021 C   0  0  0  0  0  0  0  0  0  0  0  0
    4.8287    1.3262   19.0497 C   0  0  0  0  0  0  0  0  0  0  0  0
    5.4433    1.3354   17.7910 C   0  0  0  0  0  0  0  0  0  0  0  0
    6.6117    0.7261   17.5308 N   0  0  0  0  0  0  0  0  0  0  0  0
    7.2054    0.0991   18.5583 C   0  0  0  0  0  0  0  0  0  0  0  0
    8.1360   -0.4168   18.3233 H   0  0  0  0  0  0  0  0  0  0  0  0
    4.9765    1.8569   16.9562 H   0  0  0  0  0  0  0  0  0  0  0  0
    3.8781    1.8354   19.1933 H   0  0  0  0  0  0  0  0  0  0  0  0
    5.0153    0.6125   21.0944 H   0  0  0  0  0  0  0  0  0  0  0  0
    8.8931   -0.8312   20.9871 C   0  0  0  0  0  0  0  0  0  0  0  0
    8.8984   -0.1278   22.3585 C   0  0  0  0  0  0  0  0  0  0  0  0
    7.3611   -0.1194   22.3750 C   0  0  0  0  0  0  0  0  0  0  0  0
    6.9245    0.8846   22.3644 H   0  0  0  0  0  0  0  0  0  0  0  0
    6.8854   -0.6846   23.1813 H   0  0  0  0  0  0  0  0  0  0  0  0
    9.3820   -0.6702   23.1753 H   0  0  0  0  0  0  0  0  0  0  0  0
    9.3303    0.8731   22.3364 H   0  0  0  0  0  0  0  0  0  0  0  0
    9.3253   -0.1987   20.2054 H   0  0  0  0  0  0  0  0  0  0  0  0
    9.3832   -1.8068   20.9295 H   0  0  0  0  0  0  0  0  0  0  0  0
  1  2  2  0
  2  3  1  0
  3  4  1  0
  4  5  1  0
  5  6  2  0
  6  7  1  0
  7  8  1  0
  7  9  1  0
  6 10  1  0
 10 11  1  0
 10 12  2  0
 12 13  1  0
 13 14  2  0
 14 15  1  0
 13 16  1  0
 12 17  1  0
  4 18  1  0
  4 19  1  0
  2 20  1  0
 20 21  1  0
 21 22  2  0
 22 23  1  0
 23 24  2  0
 24 25  1  0
 25 26  2  0
 26 27  1  0
 24 28  1  0
 23 29  1  0
 22 30  1  0
 20 31  1  0
 31 32  1  0
 32 33  1  0
 33 34  1  0
 33 35  1  0
 32 36  1  0
 32 37  1  0
 31 38  1  0
 31 39  1  0
  7  3  1  0
 33 20  1  0
 14  5  1  0
 26 21  1  0
M  END
>  <cnnaffinity>  (1) 
5.59294

>  <plip>  (1) 
-0.10714285714285714

>  <filename>  (1) 
[H][c]1[n][c]([H])[c]([C]2([C](=[O])[N]3[C]([H])([H])[c]4[c]([H])[c]([H])[c]([H])[c]([Cl])[c]4[C]3([H])[H])[C]([H])([H])[C]([H])([H])[C]2([H])[H])[c]([H])[c]1[H]

>  <combo1>  (1) 
-0.6385801059554258

$$$$
