
     RDKit          3D

 36 38  0  0  0  0  0  0  0  0999 V2000
    7.4460   -1.9617   21.0119 C   0  0  0  0  0  0  0  0  0  0  0  0
    7.2620   -0.4472   21.1523 C   0  0  0  0  0  0  0  0  0  0  0  0
    8.8902    0.3883   21.3235 S   0  0  0  0  0  0  0  0  0  0  0  0
    9.1915    0.2668   23.1218 C   0  0  0  0  0  0  0  0  0  0  0  0
    9.1742   -1.1137   23.7043 C   0  0  0  0  0  0  0  0  0  0  0  0
   10.1685   -1.9405   23.6488 N   0  0  0  0  0  0  0  0  0  0  0  0
    9.9117   -3.1224   24.2801 N   0  0  0  0  0  0  0  0  0  0  0  0
    8.7248   -3.1667   24.8122 C   0  0  0  0  0  0  0  0  0  0  0  0
    8.1823   -4.3045   25.5866 C   0  0  0  0  0  0  0  0  0  0  0  0
    8.9667   -5.4580   25.7533 C   0  0  0  0  0  0  0  0  0  0  0  0
    8.5120   -6.4838   26.5769 C   0  0  0  0  0  0  0  0  0  0  0  0
    7.2948   -6.3665   27.2592 C   0  0  0  0  0  0  0  0  0  0  0  0
    6.4843   -5.2521   27.0404 C   0  0  0  0  0  0  0  0  0  0  0  0
    6.9121   -4.2317   26.1906 C   0  0  0  0  0  0  0  0  0  0  0  0
    6.2511   -3.3860   26.0076 H   0  0  0  0  0  0  0  0  0  0  0  0
    5.5190   -5.1724   27.5330 H   0  0  0  0  0  0  0  0  0  0  0  0
    6.9771   -7.1327   27.9626 H   0  0  0  0  0  0  0  0  0  0  0  0
    9.1141   -7.3774   26.6673 H   0  0  0  0  0  0  0  0  0  0  0  0
    9.9294   -5.5382   25.2490 H   0  0  0  0  0  0  0  0  0  0  0  0
    7.7987   -1.7099   24.5755 S   0  0  0  0  0  0  0  0  0  0  0  0
   10.1900    0.6838   23.2845 H   0  0  0  0  0  0  0  0  0  0  0  0
    8.4682    0.8894   23.6553 H   0  0  0  0  0  0  0  0  0  0  0  0
    6.5289    0.1568   19.9738 C   0  0  0  0  0  0  0  0  0  0  0  0
    5.2864    0.7845   20.1108 C   0  0  0  0  0  0  0  0  0  0  0  0
    4.7016    1.3824   18.9923 C   0  0  0  0  0  0  0  0  0  0  0  0
    5.3756    1.3208   17.7691 C   0  0  0  0  0  0  0  0  0  0  0  0
    6.5452    0.6840   17.6076 N   0  0  0  0  0  0  0  0  0  0  0  0
    7.0912    0.1171   18.6904 C   0  0  0  0  0  0  0  0  0  0  0  0
    8.0413   -0.3921   18.5289 H   0  0  0  0  0  0  0  0  0  0  0  0
    4.9582    1.8044   16.8849 H   0  0  0  0  0  0  0  0  0  0  0  0
    3.7538    1.9075   19.0588 H   0  0  0  0  0  0  0  0  0  0  0  0
    4.7862    0.8071   21.0803 H   0  0  0  0  0  0  0  0  0  0  0  0
    6.6887   -0.2490   22.0653 H   0  0  0  0  0  0  0  0  0  0  0  0
    7.7276   -2.4171   21.9601 H   0  0  0  0  0  0  0  0  0  0  0  0
    6.5148   -2.4415   20.6915 H   0  0  0  0  0  0  0  0  0  0  0  0
    8.2431   -2.1978   20.3047 H   0  0  0  0  0  0  0  0  0  0  0  0
  1  2  1  0
  2  3  1  0
  3  4  1  0
  4  5  1  0
  5  6  2  0
  6  7  1  0
  7  8  2  0
  8  9  1  0
  9 10  2  0
 10 11  1  0
 11 12  2  0
 12 13  1  0
 13 14  2  0
 14 15  1  0
 13 16  1  0
 12 17  1  0
 11 18  1  0
 10 19  1  0
  8 20  1  0
  4 21  1  0
  4 22  1  0
  2 23  1  0
 23 24  2  0
 24 25  1  0
 25 26  2  0
 26 27  1  0
 27 28  2  0
 28 29  1  0
 26 30  1  0
 25 31  1  0
 24 32  1  0
  2 33  1  0
  1 34  1  0
  1 35  1  0
  1 36  1  0
 20  5  1  0
 28 23  1  0
 14  9  1  0
M  END
>  <cnnaffinity>  (1) 
4.96102

>  <plip>  (1) 
-0.03571428571428571

>  <filename>  (1) 
[H][c]1[n][c]([H])[c]([C]([H])([S][C]([H])([H])[c]2[n][n][c](-[c]3[c]([H])[c]([H])[c]([H])[c]([H])[c]3[H])[s]2)[C]([H])([H])[H])[c]([H])[c]1[H]

>  <combo1>  (1) 
-0.1884178449096092

$$$$
