
     RDKit          3D

 46 48  0  0  0  0  0  0  0  0999 V2000
    9.7674    7.1951   23.5655 C   0  0  0  0  0  0  0  0  0  0  0  0
    9.0600    6.1811   22.7452 N   0  0  0  0  0  4  0  0  0  0  0  0
    7.5744    6.4669   22.5335 C   0  0  0  0  0  0  0  0  0  0  0  0
    6.8559    5.3110   23.2396 C   0  0  0  0  0  0  0  0  0  0  0  0
    7.8355    4.1294   23.1290 C   0  0  0  0  0  0  0  0  0  0  0  0
    7.8325    3.4348   21.7620 C   0  0  0  0  0  0  0  0  0  0  0  0
    8.3979    2.0312   21.7864 N   0  0  0  0  0  4  0  0  0  0  0  0
    9.8909    1.9741   22.0166 C   0  0  0  0  0  0  0  0  0  0  0  0
   10.4173    2.6728   21.3510 H   0  0  0  0  0  0  0  0  0  0  0  0
   10.2819    0.9683   21.8351 H   0  0  0  0  0  0  0  0  0  0  0  0
   10.1271    2.2352   23.0550 H   0  0  0  0  0  0  0  0  0  0  0  0
    7.6649    1.0887   22.7405 C   0  0  0  0  0  0  0  0  0  0  0  0
    7.8131   -0.3102   22.2503 C   0  0  0  0  0  0  0  0  0  0  0  0
    8.3614   -1.4391   22.8251 C   0  0  0  0  0  0  0  0  0  0  0  0
    8.4485   -2.3658   21.7705 C   0  0  0  0  0  0  0  0  0  0  0  0
    7.9690   -1.8736   20.6401 N   0  0  0  0  0  0  0  0  0  0  0  0
    7.5510   -0.6259   20.9406 N   0  0  0  0  0  0  0  0  0  0  0  0
    6.8028    0.0710   19.9528 C   0  0  0  0  0  0  0  0  0  0  0  0
    5.5827    0.7227   20.2020 C   0  0  0  0  0  0  0  0  0  0  0  0
    4.9385    1.3369   19.1208 C   0  0  0  0  0  0  0  0  0  0  0  0
    5.5323    1.2966   17.8549 C   0  0  0  0  0  0  0  0  0  0  0  0
    6.6904    0.6572   17.6130 N   0  0  0  0  0  0  0  0  0  0  0  0
    7.2831    0.0323   18.6329 C   0  0  0  0  0  0  0  0  0  0  0  0
    8.1886   -0.5241   18.3981 H   0  0  0  0  0  0  0  0  0  0  0  0
    5.0601    1.7796   17.0014 H   0  0  0  0  0  0  0  0  0  0  0  0
    3.9841    1.8387   19.2470 H   0  0  0  0  0  0  0  0  0  0  0  0
    5.1295    0.7264   21.1955 H   0  0  0  0  0  0  0  0  0  0  0  0
    8.8350   -3.3785   21.7814 H   0  0  0  0  0  0  0  0  0  0  0  0
    8.6748   -1.5577   23.8548 H   0  0  0  0  0  0  0  0  0  0  0  0
    8.0734    1.1715   23.7550 H   0  0  0  0  0  0  0  0  0  0  0  0
    6.6115    1.3830   22.7891 H   0  0  0  0  0  0  0  0  0  0  0  0
    8.2251    1.5996   20.8596 H   0  0  0  0  0  0  0  0  0  0  0  0
    6.8192    3.3905   21.3406 H   0  0  0  0  0  0  0  0  0  0  0  0
    8.4225    4.0350   21.0526 H   0  0  0  0  0  0  0  0  0  0  0  0
    9.1960    4.8003   23.3531 C   0  0  0  0  0  0  0  0  0  0  0  0
    9.4396    4.8919   24.4140 H   0  0  0  0  0  0  0  0  0  0  0  0
   10.0244    4.2869   22.8612 H   0  0  0  0  0  0  0  0  0  0  0  0
    7.6303    3.3693   23.8882 H   0  0  0  0  0  0  0  0  0  0  0  0
    5.8676    5.1092   22.8106 H   0  0  0  0  0  0  0  0  0  0  0  0
    6.7077    5.5573   24.3013 H   0  0  0  0  0  0  0  0  0  0  0  0
    7.3509    6.4937   21.4571 H   0  0  0  0  0  0  0  0  0  0  0  0
    7.3397    7.4501   22.9516 H   0  0  0  0  0  0  0  0  0  0  0  0
    9.4971    6.1080   21.8038 H   0  0  0  0  0  0  0  0  0  0  0  0
   10.8440    6.9788   23.6188 H   0  0  0  0  0  0  0  0  0  0  0  0
    9.3671    7.1692   24.5917 H   0  0  0  0  0  0  0  0  0  0  0  0
    9.6100    8.2021   23.1665 H   0  0  0  0  0  0  0  0  0  0  0  0
  1  2  1  0
  2  3  1  0
  3  4  1  0
  4  5  1  0
  5  6  1  0
  6  7  1  0
  7  8  1  0
  8  9  1  0
  8 10  1  0
  8 11  1  0
  7 12  1  0
 12 13  1  0
 13 14  2  0
 14 15  1  0
 15 16  2  0
 16 17  1  0
 17 18  1  0
 18 19  2  0
 19 20  1  0
 20 21  2  0
 21 22  1  0
 22 23  2  0
 23 24  1  0
 21 25  1  0
 20 26  1  0
 19 27  1  0
 15 28  1  0
 14 29  1  0
 12 30  1  0
 12 31  1  0
  7 32  1  0
  6 33  1  0
  6 34  1  0
  5 35  1  0
 35 36  1  0
 35 37  1  0
  5 38  1  0
  4 39  1  0
  4 40  1  0
  3 41  1  0
  3 42  1  0
  2 43  1  0
  1 44  1  0
  1 45  1  0
  1 46  1  0
 35  2  1  0
 17 13  1  0
 23 18  1  0
M  CHG  2   2   1   7   1
M  END
>  <cnnaffinity>  (1) 
4.53398

>  <plip>  (1) 
-0.10344827586206896

>  <filename>  (1) 
[H][c]1[n][c]([H])[c](-[n]2[n][c]([H])[c]([H])[c]2[C]([H])([H])[N+]([H])([C]([H])([H])[H])[C]([H])([H])[C]2([H])[C]([H])([H])[C]([H])([H])[N+]([H])([C]([H])([H])[H])[C]2([H])[H])[c]([H])[c]1[H]

>  <combo1>  (1) 
-0.5439740926096589

$$$$
