
     RDKit          3D

 35 37  0  0  0  0  0  0  0  0999 V2000
    9.4747   -0.2142   23.3092 H   0  0  0  0  0  0  0  0  0  0  0  0
    8.7881   -0.6251   22.5688 C   0  0  0  0  0  0  0  0  0  0  0  0
    8.4349   -1.9174   22.6442 C   0  0  0  0  0  0  0  0  0  0  0  0
    8.9385   -2.7687   23.7520 C   0  0  0  0  0  0  0  0  0  0  0  0
    9.0254   -2.3230   25.0818 C   0  0  0  0  0  0  0  0  0  0  0  0
    8.6788   -1.3132   25.3357 H   0  0  0  0  0  0  0  0  0  0  0  0
    9.4761   -3.0698   26.0850 N   0  0  0  0  0  0  0  0  0  0  0  0
    9.8781   -4.2877   25.7359 C   0  0  0  0  0  0  0  0  0  0  0  0
   10.3496   -5.0680   26.7079 N   0  0  0  0  0  0  0  0  0  0  0  0
   10.9661   -5.7306   26.2725 H   0  0  0  0  0  0  0  0  0  0  0  0
   10.6515   -4.5196   27.4888 H   0  0  0  0  0  0  0  0  0  0  0  0
    9.8901   -4.8479   24.5317 N   0  0  0  0  0  0  0  0  0  0  0  0
    9.3814   -4.0843   23.5765 C   0  0  0  0  0  0  0  0  0  0  0  0
    9.3230   -4.5322   22.5865 H   0  0  0  0  0  0  0  0  0  0  0  0
    7.4495   -2.5359   21.6465 C   0  0  0  0  0  0  0  0  0  0  0  0
    6.5150   -2.7298   22.1873 H   0  0  0  0  0  0  0  0  0  0  0  0
    7.7906   -3.5193   21.3093 H   0  0  0  0  0  0  0  0  0  0  0  0
    7.1598   -1.6343   20.4381 C   0  0  0  0  0  0  0  0  0  0  0  0
    6.2759   -1.9717   19.8857 H   0  0  0  0  0  0  0  0  0  0  0  0
    7.9941   -1.6683   19.7303 H   0  0  0  0  0  0  0  0  0  0  0  0
    6.9984   -0.1642   20.8503 C   0  0  2  0  0  0  0  0  0  0  0  0
    6.2454   -0.1197   21.6515 H   0  0  0  0  0  0  0  0  0  0  0  0
    6.4831    0.6740   19.6941 C   0  0  0  0  0  0  0  0  0  0  0  0
    7.1461    0.7420   18.4544 C   0  0  0  0  0  0  0  0  0  0  0  0
    8.1577    0.3476   18.3500 H   0  0  0  0  0  0  0  0  0  0  0  0
    6.6183    1.2634   17.3353 N   0  0  0  0  0  0  0  0  0  0  0  0
    5.4002    1.8156   17.4329 C   0  0  0  0  0  0  0  0  0  0  0  0
    4.9811    2.2209   16.5140 H   0  0  0  0  0  0  0  0  0  0  0  0
    4.6804    1.8838   18.6296 C   0  0  0  0  0  0  0  0  0  0  0  0
    3.7120    2.3716   18.6510 H   0  0  0  0  0  0  0  0  0  0  0  0
    5.2389    1.3152   19.7764 C   0  0  0  0  0  0  0  0  0  0  0  0
    4.7169    1.3532   20.7339 H   0  0  0  0  0  0  0  0  0  0  0  0
    8.3256    0.3184   21.4721 C   0  0  0  0  0  0  0  0  0  0  0  0
    9.1121    0.3942   20.7029 H   0  0  0  0  0  0  0  0  0  0  0  0
    8.2109    1.3323   21.8699 H   0  0  0  0  0  0  0  0  0  0  0  0
  1  2  1  0
  2  3  2  0
  3  4  1  0
  4  5  2  0
  5  6  1  0
  5  7  1  0
  7  8  2  0
  8  9  1  0
  9 10  1  0
  9 11  1  0
  8 12  1  0
 12 13  2  0
 13 14  1  0
  3 15  1  0
 15 16  1  0
 15 17  1  0
 15 18  1  0
 18 19  1  0
 18 20  1  0
 18 21  1  0
 21 22  1  1
 21 23  1  0
 23 24  2  0
 24 25  1  0
 24 26  1  0
 26 27  2  0
 27 28  1  0
 27 29  1  0
 29 30  1  0
 29 31  2  0
 31 32  1  0
 21 33  1  0
 33 34  1  0
 33 35  1  0
 33  2  1  0
 13  4  1  0
 31 23  1  0
M  END
>  <cnnaffinity>  (1) 
5.17223

>  <plip>  (1) 
-0.06896551724137931

>  <filename>  (1) 
[H][C]1=[C]([c]2[c]([H])[n][c]([N]([H])[H])[n][c]2[H])[C]([H])([H])[C]([H])([H])[C@]([H])([c]2[c]([H])[n][c]([H])[c]([H])[c]2[H])[C]1([H])[H]

>  <combo1>  (1) 
-0.4712324344008614

$$$$
