
     RDKit          3D

 31 32  0  0  0  0  0  0  0  0999 V2000
    5.8172   -3.0660   22.7879 O   0  0  0  0  0  0  0  0  0  0  0  0
    7.0064   -2.9910   22.9155 C   0  0  0  0  0  0  0  0  0  0  0  0
    7.7804   -3.1725   24.0656 N   0  0  0  0  0  0  0  0  0  0  0  0
    7.2881   -3.3006   25.3716 N   0  0  0  0  0  0  0  0  0  0  0  0
    7.5918   -4.3909   26.1810 C   0  0  0  0  0  0  0  0  0  0  0  0
    8.2795   -5.5377   25.7225 C   0  0  0  0  0  0  0  0  0  0  0  0
    8.5843   -6.4904   26.6696 C   0  0  0  0  0  0  0  0  0  0  0  0
    8.1287   -6.2964   27.9901 C   0  0  0  0  0  0  0  0  0  0  0  0
    7.4360   -5.2169   28.3464 N   0  0  0  0  0  0  0  0  0  0  0  0
    7.1543   -4.2768   27.4394 N   0  0  0  0  0  0  0  0  0  0  0  0
    8.3050   -7.0071   28.7877 H   0  0  0  0  0  0  0  0  0  0  0  0
    9.1648   -7.3656   26.4057 H   0  0  0  0  0  0  0  0  0  0  0  0
    8.5202   -5.6376   24.6715 H   0  0  0  0  0  0  0  0  0  0  0  0
    6.4067   -2.8796   25.6654 H   0  0  0  0  0  0  0  0  0  0  0  0
    8.6350   -2.6338   23.9495 H   0  0  0  0  0  0  0  0  0  0  0  0
    7.9585   -2.6912   21.8490 N   0  0  0  0  0  0  0  0  0  0  0  0
    7.3686   -2.0338   20.7377 O   0  0  0  0  0  0  0  0  0  0  0  0
    7.4487   -0.6141   20.9272 C   0  0  0  0  0  0  0  0  0  0  0  0
    6.6784    0.0509   19.8162 C   0  0  0  0  0  0  0  0  0  0  0  0
    5.4534    0.6864   20.0456 C   0  0  0  0  0  0  0  0  0  0  0  0
    4.8131    1.3187   18.9781 C   0  0  0  0  0  0  0  0  0  0  0  0
    5.4114    1.2730   17.7168 C   0  0  0  0  0  0  0  0  0  0  0  0
    6.5574    0.6194   17.4645 N   0  0  0  0  0  0  0  0  0  0  0  0
    7.1603    0.0177   18.4974 C   0  0  0  0  0  0  0  0  0  0  0  0
    8.0748   -0.5273   18.2595 H   0  0  0  0  0  0  0  0  0  0  0  0
    4.9581    1.7866   16.8709 H   0  0  0  0  0  0  0  0  0  0  0  0
    3.8798    1.8530   19.1125 H   0  0  0  0  0  0  0  0  0  0  0  0
    5.0012    0.6735   21.0399 H   0  0  0  0  0  0  0  0  0  0  0  0
    8.5085   -0.3137   20.9397 H   0  0  0  0  0  0  0  0  0  0  0  0
    7.0082   -0.3661   21.9048 H   0  0  0  0  0  0  0  0  0  0  0  0
    8.2135   -3.5871   21.4433 H   0  0  0  0  0  0  0  0  0  0  0  0
  1  2  2  0
  2  3  1  0
  3  4  1  0
  4  5  1  0
  5  6  2  0
  6  7  1  0
  7  8  2  0
  8  9  1  0
  9 10  2  0
  8 11  1  0
  7 12  1  0
  6 13  1  0
  4 14  1  0
  3 15  1  0
  2 16  1  0
 16 17  1  0
 17 18  1  0
 18 19  1  0
 19 20  2  0
 20 21  1  0
 21 22  2  0
 22 23  1  0
 23 24  2  0
 24 25  1  0
 22 26  1  0
 21 27  1  0
 20 28  1  0
 18 29  1  0
 18 30  1  0
 16 31  1  0
 10  5  1  0
 24 19  1  0
M  END
>  <cnnaffinity>  (1) 
4.42865

>  <plip>  (1) 
-0.1

>  <filename>  (1) 
[H][c]1[n][n][c]([N]([H])[N]([H])[C](=[O])[N]([H])[O][C]([H])([H])[c]2[c]([H])[n][c]([H])[c]([H])[c]2[H])[c]([H])[c]1[H]

>  <combo1>  (1) 
-0.5672149708429234

$$$$
