
     RDKit          3D

 35 37  0  0  0  0  0  0  0  0999 V2000
    6.6928   -2.0575   21.3199 C   0  0  0  0  0  0  0  0  0  0  0  0
    7.3937   -0.7487   20.9810 C   0  0  2  0  0  0  0  0  0  0  0  0
    7.5817    0.0366   22.1929 N   0  0  0  0  0  0  0  0  0  0  0  0
    8.3340    1.1819   22.1671 C   0  0  0  0  0  0  0  0  0  0  0  0
    9.0834    1.4222   21.2284 O   0  0  0  0  0  0  0  0  0  0  0  0
    8.2329    2.1170   23.4097 C   0  0  0  0  0  0  0  0  0  0  0  0
    7.0910    2.1487   24.0819 N   0  0  0  0  0  0  0  0  0  0  0  0
    6.9308    3.0404   25.0883 C   0  0  0  0  0  0  0  0  0  0  0  0
    7.9035    3.9372   25.4641 C   0  0  0  0  0  0  0  0  0  0  0  0
    9.1479    3.9333   24.7892 C   0  0  0  0  0  0  0  0  0  0  0  0
   10.2196    4.8304   25.0517 C   0  0  0  0  0  0  0  0  0  0  0  0
   11.4445    4.5745   24.4764 C   0  0  0  0  0  0  0  0  0  0  0  0
   11.6964    3.5221   23.6570 N   0  0  0  0  0  0  0  0  0  0  0  0
   10.6836    2.7457   23.3325 C   0  0  0  0  0  0  0  0  0  0  0  0
    9.3545    2.9290   23.8062 C   0  0  0  0  0  0  0  0  0  0  0  0
   10.8637    1.9200   22.6474 H   0  0  0  0  0  0  0  0  0  0  0  0
   12.3068    5.2085   24.6783 H   0  0  0  0  0  0  0  0  0  0  0  0
   10.0854    5.6852   25.7103 H   0  0  0  0  0  0  0  0  0  0  0  0
    7.7224    4.6115   26.2836 H   0  0  0  0  0  0  0  0  0  0  0  0
    5.9632    3.0059   25.5774 H   0  0  0  0  0  0  0  0  0  0  0  0
    6.8411    0.0386   22.8802 H   0  0  0  0  0  0  0  0  0  0  0  0
    6.6501    0.0308   19.9068 C   0  0  0  0  0  0  0  0  0  0  0  0
    5.4297    0.6877   20.1340 C   0  0  0  0  0  0  0  0  0  0  0  0
    4.8016    1.3255   19.0639 C   0  0  0  0  0  0  0  0  0  0  0  0
    5.4158    1.2938   17.8076 C   0  0  0  0  0  0  0  0  0  0  0  0
    6.5781    0.6728   17.5661 N   0  0  0  0  0  0  0  0  0  0  0  0
    7.1709    0.0727   18.6081 C   0  0  0  0  0  0  0  0  0  0  0  0
    8.1246   -0.4126   18.3889 H   0  0  0  0  0  0  0  0  0  0  0  0
    4.9475    1.7854   16.9583 H   0  0  0  0  0  0  0  0  0  0  0  0
    3.8585    1.8460   19.1889 H   0  0  0  0  0  0  0  0  0  0  0  0
    4.9828    0.7214   21.1320 H   0  0  0  0  0  0  0  0  0  0  0  0
    8.3950   -0.9749   20.5957 H   0  0  0  0  0  0  0  0  0  0  0  0
    6.6303   -2.7076   20.4399 H   0  0  0  0  0  0  0  0  0  0  0  0
    5.6745   -1.8577   21.6720 H   0  0  0  0  0  0  0  0  0  0  0  0
    7.2367   -2.5899   22.1055 H   0  0  0  0  0  0  0  0  0  0  0  0
  1  2  1  0
  2  3  1  0
  3  4  1  0
  4  5  2  0
  4  6  1  0
  6  7  2  0
  7  8  1  0
  8  9  2  0
  9 10  1  0
 10 11  2  0
 11 12  1  0
 12 13  2  0
 13 14  1  0
 14 15  2  0
 14 16  1  0
 12 17  1  0
 11 18  1  0
  9 19  1  0
  8 20  1  0
  3 21  1  0
  2 22  1  0
 22 23  2  0
 23 24  1  0
 24 25  2  0
 25 26  1  0
 26 27  2  0
 27 28  1  0
 25 29  1  0
 24 30  1  0
 23 31  1  0
  2 32  1  6
  1 33  1  0
  1 34  1  0
  1 35  1  0
 15  6  1  0
 27 22  1  0
 15 10  1  0
M  END
>  <cnnaffinity>  (1) 
5.22026

>  <plip>  (1) 
-0.14285714285714285

>  <filename>  (1) 
[H][c]1[n][c]([H])[c]([C@@]([H])([N]([H])[C](=[O])[c]2[n][c]([H])[c]([H])[c]3[c]([H])[c]([H])[n][c]([H])[c]23)[C]([H])([H])[H])[c]([H])[c]1[H]

>  <combo1>  (1) 
-0.8931743151601947

$$$$
