
     RDKit          3D

 32 34  0  0  0  0  0  0  0  0999 V2000
    6.5177   -1.5448   21.9717 O   0  0  0  0  0  0  0  0  0  0  0  0
    7.5066   -0.8567   21.1619 S   0  0  0  0  0  0  0  0  0  0  0  0
    8.6257   -1.5523   20.5338 O   0  0  0  0  0  0  0  0  0  0  0  0
    8.1980    0.3965   22.2005 C   0  0  0  0  0  0  0  0  0  0  0  0
    9.2907    1.2560   21.5479 C   0  0  0  0  0  0  0  0  0  0  0  0
    9.2552    2.7446   21.9747 C   0  0  0  0  0  0  0  0  0  0  0  0
   10.5508    3.1095   22.4774 O   0  0  0  0  0  0  0  0  0  0  0  0
   11.3385    2.0001   22.4576 C   0  0  0  0  0  0  0  0  0  0  0  0
   12.6524    1.9603   22.9206 C   0  0  0  0  0  0  0  0  0  0  0  0
   13.3335    0.7377   22.8278 C   0  0  0  0  0  0  0  0  0  0  0  0
   12.7078   -0.3992   22.2910 C   0  0  0  0  0  0  0  0  0  0  0  0
   11.3817   -0.3368   21.8378 C   0  0  0  0  0  0  0  0  0  0  0  0
   10.7022    0.8765   21.9298 C   0  0  0  0  0  0  0  0  0  0  0  0
   10.8738   -1.2022   21.4177 H   0  0  0  0  0  0  0  0  0  0  0  0
   13.2538   -1.3352   22.2194 H   0  0  0  0  0  0  0  0  0  0  0  0
   14.3648    0.6760   23.1687 H   0  0  0  0  0  0  0  0  0  0  0  0
   13.1127    2.8564   23.3279 H   0  0  0  0  0  0  0  0  0  0  0  0
    9.0140    3.3625   21.1117 H   0  0  0  0  0  0  0  0  0  0  0  0
    8.5237    2.9587   22.7597 H   0  0  0  0  0  0  0  0  0  0  0  0
    9.1922    1.1959   20.4545 H   0  0  0  0  0  0  0  0  0  0  0  0
    8.5781   -0.2048   23.0294 H   0  0  0  0  0  0  0  0  0  0  0  0
    7.3267    0.9484   22.5590 H   0  0  0  0  0  0  0  0  0  0  0  0
    6.6458    0.0212   19.9311 C   0  0  0  0  0  0  0  0  0  0  0  0
    5.4278    0.6542   20.2022 C   0  0  0  0  0  0  0  0  0  0  0  0
    4.8244    1.3014   19.1333 C   0  0  0  0  0  0  0  0  0  0  0  0
    5.4403    1.2672   17.8779 C   0  0  0  0  0  0  0  0  0  0  0  0
    6.6012    0.6425   17.6403 N   0  0  0  0  0  0  0  0  0  0  0  0
    7.2000    0.0286   18.6580 C   0  0  0  0  0  0  0  0  0  0  0  0
    8.1451   -0.4613   18.4223 H   0  0  0  0  0  0  0  0  0  0  0  0
    4.9790    1.7561   17.0239 H   0  0  0  0  0  0  0  0  0  0  0  0
    3.8893    1.8313   19.2571 H   0  0  0  0  0  0  0  0  0  0  0  0
    4.9500    0.6333   21.1868 H   0  0  0  0  0  0  0  0  0  0  0  0
  1  2  2  0
  2  3  2  0
  2  4  1  0
  4  5  1  0
  5  6  1  0
  6  7  1  0
  7  8  1  0
  8  9  2  0
  9 10  1  0
 10 11  2  0
 11 12  1  0
 12 13  2  0
 12 14  1  0
 11 15  1  0
 10 16  1  0
  9 17  1  0
  6 18  1  0
  6 19  1  0
  5 20  1  0
  4 21  1  0
  4 22  1  0
  2 23  1  0
 23 24  2  0
 24 25  1  0
 25 26  2  0
 26 27  1  0
 27 28  2  0
 28 29  1  0
 26 30  1  0
 25 31  1  0
 24 32  1  0
 13  5  1  0
 28 23  1  0
 13  8  1  0
M  END
>  <cnnaffinity>  (1) 
4.94812

>  <plip>  (1) 
-0.07142857142857142

>  <filename>  (1) 
[H][c]1[n][c]([H])[c]([S](=[O])(=[O])[C]([H])([H])[C]2([H])[c]3[c]([H])[c]([H])[c]([H])[c]([H])[c]3[O][C]2([H])[H])[c]([H])[c]1[H]

>  <combo1>  (1) 
-0.4278967379113024

$$$$
