
     RDKit          3D

 33 35  0  0  0  0  0  0  0  0999 V2000
    7.4746   -2.9612   25.9056 C   0  0  0  0  0  0  0  0  0  0  0  0
    8.5417   -3.3101   25.1924 C   0  0  0  0  0  0  0  0  0  0  0  0
    9.0281   -2.1931   24.3038 C   0  0  0  0  0  0  0  0  0  0  0  0
    8.9031   -2.5839   22.8276 C   0  0  0  0  0  0  0  0  0  0  0  0
    9.3763   -1.5387   21.9352 N   0  0  0  0  0  0  0  0  0  0  0  0
   10.6862   -1.1510   21.7976 C   0  0  0  0  0  0  0  0  0  0  0  0
   10.8045   -0.1640   20.9674 N   0  0  0  0  0  0  0  0  0  0  0  0
    9.5415    0.1320   20.5006 N   0  0  0  0  0  0  0  0  0  0  0  0
    8.7101   -0.6728   21.1054 C   0  0  0  0  0  0  0  0  0  0  0  0
    7.3495   -0.7045   20.9301 N   0  0  0  0  0  0  0  0  0  0  0  0
    6.6688   -0.0044   19.9016 C   0  0  0  0  0  0  0  0  0  0  0  0
    5.4487    0.6290   20.1632 C   0  0  0  0  0  0  0  0  0  0  0  0
    4.8130    1.3029   19.1106 C   0  0  0  0  0  0  0  0  0  0  0  0
    5.3909    1.2973   17.8364 C   0  0  0  0  0  0  0  0  0  0  0  0
    6.5504    0.6785   17.5611 N   0  0  0  0  0  0  0  0  0  0  0  0
    7.1722    0.0646   18.5743 C   0  0  0  0  0  0  0  0  0  0  0  0
    8.1290   -0.4130   18.3706 H   0  0  0  0  0  0  0  0  0  0  0  0
    4.9109    1.7907   16.9953 H   0  0  0  0  0  0  0  0  0  0  0  0
    3.8834    1.8354   19.2665 H   0  0  0  0  0  0  0  0  0  0  0  0
    5.0303    0.6159   21.1709 H   0  0  0  0  0  0  0  0  0  0  0  0
    6.8204   -1.0791   21.6998 H   0  0  0  0  0  0  0  0  0  0  0  0
   11.5043   -1.6111   22.3308 H   0  0  0  0  0  0  0  0  0  0  0  0
    7.8647   -2.8184   22.5821 H   0  0  0  0  0  0  0  0  0  0  0  0
    9.4839   -3.4931   22.6375 H   0  0  0  0  0  0  0  0  0  0  0  0
    8.1387   -0.9813   24.7037 C   0  0  0  0  0  0  0  0  0  0  0  0
    7.0470   -1.5373   25.6481 C   0  0  0  0  0  0  0  0  0  0  0  0
    6.0491   -1.4977   25.1899 H   0  0  0  0  0  0  0  0  0  0  0  0
    6.9674   -0.9533   26.5729 H   0  0  0  0  0  0  0  0  0  0  0  0
    7.6991   -0.4788   23.8326 H   0  0  0  0  0  0  0  0  0  0  0  0
    8.7431   -0.2146   25.1988 H   0  0  0  0  0  0  0  0  0  0  0  0
   10.0881   -1.9809   24.5052 H   0  0  0  0  0  0  0  0  0  0  0  0
    9.0197   -4.2902   25.2013 H   0  0  0  0  0  0  0  0  0  0  0  0
    6.9454   -3.6115   26.5986 H   0  0  0  0  0  0  0  0  0  0  0  0
  1  2  2  0
  2  3  1  0
  3  4  1  0
  4  5  1  0
  5  6  1  0
  6  7  2  0
  7  8  1  0
  8  9  2  0
  9 10  1  0
 10 11  1  0
 11 12  2  0
 12 13  1  0
 13 14  2  0
 14 15  1  0
 15 16  2  0
 16 17  1  0
 14 18  1  0
 13 19  1  0
 12 20  1  0
 10 21  1  0
  6 22  1  0
  4 23  1  0
  4 24  1  0
  3 25  1  0
 25 26  1  0
 26 27  1  0
 26 28  1  0
 25 29  1  0
 25 30  1  0
  3 31  1  0
  2 32  1  0
  1 33  1  0
 26  1  1  0
  9  5  1  0
 16 11  1  0
M  END
>  <cnnaffinity>  (1) 
5.4621

>  <plip>  (1) 
-0.10714285714285714

>  <filename>  (1) 
[H][C]1=[C]([H])[C]([H])([C]([H])([H])[n]2[c]([H])[n][n][c]2[N]([H])[c]2[c]([H])[n][c]([H])[c]([H])[c]2[H])[C]([H])([H])[C]1([H])[H]

>  <combo1>  (1) 
-0.8084401859940816

$$$$
