
     RDKit          3D

 37 37  0  0  0  0  0  0  0  0999 V2000
    7.6668    0.6747   25.0139 C   0  0  0  0  0  0  0  0  0  0  0  0
    8.5927   -0.2945   25.7545 C   0  0  0  0  0  0  0  0  0  0  0  0
    8.5452   -1.6402   25.1988 N   0  0  0  0  0  0  0  0  0  0  0  0
    7.4644   -2.4560   25.3530 C   0  0  0  0  0  0  0  0  0  0  0  0
    6.5991   -2.2807   26.1894 O   0  0  0  0  0  0  0  0  0  0  0  0
    7.3969   -3.6558   24.3556 C   0  0  0  0  0  0  0  0  0  0  0  0
    7.1363   -3.3500   22.9264 N   0  0  0  0  0  0  0  0  0  0  0  0
    7.9778   -2.6214   22.1555 C   0  0  0  0  0  0  0  0  0  0  0  0
    9.1183   -2.3228   22.5123 O   0  0  0  0  0  0  0  0  0  0  0  0
    7.4226   -2.0422   20.9017 C   0  0  0  0  0  0  0  0  0  0  0  0
    7.2433   -0.5407   21.1348 C   0  0  1  0  0  0  0  0  0  0  0  0
    8.6330   -0.0304   21.3067 N   0  0  0  0  0  4  0  0  0  0  0  0
    9.1747   -0.7212   21.8738 H   0  0  0  0  0  0  0  0  0  0  0  0
    9.0522    0.0614   20.3682 H   0  0  0  0  0  0  0  0  0  0  0  0
    8.6075    0.9029   21.7433 H   0  0  0  0  0  0  0  0  0  0  0  0
    6.5861    0.1686   19.9861 C   0  0  0  0  0  0  0  0  0  0  0  0
    5.3498    0.8229   20.1241 C   0  0  0  0  0  0  0  0  0  0  0  0
    4.7865    1.4374   19.0044 C   0  0  0  0  0  0  0  0  0  0  0  0
    5.4650    1.3587   17.7825 C   0  0  0  0  0  0  0  0  0  0  0  0
    6.6298    0.7146   17.6243 N   0  0  0  0  0  0  0  0  0  0  0  0
    7.1722    0.1500   18.7116 C   0  0  0  0  0  0  0  0  0  0  0  0
    8.1159   -0.3674   18.5309 H   0  0  0  0  0  0  0  0  0  0  0  0
    5.0503    1.8243   16.8901 H   0  0  0  0  0  0  0  0  0  0  0  0
    3.8518    1.9873   19.0625 H   0  0  0  0  0  0  0  0  0  0  0  0
    4.8415    0.8573   21.0962 H   0  0  0  0  0  0  0  0  0  0  0  0
    6.6687   -0.3411   22.0494 H   0  0  0  0  0  0  0  0  0  0  0  0
    8.2219   -2.1226   20.1782 H   0  0  0  0  0  0  0  0  0  0  0  0
    6.5239   -2.5435   20.5503 H   0  0  0  0  0  0  0  0  0  0  0  0
    6.1783   -3.3726   22.6004 H   0  0  0  0  0  0  0  0  0  0  0  0
    8.3351   -4.2188   24.4387 H   0  0  0  0  0  0  0  0  0  0  0  0
    6.5889   -4.2825   24.7288 H   0  0  0  0  0  0  0  0  0  0  0  0
    9.0674   -1.7922   24.3402 H   0  0  0  0  0  0  0  0  0  0  0  0
    8.3538   -0.3461   26.8227 H   0  0  0  0  0  0  0  0  0  0  0  0
    9.6326    0.0515   25.6869 H   0  0  0  0  0  0  0  0  0  0  0  0
    7.7181    1.6760   25.4577 H   0  0  0  0  0  0  0  0  0  0  0  0
    6.6251    0.3343   25.0721 H   0  0  0  0  0  0  0  0  0  0  0  0
    7.9543    0.7501   23.9559 H   0  0  0  0  0  0  0  0  0  0  0  0
  1  2  1  0
  2  3  1  0
  3  4  1  0
  4  5  2  0
  4  6  1  0
  6  7  1  0
  7  8  1  0
  8  9  2  0
  8 10  1  0
 10 11  1  0
 11 12  1  0
 12 13  1  0
 12 14  1  0
 12 15  1  0
 11 16  1  0
 16 17  2  0
 17 18  1  0
 18 19  2  0
 19 20  1  0
 20 21  2  0
 21 22  1  0
 19 23  1  0
 18 24  1  0
 17 25  1  0
 11 26  1  1
 10 27  1  0
 10 28  1  0
  7 29  1  0
  6 30  1  0
  6 31  1  0
  3 32  1  0
  2 33  1  0
  2 34  1  0
  1 35  1  0
  1 36  1  0
  1 37  1  0
 21 16  1  0
M  CHG  1  12   1
M  END
>  <cnnaffinity>  (1) 
4.33941

>  <plip>  (1) 
-0.10344827586206896

>  <filename>  (1) 
[H][c]1[n][c]([H])[c]([C@@]([H])([C]([H])([H])[C](=[O])[N]([H])[C]([H])([H])[C](=[O])[N]([H])[C]([H])([H])[C]([H])([H])[H])[N+]([H])([H])[H])[c]([H])[c]1[H]

>  <combo1>  (1) 
-0.595419313143953

$$$$
