
     RDKit          3D

 22 23  0  0  0  0  0  0  0  0999 V2000
    4.9042    1.7736   17.0040 H   0  0  0  0  0  0  0  0  0  0  0  0
    5.3978    1.2943   17.8445 C   0  0  0  0  0  0  0  0  0  0  0  0
    6.5705    0.6816   17.5853 N   0  0  0  0  0  0  0  0  0  0  0  0
    7.1796    0.0584   18.5996 C   0  0  0  0  0  0  0  0  0  0  0  0
    8.1292   -0.4390   18.3870 H   0  0  0  0  0  0  0  0  0  0  0  0
    6.6706    0.0127   19.9209 C   0  0  0  0  0  0  0  0  0  0  0  0
    7.3605   -0.7375   20.8997 N   0  0  0  0  0  0  0  0  0  0  0  0
    7.6444   -0.2891   22.0646 C   0  0  0  0  0  0  0  0  0  0  0  0
    8.2762   -1.2479   23.0059 C   0  0  0  0  0  0  0  0  0  0  0  0
    8.6241   -1.0196   24.2518 N   0  0  0  0  0  0  0  0  0  0  0  0
    9.1486   -2.1700   24.7141 N   0  0  0  0  0  0  0  0  0  0  0  0
    9.1387   -3.0825   23.8074 N   0  0  0  0  0  0  0  0  0  0  0  0
    8.5963   -2.5276   22.7237 N   0  0  0  0  0  0  0  0  0  0  0  0
    8.4644   -3.0247   21.8565 H   0  0  0  0  0  0  0  0  0  0  0  0
    7.4135    1.1132   22.5515 C   0  0  0  0  0  0  0  0  0  0  0  0
    8.1655    1.3990   23.2895 H   0  0  0  0  0  0  0  0  0  0  0  0
    6.4294    1.1710   23.0259 H   0  0  0  0  0  0  0  0  0  0  0  0
    7.4553    1.8124   21.7165 H   0  0  0  0  0  0  0  0  0  0  0  0
    5.4448    0.6480   20.1607 C   0  0  0  0  0  0  0  0  0  0  0  0
    5.0141    0.6229   21.1575 H   0  0  0  0  0  0  0  0  0  0  0  0
    4.8048    1.3105   19.1088 C   0  0  0  0  0  0  0  0  0  0  0  0
    3.8714    1.8452   19.2686 H   0  0  0  0  0  0  0  0  0  0  0  0
  1  2  1  0
  2  3  2  0
  3  4  1  0
  4  5  1  0
  4  6  2  0
  6  7  1  0
  7  8  2  3
  8  9  1  0
  9 10  2  0
 10 11  1  0
 11 12  2  0
 12 13  1  0
 13 14  1  0
  8 15  1  0
 15 16  1  0
 15 17  1  0
 15 18  1  0
  6 19  1  0
 19 20  1  0
 19 21  2  0
 21 22  1  0
 21  2  1  0
 13  9  1  0
M  END
>  <cnnaffinity>  (1) 
4.27773

>  <plip>  (1) 
-0.03571428571428571

>  <filename>  (1) 
[H][c]1[n][c]([H])[c]([N]=[C]([c]2[n][n][n][n]2[H])[C]([H])([H])[H])[c]([H])[c]1[H]

>  <combo1>  (1) 
-0.27060032276723556

$$$$
