
     RDKit          3D

 33 35  0  0  0  0  0  0  0  0999 V2000
    4.9626    1.7751   16.9886 H   0  0  0  0  0  0  0  0  0  0  0  0
    5.4257    1.2831   17.8392 C   0  0  0  0  0  0  0  0  0  0  0  0
    6.5947    0.6741   17.6015 N   0  0  0  0  0  0  0  0  0  0  0  0
    7.1957    0.0852   18.6447 C   0  0  0  0  0  0  0  0  0  0  0  0
    8.1621   -0.3764   18.4303 H   0  0  0  0  0  0  0  0  0  0  0  0
    6.6619    0.0302   19.9425 C   0  0  0  0  0  0  0  0  0  0  0  0
    7.4383   -0.6309   21.0652 C   0  0  0  0  0  0  0  0  0  0  0  0
    8.2481   -1.2552   20.6664 H   0  0  0  0  0  0  0  0  0  0  0  0
    6.8009   -1.2984   21.6570 H   0  0  0  0  0  0  0  0  0  0  0  0
    8.0099    0.3527   21.9767 N   0  0  0  0  0  0  0  0  0  0  0  0
    7.3356    0.9194   22.4792 H   0  0  0  0  0  0  0  0  0  0  0  0
    8.9923    1.1764   21.4888 C   0  0  0  0  0  0  0  0  0  0  0  0
    9.6493    0.9179   20.4902 O   0  0  0  0  0  0  0  0  0  0  0  0
    9.3054    2.3841   22.3054 C   0  0  0  0  0  0  0  0  0  0  0  0
   10.6220    2.7476   22.5485 C   0  0  0  0  0  0  0  0  0  0  0  0
   11.4295    2.1113   22.1827 H   0  0  0  0  0  0  0  0  0  0  0  0
   10.9263    3.9330   23.2570 C   0  0  0  0  0  0  0  0  0  0  0  0
   11.9716    4.1853   23.4355 H   0  0  0  0  0  0  0  0  0  0  0  0
    9.9137    4.7646   23.6902 C   0  0  0  0  0  0  0  0  0  0  0  0
   10.1476    5.6941   24.2033 H   0  0  0  0  0  0  0  0  0  0  0  0
    8.5479    4.4428   23.4349 C   0  0  0  0  0  0  0  0  0  0  0  0
    7.4526    5.2877   23.7988 C   0  0  0  0  0  0  0  0  0  0  0  0
    7.6493    6.2232   24.3243 H   0  0  0  0  0  0  0  0  0  0  0  0
    6.1766    4.9161   23.4440 C   0  0  0  0  0  0  0  0  0  0  0  0
    5.3171    5.5356   23.6725 H   0  0  0  0  0  0  0  0  0  0  0  0
    5.9781    3.6857   22.7633 C   0  0  0  0  0  0  0  0  0  0  0  0
    4.9654    3.4154   22.4604 H   0  0  0  0  0  0  0  0  0  0  0  0
    6.9413    2.8328   22.4898 N   0  0  0  0  0  0  0  0  0  0  0  0
    8.2383    3.2195   22.7456 C   0  0  0  0  0  0  0  0  0  0  0  0
    5.4365    0.6779   20.1647 C   0  0  0  0  0  0  0  0  0  0  0  0
    4.9892    0.6955   21.1609 H   0  0  0  0  0  0  0  0  0  0  0  0
    4.8078    1.3101   19.0913 C   0  0  0  0  0  0  0  0  0  0  0  0
    3.8651    1.8300   19.2122 H   0  0  0  0  0  0  0  0  0  0  0  0
  1  2  1  0
  2  3  2  0
  3  4  1  0
  4  5  1  0
  4  6  2  0
  6  7  1  0
  7  8  1  0
  7  9  1  0
  7 10  1  0
 10 11  1  0
 10 12  1  0
 12 13  2  0
 12 14  1  0
 14 15  2  0
 15 16  1  0
 15 17  1  0
 17 18  1  0
 17 19  2  0
 19 20  1  0
 19 21  1  0
 21 22  2  0
 22 23  1  0
 22 24  1  0
 24 25  1  0
 24 26  2  0
 26 27  1  0
 26 28  1  0
 28 29  2  0
  6 30  1  0
 30 31  1  0
 30 32  2  0
 32 33  1  0
 32  2  1  0
 29 14  1  0
 29 21  1  0
M  END
>  <cnnaffinity>  (1) 
4.95255

>  <plip>  (1) 
-0.07142857142857142

>  <filename>  (1) 
[H][c]1[n][c]([H])[c]([C]([H])([H])[N]([H])[C](=[O])[c]2[c]([H])[c]([H])[c]([H])[c]3[c]([H])[c]([H])[c]([H])[n][c]23)[c]([H])[c]1[H]

>  <combo1>  (1) 
-0.4478460202918994

$$$$
