
     RDKit          3D

 29 31  0  0  0  0  0  0  0  0999 V2000
    5.1574   -2.9242   26.3996 H   0  0  0  0  0  0  0  0  0  0  0  0
    4.5358   -2.1894   26.3188 O   0  0  0  0  0  0  0  0  0  0  0  0
    5.1756   -1.2142   25.6221 C   0  0  0  0  0  0  0  0  0  0  0  0
    6.5270   -1.3327   25.2979 C   0  0  0  0  0  0  0  0  0  0  0  0
    7.0722   -2.2011   25.6513 H   0  0  0  0  0  0  0  0  0  0  0  0
    7.1812   -0.3556   24.5347 C   0  0  0  0  0  0  0  0  0  0  0  0
    8.2503   -0.4074   24.3632 H   0  0  0  0  0  0  0  0  0  0  0  0
    6.4344    0.7113   24.0379 C   0  0  0  0  0  0  0  0  0  0  0  0
    6.9181    1.7193   23.1776 O   0  0  0  0  0  0  0  0  0  0  0  0
    8.0987    1.5202   22.5322 N   0  0  0  0  0  0  0  0  0  0  0  0
    9.0252    2.4879   22.5866 N   0  0  0  0  0  0  0  0  0  0  0  0
    9.9603    2.1127   21.7939 N   0  0  0  0  0  0  0  0  0  0  0  0
    9.6685    0.9382   21.1902 N   0  0  0  0  0  0  0  0  0  0  0  0
    8.4870    0.5774   21.6430 C   0  0  0  0  0  0  0  0  0  0  0  0
    7.5525   -0.8262   21.1068 S   0  0  0  0  0  0  0  0  0  0  0  0
    6.6180   -0.0528   19.7815 C   0  0  0  0  0  0  0  0  0  0  0  0
    7.1100   -0.0107   18.4632 C   0  0  0  0  0  0  0  0  0  0  0  0
    8.0429   -0.5136   18.2040 H   0  0  0  0  0  0  0  0  0  0  0  0
    6.4941    0.6518   17.4762 N   0  0  0  0  0  0  0  0  0  0  0  0
    5.3589    1.3075   17.7699 C   0  0  0  0  0  0  0  0  0  0  0  0
    4.9033    1.8723   16.9580 H   0  0  0  0  0  0  0  0  0  0  0  0
    4.7797    1.2995   19.0399 C   0  0  0  0  0  0  0  0  0  0  0  0
    3.8642    1.8511   19.2167 H   0  0  0  0  0  0  0  0  0  0  0  0
    5.4171    0.6065   20.0665 C   0  0  0  0  0  0  0  0  0  0  0  0
    5.0183    0.5959   21.0827 H   0  0  0  0  0  0  0  0  0  0  0  0
    5.0979    0.8720   24.4126 C   0  0  0  0  0  0  0  0  0  0  0  0
    4.5872    1.7550   24.0413 H   0  0  0  0  0  0  0  0  0  0  0  0
    4.4630   -0.0771   25.2162 C   0  0  0  0  0  0  0  0  0  0  0  0
    3.4206    0.0238   25.4951 H   0  0  0  0  0  0  0  0  0  0  0  0
  1  2  1  0
  2  3  1  0
  3  4  2  0
  4  5  1  0
  4  6  1  0
  6  7  1  0
  6  8  2  0
  8  9  1  0
  9 10  1  0
 10 11  1  0
 11 12  2  0
 12 13  1  0
 13 14  2  0
 14 15  1  0
 15 16  1  0
 16 17  2  0
 17 18  1  0
 17 19  1  0
 19 20  2  0
 20 21  1  0
 20 22  1  0
 22 23  1  0
 22 24  2  0
 24 25  1  0
  8 26  1  0
 26 27  1  0
 26 28  2  0
 28 29  1  0
 28  3  1  0
 14 10  1  0
 24 16  1  0
M  END
>  <cnnaffinity>  (1) 
4.6021

>  <plip>  (1) 
-0.07142857142857142

>  <filename>  (1) 
[H][O][c]1[c]([H])[c]([H])[c]([O][n]2[n][n][n][c]2[S][c]2[c]([H])[n][c]([H])[c]([H])[c]2[H])[c]([H])[c]1[H]

>  <combo1>  (1) 
-0.38138629996035384

$$$$
