
     RDKit          3D

 36 38  0  0  0  0  0  0  0  0999 V2000
    6.6787   -3.6305   22.8307 H   0  0  0  0  0  0  0  0  0  0  0  0
    7.0479   -2.6202   22.6431 C   0  0  0  0  0  0  0  0  0  0  0  0
    7.8804   -2.0465   23.5176 C   0  0  0  0  0  0  0  0  0  0  0  0
    8.2543   -2.7595   24.7604 C   0  0  0  0  0  0  0  0  0  0  0  0
    9.5922   -2.9420   25.1008 C   0  0  0  0  0  0  0  0  0  0  0  0
   10.3610   -2.4755   24.4890 H   0  0  0  0  0  0  0  0  0  0  0  0
   10.0279   -3.6797   26.1265 N   0  0  0  0  0  0  0  0  0  0  0  0
    9.1045   -4.2427   26.8899 C   0  0  0  0  0  0  0  0  0  0  0  0
    9.6431   -4.9975   27.8994 N   0  0  0  0  0  0  0  0  0  0  0  0
    9.2070   -4.8050   28.7834 H   0  0  0  0  0  0  0  0  0  0  0  0
   10.6261   -4.7534   27.8852 H   0  0  0  0  0  0  0  0  0  0  0  0
    7.7222   -4.1241   26.6856 C   0  0  0  0  0  0  0  0  0  0  0  0
    7.0492   -4.6982   27.3094 H   0  0  0  0  0  0  0  0  0  0  0  0
    7.2968   -3.3687   25.6003 C   0  0  0  0  0  0  0  0  0  0  0  0
    6.2378   -3.2392   25.3816 H   0  0  0  0  0  0  0  0  0  0  0  0
    8.5361   -0.6965   23.2414 C   0  0  0  0  0  0  0  0  0  0  0  0
    8.6575   -0.1420   24.1785 H   0  0  0  0  0  0  0  0  0  0  0  0
    9.5542   -0.8854   22.8664 H   0  0  0  0  0  0  0  0  0  0  0  0
    7.7512    0.1369   22.2133 C   0  0  0  0  0  0  0  0  0  0  0  0
    8.3364    1.0197   21.9308 H   0  0  0  0  0  0  0  0  0  0  0  0
    6.8270    0.5116   22.6742 H   0  0  0  0  0  0  0  0  0  0  0  0
    7.4092   -0.7157   20.9712 C   0  0  2  0  0  0  0  0  0  0  0  0
    8.3700   -1.0758   20.5706 H   0  0  0  0  0  0  0  0  0  0  0  0
    6.6881    0.0459   19.8669 C   0  0  0  0  0  0  0  0  0  0  0  0
    7.1780    0.0764   18.5469 C   0  0  0  0  0  0  0  0  0  0  0  0
    8.1099   -0.4352   18.3026 H   0  0  0  0  0  0  0  0  0  0  0  0
    6.5746    0.6916   17.5208 N   0  0  0  0  0  0  0  0  0  0  0  0
    5.4182    1.3205   17.7758 C   0  0  0  0  0  0  0  0  0  0  0  0
    4.9473    1.8245   16.9337 H   0  0  0  0  0  0  0  0  0  0  0  0
    4.8207    1.3417   19.0392 C   0  0  0  0  0  0  0  0  0  0  0  0
    3.8770    1.8567   19.1811 H   0  0  0  0  0  0  0  0  0  0  0  0
    5.4638    0.6942   20.0961 C   0  0  0  0  0  0  0  0  0  0  0  0
    5.0125    0.6855   21.0910 H   0  0  0  0  0  0  0  0  0  0  0  0
    6.5758   -1.9569   21.3812 C   0  0  0  0  0  0  0  0  0  0  0  0
    6.5659   -2.6918   20.5693 H   0  0  0  0  0  0  0  0  0  0  0  0
    5.5264   -1.6685   21.5264 H   0  0  0  0  0  0  0  0  0  0  0  0
  1  2  1  0
  2  3  2  0
  3  4  1  0
  4  5  2  0
  5  6  1  0
  5  7  1  0
  7  8  2  0
  8  9  1  0
  9 10  1  0
  9 11  1  0
  8 12  1  0
 12 13  1  0
 12 14  2  0
 14 15  1  0
  3 16  1  0
 16 17  1  0
 16 18  1  0
 16 19  1  0
 19 20  1  0
 19 21  1  0
 19 22  1  0
 22 23  1  6
 22 24  1  0
 24 25  2  0
 25 26  1  0
 25 27  1  0
 27 28  2  0
 28 29  1  0
 28 30  1  0
 30 31  1  0
 30 32  2  0
 32 33  1  0
 22 34  1  0
 34 35  1  0
 34 36  1  0
 34  2  1  0
 14  4  1  0
 32 24  1  0
M  END
>  <cnnaffinity>  (1) 
5.14828

>  <plip>  (1) 
-0.034482758620689655

>  <filename>  (1) 
[H][C]1=[C]([c]2[c]([H])[n][c]([N]([H])[H])[c]([H])[c]2[H])[C]([H])([H])[C]([H])([H])[C@]([H])([c]2[c]([H])[n][c]([H])[c]([H])[c]2[H])[C]1([H])[H]

>  <combo1>  (1) 
-0.23544712466690818

$$$$
