
     RDKit          3D

 33 34  0  0  0  0  0  0  0  0999 V2000
    4.9837    1.7990   16.9621 H   0  0  0  0  0  0  0  0  0  0  0  0
    5.4138    1.2815   17.8156 C   0  0  0  0  0  0  0  0  0  0  0  0
    6.5689    0.6372   17.5908 N   0  0  0  0  0  0  0  0  0  0  0  0
    7.1412    0.0223   18.6276 C   0  0  0  0  0  0  0  0  0  0  0  0
    8.0841   -0.4860   18.4280 H   0  0  0  0  0  0  0  0  0  0  0  0
    6.6193    0.0388   19.9222 C   0  0  0  0  0  0  0  0  0  0  0  0
    7.4399   -0.6197   20.9511 C   0  0  0  0  0  0  0  0  0  0  0  0
    7.7740   -0.2010   22.1084 N   0  0  0  0  0  0  0  0  0  0  0  0
    7.4096    1.0758   22.5328 N   0  0  0  0  0  0  0  0  0  0  0  0
    7.2399    1.8201   21.8718 H   0  0  0  0  0  0  0  0  0  0  0  0
    7.3709    1.4889   23.8530 C   0  0  0  0  0  0  0  0  0  0  0  0
    7.6571    0.8234   24.8196 O   0  0  0  0  0  0  0  0  0  0  0  0
    6.9155    2.9523   23.9633 C   0  0  0  0  0  0  0  0  0  0  0  0
    7.5880    3.5862   23.3728 H   0  0  0  0  0  0  0  0  0  0  0  0
    7.0785    3.2060   25.0139 H   0  0  0  0  0  0  0  0  0  0  0  0
    5.4705    3.1796   23.5546 C   0  0  0  0  0  0  0  0  0  0  0  0
    4.4400    2.8011   24.4285 C   0  0  0  0  0  0  0  0  0  0  0  0
    4.7018    2.4101   25.4102 H   0  0  0  0  0  0  0  0  0  0  0  0
    3.0987    2.9352   24.0572 C   0  0  0  0  0  0  0  0  0  0  0  0
    2.3143    2.6405   24.7502 H   0  0  0  0  0  0  0  0  0  0  0  0
    2.7679    3.4571   22.8016 C   0  0  0  0  0  0  0  0  0  0  0  0
    1.7246    3.5591   22.5115 H   0  0  0  0  0  0  0  0  0  0  0  0
    3.7861    3.8491   21.9253 C   0  0  0  0  0  0  0  0  0  0  0  0
    3.5434    4.2606   20.9451 H   0  0  0  0  0  0  0  0  0  0  0  0
    5.1286    3.7121   22.3007 C   0  0  0  0  0  0  0  0  0  0  0  0
    5.9033    4.0642   21.6204 H   0  0  0  0  0  0  0  0  0  0  0  0
    7.9551   -1.8576   20.6123 N   0  0  0  0  0  0  0  0  0  0  0  0
    8.1515   -2.3117   21.4976 H   0  0  0  0  0  0  0  0  0  0  0  0
    7.3282   -2.3860   20.0244 H   0  0  0  0  0  0  0  0  0  0  0  0
    5.3931    0.6870   20.1485 C   0  0  0  0  0  0  0  0  0  0  0  0
    4.9241    0.6881   21.1358 H   0  0  0  0  0  0  0  0  0  0  0  0
    4.7862    1.3168   19.0652 C   0  0  0  0  0  0  0  0  0  0  0  0
    3.8518    1.8530   19.1746 H   0  0  0  0  0  0  0  0  0  0  0  0
  1  2  1  0
  2  3  2  0
  3  4  1  0
  4  5  1  0
  4  6  2  0
  6  7  1  0
  7  8  2  3
  8  9  1  0
  9 10  1  0
  9 11  1  0
 11 12  2  0
 11 13  1  0
 13 14  1  0
 13 15  1  0
 13 16  1  0
 16 17  2  0
 17 18  1  0
 17 19  1  0
 19 20  1  0
 19 21  2  0
 21 22  1  0
 21 23  1  0
 23 24  1  0
 23 25  2  0
 25 26  1  0
  7 27  1  0
 27 28  1  0
 27 29  1  0
  6 30  1  0
 30 31  1  0
 30 32  2  0
 32 33  1  0
 32  2  1  0
 25 16  1  0
M  END
>  <cnnaffinity>  (1) 
4.33072

>  <plip>  (1) 
-0.0

>  <filename>  (1) 
[H][c]1[n][c]([H])[c]([C](=[N][N]([H])[C](=[O])[C]([H])([H])[c]2[c]([H])[c]([H])[c]([H])[c]([H])[c]2[H])[N]([H])[H])[c]([H])[c]1[H]

>  <combo1>  (1) 
-5.676811132564927e-06

$$$$
