
     RDKit          3D

 36 38  0  0  0  0  0  0  0  0999 V2000
    4.8126    1.3125   19.0748 C   0  0  0  0  0  0  0  0  0  0  0  0
    5.4144    1.2608   17.8145 C   0  0  0  0  0  0  0  0  0  0  0  0
    6.5501    0.5906   17.5716 N   0  0  0  0  0  0  0  0  0  0  0  0
    7.1354   -0.0213   18.6055 C   0  0  0  0  0  0  0  0  0  0  0  0
    6.6529    0.0075   19.9197 C   0  0  0  0  0  0  0  0  0  0  0  0
    7.4481   -0.6513   21.0086 C   0  0  0  0  0  0  0  0  0  0  0  0
    7.0037   -2.0923   21.0434 N   0  0  0  0  0  4  0  0  0  0  0  0
    7.7385   -3.0196   21.9523 C   0  0  0  0  0  0  0  0  0  0  0  0
    7.7989   -2.5830   23.4320 C   0  0  0  0  0  0  0  0  0  0  0  0
    6.4700   -2.2284   24.1010 C   0  0  0  0  0  0  0  0  0  0  0  0
    5.3132   -3.6285   24.0104 S   0  0  0  0  0  0  0  0  0  0  0  0
    6.3841   -4.7797   24.8535 C   0  0  0  0  0  0  0  0  0  0  0  0
    5.8405   -5.8112   25.6422 C   0  0  0  0  0  0  0  0  0  0  0  0
    6.6634   -6.5792   26.4691 C   0  0  0  0  0  0  0  0  0  0  0  0
    8.0476   -6.3578   26.4741 C   0  0  0  0  0  0  0  0  0  0  0  0
    8.6070   -5.3914   25.6451 C   0  0  0  0  0  0  0  0  0  0  0  0
    7.7887   -4.5990   24.8306 C   0  0  0  0  0  0  0  0  0  0  0  0
    8.4630   -3.6513   24.1078 O   0  0  0  0  0  0  0  0  0  0  0  0
    9.6749   -5.1916   25.6103 H   0  0  0  0  0  0  0  0  0  0  0  0
    8.7014   -6.9333   27.1237 H   0  0  0  0  0  0  0  0  0  0  0  0
    6.2404   -7.3314   27.1345 H   0  0  0  0  0  0  0  0  0  0  0  0
    4.7654   -6.0012   25.6380 H   0  0  0  0  0  0  0  0  0  0  0  0
    6.6424   -2.0183   25.1641 H   0  0  0  0  0  0  0  0  0  0  0  0
    6.0215   -1.3456   23.6528 H   0  0  0  0  0  0  0  0  0  0  0  0
    8.4747   -1.7228   23.5298 H   0  0  0  0  0  0  0  0  0  0  0  0
    8.7762   -3.1555   21.6280 H   0  0  0  0  0  0  0  0  0  0  0  0
    7.2494   -3.9962   21.9419 H   0  0  0  0  0  0  0  0  0  0  0  0
    7.0286   -2.4077   20.0481 H   0  0  0  0  0  0  0  0  0  0  0  0
    5.9909   -2.0789   21.3218 H   0  0  0  0  0  0  0  0  0  0  0  0
    7.2657   -0.1675   21.9711 H   0  0  0  0  0  0  0  0  0  0  0  0
    8.5230   -0.5842   20.8072 H   0  0  0  0  0  0  0  0  0  0  0  0
    5.4405    0.6720   20.1457 C   0  0  0  0  0  0  0  0  0  0  0  0
    4.9875    0.6948   21.1420 H   0  0  0  0  0  0  0  0  0  0  0  0
    8.0658   -0.5481   18.3727 H   0  0  0  0  0  0  0  0  0  0  0  0
    4.9649    1.7715   16.9603 H   0  0  0  0  0  0  0  0  0  0  0  0
    3.8839    1.8586   19.1968 H   0  0  0  0  0  0  0  0  0  0  0  0
  1  2  2  0
  2  3  1  0
  3  4  2  0
  4  5  1  0
  5  6  1  0
  6  7  1  0
  7  8  1  0
  8  9  1  0
  9 10  1  0
 10 11  1  0
 11 12  1  0
 12 13  2  0
 13 14  1  0
 14 15  2  0
 15 16  1  0
 16 17  2  0
 17 18  1  0
 16 19  1  0
 15 20  1  0
 14 21  1  0
 13 22  1  0
 10 23  1  0
 10 24  1  0
  9 25  1  0
  8 26  1  0
  8 27  1  0
  7 28  1  0
  7 29  1  0
  6 30  1  0
  6 31  1  0
  5 32  2  0
 32 33  1  0
  4 34  1  0
  2 35  1  0
  1 36  1  0
 32  1  1  0
 18  9  1  0
 17 12  1  0
M  CHG  1   7   1
M  END
>  <cnnaffinity>  (1) 
4.62594

>  <plip>  (1) 
-0.14285714285714285

>  <filename>  (1) 
[H][c]1[n][c]([H])[c]([C]([H])([H])[N+]([H])([H])[C]([H])([H])[C]2([H])[O][c]3[c]([H])[c]([H])[c]([H])[c]([H])[c]3[S][C]2([H])[H])[c]([H])[c]1[H]

>  <combo1>  (1) 
-0.80577237314538

$$$$
