
     RDKit          3D

 33 36  0  0  0  0  0  0  0  0999 V2000
    4.9209    1.8017   16.9782 H   0  0  0  0  0  0  0  0  0  0  0  0
    5.3826    1.3005   17.8263 C   0  0  0  0  0  0  0  0  0  0  0  0
    6.5406    0.6728   17.5650 N   0  0  0  0  0  0  0  0  0  0  0  0
    7.1479    0.0540   18.5803 C   0  0  0  0  0  0  0  0  0  0  0  0
    8.1116   -0.4101   18.3864 H   0  0  0  0  0  0  0  0  0  0  0  0
    6.6273   -0.0003   19.8865 C   0  0  0  0  0  0  0  0  0  0  0  0
    7.3584   -0.6766   20.8891 N   0  0  0  0  0  0  0  0  0  0  0  0
    8.7631   -0.6541   21.1223 C   0  0  0  0  0  0  0  0  0  0  0  0
    9.5838   -0.0459   20.4544 O   0  0  0  0  0  0  0  0  0  0  0  0
    8.9281   -1.4882   22.2861 C   0  0  0  0  0  0  0  0  0  0  0  0
    9.8854   -1.6686   22.7365 H   0  0  0  0  0  0  0  0  0  0  0  0
    7.7121   -1.9262   22.7072 C   0  0  0  0  0  0  0  0  0  0  0  0
    7.3888   -2.8113   23.8499 C   0  0  0  0  0  0  0  0  0  0  0  0
    6.0880   -2.8509   24.4293 C   0  0  0  0  0  0  0  0  0  0  0  0
    5.3087   -2.2201   24.0376 H   0  0  0  0  0  0  0  0  0  0  0  0
    5.7869   -3.6555   25.5138 C   0  0  0  0  0  0  0  0  0  0  0  0
    4.7824   -3.6673   25.9356 H   0  0  0  0  0  0  0  0  0  0  0  0
    6.8049   -4.4630   26.0658 C   0  0  0  0  0  0  0  0  0  0  0  0
    6.8693   -5.3963   27.1549 C   0  0  0  0  0  0  0  0  0  0  0  0
    6.0424   -5.6620   27.7963 H   0  0  0  0  0  0  0  0  0  0  0  0
    8.1496   -5.8667   27.2075 C   0  0  0  0  0  0  0  0  0  0  0  0
    8.6023   -6.5843   27.8774 H   0  0  0  0  0  0  0  0  0  0  0  0
    8.8948   -5.2773   26.2065 N   0  0  0  0  0  0  0  0  0  0  0  0
    9.8676   -5.4332   26.0084 H   0  0  0  0  0  0  0  0  0  0  0  0
    8.1009   -4.4165   25.4889 C   0  0  0  0  0  0  0  0  0  0  0  0
    8.4039   -3.6049   24.3889 C   0  0  0  0  0  0  0  0  0  0  0  0
    9.3975   -3.5769   23.9479 H   0  0  0  0  0  0  0  0  0  0  0  0
    6.7576   -1.3940   21.8999 N   0  0  0  0  0  0  0  0  0  0  0  0
    5.7757   -1.6121   21.8892 H   0  0  0  0  0  0  0  0  0  0  0  0
    5.4159    0.6517   20.1527 C   0  0  0  0  0  0  0  0  0  0  0  0
    5.0130    0.6482   21.1653 H   0  0  0  0  0  0  0  0  0  0  0  0
    4.7928    1.3179   19.0964 C   0  0  0  0  0  0  0  0  0  0  0  0
    3.8652    1.8528   19.2455 H   0  0  0  0  0  0  0  0  0  0  0  0
  1  2  1  0
  2  3  2  0
  3  4  1  0
  4  5  1  0
  4  6  2  0
  6  7  1  0
  7  8  1  0
  8  9  2  0
  8 10  1  0
 10 11  1  0
 10 12  2  0
 12 13  1  0
 13 14  2  0
 14 15  1  0
 14 16  1  0
 16 17  1  0
 16 18  2  0
 18 19  1  0
 19 20  1  0
 19 21  2  0
 21 22  1  0
 21 23  1  0
 23 24  1  0
 23 25  1  0
 25 26  2  0
 26 27  1  0
 12 28  1  0
 28 29  1  0
  6 30  1  0
 30 31  1  0
 30 32  2  0
 32 33  1  0
 32  2  1  0
 28  7  1  0
 26 13  1  0
 25 18  1  0
M  END
>  <cnnaffinity>  (1) 
5.25022

>  <plip>  (1) 
-0.10714285714285714

>  <filename>  (1) 
[H][c]1[n][c]([H])[c](-[n]2[c](=[O])[c]([H])[c](-[c]3[c]([H])[c]([H])[c]4[c]([H])[c]([H])[n]([H])[c]4[c]3[H])[n]2[H])[c]([H])[c]1[H]

>  <combo1>  (1) 
-0.6786410994714318

$$$$
