
     RDKit          3D

 43 45  0  0  0  0  0  0  0  0999 V2000
    9.8049   -0.2256   23.1353 H   0  0  0  0  0  0  0  0  0  0  0  0
    8.9758   -0.6086   22.5366 C   0  0  0  0  0  0  0  0  0  0  0  0
    8.5217   -1.8496   22.7540 C   0  0  0  0  0  0  0  0  0  0  0  0
    9.0554   -2.7531   23.8423 C   0  0  0  0  0  0  0  0  0  0  0  0
    9.4642   -3.6551   23.3636 H   0  0  0  0  0  0  0  0  0  0  0  0
    9.8891   -2.2650   24.3811 H   0  0  0  0  0  0  0  0  0  0  0  0
    7.9767   -3.1549   24.7428 N   0  0  0  0  0  0  0  0  0  0  0  0
    7.5927   -2.3425   25.2132 H   0  0  0  0  0  0  0  0  0  0  0  0
    8.2047   -4.2690   25.6634 C   0  0  0  0  0  0  0  0  0  0  0  0
    7.4677   -4.1320   26.4567 H   0  0  0  0  0  0  0  0  0  0  0  0
    7.9443   -5.6222   24.9541 C   0  0  0  0  0  0  0  0  0  0  0  0
    7.1991   -6.2020   25.5086 H   0  0  0  0  0  0  0  0  0  0  0  0
    7.5177   -5.4225   23.9689 H   0  0  0  0  0  0  0  0  0  0  0  0
    9.2837   -6.3847   24.8871 C   0  0  0  0  0  0  0  0  0  0  0  0
    9.4752   -6.8313   23.9048 H   0  0  0  0  0  0  0  0  0  0  0  0
    9.2574   -7.2066   25.6066 H   0  0  0  0  0  0  0  0  0  0  0  0
   10.3686   -5.4089   25.3593 C   0  0  0  0  0  0  0  0  0  0  0  0
   10.8449   -4.8677   24.5360 H   0  0  0  0  0  0  0  0  0  0  0  0
   11.1767   -5.9374   25.8663 H   0  0  0  0  0  0  0  0  0  0  0  0
    9.6106   -4.4600   26.2976 C   0  0  0  0  0  0  0  0  0  0  0  0
    9.4775   -4.9566   27.2691 H   0  0  0  0  0  0  0  0  0  0  0  0
   10.1452   -3.5260   26.4871 H   0  0  0  0  0  0  0  0  0  0  0  0
    7.4082   -2.4648   21.9232 C   0  0  0  0  0  0  0  0  0  0  0  0
    6.5416   -2.6121   22.5828 H   0  0  0  0  0  0  0  0  0  0  0  0
    7.6973   -3.4750   21.5977 H   0  0  0  0  0  0  0  0  0  0  0  0
    7.0416   -1.6232   20.7004 C   0  0  0  0  0  0  0  0  0  0  0  0
    7.8098   -1.7613   19.9300 H   0  0  0  0  0  0  0  0  0  0  0  0
    6.0981   -1.9563   20.2575 H   0  0  0  0  0  0  0  0  0  0  0  0
    6.9931   -0.1171   21.0130 C   0  0  2  0  0  0  0  0  0  0  0  0
    6.3060    0.0548   21.8561 H   0  0  0  0  0  0  0  0  0  0  0  0
    6.4573    0.6327   19.8041 C   0  0  0  0  0  0  0  0  0  0  0  0
    7.1285    0.5931   18.5673 C   0  0  0  0  0  0  0  0  0  0  0  0
    8.0952    0.0854   18.4890 H   0  0  0  0  0  0  0  0  0  0  0  0
    6.6668    1.1206   17.4263 N   0  0  0  0  0  0  0  0  0  0  0  0
    5.4821    1.7469   17.4799 C   0  0  0  0  0  0  0  0  0  0  0  0
    5.1259    2.1758   16.5448 H   0  0  0  0  0  0  0  0  0  0  0  0
    4.7193    1.8569   18.6490 C   0  0  0  0  0  0  0  0  0  0  0  0
    3.7713    2.3810   18.6232 H   0  0  0  0  0  0  0  0  0  0  0  0
    5.2152    1.2873   19.8279 C   0  0  0  0  0  0  0  0  0  0  0  0
    4.6429    1.3425   20.7573 H   0  0  0  0  0  0  0  0  0  0  0  0
    8.4015    0.3220   21.4840 C   0  0  0  0  0  0  0  0  0  0  0  0
    9.0882    0.3501   20.6263 H   0  0  0  0  0  0  0  0  0  0  0  0
    8.3789    1.3500   21.8631 H   0  0  0  0  0  0  0  0  0  0  0  0
  1  2  1  0
  2  3  2  0
  3  4  1  0
  4  5  1  0
  4  6  1  0
  4  7  1  0
  7  8  1  0
  7  9  1  0
  9 10  1  0
  9 11  1  0
 11 12  1  0
 11 13  1  0
 11 14  1  0
 14 15  1  0
 14 16  1  0
 14 17  1  0
 17 18  1  0
 17 19  1  0
 17 20  1  0
 20 21  1  0
 20 22  1  0
  3 23  1  0
 23 24  1  0
 23 25  1  0
 23 26  1  0
 26 27  1  0
 26 28  1  0
 26 29  1  0
 29 30  1  1
 29 31  1  0
 31 32  2  0
 32 33  1  0
 32 34  1  0
 34 35  2  0
 35 36  1  0
 35 37  1  0
 37 38  1  0
 37 39  2  0
 39 40  1  0
 29 41  1  0
 41 42  1  0
 41 43  1  0
 41  2  1  0
 20  9  1  0
 39 31  1  0
M  END
>  <cnnaffinity>  (1) 
4.93082

>  <plip>  (1) 
-0.10714285714285714

>  <filename>  (1) 
[H][C]1=[C]([C]([H])([H])[N]([H])[C]2([H])[C]([H])([H])[C]([H])([H])[C]([H])([H])[C]2([H])[H])[C]([H])([H])[C]([H])([H])[C@]([H])([c]2[c]([H])[n][c]([H])[c]([H])[c]2[H])[C]1([H])[H]

>  <combo1>  (1) 
-0.6868390099796572

$$$$
