
     RDKit          3D

 55 58  0  0  0  0  0  0  0  0999 V2000
    8.7524    2.6461   22.1400 C   0  0  0  0  0  0  0  0  0  0  0  0
    7.9040    1.4114   22.4201 C   0  0  0  0  0  0  0  0  0  0  0  0
    8.5163    0.2805   21.5480 N   0  0  0  0  0  4  0  0  0  0  0  0
    7.5739   -0.7322   20.9780 C   0  0  0  0  0  0  0  0  0  0  0  0
    6.7597    0.0085   19.9188 C   0  0  0  0  0  0  0  0  0  0  0  0
    5.5414    0.6634   20.1613 C   0  0  0  0  0  0  0  0  0  0  0  0
    4.9047    1.3243   19.1049 C   0  0  0  0  0  0  0  0  0  0  0  0
    5.5126    1.3328   17.8471 C   0  0  0  0  0  0  0  0  0  0  0  0
    6.6721    0.7137   17.5915 N   0  0  0  0  0  0  0  0  0  0  0  0
    7.2631    0.0746   18.6088 C   0  0  0  0  0  0  0  0  0  0  0  0
    8.1920   -0.4353   18.3570 H   0  0  0  0  0  0  0  0  0  0  0  0
    5.0450    1.8440   17.0060 H   0  0  0  0  0  0  0  0  0  0  0  0
    3.9585    1.8302   19.2408 H   0  0  0  0  0  0  0  0  0  0  0  0
    5.0859    0.6558   21.1557 H   0  0  0  0  0  0  0  0  0  0  0  0
    6.7280   -1.4829   22.0523 C   0  0  0  0  0  0  0  0  0  0  0  0
    7.5490   -2.3155   23.0639 C   0  0  0  0  0  0  0  0  0  0  0  0
    8.1970   -3.5515   22.4302 C   0  0  0  0  0  0  0  0  0  0  0  0
    7.1331   -4.4724   21.8123 C   0  0  0  0  0  0  0  0  0  0  0  0
    6.2085   -3.7329   20.8375 C   0  0  0  0  0  0  0  0  0  0  0  0
    5.6771   -2.3969   21.3731 C   0  0  0  0  0  0  0  0  0  0  0  0
    5.2685   -1.8281   20.5339 H   0  0  0  0  0  0  0  0  0  0  0  0
    4.8640   -2.6128   22.0760 H   0  0  0  0  0  0  0  0  0  0  0  0
    6.7338   -3.5199   19.9060 H   0  0  0  0  0  0  0  0  0  0  0  0
    5.3582   -4.3786   20.5770 H   0  0  0  0  0  0  0  0  0  0  0  0
    6.5345   -4.9090   22.6271 H   0  0  0  0  0  0  0  0  0  0  0  0
    7.6089   -5.3082   21.2866 H   0  0  0  0  0  0  0  0  0  0  0  0
    8.7588   -4.1075   23.1913 H   0  0  0  0  0  0  0  0  0  0  0  0
    8.9228   -3.2270   21.6701 H   0  0  0  0  0  0  0  0  0  0  0  0
    8.2869   -1.6958   23.5866 H   0  0  0  0  0  0  0  0  0  0  0  0
    6.8531   -2.6624   23.8425 H   0  0  0  0  0  0  0  0  0  0  0  0
    6.1953   -0.7118   22.6238 H   0  0  0  0  0  0  0  0  0  0  0  0
    8.1722   -1.4839   20.4509 H   0  0  0  0  0  0  0  0  0  0  0  0
    9.2233   -0.1541   22.1763 H   0  0  0  0  0  0  0  0  0  0  0  0
    8.9904    0.7661   20.7611 H   0  0  0  0  0  0  0  0  0  0  0  0
    7.8136    1.0020   23.8746 C   0  0  0  0  0  0  0  0  0  0  0  0
    6.7511    0.9871   24.7399 C   0  0  0  0  0  0  0  0  0  0  0  0
    7.2613    0.5354   25.9215 N   0  0  0  0  0  0  0  0  0  0  0  0
    6.5708    0.3780   27.1764 C   0  0  0  0  0  0  0  0  0  0  0  0
    5.1861    0.1362   27.1551 C   0  0  0  0  0  0  0  0  0  0  0  0
    4.4722   -0.0167   28.3450 C   0  0  0  0  0  0  0  0  0  0  0  0
    5.1260    0.0782   29.5741 C   0  0  0  0  0  0  0  0  0  0  0  0
    6.5027    0.3301   29.6001 C   0  0  0  0  0  0  0  0  0  0  0  0
    7.2313    0.4862   28.4132 C   0  0  0  0  0  0  0  0  0  0  0  0
    8.3043    0.6697   28.4587 H   0  0  0  0  0  0  0  0  0  0  0  0
    7.0201    0.3796   30.5558 H   0  0  0  0  0  0  0  0  0  0  0  0
    4.5683   -0.0497   30.5003 H   0  0  0  0  0  0  0  0  0  0  0  0
    3.3984   -0.1897   28.3011 H   0  0  0  0  0  0  0  0  0  0  0  0
    4.6488    0.1045   26.2122 H   0  0  0  0  0  0  0  0  0  0  0  0
    8.5653    0.2482   25.7687 N   0  0  0  0  0  0  0  0  0  0  0  0
    8.9017    0.5171   24.5441 N   0  0  0  0  0  0  0  0  0  0  0  0
    5.6969    1.1801   24.6138 H   0  0  0  0  0  0  0  0  0  0  0  0
    6.8838    1.5904   22.0670 H   0  0  0  0  0  0  0  0  0  0  0  0
    8.3851    3.5230   22.6785 H   0  0  0  0  0  0  0  0  0  0  0  0
    8.6860    2.8779   21.0699 H   0  0  0  0  0  0  0  0  0  0  0  0
    9.8033    2.4871   22.4146 H   0  0  0  0  0  0  0  0  0  0  0  0
  1  2  1  0
  2  3  1  0
  3  4  1  0
  4  5  1  0
  5  6  2  0
  6  7  1  0
  7  8  2  0
  8  9  1  0
  9 10  2  0
 10 11  1  0
  8 12  1  0
  7 13  1  0
  6 14  1  0
  4 15  1  0
 15 16  1  0
 16 17  1  0
 17 18  1  0
 18 19  1  0
 19 20  1  0
 20 21  1  0
 20 22  1  0
 19 23  1  0
 19 24  1  0
 18 25  1  0
 18 26  1  0
 17 27  1  0
 17 28  1  0
 16 29  1  0
 16 30  1  0
 15 31  1  0
  4 32  1  0
  3 33  1  0
  3 34  1  0
  2 35  1  0
 35 36  2  0
 36 37  1  0
 37 38  1  0
 38 39  2  0
 39 40  1  0
 40 41  2  0
 41 42  1  0
 42 43  2  0
 43 44  1  0
 42 45  1  0
 41 46  1  0
 40 47  1  0
 39 48  1  0
 37 49  1  0
 49 50  2  0
 36 51  1  0
  2 52  1  0
  1 53  1  0
  1 54  1  0
  1 55  1  0
 10  5  1  0
 20 15  1  0
 50 35  1  0
 43 38  1  0
M  CHG  1   3   1
M  END
>  <cnnaffinity>  (1) 
5.69618

>  <plip>  (1) 
-0.034482758620689655

>  <filename>  (1) 
[H][c]1[n][c]([H])[c]([C]([H])([C]2([H])[C]([H])([H])[C]([H])([H])[C]([H])([H])[C]([H])([H])[C]2([H])[H])[N+]([H])([H])[C]([H])([c]2[n][n][n](-[c]3[c]([H])[c]([H])[c]([H])[c]([H])[c]3[H])[c]2[H])[C]([H])([H])[H])[c]([H])[c]1[H]

>  <combo1>  (1) 
-0.1806155937041093

$$$$
