
     RDKit          3D

 36 38  0  0  0  0  0  0  0  0999 V2000
    9.1055   -5.8424   26.2145 F   0  0  0  0  0  0  0  0  0  0  0  0
    8.7019   -4.5733   26.4075 C   0  0  0  0  0  0  0  0  0  0  0  0
    9.5743   -3.5356   26.0876 C   0  0  0  0  0  0  0  0  0  0  0  0
    9.1524   -2.2194   26.3077 C   0  0  0  0  0  0  0  0  0  0  0  0
    7.8894   -1.9506   26.8473 C   0  0  0  0  0  0  0  0  0  0  0  0
    7.5204   -0.4906   27.0445 C   0  0  0  0  0  0  0  0  0  0  0  0
    7.0688    0.1041   25.7466 C   0  0  0  0  0  0  0  0  0  0  0  0
    5.8925    0.1584   25.2189 N   0  0  0  0  0  0  0  0  0  0  0  0
    6.0569    0.7025   23.9454 N   0  0  0  0  0  0  0  0  0  0  0  0
    7.3205    0.9344   23.8044 C   0  0  0  0  0  0  0  0  0  0  0  0
    8.1790    1.6385   22.4408 S   0  0  0  0  0  0  0  0  0  0  0  0
    8.6229    0.1205   21.5120 C   0  0  0  0  0  0  0  0  0  0  0  0
    7.4387   -0.7056   20.9883 C   0  0  0  0  0  0  0  0  0  0  0  0
    6.6583   -0.0191   19.8909 C   0  0  0  0  0  0  0  0  0  0  0  0
    5.4471    0.6400   20.1421 C   0  0  0  0  0  0  0  0  0  0  0  0
    4.8138    1.3084   19.0894 C   0  0  0  0  0  0  0  0  0  0  0  0
    5.4095    1.3032   17.8238 C   0  0  0  0  0  0  0  0  0  0  0  0
    6.5587    0.6655   17.5543 N   0  0  0  0  0  0  0  0  0  0  0  0
    7.1531    0.0315   18.5741 C   0  0  0  0  0  0  0  0  0  0  0  0
    8.0850   -0.4792   18.3302 H   0  0  0  0  0  0  0  0  0  0  0  0
    4.9459    1.8332   16.9909 H   0  0  0  0  0  0  0  0  0  0  0  0
    3.8797    1.8395   19.2374 H   0  0  0  0  0  0  0  0  0  0  0  0
    5.0181    0.6343   21.1495 H   0  0  0  0  0  0  0  0  0  0  0  0
    7.8351   -1.6594   20.6142 H   0  0  0  0  0  0  0  0  0  0  0  0
    6.7756   -0.9331   21.8309 H   0  0  0  0  0  0  0  0  0  0  0  0
    9.2683   -0.4927   22.1462 H   0  0  0  0  0  0  0  0  0  0  0  0
    9.2356    0.4871   20.6811 H   0  0  0  0  0  0  0  0  0  0  0  0
    8.0285    0.5787   24.9085 O   0  0  0  0  0  0  0  0  0  0  0  0
    8.4106    0.0543   27.3839 H   0  0  0  0  0  0  0  0  0  0  0  0
    6.7373   -0.3644   27.7942 H   0  0  0  0  0  0  0  0  0  0  0  0
    7.0114   -3.0135   27.1008 C   0  0  0  0  0  0  0  0  0  0  0  0
    7.4235   -4.3375   26.9058 C   0  0  0  0  0  0  0  0  0  0  0  0
    6.7802   -5.1777   27.1465 H   0  0  0  0  0  0  0  0  0  0  0  0
    6.0029   -2.8281   27.4654 H   0  0  0  0  0  0  0  0  0  0  0  0
    9.7810   -1.3668   26.0489 H   0  0  0  0  0  0  0  0  0  0  0  0
   10.5305   -3.7868   25.6385 H   0  0  0  0  0  0  0  0  0  0  0  0
  1  2  1  0
  2  3  2  0
  3  4  1  0
  4  5  2  0
  5  6  1  0
  6  7  1  0
  7  8  2  0
  8  9  1  0
  9 10  2  0
 10 11  1  0
 11 12  1  0
 12 13  1  0
 13 14  1  0
 14 15  2  0
 15 16  1  0
 16 17  2  0
 17 18  1  0
 18 19  2  0
 19 20  1  0
 17 21  1  0
 16 22  1  0
 15 23  1  0
 13 24  1  0
 13 25  1  0
 12 26  1  0
 12 27  1  0
 10 28  1  0
  6 29  1  0
  6 30  1  0
  5 31  1  0
 31 32  2  0
 32 33  1  0
 31 34  1  0
  4 35  1  0
  3 36  1  0
 32  2  1  0
 28  7  1  0
 19 14  1  0
M  END
>  <cnnaffinity>  (1) 
5.03044

>  <plip>  (1) 
-0.06666666666666667

>  <filename>  (1) 
[H][c]1[n][c]([H])[c]([C]([H])([H])[C]([H])([H])[S][c]2[n][n][c]([C]([H])([H])[c]3[c]([H])[c]([H])[c]([F])[c]([H])[c]3[H])[o]2)[c]([H])[c]1[H]

>  <combo1>  (1) 
-0.354461401437522

$$$$
