
     RDKit          3D

 46 48  0  0  0  0  0  0  0  0999 V2000
    6.2067   -2.7265   24.8375 F   0  0  0  0  0  0  0  0  0  0  0  0
    5.8287   -3.7685   24.0623 C   0  0  0  0  0  0  0  0  0  0  0  0
    4.9565   -4.7010   24.6114 C   0  0  0  0  0  0  0  0  0  0  0  0
    4.5740   -5.8112   23.8470 C   0  0  0  0  0  0  0  0  0  0  0  0
    5.0690   -5.9658   22.5473 C   0  0  0  0  0  0  0  0  0  0  0  0
    5.9453   -5.0104   22.0204 C   0  0  0  0  0  0  0  0  0  0  0  0
    6.3394   -3.8860   22.7622 C   0  0  0  0  0  0  0  0  0  0  0  0
    7.3369   -2.8982   22.2235 C   0  0  0  0  0  0  0  0  0  0  0  0
    6.6127   -1.8057   21.5333 N   0  0  0  0  0  4  0  0  0  0  0  0
    7.4104   -0.6744   20.9874 C   0  0  0  0  0  0  0  0  0  0  0  0
    7.8598    0.3014   22.0980 C   0  0  0  0  0  0  0  0  0  0  0  0
    8.8448    1.3344   21.6487 N   0  0  0  0  0  4  0  0  0  0  0  0
   10.1557    0.7703   21.1484 C   0  0  0  0  0  0  0  0  0  0  0  0
   11.1761    1.8861   21.3321 C   0  0  0  0  0  0  0  0  0  0  0  0
   10.6131    2.7970   22.4466 C   0  0  0  0  0  0  0  0  0  0  0  0
    9.1859    2.3123   22.7400 C   0  0  0  0  0  0  0  0  0  0  0  0
    9.1359    1.7718   23.6935 H   0  0  0  0  0  0  0  0  0  0  0  0
    8.4417    3.1115   22.7795 H   0  0  0  0  0  0  0  0  0  0  0  0
   11.2135    2.7204   23.3552 H   0  0  0  0  0  0  0  0  0  0  0  0
   10.6379    3.8523   22.1477 H   0  0  0  0  0  0  0  0  0  0  0  0
   11.3502    2.4448   20.4076 H   0  0  0  0  0  0  0  0  0  0  0  0
   12.1337    1.4395   21.6164 H   0  0  0  0  0  0  0  0  0  0  0  0
   10.4164   -0.1158   21.7362 H   0  0  0  0  0  0  0  0  0  0  0  0
   10.0410    0.4549   20.1144 H   0  0  0  0  0  0  0  0  0  0  0  0
    8.4019    1.8854   20.8685 H   0  0  0  0  0  0  0  0  0  0  0  0
    6.9664    0.7817   22.5142 H   0  0  0  0  0  0  0  0  0  0  0  0
    8.3117   -0.2994   22.9036 H   0  0  0  0  0  0  0  0  0  0  0  0
    6.5758   -0.0128   19.9102 C   0  0  0  0  0  0  0  0  0  0  0  0
    5.3619    0.6612   20.1274 C   0  0  0  0  0  0  0  0  0  0  0  0
    4.7515    1.3255   19.0588 C   0  0  0  0  0  0  0  0  0  0  0  0
    5.3781    1.3014   17.8091 C   0  0  0  0  0  0  0  0  0  0  0  0
    6.5236    0.6488   17.5723 N   0  0  0  0  0  0  0  0  0  0  0  0
    7.0953    0.0212   18.6064 C   0  0  0  0  0  0  0  0  0  0  0  0
    8.0406   -0.4824   18.3905 H   0  0  0  0  0  0  0  0  0  0  0  0
    4.9522    1.8483   16.9654 H   0  0  0  0  0  0  0  0  0  0  0  0
    3.8339    1.8936   19.1866 H   0  0  0  0  0  0  0  0  0  0  0  0
    4.8939    0.6974   21.1151 H   0  0  0  0  0  0  0  0  0  0  0  0
    8.3184   -1.0736   20.5189 H   0  0  0  0  0  0  0  0  0  0  0  0
    5.9268   -1.4146   22.2414 H   0  0  0  0  0  0  0  0  0  0  0  0
    6.0370   -2.1824   20.7398 H   0  0  0  0  0  0  0  0  0  0  0  0
    8.0315   -3.4116   21.5457 H   0  0  0  0  0  0  0  0  0  0  0  0
    7.9326   -2.5190   23.0619 H   0  0  0  0  0  0  0  0  0  0  0  0
    6.3570   -5.1499   21.0217 H   0  0  0  0  0  0  0  0  0  0  0  0
    4.8043   -6.8397   21.9569 H   0  0  0  0  0  0  0  0  0  0  0  0
    3.9110   -6.5649   24.2706 H   0  0  0  0  0  0  0  0  0  0  0  0
    4.6308   -4.5421   25.6337 H   0  0  0  0  0  0  0  0  0  0  0  0
  1  2  1  0
  2  3  2  0
  3  4  1  0
  4  5  2  0
  5  6  1  0
  6  7  2  0
  7  8  1  0
  8  9  1  0
  9 10  1  0
 10 11  1  0
 11 12  1  0
 12 13  1  0
 13 14  1  0
 14 15  1  0
 15 16  1  0
 16 17  1  0
 16 18  1  0
 15 19  1  0
 15 20  1  0
 14 21  1  0
 14 22  1  0
 13 23  1  0
 13 24  1  0
 12 25  1  0
 11 26  1  0
 11 27  1  0
 10 28  1  0
 28 29  2  0
 29 30  1  0
 30 31  2  0
 31 32  1  0
 32 33  2  0
 33 34  1  0
 31 35  1  0
 30 36  1  0
 29 37  1  0
 10 38  1  0
  9 39  1  0
  9 40  1  0
  8 41  1  0
  8 42  1  0
  6 43  1  0
  5 44  1  0
  4 45  1  0
  3 46  1  0
  7  2  1  0
 16 12  1  0
 33 28  1  0
M  CHG  2   9   1  12   1
M  END
>  <cnnaffinity>  (1) 
4.67047

>  <plip>  (1) 
-0.14285714285714285

>  <filename>  (1) 
[H][c]1[n][c]([H])[c]([C]([H])([C]([H])([H])[N+]2([H])[C]([H])([H])[C]([H])([H])[C]([H])([H])[C]2([H])[H])[N+]([H])([H])[C]([H])([H])[c]2[c]([H])[c]([H])[c]([H])[c]([H])[c]2[F])[c]([H])[c]1[H]

>  <combo1>  (1) 
-0.7378788733360099

$$$$
