
     RDKit          3D

 29 31  0  0  0  0  0  0  0  0999 V2000
    5.1330    2.2214   16.3617 H   0  0  0  0  0  0  0  0  0  0  0  0
    5.4043    1.6665   17.2648 C   0  0  0  0  0  0  0  0  0  0  0  0
    6.5203    0.9206   17.1965 N   0  0  0  0  0  0  0  0  0  0  0  0
    6.8833    0.2360   18.2895 C   0  0  0  0  0  0  0  0  0  0  0  0
    7.7877   -0.3769   18.1944 H   0  0  0  0  0  0  0  0  0  0  0  0
    6.1858    0.2694   19.5161 C   0  0  0  0  0  0  0  0  0  0  0  0
    6.6532   -0.4966   20.7186 C   0  0  0  0  0  0  0  0  0  0  0  0
    6.8534   -1.8943   20.6569 C   0  0  0  0  0  0  0  0  0  0  0  0
    6.6734   -2.4419   19.7388 H   0  0  0  0  0  0  0  0  0  0  0  0
    7.2378   -2.6336   21.7016 N   0  0  0  0  0  0  0  0  0  0  0  0
    7.4804   -2.0453   22.8789 N   0  0  0  0  0  0  0  0  0  0  0  0
    7.2992   -0.7202   23.0293 C   0  0  0  0  0  0  0  0  0  0  0  0
    7.5285   -0.1711   24.4041 C   0  0  0  0  0  0  0  0  0  0  0  0
    8.6617   -0.5268   25.1534 C   0  0  0  0  0  0  0  0  0  0  0  0
    9.4523   -1.1389   24.7269 H   0  0  0  0  0  0  0  0  0  0  0  0
    8.7801   -0.0769   26.4679 C   0  0  0  0  0  0  0  0  0  0  0  0
   10.1577   -0.5618   27.3890 Cl  0  0  0  0  0  0  0  0  0  0  0  0
    7.8187    0.7405   27.0648 C   0  0  0  0  0  0  0  0  0  0  0  0
    7.9275    1.0537   28.0977 H   0  0  0  0  0  0  0  0  0  0  0  0
    6.7299    1.1314   26.2841 C   0  0  0  0  0  0  0  0  0  0  0  0
    5.5662    2.2238   26.9590 Cl  0  0  0  0  0  0  0  0  0  0  0  0
    6.5713    0.6871   24.9693 C   0  0  0  0  0  0  0  0  0  0  0  0
    5.6961    1.0006   24.4094 H   0  0  0  0  0  0  0  0  0  0  0  0
    6.8807    0.0970   21.9573 C   0  0  0  0  0  0  0  0  0  0  0  0
    6.7844    1.1732   22.0992 H   0  0  0  0  0  0  0  0  0  0  0  0
    5.0108    1.0388   19.5528 C   0  0  0  0  0  0  0  0  0  0  0  0
    4.4192    1.0659   20.4693 H   0  0  0  0  0  0  0  0  0  0  0  0
    4.6075    1.7388   18.4117 C   0  0  0  0  0  0  0  0  0  0  0  0
    3.7072    2.3477   18.3995 H   0  0  0  0  0  0  0  0  0  0  0  0
  1  2  1  0
  2  3  2  0
  3  4  1  0
  4  5  1  0
  4  6  2  0
  6  7  1  0
  7  8  2  0
  8  9  1  0
  8 10  1  0
 10 11  2  0
 11 12  1  0
 12 13  1  0
 13 14  2  0
 14 15  1  0
 14 16  1  0
 16 17  1  0
 16 18  2  0
 18 19  1  0
 18 20  1  0
 20 21  1  0
 20 22  2  0
 22 23  1  0
 12 24  2  0
 24 25  1  0
  6 26  1  0
 26 27  1  0
 26 28  2  0
 28 29  1  0
 28  2  1  0
 24  7  1  0
 22 13  1  0
M  END
>  <cnnaffinity>  (1) 
4.96512

>  <plip>  (1) 
-0.03571428571428571

>  <filename>  (1) 
[H][c]1[n][c]([H])[c](-[c]2[c]([H])[n][n][c](-[c]3[c]([H])[c]([Cl])[c]([H])[c]([Cl])[c]3[H])[c]2[H])[c]([H])[c]1[H]

>  <combo1>  (1) 
-0.1956175170720914

$$$$
