
     RDKit          3D

 29 31  0  0  0  0  0  0  0  0999 V2000
    4.1777   -7.6988   23.9948 Br  0  0  0  0  0  0  0  0  0  0  0  0
    4.6158   -6.0195   23.1813 C   0  0  0  0  0  0  0  0  0  0  0  0
    4.7008   -4.8457   23.9451 C   0  0  0  0  0  0  0  0  0  0  0  0
    5.1011   -3.6779   23.4044 N   0  0  0  0  0  0  0  0  0  0  0  0
    5.4206   -3.6257   22.0651 C   0  0  0  0  0  0  0  0  0  0  0  0
    5.9056   -2.4929   21.3567 C   0  0  0  0  0  0  0  0  0  0  0  0
    6.2059   -1.2861   21.9425 N   0  0  0  0  0  0  0  0  0  0  0  0
    7.1509   -0.3436   21.3549 C   0  0  0  0  0  0  0  0  0  0  0  0
    6.5128    0.2036   20.1213 C   0  0  0  0  0  0  0  0  0  0  0  0
    5.3860    1.0252   20.1745 C   0  0  0  0  0  0  0  0  0  0  0  0
    4.8597    1.4756   18.9680 C   0  0  0  0  0  0  0  0  0  0  0  0
    5.4608    1.1040   17.7622 C   0  0  0  0  0  0  0  0  0  0  0  0
    6.5472    0.3115   17.7130 N   0  0  0  0  0  0  0  0  0  0  0  0
    7.0535   -0.1330   18.8759 C   0  0  0  0  0  0  0  0  0  0  0  0
    7.9374   -0.7646   18.8468 H   0  0  0  0  0  0  0  0  0  0  0  0
    5.0230    1.4602   16.8349 H   0  0  0  0  0  0  0  0  0  0  0  0
    3.9889    2.1192   18.9554 H   0  0  0  0  0  0  0  0  0  0  0  0
    4.9300    1.3050   21.1234 H   0  0  0  0  0  0  0  0  0  0  0  0
    7.3640    0.4562   22.0767 H   0  0  0  0  0  0  0  0  0  0  0  0
    8.0977   -0.8458   21.1201 H   0  0  0  0  0  0  0  0  0  0  0  0
    5.3938   -0.8537   22.3646 H   0  0  0  0  0  0  0  0  0  0  0  0
    6.0675   -2.4489   20.0409 N   0  0  0  0  0  0  0  0  0  0  0  0
    5.8449   -3.5529   19.3477 C   0  0  0  0  0  0  0  0  0  0  0  0
    5.5332   -4.7203   19.9157 N   0  0  0  0  0  0  0  0  0  0  0  0
    5.3042   -4.7535   21.2388 C   0  0  0  0  0  0  0  0  0  0  0  0
    4.8942   -5.9545   21.8101 C   0  0  0  0  0  0  0  0  0  0  0  0
    4.8117   -6.8334   21.1796 H   0  0  0  0  0  0  0  0  0  0  0  0
    5.9317   -3.5219   18.2661 H   0  0  0  0  0  0  0  0  0  0  0  0
    4.4417   -4.8745   24.9995 H   0  0  0  0  0  0  0  0  0  0  0  0
  1  2  1  0
  2  3  2  0
  3  4  1  0
  4  5  2  0
  5  6  1  0
  6  7  1  0
  7  8  1  0
  8  9  1  0
  9 10  2  0
 10 11  1  0
 11 12  2  0
 12 13  1  0
 13 14  2  0
 14 15  1  0
 12 16  1  0
 11 17  1  0
 10 18  1  0
  8 19  1  0
  8 20  1  0
  7 21  1  0
  6 22  2  0
 22 23  1  0
 23 24  2  0
 24 25  1  0
 25 26  2  0
 26 27  1  0
 23 28  1  0
  3 29  1  0
 26  2  1  0
 25  5  1  0
 14  9  1  0
M  END
>  <cnnaffinity>  (1) 
5.26075

>  <plip>  (1) 
-0.1724137931034483

>  <filename>  (1) 
[H][c]1[n][c]([N]([H])[C]([H])([H])[c]2[c]([H])[n][c]([H])[c]([H])[c]2[H])[c]2[n][c]([H])[c]([Br])[c]([H])[c]2[n]1

>  <combo1>  (1) 
-0.9562880865600183

$$$$
