
     RDKit          3D

 33 35  0  0  0  0  0  0  0  0999 V2000
    8.7254    0.6553   20.9549 H   0  0  0  0  0  0  0  0  0  0  0  0
    8.6434   -0.2870   21.1508 O   0  0  0  0  0  0  0  0  0  0  0  0
    7.2459   -0.5136   21.2133 C   0  0  1  0  0  0  0  0  0  0  0  0
    6.8404   -0.1145   22.1632 H   0  0  0  0  0  0  0  0  0  0  0  0
    6.5862    0.1791   20.0419 C   0  0  0  0  0  0  0  0  0  0  0  0
    7.1813    0.1474   18.7665 C   0  0  0  0  0  0  0  0  0  0  0  0
    8.1619   -0.3057   18.6181 H   0  0  0  0  0  0  0  0  0  0  0  0
    6.6276    0.6727   17.6663 N   0  0  0  0  0  0  0  0  0  0  0  0
    5.4466    1.2919   17.8132 C   0  0  0  0  0  0  0  0  0  0  0  0
    5.0281    1.7453   16.9179 H   0  0  0  0  0  0  0  0  0  0  0  0
    4.7702    1.3889   19.0326 C   0  0  0  0  0  0  0  0  0  0  0  0
    3.8333    1.9293   19.0970 H   0  0  0  0  0  0  0  0  0  0  0  0
    5.3469    0.8140   20.1659 C   0  0  0  0  0  0  0  0  0  0  0  0
    4.8639    0.8699   21.1432 H   0  0  0  0  0  0  0  0  0  0  0  0
    6.9774   -2.0319   21.1692 C   0  0  0  0  0  0  0  0  0  0  0  0
    7.3611   -2.3834   20.2048 H   0  0  0  0  0  0  0  0  0  0  0  0
    5.8940   -2.1597   21.1121 H   0  0  0  0  0  0  0  0  0  0  0  0
    7.5701   -2.8392   22.3114 C   0  0  0  0  0  0  0  0  0  0  0  0
    8.9215   -3.1318   22.3063 C   0  0  0  0  0  0  0  0  0  0  0  0
    9.5617   -2.8238   21.4805 H   0  0  0  0  0  0  0  0  0  0  0  0
    9.5858   -3.8010   23.2901 N   0  0  0  0  0  0  0  0  0  0  0  0
    8.9131   -4.1442   24.3634 C   0  0  0  0  0  0  0  0  0  0  0  0
    9.4604   -4.6960   25.1294 H   0  0  0  0  0  0  0  0  0  0  0  0
    7.5363   -3.8394   24.5740 C   0  0  0  0  0  0  0  0  0  0  0  0
    6.8789   -4.0554   25.8223 C   0  0  0  0  0  0  0  0  0  0  0  0
    7.4557   -4.4341   26.6663 H   0  0  0  0  0  0  0  0  0  0  0  0
    5.5414   -3.7719   25.9560 C   0  0  0  0  0  0  0  0  0  0  0  0
    5.0503   -3.8719   26.9195 H   0  0  0  0  0  0  0  0  0  0  0  0
    4.7897   -3.3323   24.8377 C   0  0  0  0  0  0  0  0  0  0  0  0
    3.7189   -3.1745   24.9385 H   0  0  0  0  0  0  0  0  0  0  0  0
    5.4140   -3.1109   23.6294 C   0  0  0  0  0  0  0  0  0  0  0  0
    4.8397   -2.8258   22.7601 H   0  0  0  0  0  0  0  0  0  0  0  0
    6.8207   -3.2620   23.4740 C   0  0  0  0  0  0  0  0  0  0  0  0
  1  2  1  0
  2  3  1  0
  3  4  1  1
  3  5  1  0
  5  6  2  0
  6  7  1  0
  6  8  1  0
  8  9  2  0
  9 10  1  0
  9 11  1  0
 11 12  1  0
 11 13  2  0
 13 14  1  0
  3 15  1  0
 15 16  1  0
 15 17  1  0
 15 18  1  0
 18 19  2  0
 19 20  1  0
 19 21  1  0
 21 22  2  0
 22 23  1  0
 22 24  1  0
 24 25  2  0
 25 26  1  0
 25 27  1  0
 27 28  1  0
 27 29  2  0
 29 30  1  0
 29 31  1  0
 31 32  1  0
 31 33  2  0
 13  5  1  0
 33 18  1  0
 33 24  1  0
M  END
>  <cnnaffinity>  (1) 
4.82621

>  <plip>  (1) 
-0.06896551724137931

>  <filename>  (1) 
[H][O][C@@]([H])([c]1[c]([H])[n][c]([H])[c]([H])[c]1[H])[C]([H])([H])[c]1[c]([H])[n][c]([H])[c]2[c]([H])[c]([H])[c]([H])[c]([H])[c]12

>  <combo1>  (1) 
-0.4432557453699309

$$$$
