
     RDKit          3D

 29 32  0  0  0  0  0  0  0  0999 V2000
    5.0044    1.6032   16.6335 H   0  0  0  0  0  0  0  0  0  0  0  0
    5.4677    1.1411   17.5025 C   0  0  0  0  0  0  0  0  0  0  0  0
    6.6590    0.5595   17.2988 N   0  0  0  0  0  0  0  0  0  0  0  0
    7.2846    0.0113   18.3460 C   0  0  0  0  0  0  0  0  0  0  0  0
    8.2618   -0.4215   18.1366 H   0  0  0  0  0  0  0  0  0  0  0  0
    6.7568    0.0185   19.6492 C   0  0  0  0  0  0  0  0  0  0  0  0
    7.4869   -0.4403   20.7624 N   0  0  0  0  0  0  0  0  0  0  0  0
    8.4860   -1.4152   20.8244 C   0  0  0  0  0  0  0  0  0  0  0  0
    8.7465   -1.9890   19.9561 H   0  0  0  0  0  0  0  0  0  0  0  0
    9.0018   -1.4487   22.0792 C   0  0  0  0  0  0  0  0  0  0  0  0
    9.7982   -1.9927   22.5523 H   0  0  0  0  0  0  0  0  0  0  0  0
    8.3193   -0.4860   22.7934 N   0  0  0  0  0  0  0  0  0  0  0  0
    8.4762    0.0566   24.0159 N   0  0  0  0  0  0  0  0  0  0  0  0
    7.6181    1.0835   23.9718 C   0  0  0  0  0  0  0  0  0  0  0  0
    7.5851    1.9939   25.0371 N   0  0  0  0  0  0  0  0  0  0  0  0
    8.3392    1.8798   26.1761 C   0  0  0  0  0  0  0  0  0  0  0  0
    8.8583    0.9674   26.4462 H   0  0  0  0  0  0  0  0  0  0  0  0
    8.3229    2.9733   26.8825 N   0  0  0  0  0  0  0  0  0  0  0  0
    7.5383    3.8615   26.1848 C   0  0  0  0  0  0  0  0  0  0  0  0
    7.3794    4.8777   26.5190 H   0  0  0  0  0  0  0  0  0  0  0  0
    7.0664    3.2873   25.0484 C   0  0  0  0  0  0  0  0  0  0  0  0
    6.3917    3.6697   24.2994 H   0  0  0  0  0  0  0  0  0  0  0  0
    6.8893    1.1892   22.7695 C   0  0  0  0  0  0  0  0  0  0  0  0
    6.1640    1.9511   22.5350 H   0  0  0  0  0  0  0  0  0  0  0  0
    7.4164    0.1460   22.0219 C   0  0  0  0  0  0  0  0  0  0  0  0
    5.4874    0.5889   19.8431 C   0  0  0  0  0  0  0  0  0  0  0  0
    5.0649    0.6022   20.8490 H   0  0  0  0  0  0  0  0  0  0  0  0
    4.8409    1.1641   18.7521 C   0  0  0  0  0  0  0  0  0  0  0  0
    3.8849    1.6612   18.8659 H   0  0  0  0  0  0  0  0  0  0  0  0
  1  2  1  0
  2  3  2  0
  3  4  1  0
  4  5  1  0
  4  6  2  0
  6  7  1  0
  7  8  1  0
  8  9  1  0
  8 10  2  0
 10 11  1  0
 10 12  1  0
 12 13  1  0
 13 14  2  0
 14 15  1  0
 15 16  1  0
 16 17  1  0
 16 18  2  0
 18 19  1  0
 19 20  1  0
 19 21  2  0
 21 22  1  0
 14 23  1  0
 23 24  1  0
 23 25  2  0
  6 26  1  0
 26 27  1  0
 26 28  2  0
 28 29  1  0
 28  2  1  0
 25  7  1  0
 25 12  1  0
 21 15  1  0
M  END
>  <cnnaffinity>  (1) 
4.61101

>  <plip>  (1) 
-0.0

>  <filename>  (1) 
[H][c]1[n][c]([H])[c](-[n]2[c]([H])[c]([H])[n]3[n][c](-[n]4[c]([H])[n][c]([H])[c]4[H])[c]([H])[c]23)[c]([H])[c]1[H]

>  <combo1>  (1) 
-6.141503339793151e-06

$$$$
