
     RDKit          3D

 32 34  0  0  0  0  0  0  0  0999 V2000
    5.0454    1.7690   16.9767 H   0  0  0  0  0  0  0  0  0  0  0  0
    5.4832    1.2740   17.8385 C   0  0  0  0  0  0  0  0  0  0  0  0
    6.6451    0.6300   17.6183 N   0  0  0  0  0  0  0  0  0  0  0  0
    7.1989   -0.0065   18.6557 C   0  0  0  0  0  0  0  0  0  0  0  0
    8.1351   -0.5328   18.4652 H   0  0  0  0  0  0  0  0  0  0  0  0
    6.6411   -0.0389   19.9477 C   0  0  0  0  0  0  0  0  0  0  0  0
    7.3738   -0.7755   20.9119 N   0  0  0  0  0  0  0  0  0  0  0  0
    6.8466   -0.7586   22.0542 N   0  0  0  0  0  0  0  0  0  0  0  0
    7.5089   -1.3936   23.0036 N   0  0  0  0  0  0  0  0  0  0  0  0
    8.8361   -1.9833   22.7776 C   0  0  0  0  0  0  0  0  0  0  0  0
    9.5638   -1.1751   22.6214 H   0  0  0  0  0  0  0  0  0  0  0  0
    8.7993   -2.5248   21.8242 H   0  0  0  0  0  0  0  0  0  0  0  0
    9.2801   -2.9133   23.8870 C   0  0  0  0  0  0  0  0  0  0  0  0
   10.5482   -3.5141   23.8160 C   0  0  0  0  0  0  0  0  0  0  0  0
   11.1981   -3.3522   22.9560 H   0  0  0  0  0  0  0  0  0  0  0  0
   10.9884   -4.3554   24.8390 C   0  0  0  0  0  0  0  0  0  0  0  0
   11.9714   -4.8080   24.7841 H   0  0  0  0  0  0  0  0  0  0  0  0
   10.1803   -4.5945   25.9536 C   0  0  0  0  0  0  0  0  0  0  0  0
   10.5126   -5.2580   26.7475 H   0  0  0  0  0  0  0  0  0  0  0  0
    8.9204   -3.9958   26.0285 C   0  0  0  0  0  0  0  0  0  0  0  0
    8.2886   -4.1393   26.9033 H   0  0  0  0  0  0  0  0  0  0  0  0
    8.4449   -3.1941   24.9886 C   0  0  0  0  0  0  0  0  0  0  0  0
    7.0387   -2.6259   25.0351 C   0  0  0  0  0  0  0  0  0  0  0  0
    6.3514   -3.2826   24.4867 H   0  0  0  0  0  0  0  0  0  0  0  0
    6.6878   -2.5564   26.0710 H   0  0  0  0  0  0  0  0  0  0  0  0
    6.9873   -1.2628   24.3552 C   0  0  0  0  0  0  0  0  0  0  0  0
    5.9619   -0.8837   24.3121 H   0  0  0  0  0  0  0  0  0  0  0  0
    7.5773   -0.5200   24.9124 H   0  0  0  0  0  0  0  0  0  0  0  0
    5.4291    0.6459   20.1626 C   0  0  0  0  0  0  0  0  0  0  0  0
    4.9955    0.6337   21.1635 H   0  0  0  0  0  0  0  0  0  0  0  0
    4.8427    1.3068   19.0827 C   0  0  0  0  0  0  0  0  0  0  0  0
    3.9069    1.8431   19.2039 H   0  0  0  0  0  0  0  0  0  0  0  0
  1  2  1  0
  2  3  2  0
  3  4  1  0
  4  5  1  0
  4  6  2  0
  6  7  1  0
  7  8  2  3
  8  9  1  0
  9 10  1  0
 10 11  1  0
 10 12  1  0
 10 13  1  0
 13 14  2  0
 14 15  1  0
 14 16  1  0
 16 17  1  0
 16 18  2  0
 18 19  1  0
 18 20  1  0
 20 21  1  0
 20 22  2  0
 22 23  1  0
 23 24  1  0
 23 25  1  0
 23 26  1  0
 26 27  1  0
 26 28  1  0
  6 29  1  0
 29 30  1  0
 29 31  2  0
 31 32  1  0
 31  2  1  0
 26  9  1  0
 22 13  1  0
M  END
>  <cnnaffinity>  (1) 
4.83553

>  <plip>  (1) 
-0.10714285714285714

>  <filename>  (1) 
[H][c]1[n][c]([H])[c]([N]=[N][N]2[C]([H])([H])[c]3[c]([H])[c]([H])[c]([H])[c]([H])[c]3[C]([H])([H])[C]2([H])[H])[c]([H])[c]1[H]

>  <combo1>  (1) 
-0.7247244999874104

$$$$
