
     RDKit          3D

 34 35  0  0  0  0  0  0  0  0999 V2000
    5.0614    1.6495   16.9489 H   0  0  0  0  0  0  0  0  0  0  0  0
    5.4913    1.2366   17.8608 C   0  0  0  0  0  0  0  0  0  0  0  0
    6.6823    0.6350   17.7322 N   0  0  0  0  0  0  0  0  0  0  0  0
    7.2607    0.1625   18.8324 C   0  0  0  0  0  0  0  0  0  0  0  0
    8.2393   -0.2966   18.6986 H   0  0  0  0  0  0  0  0  0  0  0  0
    6.6545    0.2431   20.0774 C   0  0  0  0  0  0  0  0  0  0  0  0
    7.5279   -0.6068   21.2953 S   0  0  0  0  0  0  0  0  0  0  0  0
    6.8929   -1.8481   21.6834 O   0  0  0  0  0  0  0  0  0  0  0  0
    8.9275   -0.5876   20.9410 O   0  0  0  0  0  0  0  0  0  0  0  0
    7.1714    0.3344   22.5859 N   0  0  0  0  0  0  0  0  0  0  0  0
    7.2526   -0.3036   23.3568 H   0  0  0  0  0  0  0  0  0  0  0  0
    7.9672    1.4377   22.7064 C   0  0  0  0  0  0  0  0  0  0  0  0
    8.5887    1.9656   21.8244 O   0  0  0  0  0  0  0  0  0  0  0  0
    7.8882    1.8429   23.9961 N   0  0  0  0  0  0  0  0  0  0  0  0
    6.9995    1.6666   24.4224 H   0  0  0  0  0  0  0  0  0  0  0  0
    8.2526    3.1104   24.4054 C   0  0  0  0  0  0  0  0  0  0  0  0
    7.5369    3.6445   25.2232 O   0  0  0  0  0  0  0  0  0  0  0  0
    9.4035    3.5556   23.8684 N   0  0  0  0  0  0  0  0  0  0  0  0
    9.6268    3.1014   22.9948 H   0  0  0  0  0  0  0  0  0  0  0  0
   10.1191    4.6801   24.2951 C   0  0  0  0  0  0  0  0  0  0  0  0
    9.8927    5.2766   25.5443 C   0  0  0  0  0  0  0  0  0  0  0  0
    9.1063    4.8827   26.1722 H   0  0  0  0  0  0  0  0  0  0  0  0
   10.6711    6.3673   25.9388 C   0  0  0  0  0  0  0  0  0  0  0  0
   10.5251    6.8226   26.9134 H   0  0  0  0  0  0  0  0  0  0  0  0
   11.6604    6.8574   25.0804 C   0  0  0  0  0  0  0  0  0  0  0  0
   12.6602    8.1949   25.5744 Cl  0  0  0  0  0  0  0  0  0  0  0  0
   11.8893    6.2652   23.8349 C   0  0  0  0  0  0  0  0  0  0  0  0
   12.6630    6.6669   23.1891 H   0  0  0  0  0  0  0  0  0  0  0  0
   11.1130    5.1701   23.4456 C   0  0  0  0  0  0  0  0  0  0  0  0
   11.2552    4.6901   22.4802 H   0  0  0  0  0  0  0  0  0  0  0  0
    5.3969    0.8378   20.2343 C   0  0  0  0  0  0  0  0  0  0  0  0
    4.8806    0.9215   21.1942 H   0  0  0  0  0  0  0  0  0  0  0  0
    4.8149    1.3502   19.0793 C   0  0  0  0  0  0  0  0  0  0  0  0
    3.8559    1.8549   19.1049 H   0  0  0  0  0  0  0  0  0  0  0  0
  1  2  1  0
  2  3  2  0
  3  4  1  0
  4  5  1  0
  4  6  2  0
  6  7  1  0
  7  8  2  0
  7  9  2  0
  7 10  1  0
 10 11  1  0
 10 12  1  0
 12 13  2  0
 12 14  1  0
 14 15  1  0
 14 16  1  0
 16 17  2  0
 16 18  1  0
 18 19  1  0
 18 20  1  0
 20 21  2  0
 21 22  1  0
 21 23  1  0
 23 24  1  0
 23 25  2  0
 25 26  1  0
 25 27  1  0
 27 28  1  0
 27 29  2  0
 29 30  1  0
  6 31  1  0
 31 32  1  0
 31 33  2  0
 33 34  1  0
 33  2  1  0
 29 20  1  0
M  END
>  <cnnaffinity>  (1) 
5.19279

>  <plip>  (1) 
-0.17857142857142858

>  <filename>  (1) 
[H][c]1[n][c]([H])[c]([S](=[O])(=[O])[N]([H])[C](=[O])[N]([H])[C](=[O])[N]([H])[c]2[c]([H])[c]([H])[c]([Cl])[c]([H])[c]2[H])[c]([H])[c]1[H]

>  <combo1>  (1) 
-0.8712413300180192

$$$$
