
     RDKit          3D

 41 42  0  0  0  0  0  0  0  0999 V2000
    8.3808    1.9118   26.2807 C   0  0  0  0  0  0  0  0  0  0  0  0
    7.6582    0.6825   26.8595 C   0  0  0  0  0  0  0  0  0  0  0  0
    8.3275   -0.5994   26.4971 C   0  0  0  0  0  0  0  0  0  0  0  0
    8.4121   -1.2410   25.3059 C   0  0  0  0  0  0  0  0  0  0  0  0
    7.6875   -0.9382   24.0514 C   0  0  0  0  0  0  0  0  0  0  0  0
    8.6743   -0.3891   23.1195 N   0  0  0  0  0  4  0  0  0  0  0  0
    8.1115    0.3029   21.9318 C   0  0  0  0  0  0  0  0  0  0  0  0
    9.2093    1.0890   21.2398 C   0  0  0  0  0  0  0  0  0  0  0  0
    9.9579    0.4219   20.7907 H   0  0  0  0  0  0  0  0  0  0  0  0
    9.7091    1.7714   21.9363 H   0  0  0  0  0  0  0  0  0  0  0  0
    8.7564    1.6909   20.4477 H   0  0  0  0  0  0  0  0  0  0  0  0
    7.3952   -0.7034   20.9961 C   0  0  0  0  0  0  0  0  0  0  0  0
    6.6356   -0.0280   19.8734 C   0  0  0  0  0  0  0  0  0  0  0  0
    5.4284    0.6412   20.1218 C   0  0  0  0  0  0  0  0  0  0  0  0
    4.7898    1.3148   19.0784 C   0  0  0  0  0  0  0  0  0  0  0  0
    5.3834    1.3080   17.8116 C   0  0  0  0  0  0  0  0  0  0  0  0
    6.5399    0.6849   17.5514 N   0  0  0  0  0  0  0  0  0  0  0  0
    7.1428    0.0447   18.5623 C   0  0  0  0  0  0  0  0  0  0  0  0
    8.0961   -0.4250   18.3176 H   0  0  0  0  0  0  0  0  0  0  0  0
    4.9155    1.8229   16.9715 H   0  0  0  0  0  0  0  0  0  0  0  0
    3.8644    1.8577   19.2306 H   0  0  0  0  0  0  0  0  0  0  0  0
    5.0111    0.6465   21.1317 H   0  0  0  0  0  0  0  0  0  0  0  0
    8.1372   -1.4138   20.6029 H   0  0  0  0  0  0  0  0  0  0  0  0
    6.6948   -1.2873   21.6094 H   0  0  0  0  0  0  0  0  0  0  0  0
    7.3355    1.0077   22.2806 H   0  0  0  0  0  0  0  0  0  0  0  0
    9.3072    0.2137   23.6928 H   0  0  0  0  0  0  0  0  0  0  0  0
    9.2850   -1.1878   22.8132 H   0  0  0  0  0  0  0  0  0  0  0  0
    6.8716   -0.2112   24.1991 H   0  0  0  0  0  0  0  0  0  0  0  0
    7.2094   -1.8381   23.6376 H   0  0  0  0  0  0  0  0  0  0  0  0
    9.1728   -2.4062   25.6088 C   0  0  0  0  0  0  0  0  0  0  0  0
    9.6232   -3.4590   24.6509 C   0  0  0  0  0  0  0  0  0  0  0  0
    9.9815   -4.3439   25.1833 H   0  0  0  0  0  0  0  0  0  0  0  0
   10.4374   -3.0792   24.0206 H   0  0  0  0  0  0  0  0  0  0  0  0
    8.7930   -3.7341   23.9910 H   0  0  0  0  0  0  0  0  0  0  0  0
    9.4551   -2.4711   26.8845 N   0  0  0  0  0  0  0  0  0  0  0  0
    8.9288   -1.3262   27.4476 O   0  0  0  0  0  0  0  0  0  0  0  0
    6.6279    0.6404   26.4710 H   0  0  0  0  0  0  0  0  0  0  0  0
    7.5746    0.7189   27.9484 H   0  0  0  0  0  0  0  0  0  0  0  0
    8.3948    1.8681   25.1845 H   0  0  0  0  0  0  0  0  0  0  0  0
    9.4235    1.9518   26.6131 H   0  0  0  0  0  0  0  0  0  0  0  0
    7.8922    2.8459   26.5791 H   0  0  0  0  0  0  0  0  0  0  0  0
  1  2  1  0
  2  3  1  0
  3  4  2  0
  4  5  1  0
  5  6  1  0
  6  7  1  0
  7  8  1  0
  8  9  1  0
  8 10  1  0
  8 11  1  0
  7 12  1  0
 12 13  1  0
 13 14  2  0
 14 15  1  0
 15 16  2  0
 16 17  1  0
 17 18  2  0
 18 19  1  0
 16 20  1  0
 15 21  1  0
 14 22  1  0
 12 23  1  0
 12 24  1  0
  7 25  1  0
  6 26  1  0
  6 27  1  0
  5 28  1  0
  5 29  1  0
  4 30  1  0
 30 31  1  0
 31 32  1  0
 31 33  1  0
 31 34  1  0
 30 35  2  0
 35 36  1  0
  2 37  1  0
  2 38  1  0
  1 39  1  0
  1 40  1  0
  1 41  1  0
 36  3  1  0
 18 13  1  0
M  CHG  1   6   1
M  END
>  <cnnaffinity>  (1) 
4.46922

>  <plip>  (1) 
-0.03571428571428571

>  <filename>  (1) 
[H][c]1[n][c]([H])[c]([C]([H])([H])[C]([H])([C]([H])([H])[H])[N+]([H])([H])[C]([H])([H])[c]2[c]([C]([H])([H])[H])[n][o][c]2[C]([H])([H])[C]([H])([H])[H])[c]([H])[c]1[H]

>  <combo1>  (1) 
-0.20435088204454585

$$$$
