
     RDKit          3D

 22 23  0  0  0  0  0  0  0  0999 V2000
    4.3978   -2.3913   18.3267 H   0  0  0  0  0  0  0  0  0  0  0  0
    4.9543   -3.0018   18.9340 N   0  0  0  0  0  0  0  0  0  0  0  0
    5.7129   -2.2845   19.6193 N   0  0  0  0  0  4  0  0  0  0  0  0
    6.5491   -2.8408   20.4307 N   0  0  0  0  0  0  0  0  0  0  0  0
    7.3936   -2.0024   21.1269 C   0  0  0  0  0  0  0  0  0  0  0  0
    8.2275   -2.6085   21.9901 N   0  0  0  0  0  0  0  0  0  0  0  0
    8.8449   -1.8430   22.8745 C   0  0  0  0  0  0  0  0  0  0  0  0
    9.4794   -2.3097   23.6347 H   0  0  0  0  0  0  0  0  0  0  0  0
    8.7377   -0.5083   22.9787 N   0  0  0  0  0  0  0  0  0  0  0  0
    8.0026    0.0920   22.0471 C   0  0  0  0  0  0  0  0  0  0  0  0
    7.9112    1.1757   22.1137 H   0  0  0  0  0  0  0  0  0  0  0  0
    7.3685   -0.5720   21.0025 C   0  0  0  0  0  0  0  0  0  0  0  0
    6.6994    0.1731   19.9087 C   0  0  0  0  0  0  0  0  0  0  0  0
    7.2205    0.2043   18.5970 C   0  0  0  0  0  0  0  0  0  0  0  0
    8.1519   -0.3330   18.4021 H   0  0  0  0  0  0  0  0  0  0  0  0
    6.5980    0.7827   17.5677 N   0  0  0  0  0  0  0  0  0  0  0  0
    5.4182    1.3775   17.8125 C   0  0  0  0  0  0  0  0  0  0  0  0
    4.9396    1.8525   16.9599 H   0  0  0  0  0  0  0  0  0  0  0  0
    4.8063    1.3834   19.0696 C   0  0  0  0  0  0  0  0  0  0  0  0
    3.8308    1.8387   19.1852 H   0  0  0  0  0  0  0  0  0  0  0  0
    5.4655    0.7872   20.1449 C   0  0  0  0  0  0  0  0  0  0  0  0
    5.0148    0.7156   21.1393 H   0  0  0  0  0  0  0  0  0  0  0  0
  1  2  1  0
  2  3  2  0
  3  4  2  0
  4  5  1  0
  5  6  2  0
  6  7  1  0
  7  8  1  0
  7  9  2  0
  9 10  1  0
 10 11  1  0
 10 12  2  0
 12 13  1  0
 13 14  2  0
 14 15  1  0
 14 16  1  0
 16 17  2  0
 17 18  1  0
 17 19  1  0
 19 20  1  0
 19 21  2  0
 21 22  1  0
 12  5  1  0
 21 13  1  0
M  CHG  1   3   1
M  END
>  <cnnaffinity>  (1) 
4.24402

>  <plip>  (1) 
-0.13333333333333333

>  <filename>  (1) 
[H][N]=[N+]=[N][c]1[n][c]([H])[n][c]([H])[c]1-[c]1[c]([H])[n][c]([H])[c]([H])[c]1[H]

>  <combo1>  (1) 
-0.9469174290331237

$$$$
