
     RDKit          3D

 39 42  0  0  0  0  0  0  0  0999 V2000
   12.4963    6.0481   24.3841 C   0  0  0  0  0  0  0  0  0  0  0  0
   11.1076    5.4602   24.5227 C   0  0  0  0  0  0  0  0  0  0  0  0
   10.3980    4.9471   23.4232 C   0  0  0  0  0  0  0  0  0  0  0  0
    9.1453    4.3391   23.5841 C   0  0  0  0  0  0  0  0  0  0  0  0
    8.6079    4.1638   24.8652 C   0  0  0  0  0  0  0  0  0  0  0  0
    7.0744    3.2896   25.1352 S   0  0  0  0  0  0  0  0  0  0  0  0
    7.6920    1.5880   25.3702 C   0  0  0  0  0  0  0  0  0  0  0  0
    8.1662    0.9350   24.0837 C   0  0  0  0  0  0  0  0  0  0  0  0
    7.1214    0.8281   22.9583 C   0  0  0  0  0  0  0  0  0  0  0  0
    7.5550   -0.3027   22.1765 N   0  0  0  0  0  0  0  0  0  0  0  0
    8.3933   -1.2059   22.7524 C   0  0  0  0  0  0  0  0  0  0  0  0
    8.7643   -2.1249   21.9085 N   0  0  0  0  0  0  0  0  0  0  0  0
    8.1701   -1.7908   20.7062 N   0  0  0  0  0  0  0  0  0  0  0  0
    7.4368   -0.7165   20.8883 C   0  0  0  0  0  0  0  0  0  0  0  0
    6.6408   -0.0044   19.8817 C   0  0  0  0  0  0  0  0  0  0  0  0
    5.4244    0.6499   20.1402 C   0  0  0  0  0  0  0  0  0  0  0  0
    4.7945    1.3095   19.0843 C   0  0  0  0  0  0  0  0  0  0  0  0
    5.4066    1.2986   17.8253 C   0  0  0  0  0  0  0  0  0  0  0  0
    6.5614    0.6678   17.5639 N   0  0  0  0  0  0  0  0  0  0  0  0
    7.1544    0.0336   18.5781 C   0  0  0  0  0  0  0  0  0  0  0  0
    8.0953   -0.4661   18.3578 H   0  0  0  0  0  0  0  0  0  0  0  0
    4.9493    1.8176   16.9871 H   0  0  0  0  0  0  0  0  0  0  0  0
    3.8589    1.8428   19.2277 H   0  0  0  0  0  0  0  0  0  0  0  0
    4.9694    0.6405   21.1321 H   0  0  0  0  0  0  0  0  0  0  0  0
    8.7440   -0.7859   24.4131 S   0  0  0  0  0  0  0  0  0  0  0  0
    6.1218    0.6355   23.3683 H   0  0  0  0  0  0  0  0  0  0  0  0
    7.0794    1.7363   22.3467 H   0  0  0  0  0  0  0  0  0  0  0  0
    9.0393    1.4684   23.6935 H   0  0  0  0  0  0  0  0  0  0  0  0
    6.8564    1.0255   25.8037 H   0  0  0  0  0  0  0  0  0  0  0  0
    8.4999    1.5800   26.1071 H   0  0  0  0  0  0  0  0  0  0  0  0
    9.3088    4.6678   25.9676 C   0  0  0  0  0  0  0  0  0  0  0  0
   10.5059    5.3660   25.7878 C   0  0  0  0  0  0  0  0  0  0  0  0
   11.0118    5.7887   26.6530 H   0  0  0  0  0  0  0  0  0  0  0  0
    8.9139    4.4846   26.9621 H   0  0  0  0  0  0  0  0  0  0  0  0
    8.6165    3.9395   22.7211 H   0  0  0  0  0  0  0  0  0  0  0  0
   10.8325    5.0050   22.4292 H   0  0  0  0  0  0  0  0  0  0  0  0
   12.4946    7.1429   24.3205 H   0  0  0  0  0  0  0  0  0  0  0  0
   13.0126    5.6683   23.4972 H   0  0  0  0  0  0  0  0  0  0  0  0
   13.1122    5.7788   25.2491 H   0  0  0  0  0  0  0  0  0  0  0  0
  1  2  1  0
  2  3  2  0
  3  4  1  0
  4  5  2  0
  5  6  1  0
  6  7  1  0
  7  8  1  0
  8  9  1  0
  9 10  1  0
 10 11  1  0
 11 12  2  0
 12 13  1  0
 13 14  2  0
 14 15  1  0
 15 16  2  0
 16 17  1  0
 17 18  2  0
 18 19  1  0
 19 20  2  0
 20 21  1  0
 18 22  1  0
 17 23  1  0
 16 24  1  0
 11 25  1  0
  9 26  1  0
  9 27  1  0
  8 28  1  0
  7 29  1  0
  7 30  1  0
  5 31  1  0
 31 32  2  0
 32 33  1  0
 31 34  1  0
  4 35  1  0
  3 36  1  0
  1 37  1  0
  1 38  1  0
  1 39  1  0
 32  2  1  0
 25  8  1  0
 14 10  1  0
 20 15  1  0
M  END
>  <cnnaffinity>  (1) 
5.48084

>  <plip>  (1) 
-0.06896551724137931

>  <filename>  (1) 
[H][c]1[n][c]([H])[c](-[c]2[n][n][c]3[n]2[C]([H])([H])[C]([H])([C]([H])([H])[S][c]2[c]([H])[c]([H])[c]([C]([H])([H])[H])[c]([H])[c]2[H])[S]3)[c]([H])[c]1[H]

>  <combo1>  (1) 
-0.3700582472210474

$$$$
