
     RDKit          3D

 30 31  0  0  0  0  0  0  0  0999 V2000
    9.5849    2.0187   24.0935 O   0  0  0  0  0  0  0  0  0  0  0  0
    9.3375    2.1915   22.9140 C   0  0  0  0  0  0  0  0  0  0  0  0
    8.1797    1.4760   22.2303 C   0  0  0  0  0  0  0  0  0  0  0  0
    8.5968    0.1643   21.5285 C   0  0  0  0  0  0  0  0  0  0  0  0
    7.4223   -0.6880   20.9944 C   0  0  0  0  0  0  0  0  0  0  0  0
    6.6400   -0.0183   19.8781 C   0  0  0  0  0  0  0  0  0  0  0  0
    5.4191    0.6376   20.1078 C   0  0  0  0  0  0  0  0  0  0  0  0
    4.7877    1.3108   19.0598 C   0  0  0  0  0  0  0  0  0  0  0  0
    5.3979    1.3076   17.8054 C   0  0  0  0  0  0  0  0  0  0  0  0
    6.5528    0.6756   17.5464 N   0  0  0  0  0  0  0  0  0  0  0  0
    7.1485    0.0399   18.5641 C   0  0  0  0  0  0  0  0  0  0  0  0
    8.0990   -0.4413   18.3161 H   0  0  0  0  0  0  0  0  0  0  0  0
    4.9452    1.8467   16.9761 H   0  0  0  0  0  0  0  0  0  0  0  0
    3.8599    1.8544   19.2089 H   0  0  0  0  0  0  0  0  0  0  0  0
    4.9824    0.6479   21.1077 H   0  0  0  0  0  0  0  0  0  0  0  0
    7.8423   -1.6385   20.6376 H   0  0  0  0  0  0  0  0  0  0  0  0
    6.7515   -0.9598   21.8233 H   0  0  0  0  0  0  0  0  0  0  0  0
    9.2648    0.3829   20.6836 H   0  0  0  0  0  0  0  0  0  0  0  0
    9.1775   -0.4403   22.2402 H   0  0  0  0  0  0  0  0  0  0  0  0
    7.4718    1.2497   23.0361 H   0  0  0  0  0  0  0  0  0  0  0  0
    7.6837    2.1518   21.5264 H   0  0  0  0  0  0  0  0  0  0  0  0
   10.1094    2.9989   22.1015 N   0  0  0  0  0  0  0  0  0  0  0  0
   11.3433    3.6218   22.4412 C   0  0  0  0  0  0  0  0  0  0  0  0
   12.0651    4.5693   21.7898 C   0  0  0  0  0  0  0  0  0  0  0  0
   13.1667    4.8829   22.4943 O   0  0  0  0  0  0  0  0  0  0  0  0
   13.2090    4.1289   23.6392 N   0  0  0  0  0  0  0  0  0  0  0  0
   12.1376    3.3801   23.6013 C   0  0  0  0  0  0  0  0  0  0  0  0
   11.8805    2.6596   24.3634 H   0  0  0  0  0  0  0  0  0  0  0  0
   11.9349    5.1069   20.8690 H   0  0  0  0  0  0  0  0  0  0  0  0
    9.6883    3.2383   21.2154 H   0  0  0  0  0  0  0  0  0  0  0  0
  1  2  2  0
  2  3  1  0
  3  4  1  0
  4  5  1  0
  5  6  1  0
  6  7  2  0
  7  8  1  0
  8  9  2  0
  9 10  1  0
 10 11  2  0
 11 12  1  0
  9 13  1  0
  8 14  1  0
  7 15  1  0
  5 16  1  0
  5 17  1  0
  4 18  1  0
  4 19  1  0
  3 20  1  0
  3 21  1  0
  2 22  1  0
 22 23  1  0
 23 24  2  0
 24 25  1  0
 25 26  1  0
 26 27  2  0
 27 28  1  0
 24 29  1  0
 22 30  1  0
 11  6  1  0
 27 23  1  0
M  END
>  <cnnaffinity>  (1) 
4.4992

>  <plip>  (1) 
-0.06666666666666667

>  <filename>  (1) 
[H][c]1[n][c]([H])[c]([C]([H])([H])[C]([H])([H])[C]([H])([H])[C](=[O])[N]([H])[c]2[c]([H])[n][o][c]2[H])[c]([H])[c]1[H]

>  <combo1>  (1) 
-0.43234620752944664

$$$$
