
     RDKit          3D

 40 41  0  0  0  0  0  0  0  0999 V2000
    8.4253   -4.1253   24.6268 C   0  0  0  0  0  0  0  0  0  0  0  0
    7.1908   -3.2887   24.9189 N   0  0  0  0  0  4  0  0  0  0  0  0
    6.7948   -2.4395   23.7378 C   0  0  0  0  0  0  0  0  0  0  0  0
    7.8707   -1.4323   23.3254 C   0  0  0  0  0  0  0  0  0  0  0  0
    7.2097   -0.3983   22.4323 C   0  0  0  0  0  0  0  0  0  0  0  0
    6.5654    0.5095   22.9167 O   0  0  0  0  0  0  0  0  0  0  0  0
    7.3217   -0.6465   21.0793 N   0  0  0  0  0  0  0  0  0  0  0  0
    6.6997    0.0290   19.9895 C   0  0  0  0  0  0  0  0  0  0  0  0
    5.5207    0.7682   20.1687 C   0  0  0  0  0  0  0  0  0  0  0  0
    4.9252    1.3501   19.0424 C   0  0  0  0  0  0  0  0  0  0  0  0
    5.5278    1.2116   17.7896 C   0  0  0  0  0  0  0  0  0  0  0  0
    6.6689    0.5271   17.6046 N   0  0  0  0  0  0  0  0  0  0  0  0
    7.2355   -0.0399   18.6765 C   0  0  0  0  0  0  0  0  0  0  0  0
    8.1785   -0.5555   18.4903 H   0  0  0  0  0  0  0  0  0  0  0  0
    5.0841    1.6695   16.9072 H   0  0  0  0  0  0  0  0  0  0  0  0
    4.0187    1.9374   19.1342 H   0  0  0  0  0  0  0  0  0  0  0  0
    5.1189    0.8943   21.1716 H   0  0  0  0  0  0  0  0  0  0  0  0
    7.9899   -1.3689   20.8555 H   0  0  0  0  0  0  0  0  0  0  0  0
    8.7258   -1.9175   22.8462 H   0  0  0  0  0  0  0  0  0  0  0  0
    8.2139   -0.9136   24.2234 H   0  0  0  0  0  0  0  0  0  0  0  0
    6.5414   -3.0965   22.8923 H   0  0  0  0  0  0  0  0  0  0  0  0
    5.8853   -1.8835   23.9925 H   0  0  0  0  0  0  0  0  0  0  0  0
    6.0259   -4.1856   25.3282 C   0  0  0  0  0  0  0  0  0  0  0  0
    6.0717   -4.7419   26.7393 C   0  0  0  0  0  0  0  0  0  0  0  0
    5.9306   -3.9214   27.8690 C   0  0  0  0  0  0  0  0  0  0  0  0
    5.8117   -4.4827   29.1476 C   0  0  0  0  0  0  0  0  0  0  0  0
    5.8478   -5.8681   29.3255 C   0  0  0  0  0  0  0  0  0  0  0  0
    5.6572   -6.5429   30.9112 Cl  0  0  0  0  0  0  0  0  0  0  0  0
    5.9902   -6.6896   28.2024 C   0  0  0  0  0  0  0  0  0  0  0  0
    6.0006   -8.0178   28.3414 F   0  0  0  0  0  0  0  0  0  0  0  0
    6.0942   -6.1364   26.9247 C   0  0  0  0  0  0  0  0  0  0  0  0
    6.1815   -6.8293   26.0913 H   0  0  0  0  0  0  0  0  0  0  0  0
    5.6963   -3.8474   30.0203 H   0  0  0  0  0  0  0  0  0  0  0  0
    5.8752   -2.8356   27.7890 H   0  0  0  0  0  0  0  0  0  0  0  0
    5.9795   -5.0223   24.6205 H   0  0  0  0  0  0  0  0  0  0  0  0
    5.1079   -3.6037   25.1880 H   0  0  0  0  0  0  0  0  0  0  0  0
    7.3845   -2.6678   25.7454 H   0  0  0  0  0  0  0  0  0  0  0  0
    8.6337   -4.7940   25.4627 H   0  0  0  0  0  0  0  0  0  0  0  0
    8.2619   -4.7436   23.7337 H   0  0  0  0  0  0  0  0  0  0  0  0
    9.3025   -3.4962   24.4544 H   0  0  0  0  0  0  0  0  0  0  0  0
  1  2  1  0
  2  3  1  0
  3  4  1  0
  4  5  1  0
  5  6  2  0
  5  7  1  0
  7  8  1  0
  8  9  2  0
  9 10  1  0
 10 11  2  0
 11 12  1  0
 12 13  2  0
 13 14  1  0
 11 15  1  0
 10 16  1  0
  9 17  1  0
  7 18  1  0
  4 19  1  0
  4 20  1  0
  3 21  1  0
  3 22  1  0
  2 23  1  0
 23 24  1  0
 24 25  2  0
 25 26  1  0
 26 27  2  0
 27 28  1  0
 27 29  1  0
 29 30  1  0
 29 31  2  0
 31 32  1  0
 26 33  1  0
 25 34  1  0
 23 35  1  0
 23 36  1  0
  2 37  1  0
  1 38  1  0
  1 39  1  0
  1 40  1  0
 13  8  1  0
 31 24  1  0
M  CHG  1   2   1
M  END
>  <cnnaffinity>  (1) 
4.82034

>  <plip>  (1) 
-0.10344827586206896

>  <filename>  (1) 
[H][c]1[n][c]([H])[c]([N]([H])[C](=[O])[C]([H])([H])[C]([H])([H])[N+]([H])([C]([H])([H])[H])[C]([H])([H])[c]2[c]([H])[c]([H])[c]([Cl])[c]([F])[c]2[H])[c]([H])[c]1[H]

>  <combo1>  (1) 
-0.5149419305050488

$$$$
