
     RDKit          3D

 46 48  0  0  0  0  0  0  0  0999 V2000
    7.2912    2.3720   25.3624 C   0  0  0  0  0  0  0  0  0  0  0  0
    7.9243    1.9211   24.1716 O   0  0  0  0  0  0  0  0  0  0  0  0
    9.2343    2.2783   23.9796 C   0  0  0  0  0  0  0  0  0  0  0  0
    9.7915    3.4624   24.4336 C   0  0  0  0  0  0  0  0  0  0  0  0
   11.0835    3.7768   24.0042 C   0  0  0  0  0  0  0  0  0  0  0  0
   11.6827    5.0887   24.3962 C   0  0  0  0  0  0  0  0  0  0  0  0
   11.1060    5.9130   23.9655 H   0  0  0  0  0  0  0  0  0  0  0  0
   11.6551    5.2158   25.4798 H   0  0  0  0  0  0  0  0  0  0  0  0
   12.7124    5.1629   24.0500 H   0  0  0  0  0  0  0  0  0  0  0  0
   11.8157    2.9731   23.2300 N   0  0  0  0  0  0  0  0  0  0  0  0
   11.2644    1.8169   22.8384 C   0  0  0  0  0  0  0  0  0  0  0  0
   10.0024    1.3921   23.2073 C   0  0  0  0  0  0  0  0  0  0  0  0
    9.3973    0.1138   22.7401 C   0  0  0  0  0  0  0  0  0  0  0  0
    8.2484    0.5454   21.9467 N   0  0  0  0  0  4  0  0  0  0  0  0
    7.3584   -0.4676   21.2963 C   0  0  0  0  0  0  0  0  0  0  0  0
    6.6732    0.3331   20.1939 C   0  0  0  0  0  0  0  0  0  0  0  0
    5.4046    0.9264   20.2960 C   0  0  0  0  0  0  0  0  0  0  0  0
    4.8441    1.5248   19.1611 C   0  0  0  0  0  0  0  0  0  0  0  0
    5.5670    1.5233   17.9673 C   0  0  0  0  0  0  0  0  0  0  0  0
    6.8000    1.0083   17.8604 N   0  0  0  0  0  0  0  0  0  0  0  0
    7.3413    0.4749   18.9609 C   0  0  0  0  0  0  0  0  0  0  0  0
    8.3558    0.0943   18.8231 H   0  0  0  0  0  0  0  0  0  0  0  0
    5.1415    1.9439   17.0550 H   0  0  0  0  0  0  0  0  0  0  0  0
    3.8852    2.0263   19.1992 H   0  0  0  0  0  0  0  0  0  0  0  0
    4.8631    0.9223   21.2453 H   0  0  0  0  0  0  0  0  0  0  0  0
    8.0930   -1.7076   20.7373 C   0  0  0  0  0  0  0  0  0  0  0  0
    8.2979   -2.7140   21.8776 C   0  0  0  0  0  0  0  0  0  0  0  0
    7.1285   -2.4372   22.8493 C   0  0  0  0  0  0  0  0  0  0  0  0
    6.4256   -1.1640   22.3077 C   0  0  0  0  0  0  0  0  0  0  0  0
    6.1254   -0.4752   23.1071 H   0  0  0  0  0  0  0  0  0  0  0  0
    5.5486   -1.4788   21.7306 H   0  0  0  0  0  0  0  0  0  0  0  0
    6.4183   -3.2692   22.8864 H   0  0  0  0  0  0  0  0  0  0  0  0
    7.4969   -2.2998   23.8722 H   0  0  0  0  0  0  0  0  0  0  0  0
    8.3280   -3.7418   21.4966 H   0  0  0  0  0  0  0  0  0  0  0  0
    9.2570   -2.5564   22.3800 H   0  0  0  0  0  0  0  0  0  0  0  0
    7.3780   -2.1321   20.0262 H   0  0  0  0  0  0  0  0  0  0  0  0
    9.0126   -1.4537   20.2008 H   0  0  0  0  0  0  0  0  0  0  0  0
    8.5298    1.2158   21.2028 H   0  0  0  0  0  0  0  0  0  0  0  0
    7.6673    1.1149   22.5979 H   0  0  0  0  0  0  0  0  0  0  0  0
    9.0755   -0.5183   23.5806 H   0  0  0  0  0  0  0  0  0  0  0  0
   10.1133   -0.4558   22.1445 H   0  0  0  0  0  0  0  0  0  0  0  0
   11.8625    1.1919   22.1701 H   0  0  0  0  0  0  0  0  0  0  0  0
    9.2464    4.1493   25.0720 H   0  0  0  0  0  0  0  0  0  0  0  0
    6.3768    1.7890   25.4863 H   0  0  0  0  0  0  0  0  0  0  0  0
    7.0295    3.4325   25.2969 H   0  0  0  0  0  0  0  0  0  0  0  0
    7.9344    2.2181   26.2361 H   0  0  0  0  0  0  0  0  0  0  0  0
  1  2  1  0
  2  3  1  0
  3  4  2  0
  4  5  1  0
  5  6  1  0
  6  7  1  0
  6  8  1  0
  6  9  1  0
  5 10  2  0
 10 11  1  0
 11 12  2  0
 12 13  1  0
 13 14  1  0
 14 15  1  0
 15 16  1  0
 16 17  2  0
 17 18  1  0
 18 19  2  0
 19 20  1  0
 20 21  2  0
 21 22  1  0
 19 23  1  0
 18 24  1  0
 17 25  1  0
 15 26  1  0
 26 27  1  0
 27 28  1  0
 28 29  1  0
 29 30  1  0
 29 31  1  0
 28 32  1  0
 28 33  1  0
 27 34  1  0
 27 35  1  0
 26 36  1  0
 26 37  1  0
 14 38  1  0
 14 39  1  0
 13 40  1  0
 13 41  1  0
 11 42  1  0
  4 43  1  0
  1 44  1  0
  1 45  1  0
  1 46  1  0
 12  3  1  0
 29 15  1  0
 21 16  1  0
M  CHG  1  14   1
M  END
>  <cnnaffinity>  (1) 
5.60253

>  <plip>  (1) 
-0.03571428571428571

>  <filename>  (1) 
[H][c]1[n][c]([H])[c]([C]2([N+]([H])([H])[C]([H])([H])[c]3[c]([H])[n][c]([C]([H])([H])[H])[c]([H])[c]3[O][C]([H])([H])[H])[C]([H])([H])[C]([H])([H])[C]([H])([H])[C]2([H])[H])[c]([H])[c]1[H]

>  <combo1>  (1) 
-0.22350720724602313

$$$$
