
     RDKit          3D

 28 29  0  0  0  0  0  0  0  0999 V2000
    4.9183    1.7944   16.9882 H   0  0  0  0  0  0  0  0  0  0  0  0
    5.3903    1.2969   17.8325 C   0  0  0  0  0  0  0  0  0  0  0  0
    6.5508    0.6762   17.5694 N   0  0  0  0  0  0  0  0  0  0  0  0
    7.1533    0.0371   18.5772 C   0  0  0  0  0  0  0  0  0  0  0  0
    8.1140   -0.4269   18.3571 H   0  0  0  0  0  0  0  0  0  0  0  0
    6.6243   -0.0302   19.8828 C   0  0  0  0  0  0  0  0  0  0  0  0
    7.5459   -0.8489   21.1880 S   0  0  0  0  0  0  0  0  0  0  0  0
    8.4674    0.5778   21.7119 C   0  0  0  0  0  0  0  0  0  0  0  0
    9.6333    0.9649   21.2347 N   0  0  0  0  0  0  0  0  0  0  0  0
    9.9014    2.1492   21.8244 N   0  0  0  0  0  0  0  0  0  0  0  0
    8.9574    2.5044   22.6210 N   0  0  0  0  0  0  0  0  0  0  0  0
    8.0481    1.5287   22.5629 N   0  0  0  0  0  0  0  0  0  0  0  0
    6.8428    1.5297   23.1820 O   0  0  0  0  0  0  0  0  0  0  0  0
    6.6057    2.5840   24.1392 C   0  0  0  0  0  0  0  0  0  0  0  0
    6.8110    3.5709   23.7196 H   0  0  0  0  0  0  0  0  0  0  0  0
    5.5332    2.4825   24.2860 H   0  0  0  0  0  0  0  0  0  0  0  0
    7.3553    2.3573   25.4466 C   0  0  0  0  0  0  0  0  0  0  0  0
    7.1250    1.3482   25.8260 H   0  0  0  0  0  0  0  0  0  0  0  0
    8.4322    2.4071   25.2521 H   0  0  0  0  0  0  0  0  0  0  0  0
    7.0153    3.3580   26.3906 O   0  0  0  0  0  0  0  0  0  0  0  0
    6.0159    2.9802   27.3160 C   0  0  0  0  0  0  0  0  0  0  0  0
    5.0875    2.6462   26.8207 H   0  0  0  0  0  0  0  0  0  0  0  0
    5.7881    3.8572   27.9301 H   0  0  0  0  0  0  0  0  0  0  0  0
    6.3586    2.1604   27.9706 H   0  0  0  0  0  0  0  0  0  0  0  0
    5.4253    0.6388   20.1547 C   0  0  0  0  0  0  0  0  0  0  0  0
    5.0134    0.6441   21.1687 H   0  0  0  0  0  0  0  0  0  0  0  0
    4.7991    1.3109   19.1004 C   0  0  0  0  0  0  0  0  0  0  0  0
    3.8717    1.8483   19.2481 H   0  0  0  0  0  0  0  0  0  0  0  0
  1  2  1  0
  2  3  2  0
  3  4  1  0
  4  5  1  0
  4  6  2  0
  6  7  1  0
  7  8  1  0
  8  9  2  0
  9 10  1  0
 10 11  2  0
 11 12  1  0
 12 13  1  0
 13 14  1  0
 14 15  1  0
 14 16  1  0
 14 17  1  0
 17 18  1  0
 17 19  1  0
 17 20  1  0
 20 21  1  0
 21 22  1  0
 21 23  1  0
 21 24  1  0
  6 25  1  0
 25 26  1  0
 25 27  2  0
 27 28  1  0
 27  2  1  0
 12  8  1  0
M  END
>  <cnnaffinity>  (1) 
4.46735

>  <plip>  (1) 
-0.03571428571428571

>  <filename>  (1) 
[H][c]1[n][c]([H])[c]([S][c]2[n][n][n][n]2[O][C]([H])([H])[C]([H])([H])[O][C]([H])([H])[H])[c]([H])[c]1[H]

>  <combo1>  (1) 
-0.20997026335831717

$$$$
