
     RDKit          3D

 27 29  0  0  0  0  0  0  0  0999 V2000
   11.4694    3.0205   20.9638 H   0  0  0  0  0  0  0  0  0  0  0  0
   10.5744    2.5030   21.3018 C   0  0  0  0  0  0  0  0  0  0  0  0
    9.6199    2.9343   22.0557 N   0  0  0  0  0  0  0  0  0  0  0  0
    8.7288    1.8722   22.1222 C   0  0  0  0  0  0  0  0  0  0  0  0
    7.8166    1.9317   22.6988 H   0  0  0  0  0  0  0  0  0  0  0  0
    9.2082    0.8369   21.3972 C   0  0  0  0  0  0  0  0  0  0  0  0
    8.8473   -0.6012   21.1647 C   0  0  2  0  0  0  0  0  0  0  0  0
    9.5046   -0.9316   20.3494 H   0  0  0  0  0  0  0  0  0  0  0  0
    7.4412   -0.8393   20.8473 N   0  0  0  0  0  0  0  0  0  0  0  0
    6.7394   -0.1236   19.8373 C   0  0  0  0  0  0  0  0  0  0  0  0
    7.2510    0.0260   18.5252 C   0  0  0  0  0  0  0  0  0  0  0  0
    8.2010   -0.4350   18.2710 H   0  0  0  0  0  0  0  0  0  0  0  0
    6.6291    0.6971   17.5471 N   0  0  0  0  0  0  0  0  0  0  0  0
    5.4649    1.2877   17.8578 C   0  0  0  0  0  0  0  0  0  0  0  0
    4.9652    1.8144   17.0511 H   0  0  0  0  0  0  0  0  0  0  0  0
    4.8825    1.2332   19.1318 C   0  0  0  0  0  0  0  0  0  0  0  0
    3.9536    1.7634   19.3230 H   0  0  0  0  0  0  0  0  0  0  0  0
    5.5243    0.5101   20.1429 C   0  0  0  0  0  0  0  0  0  0  0  0
    5.1129    0.4459   21.1533 H   0  0  0  0  0  0  0  0  0  0  0  0
    6.8298   -1.7001   21.7636 C   0  0  0  0  0  0  0  0  0  0  0  0
    5.7786   -2.2904   21.6578 O   0  0  0  0  0  0  0  0  0  0  0  0
    7.7031   -1.8131   22.8209 N   0  0  0  0  0  0  0  0  0  0  0  0
    7.5071   -2.6305   23.3719 H   0  0  0  0  0  0  0  0  0  0  0  0
    9.0591   -1.4967   22.4156 C   0  0  0  0  0  0  0  0  0  0  0  0
    9.6182   -2.3987   22.1433 H   0  0  0  0  0  0  0  0  0  0  0  0
    9.6017   -0.9931   23.2210 H   0  0  0  0  0  0  0  0  0  0  0  0
   10.4030    1.2377   20.8689 O   0  0  0  0  0  0  0  0  0  0  0  0
  1  2  1  0
  2  3  2  0
  3  4  1  0
  4  5  1  0
  4  6  2  0
  6  7  1  0
  7  8  1  6
  7  9  1  0
  9 10  1  0
 10 11  2  0
 11 12  1  0
 11 13  1  0
 13 14  2  0
 14 15  1  0
 14 16  1  0
 16 17  1  0
 16 18  2  0
 18 19  1  0
  9 20  1  0
 20 21  2  0
 20 22  1  0
 22 23  1  0
 22 24  1  0
 24 25  1  0
 24 26  1  0
  6 27  1  0
 27  2  1  0
 24  7  1  0
 18 10  1  0
M  END
>  <cnnaffinity>  (1) 
4.95125

>  <plip>  (1) 
-0.10714285714285714

>  <filename>  (1) 
[H][c]1[n][c]([H])[c]([C@]2([H])[N]([c]3[c]([H])[n][c]([H])[c]([H])[c]3[H])[C](=[O])[N]([H])[C]2([H])[H])[o]1

>  <combo1>  (1) 
-0.7680695884620706

$$$$
