
     RDKit          3D

 31 32  0  0  0  0  0  0  0  0999 V2000
    4.9304    1.8231   16.9808 H   0  0  0  0  0  0  0  0  0  0  0  0
    5.3954    1.3679   17.8551 C   0  0  0  0  0  0  0  0  0  0  0  0
    6.5334    0.7008   17.6359 N   0  0  0  0  0  0  0  0  0  0  0  0
    7.1276    0.1439   18.7014 C   0  0  0  0  0  0  0  0  0  0  0  0
    8.0559   -0.3834   18.4735 H   0  0  0  0  0  0  0  0  0  0  0  0
    6.6495    0.1939   20.0273 C   0  0  0  0  0  0  0  0  0  0  0  0
    7.5036   -0.4470   21.1386 C   0  0  0  0  0  0  0  0  0  0  0  0
    6.8004   -0.5182   22.4952 C   0  0  0  0  0  0  0  0  0  0  0  0
    7.4844   -0.9313   23.2467 H   0  0  0  0  0  0  0  0  0  0  0  0
    6.4629    0.4568   22.8538 H   0  0  0  0  0  0  0  0  0  0  0  0
    5.9585   -1.2048   22.4152 H   0  0  0  0  0  0  0  0  0  0  0  0
    7.8425   -1.8956   20.7449 C   0  0  0  0  0  0  0  0  0  0  0  0
    8.6494   -1.9008   20.0097 H   0  0  0  0  0  0  0  0  0  0  0  0
    6.9814   -2.4324   20.3365 H   0  0  0  0  0  0  0  0  0  0  0  0
    8.1978   -2.4728   21.6053 H   0  0  0  0  0  0  0  0  0  0  0  0
    8.8669    0.2907   21.2973 C   0  0  0  0  0  0  0  0  0  0  0  0
    9.3338    0.3860   20.3099 H   0  0  0  0  0  0  0  0  0  0  0  0
    9.5356   -0.3178   21.9051 H   0  0  0  0  0  0  0  0  0  0  0  0
    8.8181    1.6377   21.9001 C   0  0  0  0  0  0  0  0  0  0  0  0
    9.5541    2.1538   22.8249 N   0  0  0  0  0  0  0  0  0  0  0  0
    9.1378    3.4790   22.9595 N   0  0  0  0  0  0  0  0  0  0  0  0
    8.1821    3.6445   22.1107 C   0  0  0  0  0  0  0  0  0  0  0  0
    7.3071    4.8081   21.8366 C   0  0  0  0  0  0  0  0  0  0  0  0
    7.6285    5.3433   20.9361 H   0  0  0  0  0  0  0  0  0  0  0  0
    6.2837    4.4467   21.6977 H   0  0  0  0  0  0  0  0  0  0  0  0
    7.3262    5.4923   22.6800 H   0  0  0  0  0  0  0  0  0  0  0  0
    7.9358    2.5285   21.3873 O   0  0  0  0  0  0  0  0  0  0  0  0
    5.4312    0.8666   20.2122 C   0  0  0  0  0  0  0  0  0  0  0  0
    4.9655    0.9282   21.1974 H   0  0  0  0  0  0  0  0  0  0  0  0
    4.8087    1.4803   19.1165 C   0  0  0  0  0  0  0  0  0  0  0  0
    3.8956    2.0505   19.2324 H   0  0  0  0  0  0  0  0  0  0  0  0
  1  2  1  0
  2  3  2  0
  3  4  1  0
  4  5  1  0
  4  6  2  0
  6  7  1  0
  7  8  1  0
  8  9  1  0
  8 10  1  0
  8 11  1  0
  7 12  1  0
 12 13  1  0
 12 14  1  0
 12 15  1  0
  7 16  1  0
 16 17  1  0
 16 18  1  0
 16 19  1  0
 19 20  2  0
 20 21  1  0
 21 22  2  0
 22 23  1  0
 23 24  1  0
 23 25  1  0
 23 26  1  0
 22 27  1  0
  6 28  1  0
 28 29  1  0
 28 30  2  0
 30 31  1  0
 30  2  1  0
 27 19  1  0
M  END
>  <cnnaffinity>  (1) 
4.41398

>  <plip>  (1) 
-0.0

>  <filename>  (1) 
[H][c]1[n][c]([H])[c]([C]([C]([H])([H])[H])([C]([H])([H])[H])[C]([H])([H])[c]2[n][n][c]([C]([H])([H])[H])[o]2)[c]([H])[c]1[H]

>  <combo1>  (1) 
-6.771819040956345e-06

$$$$
