
     RDKit          3D

 39 40  0  0  0  0  0  0  0  0999 V2000
   10.1019    1.9087   22.0909 C   0  0  0  0  0  0  0  0  0  0  0  0
    8.7249    1.3318   21.7699 C   0  0  0  0  0  0  0  0  0  0  0  0
    8.7658   -0.1292   21.3045 C   0  0  0  0  0  0  0  0  0  0  0  0
    7.3731   -0.7361   21.0426 C   0  0  0  0  0  0  0  0  0  0  0  0
    7.4775   -2.1448   20.7167 N   0  0  0  0  0  0  0  0  0  0  0  0
    7.1056   -3.1957   21.5344 C   0  0  0  0  0  0  0  0  0  0  0  0
    7.2677   -3.1273   22.9340 C   0  0  0  0  0  0  0  0  0  0  0  0
    6.8707   -4.1576   23.7817 C   0  0  0  0  0  0  0  0  0  0  0  0
    6.2914   -5.3204   23.2573 C   0  0  0  0  0  0  0  0  0  0  0  0
    5.8287   -6.2347   24.1550 O   0  0  0  0  0  0  0  0  0  0  0  0
    5.1564   -7.3682   23.6315 C   0  0  0  0  0  0  0  0  0  0  0  0
    4.9352   -8.0485   24.4522 H   0  0  0  0  0  0  0  0  0  0  0  0
    5.8147   -7.8993   22.9376 H   0  0  0  0  0  0  0  0  0  0  0  0
    4.2254   -7.0891   23.1222 H   0  0  0  0  0  0  0  0  0  0  0  0
    6.1976   -5.4563   21.8656 C   0  0  0  0  0  0  0  0  0  0  0  0
    6.5433   -4.3903   21.0305 C   0  0  0  0  0  0  0  0  0  0  0  0
    6.0848   -4.5259   19.3543 Cl  0  0  0  0  0  0  0  0  0  0  0  0
    5.8516   -6.3806   21.4217 H   0  0  0  0  0  0  0  0  0  0  0  0
    6.9769   -4.0815   24.8569 H   0  0  0  0  0  0  0  0  0  0  0  0
    7.6992   -2.2216   23.3456 H   0  0  0  0  0  0  0  0  0  0  0  0
    7.5637   -2.3584   19.7371 H   0  0  0  0  0  0  0  0  0  0  0  0
    6.6291   -0.0202   19.9305 C   0  0  0  0  0  0  0  0  0  0  0  0
    5.4177    0.6536   20.1480 C   0  0  0  0  0  0  0  0  0  0  0  0
    4.8072    1.3080   19.0770 C   0  0  0  0  0  0  0  0  0  0  0  0
    5.4314    1.2730   17.8275 C   0  0  0  0  0  0  0  0  0  0  0  0
    6.5854    0.6299   17.5959 N   0  0  0  0  0  0  0  0  0  0  0  0
    7.1586    0.0015   18.6322 C   0  0  0  0  0  0  0  0  0  0  0  0
    8.1110   -0.4881   18.4078 H   0  0  0  0  0  0  0  0  0  0  0  0
    4.9902    1.7896   16.9784 H   0  0  0  0  0  0  0  0  0  0  0  0
    3.8808    1.8560   19.2038 H   0  0  0  0  0  0  0  0  0  0  0  0
    4.9655    0.6695   21.1418 H   0  0  0  0  0  0  0  0  0  0  0  0
    6.7836   -0.6350   21.9655 H   0  0  0  0  0  0  0  0  0  0  0  0
    9.2756   -0.7518   22.0542 H   0  0  0  0  0  0  0  0  0  0  0  0
    9.3579   -0.2105   20.3837 H   0  0  0  0  0  0  0  0  0  0  0  0
    8.0950    1.4144   22.6674 H   0  0  0  0  0  0  0  0  0  0  0  0
    8.2388    1.9363   20.9912 H   0  0  0  0  0  0  0  0  0  0  0  0
   10.7591    1.9025   21.2143 H   0  0  0  0  0  0  0  0  0  0  0  0
   10.0249    2.9458   22.4351 H   0  0  0  0  0  0  0  0  0  0  0  0
   10.5952    1.3353   22.8849 H   0  0  0  0  0  0  0  0  0  0  0  0
  1  2  1  0
  2  3  1  0
  3  4  1  0
  4  5  1  0
  5  6  1  0
  6  7  2  0
  7  8  1  0
  8  9  2  0
  9 10  1  0
 10 11  1  0
 11 12  1  0
 11 13  1  0
 11 14  1  0
  9 15  1  0
 15 16  2  0
 16 17  1  0
 15 18  1  0
  8 19  1  0
  7 20  1  0
  5 21  1  0
  4 22  1  0
 22 23  2  0
 23 24  1  0
 24 25  2  0
 25 26  1  0
 26 27  2  0
 27 28  1  0
 25 29  1  0
 24 30  1  0
 23 31  1  0
  4 32  1  0
  3 33  1  0
  3 34  1  0
  2 35  1  0
  2 36  1  0
  1 37  1  0
  1 38  1  0
  1 39  1  0
 16  6  1  0
 27 22  1  0
M  END
>  <cnnaffinity>  (1) 
4.44833

>  <plip>  (1) 
-0.03571428571428571

>  <filename>  (1) 
[H][c]1[n][c]([H])[c]([C]([H])([N]([H])[c]2[c]([H])[c]([H])[c]([O][C]([H])([H])[H])[c]([H])[c]2[Cl])[C]([H])([H])[C]([H])([H])[C]([H])([H])[H])[c]([H])[c]1[H]

>  <combo1>  (1) 
-0.1821093610040426

$$$$
