
     RDKit          3D

 29 30  0  0  0  0  0  0  0  0999 V2000
   10.2806   -1.7323   27.3534 H   0  0  0  0  0  0  0  0  0  0  0  0
    9.6304   -1.2467   27.8721 O   0  0  0  0  0  0  0  0  0  0  0  0
    8.6415   -0.9099   27.0217 C   0  0  0  0  0  0  0  0  0  0  0  0
    7.5291   -0.2580   27.5475 C   0  0  0  0  0  0  0  0  0  0  0  0
    7.4598   -0.0018   28.5933 H   0  0  0  0  0  0  0  0  0  0  0  0
    6.5241    0.1069   26.6654 C   0  0  0  0  0  0  0  0  0  0  0  0
    5.4318    0.7358   27.1485 O   0  0  0  0  0  0  0  0  0  0  0  0
    4.9009    0.9387   26.3688 H   0  0  0  0  0  0  0  0  0  0  0  0
    6.6148   -0.1202   25.2959 C   0  0  0  0  0  0  0  0  0  0  0  0
    5.8535    0.2417   24.6213 H   0  0  0  0  0  0  0  0  0  0  0  0
    7.7362   -0.7770   24.8062 C   0  0  0  0  0  0  0  0  0  0  0  0
    7.8638   -1.0158   23.4269 N   0  0  0  0  0  0  0  0  0  0  0  0
    8.3733   -1.8366   23.1422 H   0  0  0  0  0  0  0  0  0  0  0  0
    7.3743   -0.1736   22.4603 C   0  0  0  0  0  0  0  0  0  0  0  0
    6.9203    0.9275   22.7155 O   0  0  0  0  0  0  0  0  0  0  0  0
    7.4397   -0.7224   20.9596 C   0  0  0  0  0  0  0  0  0  0  0  0
    8.1272   -1.6972   20.7059 O   0  0  0  0  0  0  0  0  0  0  0  0
    6.6608   -0.0137   19.8996 C   0  0  0  0  0  0  0  0  0  0  0  0
    7.1692   -0.0112   18.5868 C   0  0  0  0  0  0  0  0  0  0  0  0
    8.1041   -0.5158   18.3504 H   0  0  0  0  0  0  0  0  0  0  0  0
    6.5761    0.6252   17.5749 N   0  0  0  0  0  0  0  0  0  0  0  0
    5.4293    1.2713   17.8351 C   0  0  0  0  0  0  0  0  0  0  0  0
    4.9756    1.8023   17.0014 H   0  0  0  0  0  0  0  0  0  0  0  0
    4.8194    1.2941   19.0936 C   0  0  0  0  0  0  0  0  0  0  0  0
    3.8891    1.8347   19.2373 H   0  0  0  0  0  0  0  0  0  0  0  0
    5.4537    0.6585   20.1589 C   0  0  0  0  0  0  0  0  0  0  0  0
    5.0430    0.7089   21.1711 H   0  0  0  0  0  0  0  0  0  0  0  0
    8.7493   -1.2041   25.6604 C   0  0  0  0  0  0  0  0  0  0  0  0
    9.6246   -1.7105   25.2696 H   0  0  0  0  0  0  0  0  0  0  0  0
  1  2  1  0
  2  3  1  0
  3  4  2  0
  4  5  1  0
  4  6  1  0
  6  7  1  0
  7  8  1  0
  6  9  2  0
  9 10  1  0
  9 11  1  0
 11 12  1  0
 12 13  1  0
 12 14  1  0
 14 15  2  0
 14 16  1  0
 16 17  2  0
 16 18  1  0
 18 19  2  0
 19 20  1  0
 19 21  1  0
 21 22  2  0
 22 23  1  0
 22 24  1  0
 24 25  1  0
 24 26  2  0
 26 27  1  0
 11 28  2  0
 28 29  1  0
 28  3  1  0
 26 18  1  0
M  END
>  <cnnaffinity>  (1) 
4.30071

>  <plip>  (1) 
-0.034482758620689655

>  <filename>  (1) 
[H][O][c]1[c]([H])[c]([O][H])[c]([H])[c]([N]([H])[C](=[O])[C](=[O])[c]2[c]([H])[n][c]([H])[c]([H])[c]2[H])[c]1[H]

>  <combo1>  (1) 
-0.19142963244768121

$$$$
