
     RDKit          3D

 34 35  0  0  0  0  0  0  0  0999 V2000
    6.9802   -5.9307   25.1912 H   0  0  0  0  0  0  0  0  0  0  0  0
    7.8186   -6.2229   24.8200 O   0  0  0  0  0  0  0  0  0  0  0  0
    8.5249   -5.1381   24.2624 C   0  0  0  0  0  0  0  0  0  0  0  0
    8.7244   -4.3621   25.0180 H   0  0  0  0  0  0  0  0  0  0  0  0
    9.4932   -5.5518   23.9618 H   0  0  0  0  0  0  0  0  0  0  0  0
    7.8494   -4.5133   23.0326 C   0  0  0  0  0  0  0  0  0  0  0  0
    7.6531   -5.2893   22.2817 H   0  0  0  0  0  0  0  0  0  0  0  0
    6.8651   -4.1073   23.3166 H   0  0  0  0  0  0  0  0  0  0  0  0
    8.6263   -3.4439   22.4081 N   0  0  0  0  0  0  0  0  0  0  0  0
    9.5543   -3.7958   22.1559 H   0  0  0  0  0  0  0  0  0  0  0  0
    8.7880   -2.2417   23.2525 C   0  0  0  0  0  0  0  0  0  0  0  0
    9.4514   -2.3985   24.1241 H   0  0  0  0  0  0  0  0  0  0  0  0
    7.8055   -1.9469   23.6491 H   0  0  0  0  0  0  0  0  0  0  0  0
    9.3435   -1.0612   22.4787 C   0  0  0  0  0  0  0  0  0  0  0  0
   10.4936   -0.5485   22.7090 N   0  0  0  0  0  0  0  0  0  0  0  0
   10.7381    0.5289   21.7364 C   0  0  0  0  0  0  0  0  0  0  0  0
   10.9061    1.4487   22.3036 H   0  0  0  0  0  0  0  0  0  0  0  0
   11.6646    0.2958   21.2045 H   0  0  0  0  0  0  0  0  0  0  0  0
    9.4933    0.6197   20.8101 C   0  0  0  0  0  0  0  0  0  0  0  0
    9.6660    0.3758   19.7623 H   0  0  0  0  0  0  0  0  0  0  0  0
    9.0090    1.5965   20.8240 H   0  0  0  0  0  0  0  0  0  0  0  0
    8.5883   -0.4357   21.3866 C   0  0  0  0  0  0  0  0  0  0  0  0
    7.3278   -0.7078   21.0097 C   0  0  0  0  0  0  0  0  0  0  0  0
    6.7235   -1.4262   21.5722 H   0  0  0  0  0  0  0  0  0  0  0  0
    6.6329   -0.0243   19.8990 C   0  0  0  0  0  0  0  0  0  0  0  0
    7.1510    0.0540   18.5896 C   0  0  0  0  0  0  0  0  0  0  0  0
    8.0951   -0.4330   18.3535 H   0  0  0  0  0  0  0  0  0  0  0  0
    6.5546    0.6844   17.5682 N   0  0  0  0  0  0  0  0  0  0  0  0
    5.3935    1.3052   17.8251 C   0  0  0  0  0  0  0  0  0  0  0  0
    4.9284    1.8136   16.9792 H   0  0  0  0  0  0  0  0  0  0  0  0
    4.7879    1.3059   19.0878 C   0  0  0  0  0  0  0  0  0  0  0  0
    3.8626    1.8522   19.2336 H   0  0  0  0  0  0  0  0  0  0  0  0
    5.4109    0.6234   20.1355 C   0  0  0  0  0  0  0  0  0  0  0  0
    4.9902    0.6172   21.1376 H   0  0  0  0  0  0  0  0  0  0  0  0
  1  2  1  0
  2  3  1  0
  3  4  1  0
  3  5  1  0
  3  6  1  0
  6  7  1  0
  6  8  1  0
  6  9  1  0
  9 10  1  0
  9 11  1  0
 11 12  1  0
 11 13  1  0
 11 14  1  0
 14 15  2  0
 15 16  1  0
 16 17  1  0
 16 18  1  0
 16 19  1  0
 19 20  1  0
 19 21  1  0
 19 22  1  0
 22 23  2  3
 23 24  1  0
 23 25  1  0
 25 26  2  0
 26 27  1  0
 26 28  1  0
 28 29  2  0
 29 30  1  0
 29 31  1  0
 31 32  1  0
 31 33  2  0
 33 34  1  0
 22 14  1  0
 33 25  1  0
M  END
>  <cnnaffinity>  (1) 
4.24706

>  <plip>  (1) 
-0.0

>  <filename>  (1) 
[H][O][C]([H])([H])[C]([H])([H])[N]([H])[C]([H])([H])[C]1=[N][C]([H])([H])[C]([H])([H])[C]1=[C]([H])[c]1[c]([H])[n][c]([H])[c]([H])[c]1[H]

>  <combo1>  (1) 
-6.120591384600308e-06

$$$$
