
     RDKit          3D

 28 29  0  0  0  0  0  0  0  0999 V2000
    9.7766   -4.3150   22.7786 H   0  0  0  0  0  0  0  0  0  0  0  0
    9.5464   -4.6724   23.6541 O   0  0  0  0  0  0  0  0  0  0  0  0
    8.2520   -4.3593   23.8795 C   0  0  0  0  0  0  0  0  0  0  0  0
    7.6818   -4.7787   25.0752 C   0  0  0  0  0  0  0  0  0  0  0  0
    8.2786   -5.3518   25.7724 H   0  0  0  0  0  0  0  0  0  0  0  0
    6.3630   -4.4297   25.3654 C   0  0  0  0  0  0  0  0  0  0  0  0
    5.6898   -4.9115   26.8875 Cl  0  0  0  0  0  0  0  0  0  0  0  0
    5.5940   -3.6851   24.4755 C   0  0  0  0  0  0  0  0  0  0  0  0
    4.5819   -3.4074   24.7424 H   0  0  0  0  0  0  0  0  0  0  0  0
    6.1544   -3.2833   23.2576 C   0  0  0  0  0  0  0  0  0  0  0  0
    5.5678   -2.6893   22.5631 H   0  0  0  0  0  0  0  0  0  0  0  0
    7.4718   -3.6129   22.9589 C   0  0  0  0  0  0  0  0  0  0  0  0
    8.1393   -3.2705   21.8075 O   0  0  0  0  0  0  0  0  0  0  0  0
    7.6513   -2.2917   20.9265 C   0  0  0  0  0  0  0  0  0  0  0  0
    6.6846   -2.5748   20.5003 H   0  0  0  0  0  0  0  0  0  0  0  0
    8.4075   -2.2128   20.1568 H   0  0  0  0  0  0  0  0  0  0  0  0
    7.5833   -0.5064   21.4560 S   0  0  0  0  0  4  0  0  0  0  0  0
    8.9526    0.0468   21.1474 O   0  0  0  0  0  0  0  0  0  0  0  0
    6.5909    0.0317   20.0410 C   0  0  0  0  0  0  0  0  0  0  0  0
    7.1972    0.0466   18.7749 C   0  0  0  0  0  0  0  0  0  0  0  0
    8.1804   -0.3960   18.6227 H   0  0  0  0  0  0  0  0  0  0  0  0
    6.6338    0.6080   17.7024 N   0  0  0  0  0  0  0  0  0  0  0  0
    5.4573    1.2283   17.8733 C   0  0  0  0  0  0  0  0  0  0  0  0
    5.0444    1.7254   16.9966 H   0  0  0  0  0  0  0  0  0  0  0  0
    4.7759    1.2600   19.0942 C   0  0  0  0  0  0  0  0  0  0  0  0
    3.8386    1.7969   19.1691 H   0  0  0  0  0  0  0  0  0  0  0  0
    5.3439    0.6341   20.2063 C   0  0  0  0  0  0  0  0  0  0  0  0
    4.8468    0.6396   21.1784 H   0  0  0  0  0  0  0  0  0  0  0  0
  1  2  1  0
  2  3  1  0
  3  4  2  0
  4  5  1  0
  4  6  1  0
  6  7  1  0
  6  8  2  0
  8  9  1  0
  8 10  1  0
 10 11  1  0
 10 12  2  0
 12 13  1  0
 13 14  1  0
 14 15  1  0
 14 16  1  0
 17 14  1  6
 17 18  2  0
 17 19  1  0
 19 20  2  0
 20 21  1  0
 20 22  1  0
 22 23  2  0
 23 24  1  0
 23 25  1  0
 25 26  1  0
 25 27  2  0
 27 28  1  0
 12  3  1  0
 27 19  1  0
M  END
>  <cnnaffinity>  (1) 
4.63143

>  <plip>  (1) 
-0.034482758620689655

>  <filename>  (1) 
[H][O][c]1[c]([H])[c]([Cl])[c]([H])[c]([H])[c]1[O][C]([H])([H])[S@@](=[O])[c]1[c]([H])[n][c]([H])[c]([H])[c]1[H]

>  <combo1>  (1) 
-0.18762098424664791

$$$$
