
     RDKit          3D

 34 36  0  0  0  0  0  0  0  0999 V2000
    5.5321   -1.8544   21.4418 O   0  0  0  0  0  0  0  0  0  0  0  0
    6.7010   -1.5686   21.4235 C   0  0  0  0  0  0  0  0  0  0  0  0
    7.6273   -2.0126   22.3261 N   0  0  0  0  0  0  0  0  0  0  0  0
    8.9245   -1.4130   22.0642 C   0  0  0  0  0  0  0  0  0  0  0  0
    9.4754   -0.4723   23.1183 C   0  0  0  0  0  0  0  0  0  0  0  0
   10.8422   -0.5007   23.4166 C   0  0  0  0  0  0  0  0  0  0  0  0
   11.4066    0.4146   24.3033 C   0  0  0  0  0  0  0  0  0  0  0  0
   10.5890    1.3710   24.9018 C   0  0  0  0  0  0  0  0  0  0  0  0
    9.2211    1.4303   24.6176 C   0  0  0  0  0  0  0  0  0  0  0  0
    8.6754    0.5218   23.7066 C   0  0  0  0  0  0  0  0  0  0  0  0
    7.3335    0.5314   23.3299 O   0  0  0  0  0  0  0  0  0  0  0  0
    6.5285    1.6047   23.5272 C   0  0  0  0  0  0  0  0  0  0  0  0
    5.3171    1.3341   23.0309 F   0  0  0  0  0  0  0  0  0  0  0  0
    6.9731    2.7176   22.9291 F   0  0  0  0  0  0  0  0  0  0  0  0
    6.3653    1.8974   24.8290 F   0  0  0  0  0  0  0  0  0  0  0  0
    8.5838    2.1699   25.0823 H   0  0  0  0  0  0  0  0  0  0  0  0
   11.0293    2.0787   25.5897 H   0  0  0  0  0  0  0  0  0  0  0  0
   12.4702    0.3844   24.5125 H   0  0  0  0  0  0  0  0  0  0  0  0
   11.4766   -1.2403   22.9369 H   0  0  0  0  0  0  0  0  0  0  0  0
    8.6816   -0.6826   20.7355 C   0  0  0  0  0  0  0  0  0  0  0  0
    9.4968   -0.1064   20.0625 O   0  0  0  0  0  0  0  0  0  0  0  0
    7.3350   -0.8118   20.4384 N   0  0  0  0  0  0  0  0  0  0  0  0
    6.6309   -0.0511   19.4469 C   0  0  0  0  0  0  0  0  0  0  0  0
    5.4627    0.6158   19.8215 C   0  0  0  0  0  0  0  0  0  0  0  0
    4.8252    1.4104   18.8638 C   0  0  0  0  0  0  0  0  0  0  0  0
    5.3552    1.4770   17.5700 C   0  0  0  0  0  0  0  0  0  0  0  0
    6.4501    0.7983   17.1878 N   0  0  0  0  0  0  0  0  0  0  0  0
    7.0750    0.0583   18.1109 C   0  0  0  0  0  0  0  0  0  0  0  0
    7.9641   -0.4865   17.8018 H   0  0  0  0  0  0  0  0  0  0  0  0
    4.8858    2.0909   16.8041 H   0  0  0  0  0  0  0  0  0  0  0  0
    3.9332    1.9740   19.1092 H   0  0  0  0  0  0  0  0  0  0  0  0
    5.0783    0.5049   20.8379 H   0  0  0  0  0  0  0  0  0  0  0  0
    9.6824   -2.1872   21.8688 H   0  0  0  0  0  0  0  0  0  0  0  0
    7.2143   -2.0813   23.2444 H   0  0  0  0  0  0  0  0  0  0  0  0
  1  2  2  0
  2  3  1  0
  3  4  1  0
  4  5  1  0
  5  6  2  0
  6  7  1  0
  7  8  2  0
  8  9  1  0
  9 10  2  0
 10 11  1  0
 11 12  1  0
 12 13  1  0
 12 14  1  0
 12 15  1  0
  9 16  1  0
  8 17  1  0
  7 18  1  0
  6 19  1  0
  4 20  1  0
 20 21  2  0
 20 22  1  0
 22 23  1  0
 23 24  2  0
 24 25  1  0
 25 26  2  0
 26 27  1  0
 27 28  2  0
 28 29  1  0
 26 30  1  0
 25 31  1  0
 24 32  1  0
  4 33  1  0
  3 34  1  0
 22  2  1  0
 28 23  1  0
 10  5  1  0
M  END
>  <cnnaffinity>  (1) 
5.32176

>  <plip>  (1) 
-0.20689655172413793

>  <filename>  (1) 
[H][c]1[n][c]([H])[c]([N]2[C](=[O])[N]([H])[C]([H])([c]3[c]([H])[c]([H])[c]([H])[c]([H])[c]3[O][C]([F])([F])[F])[C]2=[O])[c]([H])[c]1[H]

>  <combo1>  (1) 
-1.0882440721304014

$$$$
