
     RDKit          3D

 39 41  0  0  0  0  0  0  0  0999 V2000
   10.4051   -4.0993   25.7669 N   0  0  0  0  0  0  0  0  0  0  0  0
    9.1993   -4.6464   26.0485 C   0  0  0  0  0  0  0  0  0  0  0  0
    9.0005   -5.2442   27.3024 C   0  0  0  0  0  0  0  0  0  0  0  0
    7.8170   -5.9021   27.6042 C   0  0  0  0  0  0  0  0  0  0  0  0
    6.8066   -5.9880   26.6310 C   0  0  0  0  0  0  0  0  0  0  0  0
    5.5001   -6.6739   26.9339 C   0  0  0  0  0  0  0  0  0  0  0  0
    5.6006   -7.6131   27.8908 F   0  0  0  0  0  0  0  0  0  0  0  0
    4.9869   -7.2701   25.8389 F   0  0  0  0  0  0  0  0  0  0  0  0
    4.5734   -5.7893   27.3553 F   0  0  0  0  0  0  0  0  0  0  0  0
    6.9779   -5.3493   25.3965 C   0  0  0  0  0  0  0  0  0  0  0  0
    8.1458   -4.6424   25.0971 C   0  0  0  0  0  0  0  0  0  0  0  0
    8.2570   -3.8471   23.8667 C   0  0  0  0  0  0  0  0  0  0  0  0
    7.2614   -3.2944   23.0912 C   0  0  0  0  0  0  0  0  0  0  0  0
    7.9158   -2.6532   22.0966 N   0  0  0  0  0  0  0  0  0  0  0  0
    7.3939   -1.9073   20.9646 C   0  0  0  0  0  0  0  0  0  0  0  0
    7.3392   -0.3762   21.1489 C   0  0  0  0  0  0  0  0  0  0  0  0
    8.6385    0.1826   21.2253 O   0  0  0  0  0  0  0  0  0  0  0  0
    9.2610   -0.3788   20.7501 H   0  0  0  0  0  0  0  0  0  0  0  0
    6.5795    0.2325   19.9911 C   0  0  0  0  0  0  0  0  0  0  0  0
    5.3071    0.8091   20.1194 C   0  0  0  0  0  0  0  0  0  0  0  0
    4.7072    1.3741   18.9900 C   0  0  0  0  0  0  0  0  0  0  0  0
    5.3943    1.3253   17.7736 C   0  0  0  0  0  0  0  0  0  0  0  0
    6.5951    0.7467   17.6202 N   0  0  0  0  0  0  0  0  0  0  0  0
    7.1620    0.2193   18.7118 C   0  0  0  0  0  0  0  0  0  0  0  0
    8.1305   -0.2590   18.5453 H   0  0  0  0  0  0  0  0  0  0  0  0
    4.9648    1.7614   16.8757 H   0  0  0  0  0  0  0  0  0  0  0  0
    3.7409    1.8685   19.0415 H   0  0  0  0  0  0  0  0  0  0  0  0
    4.8073    0.8381   21.0902 H   0  0  0  0  0  0  0  0  0  0  0  0
    6.8590   -0.1239   22.1063 H   0  0  0  0  0  0  0  0  0  0  0  0
    6.4130   -2.3096   20.7127 H   0  0  0  0  0  0  0  0  0  0  0  0
    8.0773   -2.0662   20.1295 H   0  0  0  0  0  0  0  0  0  0  0  0
    9.2268   -2.8113   22.2143 N   0  0  0  0  0  0  0  0  0  0  0  0
    9.4477   -3.5131   23.2768 N   0  0  0  0  0  0  0  0  0  0  0  0
    6.1871   -3.2602   23.2081 H   0  0  0  0  0  0  0  0  0  0  0  0
    6.1913   -5.3844   24.6424 H   0  0  0  0  0  0  0  0  0  0  0  0
    7.7086   -6.3610   28.5861 H   0  0  0  0  0  0  0  0  0  0  0  0
    9.8131   -5.1920   28.0190 H   0  0  0  0  0  0  0  0  0  0  0  0
   11.0159   -3.8603   26.5230 H   0  0  0  0  0  0  0  0  0  0  0  0
   10.5478   -3.6992   24.8513 H   0  0  0  0  0  0  0  0  0  0  0  0
  1  2  1  0
  2  3  2  0
  3  4  1  0
  4  5  2  0
  5  6  1  0
  6  7  1  0
  6  8  1  0
  6  9  1  0
  5 10  1  0
 10 11  2  0
 11 12  1  0
 12 13  2  0
 13 14  1  0
 14 15  1  0
 15 16  1  0
 16 17  1  0
 17 18  1  0
 16 19  1  0
 19 20  2  0
 20 21  1  0
 21 22  2  0
 22 23  1  0
 23 24  2  0
 24 25  1  0
 22 26  1  0
 21 27  1  0
 20 28  1  0
 16 29  1  0
 15 30  1  0
 15 31  1  0
 14 32  1  0
 32 33  2  0
 13 34  1  0
 10 35  1  0
  4 36  1  0
  3 37  1  0
  1 38  1  0
  1 39  1  0
 11  2  1  0
 33 12  1  0
 24 19  1  0
M  END
>  <cnnaffinity>  (1) 
4.99357

>  <plip>  (1) 
-0.06666666666666667

>  <filename>  (1) 
[H][O][C]([H])([c]1[c]([H])[n][c]([H])[c]([H])[c]1[H])[C]([H])([H])[n]1[n][n][c](-[c]2[c]([H])[c]([C]([F])([F])[F])[c]([H])[c]([H])[c]2[N]([H])[H])[c]1[H]

>  <combo1>  (1) 
-0.31767288707709435

$$$$
