
     RDKit          3D

 40 40  0  0  0  0  0  0  0  0999 V2000
    9.7729    1.2650   21.0257 C   0  0  0  0  0  0  0  0  0  0  0  0
   10.2494    0.7389   22.2966 N   0  0  0  0  0  0  0  0  0  0  0  0
   10.2749    1.5452   23.4003 C   0  0  0  0  0  0  0  0  0  0  0  0
    9.6169    2.5681   23.4838 O   0  0  0  0  0  0  0  0  0  0  0  0
   11.1265    1.0573   24.5643 C   0  0  0  0  0  0  0  0  0  0  0  0
   10.2798    0.7925   25.8225 C   0  0  0  0  0  0  0  0  0  0  0  0
    9.5408   -0.5423   25.8500 C   0  0  0  0  0  0  0  0  0  0  0  0
    8.4228   -0.6641   24.9223 N   0  0  0  0  0  0  0  0  0  0  0  0
    8.2678   -1.7878   24.1454 C   0  0  0  0  0  0  0  0  0  0  0  0
    8.9396   -2.7990   24.2229 O   0  0  0  0  0  0  0  0  0  0  0  0
    7.2386   -1.5764   23.2256 N   0  0  0  0  0  0  0  0  0  0  0  0
    6.8778   -2.6136   22.2422 C   0  0  0  0  0  0  0  0  0  0  0  0
    6.4906   -2.1561   20.8178 C   0  0  0  0  0  0  0  0  0  0  0  0
    5.7525   -2.8304   20.1362 O   0  0  0  0  0  0  0  0  0  0  0  0
    7.1040   -0.9880   20.3976 N   0  0  0  0  0  0  0  0  0  0  0  0
    6.5301   -0.1021   19.4186 C   0  0  0  0  0  0  0  0  0  0  0  0
    5.3453    0.6001   19.6845 C   0  0  0  0  0  0  0  0  0  0  0  0
    4.8237    1.4388   18.6893 C   0  0  0  0  0  0  0  0  0  0  0  0
    5.5041    1.5582   17.4736 C   0  0  0  0  0  0  0  0  0  0  0  0
    6.6523    0.9120   17.2127 N   0  0  0  0  0  0  0  0  0  0  0  0
    7.1466    0.1152   18.1714 C   0  0  0  0  0  0  0  0  0  0  0  0
    8.0865   -0.3960   17.9652 H   0  0  0  0  0  0  0  0  0  0  0  0
    5.1152    2.1885   16.6753 H   0  0  0  0  0  0  0  0  0  0  0  0
    3.9130    2.0064   18.8458 H   0  0  0  0  0  0  0  0  0  0  0  0
    4.8578    0.5012   20.6553 H   0  0  0  0  0  0  0  0  0  0  0  0
    7.6017   -0.5372   21.1553 H   0  0  0  0  0  0  0  0  0  0  0  0
    6.0625   -3.2672   22.5769 H   0  0  0  0  0  0  0  0  0  0  0  0
    7.7527   -3.2617   22.1230 H   0  0  0  0  0  0  0  0  0  0  0  0
    6.5044   -1.0138   23.6370 H   0  0  0  0  0  0  0  0  0  0  0  0
    8.0988    0.1568   24.4405 H   0  0  0  0  0  0  0  0  0  0  0  0
   10.2481   -1.3330   25.5919 H   0  0  0  0  0  0  0  0  0  0  0  0
    9.1861   -0.7365   26.8721 H   0  0  0  0  0  0  0  0  0  0  0  0
    9.5832    1.6256   25.9874 H   0  0  0  0  0  0  0  0  0  0  0  0
   10.9585    0.7609   26.6780 H   0  0  0  0  0  0  0  0  0  0  0  0
   11.8582    1.8472   24.7793 H   0  0  0  0  0  0  0  0  0  0  0  0
   11.6969    0.1555   24.2980 H   0  0  0  0  0  0  0  0  0  0  0  0
   10.9538    0.0203   22.2825 H   0  0  0  0  0  0  0  0  0  0  0  0
    9.7013    0.4535   20.2937 H   0  0  0  0  0  0  0  0  0  0  0  0
   10.4372    2.0540   20.6436 H   0  0  0  0  0  0  0  0  0  0  0  0
    8.7760    1.6985   21.1684 H   0  0  0  0  0  0  0  0  0  0  0  0
  1  2  1  0
  2  3  1  0
  3  4  2  0
  3  5  1  0
  5  6  1  0
  6  7  1  0
  7  8  1  0
  8  9  1  0
  9 10  2  0
  9 11  1  0
 11 12  1  0
 12 13  1  0
 13 14  2  0
 13 15  1  0
 15 16  1  0
 16 17  2  0
 17 18  1  0
 18 19  2  0
 19 20  1  0
 20 21  2  0
 21 22  1  0
 19 23  1  0
 18 24  1  0
 17 25  1  0
 15 26  1  0
 12 27  1  0
 12 28  1  0
 11 29  1  0
  8 30  1  0
  7 31  1  0
  7 32  1  0
  6 33  1  0
  6 34  1  0
  5 35  1  0
  5 36  1  0
  2 37  1  0
  1 38  1  0
  1 39  1  0
  1 40  1  0
 21 16  1  0
M  END
>  <cnnaffinity>  (1) 
4.30797

>  <plip>  (1) 
-0.2

>  <filename>  (1) 
[H][c]1[n][c]([H])[c]([N]([H])[C](=[O])[C]([H])([H])[N]([H])[C](=[O])[N]([H])[C]([H])([H])[C]([H])([H])[C]([H])([H])[C](=[O])[N]([H])[C]([H])([H])[H])[c]([H])[c]1[H]

>  <combo1>  (1) 
-0.9791052306811182

$$$$
