
     RDKit          3D

 46 48  0  0  0  0  0  0  0  0999 V2000
    4.7099    1.6406   18.7333 C   0  0  0  0  0  0  0  0  0  0  0  0
    5.3177    1.6036   17.4760 C   0  0  0  0  0  0  0  0  0  0  0  0
    6.4731    0.9641   17.2324 N   0  0  0  0  0  0  0  0  0  0  0  0
    7.0667    0.3518   18.2635 C   0  0  0  0  0  0  0  0  0  0  0  0
    6.5443    0.3134   19.5674 C   0  0  0  0  0  0  0  0  0  0  0  0
    7.2194   -0.4562   20.6761 C   0  0  0  0  0  0  0  0  0  0  0  0
    6.6873   -1.8935   20.7860 C   0  0  0  0  0  0  0  0  0  0  0  0
    7.2067   -2.6717   21.9699 N   0  0  0  0  0  4  0  0  0  0  0  0
    6.4157   -2.4414   23.2847 C   0  0  0  0  0  0  0  0  0  0  0  0
    7.2587   -2.7785   24.5451 C   0  0  0  0  0  0  0  0  0  0  0  0
    8.1555   -3.9723   24.2528 N   0  0  0  0  0  4  0  0  0  0  0  0
    8.7774   -4.7341   25.3868 C   0  0  2  0  0  0  0  0  0  0  0  0
    9.5228   -5.9486   24.8554 C   0  0  0  0  0  0  0  0  0  0  0  0
    9.6896   -6.8874   26.0365 C   0  0  0  0  0  0  0  0  0  0  0  0
    8.4987   -6.5685   26.9618 N   0  0  0  0  0  4  0  0  0  0  0  0
    7.8007   -5.3354   26.3966 C   0  0  0  0  0  0  0  0  0  0  0  0
    7.5684   -4.6425   27.2032 H   0  0  0  0  0  0  0  0  0  0  0  0
    6.8835   -5.5932   25.8531 H   0  0  0  0  0  0  0  0  0  0  0  0
    7.8183   -7.3644   27.0474 H   0  0  0  0  0  0  0  0  0  0  0  0
    8.8562   -6.4006   27.9414 H   0  0  0  0  0  0  0  0  0  0  0  0
    9.7003   -7.9463   25.7646 H   0  0  0  0  0  0  0  0  0  0  0  0
   10.6458   -6.7013   26.5404 H   0  0  0  0  0  0  0  0  0  0  0  0
   10.4868   -5.6291   24.4495 H   0  0  0  0  0  0  0  0  0  0  0  0
    8.9224   -6.4215   24.0674 H   0  0  0  0  0  0  0  0  0  0  0  0
    9.4666   -4.0768   25.9316 H   0  0  0  0  0  0  0  0  0  0  0  0
    9.2222   -3.5111   23.2425 C   0  0  0  0  0  0  0  0  0  0  0  0
    8.6904   -2.4746   22.2387 C   0  0  0  0  0  0  0  0  0  0  0  0
    8.8308   -1.4746   22.6680 H   0  0  0  0  0  0  0  0  0  0  0  0
    9.2686   -2.5186   21.3121 H   0  0  0  0  0  0  0  0  0  0  0  0
    9.6024   -4.3801   22.7042 H   0  0  0  0  0  0  0  0  0  0  0  0
   10.0575   -3.0573   23.7951 H   0  0  0  0  0  0  0  0  0  0  0  0
    7.5441   -4.6663   23.7656 H   0  0  0  0  0  0  0  0  0  0  0  0
    6.6110   -2.9617   25.4044 H   0  0  0  0  0  0  0  0  0  0  0  0
    7.8899   -1.9196   24.8071 H   0  0  0  0  0  0  0  0  0  0  0  0
    6.0966   -1.3935   23.3208 H   0  0  0  0  0  0  0  0  0  0  0  0
    5.5032   -3.0475   23.2586 H   0  0  0  0  0  0  0  0  0  0  0  0
    7.0711   -3.6786   21.7177 H   0  0  0  0  0  0  0  0  0  0  0  0
    6.9606   -2.4298   19.8703 H   0  0  0  0  0  0  0  0  0  0  0  0
    5.5925   -1.8666   20.8209 H   0  0  0  0  0  0  0  0  0  0  0  0
    8.3026   -0.4921   20.5082 H   0  0  0  0  0  0  0  0  0  0  0  0
    7.0646    0.0487   21.6384 H   0  0  0  0  0  0  0  0  0  0  0  0
    5.3312    0.9770   19.7924 C   0  0  0  0  0  0  0  0  0  0  0  0
    4.8846    0.9835   20.7877 H   0  0  0  0  0  0  0  0  0  0  0  0
    8.0136   -0.1411   18.0344 H   0  0  0  0  0  0  0  0  0  0  0  0
    4.8629    2.1055   16.6280 H   0  0  0  0  0  0  0  0  0  0  0  0
    3.7856    2.1907   18.8708 H   0  0  0  0  0  0  0  0  0  0  0  0
  1  2  2  0
  2  3  1  0
  3  4  2  0
  4  5  1  0
  5  6  1  0
  6  7  1  0
  7  8  1  0
  8  9  1  0
  9 10  1  0
 10 11  1  0
 11 12  1  0
 12 13  1  0
 13 14  1  0
 14 15  1  0
 15 16  1  0
 16 17  1  0
 16 18  1  0
 15 19  1  0
 15 20  1  0
 14 21  1  0
 14 22  1  0
 13 23  1  0
 13 24  1  0
 12 25  1  1
 11 26  1  0
 26 27  1  0
 27 28  1  0
 27 29  1  0
 26 30  1  0
 26 31  1  0
 11 32  1  0
 10 33  1  0
 10 34  1  0
  9 35  1  0
  9 36  1  0
  8 37  1  0
  7 38  1  0
  7 39  1  0
  6 40  1  0
  6 41  1  0
  5 42  2  0
 42 43  1  0
  4 44  1  0
  2 45  1  0
  1 46  1  0
 42  1  1  0
 27  8  1  0
 16 12  1  0
M  CHG  3   8   1  11   1  15   1
M  END
>  <cnnaffinity>  (1) 
4.2321

>  <plip>  (1) 
-0.10714285714285714

>  <filename>  (1) 
[H][c]1[n][c]([H])[c]([C]([H])([H])[C]([H])([H])[N+]2([H])[C]([H])([H])[C]([H])([H])[N+]([H])([C@]3([H])[C]([H])([H])[C]([H])([H])[N+]([H])([H])[C]3([H])[H])[C]([H])([H])[C]2([H])[H])[c]([H])[c]1[H]

>  <combo1>  (1) 
-0.5738089001189348

$$$$
