
     RDKit          3D

 39 42  0  0  0  0  0  0  0  0999 V2000
    9.6924    0.8988   20.5238 O   0  0  0  0  0  0  0  0  0  0  0  0
    9.1337    1.2387   21.5800 C   0  0  0  0  0  0  0  0  0  0  0  0
    9.6918    2.4101   22.3793 C   0  0  0  0  0  0  0  0  0  0  0  0
    8.8897    3.3047   23.0061 N   0  0  0  0  0  0  0  0  0  0  0  0
    9.4578    4.3198   23.6616 C   0  0  0  0  0  0  0  0  0  0  0  0
   10.8451    4.4507   23.8021 C   0  0  0  0  0  0  0  0  0  0  0  0
   11.6819    3.5109   23.2006 C   0  0  0  0  0  0  0  0  0  0  0  0
   11.1127    2.5034   22.4080 C   0  0  0  0  0  0  0  0  0  0  0  0
   11.9264    1.6826   21.7210 O   0  0  0  0  0  0  0  0  0  0  0  0
   11.3876    1.2488   21.0193 H   0  0  0  0  0  0  0  0  0  0  0  0
   12.7649    3.5478   23.2799 H   0  0  0  0  0  0  0  0  0  0  0  0
   11.2526    5.2913   24.3519 H   0  0  0  0  0  0  0  0  0  0  0  0
    8.7723    5.0449   24.0929 H   0  0  0  0  0  0  0  0  0  0  0  0
    8.0691    0.5257   22.0723 N   0  0  0  0  0  0  0  0  0  0  0  0
    7.8142    0.2886   23.4982 C   0  0  0  0  0  0  0  0  0  0  0  0
    6.7224   -0.7941   23.5429 C   0  0  0  0  0  0  0  0  0  0  0  0
    6.6086   -1.3720   22.1357 C   0  0  2  0  0  0  0  0  0  0  0  0
    7.5361   -2.5665   21.7893 C   0  0  0  0  0  0  0  0  0  0  0  0
    8.3161   -1.6419   20.8373 C   0  0  0  0  0  0  0  0  0  0  0  0
    7.4122   -0.4454   21.1984 C   0  0  2  0  0  0  0  0  0  0  0  0
    6.6783    0.2252   20.0582 C   0  0  0  0  0  0  0  0  0  0  0  0
    5.4154    0.8205   20.2021 C   0  0  0  0  0  0  0  0  0  0  0  0
    4.7951    1.3653   19.0769 C   0  0  0  0  0  0  0  0  0  0  0  0
    5.4654    1.3185   17.8497 C   0  0  0  0  0  0  0  0  0  0  0  0
    6.6925    0.7995   17.7005 N   0  0  0  0  0  0  0  0  0  0  0  0
    7.2777    0.2899   18.7902 C   0  0  0  0  0  0  0  0  0  0  0  0
    8.2822   -0.1101   18.6497 H   0  0  0  0  0  0  0  0  0  0  0  0
    4.9918    1.6929   16.9448 H   0  0  0  0  0  0  0  0  0  0  0  0
    3.8121    1.8219   19.1320 H   0  0  0  0  0  0  0  0  0  0  0  0
    4.9326    0.8582   21.1816 H   0  0  0  0  0  0  0  0  0  0  0  0
    9.3596   -1.4837   21.0959 H   0  0  0  0  0  0  0  0  0  0  0  0
    8.2431   -1.8528   19.7866 H   0  0  0  0  0  0  0  0  0  0  0  0
    8.1261   -2.9577   22.6280 H   0  0  0  0  0  0  0  0  0  0  0  0
    7.0188   -3.3978   21.3024 H   0  0  0  0  0  0  0  0  0  0  0  0
    5.5943   -1.5680   21.7920 H   0  0  0  0  0  0  0  0  0  0  0  0
    5.7955   -0.3303   23.8826 H   0  0  0  0  0  0  0  0  0  0  0  0
    6.9692   -1.5847   24.2594 H   0  0  0  0  0  0  0  0  0  0  0  0
    8.7393   -0.0527   23.9808 H   0  0  0  0  0  0  0  0  0  0  0  0
    7.5093    1.2191   23.9894 H   0  0  0  0  0  0  0  0  0  0  0  0
  1  2  2  0
  2  3  1  0
  3  4  2  0
  4  5  1  0
  5  6  2  0
  6  7  1  0
  7  8  2  0
  8  9  1  0
  9 10  1  0
  7 11  1  0
  6 12  1  0
  5 13  1  0
  2 14  1  0
 14 15  1  0
 15 16  1  0
 16 17  1  0
 17 18  1  0
 18 19  1  0
 19 20  1  0
 20 21  1  6
 21 22  2  0
 22 23  1  0
 23 24  2  0
 24 25  1  0
 25 26  2  0
 26 27  1  0
 24 28  1  0
 23 29  1  0
 22 30  1  0
 19 31  1  0
 19 32  1  0
 18 33  1  0
 18 34  1  0
 17 35  1  6
 16 36  1  0
 16 37  1  0
 15 38  1  0
 15 39  1  0
  8  3  1  0
 20 14  1  0
 26 21  1  0
 20 17  1  0
M  END
>  <cnnaffinity>  (1) 
5.33912

>  <plip>  (1) 
-0.10714285714285714

>  <filename>  (1) 
[H][O][c]1[c]([C](=[O])[N]2[C]([H])([H])[C]([H])([H])[C@]3([H])[C]([H])([H])[C]([H])([H])[C@]23[c]2[c]([H])[n][c]([H])[c]([H])[c]2[H])[n][c]([H])[c]([H])[c]1[H]

>  <combo1>  (1) 
-0.6456340687841802

$$$$
