
     RDKit          3D

 30 32  0  0  0  0  0  0  0  0999 V2000
    6.2638   -4.2100   26.8820 H   0  0  0  0  0  0  0  0  0  0  0  0
    7.0041   -4.2542   26.0883 C   0  0  0  0  0  0  0  0  0  0  0  0
    7.2084   -5.3523   25.3023 N   0  0  0  0  0  0  0  0  0  0  0  0
    8.1659   -4.9459   24.4982 C   0  0  0  0  0  0  0  0  0  0  0  0
    8.6523   -5.5125   23.7140 H   0  0  0  0  0  0  0  0  0  0  0  0
    8.5234   -3.6802   24.7845 N   0  0  0  0  0  0  0  0  0  0  0  0
    9.4467   -2.8022   24.0614 C   0  0  0  0  0  0  0  0  0  0  0  0
    9.8883   -2.1525   24.8299 H   0  0  0  0  0  0  0  0  0  0  0  0
   10.2335   -3.4400   23.6395 H   0  0  0  0  0  0  0  0  0  0  0  0
    8.7460   -2.0048   23.0042 C   0  0  0  0  0  0  0  0  0  0  0  0
    8.1937   -0.7646   23.2584 C   0  0  0  0  0  0  0  0  0  0  0  0
    8.2703   -0.3393   24.2619 H   0  0  0  0  0  0  0  0  0  0  0  0
    7.4820   -0.0584   22.2571 C   0  0  0  0  0  0  0  0  0  0  0  0
    7.0367    0.9146   22.4469 H   0  0  0  0  0  0  0  0  0  0  0  0
    7.3709   -0.6056   21.0024 C   0  0  0  0  0  0  0  0  0  0  0  0
    6.6423    0.0176   19.8987 C   0  0  0  0  0  0  0  0  0  0  0  0
    7.1583    0.0478   18.5891 C   0  0  0  0  0  0  0  0  0  0  0  0
    8.1185   -0.4139   18.3523 H   0  0  0  0  0  0  0  0  0  0  0  0
    6.5559    0.6688   17.5690 N   0  0  0  0  0  0  0  0  0  0  0  0
    5.3935    1.2937   17.8200 C   0  0  0  0  0  0  0  0  0  0  0  0
    4.9315    1.8009   16.9750 H   0  0  0  0  0  0  0  0  0  0  0  0
    4.7870    1.3135   19.0805 C   0  0  0  0  0  0  0  0  0  0  0  0
    3.8604    1.8535   19.2284 H   0  0  0  0  0  0  0  0  0  0  0  0
    5.4199    0.6639   20.1365 C   0  0  0  0  0  0  0  0  0  0  0  0
    4.9882    0.6500   21.1379 H   0  0  0  0  0  0  0  0  0  0  0  0
    7.9874   -1.8039   20.7439 N   0  0  0  0  0  0  0  0  0  0  0  0
    7.8008   -2.3535   19.9208 H   0  0  0  0  0  0  0  0  0  0  0  0
    8.5000   -2.6423   21.7103 C   0  0  0  0  0  0  0  0  0  0  0  0
    8.6772   -3.8111   21.3925 O   0  0  0  0  0  0  0  0  0  0  0  0
    7.7729   -3.2188   25.8089 N   0  0  0  0  0  0  0  0  0  0  0  0
  1  2  1  0
  2  3  1  0
  3  4  2  0
  4  5  1  0
  4  6  1  0
  6  7  1  0
  7  8  1  0
  7  9  1  0
  7 10  1  0
 10 11  2  0
 11 12  1  0
 11 13  1  0
 13 14  1  0
 13 15  2  0
 15 16  1  0
 16 17  2  0
 17 18  1  0
 17 19  1  0
 19 20  2  0
 20 21  1  0
 20 22  1  0
 22 23  1  0
 22 24  2  0
 24 25  1  0
 15 26  1  0
 26 27  1  0
 26 28  1  0
 28 29  2  0
  6 30  1  0
 30  2  2  0
 28 10  1  0
 24 16  1  0
M  END
>  <cnnaffinity>  (1) 
5.00267

>  <plip>  (1) 
-0.0

>  <filename>  (1) 
[H][c]1[n][c]([H])[n]([C]([H])([H])[c]2[c]([H])[c]([H])[c](-[c]3[c]([H])[n][c]([H])[c]([H])[c]3[H])[n]([H])[c]2=[O])[n]1

>  <combo1>  (1) 
-6.584236537487086e-06

$$$$
