
     RDKit          3D

 36 38  0  0  0  0  0  0  0  0999 V2000
    9.5689    0.6268   24.9193 C   0  0  0  0  0  0  0  0  0  0  0  0
    8.1497    1.0668   25.2170 C   0  0  0  0  0  0  0  0  0  0  0  0
    7.9247    1.9393   26.2954 C   0  0  0  0  0  0  0  0  0  0  0  0
    6.6496    2.4000   26.6329 C   0  0  0  0  0  0  0  0  0  0  0  0
    5.5558    1.9697   25.8818 C   0  0  0  0  0  0  0  0  0  0  0  0
    3.9619    2.5216   26.2908 Cl  0  0  0  0  0  0  0  0  0  0  0  0
    5.7317    1.0995   24.8097 C   0  0  0  0  0  0  0  0  0  0  0  0
    7.0167    0.6723   24.4669 C   0  0  0  0  0  0  0  0  0  0  0  0
    7.1476   -0.1348   23.2893 N   0  0  0  0  0  0  0  0  0  0  0  0
    7.7823    0.2851   22.1442 C   0  0  0  0  0  0  0  0  0  0  0  0
    8.5411    1.2167   22.0470 O   0  0  0  0  0  0  0  0  0  0  0  0
    7.3873   -0.6966   21.0260 C   0  0  0  0  0  0  0  0  0  0  0  0
    6.6354   -0.0209   19.8808 C   0  0  0  0  0  0  0  0  0  0  0  0
    5.4300    0.6456   20.1270 C   0  0  0  0  0  0  0  0  0  0  0  0
    4.8000    1.3112   19.0767 C   0  0  0  0  0  0  0  0  0  0  0  0
    5.3964    1.2939   17.8131 C   0  0  0  0  0  0  0  0  0  0  0  0
    6.5531    0.6634   17.5551 N   0  0  0  0  0  0  0  0  0  0  0  0
    7.1505    0.0328   18.5763 C   0  0  0  0  0  0  0  0  0  0  0  0
    8.1136   -0.4270   18.3402 H   0  0  0  0  0  0  0  0  0  0  0  0
    4.9304    1.8063   16.9719 H   0  0  0  0  0  0  0  0  0  0  0  0
    3.8756    1.8510   19.2336 H   0  0  0  0  0  0  0  0  0  0  0  0
    5.0108    0.6540   21.1326 H   0  0  0  0  0  0  0  0  0  0  0  0
    6.6014   -1.6736   21.7629 N   0  0  0  0  0  0  0  0  0  0  0  0
    5.9879   -2.8413   21.1514 C   0  0  0  0  0  0  0  0  0  0  0  0
    6.3603   -3.7734   21.5943 H   0  0  0  0  0  0  0  0  0  0  0  0
    6.2390   -2.8167   20.0846 H   0  0  0  0  0  0  0  0  0  0  0  0
    4.8975   -2.8318   21.2606 H   0  0  0  0  0  0  0  0  0  0  0  0
    6.5826   -1.4005   23.1062 C   0  0  0  0  0  0  0  0  0  0  0  0
    6.1975   -2.1246   23.9915 O   0  0  0  0  0  0  0  0  0  0  0  0
    8.3076   -1.1546   20.6270 H   0  0  0  0  0  0  0  0  0  0  0  0
    4.8796    0.7605   24.2299 H   0  0  0  0  0  0  0  0  0  0  0  0
    6.4907    3.0706   27.4691 H   0  0  0  0  0  0  0  0  0  0  0  0
    8.7856    2.2588   26.8803 H   0  0  0  0  0  0  0  0  0  0  0  0
    9.5962   -0.3903   24.5160 H   0  0  0  0  0  0  0  0  0  0  0  0
   10.1781    0.6632   25.8285 H   0  0  0  0  0  0  0  0  0  0  0  0
   10.0245    1.2818   24.1699 H   0  0  0  0  0  0  0  0  0  0  0  0
  1  2  1  0
  2  3  2  0
  3  4  1  0
  4  5  2  0
  5  6  1  0
  5  7  1  0
  7  8  2  0
  8  9  1  0
  9 10  1  0
 10 11  2  0
 10 12  1  0
 12 13  1  0
 13 14  2  0
 14 15  1  0
 15 16  2  0
 16 17  1  0
 17 18  2  0
 18 19  1  0
 16 20  1  0
 15 21  1  0
 14 22  1  0
 12 23  1  0
 23 24  1  0
 24 25  1  0
 24 26  1  0
 24 27  1  0
 23 28  1  0
 28 29  2  0
 12 30  1  0
  7 31  1  0
  4 32  1  0
  3 33  1  0
  1 34  1  0
  1 35  1  0
  1 36  1  0
  8  2  1  0
 28  9  1  0
 18 13  1  0
M  END
>  <cnnaffinity>  (1) 
5.02105

>  <plip>  (1) 
-0.07142857142857142

>  <filename>  (1) 
[H][c]1[n][c]([H])[c]([C]2([H])[C](=[O])[N]([c]3[c]([H])[c]([Cl])[c]([H])[c]([H])[c]3[C]([H])([H])[H])[C](=[O])[N]2[C]([H])([H])[H])[c]([H])[c]1[H]

>  <combo1>  (1) 
-0.3786065667716289

$$$$
