
     RDKit          3D

 28 31  0  0  0  0  0  0  0  0999 V2000
    3.0148    0.4539   26.4174 H   0  0  0  0  0  0  0  0  0  0  0  0
    3.9948    0.3665   25.9552 C   0  0  0  0  0  0  0  0  0  0  0  0
    4.6112   -0.8613   25.8863 N   0  0  0  0  0  0  0  0  0  0  0  0
    5.7375   -0.7401   25.2507 C   0  0  0  0  0  0  0  0  0  0  0  0
    6.5199   -1.8560   25.1334 N   0  0  0  0  0  0  0  0  0  0  0  0
    6.0937   -2.5563   25.7290 H   0  0  0  0  0  0  0  0  0  0  0  0
    7.5685   -2.0829   24.2368 C   0  0  0  0  0  0  0  0  0  0  0  0
    8.6999   -2.8530   24.3303 C   0  0  0  0  0  0  0  0  0  0  0  0
    8.9796   -3.4619   25.1805 H   0  0  0  0  0  0  0  0  0  0  0  0
    9.4844   -2.7960   23.1998 N   0  0  0  0  0  0  0  0  0  0  0  0
    8.8202   -1.9820   22.4251 C   0  0  0  0  0  0  0  0  0  0  0  0
    8.9418   -1.4720   20.7798 S   0  0  0  0  0  0  0  0  0  0  0  0
    7.3672   -0.6937   20.9849 C   0  0  0  0  0  0  0  0  0  0  0  0
    6.6517    0.0059   19.9120 C   0  0  0  0  0  0  0  0  0  0  0  0
    7.1733    0.0479   18.6121 C   0  0  0  0  0  0  0  0  0  0  0  0
    8.1238   -0.4306   18.3789 H   0  0  0  0  0  0  0  0  0  0  0  0
    6.5666    0.6652   17.5972 N   0  0  0  0  0  0  0  0  0  0  0  0
    5.4057    1.2851   17.8476 C   0  0  0  0  0  0  0  0  0  0  0  0
    4.9496    1.7837   16.9965 H   0  0  0  0  0  0  0  0  0  0  0  0
    4.8024    1.3086   19.1088 C   0  0  0  0  0  0  0  0  0  0  0  0
    3.8711    1.8446   19.2396 H   0  0  0  0  0  0  0  0  0  0  0  0
    5.4269    0.6539   20.1674 C   0  0  0  0  0  0  0  0  0  0  0  0
    4.9950    0.6415   21.1702 H   0  0  0  0  0  0  0  0  0  0  0  0
    6.8461   -0.7835   22.1616 N   0  0  0  0  0  0  0  0  0  0  0  0
    7.6677   -1.4972   22.9783 N   0  0  0  0  0  0  0  0  0  0  0  0
    6.1796    0.8601   24.7626 S   0  0  0  0  0  0  0  0  0  0  0  0
    4.6778    1.4077   25.4278 C   0  0  0  0  0  0  0  0  0  0  0  0
    4.4111    2.4491   25.3936 H   0  0  0  0  0  0  0  0  0  0  0  0
  1  2  1  0
  2  3  1  0
  3  4  2  0
  4  5  1  0
  5  6  1  0
  5  7  1  0
  7  8  2  0
  8  9  1  0
  8 10  1  0
 10 11  2  0
 11 12  1  0
 12 13  1  0
 13 14  1  0
 14 15  2  0
 15 16  1  0
 15 17  1  0
 17 18  2  0
 18 19  1  0
 18 20  1  0
 20 21  1  0
 20 22  2  0
 22 23  1  0
 13 24  2  0
 24 25  1  0
  4 26  1  0
 26 27  1  0
 27 28  1  0
 27  2  2  0
 25  7  1  0
 25 11  1  0
 22 14  1  0
M  END
>  <cnnaffinity>  (1) 
4.97245

>  <plip>  (1) 
-0.0

>  <filename>  (1) 
[H][c]1[n][c]([N]([H])[c]2[c]([H])[n][c]3[s][c](-[c]4[c]([H])[n][c]([H])[c]([H])[c]4[H])[n][n]23)[s][c]1[H]

>  <combo1>  (1) 
-5.518101997966965e-06

$$$$
