
     RDKit          3D

 32 34  0  0  0  0  0  0  0  0999 V2000
    8.7812   -1.2975   20.6137 O   0  0  0  0  0  0  0  0  0  0  0  0
    7.5161   -0.8632   21.1784 S   0  0  0  0  0  0  0  0  0  0  0  0
    6.5701   -1.8088   21.7287 O   0  0  0  0  0  0  0  0  0  0  0  0
    6.6723    0.0815   19.9900 C   0  0  0  0  0  0  0  0  0  0  0  0
    5.4437    0.6964   20.2415 C   0  0  0  0  0  0  0  0  0  0  0  0
    4.8326    1.3134   19.1520 C   0  0  0  0  0  0  0  0  0  0  0  0
    5.4688    1.2688   17.9036 C   0  0  0  0  0  0  0  0  0  0  0  0
    6.6361    0.6405   17.6872 N   0  0  0  0  0  0  0  0  0  0  0  0
    7.2290    0.0511   18.7243 C   0  0  0  0  0  0  0  0  0  0  0  0
    8.1665   -0.4714   18.5403 H   0  0  0  0  0  0  0  0  0  0  0  0
    5.0090    1.7394   17.0360 H   0  0  0  0  0  0  0  0  0  0  0  0
    3.8790    1.8217   19.2541 H   0  0  0  0  0  0  0  0  0  0  0  0
    4.9709    0.6628   21.2287 H   0  0  0  0  0  0  0  0  0  0  0  0
    7.8285    0.3119   22.3221 N   0  0  0  0  0  0  0  0  0  0  0  0
    8.2990    1.6751   21.9783 C   0  0  0  0  0  0  0  0  0  0  0  0
    7.4888    2.6865   22.8220 C   0  0  0  0  0  0  0  0  0  0  0  0
    7.6983    2.4026   24.2383 N   0  0  0  0  0  0  0  0  0  0  0  0
    7.7487    1.0721   24.6558 C   0  0  0  0  0  0  0  0  0  0  0  0
    7.7090    0.7940   26.0282 C   0  0  0  0  0  0  0  0  0  0  0  0
    7.8975   -0.5080   26.4950 C   0  0  0  0  0  0  0  0  0  0  0  0
    8.1302   -1.5520   25.5857 C   0  0  0  0  0  0  0  0  0  0  0  0
    8.1348   -1.3010   24.2062 C   0  0  0  0  0  0  0  0  0  0  0  0
    7.9028   -0.0064   23.7192 C   0  0  0  0  0  0  0  0  0  0  0  0
    8.3144   -2.1087   23.5015 H   0  0  0  0  0  0  0  0  0  0  0  0
    8.3056   -2.5620   25.9496 H   0  0  0  0  0  0  0  0  0  0  0  0
    7.8703   -0.6972   27.5665 H   0  0  0  0  0  0  0  0  0  0  0  0
    7.5462    1.6315   26.7069 H   0  0  0  0  0  0  0  0  0  0  0  0
    7.3690    3.0520   24.9363 H   0  0  0  0  0  0  0  0  0  0  0  0
    7.8122    3.7107   22.6021 H   0  0  0  0  0  0  0  0  0  0  0  0
    6.4264    2.5741   22.5361 H   0  0  0  0  0  0  0  0  0  0  0  0
    8.1872    1.8884   20.9132 H   0  0  0  0  0  0  0  0  0  0  0  0
    9.3667    1.7537   22.2329 H   0  0  0  0  0  0  0  0  0  0  0  0
  1  2  2  0
  2  3  2  0
  2  4  1  0
  4  5  2  0
  5  6  1  0
  6  7  2  0
  7  8  1  0
  8  9  2  0
  9 10  1  0
  7 11  1  0
  6 12  1  0
  5 13  1  0
  2 14  1  0
 14 15  1  0
 15 16  1  0
 16 17  1  0
 17 18  1  0
 18 19  2  0
 19 20  1  0
 20 21  2  0
 21 22  1  0
 22 23  2  0
 22 24  1  0
 21 25  1  0
 20 26  1  0
 19 27  1  0
 17 28  1  0
 16 29  1  0
 16 30  1  0
 15 31  1  0
 15 32  1  0
  9  4  1  0
 23 14  1  0
 23 18  1  0
M  END
>  <cnnaffinity>  (1) 
4.68151

>  <plip>  (1) 
-0.034482758620689655

>  <filename>  (1) 
[H][c]1[n][c]([H])[c]([S](=[O])(=[O])[N]2[c]3[c]([H])[c]([H])[c]([H])[c]([H])[c]3[N]([H])[C]([H])([H])[C]2([H])[H])[c]([H])[c]1[H]

>  <combo1>  (1) 
-0.19543774182577087

$$$$
