
     RDKit          3D

 35 37  0  0  0  0  0  0  0  0999 V2000
    9.8594   -1.0107   22.6882 O   0  0  0  0  0  0  0  0  0  0  0  0
    9.0195   -0.1532   22.8824 C   0  0  0  0  0  0  0  0  0  0  0  0
    7.9489    0.0429   22.0586 N   0  0  0  0  0  0  0  0  0  0  0  0
    7.5101   -0.8658   21.0091 C   0  0  0  0  0  0  0  0  0  0  0  0
    6.4812   -2.2819   21.4419 C   0  0  0  0  0  0  0  0  0  0  0  0
    6.4647   -2.5979   22.6269 O   0  0  0  0  0  0  0  0  0  0  0  0
    5.9945   -2.7566   20.4115 O   0  0  0  0  0  1  0  0  0  0  0  0
    6.8010   -0.0606   19.9466 C   0  0  0  0  0  0  0  0  0  0  0  0
    5.5447    0.5057   20.2041 C   0  0  0  0  0  0  0  0  0  0  0  0
    4.8980    1.1795   19.1653 C   0  0  0  0  0  0  0  0  0  0  0  0
    5.5216    1.2758   17.9173 C   0  0  0  0  0  0  0  0  0  0  0  0
    6.7346    0.7654   17.6537 N   0  0  0  0  0  0  0  0  0  0  0  0
    7.3410    0.1152   18.6583 C   0  0  0  0  0  0  0  0  0  0  0  0
    8.3171   -0.3084   18.4239 H   0  0  0  0  0  0  0  0  0  0  0  0
    5.0302    1.7939   17.0957 H   0  0  0  0  0  0  0  0  0  0  0  0
    3.9250    1.6272   19.3118 H   0  0  0  0  0  0  0  0  0  0  0  0
    5.0807    0.4087   21.1903 H   0  0  0  0  0  0  0  0  0  0  0  0
    8.3925   -1.3742   20.5989 H   0  0  0  0  0  0  0  0  0  0  0  0
    7.4810    0.9359   22.1351 H   0  0  0  0  0  0  0  0  0  0  0  0
    9.1023    0.8007   24.0981 C   0  0  0  0  0  0  0  0  0  0  0  0
    7.8118    0.9400   24.9450 C   0  0  0  0  0  0  0  0  0  0  0  0
    6.9786    2.4751   24.4224 S   0  0  0  0  0  0  0  0  0  0  0  0
    8.4857    3.1682   23.8267 C   0  0  0  0  0  0  0  0  0  0  0  0
    8.7048    4.5043   23.4647 C   0  0  0  0  0  0  0  0  0  0  0  0
    9.9376    4.8524   22.9057 C   0  0  0  0  0  0  0  0  0  0  0  0
   10.9388    3.8827   22.7201 C   0  0  0  0  0  0  0  0  0  0  0  0
   10.7179    2.5592   23.1077 C   0  0  0  0  0  0  0  0  0  0  0  0
    9.4948    2.2068   23.6856 C   0  0  0  0  0  0  0  0  0  0  0  0
   11.4748    1.7924   22.9492 H   0  0  0  0  0  0  0  0  0  0  0  0
   11.8729    4.1609   22.2434 H   0  0  0  0  0  0  0  0  0  0  0  0
   10.1210    5.8783   22.5956 H   0  0  0  0  0  0  0  0  0  0  0  0
    7.9231    5.2489   23.6010 H   0  0  0  0  0  0  0  0  0  0  0  0
    8.0722    1.0301   26.0056 H   0  0  0  0  0  0  0  0  0  0  0  0
    7.1044    0.1110   24.8303 H   0  0  0  0  0  0  0  0  0  0  0  0
    9.8880    0.3224   24.6894 H   0  0  0  0  0  0  0  0  0  0  0  0
  1  2  2  0
  2  3  1  0
  3  4  1  0
  4  5  1  0
  5  6  2  0
  5  7  1  0
  4  8  1  0
  8  9  2  0
  9 10  1  0
 10 11  2  0
 11 12  1  0
 12 13  2  0
 13 14  1  0
 11 15  1  0
 10 16  1  0
  9 17  1  0
  4 18  1  0
  3 19  1  0
  2 20  1  0
 20 21  1  0
 21 22  1  0
 22 23  1  0
 23 24  2  0
 24 25  1  0
 25 26  2  0
 26 27  1  0
 27 28  2  0
 27 29  1  0
 26 30  1  0
 25 31  1  0
 24 32  1  0
 21 33  1  0
 21 34  1  0
 20 35  1  0
 13  8  1  0
 28 20  1  0
 28 23  1  0
M  CHG  1   7  -1
M  END
>  <cnnaffinity>  (1) 
5.24056

>  <plip>  (1) 
-0.03571428571428571

>  <filename>  (1) 
[H][c]1[n][c]([H])[c]([C]([H])([C](=[O])[O-])[N]([H])[C](=[O])[C]2([H])[c]3[c]([H])[c]([H])[c]([H])[c]([H])[c]3[S][C]2([H])[H])[c]([H])[c]1[H]

>  <combo1>  (1) 
-0.19909374915470182

$$$$
