
     RDKit          3D

 38 41  0  0  0  0  0  0  0  0999 V2000
    6.1871   -2.9504   21.0379 C   0  0  0  0  0  0  0  0  0  0  0  0
    6.7018   -1.6932   21.5412 N   0  0  0  0  0  0  0  0  0  0  0  0
    6.8647   -1.4508   22.8766 C   0  0  0  0  0  0  0  0  0  0  0  0
    6.6016   -2.2002   23.7864 O   0  0  0  0  0  0  0  0  0  0  0  0
    7.4285   -0.1707   23.0188 N   0  0  0  0  0  0  0  0  0  0  0  0
    7.4485    0.5454   24.2711 C   0  0  0  0  0  0  0  0  0  0  0  0
    8.0454   -0.0428   25.3663 C   0  0  0  0  0  0  0  0  0  0  0  0
    7.9712    0.5611   26.6586 C   0  0  0  0  0  0  0  0  0  0  0  0
    8.6037    0.0441   27.8297 C   0  0  0  0  0  0  0  0  0  0  0  0
    8.3869    0.6549   29.0493 C   0  0  0  0  0  0  0  0  0  0  0  0
    7.5488    1.7952   29.1736 C   0  0  0  0  0  0  0  0  0  0  0  0
    6.9587    2.3230   28.0517 C   0  0  0  0  0  0  0  0  0  0  0  0
    7.1848    1.7446   26.7754 C   0  0  0  0  0  0  0  0  0  0  0  0
    6.6230    2.3650   25.6896 N   0  0  0  0  0  0  0  0  0  0  0  0
    6.7915    1.8224   24.5225 C   0  0  0  0  0  0  0  0  0  0  0  0
    6.1423    2.6943   23.1651 Cl  0  0  0  0  0  0  0  0  0  0  0  0
    6.3006    3.1775   28.0917 H   0  0  0  0  0  0  0  0  0  0  0  0
    7.3909    2.2505   30.1483 H   0  0  0  0  0  0  0  0  0  0  0  0
    8.8981    0.2915   29.9331 H   0  0  0  0  0  0  0  0  0  0  0  0
    9.2578   -0.8234   27.7466 H   0  0  0  0  0  0  0  0  0  0  0  0
    8.5543   -0.9905   25.2257 H   0  0  0  0  0  0  0  0  0  0  0  0
    7.9915    0.2175   21.8015 C   0  0  0  0  0  0  0  0  0  0  0  0
    8.7975    1.0922   21.6438 O   0  0  0  0  0  0  0  0  0  0  0  0
    7.4537   -0.7573   20.7309 C   0  0  0  0  0  0  0  0  0  0  0  0
    6.6278   -0.0893   19.6284 C   0  0  0  0  0  0  0  0  0  0  0  0
    5.4456    0.6036   19.9249 C   0  0  0  0  0  0  0  0  0  0  0  0
    4.8103    1.3141   18.9044 C   0  0  0  0  0  0  0  0  0  0  0  0
    5.3687    1.3010   17.6214 C   0  0  0  0  0  0  0  0  0  0  0  0
    6.4729    0.6068   17.3064 N   0  0  0  0  0  0  0  0  0  0  0  0
    7.0738   -0.0673   18.2953 C   0  0  0  0  0  0  0  0  0  0  0  0
    7.9806   -0.6018   18.0096 H   0  0  0  0  0  0  0  0  0  0  0  0
    4.9143    1.8747   16.8145 H   0  0  0  0  0  0  0  0  0  0  0  0
    3.9157    1.9009   19.0895 H   0  0  0  0  0  0  0  0  0  0  0  0
    5.0326    0.6030   20.9362 H   0  0  0  0  0  0  0  0  0  0  0  0
    8.3313   -1.2426   20.2682 H   0  0  0  0  0  0  0  0  0  0  0  0
    6.7948   -3.8004   21.3715 H   0  0  0  0  0  0  0  0  0  0  0  0
    5.1614   -3.1001   21.3857 H   0  0  0  0  0  0  0  0  0  0  0  0
    6.1851   -2.9066   19.9450 H   0  0  0  0  0  0  0  0  0  0  0  0
  1  2  1  0
  2  3  1  0
  3  4  2  0
  3  5  1  0
  5  6  1  0
  6  7  2  0
  7  8  1  0
  8  9  2  0
  9 10  1  0
 10 11  2  0
 11 12  1  0
 12 13  2  0
 13 14  1  0
 14 15  2  0
 15 16  1  0
 12 17  1  0
 11 18  1  0
 10 19  1  0
  9 20  1  0
  7 21  1  0
  5 22  1  0
 22 23  2  0
 22 24  1  0
 24 25  1  0
 25 26  2  0
 26 27  1  0
 27 28  2  0
 28 29  1  0
 29 30  2  0
 30 31  1  0
 28 32  1  0
 27 33  1  0
 26 34  1  0
 24 35  1  0
  1 36  1  0
  1 37  1  0
  1 38  1  0
 24  2  1  0
 30 25  1  0
 15  6  1  0
 13  8  1  0
M  END
>  <cnnaffinity>  (1) 
4.97236

>  <plip>  (1) 
-0.10714285714285714

>  <filename>  (1) 
[H][c]1[n][c]([H])[c]([C]2([H])[C](=[O])[N]([c]3[c]([Cl])[n][c]4[c]([H])[c]([H])[c]([H])[c]([H])[c]4[c]3[H])[C](=[O])[N]2[C]([H])([H])[H])[c]([H])[c]1[H]

>  <combo1>  (1) 
-0.5033839285967376

$$$$
