
     RDKit          3D

 35 37  0  0  0  0  0  0  0  0999 V2000
    9.5499   -0.3315   20.4938 H   0  0  0  0  0  0  0  0  0  0  0  0
    8.7937   -0.7533   21.1423 C   0  0  0  0  0  0  0  0  0  0  0  0
    7.4641   -0.7554   20.9316 C   0  0  0  0  0  0  0  0  0  0  0  0
    6.7064   -0.0085   19.8903 C   0  0  0  0  0  0  0  0  0  0  0  0
    7.2012    0.0818   18.5702 C   0  0  0  0  0  0  0  0  0  0  0  0
    8.1395   -0.4165   18.3238 H   0  0  0  0  0  0  0  0  0  0  0  0
    6.5747    0.6905   17.5571 N   0  0  0  0  0  0  0  0  0  0  0  0
    5.4063    1.2947   17.8347 C   0  0  0  0  0  0  0  0  0  0  0  0
    4.9242    1.7987   17.0007 H   0  0  0  0  0  0  0  0  0  0  0  0
    4.8232    1.2979   19.1052 C   0  0  0  0  0  0  0  0  0  0  0  0
    3.8816    1.8233   19.2537 H   0  0  0  0  0  0  0  0  0  0  0  0
    5.4753    0.6302   20.1472 C   0  0  0  0  0  0  0  0  0  0  0  0
    5.0317    0.5908   21.1418 H   0  0  0  0  0  0  0  0  0  0  0  0
    6.8436   -1.6935   21.9390 C   0  0  0  0  0  0  0  0  0  0  0  0
    5.7658   -2.2442   21.8978 O   0  0  0  0  0  0  0  0  0  0  0  0
    7.8623   -1.8973   22.8901 N   0  0  0  0  0  0  0  0  0  0  0  0
    7.7306   -2.3787   24.1723 N   0  0  0  0  0  0  0  0  0  0  0  0
    8.3799   -3.5647   24.5864 C   0  0  0  0  0  0  0  0  0  0  0  0
    8.5470   -4.6522   23.7060 C   0  0  0  0  0  0  0  0  0  0  0  0
    8.1952   -4.5440   22.6855 H   0  0  0  0  0  0  0  0  0  0  0  0
    9.1462   -5.8317   24.1511 C   0  0  0  0  0  0  0  0  0  0  0  0
    9.2005   -6.6912   23.4848 H   0  0  0  0  0  0  0  0  0  0  0  0
    9.6818   -5.9156   25.4415 C   0  0  0  0  0  0  0  0  0  0  0  0
   10.2415   -6.7934   25.7527 H   0  0  0  0  0  0  0  0  0  0  0  0
    9.5070   -4.8497   26.3282 C   0  0  0  0  0  0  0  0  0  0  0  0
    9.8697   -4.9281   27.3515 H   0  0  0  0  0  0  0  0  0  0  0  0
    8.8315   -3.6976   25.9161 C   0  0  0  0  0  0  0  0  0  0  0  0
    8.6211   -2.9057   26.6289 H   0  0  0  0  0  0  0  0  0  0  0  0
    6.9517   -1.5970   25.1204 C   0  0  0  0  0  0  0  0  0  0  0  0
    6.2005   -1.0063   24.5896 H   0  0  0  0  0  0  0  0  0  0  0  0
    7.5860   -0.9193   25.7118 H   0  0  0  0  0  0  0  0  0  0  0  0
    6.4264   -2.2776   25.8024 H   0  0  0  0  0  0  0  0  0  0  0  0
    9.1641   -1.5128   22.3751 C   0  0  0  0  0  0  0  0  0  0  0  0
    9.7541   -2.4097   22.1418 H   0  0  0  0  0  0  0  0  0  0  0  0
    9.7667   -0.9486   23.0974 H   0  0  0  0  0  0  0  0  0  0  0  0
  1  2  1  0
  2  3  2  0
  3  4  1  0
  4  5  2  0
  5  6  1  0
  5  7  1  0
  7  8  2  0
  8  9  1  0
  8 10  1  0
 10 11  1  0
 10 12  2  0
 12 13  1  0
  3 14  1  0
 14 15  2  0
 14 16  1  0
 16 17  1  0
 17 18  1  0
 18 19  2  0
 19 20  1  0
 19 21  1  0
 21 22  1  0
 21 23  2  0
 23 24  1  0
 23 25  1  0
 25 26  1  0
 25 27  2  0
 27 28  1  0
 17 29  1  0
 29 30  1  0
 29 31  1  0
 29 32  1  0
 16 33  1  0
 33 34  1  0
 33 35  1  0
 33  2  1  0
 12  4  1  0
 27 18  1  0
M  END
>  <cnnaffinity>  (1) 
4.86293

>  <plip>  (1) 
-0.10714285714285714

>  <filename>  (1) 
[H][C]1=[C]([c]2[c]([H])[n][c]([H])[c]([H])[c]2[H])[C](=[O])[N]([N]([c]2[c]([H])[c]([H])[c]([H])[c]([H])[c]2[H])[C]([H])([H])[H])[C]1([H])[H]

>  <combo1>  (1) 
-0.654600821015587

$$$$
