
     RDKit          3D

 29 31  0  0  0  0  0  0  0  0999 V2000
    4.8164    1.3030   19.1108 C   0  0  0  0  0  0  0  0  0  0  0  0
    5.3988    1.2952   17.8344 C   0  0  0  0  0  0  0  0  0  0  0  0
    6.5619    0.6801   17.5694 N   0  0  0  0  0  0  0  0  0  0  0  0
    7.1741    0.0633   18.5903 C   0  0  0  0  0  0  0  0  0  0  0  0
    6.6697   -0.0029   19.9232 C   0  0  0  0  0  0  0  0  0  0  0  0
    7.3016   -0.6656   20.9576 N   0  0  0  0  0  0  0  0  0  0  0  0
    8.5632   -1.3479   20.8119 C   0  0  0  0  0  0  0  0  0  0  0  0
    8.9983   -1.9755   22.0758 C   0  0  0  0  0  0  0  0  0  0  0  0
    9.9919   -1.6110   22.9352 C   0  0  0  0  0  0  0  0  0  0  0  0
   10.0464   -2.4103   24.0305 N   0  0  0  0  0  0  0  0  0  0  0  0
    9.0857   -3.2987   23.8544 C   0  0  0  0  0  0  0  0  0  0  0  0
    8.6684   -4.3832   24.6900 C   0  0  0  0  0  0  0  0  0  0  0  0
    7.6280   -5.1792   24.2937 C   0  0  0  0  0  0  0  0  0  0  0  0
    6.9486   -4.9362   23.0387 C   0  0  0  0  0  0  0  0  0  0  0  0
    7.3475   -3.9001   22.2433 C   0  0  0  0  0  0  0  0  0  0  0  0
    8.4004   -3.0878   22.6502 N   0  0  0  0  0  0  0  0  0  0  0  0
    6.8930   -3.6477   21.2920 H   0  0  0  0  0  0  0  0  0  0  0  0
    6.1193   -5.5753   22.7390 H   0  0  0  0  0  0  0  0  0  0  0  0
    7.3003   -6.0030   24.9298 H   0  0  0  0  0  0  0  0  0  0  0  0
    9.2128   -4.5120   25.6203 H   0  0  0  0  0  0  0  0  0  0  0  0
   10.6651   -0.7680   22.8115 H   0  0  0  0  0  0  0  0  0  0  0  0
    8.4663   -2.1072   20.0499 H   0  0  0  0  0  0  0  0  0  0  0  0
    9.3534   -0.6864   20.4329 H   0  0  0  0  0  0  0  0  0  0  0  0
    6.8958   -0.6316   21.8799 H   0  0  0  0  0  0  0  0  0  0  0  0
    5.4441    0.6473   20.1707 C   0  0  0  0  0  0  0  0  0  0  0  0
    5.0145    0.6255   21.1755 H   0  0  0  0  0  0  0  0  0  0  0  0
    8.1190   -0.4199   18.3562 H   0  0  0  0  0  0  0  0  0  0  0  0
    4.9133    1.7856   16.9934 H   0  0  0  0  0  0  0  0  0  0  0  0
    3.8847    1.8347   19.2627 H   0  0  0  0  0  0  0  0  0  0  0  0
  1  2  2  0
  2  3  1  0
  3  4  2  0
  4  5  1  0
  5  6  1  0
  6  7  1  0
  7  8  1  0
  8  9  2  0
  9 10  1  0
 10 11  2  0
 11 12  1  0
 12 13  2  0
 13 14  1  0
 14 15  2  0
 15 16  1  0
 15 17  1  0
 14 18  1  0
 13 19  1  0
 12 20  1  0
  9 21  1  0
  7 22  1  0
  7 23  1  0
  6 24  1  0
  5 25  2  0
 25 26  1  0
  4 27  1  0
  2 28  1  0
  1 29  1  0
 25  1  1  0
 16  8  1  0
 16 11  1  0
M  END
>  <cnnaffinity>  (1) 
4.98517

>  <plip>  (1) 
-0.10714285714285714

>  <filename>  (1) 
[H][c]1[n][c]([H])[c]([N]([H])[C]([H])([H])[c]2[c]([H])[n][c]3[c]([H])[c]([H])[c]([H])[c]([H])[n]23)[c]([H])[c]1[H]

>  <combo1>  (1) 
-0.793883120183913

$$$$
