
     RDKit          3D

 34 35  0  0  0  0  0  0  0  0999 V2000
    4.8893    1.9160   16.7116 H   0  0  0  0  0  0  0  0  0  0  0  0
    5.2967    1.3772   17.5667 C   0  0  0  0  0  0  0  0  0  0  0  0
    6.4225    0.6811   17.3452 N   0  0  0  0  0  0  0  0  0  0  0  0
    6.9642    0.0457   18.3931 C   0  0  0  0  0  0  0  0  0  0  0  0
    7.8523   -0.5458   18.1670 H   0  0  0  0  0  0  0  0  0  0  0  0
    6.4562    0.0786   19.7046 C   0  0  0  0  0  0  0  0  0  0  0  0
    7.2072   -0.5176   20.8818 C   0  0  0  0  0  0  0  0  0  0  0  0
    6.4939   -0.8889   21.6292 H   0  0  0  0  0  0  0  0  0  0  0  0
    7.7906   -1.3865   20.5516 H   0  0  0  0  0  0  0  0  0  0  0  0
    8.1628    0.4486   21.6407 C   0  0  2  0  0  0  0  0  0  0  0  0
    8.8178    0.9225   20.8962 H   0  0  0  0  0  0  0  0  0  0  0  0
    9.0501   -0.3862   22.5825 C   0  0  0  0  0  0  0  0  0  0  0  0
   10.3563   -0.7298   22.1841 C   0  0  0  0  0  0  0  0  0  0  0  0
   10.8048   -0.2348   21.3237 H   0  0  0  0  0  0  0  0  0  0  0  0
   11.0559   -1.7448   22.8432 C   0  0  0  0  0  0  0  0  0  0  0  0
   12.0158   -2.0609   22.4433 H   0  0  0  0  0  0  0  0  0  0  0  0
   10.5044   -2.3734   23.9662 C   0  0  0  0  0  0  0  0  0  0  0  0
   11.0548   -3.1835   24.4573 H   0  0  0  0  0  0  0  0  0  0  0  0
    9.2574   -1.9579   24.4690 C   0  0  0  0  0  0  0  0  0  0  0  0
    8.7239   -2.4900   25.7918 C   0  0  0  0  0  0  0  0  0  0  0  0
    7.6600   -2.7355   25.6819 H   0  0  0  0  0  0  0  0  0  0  0  0
    9.2399   -3.4268   26.0421 H   0  0  0  0  0  0  0  0  0  0  0  0
    8.8404   -1.5756   26.9400 N   0  0  0  0  0  0  0  0  0  0  0  0
    9.8126   -1.2888   27.0412 H   0  0  0  0  0  0  0  0  0  0  0  0
    8.3560   -0.7112   26.7004 H   0  0  0  0  0  0  0  0  0  0  0  0
    8.5294   -0.9926   23.7392 C   0  0  0  0  0  0  0  0  0  0  0  0
    7.5093   -0.7621   24.0540 H   0  0  0  0  0  0  0  0  0  0  0  0
    7.4003    1.5260   22.2715 N   0  0  0  0  0  0  0  0  0  0  0  0
    8.0209    2.2973   22.5090 H   0  0  0  0  0  0  0  0  0  0  0  0
    7.0027    1.1806   23.1394 H   0  0  0  0  0  0  0  0  0  0  0  0
    5.2424    0.7605   19.8896 C   0  0  0  0  0  0  0  0  0  0  0  0
    4.7732    0.7771   20.8759 H   0  0  0  0  0  0  0  0  0  0  0  0
    4.6578    1.4229   18.8084 C   0  0  0  0  0  0  0  0  0  0  0  0
    3.7365    1.9875   18.9162 H   0  0  0  0  0  0  0  0  0  0  0  0
  1  2  1  0
  2  3  2  0
  3  4  1  0
  4  5  1  0
  4  6  2  0
  6  7  1  0
  7  8  1  0
  7  9  1  0
  7 10  1  0
 10 11  1  6
 10 12  1  0
 12 13  2  0
 13 14  1  0
 13 15  1  0
 15 16  1  0
 15 17  2  0
 17 18  1  0
 17 19  1  0
 19 20  1  0
 20 21  1  0
 20 22  1  0
 20 23  1  0
 23 24  1  0
 23 25  1  0
 19 26  2  0
 26 27  1  0
 10 28  1  0
 28 29  1  0
 28 30  1  0
  6 31  1  0
 31 32  1  0
 31 33  2  0
 33 34  1  0
 33  2  1  0
 26 12  1  0
M  END
>  <cnnaffinity>  (1) 
4.20005

>  <plip>  (1) 
-0.07142857142857142

>  <filename>  (1) 
[H][c]1[n][c]([H])[c]([C]([H])([H])[C@]([H])([c]2[c]([H])[c]([H])[c]([H])[c]([C]([H])([H])[N]([H])[H])[c]2[H])[N]([H])[H])[c]([H])[c]1[H]

>  <combo1>  (1) 
-0.4399311536889568

$$$$
