
     RDKit          3D

 25 26  0  0  0  0  0  0  0  0999 V2000
    5.0053   -3.8522   24.1829 H   0  0  0  0  0  0  0  0  0  0  0  0
    4.6208   -3.8118   23.2265 N   0  0  0  0  0  0  0  0  0  0  0  0
    5.2897   -3.0995   22.5127 N   0  0  0  0  0  4  0  0  0  0  0  0
    5.7129   -2.3714   21.6418 N   0  0  0  0  0  0  0  0  0  0  0  0
    6.9470   -1.7256   21.7645 C   0  0  0  0  0  0  0  0  0  0  0  0
    7.3965   -0.7778   20.9011 C   0  0  0  0  0  0  0  0  0  0  0  0
    6.6332   -0.0354   19.8855 C   0  0  0  0  0  0  0  0  0  0  0  0
    7.1753    0.0842   18.5900 C   0  0  0  0  0  0  0  0  0  0  0  0
    8.1316   -0.3869   18.3624 H   0  0  0  0  0  0  0  0  0  0  0  0
    6.5848    0.7231   17.5824 N   0  0  0  0  0  0  0  0  0  0  0  0
    5.4144    1.3249   17.8295 C   0  0  0  0  0  0  0  0  0  0  0  0
    4.9482    1.8409   16.9907 H   0  0  0  0  0  0  0  0  0  0  0  0
    4.8007    1.3080   19.0846 C   0  0  0  0  0  0  0  0  0  0  0  0
    3.8714    1.8486   19.2148 H   0  0  0  0  0  0  0  0  0  0  0  0
    5.4065    0.6134   20.1327 C   0  0  0  0  0  0  0  0  0  0  0  0
    4.9469    0.6015   21.1283 H   0  0  0  0  0  0  0  0  0  0  0  0
    8.8803   -0.5807   21.1158 C   0  0  0  0  0  0  0  0  0  0  0  0
    9.1484    0.4798   21.1272 H   0  0  0  0  0  0  0  0  0  0  0  0
    9.4525   -1.0350   20.2963 H   0  0  0  0  0  0  0  0  0  0  0  0
    9.2211   -1.2803   22.4580 C   0  0  0  0  0  0  0  0  0  0  0  0
    9.4503   -0.5502   23.2428 H   0  0  0  0  0  0  0  0  0  0  0  0
   10.1075   -1.9191   22.3740 H   0  0  0  0  0  0  0  0  0  0  0  0
    7.9618   -2.1064   22.8140 C   0  0  0  0  0  0  0  0  0  0  0  0
    7.5722   -1.8649   23.8123 H   0  0  0  0  0  0  0  0  0  0  0  0
    8.1519   -3.1898   22.8111 H   0  0  0  0  0  0  0  0  0  0  0  0
  1  2  1  0
  2  3  2  0
  3  4  2  0
  4  5  1  0
  5  6  2  0
  6  7  1  0
  7  8  2  0
  8  9  1  0
  8 10  1  0
 10 11  2  0
 11 12  1  0
 11 13  1  0
 13 14  1  0
 13 15  2  0
 15 16  1  0
  6 17  1  0
 17 18  1  0
 17 19  1  0
 17 20  1  0
 20 21  1  0
 20 22  1  0
 20 23  1  0
 23 24  1  0
 23 25  1  0
 23  5  1  0
 15  7  1  0
M  CHG  1   3   1
M  END
>  <cnnaffinity>  (1) 
4.34628

>  <plip>  (1) 
-0.07142857142857142

>  <filename>  (1) 
[H][N]=[N+]=[N][C]1=[C]([c]2[c]([H])[n][c]([H])[c]([H])[c]2[H])[C]([H])([H])[C]([H])([H])[C]1([H])[H]

>  <combo1>  (1) 
-0.5527162741438536

$$$$
