
     RDKit          3D

 44 46  0  0  0  0  0  0  0  0999 V2000
    7.6354   -5.9571   26.5682 C   0  0  0  0  0  0  0  0  0  0  0  0
    7.4384   -6.2327   26.7102 C   0  0  0  0  0  0  0  0  0  0  0  0
    7.1095   -5.4057   25.3547 C   0  0  0  0  0  0  0  0  0  0  0  0
    6.5644   -3.9086   25.4791 C   0  0  0  0  0  0  0  0  0  0  0  0
    6.0506   -3.3036   24.1589 C   0  0  0  0  0  0  0  0  0  0  0  0
    7.0731   -3.3731   23.0050 C   0  0  0  0  0  0  0  0  0  0  0  0
    8.2798   -2.4288   23.1928 C   0  0  0  0  0  0  0  0  0  0  0  0
    7.9172   -1.0145   23.2403 N   0  0  0  0  0  0  0  0  0  0  0  0
    7.8029   -0.2334   24.3620 C   0  0  0  0  0  0  0  0  0  0  0  0
    7.2439    0.9111   24.0994 N   0  0  0  0  0  0  0  0  0  0  0  0
    6.9396    0.9086   22.7516 N   0  0  0  0  0  0  0  0  0  0  0  0
    7.3449   -0.2354   22.2689 C   0  0  0  0  0  0  0  0  0  0  0  0
    7.2836   -0.6872   20.9701 N   0  0  0  0  0  0  0  0  0  0  0  0
    6.6546   -0.0098   19.8930 C   0  0  0  0  0  0  0  0  0  0  0  0
    5.4488    0.6683   20.1186 C   0  0  0  0  0  0  0  0  0  0  0  0
    4.8274    1.3112   19.0438 C   0  0  0  0  0  0  0  0  0  0  0  0
    5.4334    1.2777   17.7833 C   0  0  0  0  0  0  0  0  0  0  0  0
    6.5854    0.6293   17.5427 N   0  0  0  0  0  0  0  0  0  0  0  0
    7.1708    0.0006   18.5741 C   0  0  0  0  0  0  0  0  0  0  0  0
    8.1060   -0.5129   18.3502 H   0  0  0  0  0  0  0  0  0  0  0  0
    4.9793    1.7887   16.9370 H   0  0  0  0  0  0  0  0  0  0  0  0
    3.8978    1.8532   19.1826 H   0  0  0  0  0  0  0  0  0  0  0  0
    5.0545    0.6955   21.1339 H   0  0  0  0  0  0  0  0  0  0  0  0
    7.9705   -1.3955   20.7797 H   0  0  0  0  0  0  0  0  0  0  0  0
    8.1441   -0.5530   25.3369 H   0  0  0  0  0  0  0  0  0  0  0  0
    8.8136   -2.6571   24.1225 H   0  0  0  0  0  0  0  0  0  0  0  0
    9.0084   -2.5869   22.3874 H   0  0  0  0  0  0  0  0  0  0  0  0
    7.5311   -4.8360   22.8180 C   0  0  0  0  0  0  0  0  0  0  0  0
    8.1042   -5.4720   24.1038 C   0  0  0  0  0  0  0  0  0  0  0  0
    9.0427   -4.9591   24.3786 H   0  0  0  0  0  0  0  0  0  0  0  0
    8.3833   -6.5109   23.8687 H   0  0  0  0  0  0  0  0  0  0  0  0
    6.6584   -5.4304   22.5037 H   0  0  0  0  0  0  0  0  0  0  0  0
    8.2527   -4.8949   21.9871 H   0  0  0  0  0  0  0  0  0  0  0  0
    6.5645   -3.0467   22.0866 H   0  0  0  0  0  0  0  0  0  0  0  0
    5.1579   -3.8664   23.8496 H   0  0  0  0  0  0  0  0  0  0  0  0
    5.7171   -2.2643   24.3059 H   0  0  0  0  0  0  0  0  0  0  0  0
    5.7368   -3.8457   26.2044 H   0  0  0  0  0  0  0  0  0  0  0  0
    7.3701   -3.2688   25.8807 H   0  0  0  0  0  0  0  0  0  0  0  0
    6.1816   -5.8619   24.8255 H   0  0  0  0  0  0  0  0  0  0  0  0
    8.6785   -5.0095   26.6121 H   0  0  0  0  0  0  0  0  0  0  0  0
    7.1978   -5.2584   27.4624 H   0  0  0  0  0  0  0  0  0  0  0  0
    8.4821   -6.8377   26.3159 H   0  0  0  0  0  0  0  0  0  0  0  0
    7.3365   -7.1441   27.9376 H   0  0  0  0  0  0  0  0  0  0  0  0
    6.3032   -7.2294   26.6248 H   0  0  0  0  0  0  0  0  0  0  0  0
  1  2  1  0
  2  3  1  0
  3  4  1  0
  4  5  1  0
  5  6  1  0
  6  7  1  0
  7  8  1  0
  8  9  1  0
  9 10  2  0
 10 11  1  0
 11 12  2  0
 12 13  1  0
 13 14  1  0
 14 15  2  0
 15 16  1  0
 16 17  2  0
 17 18  1  0
 18 19  2  0
 19 20  1  0
 17 21  1  0
 16 22  1  0
 15 23  1  0
 13 24  1  0
  9 25  1  0
  7 26  1  0
  7 27  1  0
  6 28  1  0
 28 29  1  0
 29 30  1  0
 29 31  1  0
 28 32  1  0
 28 33  1  0
  6 34  1  0
  5 35  1  0
  5 36  1  0
  4 37  1  0
  4 38  1  0
  3 39  1  0
  2 40  1  0
  2 41  1  0
  1 42  1  0
  1 43  1  0
  1 44  1  0
 29  3  1  0
 12  8  1  0
 19 14  1  0
M  END
>  <cnnaffinity>  (1) 
5.66938

>  <plip>  (1) 
-0.07142857142857142

>  <filename>  (1) 
[H][c]1[n][c]([H])[c]([N]([H])[c]2[n][n][c]([H])[n]2[C]([H])([H])[C]2([H])[C]([H])([H])[C]([H])([H])[C]([H])([C]([H])([H])[C]([H])([H])[H])[C]([H])([H])[C]2([H])[H])[c]([H])[c]1[H]

>  <combo1>  (1) 
-0.4729768850023237

$$$$
