
     RDKit          3D

 39 41  0  0  0  0  0  0  0  0999 V2000
    4.8434    1.8690   16.8122 H   0  0  0  0  0  0  0  0  0  0  0  0
    5.3483    1.3804   17.6405 C   0  0  0  0  0  0  0  0  0  0  0  0
    6.4967    0.7506   17.3429 N   0  0  0  0  0  0  0  0  0  0  0  0
    7.1546    0.1474   18.3415 C   0  0  0  0  0  0  0  0  0  0  0  0
    8.0878   -0.3485   18.0845 H   0  0  0  0  0  0  0  0  0  0  0  0
    6.6985    0.1318   19.6784 C   0  0  0  0  0  0  0  0  0  0  0  0
    7.3842   -0.5334   20.7336 N   0  0  0  0  0  0  0  0  0  0  0  0
    6.7533   -1.3108   21.7026 C   0  0  0  0  0  0  0  0  0  0  0  0
    5.6950   -1.5136   21.6601 H   0  0  0  0  0  0  0  0  0  0  0  0
    7.6739   -1.7486   22.5838 C   0  0  0  0  0  0  0  0  0  0  0  0
    7.5101   -2.7435   23.6791 C   0  0  0  0  0  0  0  0  0  0  0  0
    6.4189   -2.8733   23.7918 H   0  0  0  0  0  0  0  0  0  0  0  0
    8.0834   -2.3209   25.0456 C   0  0  0  0  0  0  0  0  0  0  0  0
    9.1742   -2.2126   24.9643 H   0  0  0  0  0  0  0  0  0  0  0  0
    7.6847   -1.3456   25.3492 H   0  0  0  0  0  0  0  0  0  0  0  0
    7.7715   -3.3789   26.1118 C   0  0  0  0  0  0  0  0  0  0  0  0
    6.6912   -3.3966   26.3229 H   0  0  0  0  0  0  0  0  0  0  0  0
    8.2513   -3.1046   27.0528 H   0  0  0  0  0  0  0  0  0  0  0  0
    8.2112   -4.7054   25.6723 N   0  0  0  0  0  0  0  0  0  0  0  0
    8.9811   -5.5751   26.4017 C   0  0  0  0  0  0  0  0  0  0  0  0
    9.0972   -6.7513   26.0949 O   0  0  0  0  0  0  0  0  0  0  0  0
    9.6759   -4.9868   27.5963 C   0  0  0  0  0  0  0  0  0  0  0  0
   10.3991   -5.6899   27.9750 H   0  0  0  0  0  0  0  0  0  0  0  0
   10.2078   -4.0858   27.3127 H   0  0  0  0  0  0  0  0  0  0  0  0
    8.9400   -4.7506   28.3627 H   0  0  0  0  0  0  0  0  0  0  0  0
    7.7160   -5.1371   24.3637 C   0  0  0  0  0  0  0  0  0  0  0  0
    6.6202   -5.2349   24.4099 H   0  0  0  0  0  0  0  0  0  0  0  0
    8.1314   -6.1231   24.1401 H   0  0  0  0  0  0  0  0  0  0  0  0
    8.1075   -4.1156   23.3030 C   0  0  0  0  0  0  0  0  0  0  0  0
    7.7631   -4.4401   22.3159 H   0  0  0  0  0  0  0  0  0  0  0  0
    9.2033   -4.0362   23.2538 H   0  0  0  0  0  0  0  0  0  0  0  0
    8.8878   -1.2053   22.1750 N   0  0  0  0  0  0  0  0  0  0  0  0
    9.8251   -1.4068   22.4701 H   0  0  0  0  0  0  0  0  0  0  0  0
    8.7565   -0.4848   21.0174 C   0  0  0  0  0  0  0  0  0  0  0  0
    9.6625    0.0422   20.4011 O   0  0  0  0  0  0  0  0  0  0  0  0
    5.4921    0.7816   19.9659 C   0  0  0  0  0  0  0  0  0  0  0  0
    5.1191    0.7869   20.9907 H   0  0  0  0  0  0  0  0  0  0  0  0
    4.8077    1.4188   18.9301 C   0  0  0  0  0  0  0  0  0  0  0  0
    3.8735    1.9372   19.1157 H   0  0  0  0  0  0  0  0  0  0  0  0
  1  2  1  0
  2  3  2  0
  3  4  1  0
  4  5  1  0
  4  6  2  0
  6  7  1  0
  7  8  1  0
  8  9  1  0
  8 10  2  0
 10 11  1  0
 11 12  1  0
 11 13  1  0
 13 14  1  0
 13 15  1  0
 13 16  1  0
 16 17  1  0
 16 18  1  0
 16 19  1  0
 19 20  1  0
 20 21  2  0
 20 22  1  0
 22 23  1  0
 22 24  1  0
 22 25  1  0
 19 26  1  0
 26 27  1  0
 26 28  1  0
 26 29  1  0
 29 30  1  0
 29 31  1  0
 10 32  1  0
 32 33  1  0
 32 34  1  0
 34 35  2  0
  6 36  1  0
 36 37  1  0
 36 38  2  0
 38 39  1  0
 38  2  1  0
 34  7  1  0
 29 11  1  0
M  END
>  <cnnaffinity>  (1) 
5.33062

>  <plip>  (1) 
-0.14285714285714285

>  <filename>  (1) 
[H][c]1[n][c]([H])[c](-[n]2[c]([H])[c]([C]3([H])[C]([H])([H])[C]([H])([H])[N]([C](=[O])[C]([H])([H])[H])[C]([H])([H])[C]3([H])[H])[n]([H])[c]2=[O])[c]([H])[c]1[H]

>  <combo1>  (1) 
-0.8865107221228544

$$$$
