
     RDKit          3D

 38 41  0  0  0  0  0  0  0  0999 V2000
    4.9767    1.5051   24.5040 O   0  0  0  0  0  0  0  0  0  0  0  0
    6.1997    1.5209   25.0859 C   0  0  0  0  0  0  0  0  0  0  0  0
    6.7925    2.7660   25.3172 C   0  0  0  0  0  0  0  0  0  0  0  0
    8.1016    2.8484   25.7976 C   0  0  0  0  0  0  0  0  0  0  0  0
    8.8001    1.6780   26.1063 C   0  0  0  0  0  0  0  0  0  0  0  0
    8.1859    0.4355   25.9474 C   0  0  0  0  0  0  0  0  0  0  0  0
    6.8971    0.3386   25.4136 C   0  0  0  0  0  0  0  0  0  0  0  0
    6.2986   -1.2603   24.8551 S   0  0  0  0  0  0  0  0  0  0  0  0
    7.0826   -1.1939   23.2464 C   0  0  0  0  0  0  0  0  0  0  0  0
    6.4106   -0.6111   22.2509 N   0  0  0  0  0  0  0  0  0  0  0  0
    7.0445   -0.4732   21.0860 C   0  0  0  0  0  0  0  0  0  0  0  0
    6.3362    0.1791   19.9671 C   0  0  0  0  0  0  0  0  0  0  0  0
    5.1031    0.8528   20.0341 C   0  0  0  0  0  0  0  0  0  0  0  0
    4.6293    1.4513   18.8632 C   0  0  0  0  0  0  0  0  0  0  0  0
    5.3750    1.3381   17.6828 C   0  0  0  0  0  0  0  0  0  0  0  0
    6.5247    0.6597   17.5989 N   0  0  0  0  0  0  0  0  0  0  0  0
    6.9834    0.1050   18.7223 C   0  0  0  0  0  0  0  0  0  0  0  0
    7.9204   -0.4374   18.6590 H   0  0  0  0  0  0  0  0  0  0  0  0
    5.0319    1.8056   16.7619 H   0  0  0  0  0  0  0  0  0  0  0  0
    3.7069    2.0203   18.8475 H   0  0  0  0  0  0  0  0  0  0  0  0
    4.5165    0.9210   20.9573 H   0  0  0  0  0  0  0  0  0  0  0  0
    8.2918   -0.8892   20.8414 N   0  0  0  0  0  0  0  0  0  0  0  0
    8.9311   -1.4617   21.8467 C   0  0  0  0  0  0  0  0  0  0  0  0
    8.3923   -1.6303   23.1153 C   0  0  0  0  0  0  0  0  0  0  0  0
    9.4390   -2.2150   24.0384 C   0  0  0  0  0  0  0  0  0  0  0  0
   10.3797   -2.9170   23.0378 C   0  0  0  0  0  0  0  0  0  0  0  0
   10.3101   -2.0359   21.7721 C   0  0  0  0  0  0  0  0  0  0  0  0
   10.4212   -2.5666   20.8301 H   0  0  0  0  0  0  0  0  0  0  0  0
   11.0533   -1.2274   21.7874 H   0  0  0  0  0  0  0  0  0  0  0  0
    9.9619   -3.9082   22.8331 H   0  0  0  0  0  0  0  0  0  0  0  0
   11.4005   -3.0508   23.4040 H   0  0  0  0  0  0  0  0  0  0  0  0
    9.0471   -2.8922   24.8029 H   0  0  0  0  0  0  0  0  0  0  0  0
    9.9934   -1.4173   24.5582 H   0  0  0  0  0  0  0  0  0  0  0  0
    8.7209   -0.4765   26.2014 H   0  0  0  0  0  0  0  0  0  0  0  0
    9.8262    1.7135   26.4479 H   0  0  0  0  0  0  0  0  0  0  0  0
    8.5809    3.8171   25.9163 H   0  0  0  0  0  0  0  0  0  0  0  0
    6.1964    3.6359   25.0702 H   0  0  0  0  0  0  0  0  0  0  0  0
    4.9185    0.6443   24.0499 H   0  0  0  0  0  0  0  0  0  0  0  0
  1  2  1  0
  2  3  2  0
  3  4  1  0
  4  5  2  0
  5  6  1  0
  6  7  2  0
  7  8  1  0
  8  9  1  0
  9 10  2  0
 10 11  1  0
 11 12  1  0
 12 13  2  0
 13 14  1  0
 14 15  2  0
 15 16  1  0
 16 17  2  0
 17 18  1  0
 15 19  1  0
 14 20  1  0
 13 21  1  0
 11 22  2  0
 22 23  1  0
 23 24  2  0
 24 25  1  0
 25 26  1  0
 26 27  1  0
 27 28  1  0
 27 29  1  0
 26 30  1  0
 26 31  1  0
 25 32  1  0
 25 33  1  0
  6 34  1  0
  5 35  1  0
  4 36  1  0
  3 37  1  0
  1 38  1  0
  7  2  1  0
 24  9  1  0
 17 12  1  0
 27 23  1  0
M  END
>  <cnnaffinity>  (1) 
5.80105

>  <plip>  (1) 
-0.10714285714285714

>  <filename>  (1) 
[H][O][c]1[c]([H])[c]([H])[c]([H])[c]([H])[c]1[S][c]1[n][c](-[c]2[c]([H])[n][c]([H])[c]([H])[c]2[H])[n][c]2[c]1[C]([H])([H])[C]([H])([H])[C]2([H])[H]

>  <combo1>  (1) 
-0.6446083823924867

$$$$
