
     RDKit          3D

 30 33  0  0  0  0  0  0  0  0999 V2000
    4.5301    1.8127   18.2518 C   0  0  0  0  0  0  0  0  0  0  0  0
    5.3869    1.6474   17.1577 C   0  0  0  0  0  0  0  0  0  0  0  0
    6.5186    0.9250   17.1956 N   0  0  0  0  0  0  0  0  0  0  0  0
    6.8387    0.3559   18.3602 C   0  0  0  0  0  0  0  0  0  0  0  0
    6.0500    0.4701   19.5123 C   0  0  0  0  0  0  0  0  0  0  0  0
    6.4878   -0.1688   20.7414 C   0  0  0  0  0  0  0  0  0  0  0  0
    5.9014   -0.2120   21.8873 N   0  0  0  0  0  0  0  0  0  0  0  0
    6.7318   -0.9427   22.7313 N   0  0  0  0  0  0  0  0  0  0  0  0
    7.7677   -1.2545   22.0325 C   0  0  0  0  0  0  0  0  0  0  0  0
    9.0135   -1.9031   22.3716 C   0  0  0  0  0  0  0  0  0  0  0  0
   10.1334   -1.4711   21.6837 C   0  0  0  0  0  0  0  0  0  0  0  0
   11.3728   -1.9638   21.8801 N   0  0  0  0  0  0  0  0  0  0  0  0
   11.5026   -2.9381   22.7507 C   0  0  0  0  0  0  0  0  0  0  0  0
   10.4405   -3.4754   23.5068 C   0  0  0  0  0  0  0  0  0  0  0  0
   10.6127   -4.5728   24.3905 C   0  0  0  0  0  0  0  0  0  0  0  0
    9.6417   -5.0838   25.1080 N   0  0  0  0  0  0  0  0  0  0  0  0
    8.4100   -4.5047   25.0174 C   0  0  0  0  0  0  0  0  0  0  0  0
    8.1181   -3.4593   24.1701 C   0  0  0  0  0  0  0  0  0  0  0  0
    9.1466   -2.9266   23.3509 C   0  0  0  0  0  0  0  0  0  0  0  0
    7.1416   -2.9968   24.1392 H   0  0  0  0  0  0  0  0  0  0  0  0
    7.6441   -4.9372   25.6579 H   0  0  0  0  0  0  0  0  0  0  0  0
   11.5897   -5.0551   24.4595 H   0  0  0  0  0  0  0  0  0  0  0  0
   12.4940   -3.3595   22.8769 H   0  0  0  0  0  0  0  0  0  0  0  0
   10.0687   -0.6741   20.9464 H   0  0  0  0  0  0  0  0  0  0  0  0
    7.6768   -0.8026   20.7504 O   0  0  0  0  0  0  0  0  0  0  0  0
    4.8706    1.2255   19.4652 C   0  0  0  0  0  0  0  0  0  0  0  0
    4.2619    1.3603   20.3632 H   0  0  0  0  0  0  0  0  0  0  0  0
    7.7715   -0.2059   18.3800 H   0  0  0  0  0  0  0  0  0  0  0  0
    5.1519    2.1289   16.2133 H   0  0  0  0  0  0  0  0  0  0  0  0
    3.6241    2.3975   18.1382 H   0  0  0  0  0  0  0  0  0  0  0  0
  1  2  2  0
  2  3  1  0
  3  4  2  0
  4  5  1  0
  5  6  1  0
  6  7  2  0
  7  8  1  0
  8  9  2  0
  9 10  1  0
 10 11  2  0
 11 12  1  0
 12 13  2  0
 13 14  1  0
 14 15  2  0
 15 16  1  0
 16 17  2  0
 17 18  1  0
 18 19  2  0
 18 20  1  0
 17 21  1  0
 15 22  1  0
 13 23  1  0
 11 24  1  0
  9 25  1  0
  5 26  2  0
 26 27  1  0
  4 28  1  0
  2 29  1  0
  1 30  1  0
 26  1  1  0
 25  6  1  0
 19 10  1  0
 19 14  1  0
M  END
>  <cnnaffinity>  (1) 
5.52983

>  <plip>  (1) 
-0.07142857142857142

>  <filename>  (1) 
[H][c]1[n][c]([H])[c](-[c]2[n][n][c](-[c]3[c]([H])[n][c]([H])[c]4[c]([H])[n][c]([H])[c]([H])[c]34)[o]2)[c]([H])[c]1[H]

>  <combo1>  (1) 
-0.47830181547500117

$$$$
