
     RDKit          3D

 31 33  0  0  0  0  0  0  0  0999 V2000
    4.9312    1.8008   16.9751 H   0  0  0  0  0  0  0  0  0  0  0  0
    5.3933    1.2941   17.8198 C   0  0  0  0  0  0  0  0  0  0  0  0
    6.5558    0.6696   17.5684 N   0  0  0  0  0  0  0  0  0  0  0  0
    7.1577    0.0471   18.5876 C   0  0  0  0  0  0  0  0  0  0  0  0
    8.1190   -0.4134   18.3514 H   0  0  0  0  0  0  0  0  0  0  0  0
    6.6400    0.0170   19.8964 C   0  0  0  0  0  0  0  0  0  0  0  0
    7.3668   -0.6048   21.0011 C   0  0  0  0  0  0  0  0  0  0  0  0
    7.4810   -0.0527   22.2535 C   0  0  0  0  0  0  0  0  0  0  0  0
    7.0346    0.9201   22.4403 H   0  0  0  0  0  0  0  0  0  0  0  0
    8.1992   -0.7516   23.2531 C   0  0  0  0  0  0  0  0  0  0  0  0
    8.2756   -0.3040   24.2478 H   0  0  0  0  0  0  0  0  0  0  0  0
    8.7491   -1.9976   23.0090 C   0  0  0  0  0  0  0  0  0  0  0  0
    9.4474   -2.8041   24.0644 C   0  0  0  0  0  0  0  0  0  0  0  0
   10.2346   -3.4401   23.6387 H   0  0  0  0  0  0  0  0  0  0  0  0
    9.9229   -2.1503   24.8113 H   0  0  0  0  0  0  0  0  0  0  0  0
    8.5173   -3.6825   24.7732 N   0  0  0  0  0  0  0  0  0  0  0  0
    7.6705   -3.3199   25.7802 C   0  0  0  0  0  0  0  0  0  0  0  0
    7.6889   -2.3292   26.2139 H   0  0  0  0  0  0  0  0  0  0  0  0
    6.8844   -4.2963   26.1462 N   0  0  0  0  0  0  0  0  0  0  0  0
    7.2203   -5.3546   25.3362 C   0  0  0  0  0  0  0  0  0  0  0  0
    6.7087   -6.3042   25.4327 H   0  0  0  0  0  0  0  0  0  0  0  0
    8.2194   -4.9958   24.4775 C   0  0  0  0  0  0  0  0  0  0  0  0
    8.7246   -5.5139   23.6782 H   0  0  0  0  0  0  0  0  0  0  0  0
    8.5005   -2.6400   21.7150 C   0  0  0  0  0  0  0  0  0  0  0  0
    8.6818   -3.8051   21.3862 O   0  0  0  0  0  0  0  0  0  0  0  0
    7.9817   -1.8032   20.7482 N   0  0  0  0  0  0  0  0  0  0  0  0
    7.8044   -2.3563   19.9255 H   0  0  0  0  0  0  0  0  0  0  0  0
    5.4184    0.6637   20.1357 C   0  0  0  0  0  0  0  0  0  0  0  0
    4.9884    0.6497   21.1381 H   0  0  0  0  0  0  0  0  0  0  0  0
    4.7872    1.3138   19.0801 C   0  0  0  0  0  0  0  0  0  0  0  0
    3.8611    1.8531   19.2290 H   0  0  0  0  0  0  0  0  0  0  0  0
  1  2  1  0
  2  3  2  0
  3  4  1  0
  4  5  1  0
  4  6  2  0
  6  7  1  0
  7  8  2  0
  8  9  1  0
  8 10  1  0
 10 11  1  0
 10 12  2  0
 12 13  1  0
 13 14  1  0
 13 15  1  0
 13 16  1  0
 16 17  1  0
 17 18  1  0
 17 19  2  0
 19 20  1  0
 20 21  1  0
 20 22  2  0
 22 23  1  0
 12 24  1  0
 24 25  2  0
 24 26  1  0
 26 27  1  0
  6 28  1  0
 28 29  1  0
 28 30  2  0
 30 31  1  0
 30  2  1  0
 26  7  1  0
 22 16  1  0
M  END
>  <cnnaffinity>  (1) 
5.16062

>  <plip>  (1) 
-0.0

>  <filename>  (1) 
[H][c]1[n][c]([H])[c](-[c]2[c]([H])[c]([H])[c]([C]([H])([H])[n]3[c]([H])[n][c]([H])[c]3[H])[c](=[O])[n]2[H])[c]([H])[c]1[H]

>  <combo1>  (1) 
-6.818721748976985e-06

$$$$
