
     RDKit          3D

 24 25  0  0  0  0  0  0  0  0999 V2000
    6.1395   -6.3238   19.1338 H   0  0  0  0  0  0  0  0  0  0  0  0
    6.2808   -5.3723   19.6456 C   0  0  0  0  0  0  0  0  0  0  0  0
    5.5790   -4.3235   19.1759 N   0  0  0  0  0  0  0  0  0  0  0  0
    5.7985   -3.1435   19.7857 C   0  0  0  0  0  0  0  0  0  0  0  0
    5.2616   -2.2930   19.3699 H   0  0  0  0  0  0  0  0  0  0  0  0
    6.6734   -3.0179   20.9050 C   0  0  0  0  0  0  0  0  0  0  0  0
    6.8082   -1.7415   21.6991 C   0  0  0  0  0  0  0  0  0  0  0  0
    7.3425   -1.9395   22.6303 H   0  0  0  0  0  0  0  0  0  0  0  0
    5.8084   -1.3662   21.9330 H   0  0  0  0  0  0  0  0  0  0  0  0
    7.5538   -0.7098   20.8844 C   0  0  0  0  0  0  0  0  0  0  0  0
    9.1503   -0.4835   21.0432 S   0  0  0  0  0  0  0  0  0  0  0  0
    6.7375   -0.0279   19.8515 C   0  0  0  0  0  0  0  0  0  0  0  0
    7.2173    0.0286   18.5320 C   0  0  0  0  0  0  0  0  0  0  0  0
    8.1555   -0.4679   18.2833 H   0  0  0  0  0  0  0  0  0  0  0  0
    6.5937    0.6595   17.5369 N   0  0  0  0  0  0  0  0  0  0  0  0
    5.4331    1.2678   17.8235 C   0  0  0  0  0  0  0  0  0  0  0  0
    4.9420    1.7609   16.9882 H   0  0  0  0  0  0  0  0  0  0  0  0
    4.8515    1.2619   19.0961 C   0  0  0  0  0  0  0  0  0  0  0  0
    3.9004    1.7593   19.2549 H   0  0  0  0  0  0  0  0  0  0  0  0
    5.5061    0.5927   20.1292 C   0  0  0  0  0  0  0  0  0  0  0  0
    5.0827    0.5658   21.1366 H   0  0  0  0  0  0  0  0  0  0  0  0
    7.3967   -4.0704   21.3343 N   0  0  0  0  0  0  0  0  0  0  0  0
    7.1909   -5.2406   20.7092 C   0  0  0  0  0  0  0  0  0  0  0  0
    7.7589   -6.0960   21.0788 H   0  0  0  0  0  0  0  0  0  0  0  0
  1  2  1  0
  2  3  2  0
  3  4  1  0
  4  5  1  0
  4  6  2  0
  6  7  1  0
  7  8  1  0
  7  9  1  0
  7 10  1  0
 10 11  2  0
 10 12  1  0
 12 13  2  0
 13 14  1  0
 13 15  1  0
 15 16  2  0
 16 17  1  0
 16 18  1  0
 18 19  1  0
 18 20  2  0
 20 21  1  0
  6 22  1  0
 22 23  2  0
 23 24  1  0
 23  2  1  0
 20 12  1  0
M  END
>  <cnnaffinity>  (1) 
4.79738

>  <plip>  (1) 
-0.10344827586206896

>  <filename>  (1) 
[H][c]1[n][c]([H])[c]([C]([H])([H])[C](=[S])[c]2[c]([H])[n][c]([H])[c]([H])[c]2[H])[n][c]1[H]

>  <combo1>  (1) 
-0.7684231146813892

$$$$
