
     RDKit          3D

 37 39  0  0  0  0  0  0  0  0999 V2000
    5.1515    1.7920   16.8434 H   0  0  0  0  0  0  0  0  0  0  0  0
    5.5776    1.2749   17.7023 C   0  0  0  0  0  0  0  0  0  0  0  0
    6.7575    0.6672   17.5037 N   0  0  0  0  0  0  0  0  0  0  0  0
    7.3139    0.0455   18.5517 C   0  0  0  0  0  0  0  0  0  0  0  0
    8.2714   -0.4394   18.3583 H   0  0  0  0  0  0  0  0  0  0  0  0
    6.7407   -0.0156   19.8392 C   0  0  0  0  0  0  0  0  0  0  0  0
    7.4240   -0.6965   21.0336 C   0  0  2  0  0  0  0  0  0  0  0  0
    8.3317   -1.2105   20.6996 H   0  0  0  0  0  0  0  0  0  0  0  0
    6.5458   -1.7596   21.7082 C   0  0  0  0  0  0  0  0  0  0  0  0
    5.8926   -2.6391   21.1853 O   0  0  0  0  0  0  0  0  0  0  0  0
    6.6056   -1.5788   23.0500 N   0  0  0  0  0  0  0  0  0  0  0  0
    5.9723   -2.1405   23.5929 H   0  0  0  0  0  0  0  0  0  0  0  0
    7.4797   -0.5232   23.5059 C   0  0  0  0  0  0  0  0  0  0  0  0
    8.3973   -0.9196   23.9666 H   0  0  0  0  0  0  0  0  0  0  0  0
    7.0037    0.1316   24.2443 H   0  0  0  0  0  0  0  0  0  0  0  0
    7.8141    0.2481   22.1910 C   0  0  1  0  0  0  0  0  0  0  0  0
    7.1648    1.1368   22.1446 H   0  0  0  0  0  0  0  0  0  0  0  0
    9.2614    0.6349   22.0367 N   0  0  0  0  0  0  0  0  0  0  0  0
    9.8110   -0.0309   22.5826 H   0  0  0  0  0  0  0  0  0  0  0  0
    9.6978    1.9770   22.9705 S   0  0  0  0  0  0  0  0  0  0  0  0
    9.7835    1.3847   24.3007 O   0  0  0  0  0  0  0  0  0  0  0  0
    8.7599    3.0309   22.6339 O   0  0  0  0  0  0  0  0  0  0  0  0
   11.3709    2.4984   22.5185 C   0  0  0  0  0  0  0  0  0  0  0  0
   11.6930    2.8253   21.0969 C   0  0  0  0  0  0  0  0  0  0  0  0
   11.0457    1.9847   20.3749 H   0  0  0  0  0  0  0  0  0  0  0  0
   11.5555    2.8111   21.1488 C   0  0  0  0  0  0  0  0  0  0  0  0
   12.1858    3.6628   20.3388 H   0  0  0  0  0  0  0  0  0  0  0  0
   13.9790    3.7822   22.4820 C   0  0  0  0  0  0  0  0  0  0  0  0
   14.8393    3.8341   21.8331 H   0  0  0  0  0  0  0  0  0  0  0  0
   13.2086    3.9191   23.4789 C   0  0  0  0  0  0  0  0  0  0  0  0
   13.3594    4.6092   24.3746 H   0  0  0  0  0  0  0  0  0  0  0  0
   11.9022    3.1398   23.6560 C   0  0  0  0  0  0  0  0  0  0  0  0
   11.5145    3.0339   24.6606 H   0  0  0  0  0  0  0  0  0  0  0  0
    5.4873    0.5937   20.0061 C   0  0  0  0  0  0  0  0  0  0  0  0
    4.9734    0.5451   20.9692 H   0  0  0  0  0  0  0  0  0  0  0  0
    4.9027    1.2574   18.9254 C   0  0  0  0  0  0  0  0  0  0  0  0
    3.9544    1.7731   19.0217 H   0  0  0  0  0  0  0  0  0  0  0  0
  1  2  1  0
  2  3  2  0
  3  4  1  0
  4  5  1  0
  4  6  2  0
  6  7  1  0
  7  8  1  6
  7  9  1  0
  9 10  2  0
  9 11  1  0
 11 12  1  0
 11 13  1  0
 13 14  1  0
 13 15  1  0
 13 16  1  0
 16 17  1  6
 16 18  1  0
 18 19  1  0
 18 20  1  0
 20 21  2  0
 20 22  2  0
 20 23  1  0
 23 24  2  0
 24 25  1  0
 24 26  1  0
 26 27  1  0
 26 28  2  0
 28 29  1  0
 28 30  1  0
 30 31  1  0
 30 32  2  0
 32 33  1  0
  6 34  1  0
 34 35  1  0
 34 36  2  0
 36 37  1  0
 36  2  1  0
 16  7  1  0
 32 23  1  0
M  END
>  <cnnaffinity>  (1) 
5.15827

>  <plip>  (1) 
-0.14285714285714285

>  <filename>  (1) 
[H][c]1[n][c]([H])[c]([C@]2([H])[C](=[O])[N]([H])[C]([H])([H])[C@@]2([H])[N]([H])[S](=[O])(=[O])[c]2[c]([H])[c]([H])[c]([H])[c]([H])[c]2[H])[c]([H])[c]1[H]

>  <combo1>  (1) 
-0.7739606918168218

$$$$
