
     RDKit          3D

 36 38  0  0  0  0  0  0  0  0999 V2000
    6.2543   -2.6356   21.0800 H   0  0  0  0  0  0  0  0  0  0  0  0
    6.7107   -1.8312   21.6499 C   0  0  0  0  0  0  0  0  0  0  0  0
    6.5945   -1.6789   22.9748 C   0  0  0  0  0  0  0  0  0  0  0  0
    5.8493   -2.5719   23.8790 C   0  0  0  0  0  0  0  0  0  0  0  0
    5.5476   -3.5205   23.4318 H   0  0  0  0  0  0  0  0  0  0  0  0
    5.4293   -2.2689   25.1191 C   0  0  0  0  0  0  0  0  0  0  0  0
    5.7272   -1.3093   25.5534 H   0  0  0  0  0  0  0  0  0  0  0  0
    4.5220   -3.0711   25.9783 C   0  0  0  0  0  0  0  0  0  0  0  0
    4.2201   -4.4214   25.7079 C   0  0  0  0  0  0  0  0  0  0  0  0
    4.6420   -4.9127   24.8351 H   0  0  0  0  0  0  0  0  0  0  0  0
    3.4039   -5.1613   26.5677 C   0  0  0  0  0  0  0  0  0  0  0  0
    3.1875   -6.2019   26.3382 H   0  0  0  0  0  0  0  0  0  0  0  0
    2.8570   -4.5640   27.7062 C   0  0  0  0  0  0  0  0  0  0  0  0
    2.2199   -5.1434   28.3702 H   0  0  0  0  0  0  0  0  0  0  0  0
    3.1216   -3.2182   27.9808 C   0  0  0  0  0  0  0  0  0  0  0  0
    2.6784   -2.7469   28.8558 H   0  0  0  0  0  0  0  0  0  0  0  0
    3.9420   -2.4796   27.1225 C   0  0  0  0  0  0  0  0  0  0  0  0
    4.1350   -1.4324   27.3452 H   0  0  0  0  0  0  0  0  0  0  0  0
    7.1501   -0.3382   23.4073 C   0  0  0  0  0  0  0  0  0  0  0  0
    7.8142   -0.4145   24.2757 H   0  0  0  0  0  0  0  0  0  0  0  0
    6.3142    0.3151   23.7026 H   0  0  0  0  0  0  0  0  0  0  0  0
    7.8750    0.2072   22.1549 C   0  0  0  0  0  0  0  0  0  0  0  0
    7.6308    1.2589   21.9845 H   0  0  0  0  0  0  0  0  0  0  0  0
    8.9616    0.1645   22.2913 H   0  0  0  0  0  0  0  0  0  0  0  0
    7.4549   -0.7046   20.9601 C   0  0  2  0  0  0  0  0  0  0  0  0
    8.3556   -1.1230   20.4931 H   0  0  0  0  0  0  0  0  0  0  0  0
    6.6806    0.0004   19.8414 C   0  0  0  0  0  0  0  0  0  0  0  0
    7.1653    0.0542   18.5199 C   0  0  0  0  0  0  0  0  0  0  0  0
    8.1018   -0.4366   18.2541 H   0  0  0  0  0  0  0  0  0  0  0  0
    6.5561    0.6836   17.5057 N   0  0  0  0  0  0  0  0  0  0  0  0
    5.4035    1.3134   17.7759 C   0  0  0  0  0  0  0  0  0  0  0  0
    4.9306    1.8459   16.9497 H   0  0  0  0  0  0  0  0  0  0  0  0
    4.8174    1.3143   19.0446 C   0  0  0  0  0  0  0  0  0  0  0  0
    3.8877    1.8444   19.2060 H   0  0  0  0  0  0  0  0  0  0  0  0
    5.4644    0.6549   20.0905 C   0  0  0  0  0  0  0  0  0  0  0  0
    5.0228    0.6462   21.0893 H   0  0  0  0  0  0  0  0  0  0  0  0
  1  2  1  0
  2  3  2  0
  3  4  1  0
  4  5  1  0
  4  6  2  3
  6  7  1  0
  6  8  1  0
  8  9  2  0
  9 10  1  0
  9 11  1  0
 11 12  1  0
 11 13  2  0
 13 14  1  0
 13 15  1  0
 15 16  1  0
 15 17  2  0
 17 18  1  0
  3 19  1  0
 19 20  1  0
 19 21  1  0
 19 22  1  0
 22 23  1  0
 22 24  1  0
 22 25  1  0
 25 26  1  6
 25 27  1  0
 27 28  2  0
 28 29  1  0
 28 30  1  0
 30 31  2  0
 31 32  1  0
 31 33  1  0
 33 34  1  0
 33 35  2  0
 35 36  1  0
 25  2  1  0
 35 27  1  0
 17  8  1  0
M  END
>  <cnnaffinity>  (1) 
4.82046

>  <plip>  (1) 
-0.03571428571428571

>  <filename>  (1) 
[H][C](=[C]([H])[c]1[c]([H])[c]([H])[c]([H])[c]([H])[c]1[H])[C]1=[C]([H])[C@@]([H])([c]2[c]([H])[n][c]([H])[c]([H])[c]2[H])[C]([H])([H])[C]1([H])[H]

>  <combo1>  (1) 
-0.23201340890280447

$$$$
