
     RDKit          3D

 34 36  0  0  0  0  0  0  0  0999 V2000
    4.8174    1.2781   19.1008 C   0  0  0  0  0  0  0  0  0  0  0  0
    5.4425    1.2704   17.8514 C   0  0  0  0  0  0  0  0  0  0  0  0
    6.6094    0.6403   17.6235 N   0  0  0  0  0  0  0  0  0  0  0  0
    7.1902    0.0164   18.6535 C   0  0  0  0  0  0  0  0  0  0  0  0
    6.6500   -0.0036   19.9517 C   0  0  0  0  0  0  0  0  0  0  0  0
    7.3601   -0.7016   20.8970 O   0  0  0  0  0  0  0  0  0  0  0  0
    7.3692   -0.3482   22.2284 C   0  0  0  0  0  0  0  0  0  0  0  0
    7.5168   -1.4118   23.1187 C   0  0  0  0  0  0  0  0  0  0  0  0
    7.5518   -1.1358   24.4881 C   0  0  0  0  0  0  0  0  0  0  0  0
    7.6152   -2.0739   25.4640 O   0  0  0  0  0  0  0  0  0  0  0  0
    7.8765   -3.4171   25.0843 C   0  0  0  0  0  0  0  0  0  0  0  0
    7.9900   -4.1998   26.3533 C   0  0  0  0  0  0  0  0  0  0  0  0
    6.8271   -4.4865   27.0948 C   0  0  0  0  0  0  0  0  0  0  0  0
    6.8471   -5.2703   28.1853 N   0  0  0  0  0  0  0  0  0  0  0  0
    8.0588   -5.7266   28.5537 C   0  0  0  0  0  0  0  0  0  0  0  0
    9.2326   -5.3392   27.8826 C   0  0  0  0  0  0  0  0  0  0  0  0
    9.2073   -4.5855   26.7706 N   0  0  0  0  0  0  0  0  0  0  0  0
   10.2122   -5.6129   28.2523 H   0  0  0  0  0  0  0  0  0  0  0  0
    8.0912   -6.3952   29.4082 H   0  0  0  0  0  0  0  0  0  0  0  0
    5.8721   -4.0674   26.7912 H   0  0  0  0  0  0  0  0  0  0  0  0
    8.8176   -3.4950   24.5293 H   0  0  0  0  0  0  0  0  0  0  0  0
    7.0460   -3.7873   24.4625 H   0  0  0  0  0  0  0  0  0  0  0  0
    7.4960    0.1833   24.9613 C   0  0  0  0  0  0  0  0  0  0  0  0
    7.3772    1.2268   24.0532 C   0  0  0  0  0  0  0  0  0  0  0  0
    7.3111    0.9760   22.6756 C   0  0  0  0  0  0  0  0  0  0  0  0
    7.2110    1.7831   21.9600 H   0  0  0  0  0  0  0  0  0  0  0  0
    7.3266    2.2490   24.4186 H   0  0  0  0  0  0  0  0  0  0  0  0
    7.5512    0.3244   26.0332 H   0  0  0  0  0  0  0  0  0  0  0  0
    7.6006   -2.4192   22.7253 H   0  0  0  0  0  0  0  0  0  0  0  0
    5.4257    0.6291   20.1824 C   0  0  0  0  0  0  0  0  0  0  0  0
    4.9894    0.6318   21.1787 H   0  0  0  0  0  0  0  0  0  0  0  0
    8.1346   -0.4964   18.4761 H   0  0  0  0  0  0  0  0  0  0  0  0
    4.9957    1.7837   17.0035 H   0  0  0  0  0  0  0  0  0  0  0  0
    3.8781    1.8037   19.2258 H   0  0  0  0  0  0  0  0  0  0  0  0
  1  2  2  0
  2  3  1  0
  3  4  2  0
  4  5  1  0
  5  6  1  0
  6  7  1  0
  7  8  2  0
  8  9  1  0
  9 10  1  0
 10 11  1  0
 11 12  1  0
 12 13  2  0
 13 14  1  0
 14 15  2  0
 15 16  1  0
 16 17  2  0
 16 18  1  0
 15 19  1  0
 13 20  1  0
 11 21  1  0
 11 22  1  0
  9 23  2  0
 23 24  1  0
 24 25  2  0
 25 26  1  0
 24 27  1  0
 23 28  1  0
  8 29  1  0
  5 30  2  0
 30 31  1  0
  4 32  1  0
  2 33  1  0
  1 34  1  0
 30  1  1  0
 25  7  1  0
 17 12  1  0
M  END
>  <cnnaffinity>  (1) 
5.06621

>  <plip>  (1) 
-0.0

>  <filename>  (1) 
[H][c]1[n][c]([H])[c]([C]([H])([H])[O][c]2[c]([H])[c]([H])[c]([H])[c]([O][c]3[c]([H])[n][c]([H])[c]([H])[c]3[H])[c]2[H])[n][c]1[H]

>  <combo1>  (1) 
-6.046339824584647e-06

$$$$
