
     RDKit          3D

 42 44  0  0  0  0  0  0  0  0999 V2000
    4.9631    1.8218   17.0188 H   0  0  0  0  0  0  0  0  0  0  0  0
    5.4438    1.3072   17.8476 C   0  0  0  0  0  0  0  0  0  0  0  0
    6.6127    0.7057   17.5750 N   0  0  0  0  0  0  0  0  0  0  0  0
    7.2328    0.0645   18.5760 C   0  0  0  0  0  0  0  0  0  0  0  0
    8.1829   -0.4109   18.3250 H   0  0  0  0  0  0  0  0  0  0  0  0
    6.7011   -0.0458   19.8815 C   0  0  0  0  0  0  0  0  0  0  0  0
    7.3525   -0.7614   20.9306 N   0  0  0  0  0  0  0  0  0  0  0  0
    6.7257   -1.8144   21.5866 C   0  0  0  0  0  0  0  0  0  0  0  0
    5.5822   -2.1814   21.4224 O   0  0  0  0  0  0  0  0  0  0  0  0
    7.7537   -2.4575   22.4908 C   0  0  0  0  0  0  0  0  0  0  0  0
    7.6015   -3.5383   22.4634 H   0  0  0  0  0  0  0  0  0  0  0  0
    7.5484   -2.1311   23.5158 H   0  0  0  0  0  0  0  0  0  0  0  0
    9.1023   -1.9572   21.9470 C   0  0  0  0  0  0  0  0  0  0  0  0
    9.5300   -2.6713   21.2377 H   0  0  0  0  0  0  0  0  0  0  0  0
    9.8542   -1.8147   22.7297 H   0  0  0  0  0  0  0  0  0  0  0  0
    8.7901   -0.6326   21.2053 C   0  0  2  0  0  0  0  0  0  0  0  0
    9.3122   -0.5889   20.2394 H   0  0  0  0  0  0  0  0  0  0  0  0
    9.2170    0.6315   22.0088 C   0  0  0  0  0  0  0  0  0  0  0  0
    8.8857    0.4807   23.0468 H   0  0  0  0  0  0  0  0  0  0  0  0
    8.5856    1.9509   21.5202 C   0  0  0  0  0  0  0  0  0  0  0  0
    7.4923    1.9225   21.6186 H   0  0  0  0  0  0  0  0  0  0  0  0
    8.7884    2.0811   20.4566 H   0  0  0  0  0  0  0  0  0  0  0  0
    9.1083    3.1732   22.2938 C   0  0  0  0  0  0  0  0  0  0  0  0
    8.6977    3.1399   23.3161 H   0  0  0  0  0  0  0  0  0  0  0  0
    8.7347    4.0880   21.8191 H   0  0  0  0  0  0  0  0  0  0  0  0
   10.5752    3.2195   22.3448 N   0  0  0  0  0  0  0  0  0  0  0  0
   11.3256    4.3829   22.3939 C   0  0  0  0  0  0  0  0  0  0  0  0
   12.5363    4.3822   22.2388 O   0  0  0  0  0  0  0  0  0  0  0  0
   10.6200    5.6922   22.6666 C   0  0  0  0  0  0  0  0  0  0  0  0
   10.3259    6.1518   21.7210 H   0  0  0  0  0  0  0  0  0  0  0  0
   11.3392    6.3588   23.1404 H   0  0  0  0  0  0  0  0  0  0  0  0
    9.7421    5.5748   23.3007 H   0  0  0  0  0  0  0  0  0  0  0  0
   11.2306    1.9900   22.7922 C   0  0  0  0  0  0  0  0  0  0  0  0
   12.3055    2.1467   22.6758 H   0  0  0  0  0  0  0  0  0  0  0  0
   11.0424    1.8396   23.8665 H   0  0  0  0  0  0  0  0  0  0  0  0
   10.7585    0.7833   21.9959 C   0  0  0  0  0  0  0  0  0  0  0  0
   11.1024    0.9058   20.9640 H   0  0  0  0  0  0  0  0  0  0  0  0
   11.2531   -0.1171   22.3826 H   0  0  0  0  0  0  0  0  0  0  0  0
    5.4802    0.5910   20.1472 C   0  0  0  0  0  0  0  0  0  0  0  0
    5.0688    0.5405   21.1564 H   0  0  0  0  0  0  0  0  0  0  0  0
    4.8423    1.2855   19.1123 C   0  0  0  0  0  0  0  0  0  0  0  0
    3.9032    1.8103   19.2733 H   0  0  0  0  0  0  0  0  0  0  0  0
  1  2  1  0
  2  3  2  0
  3  4  1  0
  4  5  1  0
  4  6  2  0
  6  7  1  0
  7  8  1  0
  8  9  2  0
  8 10  1  0
 10 11  1  0
 10 12  1  0
 10 13  1  0
 13 14  1  0
 13 15  1  0
 13 16  1  0
 16 17  1  6
 16 18  1  0
 18 19  1  0
 18 20  1  0
 20 21  1  0
 20 22  1  0
 20 23  1  0
 23 24  1  0
 23 25  1  0
 23 26  1  0
 26 27  1  0
 27 28  2  0
 27 29  1  0
 29 30  1  0
 29 31  1  0
 29 32  1  0
 26 33  1  0
 33 34  1  0
 33 35  1  0
 33 36  1  0
 36 37  1  0
 36 38  1  0
  6 39  1  0
 39 40  1  0
 39 41  2  0
 41 42  1  0
 41  2  1  0
 16  7  1  0
 36 18  1  0
M  END
>  <cnnaffinity>  (1) 
5.54826

>  <plip>  (1) 
-0.07142857142857142

>  <filename>  (1) 
[H][c]1[n][c]([H])[c]([N]2[C](=[O])[C]([H])([H])[C]([H])([H])[C@]2([H])[C]2([H])[C]([H])([H])[C]([H])([H])[N]([C](=[O])[C]([H])([H])[H])[C]([H])([H])[C]2([H])[H])[c]([H])[c]1[H]

>  <combo1>  (1) 
-0.4597022879473995

$$$$
