
     RDKit          3D

 29 31  0  0  0  0  0  0  0  0999 V2000
    4.8028    1.3112   19.0683 C   0  0  0  0  0  0  0  0  0  0  0  0
    5.4249    1.2866   17.8131 C   0  0  0  0  0  0  0  0  0  0  0  0
    6.5846    0.6553   17.5715 N   0  0  0  0  0  0  0  0  0  0  0  0
    7.1779    0.0393   18.6011 C   0  0  0  0  0  0  0  0  0  0  0  0
    6.6442    0.0005   19.9041 C   0  0  0  0  0  0  0  0  0  0  0  0
    7.3654   -0.6998   20.9725 C   0  0  0  0  0  0  0  0  0  0  0  0
    6.9962   -0.8780   22.2807 C   0  0  0  0  0  0  0  0  0  0  0  0
    8.0066   -1.5954   22.8742 N   0  0  0  0  0  0  0  0  0  0  0  0
    7.9402   -2.1329   24.2383 C   0  0  0  0  0  0  0  0  0  0  0  0
    7.2135   -3.4569   24.2933 C   0  0  0  0  0  0  0  0  0  0  0  0
    5.8047   -3.5459   24.3247 C   0  0  0  0  0  0  0  0  0  0  0  0
    5.2464   -4.8130   24.2988 C   0  0  0  0  0  0  0  0  0  0  0  0
    6.1210   -5.9054   24.2195 C   0  0  0  0  0  0  0  0  0  0  0  0
    7.4509   -5.7648   24.2038 N   0  0  0  0  0  0  0  0  0  0  0  0
    7.9894   -4.5473   24.2498 N   0  0  0  0  0  0  0  0  0  0  0  0
    5.7460   -6.9214   24.1477 H   0  0  0  0  0  0  0  0  0  0  0  0
    4.1766   -4.9976   24.3327 H   0  0  0  0  0  0  0  0  0  0  0  0
    5.2174   -2.6275   24.3689 H   0  0  0  0  0  0  0  0  0  0  0  0
    8.9563   -2.2688   24.6190 H   0  0  0  0  0  0  0  0  0  0  0  0
    7.4106   -1.4012   24.8654 H   0  0  0  0  0  0  0  0  0  0  0  0
    8.9289   -1.8296   21.8904 C   0  0  0  0  0  0  0  0  0  0  0  0
    8.5813   -1.3028   20.7444 N   0  0  0  0  0  0  0  0  0  0  0  0
    9.8529   -2.3550   22.0971 H   0  0  0  0  0  0  0  0  0  0  0  0
    6.1489   -0.5452   22.8636 H   0  0  0  0  0  0  0  0  0  0  0  0
    5.4263    0.6608   20.1319 C   0  0  0  0  0  0  0  0  0  0  0  0
    4.9715    0.6825   21.1240 H   0  0  0  0  0  0  0  0  0  0  0  0
    8.1295   -0.4393   18.3832 H   0  0  0  0  0  0  0  0  0  0  0  0
    4.9744    1.8010   16.9662 H   0  0  0  0  0  0  0  0  0  0  0  0
    3.8668    1.8475   19.2030 H   0  0  0  0  0  0  0  0  0  0  0  0
  1  2  2  0
  2  3  1  0
  3  4  2  0
  4  5  1  0
  5  6  1  0
  6  7  2  0
  7  8  1  0
  8  9  1  0
  9 10  1  0
 10 11  2  0
 11 12  1  0
 12 13  2  0
 13 14  1  0
 14 15  2  0
 13 16  1  0
 12 17  1  0
 11 18  1  0
  9 19  1  0
  9 20  1  0
  8 21  1  0
 21 22  2  0
 21 23  1  0
  7 24  1  0
  5 25  2  0
 25 26  1  0
  4 27  1  0
  2 28  1  0
  1 29  1  0
 25  1  1  0
 22  6  1  0
 15 10  1  0
M  END
>  <cnnaffinity>  (1) 
5.03088

>  <plip>  (1) 
-0.03571428571428571

>  <filename>  (1) 
[H][c]1[n][n][c]([C]([H])([H])[n]2[c]([H])[n][c](-[c]3[c]([H])[n][c]([H])[c]([H])[c]3[H])[c]2[H])[c]([H])[c]1[H]

>  <combo1>  (1) 
-0.2524231393095873

$$$$
