
     RDKit          3D

 35 37  0  0  0  0  0  0  0  0999 V2000
   13.3228    2.1035   23.7959 Cl  0  0  0  0  0  0  0  0  0  0  0  0
   12.0783    0.9603   23.3835 C   0  0  0  0  0  0  0  0  0  0  0  0
   11.5930    0.9196   22.0793 C   0  0  0  0  0  0  0  0  0  0  0  0
   10.6515   -0.0607   21.7388 C   0  0  0  0  0  0  0  0  0  0  0  0
   10.1988   -1.0052   22.6748 C   0  0  0  0  0  0  0  0  0  0  0  0
    9.3207   -2.1668   22.2434 C   0  0  0  0  0  0  0  0  0  0  0  0
    7.9436   -2.2964   22.9207 C   0  0  0  0  0  0  0  0  0  0  0  0
    7.2089   -1.0364   23.0498 N   0  0  0  0  0  0  0  0  0  0  0  0
    6.9230   -0.3430   24.2021 C   0  0  0  0  0  0  0  0  0  0  0  0
    6.4307    0.8315   23.9482 N   0  0  0  0  0  0  0  0  0  0  0  0
    6.3759    0.9558   22.5744 N   0  0  0  0  0  0  0  0  0  0  0  0
    6.8339   -0.1542   22.0680 C   0  0  0  0  0  0  0  0  0  0  0  0
    6.9783   -0.4900   20.7402 N   0  0  0  0  0  0  0  0  0  0  0  0
    6.4156    0.2396   19.6409 C   0  0  0  0  0  0  0  0  0  0  0  0
    5.2927    1.0695   19.7698 C   0  0  0  0  0  0  0  0  0  0  0  0
    4.7746    1.6700   18.6154 C   0  0  0  0  0  0  0  0  0  0  0  0
    5.4044    1.4695   17.3845 C   0  0  0  0  0  0  0  0  0  0  0  0
    6.5021    0.7098   17.2468 N   0  0  0  0  0  0  0  0  0  0  0  0
    6.9808    0.1152   18.3494 C   0  0  0  0  0  0  0  0  0  0  0  0
    7.8678   -0.4993   18.2142 H   0  0  0  0  0  0  0  0  0  0  0  0
    5.0056    1.9147   16.4753 H   0  0  0  0  0  0  0  0  0  0  0  0
    3.8900    2.2925   18.6642 H   0  0  0  0  0  0  0  0  0  0  0  0
    4.8687    1.2376   20.7587 H   0  0  0  0  0  0  0  0  0  0  0  0
    6.9637   -1.4958   20.6531 H   0  0  0  0  0  0  0  0  0  0  0  0
    7.0771   -0.7501   25.1929 H   0  0  0  0  0  0  0  0  0  0  0  0
    8.0384   -2.7195   23.9256 H   0  0  0  0  0  0  0  0  0  0  0  0
    7.3378   -3.0153   22.3541 H   0  0  0  0  0  0  0  0  0  0  0  0
    9.1571   -2.1131   21.1642 H   0  0  0  0  0  0  0  0  0  0  0  0
    9.8585   -3.1080   22.4201 H   0  0  0  0  0  0  0  0  0  0  0  0
   10.6449   -0.8859   23.9976 C   0  0  0  0  0  0  0  0  0  0  0  0
   11.5906    0.0820   24.3538 C   0  0  0  0  0  0  0  0  0  0  0  0
   11.9791    0.1430   25.3602 H   0  0  0  0  0  0  0  0  0  0  0  0
   10.2796   -1.5754   24.7575 H   0  0  0  0  0  0  0  0  0  0  0  0
   10.2697   -0.1075   20.7244 H   0  0  0  0  0  0  0  0  0  0  0  0
   11.9362    1.6591   21.3615 H   0  0  0  0  0  0  0  0  0  0  0  0
  1  2  1  0
  2  3  2  0
  3  4  1  0
  4  5  2  0
  5  6  1  0
  6  7  1  0
  7  8  1  0
  8  9  1  0
  9 10  2  0
 10 11  1  0
 11 12  2  0
 12 13  1  0
 13 14  1  0
 14 15  2  0
 15 16  1  0
 16 17  2  0
 17 18  1  0
 18 19  2  0
 19 20  1  0
 17 21  1  0
 16 22  1  0
 15 23  1  0
 13 24  1  0
  9 25  1  0
  7 26  1  0
  7 27  1  0
  6 28  1  0
  6 29  1  0
  5 30  1  0
 30 31  2  0
 31 32  1  0
 30 33  1  0
  4 34  1  0
  3 35  1  0
 31  2  1  0
 12  8  1  0
 19 14  1  0
M  END
>  <cnnaffinity>  (1) 
5.11474

>  <plip>  (1) 
-0.13793103448275862

>  <filename>  (1) 
[H][c]1[n][c]([H])[c]([N]([H])[c]2[n][n][c]([H])[n]2[C]([H])([H])[C]([H])([H])[c]2[c]([H])[c]([H])[c]([Cl])[c]([H])[c]2[H])[c]([H])[c]1[H]

>  <combo1>  (1) 
-0.7844827106904246

$$$$
