
     RDKit          3D

 36 37  0  0  0  0  0  0  0  0999 V2000
    8.8700   -2.7803   26.0061 C   0  0  0  0  0  0  0  0  0  0  0  0
    8.9246   -1.2971   25.6471 C   0  0  0  0  0  0  0  0  0  0  0  0
    7.8637   -0.9016   24.6999 N   0  0  0  0  0  0  0  0  0  0  0  0
    8.0922   -1.0628   23.3490 C   0  0  0  0  0  0  0  0  0  0  0  0
    8.9513   -1.8335   22.9350 O   0  0  0  0  0  0  0  0  0  0  0  0
    7.2036   -0.1982   22.3126 C   0  0  0  0  0  0  0  0  0  0  0  0
    6.5471    0.7757   22.6542 O   0  0  0  0  0  0  0  0  0  0  0  0
    7.2654   -0.6312   21.0063 N   0  0  0  0  0  0  0  0  0  0  0  0
    6.6370    0.0077   19.8916 C   0  0  0  0  0  0  0  0  0  0  0  0
    5.4238    0.6851   20.0825 C   0  0  0  0  0  0  0  0  0  0  0  0
    4.8246    1.3129   18.9879 C   0  0  0  0  0  0  0  0  0  0  0  0
    5.4597    1.2682   17.7452 C   0  0  0  0  0  0  0  0  0  0  0  0
    6.6134    0.6101   17.5345 N   0  0  0  0  0  0  0  0  0  0  0  0
    7.1762   -0.0118   18.5815 C   0  0  0  0  0  0  0  0  0  0  0  0
    8.1033   -0.5499   18.3737 H   0  0  0  0  0  0  0  0  0  0  0  0
    5.0332    1.7811   16.8871 H   0  0  0  0  0  0  0  0  0  0  0  0
    3.8866    1.8488   19.1087 H   0  0  0  0  0  0  0  0  0  0  0  0
    4.9943    0.7175   21.0771 H   0  0  0  0  0  0  0  0  0  0  0  0
    7.8436   -1.4455   20.8372 H   0  0  0  0  0  0  0  0  0  0  0  0
    6.6164   -0.3298   25.2473 C   0  0  0  0  0  0  0  0  0  0  0  0
    6.7722    1.1449   25.6737 C   0  0  0  0  0  0  0  0  0  0  0  0
    6.4651    1.1833   27.1807 C   0  0  0  0  0  0  0  0  0  0  0  0
    5.7925   -0.0778   27.4269 N   0  0  0  0  0  0  0  0  0  0  0  0
    5.9932   -1.0355   26.4868 C   0  0  0  0  0  0  0  0  0  0  0  0
    5.6742   -2.1997   26.6288 O   0  0  0  0  0  0  0  0  0  0  0  0
    5.5829   -0.4298   28.3477 H   0  0  0  0  0  0  0  0  0  0  0  0
    7.3872    1.2766   27.7681 H   0  0  0  0  0  0  0  0  0  0  0  0
    5.8211    2.0231   27.4556 H   0  0  0  0  0  0  0  0  0  0  0  0
    6.0476    1.7433   25.1215 H   0  0  0  0  0  0  0  0  0  0  0  0
    7.7713    1.5308   25.4392 H   0  0  0  0  0  0  0  0  0  0  0  0
    5.8408   -0.4316   24.4830 H   0  0  0  0  0  0  0  0  0  0  0  0
    9.9024   -1.0346   25.2136 H   0  0  0  0  0  0  0  0  0  0  0  0
    8.7898   -0.6889   26.5500 H   0  0  0  0  0  0  0  0  0  0  0  0
    7.8590   -3.0762   26.3080 H   0  0  0  0  0  0  0  0  0  0  0  0
    9.5443   -2.9920   26.8458 H   0  0  0  0  0  0  0  0  0  0  0  0
    9.1703   -3.3846   25.1448 H   0  0  0  0  0  0  0  0  0  0  0  0
  1  2  1  0
  2  3  1  0
  3  4  1  0
  4  5  2  0
  4  6  1  0
  6  7  2  0
  6  8  1  0
  8  9  1  0
  9 10  2  0
 10 11  1  0
 11 12  2  0
 12 13  1  0
 13 14  2  0
 14 15  1  0
 12 16  1  0
 11 17  1  0
 10 18  1  0
  8 19  1  0
  3 20  1  0
 20 21  1  0
 21 22  1  0
 22 23  1  0
 23 24  1  0
 24 25  2  0
 23 26  1  0
 22 27  1  0
 22 28  1  0
 21 29  1  0
 21 30  1  0
 20 31  1  0
  2 32  1  0
  2 33  1  0
  1 34  1  0
  1 35  1  0
  1 36  1  0
 14  9  1  0
 24 20  1  0
M  END
>  <cnnaffinity>  (1) 
4.48109

>  <plip>  (1) 
-0.07142857142857142

>  <filename>  (1) 
[H][c]1[n][c]([H])[c]([N]([H])[C](=[O])[C](=[O])[N]([C]([H])([H])[C]([H])([H])[H])[C]2([H])[C](=[O])[N]([H])[C]([H])([H])[C]2([H])[H])[c]([H])[c]1[H]

>  <combo1>  (1) 
-0.38615332486760257

$$$$
