
     RDKit          3D

 35 37  0  0  0  0  0  0  0  0999 V2000
   10.3750   -4.0609   25.5307 Br  0  0  0  0  0  0  0  0  0  0  0  0
    8.5057   -3.8341   25.8536 C   0  0  0  0  0  0  0  0  0  0  0  0
    7.9035   -4.5746   26.8731 C   0  0  0  0  0  0  0  0  0  0  0  0
    6.5236   -4.4995   27.0858 C   0  0  0  0  0  0  0  0  0  0  0  0
    5.7304   -3.7262   26.2329 C   0  0  0  0  0  0  0  0  0  0  0  0
    6.3392   -2.9177   25.2655 C   0  0  0  0  0  0  0  0  0  0  0  0
    7.7322   -2.9334   25.1040 C   0  0  0  0  0  0  0  0  0  0  0  0
    8.3961   -1.9227   24.2129 C   0  0  0  0  0  0  0  0  0  0  0  0
    8.8101   -2.5637   22.9032 C   0  0  0  0  0  0  0  0  0  0  0  0
    9.3631   -1.5290   22.0239 N   0  0  0  0  0  0  0  0  0  0  0  0
   10.6811   -1.1540   21.9347 C   0  0  0  0  0  0  0  0  0  0  0  0
   10.8129   -0.2066   21.0471 N   0  0  0  0  0  0  0  0  0  0  0  0
    9.5659    0.0543   20.5283 N   0  0  0  0  0  0  0  0  0  0  0  0
    8.7029   -0.7267   21.1254 C   0  0  0  0  0  0  0  0  0  0  0  0
    7.3287   -0.7265   20.9290 N   0  0  0  0  0  0  0  0  0  0  0  0
    6.6905   -0.0307   19.8770 C   0  0  0  0  0  0  0  0  0  0  0  0
    5.4644    0.5737   20.1308 C   0  0  0  0  0  0  0  0  0  0  0  0
    4.8335    1.2648   19.0883 C   0  0  0  0  0  0  0  0  0  0  0  0
    5.4197    1.3193   17.8160 C   0  0  0  0  0  0  0  0  0  0  0  0
    6.5935    0.7230   17.5421 N   0  0  0  0  0  0  0  0  0  0  0  0
    7.2126    0.0771   18.5585 C   0  0  0  0  0  0  0  0  0  0  0  0
    8.1598   -0.4093   18.3554 H   0  0  0  0  0  0  0  0  0  0  0  0
    4.9091    1.8595   17.0242 H   0  0  0  0  0  0  0  0  0  0  0  0
    3.8934    1.7744   19.2548 H   0  0  0  0  0  0  0  0  0  0  0  0
    5.0311    0.5233   21.1273 H   0  0  0  0  0  0  0  0  0  0  0  0
    6.7771   -0.9693   21.7492 H   0  0  0  0  0  0  0  0  0  0  0  0
   11.4984   -1.5818   22.5080 H   0  0  0  0  0  0  0  0  0  0  0  0
    9.5652   -3.3337   23.1041 H   0  0  0  0  0  0  0  0  0  0  0  0
    7.9474   -3.0458   22.4294 H   0  0  0  0  0  0  0  0  0  0  0  0
    7.7212   -1.0814   24.0326 H   0  0  0  0  0  0  0  0  0  0  0  0
    9.2728   -1.5171   24.7268 H   0  0  0  0  0  0  0  0  0  0  0  0
    5.7204   -2.2763   24.6433 H   0  0  0  0  0  0  0  0  0  0  0  0
    4.6482   -3.7523   26.3216 H   0  0  0  0  0  0  0  0  0  0  0  0
    6.0693   -5.0741   27.8883 H   0  0  0  0  0  0  0  0  0  0  0  0
    8.5281   -5.2134   27.4911 H   0  0  0  0  0  0  0  0  0  0  0  0
  1  2  1  0
  2  3  2  0
  3  4  1  0
  4  5  2  0
  5  6  1  0
  6  7  2  0
  7  8  1  0
  8  9  1  0
  9 10  1  0
 10 11  1  0
 11 12  2  0
 12 13  1  0
 13 14  2  0
 14 15  1  0
 15 16  1  0
 16 17  2  0
 17 18  1  0
 18 19  2  0
 19 20  1  0
 20 21  2  0
 21 22  1  0
 19 23  1  0
 18 24  1  0
 17 25  1  0
 15 26  1  0
 11 27  1  0
  9 28  1  0
  9 29  1  0
  8 30  1  0
  8 31  1  0
  6 32  1  0
  5 33  1  0
  4 34  1  0
  3 35  1  0
  7  2  1  0
 14 10  1  0
 21 16  1  0
M  END
>  <cnnaffinity>  (1) 
5.65475

>  <plip>  (1) 
-0.07142857142857142

>  <filename>  (1) 
[H][c]1[n][c]([H])[c]([N]([H])[c]2[n][n][c]([H])[n]2[C]([H])([H])[C]([H])([H])[c]2[c]([H])[c]([H])[c]([H])[c]([H])[c]2[Br])[c]([H])[c]1[H]

>  <combo1>  (1) 
-0.3911407510455785

$$$$
