
     RDKit          3D

 27 29  0  0  0  0  0  0  0  0999 V2000
    4.9304    1.8129   16.9533 H   0  0  0  0  0  0  0  0  0  0  0  0
    5.4066    1.3127   17.7940 C   0  0  0  0  0  0  0  0  0  0  0  0
    6.5721    0.7002   17.5398 N   0  0  0  0  0  0  0  0  0  0  0  0
    7.1830    0.0910   18.5672 C   0  0  0  0  0  0  0  0  0  0  0  0
    8.1328   -0.3850   18.3134 H   0  0  0  0  0  0  0  0  0  0  0  0
    6.6649    0.0275   19.8731 C   0  0  0  0  0  0  0  0  0  0  0  0
    7.3811   -0.7290   20.9878 C   0  0  1  0  0  0  0  0  0  0  0  0
    8.4007   -0.9492   20.6341 H   0  0  0  0  0  0  0  0  0  0  0  0
    7.4352    0.0242   22.2338 N   0  0  0  0  0  0  0  0  0  0  0  0
    8.1554    1.1849   22.4093 C   0  0  0  0  0  0  0  0  0  0  0  0
    8.9738    1.4998   21.3876 O   0  0  0  0  0  0  0  0  0  0  0  0
    9.6018    2.6538   21.7486 C   0  0  0  0  0  0  0  0  0  0  0  0
   10.3455    2.9850   21.0514 H   0  0  0  0  0  0  0  0  0  0  0  0
    9.1722    3.0703   22.9670 C   0  0  0  0  0  0  0  0  0  0  0  0
    9.4992    3.9612   23.4869 H   0  0  0  0  0  0  0  0  0  0  0  0
    8.2338    2.0857   23.4224 C   0  0  0  0  0  0  0  0  0  0  0  0
    7.7019    1.9674   24.3577 H   0  0  0  0  0  0  0  0  0  0  0  0
    6.8832   -0.6450   23.3146 C   0  0  0  0  0  0  0  0  0  0  0  0
    6.7582   -0.2381   24.4356 O   0  0  0  0  0  0  0  0  0  0  0  0
    6.5135   -1.8783   22.8975 O   0  0  0  0  0  0  0  0  0  0  0  0
    6.6712   -2.0114   21.4830 C   0  0  0  0  0  0  0  0  0  0  0  0
    5.6770   -2.1058   21.0317 H   0  0  0  0  0  0  0  0  0  0  0  0
    7.2589   -2.9157   21.3045 H   0  0  0  0  0  0  0  0  0  0  0  0
    5.4466    0.6791   20.1095 C   0  0  0  0  0  0  0  0  0  0  0  0
    5.0171    0.6861   21.1115 H   0  0  0  0  0  0  0  0  0  0  0  0
    4.8059    1.3287   19.0558 C   0  0  0  0  0  0  0  0  0  0  0  0
    3.8635    1.8442   19.2014 H   0  0  0  0  0  0  0  0  0  0  0  0
  1  2  1  0
  2  3  2  0
  3  4  1  0
  4  5  1  0
  4  6  2  0
  6  7  1  0
  7  8  1  6
  7  9  1  0
  9 10  1  0
 10 11  1  0
 11 12  1  0
 12 13  1  0
 12 14  2  0
 14 15  1  0
 14 16  1  0
 16 17  1  0
  9 18  1  0
 18 19  2  0
 18 20  1  0
 20 21  1  0
 21 22  1  0
 21 23  1  0
  6 24  1  0
 24 25  1  0
 24 26  2  0
 26 27  1  0
 26  2  1  0
 21  7  1  0
 16 10  2  0
M  END
>  <cnnaffinity>  (1) 
3.8869

>  <plip>  (1) 
-0.07142857142857142

>  <filename>  (1) 
[H][c]1[n][c]([H])[c]([C@@]2([H])[N]([c]3[o][c]([H])[c]([H])[c]3[H])[C](=[O])[O][C]2([H])[H])[c]([H])[c]1[H]

>  <combo1>  (1) 
-0.4019808537602154

$$$$
