
     RDKit          3D

 32 34  0  0  0  0  0  0  0  0999 V2000
    6.9272   -0.6676   22.2143 O   0  0  0  0  0  0  0  0  0  0  0  0
    7.2998   -0.6717   21.0700 C   0  0  0  0  0  0  0  0  0  0  0  0
    8.3864   -1.3680   20.6128 O   0  0  0  0  0  0  0  0  0  0  0  0
    9.0728   -2.1805   21.5018 C   0  0  0  0  0  0  0  0  0  0  0  0
   10.4006   -1.8606   21.7440 C   0  0  0  0  0  0  0  0  0  0  0  0
   11.1022   -2.6016   22.6998 C   0  0  0  0  0  0  0  0  0  0  0  0
   10.4552   -3.6200   23.4038 C   0  0  0  0  0  0  0  0  0  0  0  0
    9.1546   -4.0207   23.0479 C   0  0  0  0  0  0  0  0  0  0  0  0
    8.4520   -3.3085   22.0551 C   0  0  0  0  0  0  0  0  0  0  0  0
    7.1212   -3.8603   21.5321 C   0  0  0  0  0  0  0  0  0  0  0  0
    7.1005   -5.3832   21.5565 C   0  0  0  0  0  0  0  0  0  0  0  0
    7.7395   -6.0503   22.5165 C   0  0  0  0  0  0  0  0  0  0  0  0
    8.5205   -5.2947   23.5919 C   0  0  0  0  0  0  0  0  0  0  0  0
    9.2771   -5.9417   24.0470 H   0  0  0  0  0  0  0  0  0  0  0  0
    7.8271   -5.0024   24.3953 H   0  0  0  0  0  0  0  0  0  0  0  0
    7.7006   -7.1405   22.5658 H   0  0  0  0  0  0  0  0  0  0  0  0
    6.5275   -5.9065   20.7885 H   0  0  0  0  0  0  0  0  0  0  0  0
    6.9186   -3.4965   20.5210 H   0  0  0  0  0  0  0  0  0  0  0  0
    6.3149   -3.4559   22.1638 H   0  0  0  0  0  0  0  0  0  0  0  0
   10.9964   -4.2021   24.1487 H   0  0  0  0  0  0  0  0  0  0  0  0
   12.1573   -2.3979   22.8405 H   0  0  0  0  0  0  0  0  0  0  0  0
   10.8626   -1.0499   21.1849 H   0  0  0  0  0  0  0  0  0  0  0  0
    6.6344    0.0263   19.9586 C   0  0  0  0  0  0  0  0  0  0  0  0
    5.4222    0.6978   20.1580 C   0  0  0  0  0  0  0  0  0  0  0  0
    4.8419    1.3199   19.0597 C   0  0  0  0  0  0  0  0  0  0  0  0
    5.4956    1.2592   17.8224 C   0  0  0  0  0  0  0  0  0  0  0  0
    6.6576    0.6190   17.6294 N   0  0  0  0  0  0  0  0  0  0  0  0
    7.2082    0.0146   18.6836 C   0  0  0  0  0  0  0  0  0  0  0  0
    8.1471   -0.5094   18.5125 H   0  0  0  0  0  0  0  0  0  0  0  0
    5.0697    1.7420   16.9458 H   0  0  0  0  0  0  0  0  0  0  0  0
    3.9067    1.8562   19.1447 H   0  0  0  0  0  0  0  0  0  0  0  0
    4.9685    0.7201   21.1510 H   0  0  0  0  0  0  0  0  0  0  0  0
  1  2  2  0
  2  3  1  0
  3  4  1  0
  4  5  2  0
  5  6  1  0
  6  7  2  0
  7  8  1  0
  8  9  2  0
  9 10  1  0
 10 11  1  0
 11 12  2  0
 12 13  1  0
 13 14  1  0
 13 15  1  0
 12 16  1  0
 11 17  1  0
 10 18  1  0
 10 19  1  0
  7 20  1  0
  6 21  1  0
  5 22  1  0
  2 23  1  0
 23 24  2  0
 24 25  1  0
 25 26  2  0
 26 27  1  0
 27 28  2  0
 28 29  1  0
 26 30  1  0
 25 31  1  0
 24 32  1  0
  9  4  1  0
 28 23  1  0
 13  8  1  0
M  END
>  <cnnaffinity>  (1) 
5.2445

>  <plip>  (1) 
-0.10344827586206896

>  <filename>  (1) 
[H][C]1=[C]([H])[C]([H])([H])[c]2[c]([O][C](=[O])[c]3[c]([H])[n][c]([H])[c]([H])[c]3[H])[c]([H])[c]([H])[c]([H])[c]2[C]1([H])[H]

>  <combo1>  (1) 
-0.719680154351461

$$$$
