
     RDKit          3D

 28 29  0  0  0  0  0  0  0  0999 V2000
    8.7404   -0.1260   21.2539 C   0  0  0  0  0  0  0  0  0  0  0  0
    7.3592   -0.7456   21.0898 C   0  0  0  0  0  0  0  0  0  0  0  0
    7.5205   -2.1728   20.8230 N   0  0  0  0  0  0  0  0  0  0  0  0
    7.7589   -3.0578   21.8568 C   0  0  0  0  0  0  0  0  0  0  0  0
    7.9871   -2.4814   23.0402 N   0  0  0  0  0  0  0  0  0  0  0  0
    8.2178   -3.2602   24.0915 C   0  0  0  0  0  0  0  0  0  0  0  0
    8.2498   -4.6522   23.9949 C   0  0  0  0  0  0  0  0  0  0  0  0
    8.0052   -5.2688   22.7725 C   0  0  0  0  0  0  0  0  0  0  0  0
    7.9981   -7.1684   22.6102 Br  0  0  0  0  0  0  0  0  0  0  0  0
    7.7416   -4.4535   21.6758 C   0  0  0  0  0  0  0  0  0  0  0  0
    7.4320   -5.0240   20.4860 F   0  0  0  0  0  0  0  0  0  0  0  0
    8.4543   -5.2451   24.8751 H   0  0  0  0  0  0  0  0  0  0  0  0
    8.3814   -2.7681   25.0446 H   0  0  0  0  0  0  0  0  0  0  0  0
    7.5022   -2.5179   19.8687 H   0  0  0  0  0  0  0  0  0  0  0  0
    6.6309   -0.1000   19.9575 C   0  0  0  0  0  0  0  0  0  0  0  0
    5.4322    0.5843   20.1785 C   0  0  0  0  0  0  0  0  0  0  0  0
    4.8567    1.2482   19.0994 C   0  0  0  0  0  0  0  0  0  0  0  0
    5.4808    1.2197   17.8495 C   0  0  0  0  0  0  0  0  0  0  0  0
    6.6263    0.5465   17.6351 N   0  0  0  0  0  0  0  0  0  0  0  0
    7.1892   -0.0995   18.6729 C   0  0  0  0  0  0  0  0  0  0  0  0
    8.1379   -0.6008   18.5041 H   0  0  0  0  0  0  0  0  0  0  0  0
    5.0256    1.7693   17.0304 H   0  0  0  0  0  0  0  0  0  0  0  0
    3.9401    1.8120   19.2205 H   0  0  0  0  0  0  0  0  0  0  0  0
    4.9761    0.6240   21.1677 H   0  0  0  0  0  0  0  0  0  0  0  0
    6.7873   -0.6059   22.0202 H   0  0  0  0  0  0  0  0  0  0  0  0
    9.3423   -0.2872   20.3538 H   0  0  0  0  0  0  0  0  0  0  0  0
    8.6436    0.9496   21.4264 H   0  0  0  0  0  0  0  0  0  0  0  0
    9.2598   -0.5730   22.1079 H   0  0  0  0  0  0  0  0  0  0  0  0
  1  2  1  0
  2  3  1  0
  3  4  1  0
  4  5  2  0
  5  6  1  0
  6  7  2  0
  7  8  1  0
  8  9  1  0
  8 10  2  0
 10 11  1  0
  7 12  1  0
  6 13  1  0
  3 14  1  0
  2 15  1  0
 15 16  2  0
 16 17  1  0
 17 18  2  0
 18 19  1  0
 19 20  2  0
 20 21  1  0
 18 22  1  0
 17 23  1  0
 16 24  1  0
  2 25  1  0
  1 26  1  0
  1 27  1  0
  1 28  1  0
 10  4  1  0
 20 15  1  0
M  END
>  <cnnaffinity>  (1) 
5.12249

>  <plip>  (1) 
-0.034482758620689655

>  <filename>  (1) 
[H][c]1[n][c]([H])[c]([C]([H])([N]([H])[c]2[n][c]([H])[c]([H])[c]([Br])[c]2[F])[C]([H])([H])[H])[c]([H])[c]1[H]

>  <combo1>  (1) 
-0.19882014905737727

$$$$
