
     RDKit          3D

 27 29  0  0  0  0  0  0  0  0999 V2000
    4.7929    1.3136   19.0953 C   0  0  0  0  0  0  0  0  0  0  0  0
    5.3985    1.2970   17.8338 C   0  0  0  0  0  0  0  0  0  0  0  0
    6.5622    0.6795   17.5768 N   0  0  0  0  0  0  0  0  0  0  0  0
    7.1664    0.0721   18.6045 C   0  0  0  0  0  0  0  0  0  0  0  0
    6.6497    0.0224   19.9095 C   0  0  0  0  0  0  0  0  0  0  0  0
    7.4230   -0.6900   20.9893 C   0  0  0  0  0  0  0  0  0  0  0  0
    8.7950   -0.2962   21.0779 O   0  0  0  0  0  0  0  0  0  0  0  0
    9.1472    0.9508   21.5326 C   0  0  0  0  0  0  0  0  0  0  0  0
   10.4801    1.2542   21.4528 C   0  0  0  0  0  0  0  0  0  0  0  0
   10.9233    2.4860   21.9240 N   0  0  0  0  0  0  0  0  0  0  0  0
   12.1513    3.0868   21.9863 C   0  0  0  0  0  0  0  0  0  0  0  0
   12.0640    4.2767   22.5252 N   0  0  0  0  0  0  0  0  0  0  0  0
   10.7592    4.5070   22.8436 N   0  0  0  0  0  0  0  0  0  0  0  0
   10.0715    3.4347   22.4891 C   0  0  0  0  0  0  0  0  0  0  0  0
    8.6760    3.1244   22.5586 C   0  0  0  0  0  0  0  0  0  0  0  0
    8.2282    1.9087   22.0972 C   0  0  0  0  0  0  0  0  0  0  0  0
    7.1691    1.6687   22.1624 H   0  0  0  0  0  0  0  0  0  0  0  0
    8.0184    3.8777   22.9790 H   0  0  0  0  0  0  0  0  0  0  0  0
   13.0646    2.6201   21.6660 H   0  0  0  0  0  0  0  0  0  0  0  0
   11.2075    0.5606   21.0589 H   0  0  0  0  0  0  0  0  0  0  0  0
    7.4899   -1.7582   20.7694 H   0  0  0  0  0  0  0  0  0  0  0  0
    6.9126   -0.5980   21.9599 H   0  0  0  0  0  0  0  0  0  0  0  0
    5.4247    0.6530   20.1529 C   0  0  0  0  0  0  0  0  0  0  0  0
    4.9875    0.6372   21.1583 H   0  0  0  0  0  0  0  0  0  0  0  0
    8.1096   -0.4188   18.3786 H   0  0  0  0  0  0  0  0  0  0  0  0
    4.9232    1.7871   16.9872 H   0  0  0  0  0  0  0  0  0  0  0  0
    3.8641    1.8507   19.2451 H   0  0  0  0  0  0  0  0  0  0  0  0
  1  2  2  0
  2  3  1  0
  3  4  2  0
  4  5  1  0
  5  6  1  0
  6  7  1  0
  7  8  1  0
  8  9  2  0
  9 10  1  0
 10 11  1  0
 11 12  2  0
 12 13  1  0
 13 14  2  0
 14 15  1  0
 15 16  2  0
 16 17  1  0
 15 18  1  0
 11 19  1  0
  9 20  1  0
  6 21  1  0
  6 22  1  0
  5 23  2  0
 23 24  1  0
  4 25  1  0
  2 26  1  0
  1 27  1  0
 23  1  1  0
 16  8  1  0
 14 10  1  0
M  END
>  <cnnaffinity>  (1) 
4.74437

>  <plip>  (1) 
-0.03571428571428571

>  <filename>  (1) 
[H][c]1[n][c]([H])[c]([C]([H])([H])[O][c]2[c]([H])[c]([H])[c]3[n][n][c]([H])[n]3[c]2[H])[c]([H])[c]1[H]

>  <combo1>  (1) 
-0.2496501276883969

$$$$
