
     RDKit          3D

 42 45  0  0  0  0  0  0  0  0999 V2000
   13.7882    6.7987   22.7535 F   0  0  0  0  0  0  0  0  0  0  0  0
   12.8822    5.8135   22.8089 C   0  0  0  0  0  0  0  0  0  0  0  0
   13.2191    4.5578   22.3139 C   0  0  0  0  0  0  0  0  0  0  0  0
   12.2428    3.5618   22.2726 C   0  0  0  0  0  0  0  0  0  0  0  0
   10.9327    3.8369   22.7161 C   0  0  0  0  0  0  0  0  0  0  0  0
    9.7975    2.9055   22.5676 C   0  0  0  0  0  0  0  0  0  0  0  0
    8.5734    3.1186   22.9300 N   0  0  0  0  0  0  0  0  0  0  0  0
    7.8390    1.9835   22.5726 N   0  0  0  0  0  0  0  0  0  0  0  0
    8.6914    1.1979   22.0093 C   0  0  0  0  0  0  0  0  0  0  0  0
    8.5729   -0.0399   21.4686 N   0  0  0  0  0  0  0  0  0  0  0  0
    7.2537   -0.6229   21.2402 C   0  0  0  0  0  0  0  0  0  0  0  0
    6.5862    0.0938   20.0869 C   0  0  0  0  0  0  0  0  0  0  0  0
    5.3542    0.7517   20.2061 C   0  0  0  0  0  0  0  0  0  0  0  0
    4.8082    1.3586   19.0723 C   0  0  0  0  0  0  0  0  0  0  0  0
    5.5147    1.2889   17.8676 C   0  0  0  0  0  0  0  0  0  0  0  0
    6.6984    0.6736   17.7355 N   0  0  0  0  0  0  0  0  0  0  0  0
    7.2222    0.1196   18.8354 C   0  0  0  0  0  0  0  0  0  0  0  0
    8.2048   -0.3398   18.6975 H   0  0  0  0  0  0  0  0  0  0  0  0
    5.1120    1.7348   16.9619 H   0  0  0  0  0  0  0  0  0  0  0  0
    3.8705    1.9020   19.1114 H   0  0  0  0  0  0  0  0  0  0  0  0
    4.8432    0.8128   21.1709 H   0  0  0  0  0  0  0  0  0  0  0  0
    7.4981   -2.1213   20.9379 C   0  0  0  0  0  0  0  0  0  0  0  0
    6.2488   -2.9817   20.6504 C   0  0  0  0  0  0  0  0  0  0  0  0
    5.8642   -3.4921   22.0458 C   0  0  0  0  0  0  0  0  0  0  0  0
    7.0335   -3.4294   22.8478 O   0  0  0  0  0  0  0  0  0  0  0  0
    8.1170   -2.8773   22.1195 C   0  0  0  0  0  0  0  0  0  0  0  0
    8.7012   -2.2317   22.7885 H   0  0  0  0  0  0  0  0  0  0  0  0
    8.7818   -3.6775   21.7521 H   0  0  0  0  0  0  0  0  0  0  0  0
    5.4951   -4.5247   22.0428 H   0  0  0  0  0  0  0  0  0  0  0  0
    5.0900   -2.8651   22.5007 H   0  0  0  0  0  0  0  0  0  0  0  0
    5.4511   -2.4171   20.1567 H   0  0  0  0  0  0  0  0  0  0  0  0
    6.5001   -3.8229   19.9933 H   0  0  0  0  0  0  0  0  0  0  0  0
    8.2088   -2.0801   20.1117 H   0  0  0  0  0  0  0  0  0  0  0  0
    6.6491   -0.5231   22.1598 H   0  0  0  0  0  0  0  0  0  0  0  0
    9.1932   -0.0775   20.6755 H   0  0  0  0  0  0  0  0  0  0  0  0
    9.9485    1.6920   21.9589 O   0  0  0  0  0  0  0  0  0  0  0  0
   10.6481    5.0972   23.2803 C   0  0  0  0  0  0  0  0  0  0  0  0
   11.6201    6.0879   23.3273 C   0  0  0  0  0  0  0  0  0  0  0  0
   11.3991    7.0682   23.7169 H   0  0  0  0  0  0  0  0  0  0  0  0
    9.6440    5.2974   23.6491 H   0  0  0  0  0  0  0  0  0  0  0  0
   12.5127    2.5852   21.8720 H   0  0  0  0  0  0  0  0  0  0  0  0
   14.2231    4.3969   21.9381 H   0  0  0  0  0  0  0  0  0  0  0  0
  1  2  1  0
  2  3  2  0
  3  4  1  0
  4  5  2  0
  5  6  1  0
  6  7  2  0
  7  8  1  0
  8  9  2  0
  9 10  1  0
 10 11  1  0
 11 12  1  0
 12 13  2  0
 13 14  1  0
 14 15  2  0
 15 16  1  0
 16 17  2  0
 17 18  1  0
 15 19  1  0
 14 20  1  0
 13 21  1  0
 11 22  1  0
 22 23  1  0
 23 24  1  0
 24 25  1  0
 25 26  1  0
 26 27  1  0
 26 28  1  0
 24 29  1  0
 24 30  1  0
 23 31  1  0
 23 32  1  0
 22 33  1  0
 11 34  1  0
 10 35  1  0
  9 36  1  0
  5 37  1  0
 37 38  2  0
 38 39  1  0
 37 40  1  0
  4 41  1  0
  3 42  1  0
 38  2  1  0
 36  6  1  0
 17 12  1  0
 26 22  1  0
M  END
>  <cnnaffinity>  (1) 
5.29026

>  <plip>  (1) 
-0.10714285714285714

>  <filename>  (1) 
[H][c]1[n][c]([H])[c]([C]([H])([N]([H])[c]2[n][n][c](-[c]3[c]([H])[c]([H])[c]([F])[c]([H])[c]3[H])[o]2)[C]2([H])[C]([H])([H])[O][C]([H])([H])[C]2([H])[H])[c]([H])[c]1[H]

>  <combo1>  (1) 
-0.5551150763104061

$$$$
