
     RDKit          3D

 28 29  0  0  0  0  0  0  0  0999 V2000
    5.6238    1.4426   16.6929 H   0  0  0  0  0  0  0  0  0  0  0  0
    5.9185    1.1102   17.6863 C   0  0  0  0  0  0  0  0  0  0  0  0
    7.0601    0.3986   17.7614 N   0  0  0  0  0  0  0  0  0  0  0  0
    7.4478   -0.0261   18.9839 C   0  0  0  0  0  0  0  0  0  0  0  0
    8.4033   -0.5931   19.1471 H   0  0  0  0  0  0  0  0  0  0  0  0
    6.7006    0.1914   20.1628 C   0  0  0  0  0  0  0  0  0  0  0  0
    7.2356   -0.3210   21.3820 N   0  0  0  0  0  0  0  0  0  0  0  0
    7.0202   -1.5183   21.7489 C   0  0  0  0  0  0  0  0  0  0  0  0
    7.8969   -2.0591   22.8305 C   0  0  0  0  0  0  0  0  0  0  0  0
    7.5082   -2.4012   24.1210 C   0  0  0  0  0  0  0  0  0  0  0  0
    6.4641   -2.2767   24.4040 H   0  0  0  0  0  0  0  0  0  0  0  0
    8.4286   -2.8968   25.0421 C   0  0  0  0  0  0  0  0  0  0  0  0
    8.1158   -3.1386   26.0566 H   0  0  0  0  0  0  0  0  0  0  0  0
    9.7633   -3.0998   24.6556 C   0  0  0  0  0  0  0  0  0  0  0  0
   10.4497   -3.5718   25.3646 H   0  0  0  0  0  0  0  0  0  0  0  0
   10.1741   -2.7387   23.3746 C   0  0  0  0  0  0  0  0  0  0  0  0
   11.1779   -2.9382   22.9703 H   0  0  0  0  0  0  0  0  0  0  0  0
    9.3190   -2.1543   22.4026 C   0  0  0  0  0  0  0  0  0  0  0  0
    9.6822   -1.8436   20.9685 C   0  0  0  0  0  0  0  0  0  0  0  0
    9.6834   -1.8428   20.9700 N   0  0  0  0  0  0  0  0  0  0  0  0
    6.0326   -2.4697   21.1130 C   0  0  0  0  0  0  0  0  0  0  0  0
    5.2381   -2.7220   21.8243 H   0  0  0  0  0  0  0  0  0  0  0  0
    6.5796   -3.3798   20.8416 H   0  0  0  0  0  0  0  0  0  0  0  0
    5.5995   -2.0349   20.2082 H   0  0  0  0  0  0  0  0  0  0  0  0
    5.5309    0.9658   20.0730 C   0  0  0  0  0  0  0  0  0  0  0  0
    4.9498    1.1977   20.9703 H   0  0  0  0  0  0  0  0  0  0  0  0
    5.1335    1.4275   18.8044 C   0  0  0  0  0  0  0  0  0  0  0  0
    4.2438    2.0424   18.6755 H   0  0  0  0  0  0  0  0  0  0  0  0
  1  2  1  0
  2  3  2  0
  3  4  1  0
  4  5  1  0
  4  6  2  0
  6  7  1  0
  7  8  2  3
  8  9  1  0
  9 10  2  0
 10 11  1  0
 10 12  1  0
 12 13  1  0
 12 14  2  0
 14 15  1  0
 14 16  1  0
 16 17  1  0
 16 18  2  0
 18 19  1  0
 19 20  3  0
  8 21  1  0
 21 22  1  0
 21 23  1  0
 21 24  1  0
  6 25  1  0
 25 26  1  0
 25 27  2  0
 27 28  1  0
 27  2  1  0
 18  9  1  0
M  END
>  <cnnaffinity>  (1) 
4.92528

>  <plip>  (1) 
-0.03333333333333333

>  <filename>  (1) 
[H][c]1[n][c]([H])[c]([N]=[C]([c]2[c]([H])[c]([H])[c]([H])[c]([H])[c]2[C]#[N])[C]([H])([H])[H])[c]([H])[c]1[H]

>  <combo1>  (1) 
-0.24733160688110226

$$$$
