
     RDKit          3D

 44 48  0  0  0  0  0  0  0  0999 V2000
    4.9688    1.8014   16.9835 H   0  0  0  0  0  0  0  0  0  0  0  0
    5.4215    1.2892   17.8284 C   0  0  0  0  0  0  0  0  0  0  0  0
    6.5806    0.6556   17.5935 N   0  0  0  0  0  0  0  0  0  0  0  0
    7.1745    0.0477   18.6228 C   0  0  0  0  0  0  0  0  0  0  0  0
    8.1188   -0.4531   18.4025 H   0  0  0  0  0  0  0  0  0  0  0  0
    6.6493    0.0312   19.9230 C   0  0  0  0  0  0  0  0  0  0  0  0
    7.3723   -0.6659   20.9988 C   0  0  0  0  0  0  0  0  0  0  0  0
    6.8808   -0.7632   22.1908 N   0  0  0  0  0  0  0  0  0  0  0  0
    7.7081   -1.5105   22.9652 N   0  0  0  0  0  0  0  0  0  0  0  0
    7.6454   -2.0277   24.2578 C   0  0  0  0  0  0  0  0  0  0  0  0
    6.5588   -1.8380   25.0956 N   0  0  0  0  0  0  0  0  0  0  0  0
    6.3488   -2.7515   26.2250 C   0  0  0  0  0  0  0  0  0  0  0  0
    6.9061   -2.4151   27.1164 H   0  0  0  0  0  0  0  0  0  0  0  0
    6.7188   -3.7475   25.9626 H   0  0  0  0  0  0  0  0  0  0  0  0
    4.8532   -2.8213   26.5531 C   0  0  0  0  0  0  0  0  0  0  0  0
    4.6796   -3.5307   27.3696 H   0  0  0  0  0  0  0  0  0  0  0  0
    4.3031   -3.1900   25.6692 H   0  0  0  0  0  0  0  0  0  0  0  0
    4.3777   -1.4805   26.9164 N   0  0  0  0  0  0  0  0  0  0  0  0
    3.2195   -1.3770   27.7208 C   0  0  0  0  0  0  0  0  0  0  0  0
    1.9838   -0.8706   27.2719 C   0  0  0  0  0  0  0  0  0  0  0  0
    1.8663   -0.6143   26.2216 H   0  0  0  0  0  0  0  0  0  0  0  0
    0.9348   -0.6979   28.1814 C   0  0  0  0  0  0  0  0  0  0  0  0
   -0.0092   -0.2821   27.8389 H   0  0  0  0  0  0  0  0  0  0  0  0
    1.1077   -1.0208   29.5310 C   0  0  0  0  0  0  0  0  0  0  0  0
    0.3048   -0.8453   30.2398 H   0  0  0  0  0  0  0  0  0  0  0  0
    2.3272   -1.5482   29.9701 C   0  0  0  0  0  0  0  0  0  0  0  0
    2.4773   -1.7949   31.0165 H   0  0  0  0  0  0  0  0  0  0  0  0
    3.3664   -1.7470   29.0653 C   0  0  0  0  0  0  0  0  0  0  0  0
    4.3340   -2.1492   29.3555 H   0  0  0  0  0  0  0  0  0  0  0  0
    4.5336   -0.5662   25.7903 C   0  0  0  0  0  0  0  0  0  0  0  0
    3.8819   -0.8444   24.9514 H   0  0  0  0  0  0  0  0  0  0  0  0
    4.2154    0.4297   26.1111 H   0  0  0  0  0  0  0  0  0  0  0  0
    5.9999   -0.4952   25.3384 C   0  0  0  0  0  0  0  0  0  0  0  0
    6.0784    0.1238   24.4407 H   0  0  0  0  0  0  0  0  0  0  0  0
    6.5519    0.0011   26.1500 H   0  0  0  0  0  0  0  0  0  0  0  0
    8.8105   -2.7668   24.3608 C   0  0  0  0  0  0  0  0  0  0  0  0
    9.1673   -3.3013   25.2342 H   0  0  0  0  0  0  0  0  0  0  0  0
    9.5577   -2.7471   23.2023 N   0  0  0  0  0  0  0  0  0  0  0  0
    8.8455   -1.9973   22.4013 C   0  0  0  0  0  0  0  0  0  0  0  0
    8.9420   -1.4576   20.7619 S   0  0  0  0  0  0  0  0  0  0  0  0
    5.4173    0.6757   20.1521 C   0  0  0  0  0  0  0  0  0  0  0  0
    4.9711    0.6767   21.1470 H   0  0  0  0  0  0  0  0  0  0  0  0
    4.8008    1.3153   19.0806 C   0  0  0  0  0  0  0  0  0  0  0  0
    3.8651    1.8459   19.2077 H   0  0  0  0  0  0  0  0  0  0  0  0
  1  2  1  0
  2  3  2  0
  3  4  1  0
  4  5  1  0
  4  6  2  0
  6  7  1  0
  7  8  2  0
  8  9  1  0
  9 10  1  0
 10 11  1  0
 11 12  1  0
 12 13  1  0
 12 14  1  0
 12 15  1  0
 15 16  1  0
 15 17  1  0
 15 18  1  0
 18 19  1  0
 19 20  2  0
 20 21  1  0
 20 22  1  0
 22 23  1  0
 22 24  2  0
 24 25  1  0
 24 26  1  0
 26 27  1  0
 26 28  2  0
 28 29  1  0
 18 30  1  0
 30 31  1  0
 30 32  1  0
 30 33  1  0
 33 34  1  0
 33 35  1  0
 10 36  2  0
 36 37  1  0
 36 38  1  0
 38 39  2  0
 39 40  1  0
  6 41  1  0
 41 42  1  0
 41 43  2  0
 43 44  1  0
 43  2  1  0
 40  7  1  0
 39  9  1  0
 33 11  1  0
 28 19  1  0
M  END
>  <cnnaffinity>  (1) 
5.14618

>  <plip>  (1) 
-0.03571428571428571

>  <filename>  (1) 
[H][c]1[n][c]([H])[c](-[c]2[n][n]3[c]([N]4[C]([H])([H])[C]([H])([H])[N]([c]5[c]([H])[c]([H])[c]([H])[c]([H])[c]5[H])[C]([H])([H])[C]4([H])[H])[c]([H])[n][c]3[s]2)[c]([H])[c]1[H]

>  <combo1>  (1) 
-0.16902198746088581

$$$$
