
     RDKit          3D

 34 36  0  0  0  0  0  0  0  0999 V2000
    6.4429   -3.2080   20.4330 O   0  0  0  0  0  0  0  0  0  0  0  0
    6.0881   -2.7916   21.5187 C   0  0  0  0  0  0  0  0  0  0  0  0
    6.4756   -1.5270   21.9426 N   0  0  0  0  0  0  0  0  0  0  0  0
    7.3449   -0.7030   21.0977 C   0  0  0  0  0  0  0  0  0  0  0  0
    8.2951    0.5829   21.9688 C   0  0  0  0  0  0  0  0  0  0  0  0
    7.7148    1.0517   22.9446 O   0  0  0  0  0  0  0  0  0  0  0  0
    9.3689    0.7670   21.3979 O   0  0  0  0  0  1  0  0  0  0  0  0
    6.6113   -0.0517   19.9375 C   0  0  0  0  0  0  0  0  0  0  0  0
    5.4409    0.6860   20.1403 C   0  0  0  0  0  0  0  0  0  0  0  0
    4.8571    1.3360   19.0491 C   0  0  0  0  0  0  0  0  0  0  0  0
    5.4689    1.2336   17.7949 C   0  0  0  0  0  0  0  0  0  0  0  0
    6.5809    0.5153   17.5687 N   0  0  0  0  0  0  0  0  0  0  0  0
    7.1183   -0.1146   18.6248 C   0  0  0  0  0  0  0  0  0  0  0  0
    8.0143   -0.7067   18.4231 H   0  0  0  0  0  0  0  0  0  0  0  0
    5.0326    1.7189   16.9235 H   0  0  0  0  0  0  0  0  0  0  0  0
    3.9431    1.9082   19.1637 H   0  0  0  0  0  0  0  0  0  0  0  0
    4.9826    0.7183   21.1316 H   0  0  0  0  0  0  0  0  0  0  0  0
    8.1511   -1.3275   20.7150 H   0  0  0  0  0  0  0  0  0  0  0  0
    5.9594   -1.0512   22.6731 H   0  0  0  0  0  0  0  0  0  0  0  0
    5.2027   -3.6572   22.4968 C   0  0  0  0  0  0  0  0  0  0  0  0
    4.0444   -4.0748   22.0164 N   0  0  0  0  0  0  0  0  0  0  0  0
    3.2093   -4.8311   22.7722 C   0  0  0  0  0  0  0  0  0  0  0  0
    3.5098   -5.2290   24.0410 C   0  0  0  0  0  0  0  0  0  0  0  0
    4.7250   -4.7979   24.6093 C   0  0  0  0  0  0  0  0  0  0  0  0
    4.9531   -5.1536   25.9065 N   0  0  0  0  0  0  0  0  0  0  0  0
    6.0742   -4.7508   26.4591 C   0  0  0  0  0  0  0  0  0  0  0  0
    7.0589   -3.9819   25.7799 C   0  0  0  0  0  0  0  0  0  0  0  0
    6.8457   -3.6127   24.4702 C   0  0  0  0  0  0  0  0  0  0  0  0
    5.6295   -4.0077   23.8336 C   0  0  0  0  0  0  0  0  0  0  0  0
    7.5721   -3.0113   23.9201 H   0  0  0  0  0  0  0  0  0  0  0  0
    7.9641   -3.7104   26.3092 H   0  0  0  0  0  0  0  0  0  0  0  0
    6.2249   -5.0593   27.4956 H   0  0  0  0  0  0  0  0  0  0  0  0
    2.8601   -5.8328   24.6602 H   0  0  0  0  0  0  0  0  0  0  0  0
    2.2522   -5.0865   22.3188 H   0  0  0  0  0  0  0  0  0  0  0  0
  1  2  2  0
  2  3  1  0
  3  4  1  0
  4  5  1  0
  5  6  2  0
  5  7  1  0
  4  8  1  0
  8  9  2  0
  9 10  1  0
 10 11  2  0
 11 12  1  0
 12 13  2  0
 13 14  1  0
 11 15  1  0
 10 16  1  0
  9 17  1  0
  4 18  1  0
  3 19  1  0
  2 20  1  0
 20 21  2  0
 21 22  1  0
 22 23  2  0
 23 24  1  0
 24 25  2  0
 25 26  1  0
 26 27  2  0
 27 28  1  0
 28 29  2  0
 28 30  1  0
 27 31  1  0
 26 32  1  0
 23 33  1  0
 22 34  1  0
 13  8  1  0
 29 20  1  0
 29 24  1  0
M  CHG  1   7  -1
M  END
>  <cnnaffinity>  (1) 
5.26937

>  <plip>  (1) 
-0.17857142857142858

>  <filename>  (1) 
[H][c]1[n][c]([H])[c]([C]([H])([C](=[O])[O-])[N]([H])[C](=[O])[c]2[n][c]([H])[c]([H])[c]3[n][c]([H])[c]([H])[c]([H])[c]23)[c]([H])[c]1[H]

>  <combo1>  (1) 
-1.0207100683411259

$$$$
