
     RDKit          3D

 39 42  0  0  0  0  0  0  0  0999 V2000
    4.9265    1.8600   16.9246 H   0  0  0  0  0  0  0  0  0  0  0  0
    5.4031    1.3388   17.7519 C   0  0  0  0  0  0  0  0  0  0  0  0
    6.5573    0.7133   17.4728 N   0  0  0  0  0  0  0  0  0  0  0  0
    7.1738    0.0745   18.4828 C   0  0  0  0  0  0  0  0  0  0  0  0
    8.0929   -0.4469   18.2281 H   0  0  0  0  0  0  0  0  0  0  0  0
    6.6940    0.0298   19.8171 C   0  0  0  0  0  0  0  0  0  0  0  0
    7.3499   -0.6438   20.8735 N   0  0  0  0  0  0  0  0  0  0  0  0
    6.8235   -0.5940   21.7401 H   0  0  0  0  0  0  0  0  0  0  0  0
    8.7663   -0.6569   21.0717 C   0  0  0  0  0  0  0  0  0  0  0  0
    9.6715    0.4046   20.8291 C   0  0  0  0  0  0  0  0  0  0  0  0
    9.4171    1.3770   20.4307 H   0  0  0  0  0  0  0  0  0  0  0  0
   10.9220    0.0959   21.1412 N   0  0  0  0  0  0  0  0  0  0  0  0
   10.8306   -1.1665   21.6017 N   0  0  0  0  0  0  0  0  0  0  0  0
   11.6687   -1.6993   21.7914 H   0  0  0  0  0  0  0  0  0  0  0  0
    9.5683   -1.6756   21.5958 C   0  0  0  0  0  0  0  0  0  0  0  0
    9.3106   -2.9647   22.0747 N   0  0  0  0  0  0  0  0  0  0  0  0
    9.8738   -3.2867   23.4048 C   0  0  0  0  0  0  0  0  0  0  0  0
   10.9323   -3.5745   23.3052 H   0  0  0  0  0  0  0  0  0  0  0  0
    9.8888   -2.3710   24.0108 H   0  0  0  0  0  0  0  0  0  0  0  0
    9.1296   -4.3528   24.1957 C   0  0  0  0  0  0  0  0  0  0  0  0
    9.4806   -4.5806   25.5331 C   0  0  0  0  0  0  0  0  0  0  0  0
   10.3676   -4.1031   25.9465 H   0  0  0  0  0  0  0  0  0  0  0  0
    8.7022   -5.4140   26.3455 C   0  0  0  0  0  0  0  0  0  0  0  0
    8.9794   -5.5621   27.3866 H   0  0  0  0  0  0  0  0  0  0  0  0
    7.5587   -6.0280   25.8167 C   0  0  0  0  0  0  0  0  0  0  0  0
    6.9223   -6.6549   26.4358 H   0  0  0  0  0  0  0  0  0  0  0  0
    7.2443   -5.8425   24.4632 C   0  0  0  0  0  0  0  0  0  0  0  0
    6.3501   -6.2902   24.0383 H   0  0  0  0  0  0  0  0  0  0  0  0
    8.0631   -5.0757   23.6312 C   0  0  0  0  0  0  0  0  0  0  0  0
    7.8382   -4.9211   22.1451 C   0  0  0  0  0  0  0  0  0  0  0  0
    6.8725   -5.3234   21.8294 H   0  0  0  0  0  0  0  0  0  0  0  0
    8.6093   -5.4669   21.5914 H   0  0  0  0  0  0  0  0  0  0  0  0
    7.9507   -3.4472   21.7902 C   0  0  0  0  0  0  0  0  0  0  0  0
    7.7397   -3.2663   20.7374 H   0  0  0  0  0  0  0  0  0  0  0  0
    7.2132   -2.8659   22.3623 H   0  0  0  0  0  0  0  0  0  0  0  0
    5.4614    0.6547   20.0674 C   0  0  0  0  0  0  0  0  0  0  0  0
    5.0256    0.6155   21.0692 H   0  0  0  0  0  0  0  0  0  0  0  0
    4.8136    1.3255   19.0239 C   0  0  0  0  0  0  0  0  0  0  0  0
    3.8688    1.8411   19.1823 H   0  0  0  0  0  0  0  0  0  0  0  0
  1  2  1  0
  2  3  2  0
  3  4  1  0
  4  5  1  0
  4  6  2  0
  6  7  1  0
  7  8  1  0
  7  9  1  0
  9 10  1  0
 10 11  1  0
 10 12  2  0
 12 13  1  0
 13 14  1  0
 13 15  1  0
 15 16  1  0
 16 17  1  0
 17 18  1  0
 17 19  1  0
 17 20  1  0
 20 21  2  0
 21 22  1  0
 21 23  1  0
 23 24  1  0
 23 25  2  0
 25 26  1  0
 25 27  1  0
 27 28  1  0
 27 29  2  0
 29 30  1  0
 30 31  1  0
 30 32  1  0
 30 33  1  0
 33 34  1  0
 33 35  1  0
  6 36  1  0
 36 37  1  0
 36 38  2  0
 38 39  1  0
 38  2  1  0
 15  9  2  0
 33 16  1  0
 29 20  1  0
M  END
>  <cnnaffinity>  (1) 
5.96462

>  <plip>  (1) 
-0.13793103448275862

>  <filename>  (1) 
[H][c]1[n][c]([H])[c]([N]([H])[c]2[c]([H])[n][n]([H])[c]2[N]2[C]([H])([H])[c]3[c]([H])[c]([H])[c]([H])[c]([H])[c]3[C]([H])([H])[C]2([H])[H])[c]([H])[c]1[H]

>  <combo1>  (1) 
-0.9412317571470511

$$$$
