
     RDKit          3D

 33 35  0  0  0  0  0  0  0  0999 V2000
    5.6230   -2.6380   21.5482 S   0  0  0  0  0  0  0  0  0  0  0  0
    6.8843   -1.6277   21.8989 C   0  0  0  0  0  0  0  0  0  0  0  0
    7.4285   -0.7772   20.9646 N   0  0  0  0  0  0  0  0  0  0  0  0
    6.6935   -0.1042   19.9308 C   0  0  0  0  0  0  0  0  0  0  0  0
    5.4777    0.5446   20.1850 C   0  0  0  0  0  0  0  0  0  0  0  0
    4.8709    1.2306   19.1236 C   0  0  0  0  0  0  0  0  0  0  0  0
    5.4931    1.2405   17.8703 C   0  0  0  0  0  0  0  0  0  0  0  0
    6.6572    0.6187   17.6183 N   0  0  0  0  0  0  0  0  0  0  0  0
    7.2372   -0.0253   18.6387 C   0  0  0  0  0  0  0  0  0  0  0  0
    8.1903   -0.5230   18.4641 H   0  0  0  0  0  0  0  0  0  0  0  0
    5.0414    1.7568   17.0271 H   0  0  0  0  0  0  0  0  0  0  0  0
    3.9410    1.7716   19.2605 H   0  0  0  0  0  0  0  0  0  0  0  0
    5.0391    0.5263   21.1844 H   0  0  0  0  0  0  0  0  0  0  0  0
    8.1608   -0.2208   21.3841 H   0  0  0  0  0  0  0  0  0  0  0  0
    7.5077   -1.5418   23.1199 N   0  0  0  0  0  0  0  0  0  0  0  0
    8.9749   -1.3961   23.2240 C   0  0  0  0  0  0  0  0  0  0  0  0
    9.4787   -2.0233   24.5220 C   0  0  0  0  0  0  0  0  0  0  0  0
    8.7486   -1.4355   25.6969 C   0  0  0  0  0  0  0  0  0  0  0  0
    9.4495   -1.0778   26.7754 N   0  0  0  0  0  0  0  0  0  0  0  0
    8.7836   -0.5134   27.7943 C   0  0  0  0  0  0  0  0  0  0  0  0
    7.3998   -0.3053   27.7883 C   0  0  0  0  0  0  0  0  0  0  0  0
    6.6713   -0.6981   26.6657 C   0  0  0  0  0  0  0  0  0  0  0  0
    7.3564   -1.2648   25.5855 C   0  0  0  0  0  0  0  0  0  0  0  0
    6.6697   -1.7188   24.3234 C   0  0  0  0  0  0  0  0  0  0  0  0
    5.7647   -1.1089   24.2215 H   0  0  0  0  0  0  0  0  0  0  0  0
    6.3569   -2.7742   24.4068 H   0  0  0  0  0  0  0  0  0  0  0  0
    5.5867   -0.5687   26.6386 H   0  0  0  0  0  0  0  0  0  0  0  0
    6.9205    0.1358   28.6594 H   0  0  0  0  0  0  0  0  0  0  0  0
    9.3833   -0.2366   28.6601 H   0  0  0  0  0  0  0  0  0  0  0  0
   10.5498   -1.8570   24.6309 H   0  0  0  0  0  0  0  0  0  0  0  0
    9.3022   -3.1043   24.4851 H   0  0  0  0  0  0  0  0  0  0  0  0
    9.4483   -1.8992   22.3711 H   0  0  0  0  0  0  0  0  0  0  0  0
    9.2651   -0.3331   23.1780 H   0  0  0  0  0  0  0  0  0  0  0  0
  1  2  2  0
  2  3  1  0
  3  4  1  0
  4  5  2  0
  5  6  1  0
  6  7  2  0
  7  8  1  0
  8  9  2  0
  9 10  1  0
  7 11  1  0
  6 12  1  0
  5 13  1  0
  3 14  1  0
  2 15  1  0
 15 16  1  0
 16 17  1  0
 17 18  1  0
 18 19  2  0
 19 20  1  0
 20 21  2  0
 21 22  1  0
 22 23  2  0
 23 24  1  0
 24 25  1  0
 24 26  1  0
 22 27  1  0
 21 28  1  0
 20 29  1  0
 17 30  1  0
 17 31  1  0
 16 32  1  0
 16 33  1  0
  9  4  1  0
 24 15  1  0
 23 18  1  0
M  END
>  <cnnaffinity>  (1) 
4.88232

>  <plip>  (1) 
-0.0

>  <filename>  (1) 
[H][c]1[n][c]([H])[c]([N]([H])[C](=[S])[N]2[C]([H])([H])[c]3[c]([n][c]([H])[c]([H])[c]3[H])[C]([H])([H])[C]2([H])[H])[c]([H])[c]1[H]

>  <combo1>  (1) 
-6.019507251415702e-06

$$$$
