
     RDKit          3D

 20 21  0  0  0  0  0  0  0  0999 V2000
    4.9417    1.7801   17.0183 H   0  0  0  0  0  0  0  0  0  0  0  0
    5.4205    1.2753   17.8532 C   0  0  0  0  0  0  0  0  0  0  0  0
    6.5831    0.6595   17.5820 N   0  0  0  0  0  0  0  0  0  0  0  0
    7.2037    0.0380   18.5902 C   0  0  0  0  0  0  0  0  0  0  0  0
    8.1514   -0.4482   18.3852 H   0  0  0  0  0  0  0  0  0  0  0  0
    6.6989   -0.0184   19.9018 C   0  0  0  0  0  0  0  0  0  0  0  0
    7.3312   -0.6832   21.0023 N   0  0  0  0  0  0  0  0  0  0  0  0
    8.4196   -1.2442   20.7492 N   0  0  0  0  0  0  0  0  0  0  0  0
    9.0103   -1.8858   21.8862 C   0  0  0  0  0  0  0  0  0  0  0  0
   10.1782   -2.4953   21.7225 N   0  0  0  0  0  0  0  0  0  0  0  0
   10.4635   -2.9981   22.9195 N   0  0  0  0  0  0  0  0  0  0  0  0
   11.3055   -3.5571   23.0132 H   0  0  0  0  0  0  0  0  0  0  0  0
    9.5170   -2.7375   23.8564 C   0  0  0  0  0  0  0  0  0  0  0  0
    9.6332   -3.0892   24.8748 H   0  0  0  0  0  0  0  0  0  0  0  0
    8.5458   -2.0022   23.2183 C   0  0  0  0  0  0  0  0  0  0  0  0
    7.6250   -1.5561   23.5474 H   0  0  0  0  0  0  0  0  0  0  0  0
    5.4834    0.6215   20.1752 C   0  0  0  0  0  0  0  0  0  0  0  0
    5.0831    0.5891   21.1884 H   0  0  0  0  0  0  0  0  0  0  0  0
    4.8377    1.2824   19.1285 C   0  0  0  0  0  0  0  0  0  0  0  0
    3.9061    1.8120   19.2793 H   0  0  0  0  0  0  0  0  0  0  0  0
  1  2  1  0
  2  3  2  0
  3  4  1  0
  4  5  1  0
  4  6  2  0
  6  7  1  0
  7  8  2  3
  8  9  1  0
  9 10  2  0
 10 11  1  0
 11 12  1  0
 11 13  1  0
 13 14  1  0
 13 15  2  0
 15 16  1  0
  6 17  1  0
 17 18  1  0
 17 19  2  0
 19 20  1  0
 19  2  1  0
 15  9  1  0
M  END
>  <cnnaffinity>  (1) 
4.24679

>  <plip>  (1) 
-0.06666666666666667

>  <filename>  (1) 
[H][c]1[n][c]([H])[c]([N]=[N][c]2[n][n]([H])[c]([H])[c]2[H])[c]([H])[c]1[H]

>  <combo1>  (1) 
-0.5449454674707157

$$$$
