
     RDKit          3D

 30 32  0  0  0  0  0  0  0  0999 V2000
    4.9473    1.7764   17.0405 H   0  0  0  0  0  0  0  0  0  0  0  0
    5.4326    1.2676   17.8710 C   0  0  0  0  0  0  0  0  0  0  0  0
    6.5901    0.6502   17.5852 N   0  0  0  0  0  0  0  0  0  0  0  0
    7.2251    0.0255   18.5818 C   0  0  0  0  0  0  0  0  0  0  0  0
    8.1750   -0.4476   18.3468 H   0  0  0  0  0  0  0  0  0  0  0  0
    6.7260   -0.0416   19.9044 C   0  0  0  0  0  0  0  0  0  0  0  0
    7.4285   -0.7216   20.9639 N   0  0  0  0  0  0  0  0  0  0  0  0
    8.7992   -0.6540   21.1925 C   0  0  0  0  0  0  0  0  0  0  0  0
    9.5908   -0.0531   20.5140 O   0  0  0  0  0  0  0  0  0  0  0  0
    9.0412   -1.4921   22.4681 C   0  0  0  0  0  0  0  0  0  0  0  0
   10.0640   -1.7554   23.0300 O   0  0  0  0  0  0  0  0  0  0  0  0
    7.7763   -1.8627   22.8785 N   0  0  0  0  0  0  0  0  0  0  0  0
    7.5146   -2.5365   24.1132 C   0  0  0  0  0  0  0  0  0  0  0  0
    6.5839   -1.9495   24.9803 C   0  0  0  0  0  0  0  0  0  0  0  0
    6.0460   -1.0726   24.6356 H   0  0  0  0  0  0  0  0  0  0  0  0
    6.3772   -2.4631   26.2594 C   0  0  0  0  0  0  0  0  0  0  0  0
    5.6784   -1.9806   26.9349 H   0  0  0  0  0  0  0  0  0  0  0  0
    7.0738   -3.6010   26.6730 C   0  0  0  0  0  0  0  0  0  0  0  0
    6.9456   -4.0174   27.6664 H   0  0  0  0  0  0  0  0  0  0  0  0
    7.9615   -4.1914   25.7927 C   0  0  0  0  0  0  0  0  0  0  0  0
    8.6324   -5.0302   25.9201 H   0  0  0  0  0  0  0  0  0  0  0  0
    8.2248   -3.7466   24.4647 C   0  0  0  0  0  0  0  0  0  0  0  0
    9.2875   -4.2516   23.4911 C   0  0  0  0  0  0  0  0  0  0  0  0
    9.2410   -4.3547   23.5641 N   0  0  0  0  0  0  0  0  0  0  0  0
    6.8512   -1.6195   21.8713 C   0  0  0  0  0  0  0  0  0  0  0  0
    5.7874   -2.1544   21.7534 O   0  0  0  0  0  0  0  0  0  0  0  0
    5.5126    0.5902   20.1843 C   0  0  0  0  0  0  0  0  0  0  0  0
    5.1061    0.5456   21.1930 H   0  0  0  0  0  0  0  0  0  0  0  0
    4.8597    1.2659   19.1462 C   0  0  0  0  0  0  0  0  0  0  0  0
    3.9266    1.7910   19.3130 H   0  0  0  0  0  0  0  0  0  0  0  0
  1  2  1  0
  2  3  2  0
  3  4  1  0
  4  5  1  0
  4  6  2  0
  6  7  1  0
  7  8  1  0
  8  9  2  0
  8 10  1  0
 10 11  2  0
 10 12  1  0
 12 13  1  0
 13 14  2  0
 14 15  1  0
 14 16  1  0
 16 17  1  0
 16 18  2  0
 18 19  1  0
 18 20  1  0
 20 21  1  0
 20 22  2  0
 22 23  1  0
 23 24  3  0
 12 25  1  0
 25 26  2  0
  6 27  1  0
 27 28  1  0
 27 29  2  0
 29 30  1  0
 29  2  1  0
 25  7  1  0
 22 13  1  0
M  END
>  <cnnaffinity>  (1) 
5.0692

>  <plip>  (1) 
-0.10714285714285714

>  <filename>  (1) 
[H][c]1[n][c]([H])[c]([N]2[C](=[O])[C](=[O])[N]([c]3[c]([H])[c]([H])[c]([H])[c]([H])[c]3[C]#[N])[C]2=[O])[c]([H])[c]1[H]

>  <combo1>  (1) 
-0.619470929885843

$$$$
