
     RDKit          3D

 29 31  0  0  0  0  0  0  0  0999 V2000
    4.9345    1.8172   17.0150 H   0  0  0  0  0  0  0  0  0  0  0  0
    5.4081    1.2936   17.8445 C   0  0  0  0  0  0  0  0  0  0  0  0
    6.5743    0.6789   17.5722 N   0  0  0  0  0  0  0  0  0  0  0  0
    7.1831    0.0321   18.5724 C   0  0  0  0  0  0  0  0  0  0  0  0
    8.1450   -0.4371   18.3693 H   0  0  0  0  0  0  0  0  0  0  0  0
    6.6529   -0.0640   19.8716 C   0  0  0  0  0  0  0  0  0  0  0  0
    7.4594   -0.7116   20.8164 O   0  0  0  0  0  0  0  0  0  0  0  0
    6.9788   -1.5059   21.7837 C   0  0  0  0  0  0  0  0  0  0  0  0
    5.8880   -2.2270   21.7807 N   0  0  0  0  0  0  0  0  0  0  0  0
    5.8981   -2.8941   22.9668 N   0  0  0  0  0  0  0  0  0  0  0  0
    6.9385   -2.6208   23.6555 N   0  0  0  0  0  0  0  0  0  0  0  0
    7.6694   -1.7306   22.9429 N   0  0  0  0  0  0  0  0  0  0  0  0
    8.9272   -1.3849   23.4672 N   0  0  0  0  0  0  0  0  0  0  0  0
    9.4130   -2.1943   23.8307 H   0  0  0  0  0  0  0  0  0  0  0  0
    9.7156   -0.3557   22.9217 C   0  0  0  0  0  0  0  0  0  0  0  0
    9.1708    0.9247   22.7778 C   0  0  0  0  0  0  0  0  0  0  0  0
    8.1287    1.0587   23.0473 H   0  0  0  0  0  0  0  0  0  0  0  0
    9.9584    1.9800   22.3055 C   0  0  0  0  0  0  0  0  0  0  0  0
    9.5170    2.9641   22.1790 H   0  0  0  0  0  0  0  0  0  0  0  0
   11.3051    1.7735   21.9866 C   0  0  0  0  0  0  0  0  0  0  0  0
   11.9101    2.5960   21.6073 H   0  0  0  0  0  0  0  0  0  0  0  0
   11.8547    0.4964   22.1401 C   0  0  0  0  0  0  0  0  0  0  0  0
   12.9022    0.3313   21.8972 H   0  0  0  0  0  0  0  0  0  0  0  0
   11.0672   -0.5690   22.5990 C   0  0  0  0  0  0  0  0  0  0  0  0
   11.4872   -1.5691   22.6847 H   0  0  0  0  0  0  0  0  0  0  0  0
    5.4473    0.5800   20.1611 C   0  0  0  0  0  0  0  0  0  0  0  0
    5.0273    0.5546   21.1672 H   0  0  0  0  0  0  0  0  0  0  0  0
    4.8210    1.2773   19.1124 C   0  0  0  0  0  0  0  0  0  0  0  0
    3.8947    1.8229   19.2678 H   0  0  0  0  0  0  0  0  0  0  0  0
  1  2  1  0
  2  3  2  0
  3  4  1  0
  4  5  1  0
  4  6  2  0
  6  7  1  0
  7  8  1  0
  8  9  2  0
  9 10  1  0
 10 11  2  0
 11 12  1  0
 12 13  1  0
 13 14  1  0
 13 15  1  0
 15 16  2  0
 16 17  1  0
 16 18  1  0
 18 19  1  0
 18 20  2  0
 20 21  1  0
 20 22  1  0
 22 23  1  0
 22 24  2  0
 24 25  1  0
  6 26  1  0
 26 27  1  0
 26 28  2  0
 28 29  1  0
 28  2  1  0
 12  8  1  0
 24 15  1  0
M  END
>  <cnnaffinity>  (1) 
5.14541

>  <plip>  (1) 
-0.07142857142857142

>  <filename>  (1) 
[H][c]1[n][c]([H])[c]([O][c]2[n][n][n][n]2[N]([H])[c]2[c]([H])[c]([H])[c]([H])[c]([H])[c]2[H])[c]([H])[c]1[H]

>  <combo1>  (1) 
-0.4818419523260763

$$$$
