
     RDKit          3D

 31 33  0  0  0  0  0  0  0  0999 V2000
    5.0421    1.7662   16.9427 H   0  0  0  0  0  0  0  0  0  0  0  0
    5.5196    1.3153   17.8149 C   0  0  0  0  0  0  0  0  0  0  0  0
    6.7396    0.7909   17.6240 N   0  0  0  0  0  0  0  0  0  0  0  0
    7.3552    0.2313   18.6793 C   0  0  0  0  0  0  0  0  0  0  0  0
    8.3456   -0.1660   18.4767 H   0  0  0  0  0  0  0  0  0  0  0  0
    6.7805    0.1248   19.9597 C   0  0  0  0  0  0  0  0  0  0  0  0
    7.3864   -0.6437   21.1314 C   0  0  1  0  0  0  0  0  0  0  0  0
    6.7805   -0.4265   22.0289 H   0  0  0  0  0  0  0  0  0  0  0  0
    7.3826   -2.1914   21.0238 C   0  0  0  0  0  0  0  0  0  0  0  0
    6.4575   -2.9433   20.8535 O   0  0  0  0  0  0  0  0  0  0  0  0
    8.6678   -2.5988   21.2349 N   0  0  0  0  0  0  0  0  0  0  0  0
    8.9672   -3.5335   21.0577 H   0  0  0  0  0  0  0  0  0  0  0  0
    9.5711   -1.5630   21.3018 C   0  0  0  0  0  0  0  0  0  0  0  0
   10.7669   -1.6899   21.2922 O   0  0  0  0  0  0  0  0  0  0  0  0
    8.8228   -0.4064   21.4489 N   0  0  0  0  0  0  0  0  0  0  0  0
    9.4214    0.7890   21.1032 O   0  0  0  0  0  0  0  0  0  0  0  0
   10.4953    1.2641   21.8838 C   0  0  0  0  0  0  0  0  0  0  0  0
   11.1057    2.3654   21.2773 C   0  0  0  0  0  0  0  0  0  0  0  0
   10.7025    2.7618   20.3585 H   0  0  0  0  0  0  0  0  0  0  0  0
   12.2042    2.9837   21.8602 C   0  0  0  0  0  0  0  0  0  0  0  0
   12.7067    3.8232   21.3984 H   0  0  0  0  0  0  0  0  0  0  0  0
   12.6777    2.5143   23.0770 C   0  0  0  0  0  0  0  0  0  0  0  0
   13.7268    3.1451   23.6226 F   0  0  0  0  0  0  0  0  0  0  0  0
   12.0848    1.4297   23.7132 C   0  0  0  0  0  0  0  0  0  0  0  0
   12.5171    1.0896   24.6480 H   0  0  0  0  0  0  0  0  0  0  0  0
   10.9712    0.7980   23.1229 C   0  0  0  0  0  0  0  0  0  0  0  0
   10.5068   -0.0508   23.6204 H   0  0  0  0  0  0  0  0  0  0  0  0
    5.5159    0.7093   20.1356 C   0  0  0  0  0  0  0  0  0  0  0  0
    5.0492    0.7124   21.1227 H   0  0  0  0  0  0  0  0  0  0  0  0
    4.8683    1.3094   19.0524 C   0  0  0  0  0  0  0  0  0  0  0  0
    3.8909    1.7764   19.1544 H   0  0  0  0  0  0  0  0  0  0  0  0
  1  2  1  0
  2  3  2  0
  3  4  1  0
  4  5  1  0
  4  6  2  0
  6  7  1  0
  7  8  1  1
  7  9  1  0
  9 10  2  0
  9 11  1  0
 11 12  1  0
 11 13  1  0
 13 14  2  0
 13 15  1  0
 15 16  1  0
 16 17  1  0
 17 18  2  0
 18 19  1  0
 18 20  1  0
 20 21  1  0
 20 22  2  0
 22 23  1  0
 22 24  1  0
 24 25  1  0
 24 26  2  0
 26 27  1  0
  6 28  1  0
 28 29  1  0
 28 30  2  0
 30 31  1  0
 30  2  1  0
 15  7  1  0
 26 17  1  0
M  END
>  <cnnaffinity>  (1) 
5.41748

>  <plip>  (1) 
-0.16666666666666666

>  <filename>  (1) 
[H][c]1[n][c]([H])[c]([C@@]2([H])[C](=[O])[N]([H])[C](=[O])[N]2[O][c]2[c]([H])[c]([H])[c]([F])[c]([H])[c]2[H])[c]([H])[c]1[H]

>  <combo1>  (1) 
-1.0477671405086548

$$$$
