
     RDKit          3D

 39 40  0  0  0  0  0  0  0  0999 V2000
    6.6484   -1.3527   21.6154 H   0  0  0  0  0  0  0  0  0  0  0  0
    7.2713   -0.6712   21.0283 C   0  0  0  0  0  0  0  0  0  0  0  0
    8.5232   -0.3945   21.4233 C   0  0  0  0  0  0  0  0  0  0  0  0
    9.2634   -1.0005   22.5601 C   0  0  0  0  0  0  0  0  0  0  0  0
    8.7214   -2.1151   23.4344 C   0  0  0  0  0  0  0  0  0  0  0  0
    7.6440   -1.9805   23.6024 H   0  0  0  0  0  0  0  0  0  0  0  0
    9.2093   -2.0342   24.4157 H   0  0  0  0  0  0  0  0  0  0  0  0
    9.0005   -3.4930   22.7996 C   0  0  0  0  0  0  0  0  0  0  0  0
   10.0862   -3.6052   22.6840 H   0  0  0  0  0  0  0  0  0  0  0  0
    8.5588   -3.4821   21.7910 H   0  0  0  0  0  0  0  0  0  0  0  0
    8.4489   -4.7318   23.5251 C   0  0  0  0  0  0  0  0  0  0  0  0
    7.3489   -4.6862   23.4888 H   0  0  0  0  0  0  0  0  0  0  0  0
    8.7270   -5.6251   22.9294 H   0  0  0  0  0  0  0  0  0  0  0  0
    8.8800   -4.8517   24.9154 N   0  0  0  0  0  0  0  0  0  0  0  0
    7.9201   -5.5770   25.7311 C   0  0  0  0  0  0  0  0  0  0  0  0
    7.7955   -6.6310   25.4288 H   0  0  0  0  0  0  0  0  0  0  0  0
    6.9379   -5.0902   25.6811 H   0  0  0  0  0  0  0  0  0  0  0  0
    8.2398   -5.5786   26.7784 H   0  0  0  0  0  0  0  0  0  0  0  0
   10.2214   -5.3893   25.0748 C   0  0  0  0  0  0  0  0  0  0  0  0
   10.9500   -4.8043   24.5029 H   0  0  0  0  0  0  0  0  0  0  0  0
   10.2846   -6.4464   24.7633 H   0  0  0  0  0  0  0  0  0  0  0  0
   10.5215   -5.3387   26.1254 H   0  0  0  0  0  0  0  0  0  0  0  0
   10.4483   -0.5498   22.7147 N   0  0  0  0  0  0  0  0  0  0  0  0
   10.6942    0.5281   21.7481 C   0  0  0  0  0  0  0  0  0  0  0  0
   11.5836    0.2825   21.1658 H   0  0  0  0  0  0  0  0  0  0  0  0
   10.8972    1.4475   22.3046 H   0  0  0  0  0  0  0  0  0  0  0  0
    9.4417    0.6676   20.8567 C   0  0  0  0  0  0  0  0  0  0  0  0
    9.0043    1.6663   20.9220 H   0  0  0  0  0  0  0  0  0  0  0  0
    9.6406    0.4690   19.8051 H   0  0  0  0  0  0  0  0  0  0  0  0
    6.5783   -0.0350   19.8857 C   0  0  0  0  0  0  0  0  0  0  0  0
    7.1150    0.0121   18.5846 C   0  0  0  0  0  0  0  0  0  0  0  0
    8.0328   -0.5338   18.3723 H   0  0  0  0  0  0  0  0  0  0  0  0
    6.5582    0.6648   17.5530 N   0  0  0  0  0  0  0  0  0  0  0  0
    5.4089    1.3160   17.7943 C   0  0  0  0  0  0  0  0  0  0  0  0
    4.9845    1.8691   16.9564 H   0  0  0  0  0  0  0  0  0  0  0  0
    4.7566    1.2954   19.0308 C   0  0  0  0  0  0  0  0  0  0  0  0
    3.8246    1.8412   19.1590 H   0  0  0  0  0  0  0  0  0  0  0  0
    5.3384    0.5945   20.0856 C   0  0  0  0  0  0  0  0  0  0  0  0
    4.8609    0.5458   21.0646 H   0  0  0  0  0  0  0  0  0  0  0  0
  1  2  1  0
  2  3  2  3
  3  4  1  0
  4  5  1  0
  5  6  1  0
  5  7  1  0
  5  8  1  0
  8  9  1  0
  8 10  1  0
  8 11  1  0
 11 12  1  0
 11 13  1  0
 11 14  1  0
 14 15  1  0
 15 16  1  0
 15 17  1  0
 15 18  1  0
 14 19  1  0
 19 20  1  0
 19 21  1  0
 19 22  1  0
  4 23  2  0
 23 24  1  0
 24 25  1  0
 24 26  1  0
 24 27  1  0
 27 28  1  0
 27 29  1  0
  2 30  1  0
 30 31  2  0
 31 32  1  0
 31 33  1  0
 33 34  2  0
 34 35  1  0
 34 36  1  0
 36 37  1  0
 36 38  2  0
 38 39  1  0
 27  3  1  0
 38 30  1  0
M  END
>  <cnnaffinity>  (1) 
4.58556

>  <plip>  (1) 
-0.0

>  <filename>  (1) 
[H][C](=[C]1[C]([C]([H])([H])[C]([H])([H])[C]([H])([H])[N]([C]([H])([H])[H])[C]([H])([H])[H])=[N][C]([H])([H])[C]1([H])[H])[c]1[c]([H])[n][c]([H])[c]([H])[c]1[H]

>  <combo1>  (1) 
-6.281055581580743e-06

$$$$
