
     RDKit          3D

 39 42  0  0  0  0  0  0  0  0999 V2000
    8.2777    1.1902   22.3192 C   0  0  0  0  0  0  0  0  0  0  0  0
    7.5284   -0.0496   22.2464 N   0  0  0  0  0  0  0  0  0  0  0  0
    6.9426   -0.6410   23.3243 C   0  0  0  0  0  0  0  0  0  0  0  0
    6.8745   -0.1635   24.4351 O   0  0  0  0  0  0  0  0  0  0  0  0
    6.4616   -1.8854   22.9311 N   0  0  0  0  0  0  0  0  0  0  0  0
    5.7329   -2.7517   23.7555 C   0  0  0  0  0  0  0  0  0  0  0  0
    5.0690   -2.2808   24.9032 C   0  0  0  0  0  0  0  0  0  0  0  0
    4.3215   -3.1757   25.6679 C   0  0  0  0  0  0  0  0  0  0  0  0
    4.2920   -4.5082   25.2570 C   0  0  0  0  0  0  0  0  0  0  0  0
    3.6448   -5.7097   25.8812 C   0  0  0  0  0  0  0  0  0  0  0  0
    4.0006   -6.8914   24.9292 C   0  0  0  0  0  0  0  0  0  0  0  0
    4.8300   -6.3007   23.7529 C   0  0  0  0  0  0  0  0  0  0  0  0
    4.9853   -4.8477   24.0870 C   0  0  0  0  0  0  0  0  0  0  0  0
    5.6972   -4.0088   23.3398 N   0  0  0  0  0  0  0  0  0  0  0  0
    4.3357   -6.4222   22.7826 H   0  0  0  0  0  0  0  0  0  0  0  0
    5.8206   -6.7513   23.6507 H   0  0  0  0  0  0  0  0  0  0  0  0
    3.0870   -7.3712   24.5589 H   0  0  0  0  0  0  0  0  0  0  0  0
    4.5895   -7.6399   25.4701 H   0  0  0  0  0  0  0  0  0  0  0  0
    2.5603   -5.5649   25.9789 H   0  0  0  0  0  0  0  0  0  0  0  0
    4.0424   -5.8696   26.8932 H   0  0  0  0  0  0  0  0  0  0  0  0
    3.7954   -2.8152   26.5550 H   0  0  0  0  0  0  0  0  0  0  0  0
    5.1313   -1.2324   25.1351 H   0  0  0  0  0  0  0  0  0  0  0  0
    6.5661   -2.0303   21.5540 C   0  0  0  0  0  0  0  0  0  0  0  0
    6.1326   -2.9251   20.8881 O   0  0  0  0  0  0  0  0  0  0  0  0
    7.3350   -0.7979   21.0240 C   0  0  0  0  0  0  0  0  0  0  0  0
    6.6353   -0.0001   19.9134 C   0  0  0  0  0  0  0  0  0  0  0  0
    5.4168    0.6569   20.1415 C   0  0  0  0  0  0  0  0  0  0  0  0
    4.8008    1.3211   19.0794 C   0  0  0  0  0  0  0  0  0  0  0  0
    5.4217    1.3099   17.8269 C   0  0  0  0  0  0  0  0  0  0  0  0
    6.5887    0.6937   17.5871 N   0  0  0  0  0  0  0  0  0  0  0  0
    7.1728    0.0660   18.6161 C   0  0  0  0  0  0  0  0  0  0  0  0
    8.1234   -0.4162   18.3827 H   0  0  0  0  0  0  0  0  0  0  0  0
    4.9550    1.8016   16.9750 H   0  0  0  0  0  0  0  0  0  0  0  0
    3.8604    1.8478   19.2074 H   0  0  0  0  0  0  0  0  0  0  0  0
    4.9663    0.6686   21.1341 H   0  0  0  0  0  0  0  0  0  0  0  0
    8.3001   -1.1664   20.6453 H   0  0  0  0  0  0  0  0  0  0  0  0
    7.6386    2.0249   22.6268 H   0  0  0  0  0  0  0  0  0  0  0  0
    9.1073    1.1130   23.0300 H   0  0  0  0  0  0  0  0  0  0  0  0
    8.6857    1.3974   21.3252 H   0  0  0  0  0  0  0  0  0  0  0  0
  1  2  1  0
  2  3  1  0
  3  4  2  0
  3  5  1  0
  5  6  1  0
  6  7  2  0
  7  8  1  0
  8  9  2  0
  9 10  1  0
 10 11  1  0
 11 12  1  0
 12 13  1  0
 13 14  2  0
 12 15  1  0
 12 16  1  0
 11 17  1  0
 11 18  1  0
 10 19  1  0
 10 20  1  0
  8 21  1  0
  7 22  1  0
  5 23  1  0
 23 24  2  0
 23 25  1  0
 25 26  1  0
 26 27  2  0
 27 28  1  0
 28 29  2  0
 29 30  1  0
 30 31  2  0
 31 32  1  0
 29 33  1  0
 28 34  1  0
 27 35  1  0
 25 36  1  0
  1 37  1  0
  1 38  1  0
  1 39  1  0
 25  2  1  0
 31 26  1  0
 14  6  1  0
 13  9  1  0
M  END
>  <cnnaffinity>  (1) 
5.28179

>  <plip>  (1) 
-0.10714285714285714

>  <filename>  (1) 
[H][c]1[n][c]([H])[c]([C]2([H])[C](=[O])[N]([c]3[n][c]4[c]([c]([H])[c]3[H])[C]([H])([H])[C]([H])([H])[C]4([H])[H])[C](=[O])[N]2[C]([H])([H])[H])[c]([H])[c]1[H]

>  <combo1>  (1) 
-0.6117751357842687

$$$$
