
     RDKit          3D

 27 27  0  0  0  0  0  0  0  0999 V2000
    8.9308   -0.5740   28.4636 H   0  0  0  0  0  0  0  0  0  0  0  0
    8.6185   -0.3223   27.5741 O   0  0  0  0  0  0  0  0  0  0  0  0
    8.2651   -1.5002   27.0499 C   0  0  0  0  0  0  0  0  0  0  0  0
    8.3261   -2.5129   27.6985 O   0  0  0  0  0  0  0  0  0  0  0  0
    7.7613   -1.4863   25.5249 C   0  0  0  0  0  0  0  0  0  0  0  0
    8.0788   -0.5380   24.8037 O   0  0  0  0  0  0  0  0  0  0  0  0
    7.0043   -2.6097   25.0972 C   0  0  0  0  0  0  0  0  0  0  0  0
    6.7726   -3.4155   25.7819 H   0  0  0  0  0  0  0  0  0  0  0  0
    6.5627   -2.7216   23.8062 C   0  0  0  0  0  0  0  0  0  0  0  0
    5.7873   -3.6945   23.4177 O   0  0  0  0  0  0  0  0  0  0  0  0
    5.7138   -3.6050   22.4408 H   0  0  0  0  0  0  0  0  0  0  0  0
    6.9601   -1.8038   22.8799 N   0  0  0  0  0  0  0  0  0  0  0  0
    7.5422   -1.0807   23.3070 H   0  0  0  0  0  0  0  0  0  0  0  0
    6.7546   -1.8768   21.5341 C   0  0  0  0  0  0  0  0  0  0  0  0
    6.0383   -2.7262   21.0120 O   0  0  0  0  0  0  0  0  0  0  0  0
    7.4963   -0.7862   20.6668 C   0  0  0  0  0  0  0  0  0  0  0  0
    8.6878   -0.5972   20.8165 O   0  0  0  0  0  0  0  0  0  0  0  0
    6.7068   -0.0079   19.6737 C   0  0  0  0  0  0  0  0  0  0  0  0
    7.2694    0.2183   18.4078 C   0  0  0  0  0  0  0  0  0  0  0  0
    8.2582   -0.1654   18.1619 H   0  0  0  0  0  0  0  0  0  0  0  0
    6.6333    0.8788   17.4392 N   0  0  0  0  0  0  0  0  0  0  0  0
    5.4278    1.3913   17.7310 C   0  0  0  0  0  0  0  0  0  0  0  0
    4.9377    1.9379   16.9300 H   0  0  0  0  0  0  0  0  0  0  0  0
    4.8096    1.2678   18.9797 C   0  0  0  0  0  0  0  0  0  0  0  0
    3.8498    1.7384   19.1547 H   0  0  0  0  0  0  0  0  0  0  0  0
    5.4520    0.5356   19.9760 C   0  0  0  0  0  0  0  0  0  0  0  0
    5.0088    0.4198   20.9690 H   0  0  0  0  0  0  0  0  0  0  0  0
  1  2  1  0
  2  3  1  0
  3  4  2  0
  3  5  1  0
  5  6  2  0
  5  7  1  0
  7  8  1  0
  7  9  2  3
  9 10  1  0
 10 11  1  0
  9 12  1  0
 12 13  1  0
 12 14  1  0
 14 15  2  0
 14 16  1  0
 16 17  2  0
 16 18  1  0
 18 19  2  0
 19 20  1  0
 19 21  1  0
 21 22  2  0
 22 23  1  0
 22 24  1  0
 24 25  1  0
 24 26  2  0
 26 27  1  0
 26 18  1  0
M  END
>  <cnnaffinity>  (1) 
4.16924

>  <plip>  (1) 
-0.06896551724137931

>  <filename>  (1) 
[H][O][C](=[O])[C](=[O])[C]([H])=[C]([O][H])[N]([H])[C](=[O])[C](=[O])[c]1[c]([H])[n][c]([H])[c]([H])[c]1[H]

>  <combo1>  (1) 
-0.3627825025687639

$$$$
