
     RDKit          3D

 40 43  0  0  0  0  0  0  0  0999 V2000
    9.5995    0.7699   20.3681 O   0  0  0  0  0  0  0  0  0  0  0  0
    9.0994    1.1683   21.4161 C   0  0  0  0  0  0  0  0  0  0  0  0
    8.0062    0.5694   21.9634 N   0  0  0  0  0  0  0  0  0  0  0  0
    7.3034   -0.4582   21.2118 C   0  0  0  0  0  0  0  0  0  0  0  0
    6.5490    0.1714   20.0440 C   0  0  0  0  0  0  0  0  0  0  0  0
    5.2849    0.7719   20.1667 C   0  0  0  0  0  0  0  0  0  0  0  0
    4.7039    1.3614   19.0389 C   0  0  0  0  0  0  0  0  0  0  0  0
    5.4021    1.3385   17.8272 C   0  0  0  0  0  0  0  0  0  0  0  0
    6.6279    0.8187   17.7008 N   0  0  0  0  0  0  0  0  0  0  0  0
    7.1869    0.2854   18.7962 C   0  0  0  0  0  0  0  0  0  0  0  0
    8.2135   -0.0489   18.6790 H   0  0  0  0  0  0  0  0  0  0  0  0
    4.9718    1.7623   16.9207 H   0  0  0  0  0  0  0  0  0  0  0  0
    3.7353    1.8447   19.0796 H   0  0  0  0  0  0  0  0  0  0  0  0
    4.7589    0.8015   21.1239 H   0  0  0  0  0  0  0  0  0  0  0  0
    6.4915   -1.4446   22.0754 C   0  0  0  0  0  0  0  0  0  0  0  0
    7.4205   -2.6204   21.6764 C   0  0  0  0  0  0  0  0  0  0  0  0
    8.2752   -1.6272   20.8631 C   0  0  0  0  0  0  0  0  0  0  0  0
    8.3403   -1.7729   19.7925 H   0  0  0  0  0  0  0  0  0  0  0  0
    9.2864   -1.4795   21.2510 H   0  0  0  0  0  0  0  0  0  0  0  0
    6.9308   -3.4067   21.0935 H   0  0  0  0  0  0  0  0  0  0  0  0
    7.9519   -3.1083   22.5028 H   0  0  0  0  0  0  0  0  0  0  0  0
    6.5009   -1.1941   23.1377 H   0  0  0  0  0  0  0  0  0  0  0  0
    5.4667   -1.5716   21.7279 H   0  0  0  0  0  0  0  0  0  0  0  0
    7.5265    1.0449   22.7063 H   0  0  0  0  0  0  0  0  0  0  0  0
    9.7016    2.2833   22.1821 C   0  0  0  0  0  0  0  0  0  0  0  0
    9.3570    2.9116   23.3558 C   0  0  0  0  0  0  0  0  0  0  0  0
   10.3788    3.8501   23.6488 C   0  0  0  0  0  0  0  0  0  0  0  0
   10.5690    4.7435   24.7244 C   0  0  0  0  0  0  0  0  0  0  0  0
   11.7346    5.4908   24.7497 C   0  0  0  0  0  0  0  0  0  0  0  0
   12.0278    6.3530   25.7595 O   0  0  0  0  0  0  0  0  0  0  0  0
   11.3100    6.3134   26.3984 H   0  0  0  0  0  0  0  0  0  0  0  0
   12.6997    5.3884   23.7136 C   0  0  0  0  0  0  0  0  0  0  0  0
   12.5284    4.5178   22.6468 C   0  0  0  0  0  0  0  0  0  0  0  0
   11.3509    3.7487   22.6234 C   0  0  0  0  0  0  0  0  0  0  0  0
   10.9124    2.8016   21.7421 N   0  0  0  0  0  0  0  0  0  0  0  0
   11.3359    2.5833   20.8546 H   0  0  0  0  0  0  0  0  0  0  0  0
   13.2701    4.4315   21.8531 H   0  0  0  0  0  0  0  0  0  0  0  0
   13.5735    6.0214   23.7953 H   0  0  0  0  0  0  0  0  0  0  0  0
    9.8077    4.8520   25.4946 H   0  0  0  0  0  0  0  0  0  0  0  0
    8.5036    2.7488   24.0075 H   0  0  0  0  0  0  0  0  0  0  0  0
  1  2  2  0
  2  3  1  0
  3  4  1  0
  4  5  1  0
  5  6  2  0
  6  7  1  0
  7  8  2  0
  8  9  1  0
  9 10  2  0
 10 11  1  0
  8 12  1  0
  7 13  1  0
  6 14  1  0
  4 15  1  0
 15 16  1  0
 16 17  1  0
 17 18  1  0
 17 19  1  0
 16 20  1  0
 16 21  1  0
 15 22  1  0
 15 23  1  0
  3 24  1  0
  2 25  1  0
 25 26  2  0
 26 27  1  0
 27 28  2  0
 28 29  1  0
 29 30  1  0
 30 31  1  0
 29 32  2  0
 32 33  1  0
 33 34  2  0
 34 35  1  0
 35 36  1  0
 33 37  1  0
 32 38  1  0
 28 39  1  0
 26 40  1  0
 17  4  1  0
 35 25  1  0
 10  5  1  0
 34 27  1  0
M  END
>  <cnnaffinity>  (1) 
5.49538

>  <plip>  (1) 
-0.07142857142857142

>  <filename>  (1) 
[H][O][c]1[c]([H])[c]([H])[c]2[c]([c]1[H])[c]([H])[c]([C](=[O])[N]([H])[C]1([c]3[c]([H])[n][c]([H])[c]([H])[c]3[H])[C]([H])([H])[C]([H])([H])[C]1([H])[H])[n]2[H]

>  <combo1>  (1) 
-0.4257071866953664

$$$$
