
     RDKit          3D

 35 37  0  0  0  0  0  0  0  0999 V2000
    5.4637   -2.0859   21.2669 O   0  0  0  0  0  0  0  0  0  0  0  0
    6.5540   -1.6700   21.6081 C   0  0  0  0  0  0  0  0  0  0  0  0
    7.2151   -2.2065   22.8893 C   0  0  0  0  0  0  0  0  0  0  0  0
    8.6800   -2.0623   23.0033 N   0  0  0  0  0  0  0  0  0  0  0  0
    9.3703   -2.9127   23.8144 C   0  0  0  0  0  0  0  0  0  0  0  0
    8.7088   -3.5168   24.8059 N   0  0  0  0  0  0  0  0  0  0  0  0
    9.4220   -4.3188   25.5976 C   0  0  0  0  0  0  0  0  0  0  0  0
    8.6759   -4.8988   26.7982 C   0  0  0  0  0  0  0  0  0  0  0  0
    9.4409   -4.8609   27.9293 F   0  0  0  0  0  0  0  0  0  0  0  0
    8.3717   -6.2079   26.5748 F   0  0  0  0  0  0  0  0  0  0  0  0
    7.7517   -4.3293   26.9517 H   0  0  0  0  0  0  0  0  0  0  0  0
   10.7622   -4.5955   25.3517 C   0  0  0  0  0  0  0  0  0  0  0  0
   11.3166   -3.9123   24.2868 C   0  0  0  0  0  0  0  0  0  0  0  0
   10.6639   -3.0599   23.5322 N   0  0  0  0  0  0  0  0  0  0  0  0
   12.3591   -4.0125   24.0371 H   0  0  0  0  0  0  0  0  0  0  0  0
   11.3545   -5.2501   25.9708 H   0  0  0  0  0  0  0  0  0  0  0  0
    9.4018   -1.4010   21.8994 C   0  0  0  0  0  0  0  0  0  0  0  0
    8.5790   -0.2427   21.3707 C   0  0  0  0  0  0  0  0  0  0  0  0
    7.2758   -0.7201   20.8891 N   0  0  0  0  0  0  0  0  0  0  0  0
    6.6396   -0.0143   19.8263 C   0  0  0  0  0  0  0  0  0  0  0  0
    5.4239    0.6303   20.0691 C   0  0  0  0  0  0  0  0  0  0  0  0
    4.8210    1.3320   19.0230 C   0  0  0  0  0  0  0  0  0  0  0  0
    5.4480    1.3461   17.7700 C   0  0  0  0  0  0  0  0  0  0  0  0
    6.6075    0.7185   17.5163 N   0  0  0  0  0  0  0  0  0  0  0  0
    7.1923    0.0662   18.5317 C   0  0  0  0  0  0  0  0  0  0  0  0
    8.1279   -0.4478   18.3205 H   0  0  0  0  0  0  0  0  0  0  0  0
    4.9973    1.8785   16.9356 H   0  0  0  0  0  0  0  0  0  0  0  0
    3.8855    1.8576   19.1761 H   0  0  0  0  0  0  0  0  0  0  0  0
    4.9809    0.5566   21.0612 H   0  0  0  0  0  0  0  0  0  0  0  0
    9.1033    0.2208   20.5297 H   0  0  0  0  0  0  0  0  0  0  0  0
    8.4625    0.5143   22.1617 H   0  0  0  0  0  0  0  0  0  0  0  0
    9.5956   -2.1332   21.1062 H   0  0  0  0  0  0  0  0  0  0  0  0
   10.3725   -1.0331   22.2434 H   0  0  0  0  0  0  0  0  0  0  0  0
    6.7009   -1.7125   23.7239 H   0  0  0  0  0  0  0  0  0  0  0  0
    6.9028   -3.2542   22.9257 H   0  0  0  0  0  0  0  0  0  0  0  0
  1  2  2  0
  2  3  1  0
  3  4  1  0
  4  5  1  0
  5  6  2  0
  6  7  1  0
  7  8  1  0
  8  9  1  0
  8 10  1  0
  8 11  1  0
  7 12  2  0
 12 13  1  0
 13 14  2  0
 13 15  1  0
 12 16  1  0
  4 17  1  0
 17 18  1  0
 18 19  1  0
 19 20  1  0
 20 21  2  0
 21 22  1  0
 22 23  2  0
 23 24  1  0
 24 25  2  0
 25 26  1  0
 23 27  1  0
 22 28  1  0
 21 29  1  0
 18 30  1  0
 18 31  1  0
 17 32  1  0
 17 33  1  0
  3 34  1  0
  3 35  1  0
 19  2  1  0
 25 20  1  0
 14  5  1  0
M  END
>  <cnnaffinity>  (1) 
5.32763

>  <plip>  (1) 
-0.10344827586206896

>  <filename>  (1) 
[H][c]1[n][c]([N]2[C]([H])([H])[C](=[O])[N]([c]3[c]([H])[n][c]([H])[c]([H])[c]3[H])[C]([H])([H])[C]2([H])[H])[n][c]([C]([H])([F])[F])[c]1[H]

>  <combo1>  (1) 
-0.6017641679671161

$$$$
