
     RDKit          3D

 41 44  0  0  0  0  0  0  0  0999 V2000
   11.2472    2.4015   21.5980 C   0  0  0  0  0  0  0  0  0  0  0  0
   10.0915    1.4952   21.8316 C   0  0  0  0  0  0  0  0  0  0  0  0
    9.3978    0.8718   20.8966 N   0  0  0  0  0  0  0  0  0  0  0  0
    8.4179    0.2533   21.6095 N   0  0  0  0  0  0  0  0  0  0  0  0
    7.4826   -0.6571   20.9376 C   0  0  0  0  0  0  0  0  0  0  0  0
    6.6528    0.0131   19.8673 C   0  0  0  0  0  0  0  0  0  0  0  0
    5.4306    0.6461   20.1164 C   0  0  0  0  0  0  0  0  0  0  0  0
    4.7918    1.3094   19.0642 C   0  0  0  0  0  0  0  0  0  0  0  0
    5.3913    1.3046   17.8008 C   0  0  0  0  0  0  0  0  0  0  0  0
    6.5509    0.6853   17.5364 N   0  0  0  0  0  0  0  0  0  0  0  0
    7.1563    0.0695   18.5569 C   0  0  0  0  0  0  0  0  0  0  0  0
    8.1130   -0.4061   18.3387 H   0  0  0  0  0  0  0  0  0  0  0  0
    4.9217    1.8187   16.9636 H   0  0  0  0  0  0  0  0  0  0  0  0
    3.8601    1.8430   19.2116 H   0  0  0  0  0  0  0  0  0  0  0  0
    4.9804    0.6383   21.1130 H   0  0  0  0  0  0  0  0  0  0  0  0
    6.8366   -1.1150   21.6925 H   0  0  0  0  0  0  0  0  0  0  0  0
    8.0816   -1.4576   20.4882 H   0  0  0  0  0  0  0  0  0  0  0  0
    8.6021    0.5135   22.9316 C   0  0  0  0  0  0  0  0  0  0  0  0
    7.7978   -0.0831   24.0150 C   0  0  0  0  0  0  0  0  0  0  0  0
    6.3998    0.0720   24.0771 C   0  0  0  0  0  0  0  0  0  0  0  0
    5.6771   -0.5134   25.1057 C   0  0  0  0  0  0  0  0  0  0  0  0
    6.3157   -1.3357   26.0545 C   0  0  0  0  0  0  0  0  0  0  0  0
    5.5557   -2.1211   27.0623 C   0  0  0  0  0  0  0  0  0  0  0  0
    6.0855   -3.2120   27.6316 C   0  0  0  0  0  0  0  0  0  0  0  0
    7.5108   -3.6210   27.2999 C   0  0  0  0  0  0  0  0  0  0  0  0
    8.3854   -2.3764   27.0369 C   0  0  0  0  0  0  0  0  0  0  0  0
    7.7292   -1.4837   26.0015 C   0  0  0  0  0  0  0  0  0  0  0  0
    8.4506   -0.8218   25.0126 C   0  0  0  0  0  0  0  0  0  0  0  0
    9.5396   -0.8755   24.9797 H   0  0  0  0  0  0  0  0  0  0  0  0
    9.4011   -2.6660   26.7491 H   0  0  0  0  0  0  0  0  0  0  0  0
    8.4855   -1.7799   27.9538 H   0  0  0  0  0  0  0  0  0  0  0  0
    7.4805   -4.2279   26.3792 H   0  0  0  0  0  0  0  0  0  0  0  0
    7.9321   -4.2487   28.0939 H   0  0  0  0  0  0  0  0  0  0  0  0
    5.5205   -3.8549   28.3034 H   0  0  0  0  0  0  0  0  0  0  0  0
    4.5323   -1.8144   27.2841 H   0  0  0  0  0  0  0  0  0  0  0  0
    4.6007   -0.3834   25.1504 H   0  0  0  0  0  0  0  0  0  0  0  0
    5.8820    0.6530   23.3147 H   0  0  0  0  0  0  0  0  0  0  0  0
    9.6494    1.2903   23.0973 N   0  0  0  0  0  0  0  0  0  0  0  0
   11.6343    2.3279   20.5808 H   0  0  0  0  0  0  0  0  0  0  0  0
   12.0308    2.1758   22.3263 H   0  0  0  0  0  0  0  0  0  0  0  0
   10.9137    3.4225   21.8033 H   0  0  0  0  0  0  0  0  0  0  0  0
  1  2  1  0
  2  3  2  0
  3  4  1  0
  4  5  1  0
  5  6  1  0
  6  7  2  0
  7  8  1  0
  8  9  2  0
  9 10  1  0
 10 11  2  0
 11 12  1  0
  9 13  1  0
  8 14  1  0
  7 15  1  0
  5 16  1  0
  5 17  1  0
  4 18  1  0
 18 19  1  0
 19 20  2  0
 20 21  1  0
 21 22  2  0
 22 23  1  0
 23 24  2  0
 24 25  1  0
 25 26  1  0
 26 27  1  0
 27 28  2  0
 28 29  1  0
 26 30  1  0
 26 31  1  0
 25 32  1  0
 25 33  1  0
 24 34  1  0
 23 35  1  0
 21 36  1  0
 20 37  1  0
 18 38  2  0
  1 39  1  0
  1 40  1  0
  1 41  1  0
 38  2  1  0
 11  6  1  0
 28 19  1  0
 27 22  1  0
M  END
>  <cnnaffinity>  (1) 
5.23372

>  <plip>  (1) 
-0.07142857142857142

>  <filename>  (1) 
[H][C]1=[C]([H])[C]([H])([H])[C]([H])([H])[c]2[c]([H])[c](-[c]3[n][c]([C]([H])([H])[H])[n][n]3[C]([H])([H])[c]3[c]([H])[n][c]([H])[c]([H])[c]3[H])[c]([H])[c]([H])[c]21

>  <combo1>  (1) 
-0.4121038721096266

$$$$
