
     RDKit          3D

 34 37  0  0  0  0  0  0  0  0999 V2000
    4.9796    1.8212   16.9841 H   0  0  0  0  0  0  0  0  0  0  0  0
    5.4291    1.2936   17.8247 C   0  0  0  0  0  0  0  0  0  0  0  0
    6.5845    0.6573   17.5758 N   0  0  0  0  0  0  0  0  0  0  0  0
    7.1584    0.0157   18.5952 C   0  0  0  0  0  0  0  0  0  0  0  0
    8.1062   -0.4826   18.3975 H   0  0  0  0  0  0  0  0  0  0  0  0
    6.6197   -0.0333   19.8876 C   0  0  0  0  0  0  0  0  0  0  0  0
    7.4018   -0.7325   20.9003 C   0  0  0  0  0  0  0  0  0  0  0  0
    8.5579   -1.3013   20.7726 N   0  0  0  0  0  0  0  0  0  0  0  0
    8.9064   -1.7542   22.0389 N   0  0  0  0  0  0  0  0  0  0  0  0
    7.9279   -1.4430   22.8223 C   0  0  0  0  0  0  0  0  0  0  0  0
    7.7623   -1.7297   24.2709 C   0  0  0  0  0  0  0  0  0  0  0  0
    6.5403   -3.0070   24.6545 S   0  0  0  0  0  0  0  0  0  0  0  0
    7.3593   -4.4029   23.9155 C   0  0  0  0  0  0  0  0  0  0  0  0
    8.2556   -5.1524   24.6943 C   0  0  0  0  0  0  0  0  0  0  0  0
    8.4239   -4.8777   25.7354 H   0  0  0  0  0  0  0  0  0  0  0  0
    8.9161   -6.2456   24.1316 C   0  0  0  0  0  0  0  0  0  0  0  0
    9.6030   -6.8424   24.7306 H   0  0  0  0  0  0  0  0  0  0  0  0
    8.6901   -6.5862   22.7933 C   0  0  0  0  0  0  0  0  0  0  0  0
    9.2141   -7.4457   22.3855 H   0  0  0  0  0  0  0  0  0  0  0  0
    7.8132   -5.8316   22.0063 C   0  0  0  0  0  0  0  0  0  0  0  0
    7.6523   -6.0854   20.9595 H   0  0  0  0  0  0  0  0  0  0  0  0
    7.1261   -4.7509   22.5714 C   0  0  0  0  0  0  0  0  0  0  0  0
    6.4005   -4.1916   21.9824 H   0  0  0  0  0  0  0  0  0  0  0  0
    8.9811   -1.5974   25.1494 C   0  0  0  0  0  0  0  0  0  0  0  0
    9.1071   -2.3275   25.9462 H   0  0  0  0  0  0  0  0  0  0  0  0
    9.8854   -1.2560   24.6490 H   0  0  0  0  0  0  0  0  0  0  0  0
    7.8637   -0.6103   25.2755 C   0  0  0  0  0  0  0  0  0  0  0  0
    7.2277   -0.7033   26.1508 H   0  0  0  0  0  0  0  0  0  0  0  0
    8.0289    0.4053   24.9216 H   0  0  0  0  0  0  0  0  0  0  0  0
    6.9355   -0.7899   22.1684 O   0  0  0  0  0  0  0  0  0  0  0  0
    5.4105    0.6347   20.1447 C   0  0  0  0  0  0  0  0  0  0  0  0
    4.9667    0.6594   21.1415 H   0  0  0  0  0  0  0  0  0  0  0  0
    4.8090    1.3020   19.0799 C   0  0  0  0  0  0  0  0  0  0  0  0
    3.8800    1.8447   19.2100 H   0  0  0  0  0  0  0  0  0  0  0  0
  1  2  1  0
  2  3  2  0
  3  4  1  0
  4  5  1  0
  4  6  2  0
  6  7  1  0
  7  8  2  0
  8  9  1  0
  9 10  2  0
 10 11  1  0
 11 12  1  0
 12 13  1  0
 13 14  2  0
 14 15  1  0
 14 16  1  0
 16 17  1  0
 16 18  2  0
 18 19  1  0
 18 20  1  0
 20 21  1  0
 20 22  2  0
 22 23  1  0
 11 24  1  0
 24 25  1  0
 24 26  1  0
 24 27  1  0
 27 28  1  0
 27 29  1  0
 10 30  1  0
  6 31  1  0
 31 32  1  0
 31 33  2  0
 33 34  1  0
 33  2  1  0
 30  7  1  0
 27 11  1  0
 22 13  1  0
M  END
>  <cnnaffinity>  (1) 
5.603

>  <plip>  (1) 
-0.06896551724137931

>  <filename>  (1) 
[H][c]1[n][c]([H])[c](-[c]2[n][n][c]([C]3([S][c]4[c]([H])[c]([H])[c]([H])[c]([H])[c]4[H])[C]([H])([H])[C]3([H])[H])[o]2)[c]([H])[c]1[H]

>  <combo1>  (1) 
-0.43608323780635405

$$$$
