
     RDKit          3D

 53 56  0  0  0  0  0  0  0  0999 V2000
    8.3046   -3.3708   21.5028 O   0  0  0  0  0  0  0  0  0  0  0  0
    7.1569   -3.0937   21.8191 C   0  0  0  0  0  0  0  0  0  0  0  0
    6.5691   -1.8956   21.5748 N   0  0  0  0  0  0  0  0  0  0  0  0
    7.2945   -0.7746   21.0052 C   0  0  0  0  0  0  0  0  0  0  0  0
    7.7130    0.2502   22.0842 C   0  0  0  0  0  0  0  0  0  0  0  0
    8.6290   -0.3124   23.1117 N   0  0  0  0  0  4  0  0  0  0  0  0
    9.9966   -0.6671   22.6001 C   0  0  0  0  0  0  0  0  0  0  0  0
   10.8044   -0.8616   23.8752 C   0  0  0  0  0  0  0  0  0  0  0  0
   10.1399    0.0261   24.9478 C   0  0  0  0  0  0  0  0  0  0  0  0
    8.8866    0.5980   24.2767 C   0  0  0  0  0  0  0  0  0  0  0  0
    9.0636    1.6139   23.8987 H   0  0  0  0  0  0  0  0  0  0  0  0
    8.0178    0.6300   24.9371 H   0  0  0  0  0  0  0  0  0  0  0  0
    9.8859   -0.5582   25.8404 H   0  0  0  0  0  0  0  0  0  0  0  0
   10.8046    0.8311   25.2721 H   0  0  0  0  0  0  0  0  0  0  0  0
   11.8433   -0.5807   23.6943 H   0  0  0  0  0  0  0  0  0  0  0  0
   10.7560   -1.9183   24.1678 H   0  0  0  0  0  0  0  0  0  0  0  0
   10.4022    0.1633   22.0066 H   0  0  0  0  0  0  0  0  0  0  0  0
    9.9549   -1.5575   21.9664 H   0  0  0  0  0  0  0  0  0  0  0  0
    8.2158   -1.1974   23.4987 H   0  0  0  0  0  0  0  0  0  0  0  0
    6.8076    0.6459   22.5664 H   0  0  0  0  0  0  0  0  0  0  0  0
    8.2114    1.0827   21.5640 H   0  0  0  0  0  0  0  0  0  0  0  0
    6.5147   -0.0944   19.9110 C   0  0  0  0  0  0  0  0  0  0  0  0
    5.3163    0.6062   20.1223 C   0  0  0  0  0  0  0  0  0  0  0  0
    4.7597    1.3113   19.0529 C   0  0  0  0  0  0  0  0  0  0  0  0
    5.4137    1.2966   17.8151 C   0  0  0  0  0  0  0  0  0  0  0  0
    6.5471    0.6151   17.5900 N   0  0  0  0  0  0  0  0  0  0  0  0
    7.0669   -0.0544   18.6224 C   0  0  0  0  0  0  0  0  0  0  0  0
    8.0001   -0.5855   18.4263 H   0  0  0  0  0  0  0  0  0  0  0  0
    5.0143    1.8492   16.9665 H   0  0  0  0  0  0  0  0  0  0  0  0
    3.8497    1.8913   19.1639 H   0  0  0  0  0  0  0  0  0  0  0  0
    4.8275    0.6258   21.1016 H   0  0  0  0  0  0  0  0  0  0  0  0
    8.2159   -1.1865   20.5682 H   0  0  0  0  0  0  0  0  0  0  0  0
    5.5949   -1.8090   21.7906 H   0  0  0  0  0  0  0  0  0  0  0  0
    6.2846   -3.9512   22.4673 N   0  0  0  0  0  0  0  0  0  0  0  0
    6.8496   -5.1497   23.1018 C   0  0  2  0  0  0  0  0  0  0  0  0
    5.7392   -6.1308   23.5455 C   0  0  0  0  0  0  0  0  0  0  0  0
    5.6791   -6.1071   25.0982 C   0  0  0  0  0  0  0  0  0  0  0  0
    6.9387   -5.3672   25.5007 C   0  0  0  0  0  0  0  0  0  0  0  0
    7.4875   -5.2062   26.7769 C   0  0  0  0  0  0  0  0  0  0  0  0
    8.6861   -4.4943   26.9222 C   0  0  0  0  0  0  0  0  0  0  0  0
    9.3338   -3.9577   25.7978 C   0  0  0  0  0  0  0  0  0  0  0  0
    8.7916   -4.1216   24.5195 C   0  0  0  0  0  0  0  0  0  0  0  0
    7.5912   -4.8319   24.3862 C   0  0  0  0  0  0  0  0  0  0  0  0
    9.2856   -3.7414   23.6253 H   0  0  0  0  0  0  0  0  0  0  0  0
   10.2868   -3.4509   25.9181 H   0  0  0  0  0  0  0  0  0  0  0  0
    9.1278   -4.3849   27.9102 H   0  0  0  0  0  0  0  0  0  0  0  0
    6.9965   -5.6603   27.6360 H   0  0  0  0  0  0  0  0  0  0  0  0
    4.7824   -5.5927   25.4725 H   0  0  0  0  0  0  0  0  0  0  0  0
    5.6610   -7.1174   25.5263 H   0  0  0  0  0  0  0  0  0  0  0  0
    6.0070   -7.1301   23.1876 H   0  0  0  0  0  0  0  0  0  0  0  0
    4.7775   -5.8805   23.0818 H   0  0  0  0  0  0  0  0  0  0  0  0
    7.5325   -5.6169   22.3797 H   0  0  0  0  0  0  0  0  0  0  0  0
    5.7113   -3.4161   23.0995 H   0  0  0  0  0  0  0  0  0  0  0  0
  1  2  2  0
  2  3  1  0
  3  4  1  0
  4  5  1  0
  5  6  1  0
  6  7  1  0
  7  8  1  0
  8  9  1  0
  9 10  1  0
 10 11  1  0
 10 12  1  0
  9 13  1  0
  9 14  1  0
  8 15  1  0
  8 16  1  0
  7 17  1  0
  7 18  1  0
  6 19  1  0
  5 20  1  0
  5 21  1  0
  4 22  1  0
 22 23  2  0
 23 24  1  0
 24 25  2  0
 25 26  1  0
 26 27  2  0
 27 28  1  0
 25 29  1  0
 24 30  1  0
 23 31  1  0
  4 32  1  0
  3 33  1  0
  2 34  1  0
 34 35  1  0
 35 36  1  0
 36 37  1  0
 37 38  1  0
 38 39  2  0
 39 40  1  0
 40 41  2  0
 41 42  1  0
 42 43  2  0
 42 44  1  0
 41 45  1  0
 40 46  1  0
 39 47  1  0
 37 48  1  0
 37 49  1  0
 36 50  1  0
 36 51  1  0
 35 52  1  6
 34 53  1  0
 10  6  1  0
 27 22  1  0
 43 35  1  0
 43 38  1  0
M  CHG  1   6   1
M  END
>  <cnnaffinity>  (1) 
5.79891

>  <plip>  (1) 
-0.13333333333333333

>  <filename>  (1) 
[H][c]1[n][c]([H])[c]([C]([H])([N]([H])[C](=[O])[N]([H])[C@@]2([H])[c]3[c]([H])[c]([H])[c]([H])[c]([H])[c]3[C]([H])([H])[C]2([H])[H])[C]([H])([H])[N+]2([H])[C]([H])([H])[C]([H])([H])[C]([H])([H])[C]2([H])[H])[c]([H])[c]1[H]

>  <combo1>  (1) 
-0.7332813617318302

$$$$
