
     RDKit          3D

 37 40  0  0  0  0  0  0  0  0999 V2000
    4.8908   -2.3316   26.1644 O   0  0  0  0  0  1  0  0  0  0  0  0
    4.7251   -1.1043   25.8878 N   0  0  0  0  0  4  0  0  0  0  0  0
    3.6655   -0.4554   26.4996 C   0  0  0  0  0  0  0  0  0  0  0  0
    3.4187    0.8820   26.2745 C   0  0  0  0  0  0  0  0  0  0  0  0
    4.2484    1.5987   25.3969 C   0  0  0  0  0  0  0  0  0  0  0  0
    5.3018    0.9548   24.7552 C   0  0  0  0  0  0  0  0  0  0  0  0
    5.5298   -0.3914   24.9979 C   0  0  0  0  0  0  0  0  0  0  0  0
    6.5657   -1.1170   24.4759 O   0  0  0  0  0  0  0  0  0  0  0  0
    7.1382   -0.8941   23.2638 C   0  0  0  0  0  0  0  0  0  0  0  0
    6.4771   -0.2867   22.2894 N   0  0  0  0  0  0  0  0  0  0  0  0
    7.0612   -0.2784   21.0853 C   0  0  0  0  0  0  0  0  0  0  0  0
    6.3270    0.2874   19.9284 C   0  0  0  0  0  0  0  0  0  0  0  0
    5.0683    0.9208   19.9667 C   0  0  0  0  0  0  0  0  0  0  0  0
    4.5742    1.4733   18.7797 C   0  0  0  0  0  0  0  0  0  0  0  0
    5.3271    1.3602   17.6054 C   0  0  0  0  0  0  0  0  0  0  0  0
    6.4883    0.6974   17.5432 N   0  0  0  0  0  0  0  0  0  0  0  0
    6.9641    0.1810   18.6784 C   0  0  0  0  0  0  0  0  0  0  0  0
    7.9078   -0.3529   18.5972 H   0  0  0  0  0  0  0  0  0  0  0  0
    4.9835    1.8157   16.6757 H   0  0  0  0  0  0  0  0  0  0  0  0
    3.6349    2.0165   18.7467 H   0  0  0  0  0  0  0  0  0  0  0  0
    4.4835    0.9982   20.8883 H   0  0  0  0  0  0  0  0  0  0  0  0
    8.2778   -0.7506   20.8229 N   0  0  0  0  0  0  0  0  0  0  0  0
    8.9275   -1.3093   21.8369 C   0  0  0  0  0  0  0  0  0  0  0  0
    8.4267   -1.4069   23.1190 C   0  0  0  0  0  0  0  0  0  0  0  0
    9.4140   -2.0941   24.0358 C   0  0  0  0  0  0  0  0  0  0  0  0
   10.3369   -2.8177   23.0192 C   0  0  0  0  0  0  0  0  0  0  0  0
   10.2477   -1.9963   21.7082 C   0  0  0  0  0  0  0  0  0  0  0  0
   11.0561   -1.2582   21.6143 H   0  0  0  0  0  0  0  0  0  0  0  0
   10.2488   -2.6011   20.7986 H   0  0  0  0  0  0  0  0  0  0  0  0
    9.9224   -3.8213   22.8620 H   0  0  0  0  0  0  0  0  0  0  0  0
   11.3709   -2.9372   23.3544 H   0  0  0  0  0  0  0  0  0  0  0  0
    8.9516   -2.8039   24.7272 H   0  0  0  0  0  0  0  0  0  0  0  0
    9.9644   -1.3794   24.6657 H   0  0  0  0  0  0  0  0  0  0  0  0
    5.9421    1.4732   24.0489 H   0  0  0  0  0  0  0  0  0  0  0  0
    4.0693    2.6530   25.2076 H   0  0  0  0  0  0  0  0  0  0  0  0
    2.5902    1.3733   26.7707 H   0  0  0  0  0  0  0  0  0  0  0  0
    3.1038   -1.1240   27.1443 H   0  0  0  0  0  0  0  0  0  0  0  0
  1  2  1  0
  2  3  2  0
  3  4  1  0
  4  5  2  0
  5  6  1  0
  6  7  2  0
  7  8  1  0
  8  9  1  0
  9 10  2  0
 10 11  1  0
 11 12  1  0
 12 13  2  0
 13 14  1  0
 14 15  2  0
 15 16  1  0
 16 17  2  0
 17 18  1  0
 15 19  1  0
 14 20  1  0
 13 21  1  0
 11 22  2  0
 22 23  1  0
 23 24  2  0
 24 25  1  0
 25 26  1  0
 26 27  1  0
 27 28  1  0
 27 29  1  0
 26 30  1  0
 26 31  1  0
 25 32  1  0
 25 33  1  0
  6 34  1  0
  5 35  1  0
  4 36  1  0
  3 37  1  0
  7  2  1  0
 24  9  1  0
 17 12  1  0
 27 23  1  0
M  CHG  2   1  -1   2   1
M  END
>  <cnnaffinity>  (1) 
5.28273

>  <plip>  (1) 
-0.0

>  <filename>  (1) 
[H][c]1[n][c]([H])[c](-[c]2[n][c]([O][c]3[c]([H])[c]([H])[c]([H])[c]([H])[n+]3[O-])[c]3[c]([n]2)[C]([H])([H])[C]([H])([H])[C]3([H])[H])[c]([H])[c]1[H]

>  <combo1>  (1) 
-5.748502407573658e-06

$$$$
