
     RDKit          3D

 21 22  0  0  0  0  0  0  0  0999 V2000
    5.0095    1.7435   17.0535 H   0  0  0  0  0  0  0  0  0  0  0  0
    5.4657    1.2411   17.8982 C   0  0  0  0  0  0  0  0  0  0  0  0
    6.6286    0.6135   17.6616 N   0  0  0  0  0  0  0  0  0  0  0  0
    7.2181   -0.0159   18.6886 C   0  0  0  0  0  0  0  0  0  0  0  0
    8.1699   -0.5037   18.4790 H   0  0  0  0  0  0  0  0  0  0  0  0
    6.6626   -0.0336   19.9868 C   0  0  0  0  0  0  0  0  0  0  0  0
    7.3044   -0.7508   21.0077 O   0  0  0  0  0  0  0  0  0  0  0  0
    7.3170   -0.2403   22.2870 C   0  0  0  0  0  0  0  0  0  0  0  0
    6.9484    0.8476   22.6262 O   0  0  0  0  0  0  0  0  0  0  0  0
    7.8368   -1.1945   23.1014 N   0  0  0  0  0  0  0  0  0  0  0  0
    8.1244   -2.0680   22.7139 H   0  0  0  0  0  0  0  0  0  0  0  0
    7.9050   -1.0410   24.4497 C   0  0  0  0  0  0  0  0  0  0  0  0
    8.3956   -2.0182   25.2381 N   0  0  0  0  0  0  0  0  0  0  0  0
    8.3333   -1.5535   26.4549 N   0  0  0  0  0  0  0  0  0  0  0  0
    7.8206   -0.3556   26.3474 N   0  0  0  0  0  0  0  0  0  0  0  0
    7.6766    0.2383   27.1513 H   0  0  0  0  0  0  0  0  0  0  0  0
    7.5228    0.0360   25.1184 N   0  0  0  0  0  0  0  0  0  0  0  0
    5.4479    0.6209   20.2221 C   0  0  0  0  0  0  0  0  0  0  0  0
    5.0358    0.6500   21.2311 H   0  0  0  0  0  0  0  0  0  0  0  0
    4.8349    1.2640   19.1471 C   0  0  0  0  0  0  0  0  0  0  0  0
    3.9015    1.8032   19.2893 H   0  0  0  0  0  0  0  0  0  0  0  0
  1  2  1  0
  2  3  2  0
  3  4  1  0
  4  5  1  0
  4  6  2  0
  6  7  1  0
  7  8  1  0
  8  9  2  0
  8 10  1  0
 10 11  1  0
 10 12  1  0
 12 13  1  0
 13 14  2  0
 14 15  1  0
 15 16  1  0
 15 17  1  0
  6 18  1  0
 18 19  1  0
 18 20  2  0
 20 21  1  0
 20  2  1  0
 17 12  2  0
M  END
>  <cnnaffinity>  (1) 
4.09253

>  <plip>  (1) 
-0.03571428571428571

>  <filename>  (1) 
[H][c]1[n][c]([H])[c]([O][C](=[O])[N]([H])[c]2[n][n][n]([H])[n]2)[c]([H])[c]1[H]

>  <combo1>  (1) 
-0.23631845967111406

$$$$
