
     RDKit          3D

 40 42  0  0  0  0  0  0  0  0999 V2000
    7.9271   -2.0093   20.8951 C   0  0  0  0  0  0  0  0  0  0  0  0
    7.3389   -0.6146   21.1921 C   0  0  0  0  0  0  0  0  0  0  0  0
    8.3927    0.2378   21.9560 C   0  0  0  0  0  0  0  0  0  0  0  0
    8.2638    0.4833   23.1415 O   0  0  0  0  0  0  0  0  0  0  0  0
    9.4960    0.6128   21.2481 N   0  0  0  0  0  0  0  0  0  0  0  0
   10.5950    1.3802   21.8330 C   0  0  0  0  0  0  0  0  0  0  0  0
   10.0774    2.7189   22.3831 C   0  0  0  0  0  0  0  0  0  0  0  0
   11.1058    3.7158   22.8181 C   0  0  0  0  0  0  0  0  0  0  0  0
   12.2688    4.0665   22.1949 C   0  0  0  0  0  0  0  0  0  0  0  0
   12.8989    5.0837   22.9016 N   0  0  0  0  0  0  0  0  0  0  0  0
   12.1324    5.4239   23.9804 C   0  0  0  0  0  0  0  0  0  0  0  0
   12.2930    6.3990   24.9794 C   0  0  0  0  0  0  0  0  0  0  0  0
   11.2801    6.4808   25.9259 C   0  0  0  0  0  0  0  0  0  0  0  0
   10.1811    5.6948   25.9525 N   0  0  0  0  0  0  0  0  0  0  0  0
   10.0379    4.7844   24.9860 C   0  0  0  0  0  0  0  0  0  0  0  0
   10.9881    4.5905   23.9633 C   0  0  0  0  0  0  0  0  0  0  0  0
    9.1202    4.1935   25.0399 H   0  0  0  0  0  0  0  0  0  0  0  0
   11.3367    7.2236   26.7210 H   0  0  0  0  0  0  0  0  0  0  0  0
   13.1285    7.0891   25.0078 H   0  0  0  0  0  0  0  0  0  0  0  0
   13.8123    5.4614   22.7247 H   0  0  0  0  0  0  0  0  0  0  0  0
   12.6730    3.6641   21.2740 H   0  0  0  0  0  0  0  0  0  0  0  0
    9.4097    3.1412   21.6162 H   0  0  0  0  0  0  0  0  0  0  0  0
    9.4190    2.4819   23.2233 H   0  0  0  0  0  0  0  0  0  0  0  0
   11.0715    0.7941   22.6315 H   0  0  0  0  0  0  0  0  0  0  0  0
   11.3533    1.5265   21.0542 H   0  0  0  0  0  0  0  0  0  0  0  0
    9.4853    0.4123   20.2656 H   0  0  0  0  0  0  0  0  0  0  0  0
    6.6710    0.0382   19.9699 C   0  0  0  0  0  0  0  0  0  0  0  0
    5.5032    0.8048   20.1347 C   0  0  0  0  0  0  0  0  0  0  0  0
    4.9155    1.4143   19.0230 C   0  0  0  0  0  0  0  0  0  0  0  0
    5.5083    1.2445   17.7699 C   0  0  0  0  0  0  0  0  0  0  0  0
    6.6112    0.5094   17.5762 N   0  0  0  0  0  0  0  0  0  0  0  0
    7.1641   -0.0710   18.6525 C   0  0  0  0  0  0  0  0  0  0  0  0
    8.0591   -0.6588   18.4435 H   0  0  0  0  0  0  0  0  0  0  0  0
    5.0779    1.7114   16.8853 H   0  0  0  0  0  0  0  0  0  0  0  0
    4.0222    2.0229   19.1123 H   0  0  0  0  0  0  0  0  0  0  0  0
    5.0526    0.9200   21.1224 H   0  0  0  0  0  0  0  0  0  0  0  0
    6.5652   -0.7387   21.9566 H   0  0  0  0  0  0  0  0  0  0  0  0
    8.7635   -1.9433   20.1909 H   0  0  0  0  0  0  0  0  0  0  0  0
    8.3138   -2.4848   21.8032 H   0  0  0  0  0  0  0  0  0  0  0  0
    7.1620   -2.6667   20.4733 H   0  0  0  0  0  0  0  0  0  0  0  0
  1  2  1  0
  2  3  1  0
  3  4  2  0
  3  5  1  0
  5  6  1  0
  6  7  1  0
  7  8  1  0
  8  9  2  0
  9 10  1  0
 10 11  1  0
 11 12  2  0
 12 13  1  0
 13 14  2  0
 14 15  1  0
 15 16  2  0
 15 17  1  0
 13 18  1  0
 12 19  1  0
 10 20  1  0
  9 21  1  0
  7 22  1  0
  7 23  1  0
  6 24  1  0
  6 25  1  0
  5 26  1  0
  2 27  1  0
 27 28  2  0
 28 29  1  0
 29 30  2  0
 30 31  1  0
 31 32  2  0
 32 33  1  0
 30 34  1  0
 29 35  1  0
 28 36  1  0
  2 37  1  0
  1 38  1  0
  1 39  1  0
  1 40  1  0
 16  8  1  0
 32 27  1  0
 16 11  1  0
M  END
>  <cnnaffinity>  (1) 
4.70617

>  <plip>  (1) 
-0.16666666666666666

>  <filename>  (1) 
[H][c]1[n][c]([H])[c]([C]([H])([C](=[O])[N]([H])[C]([H])([H])[C]([H])([H])[c]2[c]([H])[n]([H])[c]3[c]([H])[c]([H])[n][c]([H])[c]23)[C]([H])([H])[H])[c]([H])[c]1[H]

>  <combo1>  (1) 
-0.8882173709866522

$$$$
