
     RDKit          3D

 30 32  0  0  0  0  0  0  0  0999 V2000
    4.8166    1.3001   19.1132 C   0  0  0  0  0  0  0  0  0  0  0  0
    5.3918    1.2974   17.8374 C   0  0  0  0  0  0  0  0  0  0  0  0
    6.5516    0.6778   17.5618 N   0  0  0  0  0  0  0  0  0  0  0  0
    7.1708    0.0634   18.5754 C   0  0  0  0  0  0  0  0  0  0  0  0
    6.6712   -0.0143   19.9056 C   0  0  0  0  0  0  0  0  0  0  0  0
    7.3530   -0.7295   20.9255 N   0  0  0  0  0  0  0  0  0  0  0  0
    8.7099   -0.6714   21.1157 C   0  0  0  0  0  0  0  0  0  0  0  0
    9.5502    0.1018   20.4848 N   0  0  0  0  0  0  0  0  0  0  0  0
   10.8045   -0.1654   20.9934 N   0  0  0  0  0  0  0  0  0  0  0  0
   10.6751   -1.1064   21.8729 C   0  0  0  0  0  0  0  0  0  0  0  0
    9.3621   -1.4978   21.9971 N   0  0  0  0  0  0  0  0  0  0  0  0
    8.8056   -2.4240   22.9763 C   0  0  0  0  0  0  0  0  0  0  0  0
    8.2714   -1.7065   24.1762 C   0  0  0  0  0  0  0  0  0  0  0  0
    7.0331   -1.7097   24.4742 N   0  0  0  0  0  0  0  0  0  0  0  0
    6.8124   -0.9644   25.6154 O   0  0  0  0  0  0  0  0  0  0  0  0
    8.0571   -0.4059   26.0837 C   0  0  0  0  0  0  0  0  0  0  0  0
    9.1282   -0.8867   25.1004 C   0  0  0  0  0  0  0  0  0  0  0  0
    9.6254   -0.0756   24.5572 H   0  0  0  0  0  0  0  0  0  0  0  0
    9.9093   -1.4961   25.5623 H   0  0  0  0  0  0  0  0  0  0  0  0
    7.9519    0.6809   26.1081 H   0  0  0  0  0  0  0  0  0  0  0  0
    8.2226   -0.7555   27.1053 H   0  0  0  0  0  0  0  0  0  0  0  0
    8.0196   -3.0267   22.5150 H   0  0  0  0  0  0  0  0  0  0  0  0
    9.6036   -3.1122   23.2675 H   0  0  0  0  0  0  0  0  0  0  0  0
   11.4850   -1.5231   22.4517 H   0  0  0  0  0  0  0  0  0  0  0  0
    6.8382   -1.0641   21.7281 H   0  0  0  0  0  0  0  0  0  0  0  0
    5.4516    0.6241   20.1665 C   0  0  0  0  0  0  0  0  0  0  0  0
    5.0263    0.6171   21.1739 H   0  0  0  0  0  0  0  0  0  0  0  0
    8.1272   -0.4116   18.3721 H   0  0  0  0  0  0  0  0  0  0  0  0
    4.9116    1.7911   16.9952 H   0  0  0  0  0  0  0  0  0  0  0  0
    3.8866    1.8330   19.2678 H   0  0  0  0  0  0  0  0  0  0  0  0
  1  2  2  0
  2  3  1  0
  3  4  2  0
  4  5  1  0
  5  6  1  0
  6  7  1  0
  7  8  2  0
  8  9  1  0
  9 10  2  0
 10 11  1  0
 11 12  1  0
 12 13  1  0
 13 14  2  0
 14 15  1  0
 15 16  1  0
 16 17  1  0
 17 18  1  0
 17 19  1  0
 16 20  1  0
 16 21  1  0
 12 22  1  0
 12 23  1  0
 10 24  1  0
  6 25  1  0
  5 26  2  0
 26 27  1  0
  4 28  1  0
  2 29  1  0
  1 30  1  0
 26  1  1  0
 11  7  1  0
 17 13  1  0
M  END
>  <cnnaffinity>  (1) 
4.99333

>  <plip>  (1) 
-0.10714285714285714

>  <filename>  (1) 
[H][c]1[n][c]([H])[c]([N]([H])[c]2[n][n][c]([H])[n]2[C]([H])([H])[C]2=[N][O][C]([H])([H])[C]2([H])[H])[c]([H])[c]1[H]

>  <combo1>  (1) 
-0.7301018361147403

$$$$
