
     RDKit          3D

 41 43  0  0  0  0  0  0  0  0999 V2000
    5.9597   -1.8651   21.0878 H   0  0  0  0  0  0  0  0  0  0  0  0
    6.6546   -1.6059   21.7044 O   0  0  0  0  0  0  0  0  0  0  0  0
    7.4861   -0.7379   20.9498 C   0  0  1  0  0  0  0  0  0  0  0  0
    8.2448   -1.3490   20.4261 H   0  0  0  0  0  0  0  0  0  0  0  0
    6.6564   -0.0426   19.8742 C   0  0  0  0  0  0  0  0  0  0  0  0
    7.1350   -0.0365   18.5555 C   0  0  0  0  0  0  0  0  0  0  0  0
    8.0347   -0.5981   18.3035 H   0  0  0  0  0  0  0  0  0  0  0  0
    6.5569    0.6105   17.5304 N   0  0  0  0  0  0  0  0  0  0  0  0
    5.4308    1.2842   17.7939 C   0  0  0  0  0  0  0  0  0  0  0  0
    4.9863    1.8163   16.9536 H   0  0  0  0  0  0  0  0  0  0  0  0
    4.8212    1.3027   19.0528 C   0  0  0  0  0  0  0  0  0  0  0  0
    3.8884    1.8426   19.1893 H   0  0  0  0  0  0  0  0  0  0  0  0
    5.4325    0.6130   20.1062 C   0  0  0  0  0  0  0  0  0  0  0  0
    4.9537    0.5755   21.0872 H   0  0  0  0  0  0  0  0  0  0  0  0
    8.2818    0.2110   21.9043 C   0  0  0  0  0  0  0  0  0  0  0  0
    9.2330    1.1013   21.0557 C   0  0  0  0  0  0  0  0  0  0  0  0
    9.7557    0.4582   20.3352 H   0  0  0  0  0  0  0  0  0  0  0  0
    8.5966    1.7707   20.4575 H   0  0  0  0  0  0  0  0  0  0  0  0
   10.2532    1.9524   21.7940 C   0  0  0  0  0  0  0  0  0  0  0  0
    9.8739    3.2111   22.2813 C   0  0  0  0  0  0  0  0  0  0  0  0
    8.8522    3.5578   22.1432 H   0  0  0  0  0  0  0  0  0  0  0  0
   10.7957    4.0828   22.8561 C   0  0  0  0  0  0  0  0  0  0  0  0
   10.4834    5.0851   23.1381 H   0  0  0  0  0  0  0  0  0  0  0  0
   12.1383    3.7133   23.0085 C   0  0  0  0  0  0  0  0  0  0  0  0
   13.1240    4.7009   23.5843 C   0  0  0  0  0  0  0  0  0  0  0  0
   14.1260    4.2764   23.6526 H   0  0  0  0  0  0  0  0  0  0  0  0
   13.1943    5.6035   22.9644 H   0  0  0  0  0  0  0  0  0  0  0  0
   12.8342    5.0199   24.5928 H   0  0  0  0  0  0  0  0  0  0  0  0
   12.5199    2.4336   22.5818 C   0  0  0  0  0  0  0  0  0  0  0  0
   13.5508    2.1109   22.7230 H   0  0  0  0  0  0  0  0  0  0  0  0
   11.5947    1.5677   21.9772 C   0  0  0  0  0  0  0  0  0  0  0  0
   11.9374    0.5909   21.6378 H   0  0  0  0  0  0  0  0  0  0  0  0
    8.9895   -0.5326   23.0834 C   0  0  0  0  0  0  0  0  0  0  0  0
   10.0814   -0.4445   23.0989 H   0  0  0  0  0  0  0  0  0  0  0  0
    8.7364   -1.5929   23.1455 H   0  0  0  0  0  0  0  0  0  0  0  0
    8.2360    0.3554   24.1022 C   0  0  0  0  0  0  0  0  0  0  0  0
    8.8815    1.0542   24.6425 H   0  0  0  0  0  0  0  0  0  0  0  0
    7.6375   -0.1920   24.8377 H   0  0  0  0  0  0  0  0  0  0  0  0
    7.4297    1.0032   22.9512 C   0  0  0  0  0  0  0  0  0  0  0  0
    6.3670    0.7462   22.9541 H   0  0  0  0  0  0  0  0  0  0  0  0
    7.4947    2.0951   22.8912 H   0  0  0  0  0  0  0  0  0  0  0  0
  1  2  1  0
  2  3  1  0
  3  4  1  6
  3  5  1  0
  5  6  2  0
  6  7  1  0
  6  8  1  0
  8  9  2  0
  9 10  1  0
  9 11  1  0
 11 12  1  0
 11 13  2  0
 13 14  1  0
  3 15  1  0
 15 16  1  0
 16 17  1  0
 16 18  1  0
 16 19  1  0
 19 20  2  0
 20 21  1  0
 20 22  1  0
 22 23  1  0
 22 24  2  0
 24 25  1  0
 25 26  1  0
 25 27  1  0
 25 28  1  0
 24 29  1  0
 29 30  1  0
 29 31  2  0
 31 32  1  0
 15 33  1  0
 33 34  1  0
 33 35  1  0
 33 36  1  0
 36 37  1  0
 36 38  1  0
 36 39  1  0
 39 40  1  0
 39 41  1  0
 13  5  1  0
 39 15  1  0
 31 19  1  0
M  END
>  <cnnaffinity>  (1) 
5.05277

>  <plip>  (1) 
-0.10714285714285714

>  <filename>  (1) 
[H][O][C@@]([H])([c]1[c]([H])[n][c]([H])[c]([H])[c]1[H])[C]1([C]([H])([H])[c]2[c]([H])[c]([H])[c]([C]([H])([H])[H])[c]([H])[c]2[H])[C]([H])([H])[C]([H])([H])[C]1([H])[H]

>  <combo1>  (1) 
-0.6749250909914705

$$$$
