
     RDKit          3D

 35 37  0  0  0  0  0  0  0  0999 V2000
    6.5774   -2.8630   23.2852 H   0  0  0  0  0  0  0  0  0  0  0  0
    7.2322   -2.2562   22.6693 C   0  0  0  0  0  0  0  0  0  0  0  0
    8.5578   -2.1378   22.9061 C   0  0  0  0  0  0  0  0  0  0  0  0
    9.2536   -2.9714   23.9447 C   0  0  0  0  0  0  0  0  0  0  0  0
    8.5012   -3.4563   24.9473 N   0  0  0  0  0  0  0  0  0  0  0  0
    9.0680   -4.2367   25.8846 C   0  0  0  0  0  0  0  0  0  0  0  0
    8.1544   -4.7799   27.0059 C   0  0  0  0  0  0  0  0  0  0  0  0
    7.3988   -3.8197   27.5533 F   0  0  0  0  0  0  0  0  0  0  0  0
    7.3184   -5.7369   26.5622 F   0  0  0  0  0  0  0  0  0  0  0  0
    8.8727   -5.3326   28.0084 F   0  0  0  0  0  0  0  0  0  0  0  0
   10.4143   -4.6138   25.8373 C   0  0  0  0  0  0  0  0  0  0  0  0
   10.8464   -5.2447   26.6079 H   0  0  0  0  0  0  0  0  0  0  0  0
   11.1808   -4.1327   24.7816 C   0  0  0  0  0  0  0  0  0  0  0  0
   12.2109   -4.4179   24.6946 H   0  0  0  0  0  0  0  0  0  0  0  0
   10.6173   -3.2940   23.8282 C   0  0  0  0  0  0  0  0  0  0  0  0
   11.2037   -2.8890   23.0114 H   0  0  0  0  0  0  0  0  0  0  0  0
    9.3620   -1.2443   21.9680 C   0  0  0  0  0  0  0  0  0  0  0  0
   10.2238   -0.8091   22.4847 H   0  0  0  0  0  0  0  0  0  0  0  0
    9.7474   -1.8437   21.1303 H   0  0  0  0  0  0  0  0  0  0  0  0
    8.4936   -0.1277   21.3796 C   0  0  0  0  0  0  0  0  0  0  0  0
    9.0429    0.3936   20.5919 H   0  0  0  0  0  0  0  0  0  0  0  0
    8.2514    0.6178   22.1529 H   0  0  0  0  0  0  0  0  0  0  0  0
    7.2686   -0.6831   20.7972 N   0  0  0  0  0  0  0  0  0  0  0  0
    6.6155    0.0377   19.7397 C   0  0  0  0  0  0  0  0  0  0  0  0
    7.1690    0.1309   18.4446 C   0  0  0  0  0  0  0  0  0  0  0  0
    8.1119   -0.3731   18.2309 H   0  0  0  0  0  0  0  0  0  0  0  0
    6.5892    0.7853   17.4282 N   0  0  0  0  0  0  0  0  0  0  0  0
    5.4237    1.4065   17.6741 C   0  0  0  0  0  0  0  0  0  0  0  0
    4.9743    1.9376   16.8383 H   0  0  0  0  0  0  0  0  0  0  0  0
    4.7961    1.3850   18.9260 C   0  0  0  0  0  0  0  0  0  0  0  0
    3.8599    1.9134   19.0663 H   0  0  0  0  0  0  0  0  0  0  0  0
    5.3935    0.6787   19.9725 C   0  0  0  0  0  0  0  0  0  0  0  0
    4.9292    0.6111   20.9570 H   0  0  0  0  0  0  0  0  0  0  0  0
    6.5443   -1.6586   21.5077 C   0  0  0  0  0  0  0  0  0  0  0  0
    5.4425   -2.0432   21.1688 O   0  0  0  0  0  0  0  0  0  0  0  0
  1  2  1  0
  2  3  2  0
  3  4  1  0
  4  5  2  0
  5  6  1  0
  6  7  1  0
  7  8  1  0
  7  9  1  0
  7 10  1  0
  6 11  2  0
 11 12  1  0
 11 13  1  0
 13 14  1  0
 13 15  2  0
 15 16  1  0
  3 17  1  0
 17 18  1  0
 17 19  1  0
 17 20  1  0
 20 21  1  0
 20 22  1  0
 20 23  1  0
 23 24  1  0
 24 25  2  0
 25 26  1  0
 25 27  1  0
 27 28  2  0
 28 29  1  0
 28 30  1  0
 30 31  1  0
 30 32  2  0
 32 33  1  0
 23 34  1  0
 34 35  2  0
 34  2  1  0
 15  4  1  0
 32 24  1  0
M  END
>  <cnnaffinity>  (1) 
5.43953

>  <plip>  (1) 
-0.10714285714285714

>  <filename>  (1) 
[H][C]1=[C]([c]2[n][c]([C]([F])([F])[F])[c]([H])[c]([H])[c]2[H])[C]([H])([H])[C]([H])([H])[N]([c]2[c]([H])[n][c]([H])[c]([H])[c]2[H])[C]1=[O]

>  <combo1>  (1) 
-0.6084480013888129

$$$$
