
     RDKit          3D

 32 34  0  0  0  0  0  0  0  0999 V2000
    6.6173   -1.7582   21.5483 O   0  0  0  0  0  0  0  0  0  0  0  0
    7.2419   -0.9543   20.8986 C   0  0  0  0  0  0  0  0  0  0  0  0
    8.6285   -0.7413   20.9987 N   0  0  0  0  0  0  0  0  0  0  0  0
    9.4373   -1.2564   22.0208 N   0  0  0  0  0  0  0  0  0  0  0  0
    9.1293   -1.1136   23.3615 C   0  0  0  0  0  0  0  0  0  0  0  0
    8.6283    0.0902   23.8264 C   0  0  0  0  0  0  0  0  0  0  0  0
    8.2663    0.2145   25.1792 C   0  0  0  0  0  0  0  0  0  0  0  0
    8.3684   -0.7548   26.0626 N   0  0  0  0  0  0  0  0  0  0  0  0
    8.8813   -1.9428   25.6288 C   0  0  0  0  0  0  0  0  0  0  0  0
    8.9930   -2.9651   26.6066 C   0  0  0  0  0  0  0  0  0  0  0  0
    9.5578   -4.1646   26.2770 C   0  0  0  0  0  0  0  0  0  0  0  0
    9.7362   -5.3624   27.5138 Cl  0  0  0  0  0  0  0  0  0  0  0  0
   10.0044   -4.4428   24.9592 C   0  0  0  0  0  0  0  0  0  0  0  0
    9.8783   -3.4764   23.9822 C   0  0  0  0  0  0  0  0  0  0  0  0
    9.3203   -2.1948   24.2913 C   0  0  0  0  0  0  0  0  0  0  0  0
   10.2036   -3.6920   22.9653 H   0  0  0  0  0  0  0  0  0  0  0  0
   10.4331   -5.4195   24.7573 H   0  0  0  0  0  0  0  0  0  0  0  0
    8.6110   -2.7416   27.5944 H   0  0  0  0  0  0  0  0  0  0  0  0
    7.8801    1.1678   25.5435 H   0  0  0  0  0  0  0  0  0  0  0  0
    8.5179    0.9408   23.1666 H   0  0  0  0  0  0  0  0  0  0  0  0
   10.0780   -1.9966   21.7617 H   0  0  0  0  0  0  0  0  0  0  0  0
    8.8682    0.1918   20.6846 H   0  0  0  0  0  0  0  0  0  0  0  0
    6.6234   -0.0721   19.8545 C   0  0  0  0  0  0  0  0  0  0  0  0
    5.4229    0.6261   20.0714 C   0  0  0  0  0  0  0  0  0  0  0  0
    4.8866    1.3474   19.0045 C   0  0  0  0  0  0  0  0  0  0  0  0
    5.5519    1.3242   17.7747 C   0  0  0  0  0  0  0  0  0  0  0  0
    6.6918    0.6542   17.5587 N   0  0  0  0  0  0  0  0  0  0  0  0
    7.2202   -0.0053   18.5932 C   0  0  0  0  0  0  0  0  0  0  0  0
    8.1617   -0.5134   18.3912 H   0  0  0  0  0  0  0  0  0  0  0  0
    5.1509    1.8566   16.9149 H   0  0  0  0  0  0  0  0  0  0  0  0
    3.9737    1.9259   19.1034 H   0  0  0  0  0  0  0  0  0  0  0  0
    4.9315    0.6249   21.0481 H   0  0  0  0  0  0  0  0  0  0  0  0
  1  2  2  0
  2  3  1  0
  3  4  1  0
  4  5  1  0
  5  6  2  0
  6  7  1  0
  7  8  2  0
  8  9  1  0
  9 10  2  0
 10 11  1  0
 11 12  1  0
 11 13  2  0
 13 14  1  0
 14 15  2  0
 14 16  1  0
 13 17  1  0
 10 18  1  0
  7 19  1  0
  6 20  1  0
  4 21  1  0
  3 22  1  0
  2 23  1  0
 23 24  2  0
 24 25  1  0
 25 26  2  0
 26 27  1  0
 27 28  2  0
 28 29  1  0
 26 30  1  0
 25 31  1  0
 24 32  1  0
 15  5  1  0
 28 23  1  0
 15  9  1  0
M  END
>  <cnnaffinity>  (1) 
4.89819

>  <plip>  (1) 
-0.03333333333333333

>  <filename>  (1) 
[H][c]1[n][c]([H])[c]([C](=[O])[N]([H])[N]([H])[c]2[c]([H])[c]([H])[n][c]3[c]([H])[c]([Cl])[c]([H])[c]([H])[c]23)[c]([H])[c]1[H]

>  <combo1>  (1) 
-0.18218386764546712

$$$$
