
     RDKit          3D

 40 43  0  0  0  0  0  0  0  0999 V2000
    4.9163    1.7869   16.9914 H   0  0  0  0  0  0  0  0  0  0  0  0
    5.4006    1.2945   17.8321 C   0  0  0  0  0  0  0  0  0  0  0  0
    6.5658    0.6801   17.5731 N   0  0  0  0  0  0  0  0  0  0  0  0
    7.1786    0.0605   18.5952 C   0  0  0  0  0  0  0  0  0  0  0  0
    8.1232   -0.4194   18.3513 H   0  0  0  0  0  0  0  0  0  0  0  0
    6.6787   -0.0085   19.9289 C   0  0  0  0  0  0  0  0  0  0  0  0
    7.2838   -0.7289   20.9532 N   0  0  0  0  0  0  0  0  0  0  0  0
    7.2019   -0.3571   22.3811 C   0  0  0  0  0  0  0  0  0  0  0  0
    6.2738   -0.7404   22.8201 H   0  0  0  0  0  0  0  0  0  0  0  0
    7.2675    0.7277   22.5352 H   0  0  0  0  0  0  0  0  0  0  0  0
    8.4386   -1.0909   22.9546 C   0  0  2  0  0  0  0  0  0  0  0  0
    8.4092   -1.2623   24.0287 H   0  0  0  0  0  0  0  0  0  0  0  0
    9.7047   -0.4127   22.5191 N   0  0  0  0  0  0  0  0  0  0  0  0
    9.7776    1.0023   22.8364 N   0  0  0  0  0  0  0  0  0  0  0  0
   11.1275    1.5267   22.4891 C   0  0  0  0  0  0  0  0  0  0  0  0
   11.0836    2.6117   22.6318 H   0  0  0  0  0  0  0  0  0  0  0  0
   11.3297    1.3542   21.4258 H   0  0  0  0  0  0  0  0  0  0  0  0
   12.2431    0.9220   23.3557 C   0  0  0  0  0  0  0  0  0  0  0  0
   13.1952    1.3883   23.0823 H   0  0  0  0  0  0  0  0  0  0  0  0
   12.3027   -0.1523   23.1035 H   0  0  0  0  0  0  0  0  0  0  0  0
   11.9743    1.1687   24.7880 N   0  0  0  0  0  0  0  0  0  0  0  0
   12.6882    0.7020   25.3412 H   0  0  0  0  0  0  0  0  0  0  0  0
   10.6539    0.6217   25.1643 C   0  0  0  0  0  0  0  0  0  0  0  0
   10.4477    0.8621   26.2122 H   0  0  0  0  0  0  0  0  0  0  0  0
   10.5941   -0.4774   25.0532 H   0  0  0  0  0  0  0  0  0  0  0  0
    9.5557    1.2390   24.2849 C   0  0  0  0  0  0  0  0  0  0  0  0
    8.5686    0.8700   24.5806 H   0  0  0  0  0  0  0  0  0  0  0  0
    9.5381    2.3253   24.4174 H   0  0  0  0  0  0  0  0  0  0  0  0
    9.7573   -0.6495   21.0481 C   0  0  0  0  0  0  0  0  0  0  0  0
   10.6763   -1.1858   20.7639 H   0  0  0  0  0  0  0  0  0  0  0  0
    9.6720    0.2719   20.4590 H   0  0  0  0  0  0  0  0  0  0  0  0
    8.5142   -1.5132   20.8234 C   0  0  1  0  0  0  0  0  0  0  0  0
    8.5481   -2.0127   19.8864 H   0  0  0  0  0  0  0  0  0  0  0  0
    8.4693   -2.3513   22.0974 C   0  0  0  0  0  0  0  0  0  0  0  0
    7.5643   -2.9631   22.1742 H   0  0  0  0  0  0  0  0  0  0  0  0
    9.3485   -2.9795   22.2538 H   0  0  0  0  0  0  0  0  0  0  0  0
    5.4517    0.6496   20.1654 C   0  0  0  0  0  0  0  0  0  0  0  0
    5.0198    0.6270   21.1662 H   0  0  0  0  0  0  0  0  0  0  0  0
    4.8186    1.3041   19.1047 C   0  0  0  0  0  0  0  0  0  0  0  0
    3.8856    1.8337   19.2609 H   0  0  0  0  0  0  0  0  0  0  0  0
  1  2  1  0
  2  3  2  0
  3  4  1  0
  4  5  1  0
  4  6  2  0
  6  7  1  0
  7  8  1  0
  8  9  1  0
  8 10  1  0
  8 11  1  0
 11 12  1  1
 11 13  1  0
 13 14  1  0
 14 15  1  0
 15 16  1  0
 15 17  1  0
 15 18  1  0
 18 19  1  0
 18 20  1  0
 18 21  1  0
 21 22  1  0
 21 23  1  0
 23 24  1  0
 23 25  1  0
 23 26  1  0
 26 27  1  0
 26 28  1  0
 13 29  1  0
 29 30  1  0
 29 31  1  0
 29 32  1  0
 32 33  1  6
 32 34  1  0
 34 35  1  0
 34 36  1  0
  6 37  1  0
 37 38  1  0
 37 39  2  0
 39 40  1  0
 39  2  1  0
 32  7  1  0
 34 11  1  0
 26 14  1  0
M  END
>  <cnnaffinity>  (1) 
4.86544

>  <plip>  (1) 
-0.03571428571428571

>  <filename>  (1) 
[H][c]1[n][c]([H])[c]([N]2[C]([H])([H])[C@]3([H])[N]([N]4[C]([H])([H])[C]([H])([H])[N]([H])[C]([H])([H])[C]4([H])[H])[C]([H])([H])[C@@]2([H])[C]3([H])[H])[c]([H])[c]1[H]

>  <combo1>  (1) 
-0.22332886624191656

$$$$
