
     RDKit          3D

 27 28  0  0  0  0  0  0  0  0999 V2000
    8.7739   -5.1276   24.0775 N   0  0  0  0  0  0  0  0  0  0  0  0
    9.5185   -4.2700   23.8540 C   0  0  0  0  0  0  0  0  0  0  0  0
   10.4349   -3.1878   23.4702 C   0  0  0  0  0  0  0  0  0  0  0  0
   10.0166   -2.4635   22.1602 C   0  0  0  0  0  0  0  0  0  0  0  0
    9.0577   -1.2989   22.4161 C   0  0  0  0  0  0  0  0  0  0  0  0
    7.7345   -1.7845   22.7984 N   0  0  0  0  0  0  0  0  0  0  0  0
    6.8632   -1.6226   21.7460 C   0  0  0  0  0  0  0  0  0  0  0  0
    5.8223   -2.2174   21.6254 O   0  0  0  0  0  0  0  0  0  0  0  0
    7.4182   -0.6815   20.8585 N   0  0  0  0  0  0  0  0  0  0  0  0
    6.7030   -0.0162   19.8037 C   0  0  0  0  0  0  0  0  0  0  0  0
    5.4784    0.5872   20.1001 C   0  0  0  0  0  0  0  0  0  0  0  0
    4.8188    1.2789   19.0798 C   0  0  0  0  0  0  0  0  0  0  0  0
    5.3895    1.3089   17.8044 C   0  0  0  0  0  0  0  0  0  0  0  0
    6.5548    0.7131   17.5015 N   0  0  0  0  0  0  0  0  0  0  0  0
    7.2033    0.0750   18.4828 C   0  0  0  0  0  0  0  0  0  0  0  0
    8.1603   -0.3868   18.2331 H   0  0  0  0  0  0  0  0  0  0  0  0
    4.9006    1.8309   16.9862 H   0  0  0  0  0  0  0  0  0  0  0  0
    3.8892    1.8031   19.2618 H   0  0  0  0  0  0  0  0  0  0  0  0
    5.0762    0.5244   21.1105 H   0  0  0  0  0  0  0  0  0  0  0  0
    8.7590   -0.4749   21.1586 C   0  0  0  0  0  0  0  0  0  0  0  0
    9.5379    0.2084   20.5385 O   0  0  0  0  0  0  0  0  0  0  0  0
    7.6114   -2.6945   23.2323 H   0  0  0  0  0  0  0  0  0  0  0  0
    9.4944   -0.6088   23.1577 H   0  0  0  0  0  0  0  0  0  0  0  0
    9.5199   -3.1453   21.4540 H   0  0  0  0  0  0  0  0  0  0  0  0
   10.9131   -2.0830   21.6582 H   0  0  0  0  0  0  0  0  0  0  0  0
   11.4203   -3.6411   23.3381 H   0  0  0  0  0  0  0  0  0  0  0  0
   10.5059   -2.4854   24.3127 H   0  0  0  0  0  0  0  0  0  0  0  0
  1  2  3  0
  2  3  1  0
  3  4  1  0
  4  5  1  0
  5  6  1  0
  6  7  1  0
  7  8  2  0
  7  9  1  0
  9 10  1  0
 10 11  2  0
 11 12  1  0
 12 13  2  0
 13 14  1  0
 14 15  2  0
 15 16  1  0
 13 17  1  0
 12 18  1  0
 11 19  1  0
  9 20  1  0
 20 21  2  0
  6 22  1  0
  5 23  1  0
  4 24  1  0
  4 25  1  0
  3 26  1  0
  3 27  1  0
 20  5  1  0
 15 10  1  0
M  END
>  <cnnaffinity>  (1) 
4.70861

>  <plip>  (1) 
-0.07142857142857142

>  <filename>  (1) 
[H][c]1[n][c]([H])[c]([N]2[C](=[O])[N]([H])[C]([H])([C]([H])([H])[C]([H])([H])[C]#[N])[C]2=[O])[c]([H])[c]1[H]

>  <combo1>  (1) 
-0.4869531458289509

$$$$
