
     RDKit          3D

 37 38  0  0  0  0  0  0  0  0999 V2000
   14.2749    6.8517   22.1545 C   0  0  0  0  0  0  0  0  0  0  0  0
   13.5851    5.8937   21.3761 O   0  0  0  0  0  0  0  0  0  0  0  0
   13.2905    4.6846   21.9179 C   0  0  0  0  0  0  0  0  0  0  0  0
   13.7546    4.1700   23.1463 C   0  0  0  0  0  0  0  0  0  0  0  0
   13.3733    2.9801   23.6361 N   0  0  0  0  0  0  0  0  0  0  0  0
   12.5289    2.2345   22.9312 C   0  0  0  0  0  0  0  0  0  0  0  0
   12.0550    2.6275   21.6765 C   0  0  0  0  0  0  0  0  0  0  0  0
   11.2075    1.6833   20.9011 C   0  0  0  0  0  0  0  0  0  0  0  0
    9.8579    1.6993   21.3707 O   0  0  0  0  0  0  0  0  0  0  0  0
    9.1573    0.5268   20.9080 N   0  0  0  0  0  4  0  0  0  0  0  0
    8.0598    0.2113   21.6430 C   0  0  0  0  0  0  0  0  0  0  0  0
    7.9189    0.6183   22.8936 N   0  0  0  0  0  0  0  0  0  0  0  0
    8.4604    1.4459   23.1393 H   0  0  0  0  0  0  0  0  0  0  0  0
    7.0240    0.4955   23.3513 H   0  0  0  0  0  0  0  0  0  0  0  0
    7.0874   -0.7178   21.0051 C   0  0  0  0  0  0  0  0  0  0  0  0
    6.4032   -0.1218   19.7602 C   0  0  0  0  0  0  0  0  0  0  0  0
    5.3042    0.7346   19.8982 C   0  0  0  0  0  0  0  0  0  0  0  0
    4.8728    1.4735   18.7935 C   0  0  0  0  0  0  0  0  0  0  0  0
    5.5367    1.3133   17.5757 C   0  0  0  0  0  0  0  0  0  0  0  0
    6.5379    0.4382   17.3984 N   0  0  0  0  0  0  0  0  0  0  0  0
    6.9375   -0.2691   18.4646 C   0  0  0  0  0  0  0  0  0  0  0  0
    7.7383   -0.9874   18.2683 H   0  0  0  0  0  0  0  0  0  0  0  0
    5.2474    1.9112   16.7106 H   0  0  0  0  0  0  0  0  0  0  0  0
    4.0494    2.1762   18.8648 H   0  0  0  0  0  0  0  0  0  0  0  0
    4.7973    0.8342   20.8601 H   0  0  0  0  0  0  0  0  0  0  0  0
    7.6087   -1.6435   20.7151 H   0  0  0  0  0  0  0  0  0  0  0  0
    6.3352   -1.0039   21.7535 H   0  0  0  0  0  0  0  0  0  0  0  0
    8.8116    0.7117   19.9568 H   0  0  0  0  0  0  0  0  0  0  0  0
   11.6178    0.6648   20.9609 H   0  0  0  0  0  0  0  0  0  0  0  0
   11.2577    2.0394   19.8731 H   0  0  0  0  0  0  0  0  0  0  0  0
   12.4464    3.8636   21.1608 C   0  0  0  0  0  0  0  0  0  0  0  0
   12.1223    4.2203   20.1822 H   0  0  0  0  0  0  0  0  0  0  0  0
   12.2147    1.2884   23.3709 H   0  0  0  0  0  0  0  0  0  0  0  0
   14.4643    4.7316   23.7489 H   0  0  0  0  0  0  0  0  0  0  0  0
   15.2869    6.4980   22.3719 H   0  0  0  0  0  0  0  0  0  0  0  0
   13.7521    7.0645   23.0972 H   0  0  0  0  0  0  0  0  0  0  0  0
   14.3286    7.7539   21.5444 H   0  0  0  0  0  0  0  0  0  0  0  0
  1  2  1  0
  2  3  1  0
  3  4  2  0
  4  5  1  0
  5  6  2  0
  6  7  1  0
  7  8  1  0
  8  9  1  0
  9 10  1  0
 10 11  2  3
 11 12  1  0
 12 13  1  0
 12 14  1  0
 11 15  1  0
 15 16  1  0
 16 17  2  0
 17 18  1  0
 18 19  2  0
 19 20  1  0
 20 21  2  0
 21 22  1  0
 19 23  1  0
 18 24  1  0
 17 25  1  0
 15 26  1  0
 15 27  1  0
 10 28  1  0
  8 29  1  0
  8 30  1  0
  7 31  2  0
 31 32  1  0
  6 33  1  0
  4 34  1  0
  1 35  1  0
  1 36  1  0
  1 37  1  0
 31  3  1  0
 21 16  1  0
M  CHG  1  10   1
M  END
>  <cnnaffinity>  (1) 
4.88217

>  <plip>  (1) 
-0.12903225806451613

>  <filename>  (1) 
[H][c]1[n][c]([H])[c]([C]([H])([H])[C]([N]([H])[H])=[N+]([H])[O][C]([H])([H])[c]2[c]([H])[n][c]([H])[c]([O][C]([H])([H])[H])[c]2[H])[c]([H])[c]1[H]

>  <combo1>  (1) 
-0.7682894761068247

$$$$
