
     RDKit          3D

 31 33  0  0  0  0  0  0  0  0999 V2000
    7.8230    0.5924   22.9374 O   0  0  0  0  0  0  0  0  0  0  0  0
    8.1979    0.1984   21.8643 C   0  0  0  0  0  0  0  0  0  0  0  0
    7.4106   -0.7395   20.9456 C   0  0  0  0  0  0  0  0  0  0  0  0
    6.6767   -0.0219   19.8146 C   0  0  0  0  0  0  0  0  0  0  0  0
    5.4755    0.6526   20.0726 C   0  0  0  0  0  0  0  0  0  0  0  0
    4.8335    1.3236   19.0275 C   0  0  0  0  0  0  0  0  0  0  0  0
    5.4177    1.3004   17.7577 C   0  0  0  0  0  0  0  0  0  0  0  0
    6.5595    0.6545   17.4816 N   0  0  0  0  0  0  0  0  0  0  0  0
    7.1634    0.0175   18.4945 C   0  0  0  0  0  0  0  0  0  0  0  0
    8.0976   -0.4896   18.2500 H   0  0  0  0  0  0  0  0  0  0  0  0
    4.9480    1.8170   16.9215 H   0  0  0  0  0  0  0  0  0  0  0  0
    3.9085    1.8690   19.1802 H   0  0  0  0  0  0  0  0  0  0  0  0
    5.0568    0.6478   21.0806 H   0  0  0  0  0  0  0  0  0  0  0  0
    6.6914   -1.2490   21.5930 H   0  0  0  0  0  0  0  0  0  0  0  0
    8.0867   -1.5020   20.5453 H   0  0  0  0  0  0  0  0  0  0  0  0
    9.3982    0.5079   21.2991 O   0  0  0  0  0  0  0  0  0  0  0  0
   10.2074    1.5406   21.7804 C   0  0  0  0  0  0  0  0  0  0  0  0
   11.5948    1.2286   21.7814 C   0  0  0  0  0  0  0  0  0  0  0  0
   12.5114    2.1842   22.1614 C   0  0  0  0  0  0  0  0  0  0  0  0
   12.0984    3.5015   22.5030 C   0  0  0  0  0  0  0  0  0  0  0  0
   13.0594    4.4467   22.7239 N   0  0  0  0  0  0  0  0  0  0  0  0
   12.6300    5.6522   22.9884 C   0  0  0  0  0  0  0  0  0  0  0  0
   11.3327    6.0511   23.1046 N   0  0  0  0  0  0  0  0  0  0  0  0
   10.4131    5.1425   22.8671 C   0  0  0  0  0  0  0  0  0  0  0  0
   10.7072    3.7917   22.5246 C   0  0  0  0  0  0  0  0  0  0  0  0
    9.7511    2.7912   22.1218 C   0  0  0  0  0  0  0  0  0  0  0  0
    8.6867    3.0056   22.0777 H   0  0  0  0  0  0  0  0  0  0  0  0
    9.3753    5.4836   22.9282 H   0  0  0  0  0  0  0  0  0  0  0  0
   13.3802    6.4285   23.1377 H   0  0  0  0  0  0  0  0  0  0  0  0
   13.5769    2.0035   22.1969 H   0  0  0  0  0  0  0  0  0  0  0  0
   11.8912    0.2357   21.4629 H   0  0  0  0  0  0  0  0  0  0  0  0
  1  2  2  0
  2  3  1  0
  3  4  1  0
  4  5  2  0
  5  6  1  0
  6  7  2  0
  7  8  1  0
  8  9  2  0
  9 10  1  0
  7 11  1  0
  6 12  1  0
  5 13  1  0
  3 14  1  0
  3 15  1  0
  2 16  1  0
 16 17  1  0
 17 18  2  0
 18 19  1  0
 19 20  2  0
 20 21  1  0
 21 22  2  0
 22 23  1  0
 23 24  2  0
 24 25  1  0
 25 26  2  0
 26 27  1  0
 24 28  1  0
 22 29  1  0
 19 30  1  0
 18 31  1  0
  9  4  1  0
 26 17  1  0
 25 20  1  0
M  END
>  <cnnaffinity>  (1) 
4.86598

>  <plip>  (1) 
-0.10344827586206896

>  <filename>  (1) 
[H][c]1[n][c]([H])[c]2[c]([H])[c]([O][C](=[O])[C]([H])([H])[c]3[c]([H])[n][c]([H])[c]([H])[c]3[H])[c]([H])[c]([H])[c]2[n]1

>  <combo1>  (1) 
-0.6325296819607933

$$$$
