
     RDKit          3D

 39 42  0  0  0  0  0  0  0  0999 V2000
    8.2773    1.2338   22.2838 C   0  0  0  0  0  0  0  0  0  0  0  0
    7.5608   -0.0285   22.2388 N   0  0  0  0  0  0  0  0  0  0  0  0
    7.0021   -0.5821   23.3517 C   0  0  0  0  0  0  0  0  0  0  0  0
    6.9843   -0.0656   24.4465 O   0  0  0  0  0  0  0  0  0  0  0  0
    6.4858   -1.8399   23.0120 N   0  0  0  0  0  0  0  0  0  0  0  0
    5.7961   -2.7263   23.8974 C   0  0  0  0  0  0  0  0  0  0  0  0
    5.0626   -2.1847   24.9906 C   0  0  0  0  0  0  0  0  0  0  0  0
    4.1999   -2.9839   25.6986 C   0  0  0  0  0  0  0  0  0  0  0  0
    4.1143   -4.3864   25.4387 C   0  0  0  0  0  0  0  0  0  0  0  0
    3.2507   -5.2623   26.1658 C   0  0  0  0  0  0  0  0  0  0  0  0
    3.2892   -6.6234   25.9531 C   0  0  0  0  0  0  0  0  0  0  0  0
    4.1631   -7.1766   24.9725 C   0  0  0  0  0  0  0  0  0  0  0  0
    4.9605   -6.3509   24.2140 C   0  0  0  0  0  0  0  0  0  0  0  0
    4.9652   -4.9417   24.4298 C   0  0  0  0  0  0  0  0  0  0  0  0
    5.7824   -4.0766   23.6503 C   0  0  0  0  0  0  0  0  0  0  0  0
    6.3685   -4.4932   22.8443 H   0  0  0  0  0  0  0  0  0  0  0  0
    5.6192   -6.7551   23.4499 H   0  0  0  0  0  0  0  0  0  0  0  0
    4.1727   -8.2515   24.8107 H   0  0  0  0  0  0  0  0  0  0  0  0
    2.6498   -7.2911   26.5288 H   0  0  0  0  0  0  0  0  0  0  0  0
    2.5670   -4.8321   26.8944 H   0  0  0  0  0  0  0  0  0  0  0  0
    3.5800   -2.5502   26.4769 H   0  0  0  0  0  0  0  0  0  0  0  0
    5.1790   -1.1295   25.1941 H   0  0  0  0  0  0  0  0  0  0  0  0
    6.5409   -2.0239   21.6423 C   0  0  0  0  0  0  0  0  0  0  0  0
    6.1052   -2.9637   21.0286 O   0  0  0  0  0  0  0  0  0  0  0  0
    7.2986   -0.8192   21.0566 C   0  0  0  0  0  0  0  0  0  0  0  0
    6.5923   -0.0347   19.9581 C   0  0  0  0  0  0  0  0  0  0  0  0
    5.3759    0.6308   20.1592 C   0  0  0  0  0  0  0  0  0  0  0  0
    4.8054    1.3020   19.0753 C   0  0  0  0  0  0  0  0  0  0  0  0
    5.4727    1.2970   17.8451 C   0  0  0  0  0  0  0  0  0  0  0  0
    6.6428    0.6742   17.6396 N   0  0  0  0  0  0  0  0  0  0  0  0
    7.1781    0.0372   18.6866 C   0  0  0  0  0  0  0  0  0  0  0  0
    8.1340   -0.4593   18.5139 H   0  0  0  0  0  0  0  0  0  0  0  0
    5.0529    1.8196   16.9872 H   0  0  0  0  0  0  0  0  0  0  0  0
    3.8765    1.8527   19.1735 H   0  0  0  0  0  0  0  0  0  0  0  0
    4.8972    0.6503   21.1398 H   0  0  0  0  0  0  0  0  0  0  0  0
    8.2264   -1.2434   20.6496 H   0  0  0  0  0  0  0  0  0  0  0  0
    8.6669    1.4755   21.2911 H   0  0  0  0  0  0  0  0  0  0  0  0
    9.1115    1.1649   22.9886 H   0  0  0  0  0  0  0  0  0  0  0  0
    7.6297    2.0533   22.6150 H   0  0  0  0  0  0  0  0  0  0  0  0
  1  2  1  0
  2  3  1  0
  3  4  2  0
  3  5  1  0
  5  6  1  0
  6  7  2  0
  7  8  1  0
  8  9  2  0
  9 10  1  0
 10 11  2  0
 11 12  1  0
 12 13  2  0
 13 14  1  0
 14 15  2  0
 15 16  1  0
 13 17  1  0
 12 18  1  0
 11 19  1  0
 10 20  1  0
  8 21  1  0
  7 22  1  0
  5 23  1  0
 23 24  2  0
 23 25  1  0
 25 26  1  0
 26 27  2  0
 27 28  1  0
 28 29  2  0
 29 30  1  0
 30 31  2  0
 31 32  1  0
 29 33  1  0
 28 34  1  0
 27 35  1  0
 25 36  1  0
  1 37  1  0
  1 38  1  0
  1 39  1  0
 25  2  1  0
 31 26  1  0
 15  6  1  0
 14  9  1  0
M  END
>  <cnnaffinity>  (1) 
5.15886

>  <plip>  (1) 
-0.07142857142857142

>  <filename>  (1) 
[H][c]1[n][c]([H])[c]([C]2([H])[C](=[O])[N]([c]3[c]([H])[c]([H])[c]4[c]([H])[c]([H])[c]([H])[c]([H])[c]4[c]3[H])[C](=[O])[N]2[C]([H])([H])[H])[c]([H])[c]1[H]

>  <combo1>  (1) 
-0.38705143879904713

$$$$
