
     RDKit          3D

 31 33  0  0  0  0  0  0  0  0999 V2000
    4.7708    2.0741   16.9169 H   0  0  0  0  0  0  0  0  0  0  0  0
    5.0516    1.3438   17.6705 C   0  0  0  0  0  0  0  0  0  0  0  0
    5.8406    0.3450   17.2428 N   0  0  0  0  0  0  0  0  0  0  0  0
    6.2447   -0.5510   18.1465 C   0  0  0  0  0  0  0  0  0  0  0  0
    6.8586   -1.3807   17.7964 H   0  0  0  0  0  0  0  0  0  0  0  0
    5.9418   -0.4606   19.5203 C   0  0  0  0  0  0  0  0  0  0  0  0
    6.6563   -1.2627   20.4630 N   0  0  0  0  0  0  0  0  0  0  0  0
    6.1959   -2.1779   21.3738 C   0  0  0  0  0  0  0  0  0  0  0  0
    5.1467   -2.3563   21.5537 H   0  0  0  0  0  0  0  0  0  0  0  0
    7.1849   -2.7633   21.9886 N   0  0  0  0  0  0  0  0  0  0  0  0
    8.3482   -2.2021   21.5190 N   0  0  0  0  0  0  0  0  0  0  0  0
    8.0260   -1.2818   20.6500 C   0  0  0  0  0  0  0  0  0  0  0  0
    8.9936   -0.3398   19.9579 C   0  0  0  0  0  0  0  0  0  0  0  0
    8.4352    0.4156   19.4033 H   0  0  0  0  0  0  0  0  0  0  0  0
    9.5586   -0.8911   19.2051 H   0  0  0  0  0  0  0  0  0  0  0  0
    9.9289    0.3571   20.8360 N   0  0  0  0  0  0  0  0  0  0  0  0
   10.7065   -0.1617   21.1995 H   0  0  0  0  0  0  0  0  0  0  0  0
    9.6190    1.5222   21.4740 C   0  0  0  0  0  0  0  0  0  0  0  0
    8.5962    2.1386   21.2243 O   0  0  0  0  0  0  0  0  0  0  0  0
   10.6218    2.0139   22.4521 C   0  0  0  0  0  0  0  0  0  0  0  0
   10.4023    3.6520   22.9561 S   0  0  0  0  0  0  0  0  0  0  0  0
   11.7750    3.5742   23.9653 C   0  0  0  0  0  0  0  0  0  0  0  0
   12.1026    4.4634   24.4847 H   0  0  0  0  0  0  0  0  0  0  0  0
   12.3695    2.3430   23.9324 C   0  0  0  0  0  0  0  0  0  0  0  0
   13.2446    2.0648   24.5027 H   0  0  0  0  0  0  0  0  0  0  0  0
   11.7202    1.4421   23.0469 C   0  0  0  0  0  0  0  0  0  0  0  0
   12.1014    0.4373   22.8649 H   0  0  0  0  0  0  0  0  0  0  0  0
    5.0428    0.5223   19.9421 C   0  0  0  0  0  0  0  0  0  0  0  0
    4.7345    0.5729   20.9863 H   0  0  0  0  0  0  0  0  0  0  0  0
    4.6004    1.4507   18.9913 C   0  0  0  0  0  0  0  0  0  0  0  0
    3.9299    2.2571   19.2665 H   0  0  0  0  0  0  0  0  0  0  0  0
  1  2  1  0
  2  3  2  0
  3  4  1  0
  4  5  1  0
  4  6  2  0
  6  7  1  0
  7  8  1  0
  8  9  1  0
  8 10  2  0
 10 11  1  0
 11 12  2  0
 12 13  1  0
 13 14  1  0
 13 15  1  0
 13 16  1  0
 16 17  1  0
 16 18  1  0
 18 19  2  0
 18 20  1  0
 20 21  1  0
 21 22  1  0
 22 23  1  0
 22 24  2  0
 24 25  1  0
 24 26  1  0
 26 27  1  0
  6 28  1  0
 28 29  1  0
 28 30  2  0
 30 31  1  0
 30  2  1  0
 12  7  1  0
 26 20  2  0
M  END
>  <cnnaffinity>  (1) 
5.13096

>  <plip>  (1) 
-0.10344827586206896

>  <filename>  (1) 
[H][c]1[n][c]([H])[c](-[n]2[c]([H])[n][n][c]2[C]([H])([H])[N]([H])[C](=[O])[c]2[s][c]([H])[c]([H])[c]2[H])[c]([H])[c]1[H]

>  <combo1>  (1) 
-0.620083464779323

$$$$
