
     RDKit          3D

 39 40  0  0  0  0  0  0  0  0999 V2000
   12.1498    2.8135   21.6671 N   0  0  0  0  0  4  0  0  0  0  0  0
   10.9321    2.1105   21.1337 C   0  0  0  0  0  0  0  0  0  0  0  0
    9.9427    1.9005   22.2837 C   0  0  0  0  0  0  0  0  0  0  0  0
    8.5446    1.4696   21.8583 C   0  0  0  0  0  0  0  0  0  0  0  0
    8.5746    0.0701   21.3999 N   0  0  0  0  0  4  0  0  0  0  0  0
    7.2636   -0.5930   21.1560 C   0  0  0  0  0  0  0  0  0  0  0  0
    6.5826    0.0970   19.9876 C   0  0  0  0  0  0  0  0  0  0  0  0
    5.3518    0.7450   20.1463 C   0  0  0  0  0  0  0  0  0  0  0  0
    4.7702    1.3762   19.0444 C   0  0  0  0  0  0  0  0  0  0  0  0
    5.4444    1.3491   17.8215 C   0  0  0  0  0  0  0  0  0  0  0  0
    6.6200    0.7311   17.6479 N   0  0  0  0  0  0  0  0  0  0  0  0
    7.1667    0.1246   18.7105 C   0  0  0  0  0  0  0  0  0  0  0  0
    8.1067   -0.3869   18.4969 H   0  0  0  0  0  0  0  0  0  0  0  0
    5.0208    1.8398   16.9435 H   0  0  0  0  0  0  0  0  0  0  0  0
    3.8223    1.8968   19.1210 H   0  0  0  0  0  0  0  0  0  0  0  0
    4.8665    0.7681   21.1261 H   0  0  0  0  0  0  0  0  0  0  0  0
    7.5645   -2.0609   20.8957 C   0  0  0  0  0  0  0  0  0  0  0  0
    6.3468   -2.9596   20.5407 C   0  0  0  0  0  0  0  0  0  0  0  0
    6.6681   -3.8922   21.7281 C   0  0  0  0  0  0  0  0  0  0  0  0
    7.9267   -3.0526   22.0486 C   0  0  0  0  0  0  0  0  0  0  0  0
    7.9820   -2.6577   23.0693 H   0  0  0  0  0  0  0  0  0  0  0  0
    8.8636   -3.5790   21.8401 H   0  0  0  0  0  0  0  0  0  0  0  0
    5.9072   -3.8678   22.5156 H   0  0  0  0  0  0  0  0  0  0  0  0
    6.8362   -4.9412   21.4743 H   0  0  0  0  0  0  0  0  0  0  0  0
    5.3869   -2.4491   20.6402 H   0  0  0  0  0  0  0  0  0  0  0  0
    6.3660   -3.4085   19.5438 H   0  0  0  0  0  0  0  0  0  0  0  0
    8.3712   -2.0426   20.1609 H   0  0  0  0  0  0  0  0  0  0  0  0
    6.6133   -0.5026   22.0351 H   0  0  0  0  0  0  0  0  0  0  0  0
    9.1155   -0.5301   22.0586 H   0  0  0  0  0  0  0  0  0  0  0  0
    9.0349    0.0408   20.4641 H   0  0  0  0  0  0  0  0  0  0  0  0
    8.1500    2.1186   21.0592 H   0  0  0  0  0  0  0  0  0  0  0  0
    7.8417    1.5751   22.7003 H   0  0  0  0  0  0  0  0  0  0  0  0
   10.3390    1.1554   22.9910 H   0  0  0  0  0  0  0  0  0  0  0  0
    9.8499    2.8451   22.8324 H   0  0  0  0  0  0  0  0  0  0  0  0
   10.4702    2.7291   20.3585 H   0  0  0  0  0  0  0  0  0  0  0  0
   11.2352    1.1638   20.6754 H   0  0  0  0  0  0  0  0  0  0  0  0
   11.8628    3.7485   22.0173 H   0  0  0  0  0  0  0  0  0  0  0  0
   12.5463    2.2781   22.4617 H   0  0  0  0  0  0  0  0  0  0  0  0
   12.8885    2.9474   20.9582 H   0  0  0  0  0  0  0  0  0  0  0  0
  1  2  1  0
  2  3  1  0
  3  4  1  0
  4  5  1  0
  5  6  1  0
  6  7  1  0
  7  8  2  0
  8  9  1  0
  9 10  2  0
 10 11  1  0
 11 12  2  0
 12 13  1  0
 10 14  1  0
  9 15  1  0
  8 16  1  0
  6 17  1  0
 17 18  1  0
 18 19  1  0
 19 20  1  0
 20 21  1  0
 20 22  1  0
 19 23  1  0
 19 24  1  0
 18 25  1  0
 18 26  1  0
 17 27  1  0
  6 28  1  0
  5 29  1  0
  5 30  1  0
  4 31  1  0
  4 32  1  0
  3 33  1  0
  3 34  1  0
  2 35  1  0
  2 36  1  0
  1 37  1  0
  1 38  1  0
  1 39  1  0
 12  7  1  0
 20 17  1  0
M  CHG  2   1   1   5   1
M  END
>  <cnnaffinity>  (1) 
4.2511

>  <plip>  (1) 
-0.10714285714285714

>  <filename>  (1) 
[H][c]1[n][c]([H])[c]([C]([H])([C]2([H])[C]([H])([H])[C]([H])([H])[C]2([H])[H])[N+]([H])([H])[C]([H])([H])[C]([H])([H])[C]([H])([H])[N+]([H])([H])[H])[c]([H])[c]1[H]

>  <combo1>  (1) 
-0.6859108733758602

$$$$
