
     RDKit          3D

 39 42  0  0  0  0  0  0  0  0999 V2000
    5.0622    1.7823   17.0251 H   0  0  0  0  0  0  0  0  0  0  0  0
    5.4831    1.2697   17.8865 C   0  0  0  0  0  0  0  0  0  0  0  0
    6.6359    0.6163   17.6739 N   0  0  0  0  0  0  0  0  0  0  0  0
    7.1803   -0.0157   18.7154 C   0  0  0  0  0  0  0  0  0  0  0  0
    8.1146   -0.5469   18.5350 H   0  0  0  0  0  0  0  0  0  0  0  0
    6.6278   -0.0103   19.9969 C   0  0  0  0  0  0  0  0  0  0  0  0
    7.4286   -0.7456   21.0007 C   0  0  0  0  0  0  0  0  0  0  0  0
    8.1251   -1.7025   20.7131 O   0  0  0  0  0  0  0  0  0  0  0  0
    7.3839   -0.2252   22.2571 N   0  0  0  0  0  0  0  0  0  0  0  0
    6.6294    0.4195   22.4130 H   0  0  0  0  0  0  0  0  0  0  0  0
    7.8064   -0.9948   23.3892 C   0  0  0  0  0  0  0  0  0  0  0  0
    6.7882   -1.9397   23.9774 C   0  0  1  0  0  0  0  0  0  0  0  0
    6.4087   -1.6083   24.9459 H   0  0  0  0  0  0  0  0  0  0  0  0
    5.7966   -2.7485   23.1676 C   0  0  0  0  0  0  0  0  0  0  0  0
    5.7784   -2.6422   22.0823 H   0  0  0  0  0  0  0  0  0  0  0  0
    4.8233   -2.9324   23.6226 H   0  0  0  0  0  0  0  0  0  0  0  0
    6.9708   -3.4271   23.8015 C   0  0  2  0  0  0  0  0  0  0  0  0
    7.7487   -3.7004   23.0878 H   0  0  0  0  0  0  0  0  0  0  0  0
    6.8428   -4.3476   24.9647 C   0  0  0  0  0  0  0  0  0  0  0  0
    7.7503   -5.4074   25.0748 C   0  0  0  0  0  0  0  0  0  0  0  0
    8.5169   -5.5291   24.3126 H   0  0  0  0  0  0  0  0  0  0  0  0
    7.6779   -6.3118   26.1322 C   0  0  0  0  0  0  0  0  0  0  0  0
    8.4350   -7.0868   26.2101 H   0  0  0  0  0  0  0  0  0  0  0  0
    6.6445   -6.2041   27.0709 C   0  0  0  0  0  0  0  0  0  0  0  0
    6.5638   -6.9343   27.8714 H   0  0  0  0  0  0  0  0  0  0  0  0
    5.7334   -5.1434   26.9756 C   0  0  0  0  0  0  0  0  0  0  0  0
    4.9274   -5.0513   27.7009 H   0  0  0  0  0  0  0  0  0  0  0  0
    5.8480   -4.2011   25.9496 C   0  0  0  0  0  0  0  0  0  0  0  0
    5.1578   -3.3579   25.9207 H   0  0  0  0  0  0  0  0  0  0  0  0
    8.7411   -0.2684   24.3158 C   0  0  0  0  0  0  0  0  0  0  0  0
    9.0243    0.7427   24.0310 H   0  0  0  0  0  0  0  0  0  0  0  0
    8.6419   -0.4393   25.3839 H   0  0  0  0  0  0  0  0  0  0  0  0
    9.2613   -1.3659   23.4336 C   0  0  0  0  0  0  0  0  0  0  0  0
    9.8582   -1.0692   22.5786 H   0  0  0  0  0  0  0  0  0  0  0  0
    9.5322   -2.3181   23.8833 H   0  0  0  0  0  0  0  0  0  0  0  0
    5.4149    0.6668   20.2126 C   0  0  0  0  0  0  0  0  0  0  0  0
    4.9325    0.6933   21.1960 H   0  0  0  0  0  0  0  0  0  0  0  0
    4.8289    1.3092   19.1240 C   0  0  0  0  0  0  0  0  0  0  0  0
    3.9022    1.8650   19.2285 H   0  0  0  0  0  0  0  0  0  0  0  0
  1  2  1  0
  2  3  2  0
  3  4  1  0
  4  5  1  0
  4  6  2  0
  6  7  1  0
  7  8  2  0
  7  9  1  0
  9 10  1  0
  9 11  1  0
 11 12  1  0
 12 13  1  1
 12 14  1  0
 14 15  1  0
 14 16  1  0
 14 17  1  0
 17 18  1  6
 17 19  1  0
 19 20  2  0
 20 21  1  0
 20 22  1  0
 22 23  1  0
 22 24  2  0
 24 25  1  0
 24 26  1  0
 26 27  1  0
 26 28  2  0
 28 29  1  0
 11 30  1  0
 30 31  1  0
 30 32  1  0
 30 33  1  0
 33 34  1  0
 33 35  1  0
  6 36  1  0
 36 37  1  0
 36 38  2  0
 38 39  1  0
 38  2  1  0
 33 11  1  0
 17 12  1  0
 28 19  1  0
M  END
>  <cnnaffinity>  (1) 
5.1148

>  <plip>  (1) 
-0.1

>  <filename>  (1) 
[H][c]1[n][c]([H])[c]([C](=[O])[N]([H])[C]2([C@@]3([H])[C]([H])([H])[C@]3([H])[c]3[c]([H])[c]([H])[c]([H])[c]([H])[c]3[H])[C]([H])([H])[C]2([H])[H])[c]([H])[c]1[H]

>  <combo1>  (1) 
-0.6125032183123469

$$$$
