
     RDKit          3D

 38 40  0  0  0  0  0  0  0  0999 V2000
    5.6487   -6.2018   27.1729 C   0  0  0  0  0  0  0  0  0  0  0  0
    5.0762   -5.6645   25.8857 C   0  0  0  0  0  0  0  0  0  0  0  0
    4.2152   -6.4275   25.0789 C   0  0  0  0  0  0  0  0  0  0  0  0
    3.7462   -5.9481   23.8381 C   0  0  0  0  0  0  0  0  0  0  0  0
    4.1319   -4.6971   23.3440 C   0  0  0  0  0  0  0  0  0  0  0  0
    4.9691   -3.9513   24.1666 C   0  0  0  0  0  0  0  0  0  0  0  0
    5.4010   -4.3675   25.4238 C   0  0  0  0  0  0  0  0  0  0  0  0
    6.1298   -3.3231   26.0119 N   0  0  0  0  0  0  0  0  0  0  0  0
    6.1046   -2.3874   25.1232 C   0  0  0  0  0  0  0  0  0  0  0  0
    6.6887   -1.0312   25.2538 C   0  0  0  0  0  0  0  0  0  0  0  0
    8.0667   -0.8912   24.5944 C   0  0  0  0  0  0  0  0  0  0  0  0
    8.0088   -1.1347   23.1562 N   0  0  0  0  0  0  0  0  0  0  0  0
    7.2817   -0.2440   22.3740 C   0  0  0  0  0  0  0  0  0  0  0  0
    6.7485    0.7706   22.7719 O   0  0  0  0  0  0  0  0  0  0  0  0
    7.2725   -0.6855   21.0627 N   0  0  0  0  0  0  0  0  0  0  0  0
    6.6526   -0.0170   19.9737 C   0  0  0  0  0  0  0  0  0  0  0  0
    5.4488    0.6750   20.1684 C   0  0  0  0  0  0  0  0  0  0  0  0
    4.8539    1.3032   19.0700 C   0  0  0  0  0  0  0  0  0  0  0  0
    5.4860    1.2367   17.8221 C   0  0  0  0  0  0  0  0  0  0  0  0
    6.6305    0.5655   17.6129 N   0  0  0  0  0  0  0  0  0  0  0  0
    7.1897   -0.0509   18.6637 C   0  0  0  0  0  0  0  0  0  0  0  0
    8.1162   -0.5906   18.4663 H   0  0  0  0  0  0  0  0  0  0  0  0
    5.0542    1.7282   16.9544 H   0  0  0  0  0  0  0  0  0  0  0  0
    3.9239    1.8538   19.1809 H   0  0  0  0  0  0  0  0  0  0  0  0
    5.0227    0.7133   21.1700 H   0  0  0  0  0  0  0  0  0  0  0  0
    8.0029   -1.3532   20.8874 H   0  0  0  0  0  0  0  0  0  0  0  0
    7.6567   -2.0538   22.9267 H   0  0  0  0  0  0  0  0  0  0  0  0
    8.7960   -1.5887   25.0284 H   0  0  0  0  0  0  0  0  0  0  0  0
    8.4435    0.1248   24.7718 H   0  0  0  0  0  0  0  0  0  0  0  0
    6.0348   -0.3096   24.7645 H   0  0  0  0  0  0  0  0  0  0  0  0
    6.7376   -0.7898   26.3164 H   0  0  0  0  0  0  0  0  0  0  0  0
    5.4909   -2.7058   23.9479 O   0  0  0  0  0  0  0  0  0  0  0  0
    3.8094   -4.3141   22.3831 H   0  0  0  0  0  0  0  0  0  0  0  0
    3.0752   -6.5675   23.2487 H   0  0  0  0  0  0  0  0  0  0  0  0
    3.9126   -7.4164   25.4255 H   0  0  0  0  0  0  0  0  0  0  0  0
    5.6114   -7.2968   27.2019 H   0  0  0  0  0  0  0  0  0  0  0  0
    5.1117   -5.8245   28.0505 H   0  0  0  0  0  0  0  0  0  0  0  0
    6.6907   -5.8863   27.2903 H   0  0  0  0  0  0  0  0  0  0  0  0
  1  2  1  0
  2  3  2  0
  3  4  1  0
  4  5  2  0
  5  6  1  0
  6  7  2  0
  7  8  1  0
  8  9  2  0
  9 10  1  0
 10 11  1  0
 11 12  1  0
 12 13  1  0
 13 14  2  0
 13 15  1  0
 15 16  1  0
 16 17  2  0
 17 18  1  0
 18 19  2  0
 19 20  1  0
 20 21  2  0
 21 22  1  0
 19 23  1  0
 18 24  1  0
 17 25  1  0
 15 26  1  0
 12 27  1  0
 11 28  1  0
 11 29  1  0
 10 30  1  0
 10 31  1  0
  9 32  1  0
  5 33  1  0
  4 34  1  0
  3 35  1  0
  1 36  1  0
  1 37  1  0
  1 38  1  0
  7  2  1  0
 21 16  1  0
 32  6  1  0
M  END
>  <cnnaffinity>  (1) 
5.1714

>  <plip>  (1) 
-0.034482758620689655

>  <filename>  (1) 
[H][c]1[n][c]([H])[c]([N]([H])[C](=[O])[N]([H])[C]([H])([H])[C]([H])([H])[c]2[n][c]3[c]([C]([H])([H])[H])[c]([H])[c]([H])[c]([H])[c]3[o]2)[c]([H])[c]1[H]

>  <combo1>  (1) 
-0.20059183785085843

$$$$
