
     RDKit          3D

 36 38  0  0  0  0  0  0  0  0999 V2000
    2.2965   -5.0767   22.1526 H   0  0  0  0  0  0  0  0  0  0  0  0
    3.3317   -5.1502   22.4842 C   0  0  0  0  0  0  0  0  0  0  0  0
    4.1103   -4.1186   22.1617 N   0  0  0  0  0  0  0  0  0  0  0  0
    5.3923   -4.1339   22.5759 C   0  0  0  0  0  0  0  0  0  0  0  0
    6.1655   -3.0007   22.1309 C   0  0  0  0  0  0  0  0  0  0  0  0
    6.6440   -1.9981   21.6587 C   0  0  0  0  0  0  0  0  0  0  0  0
    7.3815   -0.8040   21.2085 C   0  0  0  0  0  0  0  0  0  0  0  0
    6.6621   -0.1199   20.0162 C   0  0  0  0  0  0  0  0  0  0  0  0
    7.2039   -0.0912   18.7199 C   0  0  0  0  0  0  0  0  0  0  0  0
    8.1365   -0.6065   18.5066 H   0  0  0  0  0  0  0  0  0  0  0  0
    6.6825    0.5718   17.6760 N   0  0  0  0  0  0  0  0  0  0  0  0
    5.5452    1.2451   17.8823 C   0  0  0  0  0  0  0  0  0  0  0  0
    5.1568    1.8036   17.0313 H   0  0  0  0  0  0  0  0  0  0  0  0
    4.8842    1.2526   19.1147 C   0  0  0  0  0  0  0  0  0  0  0  0
    3.9681    1.8225   19.2187 H   0  0  0  0  0  0  0  0  0  0  0  0
    5.4358    0.5485   20.1893 C   0  0  0  0  0  0  0  0  0  0  0  0
    4.9140    0.5318   21.1497 H   0  0  0  0  0  0  0  0  0  0  0  0
    7.4860    0.1741   22.4228 C   0  0  0  0  0  0  0  0  0  0  0  0
    7.7967   -0.3867   23.3109 H   0  0  0  0  0  0  0  0  0  0  0  0
    6.5086    0.6122   22.6424 H   0  0  0  0  0  0  0  0  0  0  0  0
    8.5124    1.2651   22.1378 C   0  0  0  0  0  0  0  0  0  0  0  0
    8.1830    1.8732   21.2762 H   0  0  0  0  0  0  0  0  0  0  0  0
    8.6366    1.9308   22.9977 H   0  0  0  0  0  0  0  0  0  0  0  0
    9.7909    0.7067   21.8866 O   0  0  0  0  0  0  0  0  0  0  0  0
    9.8122   -0.1341   20.7491 C   0  0  0  0  0  0  0  0  0  0  0  0
   10.8392   -0.5037   20.6533 H   0  0  0  0  0  0  0  0  0  0  0  0
    9.5848    0.4712   19.8592 H   0  0  0  0  0  0  0  0  0  0  0  0
    8.8276   -1.2910   20.8881 C   0  0  0  0  0  0  0  0  0  0  0  0
    8.8353   -1.9113   19.9935 H   0  0  0  0  0  0  0  0  0  0  0  0
    9.1627   -1.9291   21.7133 H   0  0  0  0  0  0  0  0  0  0  0  0
    5.9301   -5.1957   23.3286 C   0  0  0  0  0  0  0  0  0  0  0  0
    6.9762   -5.1775   23.6158 H   0  0  0  0  0  0  0  0  0  0  0  0
    5.1003   -6.2716   23.6574 C   0  0  0  0  0  0  0  0  0  0  0  0
    5.4515   -7.0875   24.2891 H   0  0  0  0  0  0  0  0  0  0  0  0
    3.7713   -6.2515   23.2231 C   0  0  0  0  0  0  0  0  0  0  0  0
    3.0761   -7.0533   23.4481 H   0  0  0  0  0  0  0  0  0  0  0  0
  1  2  1  0
  2  3  2  0
  3  4  1  0
  4  5  1  0
  5  6  3  0
  6  7  1  0
  7  8  1  0
  8  9  2  0
  9 10  1  0
  9 11  1  0
 11 12  2  0
 12 13  1  0
 12 14  1  0
 14 15  1  0
 14 16  2  0
 16 17  1  0
  7 18  1  0
 18 19  1  0
 18 20  1  0
 18 21  1  0
 21 22  1  0
 21 23  1  0
 21 24  1  0
 24 25  1  0
 25 26  1  0
 25 27  1  0
 25 28  1  0
 28 29  1  0
 28 30  1  0
  4 31  2  0
 31 32  1  0
 31 33  1  0
 33 34  1  0
 33 35  2  0
 35 36  1  0
 35  2  1  0
 28  7  1  0
 16  8  1  0
M  END
>  <cnnaffinity>  (1) 
5.13097

>  <plip>  (1) 
-0.14285714285714285

>  <filename>  (1) 
[H][c]1[n][c]([C]#[C][C]2([c]3[c]([H])[n][c]([H])[c]([H])[c]3[H])[C]([H])([H])[C]([H])([H])[O][C]([H])([H])[C]2([H])[H])[c]([H])[c]([H])[c]1[H]

>  <combo1>  (1) 
-0.9243512029066336

$$$$
