
     RDKit          3D

 24 24  0  0  0  0  0  0  0  0999 V2000
    4.9431    1.8356   16.9443 H   0  0  0  0  0  0  0  0  0  0  0  0
    5.3955    1.3217   17.7883 C   0  0  0  0  0  0  0  0  0  0  0  0
    6.5517    0.6824   17.5413 N   0  0  0  0  0  0  0  0  0  0  0  0
    7.1461    0.0616   18.5643 C   0  0  0  0  0  0  0  0  0  0  0  0
    8.0773   -0.4609   18.3612 H   0  0  0  0  0  0  0  0  0  0  0  0
    6.6228    0.0489   19.8734 C   0  0  0  0  0  0  0  0  0  0  0  0
    7.2192   -0.5860   21.0045 N   0  0  0  0  0  0  0  0  0  0  0  0
    8.4055   -0.9362   20.8455 N   0  0  0  0  0  0  0  0  0  0  0  0
    8.9686   -1.6130   22.0333 C   0  0  0  0  0  0  0  0  0  0  0  0
    9.0579   -0.9010   22.8642 H   0  0  0  0  0  0  0  0  0  0  0  0
    8.2818   -2.4118   22.3367 H   0  0  0  0  0  0  0  0  0  0  0  0
   10.3282   -2.1938   21.6637 C   0  0  0  0  0  0  0  0  0  0  0  0
   10.2028   -2.6920   20.6987 H   0  0  0  0  0  0  0  0  0  0  0  0
   10.6399   -2.9632   22.3786 H   0  0  0  0  0  0  0  0  0  0  0  0
   11.4377   -1.1575   21.5301 C   0  0  0  0  0  0  0  0  0  0  0  0
   11.0767   -0.3375   20.8993 H   0  0  0  0  0  0  0  0  0  0  0  0
   11.6677   -0.7119   22.5083 H   0  0  0  0  0  0  0  0  0  0  0  0
   12.6494   -1.7012   20.9272 N   0  0  0  0  0  0  0  0  0  0  0  0
   12.3822   -2.0262   19.9994 H   0  0  0  0  0  0  0  0  0  0  0  0
   12.9432   -2.5477   21.4231 H   0  0  0  0  0  0  0  0  0  0  0  0
    5.4010    0.6881   20.1111 C   0  0  0  0  0  0  0  0  0  0  0  0
    4.9762    0.6651   21.1152 H   0  0  0  0  0  0  0  0  0  0  0  0
    4.7796    1.3412   19.0471 C   0  0  0  0  0  0  0  0  0  0  0  0
    3.8416    1.8693   19.1782 H   0  0  0  0  0  0  0  0  0  0  0  0
  1  2  1  0
  2  3  2  0
  3  4  1  0
  4  5  1  0
  4  6  2  0
  6  7  1  0
  7  8  2  3
  8  9  1  0
  9 10  1  0
  9 11  1  0
  9 12  1  0
 12 13  1  0
 12 14  1  0
 12 15  1  0
 15 16  1  0
 15 17  1  0
 15 18  1  0
 18 19  1  0
 18 20  1  0
  6 21  1  0
 21 22  1  0
 21 23  2  0
 23 24  1  0
 23  2  1  0
M  END
>  <cnnaffinity>  (1) 
4.28033

>  <plip>  (1) 
-0.06896551724137931

>  <filename>  (1) 
[H][c]1[n][c]([H])[c]([N]=[N][C]([H])([H])[C]([H])([H])[C]([H])([H])[N]([H])[H])[c]([H])[c]1[H]

>  <combo1>  (1) 
-0.5992155920675573

$$$$
