
     RDKit          3D

 37 38  0  0  0  0  0  0  0  0999 V2000
   11.0086   -5.1721   26.0507 C   0  0  0  0  0  0  0  0  0  0  0  0
    9.8657   -4.2612   25.7703 C   0  0  0  0  0  0  0  0  0  0  0  0
    8.8236   -4.5444   24.9922 C   0  0  0  0  0  0  0  0  0  0  0  0
    7.7887   -3.5457   24.7864 C   0  0  0  0  0  0  0  0  0  0  0  0
    6.7225   -3.7844   24.0243 C   0  0  0  0  0  0  0  0  0  0  0  0
    5.7289   -2.7326   23.6624 C   0  0  0  0  0  0  0  0  0  0  0  0
    6.3472   -1.7619   22.7636 N   0  0  0  0  0  0  0  0  0  0  0  0
    6.5753   -1.9761   21.4314 C   0  0  0  0  0  0  0  0  0  0  0  0
    6.2399   -2.9559   20.8084 O   0  0  0  0  0  0  0  0  0  0  0  0
    7.3736   -0.7564   20.9225 C   0  0  0  0  0  0  0  0  0  0  0  0
    6.6493    0.0508   19.8489 C   0  0  0  0  0  0  0  0  0  0  0  0
    5.4241    0.6904   20.0863 C   0  0  0  0  0  0  0  0  0  0  0  0
    4.8075    1.3423   19.0154 C   0  0  0  0  0  0  0  0  0  0  0  0
    5.4313    1.3477   17.7621 C   0  0  0  0  0  0  0  0  0  0  0  0
    6.6054    0.7461   17.5210 N   0  0  0  0  0  0  0  0  0  0  0  0
    7.1842    0.1228   18.5536 C   0  0  0  0  0  0  0  0  0  0  0  0
    8.1308   -0.3701   18.3375 H   0  0  0  0  0  0  0  0  0  0  0  0
    4.9686    1.8555   16.9165 H   0  0  0  0  0  0  0  0  0  0  0  0
    3.8602    1.8532   19.1354 H   0  0  0  0  0  0  0  0  0  0  0  0
    4.9714    0.7036   21.0826 H   0  0  0  0  0  0  0  0  0  0  0  0
    7.6088   -0.0298   22.1576 N   0  0  0  0  0  0  0  0  0  0  0  0
    8.3007    1.2350   22.2935 C   0  0  0  0  0  0  0  0  0  0  0  0
    8.7231    1.5261   21.3283 H   0  0  0  0  0  0  0  0  0  0  0  0
    7.6121    2.0147   22.6381 H   0  0  0  0  0  0  0  0  0  0  0  0
    9.1121    1.1452   23.0233 H   0  0  0  0  0  0  0  0  0  0  0  0
    7.0319   -0.6475   23.2257 C   0  0  0  0  0  0  0  0  0  0  0  0
    7.0949   -0.3007   24.3866 O   0  0  0  0  0  0  0  0  0  0  0  0
    8.3231   -1.1321   20.5049 H   0  0  0  0  0  0  0  0  0  0  0  0
    5.3844   -2.1827   24.5467 H   0  0  0  0  0  0  0  0  0  0  0  0
    4.8484   -3.1602   23.1780 H   0  0  0  0  0  0  0  0  0  0  0  0
    6.6126   -4.7488   23.5306 H   0  0  0  0  0  0  0  0  0  0  0  0
    7.9757   -2.5606   25.2384 H   0  0  0  0  0  0  0  0  0  0  0  0
    8.7065   -5.5040   24.4745 H   0  0  0  0  0  0  0  0  0  0  0  0
    9.8644   -3.2757   26.2400 H   0  0  0  0  0  0  0  0  0  0  0  0
   11.6182   -5.3532   25.1579 H   0  0  0  0  0  0  0  0  0  0  0  0
   11.6518   -4.7374   26.8132 H   0  0  0  0  0  0  0  0  0  0  0  0
   10.6700   -6.1490   26.4137 H   0  0  0  0  0  0  0  0  0  0  0  0
  1  2  1  0
  2  3  2  3
  3  4  1  0
  4  5  2  3
  5  6  1  0
  6  7  1  0
  7  8  1  0
  8  9  2  0
  8 10  1  0
 10 11  1  0
 11 12  2  0
 12 13  1  0
 13 14  2  0
 14 15  1  0
 15 16  2  0
 16 17  1  0
 14 18  1  0
 13 19  1  0
 12 20  1  0
 10 21  1  0
 21 22  1  0
 22 23  1  0
 22 24  1  0
 22 25  1  0
 21 26  1  0
 26 27  2  0
 10 28  1  0
  6 29  1  0
  6 30  1  0
  5 31  1  0
  4 32  1  0
  3 33  1  0
  2 34  1  0
  1 35  1  0
  1 36  1  0
  1 37  1  0
 26  7  1  0
 16 11  1  0
M  END
>  <cnnaffinity>  (1) 
4.76328

>  <plip>  (1) 
-0.10714285714285714

>  <filename>  (1) 
[H][C]([C]([H])=[C]([H])[C]([H])([H])[N]1[C](=[O])[N]([C]([H])([H])[H])[C]([H])([c]2[c]([H])[n][c]([H])[c]([H])[c]2[H])[C]1=[O])=[C]([H])[C]([H])([H])[H]

>  <combo1>  (1) 
-0.6269981676881282

$$$$
