
     RDKit          3D

 29 31  0  0  0  0  0  0  0  0999 V2000
    4.8151    1.2887   19.1113 C   0  0  0  0  0  0  0  0  0  0  0  0
    5.3851    1.2938   17.8337 C   0  0  0  0  0  0  0  0  0  0  0  0
    6.5470    0.6774   17.5532 N   0  0  0  0  0  0  0  0  0  0  0  0
    7.1727    0.0538   18.5581 C   0  0  0  0  0  0  0  0  0  0  0  0
    6.6760   -0.0407   19.8885 C   0  0  0  0  0  0  0  0  0  0  0  0
    7.3682   -0.7759   20.8872 N   0  0  0  0  0  0  0  0  0  0  0  0
    8.7263   -0.6732   21.0931 C   0  0  0  0  0  0  0  0  0  0  0  0
    9.5670    0.1436   20.5188 N   0  0  0  0  0  0  0  0  0  0  0  0
   10.8164   -0.1355   21.0334 N   0  0  0  0  0  0  0  0  0  0  0  0
   10.6738   -1.1081   21.8795 C   0  0  0  0  0  0  0  0  0  0  0  0
    9.3660   -1.5144   21.9655 N   0  0  0  0  0  0  0  0  0  0  0  0
    8.8072   -2.4242   22.9630 C   0  0  0  0  0  0  0  0  0  0  0  0
    8.3341   -1.6972   24.2080 C   0  0  0  0  0  0  0  0  0  0  0  0
    7.0336   -1.5421   24.5912 C   0  0  0  0  0  0  0  0  0  0  0  0
    6.8778   -0.6182   26.0341 S   0  0  0  0  0  0  0  0  0  0  0  0
    8.5792   -0.4264   26.1513 C   0  0  0  0  0  0  0  0  0  0  0  0
    9.2287   -1.0432   25.1253 C   0  0  0  0  0  0  0  0  0  0  0  0
   10.3072   -1.0393   25.0055 H   0  0  0  0  0  0  0  0  0  0  0  0
    8.9869    0.1404   26.9831 H   0  0  0  0  0  0  0  0  0  0  0  0
    6.1314   -1.9254   24.1266 H   0  0  0  0  0  0  0  0  0  0  0  0
    8.0011   -3.0198   22.5157 H   0  0  0  0  0  0  0  0  0  0  0  0
    9.6031   -3.1384   23.2132 H   0  0  0  0  0  0  0  0  0  0  0  0
   11.4822   -1.5566   22.4443 H   0  0  0  0  0  0  0  0  0  0  0  0
    6.8853   -0.9980   21.7473 H   0  0  0  0  0  0  0  0  0  0  0  0
    5.4630    0.6081   20.1563 C   0  0  0  0  0  0  0  0  0  0  0  0
    5.0506    0.5992   21.1628 H   0  0  0  0  0  0  0  0  0  0  0  0
    8.1402   -0.3948   18.3464 H   0  0  0  0  0  0  0  0  0  0  0  0
    4.9112    1.8151   17.0052 H   0  0  0  0  0  0  0  0  0  0  0  0
    3.8860    1.8257   19.2776 H   0  0  0  0  0  0  0  0  0  0  0  0
  1  2  2  0
  2  3  1  0
  3  4  2  0
  4  5  1  0
  5  6  1  0
  6  7  1  0
  7  8  2  0
  8  9  1  0
  9 10  2  0
 10 11  1  0
 11 12  1  0
 12 13  1  0
 13 14  2  0
 14 15  1  0
 15 16  1  0
 16 17  2  0
 17 18  1  0
 16 19  1  0
 14 20  1  0
 12 21  1  0
 12 22  1  0
 10 23  1  0
  6 24  1  0
  5 25  2  0
 25 26  1  0
  4 27  1  0
  2 28  1  0
  1 29  1  0
 25  1  1  0
 11  7  1  0
 17 13  1  0
M  END
>  <cnnaffinity>  (1) 
5.28756

>  <plip>  (1) 
-0.07142857142857142

>  <filename>  (1) 
[H][c]1[n][c]([H])[c]([N]([H])[c]2[n][n][c]([H])[n]2[C]([H])([H])[c]2[c]([H])[s][c]([H])[c]2[H])[c]([H])[c]1[H]

>  <combo1>  (1) 
-0.4892480460834506

$$$$
