
     RDKit          3D

 42 44  0  0  0  0  0  0  0  0999 V2000
   10.5847    0.7450   22.5618 C   0  0  0  0  0  0  0  0  0  0  0  0
    9.2596    0.0194   22.7570 C   0  0  0  0  0  0  0  0  0  0  0  0
    8.6364   -0.0272   21.3981 N   0  0  0  0  0  4  0  0  0  0  0  0
    7.2396   -0.5286   21.2464 C   0  0  2  0  0  0  0  0  0  0  0  0
    7.2698   -2.0491   21.0536 C   0  0  0  0  0  0  0  0  0  0  0  0
    6.3463   -2.4390   20.6218 H   0  0  0  0  0  0  0  0  0  0  0  0
    7.4885   -2.5606   21.9958 H   0  0  0  0  0  0  0  0  0  0  0  0
    8.0832   -2.2582   20.3611 H   0  0  0  0  0  0  0  0  0  0  0  0
    6.6098    0.2024   20.0793 C   0  0  0  0  0  0  0  0  0  0  0  0
    5.3465    0.8212   20.1698 C   0  0  0  0  0  0  0  0  0  0  0  0
    4.7827    1.3917   19.0256 C   0  0  0  0  0  0  0  0  0  0  0  0
    5.4953    1.3206   17.8255 C   0  0  0  0  0  0  0  0  0  0  0  0
    6.6869    0.7166   17.7083 N   0  0  0  0  0  0  0  0  0  0  0  0
    7.2175    0.1828   18.8158 C   0  0  0  0  0  0  0  0  0  0  0  0
    8.1893   -0.2962   18.6778 H   0  0  0  0  0  0  0  0  0  0  0  0
    5.0862    1.7452   16.9113 H   0  0  0  0  0  0  0  0  0  0  0  0
    3.8197    1.8983   19.0452 H   0  0  0  0  0  0  0  0  0  0  0  0
    4.8200    0.8767   21.1252 H   0  0  0  0  0  0  0  0  0  0  0  0
    6.6795   -0.2936   22.1594 H   0  0  0  0  0  0  0  0  0  0  0  0
    8.6798    0.9023   20.9363 H   0  0  0  0  0  0  0  0  0  0  0  0
    9.2466   -0.7124   20.8903 H   0  0  0  0  0  0  0  0  0  0  0  0
    9.4049   -1.3873   23.2981 C   0  0  0  0  0  0  0  0  0  0  0  0
    8.5618   -1.9428   24.1974 C   0  0  0  0  0  0  0  0  0  0  0  0
    8.8351   -3.2756   24.7537 C   0  0  0  0  0  0  0  0  0  0  0  0
    7.9607   -3.9889   25.6078 C   0  0  0  0  0  0  0  0  0  0  0  0
    8.3058   -5.2580   26.0740 C   0  0  0  0  0  0  0  0  0  0  0  0
    9.5453   -5.8280   25.7313 C   0  0  0  0  0  0  0  0  0  0  0  0
   10.4330   -5.1299   24.9201 C   0  0  0  0  0  0  0  0  0  0  0  0
   10.0650   -3.8770   24.4084 C   0  0  0  0  0  0  0  0  0  0  0  0
   10.9712   -3.2429   23.6066 O   0  0  0  0  0  0  0  0  0  0  0  0
   10.4356   -2.3070   22.6800 C   0  0  0  0  0  0  0  0  0  0  0  0
   11.3004   -1.7688   22.2816 H   0  0  0  0  0  0  0  0  0  0  0  0
    9.9814   -2.8643   21.8418 H   0  0  0  0  0  0  0  0  0  0  0  0
   11.4149   -5.5156   24.6624 H   0  0  0  0  0  0  0  0  0  0  0  0
    9.8186   -6.8158   26.1103 H   0  0  0  0  0  0  0  0  0  0  0  0
    7.6225   -5.8012   26.7237 H   0  0  0  0  0  0  0  0  0  0  0  0
    7.0087   -3.5426   25.8993 H   0  0  0  0  0  0  0  0  0  0  0  0
    7.6425   -1.4407   24.4904 H   0  0  0  0  0  0  0  0  0  0  0  0
    8.6075    0.5745   23.4498 H   0  0  0  0  0  0  0  0  0  0  0  0
   11.1750    0.7873   23.4790 H   0  0  0  0  0  0  0  0  0  0  0  0
   11.1823    0.2453   21.7916 H   0  0  0  0  0  0  0  0  0  0  0  0
   10.4064    1.7663   22.2134 H   0  0  0  0  0  0  0  0  0  0  0  0
  1  2  1  0
  2  3  1  0
  3  4  1  0
  4  5  1  0
  5  6  1  0
  5  7  1  0
  5  8  1  0
  4  9  1  0
  9 10  2  0
 10 11  1  0
 11 12  2  0
 12 13  1  0
 13 14  2  0
 14 15  1  0
 12 16  1  0
 11 17  1  0
 10 18  1  0
  4 19  1  1
  3 20  1  0
  3 21  1  0
  2 22  1  0
 22 23  2  0
 23 24  1  0
 24 25  2  0
 25 26  1  0
 26 27  2  0
 27 28  1  0
 28 29  2  0
 29 30  1  0
 30 31  1  0
 31 32  1  0
 31 33  1  0
 28 34  1  0
 27 35  1  0
 26 36  1  0
 25 37  1  0
 23 38  1  0
  2 39  1  0
  1 40  1  0
  1 41  1  0
  1 42  1  0
 14  9  1  0
 31 22  1  0
 29 24  1  0
M  CHG  1   3   1
M  END
>  <cnnaffinity>  (1) 
5.36362

>  <plip>  (1) 
-0.13793103448275862

>  <filename>  (1) 
[H][C]1=[C]([C]([H])([C]([H])([H])[H])[N+]([H])([H])[C@@]([H])([c]2[c]([H])[n][c]([H])[c]([H])[c]2[H])[C]([H])([H])[H])[C]([H])([H])[O][c]2[c]([H])[c]([H])[c]([H])[c]([H])[c]21

>  <combo1>  (1) 
-0.8764094633601113

$$$$
