
     RDKit          3D

 34 35  0  0  0  0  0  0  0  0999 V2000
    5.0021    1.7779   17.0202 H   0  0  0  0  0  0  0  0  0  0  0  0
    5.4740    1.2790   17.8649 C   0  0  0  0  0  0  0  0  0  0  0  0
    6.6632    0.7115   17.6151 N   0  0  0  0  0  0  0  0  0  0  0  0
    7.2663    0.0941   18.6300 C   0  0  0  0  0  0  0  0  0  0  0  0
    8.2411   -0.3429   18.4301 H   0  0  0  0  0  0  0  0  0  0  0  0
    6.6981   -0.0379   19.9070 C   0  0  0  0  0  0  0  0  0  0  0  0
    7.5067   -0.7801   20.9157 C   0  0  0  0  0  0  0  0  0  0  0  0
    8.7146   -0.6189   20.9751 O   0  0  0  0  0  0  0  0  0  0  0  0
    6.7825   -1.8284   21.8883 C   0  0  0  0  0  0  0  0  0  0  0  0
    5.8238   -2.4717   21.5323 O   0  0  0  0  0  0  0  0  0  0  0  0
    7.3931   -1.9772   23.1186 N   0  0  0  0  0  0  0  0  0  0  0  0
    8.3220   -1.6196   23.2492 H   0  0  0  0  0  0  0  0  0  0  0  0
    6.7622   -2.6518   24.1607 C   0  0  0  0  0  0  0  0  0  0  0  0
    5.5583   -2.7374   24.2303 O   0  0  0  0  0  0  0  0  0  0  0  0
    7.6173   -3.1735   25.1036 N   0  0  0  0  0  0  0  0  0  0  0  0
    9.0408   -3.4493   24.8404 C   0  0  0  0  0  0  0  0  0  0  0  0
    9.6494   -2.5615   25.0770 H   0  0  0  0  0  0  0  0  0  0  0  0
    9.1959   -3.6775   23.7791 H   0  0  0  0  0  0  0  0  0  0  0  0
    9.5311   -4.6235   25.6842 C   0  0  0  0  0  0  0  0  0  0  0  0
    8.9826   -5.5306   25.3999 H   0  0  0  0  0  0  0  0  0  0  0  0
   10.5860   -4.8142   25.4637 H   0  0  0  0  0  0  0  0  0  0  0  0
    9.3356   -4.3130   27.1708 C   0  0  0  0  0  0  0  0  0  0  0  0
    9.5915   -5.1820   27.7862 H   0  0  0  0  0  0  0  0  0  0  0  0
   10.0355   -3.5208   27.4345 H   0  0  0  0  0  0  0  0  0  0  0  0
    7.9203   -3.7761   27.4778 C   0  0  0  0  0  0  0  0  0  0  0  0
    7.9946   -2.7357   27.8032 H   0  0  0  0  0  0  0  0  0  0  0  0
    7.4689   -4.3477   28.2926 H   0  0  0  0  0  0  0  0  0  0  0  0
    6.9742   -3.7840   26.2877 C   0  0  0  0  0  0  0  0  0  0  0  0
    6.0800   -3.2032   26.5295 H   0  0  0  0  0  0  0  0  0  0  0  0
    6.6219   -4.7978   26.0538 H   0  0  0  0  0  0  0  0  0  0  0  0
    5.4652    0.5732   20.1696 C   0  0  0  0  0  0  0  0  0  0  0  0
    5.0187    0.5570   21.1697 H   0  0  0  0  0  0  0  0  0  0  0  0
    4.8441    1.2492   19.1158 C   0  0  0  0  0  0  0  0  0  0  0  0
    3.9085    1.7791   19.2505 H   0  0  0  0  0  0  0  0  0  0  0  0
  1  2  1  0
  2  3  2  0
  3  4  1  0
  4  5  1  0
  4  6  2  0
  6  7  1  0
  7  8  2  0
  7  9  1  0
  9 10  2  0
  9 11  1  0
 11 12  1  0
 11 13  1  0
 13 14  2  0
 13 15  1  0
 15 16  1  0
 16 17  1  0
 16 18  1  0
 16 19  1  0
 19 20  1  0
 19 21  1  0
 19 22  1  0
 22 23  1  0
 22 24  1  0
 22 25  1  0
 25 26  1  0
 25 27  1  0
 25 28  1  0
 28 29  1  0
 28 30  1  0
  6 31  1  0
 31 32  1  0
 31 33  2  0
 33 34  1  0
 33  2  1  0
 28 15  1  0
M  END
>  <cnnaffinity>  (1) 
4.56927

>  <plip>  (1) 
-0.03571428571428571

>  <filename>  (1) 
[H][c]1[n][c]([H])[c]([C](=[O])[C](=[O])[N]([H])[C](=[O])[N]2[C]([H])([H])[C]([H])([H])[C]([H])([H])[C]([H])([H])[C]2([H])[H])[c]([H])[c]1[H]

>  <combo1>  (1) 
-0.20818992360168326

$$$$
