
     RDKit          3D

 38 40  0  0  0  0  0  0  0  0999 V2000
    5.0174    1.9692   16.9207 H   0  0  0  0  0  0  0  0  0  0  0  0
    5.4461    1.3810   17.7294 C   0  0  0  0  0  0  0  0  0  0  0  0
    6.5991    0.7511   17.4519 N   0  0  0  0  0  0  0  0  0  0  0  0
    7.1686    0.0452   18.4331 C   0  0  0  0  0  0  0  0  0  0  0  0
    8.1057   -0.4562   18.1921 H   0  0  0  0  0  0  0  0  0  0  0  0
    6.6249   -0.0834   19.7284 C   0  0  0  0  0  0  0  0  0  0  0  0
    7.3546   -0.7756   20.7664 N   0  0  0  0  0  0  0  0  0  0  0  0
    8.6858   -0.4162   20.9930 C   0  0  0  0  0  0  0  0  0  0  0  0
    9.0543    0.3974   20.3697 H   0  0  0  0  0  0  0  0  0  0  0  0
    9.4466   -1.0074   21.9396 C   0  0  0  0  0  0  0  0  0  0  0  0
   10.7788   -0.4691   22.4175 C   0  0  0  0  0  0  0  0  0  0  0  0
   11.2844    0.1164   21.6352 H   0  0  0  0  0  0  0  0  0  0  0  0
   11.4335   -1.3140   22.6590 H   0  0  0  0  0  0  0  0  0  0  0  0
   10.5259    0.3722   23.6645 C   0  0  0  0  0  0  0  0  0  0  0  0
   10.6520   -0.1970   24.9352 C   0  0  0  0  0  0  0  0  0  0  0  0
   11.1119   -1.1740   25.0290 H   0  0  0  0  0  0  0  0  0  0  0  0
   10.1258    0.4190   26.0727 C   0  0  0  0  0  0  0  0  0  0  0  0
   10.1575   -0.1044   27.0262 H   0  0  0  0  0  0  0  0  0  0  0  0
    9.5060    1.6644   25.9457 C   0  0  0  0  0  0  0  0  0  0  0  0
    9.0702    2.1343   26.8238 H   0  0  0  0  0  0  0  0  0  0  0  0
    9.3940    2.2816   24.6935 C   0  0  0  0  0  0  0  0  0  0  0  0
    8.9032    3.2454   24.5880 H   0  0  0  0  0  0  0  0  0  0  0  0
    9.8928    1.6319   23.5554 C   0  0  0  0  0  0  0  0  0  0  0  0
    9.7846    2.1279   22.2882 O   0  0  0  0  0  0  0  0  0  0  0  0
    9.0001    3.2724   22.0295 C   0  0  0  0  0  0  0  0  0  0  0  0
    7.9860    3.2123   22.4546 H   0  0  0  0  0  0  0  0  0  0  0  0
    8.9215    3.2941   20.9426 H   0  0  0  0  0  0  0  0  0  0  0  0
    9.5043    4.1772   22.3993 H   0  0  0  0  0  0  0  0  0  0  0  0
    8.8447   -2.0989   22.7268 C   0  0  0  0  0  0  0  0  0  0  0  0
    9.4159   -2.8617   23.4756 O   0  0  0  0  0  0  0  0  0  0  0  0
    7.4818   -2.2356   22.5833 N   0  0  0  0  0  0  0  0  0  0  0  0
    7.0849   -3.0285   23.0471 H   0  0  0  0  0  0  0  0  0  0  0  0
    6.7335   -1.7882   21.5394 C   0  0  0  0  0  0  0  0  0  0  0  0
    5.6446   -2.2709   21.3236 O   0  0  0  0  0  0  0  0  0  0  0  0
    5.3918    0.5274   19.9881 C   0  0  0  0  0  0  0  0  0  0  0  0
    4.9141    0.4033   20.9600 H   0  0  0  0  0  0  0  0  0  0  0  0
    4.8081    1.2922   18.9708 C   0  0  0  0  0  0  0  0  0  0  0  0
    3.8807    1.8311   19.1300 H   0  0  0  0  0  0  0  0  0  0  0  0
  1  2  1  0
  2  3  2  0
  3  4  1  0
  4  5  1  0
  4  6  2  0
  6  7  1  0
  7  8  1  0
  8  9  1  0
  8 10  2  0
 10 11  1  0
 11 12  1  0
 11 13  1  0
 11 14  1  0
 14 15  2  0
 15 16  1  0
 15 17  1  0
 17 18  1  0
 17 19  2  0
 19 20  1  0
 19 21  1  0
 21 22  1  0
 21 23  2  0
 23 24  1  0
 24 25  1  0
 25 26  1  0
 25 27  1  0
 25 28  1  0
 10 29  1  0
 29 30  2  0
 29 31  1  0
 31 32  1  0
 31 33  1  0
 33 34  2  0
  6 35  1  0
 35 36  1  0
 35 37  2  0
 37 38  1  0
 37  2  1  0
 33  7  1  0
 23 14  1  0
M  END
>  <cnnaffinity>  (1) 
4.92422

>  <plip>  (1) 
-0.13793103448275862

>  <filename>  (1) 
[H][c]1[n][c]([H])[c](-[n]2[c]([H])[c]([C]([H])([H])[c]3[c]([H])[c]([H])[c]([H])[c]([H])[c]3[O][C]([H])([H])[H])[c](=[O])[n]([H])[c]2=[O])[c]([H])[c]1[H]

>  <combo1>  (1) 
-0.7319192420277373

$$$$
