
     RDKit          3D

 31 33  0  0  0  0  0  0  0  0999 V2000
    5.9891   -2.7257   20.3519 O   0  0  0  0  0  0  0  0  0  0  0  0
    6.5723   -2.1445   21.2683 C   0  0  0  0  0  0  0  0  0  0  0  0
    6.5608   -2.7641   22.5267 N   0  0  0  0  0  0  0  0  0  0  0  0
    5.7702   -3.8815   22.8359 C   0  0  0  0  0  0  0  0  0  0  0  0
    6.0827   -4.7892   23.8692 C   0  0  0  0  0  0  0  0  0  0  0  0
    7.6745   -4.5570   24.9165 Br  0  0  0  0  0  0  0  0  0  0  0  0
    5.2268   -5.8905   24.0869 C   0  0  0  0  0  0  0  0  0  0  0  0
    4.0919   -6.0564   23.3267 C   0  0  0  0  0  0  0  0  0  0  0  0
    3.7397   -5.1302   22.3581 C   0  0  0  0  0  0  0  0  0  0  0  0
    4.6020   -4.0690   22.0985 C   0  0  0  0  0  0  0  0  0  0  0  0
    4.3598   -3.3575   21.3288 H   0  0  0  0  0  0  0  0  0  0  0  0
    2.8148   -5.2316   21.8068 H   0  0  0  0  0  0  0  0  0  0  0  0
    3.4889   -7.2977   23.7581 C   0  0  0  0  0  0  0  0  0  0  0  0
    4.1827   -7.8516   24.7234 N   0  0  0  0  0  0  0  0  0  0  0  0
    5.2172   -6.9841   24.9427 N   0  0  0  0  0  0  0  0  0  0  0  0
    5.9393   -7.1443   25.6463 H   0  0  0  0  0  0  0  0  0  0  0  0
    2.5909   -7.7263   23.3347 H   0  0  0  0  0  0  0  0  0  0  0  0
    7.0348   -2.3084   23.3019 H   0  0  0  0  0  0  0  0  0  0  0  0
    7.3246   -0.7965   20.9638 C   0  0  0  0  0  0  0  0  0  0  0  0
    7.3885   -0.0155   22.0857 F   0  0  0  0  0  0  0  0  0  0  0  0
    8.6062   -1.0731   20.5735 F   0  0  0  0  0  0  0  0  0  0  0  0
    6.6462    0.0181   19.8688 C   0  0  0  0  0  0  0  0  0  0  0  0
    5.4312    0.6663   20.1098 C   0  0  0  0  0  0  0  0  0  0  0  0
    4.8279    1.3282   19.0446 C   0  0  0  0  0  0  0  0  0  0  0  0
    5.4434    1.3469   17.7908 C   0  0  0  0  0  0  0  0  0  0  0  0
    6.6161    0.7347   17.5605 N   0  0  0  0  0  0  0  0  0  0  0  0
    7.2029    0.0866   18.5788 C   0  0  0  0  0  0  0  0  0  0  0  0
    8.1448   -0.4174   18.3826 H   0  0  0  0  0  0  0  0  0  0  0  0
    4.9600    1.8735   16.9733 H   0  0  0  0  0  0  0  0  0  0  0  0
    3.8892    1.8483   19.1774 H   0  0  0  0  0  0  0  0  0  0  0  0
    4.9681    0.6579   21.0982 H   0  0  0  0  0  0  0  0  0  0  0  0
  1  2  2  0
  2  3  1  0
  3  4  1  0
  4  5  2  0
  5  6  1  0
  5  7  1  0
  7  8  2  0
  8  9  1  0
  9 10  2  0
 10 11  1  0
  9 12  1  0
  8 13  1  0
 13 14  2  0
 14 15  1  0
 15 16  1  0
 13 17  1  0
  3 18  1  0
  2 19  1  0
 19 20  1  0
 19 21  1  0
 19 22  1  0
 22 23  2  0
 23 24  1  0
 24 25  2  0
 25 26  1  0
 26 27  2  0
 27 28  1  0
 25 29  1  0
 24 30  1  0
 23 31  1  0
 10  4  1  0
 27 22  1  0
 15  7  1  0
M  END
>  <cnnaffinity>  (1) 
5.46501

>  <plip>  (1) 
-0.0967741935483871

>  <filename>  (1) 
[H][c]1[n][c]([H])[c]([C]([F])([F])[C](=[O])[N]([H])[c]2[c]([H])[c]([H])[c]3[c]([H])[n][n]([H])[c]3[c]2[Br])[c]([H])[c]1[H]

>  <combo1>  (1) 
-0.4801558074189515

$$$$
