
     RDKit          3D

 38 40  0  0  0  0  0  0  0  0999 V2000
   10.1346   -2.5726   22.1220 C   0  0  0  0  0  0  0  0  0  0  0  0
    8.8752   -1.8083   21.9574 C   0  0  0  0  0  0  0  0  0  0  0  0
    8.5106   -1.2630   20.8067 N   0  0  0  0  0  0  0  0  0  0  0  0
    7.3576   -0.6510   21.0712 N   0  0  0  0  0  0  0  0  0  0  0  0
    6.6344    0.0184   20.0651 C   0  0  0  0  0  0  0  0  0  0  0  0
    5.4067    0.6632   20.2808 C   0  0  0  0  0  0  0  0  0  0  0  0
    4.8165    1.2886   19.1784 C   0  0  0  0  0  0  0  0  0  0  0  0
    5.4524    1.2421   17.9314 C   0  0  0  0  0  0  0  0  0  0  0  0
    6.6144    0.6017   17.7268 N   0  0  0  0  0  0  0  0  0  0  0  0
    7.1826    0.0095   18.7737 C   0  0  0  0  0  0  0  0  0  0  0  0
    8.1187   -0.5188   18.6147 H   0  0  0  0  0  0  0  0  0  0  0  0
    5.0218    1.7300   17.0613 H   0  0  0  0  0  0  0  0  0  0  0  0
    3.8789    1.8222   19.2716 H   0  0  0  0  0  0  0  0  0  0  0  0
    4.9377    0.6668   21.2668 H   0  0  0  0  0  0  0  0  0  0  0  0
    6.9381   -0.7668   22.3324 N   0  0  0  0  0  0  0  0  0  0  0  0
    7.8773   -1.4816   22.9098 C   0  0  0  0  0  0  0  0  0  0  0  0
    7.6545   -1.8749   24.2357 N   0  0  0  0  0  0  0  0  0  0  0  0
    8.7584   -1.2963   25.3476 S   0  0  0  0  0  0  0  0  0  0  0  0
    9.9945   -0.9279   24.7067 O   0  0  0  0  0  0  0  0  0  0  0  0
    7.9428   -0.3835   26.1203 O   0  0  0  0  0  0  0  0  0  0  0  0
    9.0217   -2.6742   26.1961 N   0  0  0  0  0  0  0  0  0  0  0  0
    7.8970   -3.0566   27.0633 C   0  0  0  0  0  0  0  0  0  0  0  0
    8.2225   -4.2773   27.8703 C   0  0  0  0  0  0  0  0  0  0  0  0
    9.2888   -5.0430   27.6776 C   0  0  0  0  0  0  0  0  0  0  0  0
   10.1858   -4.8747   26.4823 C   0  0  0  0  0  0  0  0  0  0  0  0
    9.7067   -3.7840   25.4970 C   0  0  0  0  0  0  0  0  0  0  0  0
    9.0406   -4.2278   24.7401 H   0  0  0  0  0  0  0  0  0  0  0  0
   10.5868   -3.3895   24.9812 H   0  0  0  0  0  0  0  0  0  0  0  0
   11.1961   -4.6582   26.8296 H   0  0  0  0  0  0  0  0  0  0  0  0
   10.2673   -5.8321   25.9529 H   0  0  0  0  0  0  0  0  0  0  0  0
    9.5568   -5.7910   28.4205 H   0  0  0  0  0  0  0  0  0  0  0  0
    7.5082   -4.5088   28.6525 H   0  0  0  0  0  0  0  0  0  0  0  0
    6.9655   -3.2416   26.5008 H   0  0  0  0  0  0  0  0  0  0  0  0
    7.6898   -2.2181   27.7371 H   0  0  0  0  0  0  0  0  0  0  0  0
    6.8650   -1.3262   24.5569 H   0  0  0  0  0  0  0  0  0  0  0  0
   10.6073   -2.6366   21.1462 H   0  0  0  0  0  0  0  0  0  0  0  0
   10.7928   -2.0508   22.8132 H   0  0  0  0  0  0  0  0  0  0  0  0
    9.9397   -3.5616   22.5509 H   0  0  0  0  0  0  0  0  0  0  0  0
  1  2  1  0
  2  3  2  0
  3  4  1  0
  4  5  1  0
  5  6  2  0
  6  7  1  0
  7  8  2  0
  8  9  1  0
  9 10  2  0
 10 11  1  0
  8 12  1  0
  7 13  1  0
  6 14  1  0
  4 15  1  0
 15 16  2  0
 16 17  1  0
 17 18  1  0
 18 19  2  0
 18 20  2  0
 18 21  1  0
 21 22  1  0
 22 23  1  0
 23 24  2  0
 24 25  1  0
 25 26  1  0
 26 27  1  0
 26 28  1  0
 25 29  1  0
 25 30  1  0
 24 31  1  0
 23 32  1  0
 22 33  1  0
 22 34  1  0
 17 35  1  0
  1 36  1  0
  1 37  1  0
  1 38  1  0
 16  2  1  0
 26 21  1  0
 10  5  1  0
M  END
>  <cnnaffinity>  (1) 
5.14267

>  <plip>  (1) 
-0.03571428571428571

>  <filename>  (1) 
[H][C]1=[C]([H])[C]([H])([H])[C]([H])([H])[N]([S](=[O])(=[O])[N]([H])[c]2[n][n](-[c]3[c]([H])[n][c]([H])[c]([H])[c]3[H])[n][c]2[C]([H])([H])[H])[C]1([H])[H]

>  <combo1>  (1) 
-0.19109383885523326

$$$$
