
     RDKit          3D

 39 41  0  0  0  0  0  0  0  0999 V2000
    4.9173    1.7937   16.9907 H   0  0  0  0  0  0  0  0  0  0  0  0
    5.3901    1.2975   17.8346 C   0  0  0  0  0  0  0  0  0  0  0  0
    6.5500    0.6761   17.5717 N   0  0  0  0  0  0  0  0  0  0  0  0
    7.1533    0.0363   18.5784 C   0  0  0  0  0  0  0  0  0  0  0  0
    8.1137   -0.4283   18.3568 H   0  0  0  0  0  0  0  0  0  0  0  0
    6.6245   -0.0290   19.8842 C   0  0  0  0  0  0  0  0  0  0  0  0
    7.5538   -0.8315   21.1944 S   0  0  0  0  0  0  0  0  0  0  0  0
    8.4556    0.6174   21.6886 C   0  0  0  0  0  0  0  0  0  0  0  0
    9.6339    0.9920   21.2319 N   0  0  0  0  0  0  0  0  0  0  0  0
    9.8670    2.2115   21.7625 N   0  0  0  0  0  0  0  0  0  0  0  0
    8.8929    2.5974   22.5072 N   0  0  0  0  0  0  0  0  0  0  0  0
    7.9889    1.6170   22.4568 N   0  0  0  0  0  0  0  0  0  0  0  0
    6.7918    1.6066   23.0902 O   0  0  0  0  0  0  0  0  0  0  0  0
    6.3689    2.8428   23.7129 C   0  0  0  0  0  0  0  0  0  0  0  0
    5.5392    2.4932   24.3190 H   0  0  0  0  0  0  0  0  0  0  0  0
    7.1438    3.2416   24.3708 H   0  0  0  0  0  0  0  0  0  0  0  0
    5.8740    3.8476   22.6845 C   0  0  0  0  0  0  0  0  0  0  0  0
    6.7229    4.1486   22.0457 H   0  0  0  0  0  0  0  0  0  0  0  0
    5.1690    3.3144   22.0328 H   0  0  0  0  0  0  0  0  0  0  0  0
    5.1989    4.9905   23.3205 N   0  0  0  0  0  0  0  0  0  0  0  0
    6.1622    5.9849   23.8210 C   0  0  0  0  0  0  0  0  0  0  0  0
    6.8698    5.4880   24.4923 H   0  0  0  0  0  0  0  0  0  0  0  0
    6.7639    6.4073   22.9877 H   0  0  0  0  0  0  0  0  0  0  0  0
    5.4707    7.1300   24.5641 C   0  0  0  0  0  0  0  0  0  0  0  0
    6.2245    7.8510   24.9030 H   0  0  0  0  0  0  0  0  0  0  0  0
    4.9911    6.7258   25.4643 H   0  0  0  0  0  0  0  0  0  0  0  0
    4.4254    7.8174   23.6753 C   0  0  0  0  0  0  0  0  0  0  0  0
    4.9351    8.3428   22.8519 H   0  0  0  0  0  0  0  0  0  0  0  0
    3.8745    8.5807   24.2384 H   0  0  0  0  0  0  0  0  0  0  0  0
    3.4692    6.7674   23.0928 C   0  0  0  0  0  0  0  0  0  0  0  0
    2.8527    6.3384   23.8927 H   0  0  0  0  0  0  0  0  0  0  0  0
    2.7803    7.2284   22.3735 H   0  0  0  0  0  0  0  0  0  0  0  0
    4.2391    5.6334   22.4069 C   0  0  0  0  0  0  0  0  0  0  0  0
    3.5281    4.8744   22.0602 H   0  0  0  0  0  0  0  0  0  0  0  0
    4.7406    6.0351   21.4994 H   0  0  0  0  0  0  0  0  0  0  0  0
    5.4267    0.6411   20.1547 C   0  0  0  0  0  0  0  0  0  0  0  0
    5.0166    0.6451   21.1695 H   0  0  0  0  0  0  0  0  0  0  0  0
    4.7979    1.3126   19.1017 C   0  0  0  0  0  0  0  0  0  0  0  0
    3.8684    1.8477   19.2463 H   0  0  0  0  0  0  0  0  0  0  0  0
  1  2  1  0
  2  3  2  0
  3  4  1  0
  4  5  1  0
  4  6  2  0
  6  7  1  0
  7  8  1  0
  8  9  2  0
  9 10  1  0
 10 11  2  0
 11 12  1  0
 12 13  1  0
 13 14  1  0
 14 15  1  0
 14 16  1  0
 14 17  1  0
 17 18  1  0
 17 19  1  0
 17 20  1  0
 20 21  1  0
 21 22  1  0
 21 23  1  0
 21 24  1  0
 24 25  1  0
 24 26  1  0
 24 27  1  0
 27 28  1  0
 27 29  1  0
 27 30  1  0
 30 31  1  0
 30 32  1  0
 30 33  1  0
 33 34  1  0
 33 35  1  0
  6 36  1  0
 36 37  1  0
 36 38  2  0
 38 39  1  0
 38  2  1  0
 12  8  1  0
 33 20  1  0
M  END
>  <cnnaffinity>  (1) 
4.93603

>  <plip>  (1) 
-0.07142857142857142

>  <filename>  (1) 
[H][c]1[n][c]([H])[c]([S][c]2[n][n][n][n]2[O][C]([H])([H])[C]([H])([H])[N]2[C]([H])([H])[C]([H])([H])[C]([H])([H])[C]([H])([H])[C]2([H])[H])[c]([H])[c]1[H]

>  <combo1>  (1) 
-0.383571937562701

$$$$
