
     RDKit          3D

 48 51  0  0  0  0  0  0  0  0999 V2000
    2.1051   -7.3074   27.0034 F   0  0  0  0  0  0  0  0  0  0  0  0
    3.2428   -6.6214   26.8300 C   0  0  0  0  0  0  0  0  0  0  0  0
    4.0305   -6.2946   27.9223 C   0  0  0  0  0  0  0  0  0  0  0  0
    5.2132   -5.5735   27.7185 C   0  0  0  0  0  0  0  0  0  0  0  0
    5.5985   -5.1935   26.4348 C   0  0  0  0  0  0  0  0  0  0  0  0
    4.8145   -5.5335   25.3047 C   0  0  0  0  0  0  0  0  0  0  0  0
    5.2001   -5.2105   23.9194 C   0  0  0  0  0  0  0  0  0  0  0  0
    4.8271   -5.7276   22.7148 C   0  0  0  0  0  0  0  0  0  0  0  0
    5.5617   -5.0134   21.7173 C   0  0  0  0  0  0  0  0  0  0  0  0
    6.3163   -4.0962   22.3813 C   0  0  0  0  0  0  0  0  0  0  0  0
    7.2823   -3.0609   21.9088 C   0  0  0  0  0  0  0  0  0  0  0  0
    6.6134   -1.7537   21.5716 N   0  0  0  0  0  4  0  0  0  0  0  0
    7.4299   -0.6403   20.9806 C   0  0  0  0  0  0  0  0  0  0  0  0
    6.5968    0.0119   19.8971 C   0  0  0  0  0  0  0  0  0  0  0  0
    5.3751    0.6744   20.1190 C   0  0  0  0  0  0  0  0  0  0  0  0
    4.7632    1.3336   19.0494 C   0  0  0  0  0  0  0  0  0  0  0  0
    5.3859    1.3075   17.7965 C   0  0  0  0  0  0  0  0  0  0  0  0
    6.5333    0.6613   17.5537 N   0  0  0  0  0  0  0  0  0  0  0  0
    7.1124    0.0461   18.5936 C   0  0  0  0  0  0  0  0  0  0  0  0
    8.0541   -0.4576   18.3758 H   0  0  0  0  0  0  0  0  0  0  0  0
    4.9430    1.8381   16.9556 H   0  0  0  0  0  0  0  0  0  0  0  0
    3.8368    1.8839   19.1796 H   0  0  0  0  0  0  0  0  0  0  0  0
    4.9097    0.7071   21.1092 H   0  0  0  0  0  0  0  0  0  0  0  0
    7.9044    0.3530   22.0467 C   0  0  0  0  0  0  0  0  0  0  0  0
    8.7490    1.5072   21.4970 C   0  0  0  0  0  0  0  0  0  0  0  0
    9.6344    1.9011   22.6856 C   0  0  0  0  0  0  0  0  0  0  0  0
    9.5799    0.8268   23.6152 O   0  0  0  0  0  0  0  0  0  0  0  0
    8.8358   -0.2558   23.0931 C   0  0  0  0  0  0  0  0  0  0  0  0
    9.5178   -0.9932   22.6342 H   0  0  0  0  0  0  0  0  0  0  0  0
    8.3177   -0.7414   23.9306 H   0  0  0  0  0  0  0  0  0  0  0  0
   10.6807    2.0690   22.3916 H   0  0  0  0  0  0  0  0  0  0  0  0
    9.2630    2.8066   23.1833 H   0  0  0  0  0  0  0  0  0  0  0  0
    8.1426    2.3375   21.1242 H   0  0  0  0  0  0  0  0  0  0  0  0
    9.3627    1.1562   20.6611 H   0  0  0  0  0  0  0  0  0  0  0  0
    7.0259    0.7494   22.5673 H   0  0  0  0  0  0  0  0  0  0  0  0
    8.3245   -1.0738   20.5193 H   0  0  0  0  0  0  0  0  0  0  0  0
    6.1784   -1.3704   22.4501 H   0  0  0  0  0  0  0  0  0  0  0  0
    5.8376   -1.8899   20.8817 H   0  0  0  0  0  0  0  0  0  0  0  0
    8.0359   -2.9308   22.6909 H   0  0  0  0  0  0  0  0  0  0  0  0
    7.7971   -3.4447   21.0190 H   0  0  0  0  0  0  0  0  0  0  0  0
    6.1213   -4.2251   23.7239 O   0  0  0  0  0  0  0  0  0  0  0  0
    5.5554   -5.1516   20.6460 H   0  0  0  0  0  0  0  0  0  0  0  0
    4.1178   -6.5267   22.5785 H   0  0  0  0  0  0  0  0  0  0  0  0
    3.6277   -6.2450   25.5380 C   0  0  0  0  0  0  0  0  0  0  0  0
    2.8122   -6.5838   24.5249 F   0  0  0  0  0  0  0  0  0  0  0  0
    6.5207   -4.6328   26.3049 H   0  0  0  0  0  0  0  0  0  0  0  0
    5.8429   -5.3201   28.5688 H   0  0  0  0  0  0  0  0  0  0  0  0
    3.7059   -6.6221   28.9046 H   0  0  0  0  0  0  0  0  0  0  0  0
  1  2  1  0
  2  3  2  0
  3  4  1  0
  4  5  2  0
  5  6  1  0
  6  7  1  0
  7  8  2  0
  8  9  1  0
  9 10  2  0
 10 11  1  0
 11 12  1  0
 12 13  1  0
 13 14  1  0
 14 15  2  0
 15 16  1  0
 16 17  2  0
 17 18  1  0
 18 19  2  0
 19 20  1  0
 17 21  1  0
 16 22  1  0
 15 23  1  0
 13 24  1  0
 24 25  1  0
 25 26  1  0
 26 27  1  0
 27 28  1  0
 28 29  1  0
 28 30  1  0
 26 31  1  0
 26 32  1  0
 25 33  1  0
 25 34  1  0
 24 35  1  0
 13 36  1  0
 12 37  1  0
 12 38  1  0
 11 39  1  0
 11 40  1  0
 10 41  1  0
  9 42  1  0
  8 43  1  0
  6 44  2  0
 44 45  1  0
  5 46  1  0
  4 47  1  0
  3 48  1  0
 44  2  1  0
 41  7  1  0
 19 14  1  0
 28 24  1  0
M  CHG  1  12   1
M  END
>  <cnnaffinity>  (1) 
5.49232

>  <plip>  (1) 
-0.07142857142857142

>  <filename>  (1) 
[H][c]1[n][c]([H])[c]([C]([H])([C]2([H])[C]([H])([H])[O][C]([H])([H])[C]2([H])[H])[N+]([H])([H])[C]([H])([H])[c]2[o][c](-[c]3[c]([H])[c]([H])[c]([H])[c]([F])[c]3[F])[c]([H])[c]2[H])[c]([H])[c]1[H]

>  <combo1>  (1) 
-0.35209224330592553

$$$$
