
     RDKit          3D

 38 41  0  0  0  0  0  0  0  0999 V2000
    8.2808    1.2423   22.2887 C   0  0  0  0  0  0  0  0  0  0  0  0
    7.5535   -0.0143   22.2394 N   0  0  0  0  0  0  0  0  0  0  0  0
    6.9902   -0.5741   23.3480 C   0  0  0  0  0  0  0  0  0  0  0  0
    6.9630   -0.0602   24.4438 O   0  0  0  0  0  0  0  0  0  0  0  0
    6.4776   -1.8326   23.0032 N   0  0  0  0  0  0  0  0  0  0  0  0
    5.7938   -2.7281   23.8844 C   0  0  0  0  0  0  0  0  0  0  0  0
    5.0437   -2.1958   24.9763 C   0  0  0  0  0  0  0  0  0  0  0  0
    4.1750   -2.9906   25.6825 C   0  0  0  0  0  0  0  0  0  0  0  0
    4.1149   -4.3926   25.4009 C   0  0  0  0  0  0  0  0  0  0  0  0
    3.2656   -5.3103   26.0925 C   0  0  0  0  0  0  0  0  0  0  0  0
    3.2726   -6.6184   25.9162 N   0  0  0  0  0  0  0  0  0  0  0  0
    4.1406   -7.1232   24.9926 C   0  0  0  0  0  0  0  0  0  0  0  0
    4.9697   -6.3487   24.2182 C   0  0  0  0  0  0  0  0  0  0  0  0
    4.9759   -4.9403   24.4049 C   0  0  0  0  0  0  0  0  0  0  0  0
    5.7953   -4.0803   23.6284 C   0  0  0  0  0  0  0  0  0  0  0  0
    6.3712   -4.5015   22.8160 H   0  0  0  0  0  0  0  0  0  0  0  0
    5.6210   -6.7916   23.4733 H   0  0  0  0  0  0  0  0  0  0  0  0
    4.1225   -8.2023   24.8652 H   0  0  0  0  0  0  0  0  0  0  0  0
    2.5598   -4.9264   26.8265 H   0  0  0  0  0  0  0  0  0  0  0  0
    3.5225   -2.5608   26.4447 H   0  0  0  0  0  0  0  0  0  0  0  0
    5.1335   -1.1388   25.1833 H   0  0  0  0  0  0  0  0  0  0  0  0
    6.5398   -2.0126   21.6327 C   0  0  0  0  0  0  0  0  0  0  0  0
    6.1106   -2.9550   21.0167 O   0  0  0  0  0  0  0  0  0  0  0  0
    7.3052   -0.8070   21.0545 C   0  0  0  0  0  0  0  0  0  0  0  0
    6.6004   -0.0260   19.9524 C   0  0  0  0  0  0  0  0  0  0  0  0
    5.3831    0.6379   20.1585 C   0  0  0  0  0  0  0  0  0  0  0  0
    4.8048    1.3024   19.0740 C   0  0  0  0  0  0  0  0  0  0  0  0
    5.4612    1.2952   17.8368 C   0  0  0  0  0  0  0  0  0  0  0  0
    6.6335    0.6764   17.6281 N   0  0  0  0  0  0  0  0  0  0  0  0
    7.1750    0.0450   18.6757 C   0  0  0  0  0  0  0  0  0  0  0  0
    8.1270   -0.4523   18.4947 H   0  0  0  0  0  0  0  0  0  0  0  0
    5.0337    1.8161   16.9801 H   0  0  0  0  0  0  0  0  0  0  0  0
    3.8753    1.8531   19.1760 H   0  0  0  0  0  0  0  0  0  0  0  0
    4.9077    0.6608   21.1424 H   0  0  0  0  0  0  0  0  0  0  0  0
    8.2428   -1.2193   20.6556 H   0  0  0  0  0  0  0  0  0  0  0  0
    7.6367    2.0682   22.6136 H   0  0  0  0  0  0  0  0  0  0  0  0
    8.6774    1.4805   21.2967 H   0  0  0  0  0  0  0  0  0  0  0  0
    9.1133    1.1648   22.9955 H   0  0  0  0  0  0  0  0  0  0  0  0
  1  2  1  0
  2  3  1  0
  3  4  2  0
  3  5  1  0
  5  6  1  0
  6  7  2  0
  7  8  1  0
  8  9  2  0
  9 10  1  0
 10 11  2  0
 11 12  1  0
 12 13  2  0
 13 14  1  0
 14 15  2  0
 15 16  1  0
 13 17  1  0
 12 18  1  0
 10 19  1  0
  8 20  1  0
  7 21  1  0
  5 22  1  0
 22 23  2  0
 22 24  1  0
 24 25  1  0
 25 26  2  0
 26 27  1  0
 27 28  2  0
 28 29  1  0
 29 30  2  0
 30 31  1  0
 28 32  1  0
 27 33  1  0
 26 34  1  0
 24 35  1  0
  1 36  1  0
  1 37  1  0
  1 38  1  0
 24  2  1  0
 30 25  1  0
 15  6  1  0
 14  9  1  0
M  END
>  <cnnaffinity>  (1) 
5.25424

>  <plip>  (1) 
-0.07142857142857142

>  <filename>  (1) 
[H][c]1[n][c]([H])[c]([C]2([H])[C](=[O])[N]([c]3[c]([H])[c]([H])[c]4[c]([H])[n][c]([H])[c]([H])[c]4[c]3[H])[C](=[O])[N]2[C]([H])([H])[H])[c]([H])[c]1[H]

>  <combo1>  (1) 
-0.39298399295383624

$$$$
