
     RDKit          3D

 31 33  0  0  0  0  0  0  0  0999 V2000
    4.9335    1.7752   16.9993 H   0  0  0  0  0  0  0  0  0  0  0  0
    5.4076    1.2860   17.8471 C   0  0  0  0  0  0  0  0  0  0  0  0
    6.5701    0.6655   17.6000 N   0  0  0  0  0  0  0  0  0  0  0  0
    7.1735    0.0533   18.6215 C   0  0  0  0  0  0  0  0  0  0  0  0
    8.1200   -0.4253   18.3733 H   0  0  0  0  0  0  0  0  0  0  0  0
    6.6481    0.0099   19.9266 C   0  0  0  0  0  0  0  0  0  0  0  0
    7.3540   -0.6906   21.0085 C   0  0  0  0  0  0  0  0  0  0  0  0
    6.8885   -0.7558   22.2180 N   0  0  0  0  0  0  0  0  0  0  0  0
    7.7536   -1.4530   22.9836 N   0  0  0  0  0  0  0  0  0  0  0  0
    7.7679   -1.8156   24.3182 C   0  0  0  0  0  0  0  0  0  0  0  0
    6.7433   -1.4013   25.3223 C   0  0  0  0  0  0  0  0  0  0  0  0
    6.9276   -1.9796   26.2370 H   0  0  0  0  0  0  0  0  0  0  0  0
    5.7429   -1.6909   24.9746 H   0  0  0  0  0  0  0  0  0  0  0  0
    6.7711    0.1036   25.6537 C   0  0  0  0  0  0  0  0  0  0  0  0
    5.9112    0.3330   26.2936 H   0  0  0  0  0  0  0  0  0  0  0  0
    6.6311    0.6645   24.7241 H   0  0  0  0  0  0  0  0  0  0  0  0
    8.0331    0.5974   26.3616 C   0  0  0  0  0  0  0  0  0  0  0  0
    7.8156    1.5721   26.8369 H   0  0  0  0  0  0  0  0  0  0  0  0
    8.2719   -0.0974   27.1769 H   0  0  0  0  0  0  0  0  0  0  0  0
    9.1811    0.6335   25.4667 N   0  0  0  0  0  0  0  0  0  0  0  0
    9.0507    1.3482   24.7584 H   0  0  0  0  0  0  0  0  0  0  0  0
   10.0270    0.8638   25.9779 H   0  0  0  0  0  0  0  0  0  0  0  0
    8.9444   -2.5069   24.4397 C   0  0  0  0  0  0  0  0  0  0  0  0
    9.3621   -2.9088   25.3578 H   0  0  0  0  0  0  0  0  0  0  0  0
    9.6443   -2.5929   23.2587 N   0  0  0  0  0  0  0  0  0  0  0  0
    8.8883   -1.9446   22.4159 C   0  0  0  0  0  0  0  0  0  0  0  0
    8.9092   -1.5020   20.7369 S   0  0  0  0  0  0  0  0  0  0  0  0
    5.4237    0.6587   20.1707 C   0  0  0  0  0  0  0  0  0  0  0  0
    4.9922    0.6407   21.1750 H   0  0  0  0  0  0  0  0  0  0  0  0
    4.8031    1.3106   19.1080 C   0  0  0  0  0  0  0  0  0  0  0  0
    3.8728    1.8446   19.2522 H   0  0  0  0  0  0  0  0  0  0  0  0
  1  2  1  0
  2  3  2  0
  3  4  1  0
  4  5  1  0
  4  6  2  0
  6  7  1  0
  7  8  2  0
  8  9  1  0
  9 10  1  0
 10 11  1  0
 11 12  1  0
 11 13  1  0
 11 14  1  0
 14 15  1  0
 14 16  1  0
 14 17  1  0
 17 18  1  0
 17 19  1  0
 17 20  1  0
 20 21  1  0
 20 22  1  0
 10 23  2  0
 23 24  1  0
 23 25  1  0
 25 26  2  0
 26 27  1  0
  6 28  1  0
 28 29  1  0
 28 30  2  0
 30 31  1  0
 30  2  1  0
 27  7  1  0
 26  9  1  0
M  END
>  <cnnaffinity>  (1) 
4.95464

>  <plip>  (1) 
-0.07142857142857142

>  <filename>  (1) 
[H][c]1[n][c]([H])[c](-[c]2[n][n]3[c]([C]([H])([H])[C]([H])([H])[C]([H])([H])[N]([H])[H])[c]([H])[n][c]3[s]2)[c]([H])[c]1[H]

>  <combo1>  (1) 
-0.45487980568840286

$$$$
