
     RDKit          3D

 36 38  0  0  0  0  0  0  0  0999 V2000
    4.7965    1.3564   19.0587 C   0  0  0  0  0  0  0  0  0  0  0  0
    5.3948    1.3341   17.7966 C   0  0  0  0  0  0  0  0  0  0  0  0
    6.5585    0.7201   17.5382 N   0  0  0  0  0  0  0  0  0  0  0  0
    7.1697    0.1187   18.5690 C   0  0  0  0  0  0  0  0  0  0  0  0
    6.6644    0.0805   19.8838 C   0  0  0  0  0  0  0  0  0  0  0  0
    7.3481   -0.7103   20.9799 C   0  0  0  0  0  0  0  0  0  0  0  0
    6.8647   -2.1595   20.9711 C   0  0  0  0  0  0  0  0  0  0  0  0
    7.3709   -2.9711   22.1143 N   0  0  0  0  0  4  0  0  0  0  0  0
    6.7558   -4.3481   22.1796 C   0  0  0  0  0  0  0  0  0  0  0  0
    7.0791   -4.9783   23.5232 C   0  0  0  0  0  0  0  0  0  0  0  0
    8.5472   -4.9117   23.8939 C   0  0  0  0  0  0  0  0  0  0  0  0
    9.0918   -5.7709   24.8617 C   0  0  0  0  0  0  0  0  0  0  0  0
   10.3386   -5.6904   25.3275 N   0  0  0  0  0  0  0  0  0  0  0  0
   11.1097   -4.7281   24.8105 C   0  0  0  0  0  0  0  0  0  0  0  0
   10.6941   -3.8340   23.8240 C   0  0  0  0  0  0  0  0  0  0  0  0
    9.3832   -3.9398   23.3238 C   0  0  0  0  0  0  0  0  0  0  0  0
    8.9004   -3.1000   22.1622 C   0  0  0  0  0  0  0  0  0  0  0  0
    9.3451   -2.1105   22.2338 H   0  0  0  0  0  0  0  0  0  0  0  0
    9.2307   -3.5358   21.2134 H   0  0  0  0  0  0  0  0  0  0  0  0
   11.4024   -3.1085   23.4454 H   0  0  0  0  0  0  0  0  0  0  0  0
   12.1272   -4.7310   25.1600 H   0  0  0  0  0  0  0  0  0  0  0  0
    8.4875   -6.5851   25.2610 H   0  0  0  0  0  0  0  0  0  0  0  0
    6.7231   -6.0104   23.5367 H   0  0  0  0  0  0  0  0  0  0  0  0
    6.4960   -4.4424   24.2823 H   0  0  0  0  0  0  0  0  0  0  0  0
    7.1519   -4.9448   21.3531 H   0  0  0  0  0  0  0  0  0  0  0  0
    5.6741   -4.2610   22.0469 H   0  0  0  0  0  0  0  0  0  0  0  0
    7.0912   -2.4790   22.9974 H   0  0  0  0  0  0  0  0  0  0  0  0
    7.1543   -2.6277   20.0255 H   0  0  0  0  0  0  0  0  0  0  0  0
    5.7694   -2.1700   20.9786 H   0  0  0  0  0  0  0  0  0  0  0  0
    8.4364   -0.6857   20.8500 H   0  0  0  0  0  0  0  0  0  0  0  0
    7.1232   -0.2904   21.9674 H   0  0  0  0  0  0  0  0  0  0  0  0
    5.4397    0.7179   20.1194 C   0  0  0  0  0  0  0  0  0  0  0  0
    4.9999    0.7158   21.1196 H   0  0  0  0  0  0  0  0  0  0  0  0
    8.1124   -0.3773   18.3306 H   0  0  0  0  0  0  0  0  0  0  0  0
    4.9121    1.8176   16.9510 H   0  0  0  0  0  0  0  0  0  0  0  0
    3.8476    1.8645   19.1961 H   0  0  0  0  0  0  0  0  0  0  0  0
  1  2  2  0
  2  3  1  0
  3  4  2  0
  4  5  1  0
  5  6  1  0
  6  7  1  0
  7  8  1  0
  8  9  1  0
  9 10  1  0
 10 11  1  0
 11 12  2  0
 12 13  1  0
 13 14  2  0
 14 15  1  0
 15 16  2  0
 16 17  1  0
 17 18  1  0
 17 19  1  0
 15 20  1  0
 14 21  1  0
 12 22  1  0
 10 23  1  0
 10 24  1  0
  9 25  1  0
  9 26  1  0
  8 27  1  0
  7 28  1  0
  7 29  1  0
  6 30  1  0
  6 31  1  0
  5 32  2  0
 32 33  1  0
  4 34  1  0
  2 35  1  0
  1 36  1  0
 32  1  1  0
 17  8  1  0
 16 11  1  0
M  CHG  1   8   1
M  END
>  <cnnaffinity>  (1) 
4.9377

>  <plip>  (1) 
-0.13793103448275862

>  <filename>  (1) 
[H][c]1[n][c]([H])[c]([C]([H])([H])[C]([H])([H])[N+]2([H])[C]([H])([H])[c]3[c]([H])[c]([H])[n][c]([H])[c]3[C]([H])([H])[C]2([H])[H])[c]([H])[c]1[H]

>  <combo1>  (1) 
-0.9446206867855544

$$$$
