
     RDKit          3D

 33 35  0  0  0  0  0  0  0  0999 V2000
    5.7135   -2.2062   21.3728 O   0  0  0  0  0  0  0  0  0  0  0  0
    6.8020   -1.7420   21.6167 C   0  0  0  0  0  0  0  0  0  0  0  0
    7.7063   -2.1775   22.7018 C   0  0  0  0  0  0  0  0  0  0  0  0
    7.2932   -2.9415   23.7386 C   0  0  0  0  0  0  0  0  0  0  0  0
    8.1970   -3.5012   24.7598 C   0  0  0  0  0  0  0  0  0  0  0  0
    9.3212   -4.2631   24.4068 C   0  0  0  0  0  0  0  0  0  0  0  0
   10.1471   -4.8146   25.3945 C   0  0  0  0  0  0  0  0  0  0  0  0
    9.8127   -4.6556   26.7430 C   0  0  0  0  0  0  0  0  0  0  0  0
    8.6994   -3.8943   27.1116 C   0  0  0  0  0  0  0  0  0  0  0  0
    7.9348   -3.2532   26.1284 C   0  0  0  0  0  0  0  0  0  0  0  0
    6.8378   -2.2579   26.4780 C   0  0  0  0  0  0  0  0  0  0  0  0
    6.9546   -1.7420   27.7091 F   0  0  0  0  0  0  0  0  0  0  0  0
    6.8268   -1.2090   25.6263 F   0  0  0  0  0  0  0  0  0  0  0  0
    5.6133   -2.8182   26.4016 F   0  0  0  0  0  0  0  0  0  0  0  0
    8.4415   -3.7992   28.1641 H   0  0  0  0  0  0  0  0  0  0  0  0
   10.4194   -5.1159   27.5203 H   0  0  0  0  0  0  0  0  0  0  0  0
   11.0395   -5.3743   25.1148 H   0  0  0  0  0  0  0  0  0  0  0  0
    9.5381   -4.4187   23.3562 H   0  0  0  0  0  0  0  0  0  0  0  0
    6.2238   -3.0539   23.9120 H   0  0  0  0  0  0  0  0  0  0  0  0
    9.2827   -1.4184   22.5278 S   0  0  0  0  0  0  0  0  0  0  0  0
    8.6939   -0.3341   21.2785 C   0  0  0  0  0  0  0  0  0  0  0  0
    9.5886    0.9091   20.7200 S   0  0  0  0  0  0  0  0  0  0  0  0
    7.4137   -0.6911   20.8835 N   0  0  0  0  0  0  0  0  0  0  0  0
    6.6852    0.0041   19.8390 C   0  0  0  0  0  0  0  0  0  0  0  0
    5.4716    0.6370   20.1185 C   0  0  0  0  0  0  0  0  0  0  0  0
    4.8294    1.3168   19.0752 C   0  0  0  0  0  0  0  0  0  0  0  0
    5.4134    1.3171   17.8030 C   0  0  0  0  0  0  0  0  0  0  0  0
    6.5703    0.6958   17.5217 N   0  0  0  0  0  0  0  0  0  0  0  0
    7.1847    0.0580   18.5234 C   0  0  0  0  0  0  0  0  0  0  0  0
    8.1219   -0.4441   18.3036 H   0  0  0  0  0  0  0  0  0  0  0  0
    4.9380    1.8284   16.9685 H   0  0  0  0  0  0  0  0  0  0  0  0
    3.8909    1.8383   19.2316 H   0  0  0  0  0  0  0  0  0  0  0  0
    5.0465    0.5871   21.1218 H   0  0  0  0  0  0  0  0  0  0  0  0
  1  2  2  0
  2  3  1  0
  3  4  2  3
  4  5  1  0
  5  6  2  0
  6  7  1  0
  7  8  2  0
  8  9  1  0
  9 10  2  0
 10 11  1  0
 11 12  1  0
 11 13  1  0
 11 14  1  0
  9 15  1  0
  8 16  1  0
  7 17  1  0
  6 18  1  0
  4 19  1  0
  3 20  1  0
 20 21  1  0
 21 22  2  0
 21 23  1  0
 23 24  1  0
 24 25  2  0
 25 26  1  0
 26 27  2  0
 27 28  1  0
 28 29  2  0
 29 30  1  0
 27 31  1  0
 26 32  1  0
 25 33  1  0
 23  2  1  0
 29 24  1  0
 10  5  1  0
M  END
>  <cnnaffinity>  (1) 
5.14532

>  <plip>  (1) 
-0.07142857142857142

>  <filename>  (1) 
[H][C](=[C]1[S][C](=[S])[N]([c]2[c]([H])[n][c]([H])[c]([H])[c]2[H])[C]1=[O])[c]1[c]([H])[c]([H])[c]([H])[c]([H])[c]1[C]([F])([F])[F]

>  <combo1>  (1) 
-0.3343648937266649

$$$$
