
     RDKit          3D

 30 33  0  0  0  0  0  0  0  0999 V2000
    4.8219    1.3008   19.1050 C   0  0  0  0  0  0  0  0  0  0  0  0
    5.4191    1.2757   17.8407 C   0  0  0  0  0  0  0  0  0  0  0  0
    6.5801    0.6496   17.5919 N   0  0  0  0  0  0  0  0  0  0  0  0
    7.1955    0.0394   18.6055 C   0  0  0  0  0  0  0  0  0  0  0  0
    6.6756    0.0052   19.9094 C   0  0  0  0  0  0  0  0  0  0  0  0
    7.3863   -0.6812   20.9198 N   0  0  0  0  0  0  0  0  0  0  0  0
    6.8650   -1.1857   22.0589 C   0  0  0  0  0  0  0  0  0  0  0  0
    7.8786   -1.7827   22.7750 C   0  0  0  0  0  0  0  0  0  0  0  0
    7.7737   -2.4493   24.0868 C   0  0  0  0  0  0  0  0  0  0  0  0
    6.5116   -2.7683   24.6493 C   0  0  0  0  0  0  0  0  0  0  0  0
    6.3780   -3.4174   25.8759 C   0  0  0  0  0  0  0  0  0  0  0  0
    7.5543   -3.7922   26.5497 C   0  0  0  0  0  0  0  0  0  0  0  0
    7.7928   -4.7065   28.0107 S   0  0  0  0  0  0  0  0  0  0  0  0
    9.5268   -4.5530   27.7747 C   0  0  0  0  0  0  0  0  0  0  0  0
    9.9101   -3.9258   26.7228 N   0  0  0  0  0  0  0  0  0  0  0  0
    8.8162   -3.4773   26.0044 C   0  0  0  0  0  0  0  0  0  0  0  0
    8.9211   -2.7902   24.7959 C   0  0  0  0  0  0  0  0  0  0  0  0
    9.9190   -2.5677   24.4415 H   0  0  0  0  0  0  0  0  0  0  0  0
   10.2343   -4.9297   28.5124 H   0  0  0  0  0  0  0  0  0  0  0  0
    5.3936   -3.6469   26.2862 H   0  0  0  0  0  0  0  0  0  0  0  0
    5.6196   -2.5072   24.0940 H   0  0  0  0  0  0  0  0  0  0  0  0
    9.0154   -1.5829   21.9279 C   0  0  0  0  0  0  0  0  0  0  0  0
    8.7037   -0.9343   20.8214 N   0  0  0  0  0  0  0  0  0  0  0  0
   10.0482   -1.8862   22.0546 H   0  0  0  0  0  0  0  0  0  0  0  0
    5.8079   -1.0694   22.2303 H   0  0  0  0  0  0  0  0  0  0  0  0
    5.4552    0.6554   20.1674 C   0  0  0  0  0  0  0  0  0  0  0  0
    5.0140    0.6832   21.1635 H   0  0  0  0  0  0  0  0  0  0  0  0
    8.1445   -0.4355   18.3794 H   0  0  0  0  0  0  0  0  0  0  0  0
    4.9642    1.7842   16.9981 H   0  0  0  0  0  0  0  0  0  0  0  0
    3.8846    1.8305   19.2503 H   0  0  0  0  0  0  0  0  0  0  0  0
  1  2  2  0
  2  3  1  0
  3  4  2  0
  4  5  1  0
  5  6  1  0
  6  7  1  0
  7  8  2  0
  8  9  1  0
  9 10  2  0
 10 11  1  0
 11 12  2  0
 12 13  1  0
 13 14  1  0
 14 15  2  0
 15 16  1  0
 16 17  2  0
 17 18  1  0
 14 19  1  0
 11 20  1  0
 10 21  1  0
  8 22  1  0
 22 23  2  0
 22 24  1  0
  7 25  1  0
  5 26  2  0
 26 27  1  0
  4 28  1  0
  2 29  1  0
  1 30  1  0
 26  1  1  0
 23  6  1  0
 17  9  1  0
 16 12  1  0
M  END
>  <cnnaffinity>  (1) 
5.51611

>  <plip>  (1) 
-0.03571428571428571

>  <filename>  (1) 
[H][c]1[n][c]2[c]([H])[c](-[c]3[c]([H])[n][n](-[c]4[c]([H])[n][c]([H])[c]([H])[c]4[H])[c]3[H])[c]([H])[c]([H])[c]2[s]1

>  <combo1>  (1) 
-0.23592719763769568

$$$$
