
     RDKit          3D

 37 39  0  0  0  0  0  0  0  0999 V2000
    7.1685    1.7616   22.3879 O   0  0  0  0  0  0  0  0  0  0  0  0
    8.2971    1.4367   22.0404 C   0  0  0  0  0  0  0  0  0  0  0  0
    8.5492    0.2313   21.4480 N   0  0  0  0  0  0  0  0  0  0  0  0
    7.4854   -0.6780   20.9912 C   0  0  0  0  0  0  0  0  0  0  0  0
    6.6667   -1.2633   22.1687 C   0  0  0  0  0  0  0  0  0  0  0  0
    5.7061   -2.1952   21.6746 O   0  0  0  0  0  0  0  0  0  0  0  0
    5.1050   -2.3956   22.4043 H   0  0  0  0  0  0  0  0  0  0  0  0
    6.2210   -0.4244   22.7192 H   0  0  0  0  0  0  0  0  0  0  0  0
    7.3676   -1.7747   22.8422 H   0  0  0  0  0  0  0  0  0  0  0  0
    6.6536    0.0078   19.9092 C   0  0  0  0  0  0  0  0  0  0  0  0
    5.4298    0.6512   20.1459 C   0  0  0  0  0  0  0  0  0  0  0  0
    4.7941    1.3040   19.0862 C   0  0  0  0  0  0  0  0  0  0  0  0
    5.3989    1.2924   17.8261 C   0  0  0  0  0  0  0  0  0  0  0  0
    6.5684    0.6822   17.5770 N   0  0  0  0  0  0  0  0  0  0  0  0
    7.1709    0.0726   18.6051 C   0  0  0  0  0  0  0  0  0  0  0  0
    8.1251   -0.4008   18.3688 H   0  0  0  0  0  0  0  0  0  0  0  0
    4.9375    1.7964   16.9786 H   0  0  0  0  0  0  0  0  0  0  0  0
    3.8649    1.8448   19.2318 H   0  0  0  0  0  0  0  0  0  0  0  0
    4.9968    0.6697   21.1477 H   0  0  0  0  0  0  0  0  0  0  0  0
    7.9855   -1.5432   20.5358 H   0  0  0  0  0  0  0  0  0  0  0  0
    9.5142   -0.0528   21.3900 H   0  0  0  0  0  0  0  0  0  0  0  0
    9.5029    2.3460   22.2606 C   0  0  0  0  0  0  0  0  0  0  0  0
   10.6749    2.2610   21.4741 C   0  0  0  0  0  0  0  0  0  0  0  0
   11.7537    3.1345   21.6697 C   0  0  0  0  0  0  0  0  0  0  0  0
   11.6824    4.1054   22.6629 C   0  0  0  0  0  0  0  0  0  0  0  0
   12.6561    5.1670   23.1093 C   0  0  0  0  0  0  0  0  0  0  0  0
   11.8552    5.8582   24.2444 C   0  0  0  0  0  0  0  0  0  0  0  0
   10.5748    5.1959   24.3553 O   0  0  0  0  0  0  0  0  0  0  0  0
   10.5210    4.1984   23.4345 C   0  0  0  0  0  0  0  0  0  0  0  0
    9.4280    3.3502   23.2516 C   0  0  0  0  0  0  0  0  0  0  0  0
    8.5293    3.4868   23.8504 H   0  0  0  0  0  0  0  0  0  0  0  0
   12.3474    5.7738   25.2198 H   0  0  0  0  0  0  0  0  0  0  0  0
   11.6564    6.9151   24.0359 H   0  0  0  0  0  0  0  0  0  0  0  0
   13.6031    4.7443   23.4648 H   0  0  0  0  0  0  0  0  0  0  0  0
   12.9208    5.8606   22.3025 H   0  0  0  0  0  0  0  0  0  0  0  0
   12.6387    3.0745   21.0455 H   0  0  0  0  0  0  0  0  0  0  0  0
   10.7597    1.5497   20.6584 H   0  0  0  0  0  0  0  0  0  0  0  0
  1  2  2  0
  2  3  1  0
  3  4  1  0
  4  5  1  0
  5  6  1  0
  6  7  1  0
  5  8  1  0
  5  9  1  0
  4 10  1  0
 10 11  2  0
 11 12  1  0
 12 13  2  0
 13 14  1  0
 14 15  2  0
 15 16  1  0
 13 17  1  0
 12 18  1  0
 11 19  1  0
  4 20  1  0
  3 21  1  0
  2 22  1  0
 22 23  2  0
 23 24  1  0
 24 25  2  0
 25 26  1  0
 26 27  1  0
 27 28  1  0
 28 29  1  0
 29 30  2  0
 30 31  1  0
 27 32  1  0
 27 33  1  0
 26 34  1  0
 26 35  1  0
 24 36  1  0
 23 37  1  0
 15 10  1  0
 30 22  1  0
 29 25  1  0
M  END
>  <cnnaffinity>  (1) 
4.51362

>  <plip>  (1) 
-0.14285714285714285

>  <filename>  (1) 
[H][O][C]([H])([H])[C]([H])([c]1[c]([H])[n][c]([H])[c]([H])[c]1[H])[N]([H])[C](=[O])[c]1[c]([H])[c]([H])[c]2[c]([c]1[H])[O][C]([H])([H])[C]2([H])[H]

>  <combo1>  (1) 
-0.7559723747051187

$$$$
