
     RDKit          3D

 36 38  0  0  0  0  0  0  0  0999 V2000
    6.5206   -2.7417   21.7400 C   0  0  0  0  0  0  0  0  0  0  0  0
    7.5226   -1.9178   20.9287 C   0  0  0  0  0  0  0  0  0  0  0  0
    8.9573   -2.3761   21.1886 C   0  0  0  0  0  0  0  0  0  0  0  0
    9.2289   -2.2711   22.2395 H   0  0  0  0  0  0  0  0  0  0  0  0
    9.6742   -1.8176   20.5797 H   0  0  0  0  0  0  0  0  0  0  0  0
    9.0344   -3.4333   20.9180 H   0  0  0  0  0  0  0  0  0  0  0  0
    7.3340   -0.4423   21.0765 N   0  0  0  0  0  0  0  0  0  0  0  0
    7.6111    0.1469   22.3138 C   0  0  0  0  0  0  0  0  0  0  0  0
    7.9146   -0.5424   23.2840 O   0  0  0  0  0  0  0  0  0  0  0  0
    7.6990    1.6488   22.5331 C   0  0  0  0  0  0  0  0  0  0  0  0
    8.3319    2.2408   23.5897 C   0  0  0  0  0  0  0  0  0  0  0  0
    8.4032    3.6355   23.3224 C   0  0  0  0  0  0  0  0  0  0  0  0
    9.0095    4.7558   23.9127 C   0  0  0  0  0  0  0  0  0  0  0  0
    8.9287    5.9525   23.2075 C   0  0  0  0  0  0  0  0  0  0  0  0
    8.2094    5.9961   21.9932 C   0  0  0  0  0  0  0  0  0  0  0  0
    7.5881    4.9510   21.4382 N   0  0  0  0  0  0  0  0  0  0  0  0
    7.7367    3.8167   22.0965 C   0  0  0  0  0  0  0  0  0  0  0  0
    7.2907    2.6215   21.6294 O   0  0  0  0  0  0  0  0  0  0  0  0
    8.1486    6.9381   21.4495 H   0  0  0  0  0  0  0  0  0  0  0  0
    9.4149    6.8538   23.5620 H   0  0  0  0  0  0  0  0  0  0  0  0
    9.5379    4.6727   24.8630 H   0  0  0  0  0  0  0  0  0  0  0  0
    8.6903    1.7880   24.5082 H   0  0  0  0  0  0  0  0  0  0  0  0
    6.6756    0.2123   19.9760 C   0  0  0  0  0  0  0  0  0  0  0  0
    5.4294    0.8224   20.1570 C   0  0  0  0  0  0  0  0  0  0  0  0
    4.7910    1.3888   19.0481 C   0  0  0  0  0  0  0  0  0  0  0  0
    5.4135    1.3326   17.7990 C   0  0  0  0  0  0  0  0  0  0  0  0
    6.5934    0.7243   17.5941 N   0  0  0  0  0  0  0  0  0  0  0  0
    7.1913    0.1697   18.6545 C   0  0  0  0  0  0  0  0  0  0  0  0
    8.1296   -0.3439   18.4427 H   0  0  0  0  0  0  0  0  0  0  0  0
    4.9506    1.7832   16.9247 H   0  0  0  0  0  0  0  0  0  0  0  0
    3.8291    1.8803   19.1499 H   0  0  0  0  0  0  0  0  0  0  0  0
    4.9804    0.8524   21.1500 H   0  0  0  0  0  0  0  0  0  0  0  0
    7.2929   -2.1076   19.8765 H   0  0  0  0  0  0  0  0  0  0  0  0
    6.6807   -2.6116   22.8119 H   0  0  0  0  0  0  0  0  0  0  0  0
    6.6496   -3.8038   21.4922 H   0  0  0  0  0  0  0  0  0  0  0  0
    5.4930   -2.4600   21.4935 H   0  0  0  0  0  0  0  0  0  0  0  0
  1  2  1  0
  2  3  1  0
  3  4  1  0
  3  5  1  0
  3  6  1  0
  2  7  1  0
  7  8  1  0
  8  9  2  0
  8 10  1  0
 10 11  2  0
 11 12  1  0
 12 13  2  0
 13 14  1  0
 14 15  2  0
 15 16  1  0
 16 17  2  0
 17 18  1  0
 15 19  1  0
 14 20  1  0
 13 21  1  0
 11 22  1  0
  7 23  1  0
 23 24  2  0
 24 25  1  0
 25 26  2  0
 26 27  1  0
 27 28  2  0
 28 29  1  0
 26 30  1  0
 25 31  1  0
 24 32  1  0
  2 33  1  0
  1 34  1  0
  1 35  1  0
  1 36  1  0
 18 10  1  0
 28 23  1  0
 17 12  1  0
M  END
>  <cnnaffinity>  (1) 
4.85929

>  <plip>  (1) 
-0.10714285714285714

>  <filename>  (1) 
[H][c]1[n][c]([H])[c]([N]([C](=[O])[c]2[o][c]3[n][c]([H])[c]([H])[c]([H])[c]3[c]2[H])[C]([H])([C]([H])([H])[H])[C]([H])([H])[H])[c]([H])[c]1[H]

>  <combo1>  (1) 
-0.6169101236285711

$$$$
