
     RDKit          3D

 32 32  0  0  0  0  0  0  0  0999 V2000
   12.8832    0.5711   24.2746 C   0  0  0  0  0  0  0  0  0  0  0  0
   12.5580    0.7150   24.1967 C   0  0  0  0  0  0  0  0  0  0  0  0
   11.6452   -0.0872   24.8510 C   0  0  0  0  0  0  0  0  0  0  0  0
   10.5334   -0.6338   24.2348 C   0  0  0  0  0  0  0  0  0  0  0  0
   10.3927   -2.2082   24.0600 C   0  0  0  0  0  0  0  0  0  0  0  0
    8.9352   -2.7028   23.9891 C   0  0  0  0  0  0  0  0  0  0  0  0
    8.0265   -1.9768   23.0128 C   0  0  0  0  0  0  0  0  0  0  0  0
    8.6258   -2.0389   21.7080 O   0  0  0  0  0  0  0  0  0  0  0  0
    8.0866   -1.3360   20.6584 N   0  0  0  0  0  0  0  0  0  0  0  0
    7.0103   -0.6557   20.8026 C   0  0  0  0  0  0  0  0  0  0  0  0
    6.4388    0.0840   19.6741 C   0  0  0  0  0  0  0  0  0  0  0  0
    5.2534    0.8134   19.8402 C   0  0  0  0  0  0  0  0  0  0  0  0
    4.7384    1.5087   18.7494 C   0  0  0  0  0  0  0  0  0  0  0  0
    5.4274    1.4487   17.5328 C   0  0  0  0  0  0  0  0  0  0  0  0
    6.5570    0.7486   17.3546 N   0  0  0  0  0  0  0  0  0  0  0  0
    7.0476    0.0869   18.4076 C   0  0  0  0  0  0  0  0  0  0  0  0
    7.9655   -0.4699   18.2397 H   0  0  0  0  0  0  0  0  0  0  0  0
    5.0525    1.9826   16.6627 H   0  0  0  0  0  0  0  0  0  0  0  0
    3.8317    2.0985   18.8269 H   0  0  0  0  0  0  0  0  0  0  0  0
    4.7398    0.8430   20.8040 H   0  0  0  0  0  0  0  0  0  0  0  0
    6.4647   -0.5845   21.7457 H   0  0  0  0  0  0  0  0  0  0  0  0
    7.8799   -0.9281   23.3100 H   0  0  0  0  0  0  0  0  0  0  0  0
    7.0413   -2.4650   22.9783 H   0  0  0  0  0  0  0  0  0  0  0  0
    8.4475   -2.6589   24.9756 H   0  0  0  0  0  0  0  0  0  0  0  0
    8.9380   -3.7658   23.7164 H   0  0  0  0  0  0  0  0  0  0  0  0
   10.8670   -2.7463   24.8859 H   0  0  0  0  0  0  0  0  0  0  0  0
   10.9040   -2.5527   23.1516 H   0  0  0  0  0  0  0  0  0  0  0  0
   10.3945   -0.2182   23.2263 H   0  0  0  0  0  0  0  0  0  0  0  0
    9.6341   -0.3235   24.7926 H   0  0  0  0  0  0  0  0  0  0  0  0
   12.7895    0.6138   23.0400 H   0  0  0  0  0  0  0  0  0  0  0  0
   12.9567    1.8472   24.4964 H   0  0  0  0  0  0  0  0  0  0  0  0
   13.9362    0.1193   24.6643 H   0  0  0  0  0  0  0  0  0  0  0  0
  1  2  1  0
  2  3  3  0
  3  4  1  0
  4  5  1  0
  5  6  1  0
  6  7  1  0
  7  8  1  0
  8  9  1  0
  9 10  2  3
 10 11  1  0
 11 12  2  0
 12 13  1  0
 13 14  2  0
 14 15  1  0
 15 16  2  0
 16 17  1  0
 14 18  1  0
 13 19  1  0
 12 20  1  0
 10 21  1  0
  7 22  1  0
  7 23  1  0
  6 24  1  0
  6 25  1  0
  5 26  1  0
  5 27  1  0
  4 28  1  0
  4 29  1  0
  1 30  1  0
  1 31  1  0
  1 32  1  0
 16 11  1  0
M  END
>  <cnnaffinity>  (1) 
4.51207

>  <plip>  (1) 
-0.06666666666666667

>  <filename>  (1) 
[H][C](=[N][O][C]([H])([H])[C]([H])([H])[C]([H])([H])[C]([H])([H])[C]#[C][C]([H])([H])[H])[c]1[c]([H])[n][c]([H])[c]([H])[c]1[H]

>  <combo1>  (1) 
-0.4635951906854976

$$$$
