
     RDKit          3D

 23 24  0  0  0  0  0  0  0  0999 V2000
    4.3910   -2.5303   18.2788 H   0  0  0  0  0  0  0  0  0  0  0  0
    4.9841   -3.1243   18.8582 N   0  0  0  0  0  0  0  0  0  0  0  0
    5.6758   -2.3692   19.5882 N   0  0  0  0  0  4  0  0  0  0  0  0
    6.5206   -2.9073   20.3905 N   0  0  0  0  0  0  0  0  0  0  0  0
    7.3294   -1.9820   21.0925 C   0  0  0  0  0  0  0  0  0  0  0  0
    8.2491   -2.5368   21.9945 C   0  0  0  0  0  0  0  0  0  0  0  0
    8.3845   -3.6159   21.9871 H   0  0  0  0  0  0  0  0  0  0  0  0
    8.9383   -1.8329   22.8874 N   0  0  0  0  0  0  0  0  0  0  0  0
    8.7495   -0.5040   22.9474 C   0  0  0  0  0  0  0  0  0  0  0  0
    9.2829    0.0183   23.7413 H   0  0  0  0  0  0  0  0  0  0  0  0
    7.9280    0.1673   22.0512 C   0  0  0  0  0  0  0  0  0  0  0  0
    7.8161    1.2442   22.0944 H   0  0  0  0  0  0  0  0  0  0  0  0
    7.2873   -0.5719   21.0455 C   0  0  0  0  0  0  0  0  0  0  0  0
    6.6434    0.1785   19.9549 C   0  0  0  0  0  0  0  0  0  0  0  0
    7.2151    0.2107   18.6749 C   0  0  0  0  0  0  0  0  0  0  0  0
    8.1684   -0.2918   18.4906 H   0  0  0  0  0  0  0  0  0  0  0  0
    6.6283    0.7864   17.6222 N   0  0  0  0  0  0  0  0  0  0  0  0
    5.4387    1.3781   17.8183 C   0  0  0  0  0  0  0  0  0  0  0  0
    4.9835    1.8467   16.9466 H   0  0  0  0  0  0  0  0  0  0  0  0
    4.7976    1.4142   19.0600 C   0  0  0  0  0  0  0  0  0  0  0  0
    3.8401    1.9123   19.1593 H   0  0  0  0  0  0  0  0  0  0  0  0
    5.4206    0.8218   20.1572 C   0  0  0  0  0  0  0  0  0  0  0  0
    4.9601    0.8063   21.1488 H   0  0  0  0  0  0  0  0  0  0  0  0
  1  2  1  0
  2  3  2  0
  3  4  2  0
  4  5  1  0
  5  6  2  0
  6  7  1  0
  6  8  1  0
  8  9  2  0
  9 10  1  0
  9 11  1  0
 11 12  1  0
 11 13  2  0
 13 14  1  0
 14 15  2  0
 15 16  1  0
 15 17  1  0
 17 18  2  0
 18 19  1  0
 18 20  1  0
 20 21  1  0
 20 22  2  0
 22 23  1  0
 13  5  1  0
 22 14  1  0
M  CHG  1   3   1
M  END
>  <cnnaffinity>  (1) 
4.40995

>  <plip>  (1) 
-0.1724137931034483

>  <filename>  (1) 
[H][N]=[N+]=[N][c]1[c]([H])[n][c]([H])[c]([H])[c]1-[c]1[c]([H])[n][c]([H])[c]([H])[c]1[H]

>  <combo1>  (1) 
-1.2786775691257741

$$$$
