
     RDKit          3D

 32 33  0  0  0  0  0  0  0  0999 V2000
    5.0790   -2.9142   21.4624 C   0  0  0  0  0  0  0  0  0  0  0  0
    6.2795   -3.5187   22.0970 C   0  0  0  0  0  0  0  0  0  0  0  0
    6.1425   -4.5089   23.0765 C   0  0  0  0  0  0  0  0  0  0  0  0
    4.4204   -5.0231   23.7157 Br  0  0  0  0  0  0  0  0  0  0  0  0
    7.2834   -5.0828   23.6361 C   0  0  0  0  0  0  0  0  0  0  0  0
    8.5524   -4.6654   23.2497 C   0  0  0  0  0  0  0  0  0  0  0  0
    8.6723   -3.6762   22.2720 C   0  0  0  0  0  0  0  0  0  0  0  0
    7.5502   -3.1117   21.6801 C   0  0  0  0  0  0  0  0  0  0  0  0
    7.7317   -2.1084   20.7251 N   0  0  0  0  0  0  0  0  0  0  0  0
    7.3563   -0.7470   21.0878 C   0  0  0  0  0  0  0  0  0  0  0  0
    8.7062   -0.0674   21.2920 C   0  0  0  0  0  0  0  0  0  0  0  0
    8.5832    0.9939   21.5260 H   0  0  0  0  0  0  0  0  0  0  0  0
    9.3202   -0.1596   20.3898 H   0  0  0  0  0  0  0  0  0  0  0  0
    9.2407   -0.5597   22.1089 H   0  0  0  0  0  0  0  0  0  0  0  0
    6.6141   -0.0723   19.9668 C   0  0  0  0  0  0  0  0  0  0  0  0
    5.4126    0.6201   20.1674 C   0  0  0  0  0  0  0  0  0  0  0  0
    4.8515    1.2763   19.0695 C   0  0  0  0  0  0  0  0  0  0  0  0
    5.4909    1.2284   17.8247 C   0  0  0  0  0  0  0  0  0  0  0  0
    6.6331    0.5458   17.6301 N   0  0  0  0  0  0  0  0  0  0  0  0
    7.1752   -0.0885   18.6852 C   0  0  0  0  0  0  0  0  0  0  0  0
    8.1063   -0.6233   18.5343 H   0  0  0  0  0  0  0  0  0  0  0  0
    5.0468    1.7584   16.9867 H   0  0  0  0  0  0  0  0  0  0  0  0
    3.9315    1.8418   19.1678 H   0  0  0  0  0  0  0  0  0  0  0  0
    4.9331    0.6653   21.1453 H   0  0  0  0  0  0  0  0  0  0  0  0
    6.7600   -0.7225   22.0111 H   0  0  0  0  0  0  0  0  0  0  0  0
    8.6245   -2.1384   20.2361 H   0  0  0  0  0  0  0  0  0  0  0  0
    9.6374   -3.2772   22.0086 H   0  0  0  0  0  0  0  0  0  0  0  0
    9.4350   -5.0799   23.7335 H   0  0  0  0  0  0  0  0  0  0  0  0
    7.1643   -5.8230   24.4135 H   0  0  0  0  0  0  0  0  0  0  0  0
    5.0123   -3.2477   20.4221 H   0  0  0  0  0  0  0  0  0  0  0  0
    5.1648   -1.8252   21.4659 H   0  0  0  0  0  0  0  0  0  0  0  0
    4.1629   -3.1979   21.9869 H   0  0  0  0  0  0  0  0  0  0  0  0
  1  2  1  0
  2  3  2  0
  3  4  1  0
  3  5  1  0
  5  6  2  0
  6  7  1  0
  7  8  2  0
  8  9  1  0
  9 10  1  0
 10 11  1  0
 11 12  1  0
 11 13  1  0
 11 14  1  0
 10 15  1  0
 15 16  2  0
 16 17  1  0
 17 18  2  0
 18 19  1  0
 19 20  2  0
 20 21  1  0
 18 22  1  0
 17 23  1  0
 16 24  1  0
 10 25  1  0
  9 26  1  0
  7 27  1  0
  6 28  1  0
  5 29  1  0
  1 30  1  0
  1 31  1  0
  1 32  1  0
  8  2  1  0
 20 15  1  0
M  END
>  <cnnaffinity>  (1) 
4.32154

>  <plip>  (1) 
-0.06451612903225806

>  <filename>  (1) 
[H][c]1[n][c]([H])[c]([C]([H])([N]([H])[c]2[c]([H])[c]([H])[c]([H])[c]([Br])[c]2[C]([H])([H])[H])[C]([H])([H])[H])[c]([H])[c]1[H]

>  <combo1>  (1) 
-0.31915830134763856

$$$$
