
     RDKit          3D

 43 45  0  0  0  0  0  0  0  0999 V2000
    8.0311   -0.6160   24.4118 C   0  0  0  0  0  0  0  0  0  0  0  0
    8.8538   -0.3825   23.1468 C   0  0  0  0  0  0  0  0  0  0  0  0
    7.9929    0.0854   22.0060 N   0  0  0  0  0  4  0  0  0  0  0  0
    7.5624   -0.8510   20.9303 C   0  0  1  0  0  0  0  0  0  0  0  0
    6.7478   -2.0203   21.4683 C   0  0  0  0  0  0  0  0  0  0  0  0
    7.3362   -2.5996   22.1855 H   0  0  0  0  0  0  0  0  0  0  0  0
    6.4513   -2.6745   20.6456 H   0  0  0  0  0  0  0  0  0  0  0  0
    5.8411   -1.6622   21.9662 H   0  0  0  0  0  0  0  0  0  0  0  0
    6.8139   -0.0004   19.9356 C   0  0  0  0  0  0  0  0  0  0  0  0
    5.5700    0.6067   20.1795 C   0  0  0  0  0  0  0  0  0  0  0  0
    4.9560    1.3209   19.1473 C   0  0  0  0  0  0  0  0  0  0  0  0
    5.5988    1.4077   17.9078 C   0  0  0  0  0  0  0  0  0  0  0  0
    6.7880    0.8431   17.6593 N   0  0  0  0  0  0  0  0  0  0  0  0
    7.3664    0.1721   18.6616 C   0  0  0  0  0  0  0  0  0  0  0  0
    8.3357   -0.2727   18.4379 H   0  0  0  0  0  0  0  0  0  0  0  0
    5.1364    1.9483   17.0808 H   0  0  0  0  0  0  0  0  0  0  0  0
    4.0007    1.8162   19.2885 H   0  0  0  0  0  0  0  0  0  0  0  0
    5.0777    0.5288   21.1531 H   0  0  0  0  0  0  0  0  0  0  0  0
    8.4583   -1.2519   20.4403 H   0  0  0  0  0  0  0  0  0  0  0  0
    8.4932    0.8907   21.5628 H   0  0  0  0  0  0  0  0  0  0  0  0
    7.1054    0.4618   22.4149 H   0  0  0  0  0  0  0  0  0  0  0  0
    9.9454    0.6731   23.3391 C   0  0  0  0  0  0  0  0  0  0  0  0
    9.6538    2.0110   23.6730 C   0  0  0  0  0  0  0  0  0  0  0  0
   10.6332    3.0174   23.5542 C   0  0  0  0  0  0  0  0  0  0  0  0
   11.9393    2.6641   23.2872 C   0  0  0  0  0  0  0  0  0  0  0  0
   13.0004    3.5366   22.8287 C   0  0  0  0  0  0  0  0  0  0  0  0
   13.2031    3.7522   23.1311 C   0  0  0  0  0  0  0  0  0  0  0  0
   13.7991    0.9764   22.9690 C   0  0  0  0  0  0  0  0  0  0  0  0
   13.7556    1.0341   23.0986 C   0  0  0  0  0  0  0  0  0  0  0  0
   12.3283    1.3137   23.1830 C   0  0  0  0  0  0  0  0  0  0  0  0
   11.2785    0.3494   23.0590 C   0  0  0  0  0  0  0  0  0  0  0  0
   11.5078   -0.9302   22.5741 O   0  0  0  0  0  0  0  0  0  0  0  0
   12.2038   -0.8608   21.8990 H   0  0  0  0  0  0  0  0  0  0  0  0
   14.0987    0.1853   23.9133 H   0  0  0  0  0  0  0  0  0  0  0  0
   14.7741    1.3871   22.3809 H   0  0  0  0  0  0  0  0  0  0  0  0
   13.9009    3.9197   24.0066 H   0  0  0  0  0  0  0  0  0  0  0  0
   12.6331    4.6384   22.5804 H   0  0  0  0  0  0  0  0  0  0  0  0
   10.2965    4.0455   23.7198 H   0  0  0  0  0  0  0  0  0  0  0  0
    8.6317    2.2901   23.9688 H   0  0  0  0  0  0  0  0  0  0  0  0
    9.3297   -1.3203   22.8606 H   0  0  0  0  0  0  0  0  0  0  0  0
    7.5889    0.3205   24.7674 H   0  0  0  0  0  0  0  0  0  0  0  0
    8.6773   -1.0127   25.2000 H   0  0  0  0  0  0  0  0  0  0  0  0
    7.2258   -1.3348   24.2231 H   0  0  0  0  0  0  0  0  0  0  0  0
  1  2  1  0
  2  3  1  0
  3  4  1  0
  4  5  1  0
  5  6  1  0
  5  7  1  0
  5  8  1  0
  4  9  1  0
  9 10  2  0
 10 11  1  0
 11 12  2  0
 12 13  1  0
 13 14  2  0
 14 15  1  0
 12 16  1  0
 11 17  1  0
 10 18  1  0
  4 19  1  6
  3 20  1  0
  3 21  1  0
  2 22  1  0
 22 23  2  0
 23 24  1  0
 24 25  2  0
 25 26  1  0
 26 27  2  0
 27 28  1  0
 28 29  2  0
 29 30  1  0
 30 31  2  0
 31 32  1  0
 32 33  1  0
 29 34  1  0
 28 35  1  0
 27 36  1  0
 26 37  1  0
 24 38  1  0
 23 39  1  0
  2 40  1  0
  1 41  1  0
  1 42  1  0
  1 43  1  0
 14  9  1  0
 31 22  1  0
 30 25  1  0
M  CHG  1   3   1
M  END
>  <cnnaffinity>  (1) 
5.36266

>  <plip>  (1) 
-0.034482758620689655

>  <filename>  (1) 
[H][O][c]1[c]([C]([H])([C]([H])([H])[H])[N+]([H])([H])[C@]([H])([c]2[c]([H])[n][c]([H])[c]([H])[c]2[H])[C]([H])([H])[H])[c]([H])[c]([H])[c]2[c]([H])[c]([H])[c]([H])[c]([H])[c]12

>  <combo1>  (1) 
-0.2100949934044874

$$$$
