
     RDKit          3D

 28 30  0  0  0  0  0  0  0  0999 V2000
   12.5988    0.2346   24.6273 H   0  0  0  0  0  0  0  0  0  0  0  0
   11.5103    0.2631   24.6339 C   0  0  0  0  0  0  0  0  0  0  0  0
   10.7917    1.4048   24.8187 N   0  0  0  0  0  0  0  0  0  0  0  0
    9.5480    0.9717   24.7722 C   0  0  0  0  0  0  0  0  0  0  0  0
    8.6446    1.5628   24.8689 H   0  0  0  0  0  0  0  0  0  0  0  0
    9.5171   -0.3604   24.5943 N   0  0  0  0  0  0  0  0  0  0  0  0
    8.3826   -1.2636   24.4674 C   0  0  0  0  0  0  0  0  0  0  0  0
    7.5689   -0.9487   25.1253 H   0  0  0  0  0  0  0  0  0  0  0  0
    8.7442   -2.2500   24.7712 H   0  0  0  0  0  0  0  0  0  0  0  0
    7.8913   -1.3866   23.1179 N   0  0  0  0  0  0  0  0  0  0  0  0
    7.1500   -0.3787   22.4926 C   0  0  0  0  0  0  0  0  0  0  0  0
    6.5070    0.4490   23.1220 O   0  0  0  0  0  0  0  0  0  0  0  0
    7.4359   -0.5669   21.0436 C   0  0  0  0  0  0  0  0  0  0  0  0
    6.7573    0.1240   19.9323 C   0  0  0  0  0  0  0  0  0  0  0  0
    7.2401    0.0920   18.6001 C   0  0  0  0  0  0  0  0  0  0  0  0
    8.1787   -0.4055   18.3627 H   0  0  0  0  0  0  0  0  0  0  0  0
    6.6071    0.6508   17.5598 N   0  0  0  0  0  0  0  0  0  0  0  0
    5.4461    1.2788   17.8044 C   0  0  0  0  0  0  0  0  0  0  0  0
    4.9440    1.7204   16.9419 H   0  0  0  0  0  0  0  0  0  0  0  0
    4.8797    1.3724   19.0810 C   0  0  0  0  0  0  0  0  0  0  0  0
    3.9388    1.8928   19.2100 H   0  0  0  0  0  0  0  0  0  0  0  0
    5.5527    0.8071   20.1651 C   0  0  0  0  0  0  0  0  0  0  0  0
    5.1762    0.8836   21.1869 H   0  0  0  0  0  0  0  0  0  0  0  0
    8.4099   -1.5071   20.9780 C   0  0  0  0  0  0  0  0  0  0  0  0
    8.9264   -1.9001   20.1124 H   0  0  0  0  0  0  0  0  0  0  0  0
    8.7346   -2.0632   22.2084 N   0  0  0  0  0  0  0  0  0  0  0  0
    9.7293   -2.0144   22.4840 H   0  0  0  0  0  0  0  0  0  0  0  0
   10.7799   -0.8277   24.4796 N   0  0  0  0  0  0  0  0  0  0  0  0
  1  2  1  0
  2  3  1  0
  3  4  2  0
  4  5  1  0
  4  6  1  0
  6  7  1  0
  7  8  1  0
  7  9  1  0
  7 10  1  0
 10 11  1  0
 11 12  2  0
 11 13  1  0
 13 14  1  0
 14 15  2  0
 15 16  1  0
 15 17  1  0
 17 18  2  0
 18 19  1  0
 18 20  1  0
 20 21  1  0
 20 22  2  0
 22 23  1  0
 13 24  2  0
 24 25  1  0
 24 26  1  0
 26 27  1  0
  6 28  1  0
 28  2  2  0
 26 10  1  0
 22 14  1  0
M  END
>  <cnnaffinity>  (1) 
4.6043

>  <plip>  (1) 
-0.07142857142857142

>  <filename>  (1) 
[H][c]1[n][c]([H])[n]([C]([H])([H])[n]2[c](=[O])[c](-[c]3[c]([H])[n][c]([H])[c]([H])[c]3[H])[c]([H])[n]2[H])[n]1

>  <combo1>  (1) 
-0.45254823885284323

$$$$
