
     RDKit          3D

 56 58  0  0  0  0  0  0  0  0999 V2000
    7.1571   -7.1781   22.0999 C   0  0  0  0  0  0  0  0  0  0  0  0
    5.9887   -6.9364   23.0321 C   0  0  0  0  0  0  0  0  0  0  0  0
    5.1455   -7.9886   23.3490 C   0  0  0  0  0  0  0  0  0  0  0  0
    3.9101   -7.7807   23.9690 C   0  0  0  0  0  0  0  0  0  0  0  0
    3.0428   -8.8196   24.0803 O   0  0  0  0  0  0  0  0  0  0  0  0
    2.2514   -8.5000   24.5249 H   0  0  0  0  0  0  0  0  0  0  0  0
    3.5717   -6.5013   24.4052 C   0  0  0  0  0  0  0  0  0  0  0  0
    4.4926   -5.4648   24.2492 C   0  0  0  0  0  0  0  0  0  0  0  0
    5.7287   -5.6816   23.6211 C   0  0  0  0  0  0  0  0  0  0  0  0
    6.8126   -4.6380   23.6478 C   0  0  0  0  0  0  0  0  0  0  0  0
    7.2913   -4.2987   25.0580 C   0  0  0  0  0  0  0  0  0  0  0  0
    8.1210   -3.5902   24.9942 H   0  0  0  0  0  0  0  0  0  0  0  0
    7.6357   -5.2025   25.5762 H   0  0  0  0  0  0  0  0  0  0  0  0
    6.4810   -3.8382   25.6339 H   0  0  0  0  0  0  0  0  0  0  0  0
    6.3267   -3.4455   22.9617 N   0  0  0  0  0  0  0  0  0  0  0  0
    7.2424   -2.7285   22.2438 C   0  0  0  0  0  0  0  0  0  0  0  0
    8.4515   -2.8200   22.3819 O   0  0  0  0  0  0  0  0  0  0  0  0
    6.6467   -1.8615   21.3713 N   0  0  0  0  0  0  0  0  0  0  0  0
    7.3986   -0.6871   20.9577 C   0  0  0  0  0  0  0  0  0  0  0  0
    7.7746    0.2344   22.1490 C   0  0  0  0  0  0  0  0  0  0  0  0
    8.6988    1.3492   21.7712 N   0  0  0  0  0  4  0  0  0  0  0  0
    8.9824    2.2730   22.9285 C   0  0  0  0  0  0  0  0  0  0  0  0
   10.3301    2.9358   22.6212 C   0  0  0  0  0  0  0  0  0  0  0  0
   10.9758    2.0978   21.4908 C   0  0  0  0  0  0  0  0  0  0  0  0
   10.0583    0.8914   21.2824 C   0  0  0  0  0  0  0  0  0  0  0  0
    9.9918    0.5625   20.2425 H   0  0  0  0  0  0  0  0  0  0  0  0
   10.3668    0.0234   21.8803 H   0  0  0  0  0  0  0  0  0  0  0  0
   11.0582    2.6736   20.5646 H   0  0  0  0  0  0  0  0  0  0  0  0
   11.9896    1.7675   21.7333 H   0  0  0  0  0  0  0  0  0  0  0  0
   10.1833    3.9805   22.3310 H   0  0  0  0  0  0  0  0  0  0  0  0
   10.9490    2.9602   23.5229 H   0  0  0  0  0  0  0  0  0  0  0  0
    8.1617    2.9830   23.0546 H   0  0  0  0  0  0  0  0  0  0  0  0
    9.0369    1.6646   23.8384 H   0  0  0  0  0  0  0  0  0  0  0  0
    8.2226    1.8890   21.0015 H   0  0  0  0  0  0  0  0  0  0  0  0
    6.8645    0.6303   22.6188 H   0  0  0  0  0  0  0  0  0  0  0  0
    8.2733   -0.3920   22.8980 H   0  0  0  0  0  0  0  0  0  0  0  0
    6.6061    0.0061   19.8829 C   0  0  0  0  0  0  0  0  0  0  0  0
    5.3817    0.6544   20.1098 C   0  0  0  0  0  0  0  0  0  0  0  0
    4.7793    1.3292   19.0461 C   0  0  0  0  0  0  0  0  0  0  0  0
    5.4074    1.3116   17.7958 C   0  0  0  0  0  0  0  0  0  0  0  0
    6.5496    0.6546   17.5491 N   0  0  0  0  0  0  0  0  0  0  0  0
    7.1138    0.0129   18.5771 C   0  0  0  0  0  0  0  0  0  0  0  0
    8.0301   -0.5382   18.3506 H   0  0  0  0  0  0  0  0  0  0  0  0
    4.9750    1.8410   16.9506 H   0  0  0  0  0  0  0  0  0  0  0  0
    3.8454    1.8669   19.1689 H   0  0  0  0  0  0  0  0  0  0  0  0
    4.8994    0.6356   21.0923 H   0  0  0  0  0  0  0  0  0  0  0  0
    8.3511   -1.0379   20.5400 H   0  0  0  0  0  0  0  0  0  0  0  0
    5.6742   -1.7013   21.5617 H   0  0  0  0  0  0  0  0  0  0  0  0
    5.4371   -3.5307   22.4992 H   0  0  0  0  0  0  0  0  0  0  0  0
    7.6888   -5.0240   23.1047 H   0  0  0  0  0  0  0  0  0  0  0  0
    4.2417   -4.4766   24.6274 H   0  0  0  0  0  0  0  0  0  0  0  0
    2.6133   -6.3472   24.8933 H   0  0  0  0  0  0  0  0  0  0  0  0
    5.4797   -8.9609   23.0270 H   0  0  0  0  0  0  0  0  0  0  0  0
    7.1527   -8.1997   21.7109 H   0  0  0  0  0  0  0  0  0  0  0  0
    8.1211   -7.0579   22.6072 H   0  0  0  0  0  0  0  0  0  0  0  0
    7.1308   -6.4905   21.2416 H   0  0  0  0  0  0  0  0  0  0  0  0
  1  2  1  0
  2  3  2  0
  3  4  1  0
  4  5  1  0
  5  6  1  0
  4  7  2  0
  7  8  1  0
  8  9  2  0
  9 10  1  0
 10 11  1  0
 11 12  1  0
 11 13  1  0
 11 14  1  0
 10 15  1  0
 15 16  1  0
 16 17  2  0
 16 18  1  0
 18 19  1  0
 19 20  1  0
 20 21  1  0
 21 22  1  0
 22 23  1  0
 23 24  1  0
 24 25  1  0
 25 26  1  0
 25 27  1  0
 24 28  1  0
 24 29  1  0
 23 30  1  0
 23 31  1  0
 22 32  1  0
 22 33  1  0
 21 34  1  0
 20 35  1  0
 20 36  1  0
 19 37  1  0
 37 38  2  0
 38 39  1  0
 39 40  2  0
 40 41  1  0
 41 42  2  0
 42 43  1  0
 40 44  1  0
 39 45  1  0
 38 46  1  0
 19 47  1  0
 18 48  1  0
 15 49  1  0
 10 50  1  0
  8 51  1  0
  7 52  1  0
  3 53  1  0
  1 54  1  0
  1 55  1  0
  1 56  1  0
  9  2  1  0
 25 21  1  0
 42 37  1  0
M  CHG  1  21   1
M  END
>  <cnnaffinity>  (1) 
5.56426

>  <plip>  (1) 
-0.1875

>  <filename>  (1) 
[H][O][c]1[c]([H])[c]([H])[c]([C]([H])([N]([H])[C](=[O])[N]([H])[C]([H])([c]2[c]([H])[n][c]([H])[c]([H])[c]2[H])[C]([H])([H])[N+]2([H])[C]([H])([H])[C]([H])([H])[C]([H])([H])[C]2([H])[H])[C]([H])([H])[H])[c]([C]([H])([H])[H])[c]1[H]

>  <combo1>  (1) 
-0.9412086692702634

$$$$
