
     RDKit          3D

 30 32  0  0  0  0  0  0  0  0999 V2000
    4.9329    1.9007   16.8815 H   0  0  0  0  0  0  0  0  0  0  0  0
    5.3482    1.3558   17.7234 C   0  0  0  0  0  0  0  0  0  0  0  0
    6.4901    0.6915   17.4793 N   0  0  0  0  0  0  0  0  0  0  0  0
    7.0386    0.0468   18.5126 C   0  0  0  0  0  0  0  0  0  0  0  0
    7.9669   -0.4875   18.3090 H   0  0  0  0  0  0  0  0  0  0  0  0
    6.4873   -0.0034   19.8113 C   0  0  0  0  0  0  0  0  0  0  0  0
    7.2260   -0.6966   20.8943 C   0  0  0  0  0  0  0  0  0  0  0  0
    6.6617   -1.5757   21.8516 C   0  0  0  0  0  0  0  0  0  0  0  0
    5.6025   -1.8048   21.8614 H   0  0  0  0  0  0  0  0  0  0  0  0
    7.4004   -2.2449   22.7460 N   0  0  0  0  0  0  0  0  0  0  0  0
    8.7305   -2.0715   22.7891 N   0  0  0  0  0  0  0  0  0  0  0  0
    9.3121   -1.1870   21.9608 C   0  0  0  0  0  0  0  0  0  0  0  0
   10.7544   -0.9697   22.0639 C   0  0  0  0  0  0  0  0  0  0  0  0
   11.5759   -2.0906   22.1001 C   0  0  0  0  0  0  0  0  0  0  0  0
   11.1127   -3.0699   22.1007 H   0  0  0  0  0  0  0  0  0  0  0  0
   12.9012   -2.0266   22.1604 N   0  0  0  0  0  0  0  0  0  0  0  0
   13.4188   -0.8122   22.2821 C   0  0  0  0  0  0  0  0  0  0  0  0
   14.7592   -0.8529   22.4613 N   0  0  0  0  0  0  0  0  0  0  0  0
   14.9290   -1.8389   22.6127 H   0  0  0  0  0  0  0  0  0  0  0  0
   15.0832   -0.2579   23.2022 H   0  0  0  0  0  0  0  0  0  0  0  0
   12.7049    0.3910   22.2488 C   0  0  0  0  0  0  0  0  0  0  0  0
   13.2725    1.3098   22.2880 H   0  0  0  0  0  0  0  0  0  0  0  0
   11.3323    0.3112   22.0942 C   0  0  0  0  0  0  0  0  0  0  0  0
   10.7331    1.2245   22.0206 H   0  0  0  0  0  0  0  0  0  0  0  0
    8.5919   -0.4975   20.9868 C   0  0  0  0  0  0  0  0  0  0  0  0
    9.1143    0.1763   20.3144 H   0  0  0  0  0  0  0  0  0  0  0  0
    5.2812    0.6706   20.0319 C   0  0  0  0  0  0  0  0  0  0  0  0
    4.8353    0.6722   21.0282 H   0  0  0  0  0  0  0  0  0  0  0  0
    4.7069    1.3692   18.9675 C   0  0  0  0  0  0  0  0  0  0  0  0
    3.7940    1.9388   19.0945 H   0  0  0  0  0  0  0  0  0  0  0  0
  1  2  1  0
  2  3  2  0
  3  4  1  0
  4  5  1  0
  4  6  2  0
  6  7  1  0
  7  8  2  0
  8  9  1  0
  8 10  1  0
 10 11  2  0
 11 12  1  0
 12 13  1  0
 13 14  2  0
 14 15  1  0
 14 16  1  0
 16 17  2  0
 17 18  1  0
 18 19  1  0
 18 20  1  0
 17 21  1  0
 21 22  1  0
 21 23  2  0
 23 24  1  0
 12 25  2  0
 25 26  1  0
  6 27  1  0
 27 28  1  0
 27 29  2  0
 29 30  1  0
 29  2  1  0
 25  7  1  0
 23 13  1  0
M  END
>  <cnnaffinity>  (1) 
5.88464

>  <plip>  (1) 
-0.034482758620689655

>  <filename>  (1) 
[H][c]1[n][c]([H])[c](-[c]2[c]([H])[n][n][c](-[c]3[c]([H])[n][c]([N]([H])[H])[c]([H])[c]3[H])[c]2[H])[c]([H])[c]1[H]

>  <combo1>  (1) 
-0.2713428845416346

$$$$
