
     RDKit          3D

 37 39  0  0  0  0  0  0  0  0999 V2000
    4.9155    1.7785   16.9987 H   0  0  0  0  0  0  0  0  0  0  0  0
    5.4019    1.2935   17.8432 C   0  0  0  0  0  0  0  0  0  0  0  0
    6.5633    0.6721   17.5829 N   0  0  0  0  0  0  0  0  0  0  0  0
    7.1714    0.0505   18.5991 C   0  0  0  0  0  0  0  0  0  0  0  0
    8.1231   -0.4252   18.3816 H   0  0  0  0  0  0  0  0  0  0  0  0
    6.6430   -0.0135   19.9011 C   0  0  0  0  0  0  0  0  0  0  0  0
    7.3336   -0.7140   20.9466 N   0  0  0  0  0  0  0  0  0  0  0  0
    6.5743   -1.6128   21.6545 N   0  0  0  0  0  0  0  0  0  0  0  0
    7.1374   -2.2947   22.6353 C   0  0  0  0  0  0  0  0  0  0  0  0
    6.2893   -3.2797   23.3835 C   0  0  0  0  0  0  0  0  0  0  0  0
    6.5491   -3.6331   24.7243 C   0  0  0  0  0  0  0  0  0  0  0  0
    7.3828   -3.1816   25.2592 H   0  0  0  0  0  0  0  0  0  0  0  0
    5.7370   -4.5527   25.3955 C   0  0  0  0  0  0  0  0  0  0  0  0
    5.9615   -4.8018   26.4273 H   0  0  0  0  0  0  0  0  0  0  0  0
    4.6341   -5.1291   24.7468 C   0  0  0  0  0  0  0  0  0  0  0  0
    3.8050   -6.0559   25.4255 N   0  0  0  0  0  0  0  0  0  0  0  0
    4.2316   -6.5840   26.1638 H   0  0  0  0  0  0  0  0  0  0  0  0
    2.4435   -6.1858   25.2462 C   0  0  0  0  0  0  0  0  0  0  0  0
    1.8050   -5.3863   24.5966 O   0  0  0  0  0  0  0  0  0  0  0  0
    1.7651   -7.3779   25.8998 C   0  0  0  0  0  0  0  0  0  0  0  0
    1.5175   -7.1497   26.9391 H   0  0  0  0  0  0  0  0  0  0  0  0
    2.3559   -8.2956   25.8657 H   0  0  0  0  0  0  0  0  0  0  0  0
    0.8189   -7.5486   25.3802 H   0  0  0  0  0  0  0  0  0  0  0  0
    4.3862   -4.7993   23.4073 C   0  0  0  0  0  0  0  0  0  0  0  0
    3.5532   -5.2526   22.8914 H   0  0  0  0  0  0  0  0  0  0  0  0
    5.1990   -3.8887   22.7402 C   0  0  0  0  0  0  0  0  0  0  0  0
    4.9899   -3.6236   21.7090 H   0  0  0  0  0  0  0  0  0  0  0  0
    8.5345   -2.1142   22.9600 C   0  0  0  0  0  0  0  0  0  0  0  0
    8.9851   -2.7181   23.7448 H   0  0  0  0  0  0  0  0  0  0  0  0
    9.2839   -1.2098   22.2750 C   0  0  0  0  0  0  0  0  0  0  0  0
   10.3302   -1.0091   22.4710 H   0  0  0  0  0  0  0  0  0  0  0  0
    8.7191   -0.4006   21.2023 C   0  0  0  0  0  0  0  0  0  0  0  0
    9.3319    0.4394   20.5647 O   0  0  0  0  0  0  0  0  0  0  0  0
    5.4360    0.6409   20.1662 C   0  0  0  0  0  0  0  0  0  0  0  0
    5.0185    0.6054   21.1737 H   0  0  0  0  0  0  0  0  0  0  0  0
    4.8093    1.3155   19.1124 C   0  0  0  0  0  0  0  0  0  0  0  0
    3.8742    1.8458   19.2635 H   0  0  0  0  0  0  0  0  0  0  0  0
  1  2  1  0
  2  3  2  0
  3  4  1  0
  4  5  1  0
  4  6  2  0
  6  7  1  0
  7  8  1  0
  8  9  2  0
  9 10  1  0
 10 11  2  0
 11 12  1  0
 11 13  1  0
 13 14  1  0
 13 15  2  0
 15 16  1  0
 16 17  1  0
 16 18  1  0
 18 19  2  0
 18 20  1  0
 20 21  1  0
 20 22  1  0
 20 23  1  0
 15 24  1  0
 24 25  1  0
 24 26  2  0
 26 27  1  0
  9 28  1  0
 28 29  1  0
 28 30  2  0
 30 31  1  0
 30 32  1  0
 32 33  2  0
  6 34  1  0
 34 35  1  0
 34 36  2  0
 36 37  1  0
 36  2  1  0
 32  7  1  0
 26 10  1  0
M  END
>  <cnnaffinity>  (1) 
5.501

>  <plip>  (1) 
-0.06896551724137931

>  <filename>  (1) 
[H][c]1[n][c]([H])[c](-[n]2[n][c](-[c]3[c]([H])[c]([H])[c]([N]([H])[C](=[O])[C]([H])([H])[H])[c]([H])[c]3[H])[c]([H])[c]([H])[c]2=[O])[c]([H])[c]1[H]

>  <combo1>  (1) 
-0.41282876067882973

$$$$
