
     RDKit          3D

 32 32  0  0  0  0  0  0  0  0999 V2000
    6.5919    0.0530   22.5996 H   0  0  0  0  0  0  0  0  0  0  0  0
    7.2663   -0.6550   22.1066 C   0  0  0  0  0  0  0  0  0  0  0  0
    7.4033   -0.8081   20.8451 N   0  0  0  0  0  0  0  0  0  0  0  0
    6.6846   -0.0417   19.9034 C   0  0  0  0  0  0  0  0  0  0  0  0
    7.1907    0.0380   18.5795 C   0  0  0  0  0  0  0  0  0  0  0  0
    8.1408   -0.4514   18.3724 H   0  0  0  0  0  0  0  0  0  0  0  0
    6.5873    0.6807   17.5722 N   0  0  0  0  0  0  0  0  0  0  0  0
    5.4227    1.3001   17.8539 C   0  0  0  0  0  0  0  0  0  0  0  0
    4.9436    1.8168   17.0261 H   0  0  0  0  0  0  0  0  0  0  0  0
    4.8320    1.2923   19.1202 C   0  0  0  0  0  0  0  0  0  0  0  0
    3.8932    1.8155   19.2865 H   0  0  0  0  0  0  0  0  0  0  0  0
    5.4746    0.6179   20.1681 C   0  0  0  0  0  0  0  0  0  0  0  0
    5.0446    0.6028   21.1706 H   0  0  0  0  0  0  0  0  0  0  0  0
    7.9693   -1.3256   23.0213 O   0  0  0  0  0  0  0  0  0  0  0  0
    8.8805   -2.3501   22.5652 C   0  0  0  0  0  0  0  0  0  0  0  0
    9.5090   -1.9631   21.7547 H   0  0  0  0  0  0  0  0  0  0  0  0
    9.5080   -2.5491   23.4385 H   0  0  0  0  0  0  0  0  0  0  0  0
    8.1163   -3.5764   22.1114 C   0  0  0  0  0  0  0  0  0  0  0  0
    8.8045   -4.3174   21.7176 H   0  0  0  0  0  0  0  0  0  0  0  0
    7.4644   -3.2933   21.2847 H   0  0  0  0  0  0  0  0  0  0  0  0
    7.2968   -4.2313   23.2083 C   0  0  0  0  0  0  0  0  0  0  0  0
    7.9588   -4.4686   24.0678 H   0  0  0  0  0  0  0  0  0  0  0  0
    6.5483   -3.5276   23.5927 H   0  0  0  0  0  0  0  0  0  0  0  0
    6.6293   -5.4251   22.7012 N   0  0  0  0  0  0  0  0  0  0  0  0
    7.5382   -6.5545   22.5883 C   0  0  0  0  0  0  0  0  0  0  0  0
    6.9920   -7.4454   22.2683 H   0  0  0  0  0  0  0  0  0  0  0  0
    8.0642   -6.7994   23.5319 H   0  0  0  0  0  0  0  0  0  0  0  0
    8.2932   -6.3516   21.8258 H   0  0  0  0  0  0  0  0  0  0  0  0
    5.4338   -5.7448   23.4602 C   0  0  0  0  0  0  0  0  0  0  0  0
    4.9188   -6.6014   23.0124 H   0  0  0  0  0  0  0  0  0  0  0  0
    5.6293   -5.9695   24.5270 H   0  0  0  0  0  0  0  0  0  0  0  0
    4.7473   -4.8927   23.4132 H   0  0  0  0  0  0  0  0  0  0  0  0
  1  2  1  0
  2  3  2  3
  3  4  1  0
  4  5  2  0
  5  6  1  0
  5  7  1  0
  7  8  2  0
  8  9  1  0
  8 10  1  0
 10 11  1  0
 10 12  2  0
 12 13  1  0
  2 14  1  0
 14 15  1  0
 15 16  1  0
 15 17  1  0
 15 18  1  0
 18 19  1  0
 18 20  1  0
 18 21  1  0
 21 22  1  0
 21 23  1  0
 21 24  1  0
 24 25  1  0
 25 26  1  0
 25 27  1  0
 25 28  1  0
 24 29  1  0
 29 30  1  0
 29 31  1  0
 29 32  1  0
 12  4  1  0
M  END
>  <cnnaffinity>  (1) 
4.22823

>  <plip>  (1) 
-0.03571428571428571

>  <filename>  (1) 
[H][C](=[N][c]1[c]([H])[n][c]([H])[c]([H])[c]1[H])[O][C]([H])([H])[C]([H])([H])[C]([H])([H])[N]([C]([H])([H])[H])[C]([H])([H])[H]

>  <combo1>  (1) 
-0.24284446141429777

$$$$
