
     RDKit          3D

 24 25  0  0  0  0  0  0  0  0999 V2000
    6.3362   -1.9190   21.9351 H   0  0  0  0  0  0  0  0  0  0  0  0
    6.5658   -0.9769   21.9983 O   0  0  0  0  0  0  0  0  0  0  0  0
    7.3429   -0.7064   20.8725 N   0  0  0  0  0  0  0  0  0  0  0  0
    6.6828    0.0276   19.8599 C   0  0  0  0  0  0  0  0  0  0  0  0
    7.1822    0.0801   18.5413 C   0  0  0  0  0  0  0  0  0  0  0  0
    8.1060   -0.4388   18.2903 H   0  0  0  0  0  0  0  0  0  0  0  0
    6.5688    0.7136   17.5278 N   0  0  0  0  0  0  0  0  0  0  0  0
    5.4068    1.3339   17.7892 C   0  0  0  0  0  0  0  0  0  0  0  0
    4.9194    1.8471   16.9611 H   0  0  0  0  0  0  0  0  0  0  0  0
    4.8157    1.3317   19.0595 C   0  0  0  0  0  0  0  0  0  0  0  0
    3.8735    1.8452   19.2220 H   0  0  0  0  0  0  0  0  0  0  0  0
    5.4515    0.6689   20.1056 C   0  0  0  0  0  0  0  0  0  0  0  0
    5.0243    0.6293   21.1071 H   0  0  0  0  0  0  0  0  0  0  0  0
    8.7334   -0.7427   21.1315 C   0  0  0  0  0  0  0  0  0  0  0  0
    9.5571    0.4034   21.0518 C   0  0  0  0  0  0  0  0  0  0  0  0
    9.1227    1.3587   20.7790 H   0  0  0  0  0  0  0  0  0  0  0  0
   10.9316    0.3170   21.3000 C   0  0  0  0  0  0  0  0  0  0  0  0
   11.5764    1.1849   21.2263 H   0  0  0  0  0  0  0  0  0  0  0  0
   11.4951   -0.9056   21.6520 C   0  0  0  0  0  0  0  0  0  0  0  0
   13.2160   -1.0213   21.8637 Cl  0  0  0  0  0  0  0  0  0  0  0  0
   10.7068   -2.0443   21.8132 C   0  0  0  0  0  0  0  0  0  0  0  0
   11.1370   -2.9642   22.1994 H   0  0  0  0  0  0  0  0  0  0  0  0
    9.3434   -1.9646   21.5212 C   0  0  0  0  0  0  0  0  0  0  0  0
    8.4101   -3.4335   21.6324 Cl  0  0  0  0  0  0  0  0  0  0  0  0
  1  2  1  0
  2  3  1  0
  3  4  1  0
  4  5  2  0
  5  6  1  0
  5  7  1  0
  7  8  2  0
  8  9  1  0
  8 10  1  0
 10 11  1  0
 10 12  2  0
 12 13  1  0
  3 14  1  0
 14 15  2  0
 15 16  1  0
 15 17  1  0
 17 18  1  0
 17 19  2  0
 19 20  1  0
 19 21  1  0
 21 22  1  0
 21 23  2  0
 23 24  1  0
 12  4  1  0
 23 14  1  0
M  END
>  <cnnaffinity>  (1) 
5.30141

>  <plip>  (1) 
-0.07142857142857142

>  <filename>  (1) 
[H][O][N]([c]1[c]([H])[n][c]([H])[c]([H])[c]1[H])[c]1[c]([H])[c]([H])[c]([Cl])[c]([H])[c]1[Cl]

>  <combo1>  (1) 
-0.49479446664516286

$$$$
