
     RDKit          3D

 42 44  0  0  0  0  0  0  0  0999 V2000
    7.8086   -4.4969   21.2856 C   0  0  0  0  0  0  0  0  0  0  0  0
    7.8723   -3.0829   21.8465 C   0  0  0  0  0  0  0  0  0  0  0  0
    7.3951   -2.1318   20.8093 N   0  0  0  0  0  4  0  0  0  0  0  0
    7.3757   -0.6617   21.0913 C   0  0  1  0  0  0  0  0  0  0  0  0
    8.7832   -0.0966   21.2671 C   0  0  0  0  0  0  0  0  0  0  0  0
    9.2511   -0.5287   22.1567 H   0  0  0  0  0  0  0  0  0  0  0  0
    9.4136   -0.3188   20.3995 H   0  0  0  0  0  0  0  0  0  0  0  0
    8.7486    0.9894   21.3793 H   0  0  0  0  0  0  0  0  0  0  0  0
    6.6195   -0.0552   19.9358 C   0  0  0  0  0  0  0  0  0  0  0  0
    5.4022    0.6147   20.1303 C   0  0  0  0  0  0  0  0  0  0  0  0
    4.8126    1.2833   19.0542 C   0  0  0  0  0  0  0  0  0  0  0  0
    5.4478    1.2458   17.8092 C   0  0  0  0  0  0  0  0  0  0  0  0
    6.5838    0.5691   17.5896 N   0  0  0  0  0  0  0  0  0  0  0  0
    7.1385   -0.0654   18.6309 C   0  0  0  0  0  0  0  0  0  0  0  0
    8.0719   -0.5799   18.4022 H   0  0  0  0  0  0  0  0  0  0  0  0
    5.0186    1.7647   16.9504 H   0  0  0  0  0  0  0  0  0  0  0  0
    3.8858    1.8369   19.1658 H   0  0  0  0  0  0  0  0  0  0  0  0
    4.9331    0.6160   21.1158 H   0  0  0  0  0  0  0  0  0  0  0  0
    6.8028   -0.4764   22.0103 H   0  0  0  0  0  0  0  0  0  0  0  0
    7.9472   -2.2375   19.9313 H   0  0  0  0  0  0  0  0  0  0  0  0
    6.4086   -2.3815   20.5771 H   0  0  0  0  0  0  0  0  0  0  0  0
    7.0190   -2.9427   23.0856 C   0  0  0  0  0  0  0  0  0  0  0  0
    7.4799   -2.4160   24.2373 C   0  0  0  0  0  0  0  0  0  0  0  0
    6.5904   -2.2648   25.3879 C   0  0  0  0  0  0  0  0  0  0  0  0
    6.9924   -1.7520   26.6421 C   0  0  0  0  0  0  0  0  0  0  0  0
    6.0614   -1.5278   27.6486 C   0  0  0  0  0  0  0  0  0  0  0  0
    4.7005   -1.8064   27.4270 C   0  0  0  0  0  0  0  0  0  0  0  0
    4.2823   -2.3427   26.2173 C   0  0  0  0  0  0  0  0  0  0  0  0
    5.2270   -2.6087   25.2166 C   0  0  0  0  0  0  0  0  0  0  0  0
    4.7412   -3.1840   24.0850 O   0  0  0  0  0  0  0  0  0  0  0  0
    5.5964   -3.4706   22.9906 C   0  0  0  0  0  0  0  0  0  0  0  0
    5.6017   -4.5650   22.8646 H   0  0  0  0  0  0  0  0  0  0  0  0
    5.0982   -3.0751   22.0887 H   0  0  0  0  0  0  0  0  0  0  0  0
    3.2399   -2.5640   26.0083 H   0  0  0  0  0  0  0  0  0  0  0  0
    3.9753   -1.6046   28.2129 H   0  0  0  0  0  0  0  0  0  0  0  0
    6.3729   -1.1171   28.6045 H   0  0  0  0  0  0  0  0  0  0  0  0
    8.0430   -1.5157   26.8165 H   0  0  0  0  0  0  0  0  0  0  0  0
    8.5201   -2.1021   24.3380 H   0  0  0  0  0  0  0  0  0  0  0  0
    8.9122   -2.8495   22.1197 H   0  0  0  0  0  0  0  0  0  0  0  0
    8.4437   -4.6450   20.4157 H   0  0  0  0  0  0  0  0  0  0  0  0
    8.1323   -5.2214   22.0358 H   0  0  0  0  0  0  0  0  0  0  0  0
    6.7889   -4.7625   20.9937 H   0  0  0  0  0  0  0  0  0  0  0  0
  1  2  1  0
  2  3  1  0
  3  4  1  0
  4  5  1  0
  5  6  1  0
  5  7  1  0
  5  8  1  0
  4  9  1  0
  9 10  2  0
 10 11  1  0
 11 12  2  0
 12 13  1  0
 13 14  2  0
 14 15  1  0
 12 16  1  0
 11 17  1  0
 10 18  1  0
  4 19  1  1
  3 20  1  0
  3 21  1  0
  2 22  1  0
 22 23  2  0
 23 24  1  0
 24 25  2  0
 25 26  1  0
 26 27  2  0
 27 28  1  0
 28 29  2  0
 29 30  1  0
 30 31  1  0
 31 32  1  0
 31 33  1  0
 28 34  1  0
 27 35  1  0
 26 36  1  0
 25 37  1  0
 23 38  1  0
  2 39  1  0
  1 40  1  0
  1 41  1  0
  1 42  1  0
 14  9  1  0
 31 22  1  0
 29 24  1  0
M  CHG  1   3   1
M  END
>  <cnnaffinity>  (1) 
4.48196

>  <plip>  (1) 
-0.07142857142857142

>  <filename>  (1) 
[H][C]1=[C]([C]([H])([C]([H])([H])[H])[N+]([H])([H])[C@]([H])([c]2[c]([H])[n][c]([H])[c]([H])[c]2[H])[C]([H])([H])[H])[C]([H])([H])[O][c]2[c]([H])[c]([H])[c]([H])[c]([H])[c]21

>  <combo1>  (1) 
-0.37925123528526783

$$$$
