
     RDKit          3D

 42 44  0  0  0  0  0  0  0  0999 V2000
    4.9699    1.7612   16.9798 H   0  0  0  0  0  0  0  0  0  0  0  0
    5.4355    1.2787   17.8369 C   0  0  0  0  0  0  0  0  0  0  0  0
    6.5907    0.6332   17.6016 N   0  0  0  0  0  0  0  0  0  0  0  0
    7.1858    0.0434   18.6459 C   0  0  0  0  0  0  0  0  0  0  0  0
    8.1042   -0.4968   18.4277 H   0  0  0  0  0  0  0  0  0  0  0  0
    6.7176    0.0750   19.9891 C   0  0  0  0  0  0  0  0  0  0  0  0
    7.4616   -0.4564   21.0432 N   0  0  0  0  0  0  0  0  0  0  0  0
    8.3751   -1.5721   20.8320 C   0  0  0  0  0  0  0  0  0  0  0  0
    7.8383   -2.3961   20.3506 H   0  0  0  0  0  0  0  0  0  0  0  0
    9.2500   -1.2897   20.2371 H   0  0  0  0  0  0  0  0  0  0  0  0
    8.7384   -1.9559   22.2550 C   0  0  0  0  0  0  0  0  0  0  0  0
    8.8989   -3.0279   22.3798 H   0  0  0  0  0  0  0  0  0  0  0  0
    9.6365   -1.4230   22.6027 H   0  0  0  0  0  0  0  0  0  0  0  0
    7.5869   -1.6004   23.0033 O   0  0  0  0  0  0  0  0  0  0  0  0
    7.0103   -0.4440   22.4249 C   0  0  1  0  0  0  0  0  0  0  0  0
    5.9190   -0.5681   22.4840 H   0  0  0  0  0  0  0  0  0  0  0  0
    7.4493    0.8527   23.1004 C   0  0  0  0  0  0  0  0  0  0  0  0
    6.9694    1.6863   22.5752 H   0  0  0  0  0  0  0  0  0  0  0  0
    8.5272    0.9878   22.9714 H   0  0  0  0  0  0  0  0  0  0  0  0
    7.0783    0.8934   24.5703 C   0  0  0  0  0  0  0  0  0  0  0  0
    7.5161    1.7890   25.0572 H   0  0  0  0  0  0  0  0  0  0  0  0
    7.5207    0.0247   25.0739 H   0  0  0  0  0  0  0  0  0  0  0  0
    5.6331    0.8410   24.7198 N   0  0  0  0  0  0  0  0  0  0  0  0
    4.8750    1.9959   24.2207 C   0  0  0  0  0  0  0  0  0  0  0  0
    5.5172    2.8365   23.9134 H   0  0  0  0  0  0  0  0  0  0  0  0
    4.2913    1.7050   23.3311 H   0  0  0  0  0  0  0  0  0  0  0  0
    3.9542    2.4137   25.3736 C   0  0  0  0  0  0  0  0  0  0  0  0
    4.4478    3.1883   25.9773 H   0  0  0  0  0  0  0  0  0  0  0  0
    3.0003    2.8173   25.0182 H   0  0  0  0  0  0  0  0  0  0  0  0
    3.7914    1.1285   26.1843 C   0  0  0  0  0  0  0  0  0  0  0  0
    3.5267    1.3228   27.2309 H   0  0  0  0  0  0  0  0  0  0  0  0
    3.0075    0.4927   25.7488 H   0  0  0  0  0  0  0  0  0  0  0  0
    5.1575    0.4413   26.0481 C   0  0  1  0  0  0  0  0  0  0  0  0
    5.8278    0.8314   26.8440 H   0  0  0  0  0  0  0  0  0  0  0  0
    5.1022   -1.0777   26.1523 C   0  0  0  0  0  0  0  0  0  0  0  0
    4.7714   -1.3881   27.1500 H   0  0  0  0  0  0  0  0  0  0  0  0
    6.0878   -1.5143   25.9502 H   0  0  0  0  0  0  0  0  0  0  0  0
    4.3998   -1.4702   25.4063 H   0  0  0  0  0  0  0  0  0  0  0  0
    5.4690    0.7064   20.1849 C   0  0  0  0  0  0  0  0  0  0  0  0
    5.0087    0.7178   21.1723 H   0  0  0  0  0  0  0  0  0  0  0  0
    4.8330    1.3130   19.0989 C   0  0  0  0  0  0  0  0  0  0  0  0
    3.8724    1.8098   19.2120 H   0  0  0  0  0  0  0  0  0  0  0  0
  1  2  1  0
  2  3  2  0
  3  4  1  0
  4  5  1  0
  4  6  2  0
  6  7  1  0
  7  8  1  0
  8  9  1  0
  8 10  1  0
  8 11  1  0
 11 12  1  0
 11 13  1  0
 11 14  1  0
 14 15  1  0
 15 16  1  6
 15 17  1  0
 17 18  1  0
 17 19  1  0
 17 20  1  0
 20 21  1  0
 20 22  1  0
 20 23  1  0
 23 24  1  0
 24 25  1  0
 24 26  1  0
 24 27  1  0
 27 28  1  0
 27 29  1  0
 27 30  1  0
 30 31  1  0
 30 32  1  0
 30 33  1  0
 33 34  1  1
 33 35  1  0
 35 36  1  0
 35 37  1  0
 35 38  1  0
  6 39  1  0
 39 40  1  0
 39 41  2  0
 41 42  1  0
 41  2  1  0
 15  7  1  0
 33 23  1  0
M  END
>  <cnnaffinity>  (1) 
4.3625

>  <plip>  (1) 
-0.07142857142857142

>  <filename>  (1) 
[H][c]1[n][c]([H])[c]([N]2[C]([H])([H])[C]([H])([H])[O][C@@]2([H])[C]([H])([H])[C]([H])([H])[N]2[C]([H])([H])[C]([H])([H])[C]([H])([H])[C@@]2([H])[C]([H])([H])[H])[c]([H])[c]1[H]

>  <combo1>  (1) 
-0.39740385286337543

$$$$
