
     RDKit          3D

 45 46  0  0  0  0  0  0  0  0999 V2000
    5.0795    1.6173   17.0403 H   0  0  0  0  0  0  0  0  0  0  0  0
    5.4683    1.1237   17.9286 C   0  0  0  0  0  0  0  0  0  0  0  0
    6.5984    0.4233   17.7758 N   0  0  0  0  0  0  0  0  0  0  0  0
    7.1126   -0.1567   18.8712 C   0  0  0  0  0  0  0  0  0  0  0  0
    8.0457   -0.6889   18.7030 H   0  0  0  0  0  0  0  0  0  0  0  0
    6.5626   -0.0841   20.1657 C   0  0  0  0  0  0  0  0  0  0  0  0
    7.2998   -0.5743   21.4190 C   0  0  0  0  0  0  0  0  0  0  0  0
    6.4594   -1.5740   22.1011 N   0  0  0  0  0  0  0  0  0  0  0  0
    5.5809   -1.8401   21.6878 H   0  0  0  0  0  0  0  0  0  0  0  0
    6.7642   -2.0938   23.3182 C   0  0  0  0  0  0  0  0  0  0  0  0
    7.8592   -1.9196   23.8388 O   0  0  0  0  0  0  0  0  0  0  0  0
    5.7700   -2.9783   24.0326 C   0  0  0  0  0  0  0  0  0  0  0  0
    4.7384   -2.7351   23.8007 H   0  0  0  0  0  0  0  0  0  0  0  0
    5.9305   -2.8536   25.1051 H   0  0  0  0  0  0  0  0  0  0  0  0
    5.9853   -4.4231   23.6151 C   0  0  0  0  0  0  0  0  0  0  0  0
    7.0007   -4.7705   23.8722 H   0  0  0  0  0  0  0  0  0  0  0  0
    5.3059   -5.0808   24.1713 H   0  0  0  0  0  0  0  0  0  0  0  0
    5.7213   -4.4717   22.1679 N   0  0  0  0  0  0  0  0  0  0  0  0
    6.9557   -4.6874   21.3886 C   0  0  0  0  0  0  0  0  0  0  0  0
    7.8067   -4.1282   21.8021 H   0  0  0  0  0  0  0  0  0  0  0  0
    6.7869   -4.3225   20.3642 H   0  0  0  0  0  0  0  0  0  0  0  0
    7.1787   -6.2153   21.3847 C   0  0  0  0  0  0  0  0  0  0  0  0
    7.9478   -6.4932   22.1117 H   0  0  0  0  0  0  0  0  0  0  0  0
    7.5281   -6.5405   20.4038 H   0  0  0  0  0  0  0  0  0  0  0  0
    5.7896   -6.8096   21.7405 C   0  0  0  0  0  0  0  0  0  0  0  0
    5.7981   -7.3028   22.7215 H   0  0  0  0  0  0  0  0  0  0  0  0
    5.4337   -7.5263   21.0055 H   0  0  0  0  0  0  0  0  0  0  0  0
    4.8653   -5.5901   21.7176 C   0  0  1  0  0  0  0  0  0  0  0  0
    4.6815   -5.3963   20.6518 H   0  0  0  0  0  0  0  0  0  0  0  0
    3.5038   -5.6739   22.4007 C   0  0  0  0  0  0  0  0  0  0  0  0
    2.8938   -6.4652   21.9507 H   0  0  0  0  0  0  0  0  0  0  0  0
    2.9824   -4.7198   22.2640 H   0  0  0  0  0  0  0  0  0  0  0  0
    3.5623   -5.8728   23.4780 H   0  0  0  0  0  0  0  0  0  0  0  0
    7.5530    0.6309   22.3609 C   0  0  0  0  0  0  0  0  0  0  0  0
    6.6190    1.1382   22.6301 H   0  0  0  0  0  0  0  0  0  0  0  0
    8.2065    1.3540   21.8598 H   0  0  0  0  0  0  0  0  0  0  0  0
    8.0302    0.2829   23.2782 H   0  0  0  0  0  0  0  0  0  0  0  0
    8.6587   -1.2102   21.0699 C   0  0  0  0  0  0  0  0  0  0  0  0
    8.5206   -2.1199   20.4730 H   0  0  0  0  0  0  0  0  0  0  0  0
    9.1865   -1.4701   21.9859 H   0  0  0  0  0  0  0  0  0  0  0  0
    9.2684   -0.4966   20.5033 H   0  0  0  0  0  0  0  0  0  0  0  0
    5.3413    0.6058   20.2757 C   0  0  0  0  0  0  0  0  0  0  0  0
    4.8384    0.6813   21.2440 H   0  0  0  0  0  0  0  0  0  0  0  0
    4.7910    1.2215   19.1504 C   0  0  0  0  0  0  0  0  0  0  0  0
    3.8775    1.8043   19.2139 H   0  0  0  0  0  0  0  0  0  0  0  0
  1  2  1  0
  2  3  2  0
  3  4  1  0
  4  5  1  0
  4  6  2  0
  6  7  1  0
  7  8  1  0
  8  9  1  0
  8 10  1  0
 10 11  2  0
 10 12  1  0
 12 13  1  0
 12 14  1  0
 12 15  1  0
 15 16  1  0
 15 17  1  0
 15 18  1  0
 18 19  1  0
 19 20  1  0
 19 21  1  0
 19 22  1  0
 22 23  1  0
 22 24  1  0
 22 25  1  0
 25 26  1  0
 25 27  1  0
 25 28  1  0
 28 29  1  6
 28 30  1  0
 30 31  1  0
 30 32  1  0
 30 33  1  0
  7 34  1  0
 34 35  1  0
 34 36  1  0
 34 37  1  0
  7 38  1  0
 38 39  1  0
 38 40  1  0
 38 41  1  0
  6 42  1  0
 42 43  1  0
 42 44  2  0
 44 45  1  0
 44  2  1  0
 28 18  1  0
M  END
>  <cnnaffinity>  (1) 
4.79149

>  <plip>  (1) 
-0.12903225806451613

>  <filename>  (1) 
[H][c]1[n][c]([H])[c]([C]([N]([H])[C](=[O])[C]([H])([H])[C]([H])([H])[N]2[C]([H])([H])[C]([H])([H])[C]([H])([H])[C@@]2([H])[C]([H])([H])[H])([C]([H])([H])[H])[C]([H])([H])[H])[c]([H])[c]1[H]

>  <combo1>  (1) 
-0.7483245631666741

$$$$
