
     RDKit          3D

 31 33  0  0  0  0  0  0  0  0999 V2000
    6.4981   -1.6457   21.8408 O   0  0  0  0  0  0  0  0  0  0  0  0
    7.5103   -0.8218   21.2137 S   0  0  0  0  0  0  0  0  0  0  0  0
    8.6854   -1.4015   20.5907 O   0  0  0  0  0  0  0  0  0  0  0  0
    6.6832    0.0913   19.9854 C   0  0  0  0  0  0  0  0  0  0  0  0
    5.4459    0.6879   20.2344 C   0  0  0  0  0  0  0  0  0  0  0  0
    4.8330    1.3073   19.1516 C   0  0  0  0  0  0  0  0  0  0  0  0
    5.4566    1.2572   17.8980 C   0  0  0  0  0  0  0  0  0  0  0  0
    6.6193    0.6279   17.6717 N   0  0  0  0  0  0  0  0  0  0  0  0
    7.2229    0.0442   18.7053 C   0  0  0  0  0  0  0  0  0  0  0  0
    8.1535   -0.4689   18.4791 H   0  0  0  0  0  0  0  0  0  0  0  0
    5.0004    1.7363   17.0380 H   0  0  0  0  0  0  0  0  0  0  0  0
    3.8832    1.8217   19.2579 H   0  0  0  0  0  0  0  0  0  0  0  0
    4.9515    0.6417   21.2129 H   0  0  0  0  0  0  0  0  0  0  0  0
    8.0230    0.3329   22.3140 N   0  0  0  0  0  0  0  0  0  0  0  0
    8.4187    1.6656   21.8538 C   0  0  0  0  0  0  0  0  0  0  0  0
    7.5581    2.6732   22.6054 C   0  0  0  0  0  0  0  0  0  0  0  0
    8.0348    2.7430   24.3441 S   0  0  0  0  0  0  0  0  0  0  0  0
    8.0502    1.0106   24.6999 C   0  0  0  0  0  0  0  0  0  0  0  0
    7.9966    0.6569   26.0557 C   0  0  0  0  0  0  0  0  0  0  0  0
    8.0863   -0.6771   26.4490 C   0  0  0  0  0  0  0  0  0  0  0  0
    8.2644   -1.6683   25.4774 C   0  0  0  0  0  0  0  0  0  0  0  0
    8.3028   -1.3285   24.1191 C   0  0  0  0  0  0  0  0  0  0  0  0
    8.1329    0.0040   23.7013 C   0  0  0  0  0  0  0  0  0  0  0  0
    8.4504   -2.0977   23.3690 H   0  0  0  0  0  0  0  0  0  0  0  0
    8.3523   -2.7099   25.7765 H   0  0  0  0  0  0  0  0  0  0  0  0
    8.0068   -0.9266   27.5054 H   0  0  0  0  0  0  0  0  0  0  0  0
    7.8760    1.4486   26.7920 H   0  0  0  0  0  0  0  0  0  0  0  0
    6.5058    2.3664   22.5404 H   0  0  0  0  0  0  0  0  0  0  0  0
    7.6766    3.6839   22.2156 H   0  0  0  0  0  0  0  0  0  0  0  0
    8.2804    1.7821   20.7728 H   0  0  0  0  0  0  0  0  0  0  0  0
    9.4875    1.8191   22.0601 H   0  0  0  0  0  0  0  0  0  0  0  0
  1  2  2  0
  2  3  2  0
  2  4  1  0
  4  5  2  0
  5  6  1  0
  6  7  2  0
  7  8  1  0
  8  9  2  0
  9 10  1  0
  7 11  1  0
  6 12  1  0
  5 13  1  0
  2 14  1  0
 14 15  1  0
 15 16  1  0
 16 17  1  0
 17 18  1  0
 18 19  2  0
 19 20  1  0
 20 21  2  0
 21 22  1  0
 22 23  2  0
 22 24  1  0
 21 25  1  0
 20 26  1  0
 19 27  1  0
 16 28  1  0
 16 29  1  0
 15 30  1  0
 15 31  1  0
  9  4  1  0
 23 14  1  0
 23 18  1  0
M  END
>  <cnnaffinity>  (1) 
4.81468

>  <plip>  (1) 
-0.034482758620689655

>  <filename>  (1) 
[H][c]1[n][c]([H])[c]([S](=[O])(=[O])[N]2[c]3[c]([H])[c]([H])[c]([H])[c]([H])[c]3[S][C]([H])([H])[C]2([H])[H])[c]([H])[c]1[H]

>  <combo1>  (1) 
-0.18927492663880624

$$$$
