
     RDKit          3D

 37 38  0  0  0  0  0  0  0  0999 V2000
   11.3535   -1.6408   22.4378 C   0  0  0  0  0  0  0  0  0  0  0  0
   11.4091   -1.6902   22.1384 C   0  0  0  0  0  0  0  0  0  0  0  0
    9.9621   -1.6457   22.8160 C   0  0  0  0  0  0  0  0  0  0  0  0
    9.1030   -0.3012   22.9004 C   0  0  0  0  0  0  0  0  0  0  0  0
    8.3964    0.0889   21.5491 N   0  0  0  0  0  4  0  0  0  0  0  0
    7.3492   -0.7852   20.9695 C   0  0  0  0  0  0  0  0  0  0  0  0
    6.6677    0.0113   19.8920 C   0  0  0  0  0  0  0  0  0  0  0  0
    5.4458    0.6680   20.1059 C   0  0  0  0  0  0  0  0  0  0  0  0
    4.8697    1.3905   19.0593 C   0  0  0  0  0  0  0  0  0  0  0  0
    5.5257    1.4212   17.8263 C   0  0  0  0  0  0  0  0  0  0  0  0
    6.6923    0.8000   17.6027 N   0  0  0  0  0  0  0  0  0  0  0  0
    7.2415    0.1212   18.6169 C   0  0  0  0  0  0  0  0  0  0  0  0
    8.1885   -0.3709   18.3899 H   0  0  0  0  0  0  0  0  0  0  0  0
    5.0964    1.9635   16.9820 H   0  0  0  0  0  0  0  0  0  0  0  0
    3.9367    1.9295   19.1805 H   0  0  0  0  0  0  0  0  0  0  0  0
    4.9643    0.6268   21.0855 H   0  0  0  0  0  0  0  0  0  0  0  0
    6.6023   -1.0776   21.7181 H   0  0  0  0  0  0  0  0  0  0  0  0
    7.7866   -1.7025   20.5609 H   0  0  0  0  0  0  0  0  0  0  0  0
    9.0751    0.2817   20.7770 H   0  0  0  0  0  0  0  0  0  0  0  0
    7.9284    1.0142   21.6867 H   0  0  0  0  0  0  0  0  0  0  0  0
    9.8014    0.9420   23.4445 C   0  0  0  0  0  0  0  0  0  0  0  0
    9.8571    0.7942   24.9872 C   0  0  0  0  0  0  0  0  0  0  0  0
    8.6724   -0.1199   25.3179 N   0  0  0  0  0  4  0  0  0  0  0  0
    8.0063   -0.4702   23.9847 C   0  0  0  0  0  0  0  0  0  0  0  0
    7.5995   -1.4805   23.9732 H   0  0  0  0  0  0  0  0  0  0  0  0
    7.1820    0.2240   23.7861 H   0  0  0  0  0  0  0  0  0  0  0  0
    8.0105    0.3438   25.9833 H   0  0  0  0  0  0  0  0  0  0  0  0
    9.0047   -1.0007   25.7906 H   0  0  0  0  0  0  0  0  0  0  0  0
    9.7510    1.7564   25.5120 H   0  0  0  0  0  0  0  0  0  0  0  0
   10.7933    0.3450   25.3407 H   0  0  0  0  0  0  0  0  0  0  0  0
    9.1221    1.7830   23.2397 H   0  0  0  0  0  0  0  0  0  0  0  0
   10.7539    1.2119   22.9771 H   0  0  0  0  0  0  0  0  0  0  0  0
    9.2790   -2.2351   22.1221 H   0  0  0  0  0  0  0  0  0  0  0  0
    9.7565   -2.1267   23.8380 H   0  0  0  0  0  0  0  0  0  0  0  0
   11.9090   -0.5865   22.5213 H   0  0  0  0  0  0  0  0  0  0  0  0
   12.1738   -2.4896   22.8341 H   0  0  0  0  0  0  0  0  0  0  0  0
   11.7927   -1.7903   20.6153 H   0  0  0  0  0  0  0  0  0  0  0  0
  1  2  2  3
  2  3  1  0
  3  4  1  0
  4  5  1  0
  5  6  1  0
  6  7  1  0
  7  8  2  0
  8  9  1  0
  9 10  2  0
 10 11  1  0
 11 12  2  0
 12 13  1  0
 10 14  1  0
  9 15  1  0
  8 16  1  0
  6 17  1  0
  6 18  1  0
  5 19  1  0
  5 20  1  0
  4 21  1  0
 21 22  1  0
 22 23  1  0
 23 24  1  0
 24 25  1  0
 24 26  1  0
 23 27  1  0
 23 28  1  0
 22 29  1  0
 22 30  1  0
 21 31  1  0
 21 32  1  0
  3 33  1  0
  3 34  1  0
  2 35  1  0
  1 36  1  0
  1 37  1  0
 24  4  1  0
 12  7  1  0
M  CHG  2   5   1  23   1
M  END
>  <cnnaffinity>  (1) 
4.6355

>  <plip>  (1) 
-0.07142857142857142

>  <filename>  (1) 
[H][C]([H])=[C]([H])[C]([H])([H])[C]1([N+]([H])([H])[C]([H])([H])[c]2[c]([H])[n][c]([H])[c]([H])[c]2[H])[C]([H])([H])[C]([H])([H])[N+]([H])([H])[C]1([H])[H]

>  <combo1>  (1) 
-0.503205403767109

$$$$
