
     RDKit          3D

 20 21  0  0  0  0  0  0  0  0999 V2000
    4.9481    1.7810   17.0294 H   0  0  0  0  0  0  0  0  0  0  0  0
    5.4249    1.2709   17.8603 C   0  0  0  0  0  0  0  0  0  0  0  0
    6.5860    0.6562   17.5867 N   0  0  0  0  0  0  0  0  0  0  0  0
    7.2143    0.0295   18.5871 C   0  0  0  0  0  0  0  0  0  0  0  0
    8.1595   -0.4386   18.3273 H   0  0  0  0  0  0  0  0  0  0  0  0
    6.7089   -0.0296   19.9072 C   0  0  0  0  0  0  0  0  0  0  0  0
    7.2993   -0.6821   21.0332 N   0  0  0  0  0  0  0  0  0  0  0  0
    8.3981   -1.2274   20.7924 N   0  0  0  0  0  0  0  0  0  0  0  0
    8.9704   -1.8322   21.8846 N   0  0  0  0  0  0  0  0  0  0  0  0
    8.5397   -2.0010   23.1891 C   0  0  0  0  0  0  0  0  0  0  0  0
    7.6157   -1.5544   23.5186 H   0  0  0  0  0  0  0  0  0  0  0  0
    9.3995   -2.6949   23.8764 N   0  0  0  0  0  0  0  0  0  0  0  0
   10.4391   -2.9851   23.0107 C   0  0  0  0  0  0  0  0  0  0  0  0
   11.2718   -3.5836   23.3588 H   0  0  0  0  0  0  0  0  0  0  0  0
   10.2011   -2.4500   21.7802 C   0  0  0  0  0  0  0  0  0  0  0  0
   10.7284   -2.3703   20.8444 H   0  0  0  0  0  0  0  0  0  0  0  0
    5.4955    0.6152   20.1711 C   0  0  0  0  0  0  0  0  0  0  0  0
    5.0978    0.5835   21.1861 H   0  0  0  0  0  0  0  0  0  0  0  0
    4.8432    1.2778   19.1326 C   0  0  0  0  0  0  0  0  0  0  0  0
    3.9109    1.8044   19.2931 H   0  0  0  0  0  0  0  0  0  0  0  0
  1  2  1  0
  2  3  2  0
  3  4  1  0
  4  5  1  0
  4  6  2  0
  6  7  1  0
  7  8  2  3
  8  9  1  0
  9 10  1  0
 10 11  1  0
 10 12  2  0
 12 13  1  0
 13 14  1  0
 13 15  2  0
 15 16  1  0
  6 17  1  0
 17 18  1  0
 17 19  2  0
 19 20  1  0
 19  2  1  0
 15  9  1  0
M  END
>  <cnnaffinity>  (1) 
4.3171

>  <plip>  (1) 
-0.06896551724137931

>  <filename>  (1) 
[H][c]1[n][c]([H])[c]([N]=[N][n]2[c]([H])[n][c]([H])[c]2[H])[c]([H])[c]1[H]

>  <combo1>  (1) 
-0.573069934350698

$$$$
