
     RDKit          3D

 42 44  0  0  0  0  0  0  0  0999 V2000
    9.1651    2.9788   21.7521 O   0  0  0  0  0  0  0  0  0  0  0  0
    8.0172    2.7473   22.1013 C   0  0  0  0  0  0  0  0  0  0  0  0
    7.5183    1.4829   22.1847 N   0  0  0  0  0  0  0  0  0  0  0  0
    8.1569    0.3183   21.5848 C   0  0  0  0  0  0  0  0  0  0  0  0
    7.0769   -0.6035   20.9692 C   0  0  0  0  0  0  0  0  0  0  0  0
    6.3702    0.0157   19.7729 C   0  0  0  0  0  0  0  0  0  0  0  0
    5.1659    0.7302   19.9012 C   0  0  0  0  0  0  0  0  0  0  0  0
    4.6603    1.4111   18.7911 C   0  0  0  0  0  0  0  0  0  0  0  0
    5.3608    1.3527   17.5854 C   0  0  0  0  0  0  0  0  0  0  0  0
    6.4897    0.6449   17.4225 N   0  0  0  0  0  0  0  0  0  0  0  0
    6.9634   -0.0018   18.4948 C   0  0  0  0  0  0  0  0  0  0  0  0
    7.8843   -0.5628   18.3225 H   0  0  0  0  0  0  0  0  0  0  0  0
    5.0025    1.8916   16.7110 H   0  0  0  0  0  0  0  0  0  0  0  0
    3.7522    2.0022   18.8519 H   0  0  0  0  0  0  0  0  0  0  0  0
    4.6499    0.7765   20.8637 H   0  0  0  0  0  0  0  0  0  0  0  0
    7.5536   -1.5371   20.6453 H   0  0  0  0  0  0  0  0  0  0  0  0
    6.3558   -0.8871   21.7495 H   0  0  0  0  0  0  0  0  0  0  0  0
    9.0930   -0.3978   22.5838 C   0  0  0  0  0  0  0  0  0  0  0  0
    9.8544   -1.5849   21.9706 C   0  0  0  0  0  0  0  0  0  0  0  0
   11.0681   -1.8218   22.8861 C   0  0  0  0  0  0  0  0  0  0  0  0
   11.2392   -0.5153   23.7060 C   0  0  0  0  0  0  0  0  0  0  0  0
   10.2387    0.4780   23.1142 C   0  0  0  0  0  0  0  0  0  0  0  0
    9.8974    1.2344   23.8290 H   0  0  0  0  0  0  0  0  0  0  0  0
   10.7057    1.0082   22.2763 H   0  0  0  0  0  0  0  0  0  0  0  0
   12.2642   -0.1329   23.6610 H   0  0  0  0  0  0  0  0  0  0  0  0
   11.0183   -0.6946   24.7649 H   0  0  0  0  0  0  0  0  0  0  0  0
   10.8980   -2.6747   23.5520 H   0  0  0  0  0  0  0  0  0  0  0  0
   11.9616   -2.0605   22.3002 H   0  0  0  0  0  0  0  0  0  0  0  0
   10.1915   -1.2915   20.9656 H   0  0  0  0  0  0  0  0  0  0  0  0
    9.2294   -2.4774   21.8606 H   0  0  0  0  0  0  0  0  0  0  0  0
    8.5019   -0.7512   23.4477 H   0  0  0  0  0  0  0  0  0  0  0  0
    8.7874    0.7071   20.7683 H   0  0  0  0  0  0  0  0  0  0  0  0
    6.6039    1.3874   22.5984 H   0  0  0  0  0  0  0  0  0  0  0  0
    6.9992    3.8720   22.4318 C   0  0  0  0  0  0  0  0  0  0  0  0
    5.9234    3.6069   23.2192 N   0  0  0  0  0  0  0  0  0  0  0  0
    5.0514    4.5810   23.4575 C   0  0  0  0  0  0  0  0  0  0  0  0
    5.1153    5.8214   22.9655 N   0  0  0  0  0  0  0  0  0  0  0  0
    6.1527    6.0911   22.1681 C   0  0  0  0  0  0  0  0  0  0  0  0
    7.1370    5.1488   21.8777 C   0  0  0  0  0  0  0  0  0  0  0  0
    8.1451    5.4913   21.0833 F   0  0  0  0  0  0  0  0  0  0  0  0
    6.2442    7.0865   21.7344 H   0  0  0  0  0  0  0  0  0  0  0  0
    4.1947    4.3390   24.0861 H   0  0  0  0  0  0  0  0  0  0  0  0
  1  2  2  0
  2  3  1  0
  3  4  1  0
  4  5  1  0
  5  6  1  0
  6  7  2  0
  7  8  1  0
  8  9  2  0
  9 10  1  0
 10 11  2  0
 11 12  1  0
  9 13  1  0
  8 14  1  0
  7 15  1  0
  5 16  1  0
  5 17  1  0
  4 18  1  0
 18 19  1  0
 19 20  1  0
 20 21  1  0
 21 22  1  0
 22 23  1  0
 22 24  1  0
 21 25  1  0
 21 26  1  0
 20 27  1  0
 20 28  1  0
 19 29  1  0
 19 30  1  0
 18 31  1  0
  4 32  1  0
  3 33  1  0
  2 34  1  0
 34 35  2  0
 35 36  1  0
 36 37  2  0
 37 38  1  0
 38 39  2  0
 39 40  1  0
 38 41  1  0
 36 42  1  0
 11  6  1  0
 22 18  1  0
 39 34  1  0
M  END
>  <cnnaffinity>  (1) 
5.26346

>  <plip>  (1) 
-0.1

>  <filename>  (1) 
[H][c]1[n][c]([H])[c]([F])[c]([C](=[O])[N]([H])[C]([H])([C]([H])([H])[c]2[c]([H])[n][c]([H])[c]([H])[c]2[H])[C]2([H])[C]([H])([H])[C]([H])([H])[C]([H])([H])[C]2([H])[H])[n]1

>  <combo1>  (1) 
-0.5581067382609542

$$$$
