
     RDKit          3D

 41 43  0  0  0  0  0  0  0  0999 V2000
    7.6265   -2.1116   20.9117 C   0  0  0  0  0  0  0  0  0  0  0  0
    7.2674   -0.6512   21.1351 C   0  0  1  0  0  0  0  0  0  0  0  0
    8.5729    0.0231   21.3546 N   0  0  0  0  0  4  0  0  0  0  0  0
    8.5302    1.4216   21.7605 C   0  0  0  0  0  0  0  0  0  0  0  0
    9.8717    1.8522   22.3114 C   0  0  0  0  0  0  0  0  0  0  0  0
   10.9872    1.9436   21.2625 C   0  0  0  0  0  0  0  0  0  0  0  0
   12.2159    2.3817   21.8296 O   0  0  0  0  0  0  0  0  0  0  0  0
   12.1699    3.4128   22.7262 C   0  0  0  0  0  0  0  0  0  0  0  0
   13.4050    3.9730   23.0594 C   0  0  0  0  0  0  0  0  0  0  0  0
   13.4674    4.9310   24.0648 C   0  0  0  0  0  0  0  0  0  0  0  0
   12.3062    5.3909   24.6969 C   0  0  0  0  0  0  0  0  0  0  0  0
   11.0683    4.8645   24.3235 C   0  0  0  0  0  0  0  0  0  0  0  0
   10.9852    3.8563   23.3510 C   0  0  0  0  0  0  0  0  0  0  0  0
    9.6746    3.2251   22.9601 C   0  0  0  0  0  0  0  0  0  0  0  0
    9.0266    3.1204   23.8407 H   0  0  0  0  0  0  0  0  0  0  0  0
    9.1403    3.8815   22.2521 H   0  0  0  0  0  0  0  0  0  0  0  0
   10.1621    5.2329   24.8055 H   0  0  0  0  0  0  0  0  0  0  0  0
   12.3699    6.1427   25.4764 H   0  0  0  0  0  0  0  0  0  0  0  0
   14.4360    5.2700   24.3872 H   0  0  0  0  0  0  0  0  0  0  0  0
   14.2830    3.6288   22.5229 H   0  0  0  0  0  0  0  0  0  0  0  0
   11.2322    0.9613   20.8484 H   0  0  0  0  0  0  0  0  0  0  0  0
   10.7051    2.6428   20.4618 H   0  0  0  0  0  0  0  0  0  0  0  0
   10.2093    1.1317   23.0727 H   0  0  0  0  0  0  0  0  0  0  0  0
    8.2463    2.0705   20.9167 H   0  0  0  0  0  0  0  0  0  0  0  0
    7.7493    1.5750   22.5197 H   0  0  0  0  0  0  0  0  0  0  0  0
    9.1190   -0.5283   22.0499 H   0  0  0  0  0  0  0  0  0  0  0  0
    9.0666   -0.0236   20.4362 H   0  0  0  0  0  0  0  0  0  0  0  0
    6.5575    0.0396   19.9979 C   0  0  0  0  0  0  0  0  0  0  0  0
    5.3444    0.7227   20.1631 C   0  0  0  0  0  0  0  0  0  0  0  0
    4.7795    1.3650   19.0575 C   0  0  0  0  0  0  0  0  0  0  0  0
    5.4569    1.3219   17.8353 C   0  0  0  0  0  0  0  0  0  0  0  0
    6.6272    0.6916   17.6692 N   0  0  0  0  0  0  0  0  0  0  0  0
    7.1560    0.0802   18.7365 C   0  0  0  0  0  0  0  0  0  0  0  0
    8.1073   -0.4218   18.5632 H   0  0  0  0  0  0  0  0  0  0  0  0
    5.0383    1.8077   16.9524 H   0  0  0  0  0  0  0  0  0  0  0  0
    3.8361    1.8944   19.1264 H   0  0  0  0  0  0  0  0  0  0  0  0
    4.8616    0.7612   21.1424 H   0  0  0  0  0  0  0  0  0  0  0  0
    6.6349   -0.5687   22.0295 H   0  0  0  0  0  0  0  0  0  0  0  0
    8.5178   -2.1672   20.2832 H   0  0  0  0  0  0  0  0  0  0  0  0
    7.8798   -2.5739   21.8693 H   0  0  0  0  0  0  0  0  0  0  0  0
    6.8265   -2.6942   20.4528 H   0  0  0  0  0  0  0  0  0  0  0  0
  1  2  1  0
  2  3  1  0
  3  4  1  0
  4  5  1  0
  5  6  1  0
  6  7  1  0
  7  8  1  0
  8  9  2  0
  9 10  1  0
 10 11  2  0
 11 12  1  0
 12 13  2  0
 13 14  1  0
 14 15  1  0
 14 16  1  0
 12 17  1  0
 11 18  1  0
 10 19  1  0
  9 20  1  0
  6 21  1  0
  6 22  1  0
  5 23  1  0
  4 24  1  0
  4 25  1  0
  3 26  1  0
  3 27  1  0
  2 28  1  0
 28 29  2  0
 29 30  1  0
 30 31  2  0
 31 32  1  0
 32 33  2  0
 33 34  1  0
 31 35  1  0
 30 36  1  0
 29 37  1  0
  2 38  1  1
  1 39  1  0
  1 40  1  0
  1 41  1  0
 14  5  1  0
 33 28  1  0
 13  8  1  0
M  CHG  1   3   1
M  END
>  <cnnaffinity>  (1) 
4.80242

>  <plip>  (1) 
-0.10344827586206896

>  <filename>  (1) 
[H][c]1[n][c]([H])[c]([C@@]([H])([C]([H])([H])[H])[N+]([H])([H])[C]([H])([H])[C]2([H])[C]([H])([H])[O][c]3[c]([H])[c]([H])[c]([H])[c]([H])[c]3[C]2([H])[H])[c]([H])[c]1[H]

>  <combo1>  (1) 
-0.6147749163047297

$$$$
