
     RDKit          3D

 36 38  0  0  0  0  0  0  0  0999 V2000
    4.9651    1.8315   16.9697 H   0  0  0  0  0  0  0  0  0  0  0  0
    5.4117    1.3034   17.8089 C   0  0  0  0  0  0  0  0  0  0  0  0
    6.5643    0.6600   17.5678 N   0  0  0  0  0  0  0  0  0  0  0  0
    7.1306    0.0141   18.5960 C   0  0  0  0  0  0  0  0  0  0  0  0
    8.0804   -0.4771   18.3707 H   0  0  0  0  0  0  0  0  0  0  0  0
    6.6094   -0.0330   19.8961 C   0  0  0  0  0  0  0  0  0  0  0  0
    7.3967   -0.7284   20.9886 C   0  0  2  0  0  0  0  0  0  0  0  0
    8.2658   -1.2040   20.5128 H   0  0  0  0  0  0  0  0  0  0  0  0
    6.6022   -1.8100   21.5650 N   0  0  0  0  0  0  0  0  0  0  0  0
    7.1517   -2.2789   22.2876 H   0  0  0  0  0  0  0  0  0  0  0  0
    5.8076   -1.3952   22.0495 H   0  0  0  0  0  0  0  0  0  0  0  0
    7.9264    0.2882   22.0250 C   0  0  0  0  0  0  0  0  0  0  0  0
    7.0628    0.7935   22.4788 H   0  0  0  0  0  0  0  0  0  0  0  0
    8.4681    1.0660   21.4755 H   0  0  0  0  0  0  0  0  0  0  0  0
    8.8079   -0.3182   23.1003 C   0  0  1  0  0  0  0  0  0  0  0  0
    9.6508   -0.8893   22.7148 H   0  0  0  0  0  0  0  0  0  0  0  0
    9.0662    0.3812   24.4008 C   0  0  0  0  0  0  0  0  0  0  0  0
    8.5784    1.3395   24.5569 H   0  0  0  0  0  0  0  0  0  0  0  0
   10.0522    0.3215   24.8585 H   0  0  0  0  0  0  0  0  0  0  0  0
    8.1896   -0.8510   24.3708 C   0  0  2  0  0  0  0  0  0  0  0  0
    7.1300   -0.6173   24.4838 H   0  0  0  0  0  0  0  0  0  0  0  0
    8.6093   -2.1662   24.9525 C   0  0  0  0  0  0  0  0  0  0  0  0
    9.9328   -2.6287   24.8188 C   0  0  0  0  0  0  0  0  0  0  0  0
   10.6651   -2.0242   24.2903 H   0  0  0  0  0  0  0  0  0  0  0  0
   10.3367   -3.8492   25.3687 C   0  0  0  0  0  0  0  0  0  0  0  0
   11.3450   -4.2112   25.1764 H   0  0  0  0  0  0  0  0  0  0  0  0
    9.4411   -4.5959   26.1397 C   0  0  0  0  0  0  0  0  0  0  0  0
    9.7576   -5.5012   26.6560 H   0  0  0  0  0  0  0  0  0  0  0  0
    8.1171   -4.1610   26.2623 C   0  0  0  0  0  0  0  0  0  0  0  0
    7.4174   -4.7316   26.8648 H   0  0  0  0  0  0  0  0  0  0  0  0
    7.6952   -2.9740   25.6534 C   0  0  0  0  0  0  0  0  0  0  0  0
    6.6563   -2.6636   25.7605 H   0  0  0  0  0  0  0  0  0  0  0  0
    5.3996    0.6431   20.1194 C   0  0  0  0  0  0  0  0  0  0  0  0
    4.9471    0.6714   21.1137 H   0  0  0  0  0  0  0  0  0  0  0  0
    4.7897    1.3159   19.0612 C   0  0  0  0  0  0  0  0  0  0  0  0
    3.8642    1.8647   19.1973 H   0  0  0  0  0  0  0  0  0  0  0  0
  1  2  1  0
  2  3  2  0
  3  4  1  0
  4  5  1  0
  4  6  2  0
  6  7  1  0
  7  8  1  6
  7  9  1  0
  9 10  1  0
  9 11  1  0
  7 12  1  0
 12 13  1  0
 12 14  1  0
 12 15  1  0
 15 16  1  6
 15 17  1  0
 17 18  1  0
 17 19  1  0
 17 20  1  0
 20 21  1  6
 20 22  1  0
 22 23  2  0
 23 24  1  0
 23 25  1  0
 25 26  1  0
 25 27  2  0
 27 28  1  0
 27 29  1  0
 29 30  1  0
 29 31  2  0
 31 32  1  0
  6 33  1  0
 33 34  1  0
 33 35  2  0
 35 36  1  0
 35  2  1  0
 20 15  1  0
 31 22  1  0
M  END
>  <cnnaffinity>  (1) 
4.85242

>  <plip>  (1) 
-0.03571428571428571

>  <filename>  (1) 
[H][c]1[n][c]([H])[c]([C@]([H])([N]([H])[H])[C]([H])([H])[C@@]2([H])[C]([H])([H])[C@]2([H])[c]2[c]([H])[c]([H])[c]([H])[c]([H])[c]2[H])[c]([H])[c]1[H]

>  <combo1>  (1) 
-0.24237794339836014

$$$$
