
     RDKit          3D

 37 38  0  0  0  0  0  0  0  0999 V2000
    6.4681    1.0167   23.5371 O   0  0  0  0  0  0  0  0  0  0  0  0
    7.3656    0.4563   24.5040 C   0  0  0  0  0  0  0  0  0  0  0  0
    8.2059   -0.6910   23.9349 C   0  0  0  0  0  0  0  0  0  0  0  0
    9.0590   -0.3339   22.6936 C   0  0  0  0  0  0  0  0  0  0  0  0
    8.1243    0.2269   21.6819 N   0  0  0  0  0  4  0  0  0  0  0  0
    7.2667   -0.7450   20.9595 C   0  0  0  0  0  0  0  0  0  0  0  0
    6.5670    0.0120   19.8737 C   0  0  0  0  0  0  0  0  0  0  0  0
    5.3540    0.6840   20.0879 C   0  0  0  0  0  0  0  0  0  0  0  0
    4.7750    1.3737   19.0248 C   0  0  0  0  0  0  0  0  0  0  0  0
    5.4364    1.3710   17.7939 C   0  0  0  0  0  0  0  0  0  0  0  0
    6.6020    0.7439   17.5721 N   0  0  0  0  0  0  0  0  0  0  0  0
    7.1480    0.0888   18.5995 C   0  0  0  0  0  0  0  0  0  0  0  0
    8.1066   -0.3998   18.3973 H   0  0  0  0  0  0  0  0  0  0  0  0
    5.0054    1.8838   16.9398 H   0  0  0  0  0  0  0  0  0  0  0  0
    3.8394    1.9144   19.1432 H   0  0  0  0  0  0  0  0  0  0  0  0
    4.8904    0.6844   21.0782 H   0  0  0  0  0  0  0  0  0  0  0  0
    7.8649   -1.5643   20.5412 H   0  0  0  0  0  0  0  0  0  0  0  0
    6.5458   -1.2009   21.6526 H   0  0  0  0  0  0  0  0  0  0  0  0
    8.5970    0.8397   21.0012 H   0  0  0  0  0  0  0  0  0  0  0  0
    7.4529    0.8429   22.2006 H   0  0  0  0  0  0  0  0  0  0  0  0
    9.8662   -1.5255   22.1370 C   0  0  0  0  0  0  0  0  0  0  0  0
   11.0749   -1.6699   23.0583 C   0  0  0  0  0  0  0  0  0  0  0  0
   11.3359   -0.2436   23.6180 C   0  0  0  0  0  0  0  0  0  0  0  0
   10.2011    0.6368   23.0383 C   0  0  0  0  0  0  0  0  0  0  0  0
   10.5179    1.1213   22.1074 H   0  0  0  0  0  0  0  0  0  0  0  0
    9.8894    1.4370   23.7148 H   0  0  0  0  0  0  0  0  0  0  0  0
   12.3244    0.1409   23.3479 H   0  0  0  0  0  0  0  0  0  0  0  0
   11.3070   -0.2389   24.7137 H   0  0  0  0  0  0  0  0  0  0  0  0
   11.9441   -2.0850   22.5356 H   0  0  0  0  0  0  0  0  0  0  0  0
   10.8459   -2.3781   23.8663 H   0  0  0  0  0  0  0  0  0  0  0  0
   10.1980   -1.2588   21.1229 H   0  0  0  0  0  0  0  0  0  0  0  0
    9.2748   -2.4432   22.0550 H   0  0  0  0  0  0  0  0  0  0  0  0
    8.8625   -1.0370   24.7347 H   0  0  0  0  0  0  0  0  0  0  0  0
    7.5426   -1.5279   23.6849 H   0  0  0  0  0  0  0  0  0  0  0  0
    6.7977    0.1068   25.3795 H   0  0  0  0  0  0  0  0  0  0  0  0
    8.0110    1.2747   24.8408 H   0  0  0  0  0  0  0  0  0  0  0  0
    5.5670    0.7247   23.7540 H   0  0  0  0  0  0  0  0  0  0  0  0
  1  2  1  0
  2  3  1  0
  3  4  1  0
  4  5  1  0
  5  6  1  0
  6  7  1  0
  7  8  2  0
  8  9  1  0
  9 10  2  0
 10 11  1  0
 11 12  2  0
 12 13  1  0
 10 14  1  0
  9 15  1  0
  8 16  1  0
  6 17  1  0
  6 18  1  0
  5 19  1  0
  5 20  1  0
  4 21  1  0
 21 22  1  0
 22 23  1  0
 23 24  1  0
 24 25  1  0
 24 26  1  0
 23 27  1  0
 23 28  1  0
 22 29  1  0
 22 30  1  0
 21 31  1  0
 21 32  1  0
  3 33  1  0
  3 34  1  0
  2 35  1  0
  2 36  1  0
  1 37  1  0
 24  4  1  0
 12  7  1  0
M  CHG  1   5   1
M  END
>  <cnnaffinity>  (1) 
4.46032

>  <plip>  (1) 
-0.10714285714285714

>  <filename>  (1) 
[H][O][C]([H])([H])[C]([H])([H])[C]1([N+]([H])([H])[C]([H])([H])[c]2[c]([H])[n][c]([H])[c]([H])[c]2[H])[C]([H])([H])[C]([H])([H])[C]([H])([H])[C]1([H])[H]

>  <combo1>  (1) 
-0.7197463576347018

$$$$
