
     RDKit          3D

 34 35  0  0  0  0  0  0  0  0999 V2000
    4.9260    1.7961   16.6840 H   0  0  0  0  0  0  0  0  0  0  0  0
    5.3118    1.4166   17.6280 C   0  0  0  0  0  0  0  0  0  0  0  0
    6.5116    0.8212   17.5757 N   0  0  0  0  0  0  0  0  0  0  0  0
    7.0134    0.3672   18.7329 C   0  0  0  0  0  0  0  0  0  0  0  0
    8.0088   -0.0623   18.6644 H   0  0  0  0  0  0  0  0  0  0  0  0
    6.3624    0.4324   19.9820 C   0  0  0  0  0  0  0  0  0  0  0  0
    7.0016   -0.1884   21.2204 C   0  0  2  0  0  0  0  0  0  0  0  0
    6.3169   -0.0230   22.0632 H   0  0  0  0  0  0  0  0  0  0  0  0
    8.4000    0.4131   21.5368 C   0  0  0  0  0  0  0  0  0  0  0  0
    8.5467    0.5139   22.6233 H   0  0  0  0  0  0  0  0  0  0  0  0
    8.5356    1.4030   21.0819 H   0  0  0  0  0  0  0  0  0  0  0  0
    9.3193   -0.5568   20.9643 N   0  0  0  0  0  0  0  0  0  0  0  0
   10.3255   -0.5187   20.9756 H   0  0  0  0  0  0  0  0  0  0  0  0
    8.8231   -1.8139   20.9022 C   0  0  0  0  0  0  0  0  0  0  0  0
    9.4834   -2.8152   20.7649 O   0  0  0  0  0  0  0  0  0  0  0  0
    7.3149   -1.7073   21.0157 C   0  0  1  0  0  0  0  0  0  0  0  0
    6.8971   -2.0707   20.0747 H   0  0  0  0  0  0  0  0  0  0  0  0
    6.8964   -2.6570   22.0998 C   0  0  0  0  0  0  0  0  0  0  0  0
    7.5168   -2.5255   23.2154 N   0  0  0  0  0  0  0  0  0  0  0  0
    7.2015   -3.3414   24.2782 N   0  0  0  0  0  0  0  0  0  0  0  0
    6.4555   -4.0275   24.2877 H   0  0  0  0  0  0  0  0  0  0  0  0
    7.8610   -3.4053   25.4773 C   0  0  0  0  0  0  0  0  0  0  0  0
    7.2960   -4.4415   26.6492 S   0  0  0  0  0  0  0  0  0  0  0  0
    8.9432   -2.6478   25.6424 N   0  0  0  0  0  0  0  0  0  0  0  0
    9.3829   -2.6748   26.5441 H   0  0  0  0  0  0  0  0  0  0  0  0
    9.2338   -2.0291   24.9067 H   0  0  0  0  0  0  0  0  0  0  0  0
    5.8883   -3.7477   21.7922 C   0  0  0  0  0  0  0  0  0  0  0  0
    6.3243   -4.7402   21.9800 H   0  0  0  0  0  0  0  0  0  0  0  0
    5.5643   -3.7090   20.7470 H   0  0  0  0  0  0  0  0  0  0  0  0
    5.0004   -3.6404   22.4277 H   0  0  0  0  0  0  0  0  0  0  0  0
    5.1250    1.0993   20.0087 C   0  0  0  0  0  0  0  0  0  0  0  0
    4.5882    1.2613   20.9467 H   0  0  0  0  0  0  0  0  0  0  0  0
    4.5857    1.5866   18.8117 C   0  0  0  0  0  0  0  0  0  0  0  0
    3.6336    2.1124   18.7859 H   0  0  0  0  0  0  0  0  0  0  0  0
  1  2  1  0
  2  3  2  0
  3  4  1  0
  4  5  1  0
  4  6  2  0
  6  7  1  0
  7  8  1  1
  7  9  1  0
  9 10  1  0
  9 11  1  0
  9 12  1  0
 12 13  1  0
 12 14  1  0
 14 15  2  0
 14 16  1  0
 16 17  1  6
 16 18  1  0
 18 19  2  3
 19 20  1  0
 20 21  1  0
 20 22  1  0
 22 23  2  0
 22 24  1  0
 24 25  1  0
 24 26  1  0
 18 27  1  0
 27 28  1  0
 27 29  1  0
 27 30  1  0
  6 31  1  0
 31 32  1  0
 31 33  2  0
 33 34  1  0
 33  2  1  0
 16  7  1  0
M  END
>  <cnnaffinity>  (1) 
4.89755

>  <plip>  (1) 
-0.06896551724137931

>  <filename>  (1) 
[H][c]1[n][c]([H])[c]([C@]2([H])[C]([H])([H])[N]([H])[C](=[O])[C@@]2([H])[C](=[N][N]([H])[C](=[S])[N]([H])[H])[C]([H])([H])[H])[c]([H])[c]1[H]

>  <combo1>  (1) 
-0.40593523892598615

$$$$
