
     RDKit          3D

 26 27  0  0  0  0  0  0  0  0999 V2000
    4.8925    1.8142   16.9077 H   0  0  0  0  0  0  0  0  0  0  0  0
    5.3981    1.3153   17.7322 C   0  0  0  0  0  0  0  0  0  0  0  0
    6.5285    0.6635   17.4194 N   0  0  0  0  0  0  0  0  0  0  0  0
    7.1738    0.0451   18.4171 C   0  0  0  0  0  0  0  0  0  0  0  0
    8.0936   -0.4760   18.1426 H   0  0  0  0  0  0  0  0  0  0  0  0
    6.7394    0.0417   19.7554 C   0  0  0  0  0  0  0  0  0  0  0  0
    7.5112   -0.6490   20.8458 C   0  0  0  0  0  0  0  0  0  0  0  0
    6.8376   -1.1051   21.5720 H   0  0  0  0  0  0  0  0  0  0  0  0
    8.1772   -1.4109   20.4350 H   0  0  0  0  0  0  0  0  0  0  0  0
    8.6109    0.4767   21.7632 S   0  0  0  0  0  4  0  0  0  0  0  0
    7.8740    1.2178   22.8252 O   0  0  0  0  0  0  0  0  0  0  0  0
    9.4465   -0.8653   22.5723 C   0  0  0  0  0  0  0  0  0  0  0  0
   10.7203   -0.5431   22.9214 C   0  0  0  0  0  0  0  0  0  0  0  0
   11.5497    0.3079   22.8732 H   0  0  0  0  0  0  0  0  0  0  0  0
   10.9479   -0.7338   22.7379 C   0  0  0  0  0  0  0  0  0  0  0  0
   11.6168   -1.8209   22.2732 H   0  0  0  0  0  0  0  0  0  0  0  0
    9.6539   -2.1940   24.8072 C   0  0  0  0  0  0  0  0  0  0  0  0
   10.5565   -2.9227   24.7188 H   0  0  0  0  0  0  0  0  0  0  0  0
    9.3511   -1.8394   24.8020 C   0  0  0  0  0  0  0  0  0  0  0  0
    9.6925   -0.7805   26.1714 Cl  0  0  0  0  0  0  0  0  0  0  0  0
    8.7034   -1.7703   23.5987 C   0  0  0  0  0  0  0  0  0  0  0  0
    7.0129   -1.6984   23.9765 Cl  0  0  0  0  0  0  0  0  0  0  0  0
    5.5544    0.7242   20.0584 C   0  0  0  0  0  0  0  0  0  0  0  0
    5.1899    0.7476   21.0901 H   0  0  0  0  0  0  0  0  0  0  0  0
    4.8676    1.3637   19.0255 C   0  0  0  0  0  0  0  0  0  0  0  0
    3.9463    1.9020   19.2098 H   0  0  0  0  0  0  0  0  0  0  0  0
  1  2  1  0
  2  3  2  0
  3  4  1  0
  4  5  1  0
  4  6  2  0
  6  7  1  0
  7  8  1  0
  7  9  1  0
 10  7  1  6
 10 11  2  0
 10 12  1  0
 12 13  2  0
 13 14  1  0
 13 15  1  0
 15 16  1  0
 15 17  2  0
 17 18  1  0
 17 19  1  0
 19 20  1  0
 19 21  2  0
 21 22  1  0
  6 23  1  0
 23 24  1  0
 23 25  2  0
 25 26  1  0
 25  2  1  0
 21 12  1  0
M  END
>  <cnnaffinity>  (1) 
5.03417

>  <plip>  (1) 
-0.06896551724137931

>  <filename>  (1) 
[H][c]1[n][c]([H])[c]([C]([H])([H])[S@@](=[O])[c]2[c]([H])[c]([H])[c]([H])[c]([Cl])[c]2[Cl])[c]([H])[c]1[H]

>  <combo1>  (1) 
-0.40438476770811504

$$$$
