
     RDKit          3D

 39 41  0  0  0  0  0  0  0  0999 V2000
    4.9536    1.8697   16.9128 H   0  0  0  0  0  0  0  0  0  0  0  0
    5.3998    1.3274   17.7455 C   0  0  0  0  0  0  0  0  0  0  0  0
    6.5486    0.6863   17.4892 N   0  0  0  0  0  0  0  0  0  0  0  0
    7.1274    0.0369   18.5091 C   0  0  0  0  0  0  0  0  0  0  0  0
    8.0629   -0.4672   18.2669 H   0  0  0  0  0  0  0  0  0  0  0  0
    6.6162   -0.0132   19.8129 C   0  0  0  0  0  0  0  0  0  0  0  0
    7.4049   -0.6564   20.9395 C   0  0  2  0  0  0  0  0  0  0  0  0
    8.1272   -1.3824   20.5189 H   0  0  0  0  0  0  0  0  0  0  0  0
    6.5188   -1.3537   21.7985 O   0  0  0  0  0  0  0  0  0  0  0  0
    7.1200   -1.4625   23.0743 C   0  0  0  0  0  0  0  0  0  0  0  0
    6.3252   -1.6384   23.8071 H   0  0  0  0  0  0  0  0  0  0  0  0
    7.8166   -2.3142   23.1132 H   0  0  0  0  0  0  0  0  0  0  0  0
    7.8448   -0.1224   23.2956 C   0  0  2  0  0  0  0  0  0  0  0  0
    7.1921    0.5630   23.8451 H   0  0  0  0  0  0  0  0  0  0  0  0
    8.1316    0.3620   21.8627 C   0  0  1  0  0  0  0  0  0  0  0  0
    7.7400    1.3702   21.6948 H   0  0  0  0  0  0  0  0  0  0  0  0
    9.6639    0.3878   21.7760 C   0  0  0  0  0  0  0  0  0  0  0  0
   10.0340    1.4269   21.7939 H   0  0  0  0  0  0  0  0  0  0  0  0
   10.0673   -0.1012   20.8813 H   0  0  0  0  0  0  0  0  0  0  0  0
   10.1525   -0.3401   22.8891 O   0  0  0  0  0  0  0  0  0  0  0  0
    9.2387   -0.1695   23.9669 C   0  0  2  0  0  0  0  0  0  0  0  0
    9.4273    0.8025   24.4589 H   0  0  0  0  0  0  0  0  0  0  0  0
    9.3336   -1.2394   25.0445 C   0  0  0  0  0  0  0  0  0  0  0  0
    9.9261   -2.3333   24.7523 N   0  0  0  0  0  0  0  0  0  0  0  0
    9.8549   -3.4159   25.5889 N   0  0  0  0  0  0  0  0  0  0  0  0
    9.3416   -3.4777   26.4577 H   0  0  0  0  0  0  0  0  0  0  0  0
   10.5577   -4.5679   25.3794 C   0  0  0  0  0  0  0  0  0  0  0  0
   10.2926   -5.8700   26.3605 S   0  0  0  0  0  0  0  0  0  0  0  0
   11.4141   -4.5507   24.3695 N   0  0  0  0  0  0  0  0  0  0  0  0
   11.3899   -3.7285   23.7809 H   0  0  0  0  0  0  0  0  0  0  0  0
   11.8536   -5.4294   24.1565 H   0  0  0  0  0  0  0  0  0  0  0  0
    8.5824   -1.0423   26.3400 C   0  0  0  0  0  0  0  0  0  0  0  0
    8.0304   -0.1036   26.3646 H   0  0  0  0  0  0  0  0  0  0  0  0
    7.8565   -1.8584   26.4458 H   0  0  0  0  0  0  0  0  0  0  0  0
    9.2541   -1.0812   27.2049 H   0  0  0  0  0  0  0  0  0  0  0  0
    5.3951    0.6399   20.0506 C   0  0  0  0  0  0  0  0  0  0  0  0
    4.9504    0.6142   21.0471 H   0  0  0  0  0  0  0  0  0  0  0  0
    4.7811    1.3206   19.0006 C   0  0  0  0  0  0  0  0  0  0  0  0
    3.8526    1.8618   19.1430 H   0  0  0  0  0  0  0  0  0  0  0  0
  1  2  1  0
  2  3  2  0
  3  4  1  0
  4  5  1  0
  4  6  2  0
  6  7  1  0
  7  8  1  6
  7  9  1  0
  9 10  1  0
 10 11  1  0
 10 12  1  0
 10 13  1  0
 13 14  1  1
 13 15  1  0
 15 16  1  1
 15 17  1  0
 17 18  1  0
 17 19  1  0
 17 20  1  0
 20 21  1  0
 21 22  1  1
 21 23  1  0
 23 24  2  3
 24 25  1  0
 25 26  1  0
 25 27  1  0
 27 28  2  0
 27 29  1  0
 29 30  1  0
 29 31  1  0
 23 32  1  0
 32 33  1  0
 32 34  1  0
 32 35  1  0
  6 36  1  0
 36 37  1  0
 36 38  2  0
 38 39  1  0
 38  2  1  0
 15  7  1  0
 21 13  1  0
M  END
>  <cnnaffinity>  (1) 
5.17782

>  <plip>  (1) 
-0.07142857142857142

>  <filename>  (1) 
[H][c]1[n][c]([H])[c]([C@]2([H])[O][C]([H])([H])[C@]3([H])[C@@]2([H])[C]([H])([H])[O][C@]3([H])[C](=[N][N]([H])[C](=[S])[N]([H])[H])[C]([H])([H])[H])[c]([H])[c]1[H]

>  <combo1>  (1) 
-0.4023663507460356

$$$$
