
     RDKit          3D

 41 43  0  0  0  0  0  0  0  0999 V2000
   10.9488    1.8032   23.7157 C   0  0  0  0  0  0  0  0  0  0  0  0
   10.2832    3.1652   23.6282 C   0  0  0  0  0  0  0  0  0  0  0  0
    9.0260    3.4352   24.4856 C   0  0  0  0  0  0  0  0  0  0  0  0
    8.0185    4.1490   23.5368 C   0  0  0  0  0  0  0  0  0  0  0  0
    6.8282    3.2724   23.0642 C   0  0  0  0  0  0  0  0  0  0  0  0
    7.2268    1.9976   22.4428 N   0  0  0  0  0  0  0  0  0  0  0  0
    7.1889    0.8212   23.1594 C   0  0  0  0  0  0  0  0  0  0  0  0
    7.0087    0.8029   24.3637 O   0  0  0  0  0  0  0  0  0  0  0  0
    7.5350   -0.3808   22.3939 C   0  0  0  0  0  0  0  0  0  0  0  0
    8.2172   -1.4757   22.8993 C   0  0  0  0  0  0  0  0  0  0  0  0
    8.4863   -2.2672   21.8506 N   0  0  0  0  0  0  0  0  0  0  0  0
    8.0118   -1.7830   20.6973 N   0  0  0  0  0  0  0  0  0  0  0  0
    7.3949   -0.6463   21.0036 C   0  0  0  0  0  0  0  0  0  0  0  0
    6.6688    0.0874   19.9564 C   0  0  0  0  0  0  0  0  0  0  0  0
    5.4322    0.7254   20.1568 C   0  0  0  0  0  0  0  0  0  0  0  0
    4.8160    1.3419   19.0666 C   0  0  0  0  0  0  0  0  0  0  0  0
    5.4596    1.3138   17.8253 C   0  0  0  0  0  0  0  0  0  0  0  0
    6.6392    0.7095   17.6197 N   0  0  0  0  0  0  0  0  0  0  0  0
    7.2102    0.0999   18.6587 C   0  0  0  0  0  0  0  0  0  0  0  0
    8.1467   -0.4139   18.4548 H   0  0  0  0  0  0  0  0  0  0  0  0
    5.0173    1.7960   16.9576 H   0  0  0  0  0  0  0  0  0  0  0  0
    3.8665    1.8572   19.1607 H   0  0  0  0  0  0  0  0  0  0  0  0
    4.9450    0.7265   21.1339 H   0  0  0  0  0  0  0  0  0  0  0  0
    8.9378   -3.1715   21.8501 H   0  0  0  0  0  0  0  0  0  0  0  0
    8.5294   -1.7287   23.9059 H   0  0  0  0  0  0  0  0  0  0  0  0
    7.0762    1.8670   21.4539 H   0  0  0  0  0  0  0  0  0  0  0  0
    6.1809    3.0568   23.9207 H   0  0  0  0  0  0  0  0  0  0  0  0
    6.2495    3.8399   22.3246 H   0  0  0  0  0  0  0  0  0  0  0  0
    8.8818    4.5270   22.3311 C   0  0  0  0  0  0  0  0  0  0  0  0
    9.7271    3.3280   22.2644 N   0  0  0  0  0  4  0  0  0  0  0  0
    9.0499    2.5260   22.1591 H   0  0  0  0  0  0  0  0  0  0  0  0
   10.4139    3.2960   21.5031 H   0  0  0  0  0  0  0  0  0  0  0  0
    9.4663    5.4410   22.5159 H   0  0  0  0  0  0  0  0  0  0  0  0
    8.3055    4.6891   21.4146 H   0  0  0  0  0  0  0  0  0  0  0  0
    7.5748    5.0232   24.0196 H   0  0  0  0  0  0  0  0  0  0  0  0
    8.5929    2.5156   24.8901 H   0  0  0  0  0  0  0  0  0  0  0  0
    9.2768    4.0476   25.3575 H   0  0  0  0  0  0  0  0  0  0  0  0
   11.0285    3.9499   23.8381 H   0  0  0  0  0  0  0  0  0  0  0  0
   10.2702    1.0004   23.4047 H   0  0  0  0  0  0  0  0  0  0  0  0
   11.8208    1.7830   23.0503 H   0  0  0  0  0  0  0  0  0  0  0  0
   11.3092    1.5822   24.7213 H   0  0  0  0  0  0  0  0  0  0  0  0
  1  2  1  0
  2  3  1  0
  3  4  1  0
  4  5  1  0
  5  6  1  0
  6  7  1  0
  7  8  2  0
  7  9  1  0
  9 10  2  0
 10 11  1  0
 11 12  1  0
 12 13  2  0
 13 14  1  0
 14 15  2  0
 15 16  1  0
 16 17  2  0
 17 18  1  0
 18 19  2  0
 19 20  1  0
 17 21  1  0
 16 22  1  0
 15 23  1  0
 11 24  1  0
 10 25  1  0
  6 26  1  0
  5 27  1  0
  5 28  1  0
  4 29  1  0
 29 30  1  0
 30 31  1  0
 30 32  1  0
 29 33  1  0
 29 34  1  0
  4 35  1  0
  3 36  1  0
  3 37  1  0
  2 38  1  0
  1 39  1  0
  1 40  1  0
  1 41  1  0
 30  2  1  0
 13  9  1  0
 19 14  1  0
M  CHG  1  30   1
M  END
>  <cnnaffinity>  (1) 
5.1375

>  <plip>  (1) 
-0.13793103448275862

>  <filename>  (1) 
[H][c]1[n][c]([H])[c](-[c]2[n][n]([H])[c]([H])[c]2[C](=[O])[N]([H])[C]([H])([H])[C]2([H])[C]([H])([H])[C]([H])([C]([H])([H])[H])[N+]([H])([H])[C]2([H])[H])[c]([H])[c]1[H]

>  <combo1>  (1) 
-0.8248628349439837

$$$$
