
     RDKit          3D

 28 29  0  0  0  0  0  0  0  0999 V2000
    4.9258    1.8000   16.9728 H   0  0  0  0  0  0  0  0  0  0  0  0
    5.3926    1.2961   17.8189 C   0  0  0  0  0  0  0  0  0  0  0  0
    6.5531    0.6725   17.5670 N   0  0  0  0  0  0  0  0  0  0  0  0
    7.1696    0.0751   18.5939 C   0  0  0  0  0  0  0  0  0  0  0  0
    8.1127   -0.4164   18.3444 H   0  0  0  0  0  0  0  0  0  0  0  0
    6.6737    0.0477   19.9031 C   0  0  0  0  0  0  0  0  0  0  0  0
    7.4070   -0.7231   20.9821 C   0  0  1  0  0  0  0  0  0  0  0  0
    8.4659   -0.8304   20.7119 H   0  0  0  0  0  0  0  0  0  0  0  0
    7.3690   -0.0594   22.2690 O   0  0  0  0  0  0  0  0  0  0  0  0
    8.0112    1.1631   22.3654 N   0  0  0  0  0  0  0  0  0  0  0  0
    7.9280    1.9352   23.4894 C   0  0  0  0  0  0  0  0  0  0  0  0
    7.0943    1.6314   24.6802 C   0  0  0  0  0  0  0  0  0  0  0  0
    7.2395    0.5971   25.0077 H   0  0  0  0  0  0  0  0  0  0  0  0
    6.0325    1.7837   24.4570 H   0  0  0  0  0  0  0  0  0  0  0  0
    7.3946    2.3215   25.4728 H   0  0  0  0  0  0  0  0  0  0  0  0
    8.6898    2.9946   23.3648 N   0  0  0  0  0  0  0  0  0  0  0  0
    9.2873    2.9033   22.1405 C   0  0  0  0  0  0  0  0  0  0  0  0
   10.0297    3.6447   21.8874 H   0  0  0  0  0  0  0  0  0  0  0  0
    8.8763    1.7769   21.4821 C   0  0  0  0  0  0  0  0  0  0  0  0
    9.0582    1.3774   20.4985 H   0  0  0  0  0  0  0  0  0  0  0  0
    6.7612   -2.0686   21.2376 C   0  0  0  0  0  0  0  0  0  0  0  0
    6.7771   -2.6541   20.3135 H   0  0  0  0  0  0  0  0  0  0  0  0
    7.2821   -2.6261   22.0224 H   0  0  0  0  0  0  0  0  0  0  0  0
    5.7144   -1.9324   21.5395 H   0  0  0  0  0  0  0  0  0  0  0  0
    5.4437    0.6803   20.1431 C   0  0  0  0  0  0  0  0  0  0  0  0
    5.0123    0.6574   21.1435 H   0  0  0  0  0  0  0  0  0  0  0  0
    4.8000    1.3213   19.0857 C   0  0  0  0  0  0  0  0  0  0  0  0
    3.8616    1.8464   19.2281 H   0  0  0  0  0  0  0  0  0  0  0  0
  1  2  1  0
  2  3  2  0
  3  4  1  0
  4  5  1  0
  4  6  2  0
  6  7  1  0
  7  8  1  6
  7  9  1  0
  9 10  1  0
 10 11  1  0
 11 12  1  0
 12 13  1  0
 12 14  1  0
 12 15  1  0
 11 16  2  0
 16 17  1  0
 17 18  1  0
 17 19  2  0
 19 20  1  0
  7 21  1  0
 21 22  1  0
 21 23  1  0
 21 24  1  0
  6 25  1  0
 25 26  1  0
 25 27  2  0
 27 28  1  0
 27  2  1  0
 19 10  1  0
M  END
>  <cnnaffinity>  (1) 
4.16351

>  <plip>  (1) 
-0.03571428571428571

>  <filename>  (1) 
[H][c]1[n][c]([H])[c]([C@@]([H])([O][n]2[c]([C]([H])([H])[H])[n][c]([H])[c]2[H])[C]([H])([H])[H])[c]([H])[c]1[H]

>  <combo1>  (1) 
-0.24387116651378987

$$$$
