
     RDKit          3D

 39 40  0  0  0  0  0  0  0  0999 V2000
    1.0756    5.3334   26.7662 C   0  0  0  0  0  0  0  0  0  0  0  0
    1.8778    4.3994   26.0675 O   0  0  0  0  0  0  0  0  0  0  0  0
    3.2347    4.5101   26.0898 C   0  0  0  0  0  0  0  0  0  0  0  0
    3.9488    5.5065   26.7756 C   0  0  0  0  0  0  0  0  0  0  0  0
    5.3468    5.5170   26.7158 C   0  0  0  0  0  0  0  0  0  0  0  0
    6.0401    4.5545   25.9926 C   0  0  0  0  0  0  0  0  0  0  0  0
    5.3349    3.5491   25.3089 C   0  0  0  0  0  0  0  0  0  0  0  0
    6.0434    2.4929   24.5616 C   0  0  0  0  0  0  0  0  0  0  0  0
    7.3211    2.1290   24.7152 C   0  0  0  0  0  0  0  0  0  0  0  0
    7.9831    1.0616   23.8750 C   0  0  0  0  0  0  0  0  0  0  0  0
    8.2002    1.4916   22.4172 C   0  0  0  0  0  0  0  0  0  0  0  0
    8.9342    0.1687   21.4051 S   0  0  0  0  0  0  0  0  0  0  0  0
    7.4000   -0.7285   20.9649 C   0  0  0  0  0  0  0  0  0  0  0  0
    6.6288   -0.0164   19.8914 C   0  0  0  0  0  0  0  0  0  0  0  0
    5.4215    0.6432   20.1462 C   0  0  0  0  0  0  0  0  0  0  0  0
    4.7942    1.3142   19.0934 C   0  0  0  0  0  0  0  0  0  0  0  0
    5.3921    1.2999   17.8313 C   0  0  0  0  0  0  0  0  0  0  0  0
    6.5582    0.6867   17.5731 N   0  0  0  0  0  0  0  0  0  0  0  0
    7.1555    0.0610   18.5903 C   0  0  0  0  0  0  0  0  0  0  0  0
    8.1102   -0.4132   18.3712 H   0  0  0  0  0  0  0  0  0  0  0  0
    4.9198    1.7915   16.9853 H   0  0  0  0  0  0  0  0  0  0  0  0
    3.8679    1.8500   19.2464 H   0  0  0  0  0  0  0  0  0  0  0  0
    4.9973    0.6376   21.1545 H   0  0  0  0  0  0  0  0  0  0  0  0
    7.7173   -1.7326   20.6519 H   0  0  0  0  0  0  0  0  0  0  0  0
    6.7913   -0.8512   21.8717 H   0  0  0  0  0  0  0  0  0  0  0  0
    7.2579    1.8138   21.9593 H   0  0  0  0  0  0  0  0  0  0  0  0
    8.8733    2.3525   22.3544 H   0  0  0  0  0  0  0  0  0  0  0  0
    7.3654    0.1488   23.8715 H   0  0  0  0  0  0  0  0  0  0  0  0
    8.9508    0.7730   24.2968 H   0  0  0  0  0  0  0  0  0  0  0  0
    7.9435    2.6306   25.4596 H   0  0  0  0  0  0  0  0  0  0  0  0
    5.4281    1.9685   23.8287 H   0  0  0  0  0  0  0  0  0  0  0  0
    3.9355    3.5389   25.3552 C   0  0  0  0  0  0  0  0  0  0  0  0
    3.3670    2.7730   24.8394 H   0  0  0  0  0  0  0  0  0  0  0  0
    7.1265    4.5690   25.9336 H   0  0  0  0  0  0  0  0  0  0  0  0
    5.9070    6.2882   27.2397 H   0  0  0  0  0  0  0  0  0  0  0  0
    3.4196    6.2666   27.3422 H   0  0  0  0  0  0  0  0  0  0  0  0
    0.0492    5.0204   26.5818 H   0  0  0  0  0  0  0  0  0  0  0  0
    1.2021    6.3609   26.3986 H   0  0  0  0  0  0  0  0  0  0  0  0
    1.2590    5.3213   27.8492 H   0  0  0  0  0  0  0  0  0  0  0  0
  1  2  1  0
  2  3  1  0
  3  4  2  0
  4  5  1  0
  5  6  2  0
  6  7  1  0
  7  8  1  0
  8  9  2  3
  9 10  1  0
 10 11  1  0
 11 12  1  0
 12 13  1  0
 13 14  1  0
 14 15  2  0
 15 16  1  0
 16 17  2  0
 17 18  1  0
 18 19  2  0
 19 20  1  0
 17 21  1  0
 16 22  1  0
 15 23  1  0
 13 24  1  0
 13 25  1  0
 11 26  1  0
 11 27  1  0
 10 28  1  0
 10 29  1  0
  9 30  1  0
  8 31  1  0
  7 32  2  0
 32 33  1  0
  6 34  1  0
  5 35  1  0
  4 36  1  0
  1 37  1  0
  1 38  1  0
  1 39  1  0
 32  3  1  0
 19 14  1  0
M  END
>  <cnnaffinity>  (1) 
4.60994

>  <plip>  (1) 
-0.0

>  <filename>  (1) 
[H][C](=[C]([H])[C]([H])([H])[C]([H])([H])[S][C]([H])([H])[c]1[c]([H])[n][c]([H])[c]([H])[c]1[H])[c]1[c]([H])[c]([H])[c]([H])[c]([O][C]([H])([H])[H])[c]1[H]

>  <combo1>  (1) 
-5.383959562550517e-06

$$$$
