
     RDKit          3D

 36 37  0  0  0  0  0  0  0  0999 V2000
    8.9606    3.5722   24.3479 O   0  0  0  0  0  0  0  0  0  0  0  0
    9.1291    3.5367   23.1376 C   0  0  0  0  0  0  0  0  0  0  0  0
    9.5848    2.2714   22.4848 C   0  0  0  0  0  0  0  0  0  0  0  0
    8.3075    1.5521   22.1693 C   0  0  0  0  0  0  0  0  0  0  0  0
    8.7753    0.3604   21.5055 N   0  0  0  0  0  0  0  0  0  0  0  0
    7.5718   -0.7697   21.2300 S   0  0  0  0  0  0  0  0  0  0  0  0
    8.2772   -1.9315   20.6916 O   0  0  0  0  0  0  0  0  0  0  0  0
    6.8756   -1.0101   22.4929 O   0  0  0  0  0  0  0  0  0  0  0  0
    6.6167    0.0653   20.0074 C   0  0  0  0  0  0  0  0  0  0  0  0
    5.4049    0.7201   20.2162 C   0  0  0  0  0  0  0  0  0  0  0  0
    4.8500    1.3157   19.0947 C   0  0  0  0  0  0  0  0  0  0  0  0
    5.5192    1.2584   17.8699 C   0  0  0  0  0  0  0  0  0  0  0  0
    6.7000    0.6319   17.7255 N   0  0  0  0  0  0  0  0  0  0  0  0
    7.2431    0.0409   18.7880 C   0  0  0  0  0  0  0  0  0  0  0  0
    8.1923   -0.4734   18.6606 H   0  0  0  0  0  0  0  0  0  0  0  0
    5.0699    1.7399   17.0054 H   0  0  0  0  0  0  0  0  0  0  0  0
    3.9045    1.8394   19.1557 H   0  0  0  0  0  0  0  0  0  0  0  0
    4.9007    0.7871   21.1844 H   0  0  0  0  0  0  0  0  0  0  0  0
    9.4517   -0.1231   22.0767 H   0  0  0  0  0  0  0  0  0  0  0  0
    7.7533    1.3234   23.0925 H   0  0  0  0  0  0  0  0  0  0  0  0
    7.6645    2.1544   21.5117 H   0  0  0  0  0  0  0  0  0  0  0  0
   10.2068    1.6878   23.1661 H   0  0  0  0  0  0  0  0  0  0  0  0
   10.1576    2.4820   21.5752 H   0  0  0  0  0  0  0  0  0  0  0  0
    8.6742    4.5316   22.3057 N   0  0  0  0  0  0  0  0  0  0  0  0
    7.9052    5.6067   22.6922 C   0  0  0  0  0  0  0  0  0  0  0  0
    7.8480    6.6780   21.8101 C   0  0  0  0  0  0  0  0  0  0  0  0
    7.1348    7.8299   22.1508 C   0  0  0  0  0  0  0  0  0  0  0  0
    6.4439    7.8957   23.3638 C   0  0  0  0  0  0  0  0  0  0  0  0
    5.3751    9.7781   23.9558 I   0  0  0  0  0  0  0  0  0  0  0  0
    6.4640    6.7965   24.2334 C   0  0  0  0  0  0  0  0  0  0  0  0
    7.2164    5.6599   23.9079 C   0  0  0  0  0  0  0  0  0  0  0  0
    7.2527    4.8126   24.5850 H   0  0  0  0  0  0  0  0  0  0  0  0
    5.9062    6.8314   25.1650 H   0  0  0  0  0  0  0  0  0  0  0  0
    7.1285    8.6890   21.4861 H   0  0  0  0  0  0  0  0  0  0  0  0
    8.3959    6.6187   20.8779 H   0  0  0  0  0  0  0  0  0  0  0  0
    8.9898    4.5137   21.3396 H   0  0  0  0  0  0  0  0  0  0  0  0
  1  2  2  0
  2  3  1  0
  3  4  1  0
  4  5  1  0
  5  6  1  0
  6  7  2  0
  6  8  2  0
  6  9  1  0
  9 10  2  0
 10 11  1  0
 11 12  2  0
 12 13  1  0
 13 14  2  0
 14 15  1  0
 12 16  1  0
 11 17  1  0
 10 18  1  0
  5 19  1  0
  4 20  1  0
  4 21  1  0
  3 22  1  0
  3 23  1  0
  2 24  1  0
 24 25  1  0
 25 26  2  0
 26 27  1  0
 27 28  2  0
 28 29  1  0
 28 30  1  0
 30 31  2  0
 31 32  1  0
 30 33  1  0
 27 34  1  0
 26 35  1  0
 24 36  1  0
 14  9  1  0
 31 25  1  0
M  END
>  <cnnaffinity>  (1) 
4.6635

>  <plip>  (1) 
-0.10344827586206896

>  <filename>  (1) 
[H][c]1[n][c]([H])[c]([S](=[O])(=[O])[N]([H])[C]([H])([H])[C]([H])([H])[C](=[O])[N]([H])[c]2[c]([H])[c]([H])[c]([I])[c]([H])[c]2[H])[c]([H])[c]1[H]

>  <combo1>  (1) 
-0.37288922986999845

$$$$
