
     RDKit          3D

 33 34  0  0  0  0  0  0  0  0999 V2000
    4.7913   -6.9502   26.0205 H   0  0  0  0  0  0  0  0  0  0  0  0
    4.2098   -6.3958   25.4843 O   0  0  0  0  0  0  0  0  0  0  0  0
    5.0429   -5.4905   24.7779 C   0  0  0  0  0  0  0  0  0  0  0  0
    5.5507   -6.0017   23.9437 H   0  0  0  0  0  0  0  0  0  0  0  0
    5.8156   -5.0520   25.4265 H   0  0  0  0  0  0  0  0  0  0  0  0
    4.1681   -4.3527   24.2351 C   0  0  0  0  0  0  0  0  0  0  0  0
    3.3978   -4.7759   23.5820 H   0  0  0  0  0  0  0  0  0  0  0  0
    3.6604   -3.8705   25.0853 H   0  0  0  0  0  0  0  0  0  0  0  0
    4.9462   -3.4022   23.4521 N   0  0  0  0  0  0  0  0  0  0  0  0
    4.6606   -3.1660   22.5183 H   0  0  0  0  0  0  0  0  0  0  0  0
    5.8952   -2.5736   23.9770 C   0  0  0  0  0  0  0  0  0  0  0  0
    6.1608   -2.5230   25.1683 O   0  0  0  0  0  0  0  0  0  0  0  0
    6.5698   -1.7029   22.9609 C   0  0  0  0  0  0  0  0  0  0  0  0
    6.6644   -1.8458   21.6308 C   0  0  0  0  0  0  0  0  0  0  0  0
    6.2694   -2.6619   21.0232 H   0  0  0  0  0  0  0  0  0  0  0  0
    7.4268   -0.7219   20.9667 C   0  0  1  0  0  0  0  0  0  0  0  0
    8.3306   -1.1560   20.5167 H   0  0  0  0  0  0  0  0  0  0  0  0
    6.6717   -0.0039   19.8439 C   0  0  0  0  0  0  0  0  0  0  0  0
    7.1625    0.0500   18.5231 C   0  0  0  0  0  0  0  0  0  0  0  0
    8.0974   -0.4479   18.2626 H   0  0  0  0  0  0  0  0  0  0  0  0
    6.5624    0.6818   17.5041 N   0  0  0  0  0  0  0  0  0  0  0  0
    5.4100    1.3159   17.7721 C   0  0  0  0  0  0  0  0  0  0  0  0
    4.9426    1.8501   16.9448 H   0  0  0  0  0  0  0  0  0  0  0  0
    4.8172    1.3153   19.0380 C   0  0  0  0  0  0  0  0  0  0  0  0
    3.8883    1.8493   19.1969 H   0  0  0  0  0  0  0  0  0  0  0  0
    5.4552    0.6537   20.0865 C   0  0  0  0  0  0  0  0  0  0  0  0
    5.0068    0.6489   21.0828 H   0  0  0  0  0  0  0  0  0  0  0  0
    7.8428    0.1810   22.1742 C   0  0  0  0  0  0  0  0  0  0  0  0
    7.5749    1.2320   22.0319 H   0  0  0  0  0  0  0  0  0  0  0  0
    8.9292    0.1496   22.3022 H   0  0  0  0  0  0  0  0  0  0  0  0
    7.1509   -0.3964   23.4251 C   0  0  0  0  0  0  0  0  0  0  0  0
    7.8156   -0.5426   24.2826 H   0  0  0  0  0  0  0  0  0  0  0  0
    6.3427    0.2535   23.7925 H   0  0  0  0  0  0  0  0  0  0  0  0
  1  2  1  0
  2  3  1  0
  3  4  1  0
  3  5  1  0
  3  6  1  0
  6  7  1  0
  6  8  1  0
  6  9  1  0
  9 10  1  0
  9 11  1  0
 11 12  2  0
 11 13  1  0
 13 14  2  0
 14 15  1  0
 14 16  1  0
 16 17  1  6
 16 18  1  0
 18 19  2  0
 19 20  1  0
 19 21  1  0
 21 22  2  0
 22 23  1  0
 22 24  1  0
 24 25  1  0
 24 26  2  0
 26 27  1  0
 16 28  1  0
 28 29  1  0
 28 30  1  0
 28 31  1  0
 31 32  1  0
 31 33  1  0
 31 13  1  0
 26 18  1  0
M  END
>  <cnnaffinity>  (1) 
4.37589

>  <plip>  (1) 
-0.03571428571428571

>  <filename>  (1) 
[H][O][C]([H])([H])[C]([H])([H])[N]([H])[C](=[O])[C]1=[C]([H])[C@@]([H])([c]2[c]([H])[n][c]([H])[c]([H])[c]2[H])[C]([H])([H])[C]1([H])[H]

>  <combo1>  (1) 
-0.22426922577816094

$$$$
