
     RDKit          3D

 35 37  0  0  0  0  0  0  0  0999 V2000
    4.9552    1.9053   16.9779 H   0  0  0  0  0  0  0  0  0  0  0  0
    5.4657    1.3411   17.7553 C   0  0  0  0  0  0  0  0  0  0  0  0
    6.6408    0.7870   17.4126 N   0  0  0  0  0  0  0  0  0  0  0  0
    7.2910    0.0908   18.3535 C   0  0  0  0  0  0  0  0  0  0  0  0
    8.2476   -0.3527   18.0829 H   0  0  0  0  0  0  0  0  0  0  0  0
    6.7979   -0.1199   19.6588 C   0  0  0  0  0  0  0  0  0  0  0  0
    7.5322   -0.8909   20.5966 N   0  0  0  0  0  0  0  0  0  0  0  0
    6.8943   -1.6745   21.5628 C   0  0  0  0  0  0  0  0  0  0  0  0
    5.8404   -2.2400   21.4515 O   0  0  0  0  0  0  0  0  0  0  0  0
    7.7232   -1.6389   22.7030 N   0  0  0  0  0  0  0  0  0  0  0  0
    7.2719   -2.0471   23.9691 N   0  0  0  0  0  0  0  0  0  0  0  0
    6.9380   -1.2876   24.5664 H   0  0  0  0  0  0  0  0  0  0  0  0
    8.0520   -2.9249   24.7341 C   0  0  0  0  0  0  0  0  0  0  0  0
    9.0552   -3.7432   24.2057 C   0  0  0  0  0  0  0  0  0  0  0  0
    9.2199   -3.7686   23.1371 H   0  0  0  0  0  0  0  0  0  0  0  0
    9.8452   -4.5025   25.0597 C   0  0  0  0  0  0  0  0  0  0  0  0
   10.6238   -5.1480   24.6566 H   0  0  0  0  0  0  0  0  0  0  0  0
    9.6413   -4.4840   26.4451 C   0  0  0  0  0  0  0  0  0  0  0  0
   10.5001   -5.3504   27.3088 C   0  0  0  0  0  0  0  0  0  0  0  0
   10.6982   -6.2864   26.7764 H   0  0  0  0  0  0  0  0  0  0  0  0
   11.4763   -4.9111   27.5112 H   0  0  0  0  0  0  0  0  0  0  0  0
   10.0304   -5.5629   28.2728 H   0  0  0  0  0  0  0  0  0  0  0  0
    8.5919   -3.7104   26.9625 C   0  0  0  0  0  0  0  0  0  0  0  0
    8.4029   -3.6994   28.0342 H   0  0  0  0  0  0  0  0  0  0  0  0
    7.7877   -2.9568   26.1112 C   0  0  0  0  0  0  0  0  0  0  0  0
    6.9400   -2.3955   26.5016 H   0  0  0  0  0  0  0  0  0  0  0  0
    8.9644   -1.0828   22.4075 C   0  0  0  0  0  0  0  0  0  0  0  0
    9.9371   -1.0422   23.1201 O   0  0  0  0  0  0  0  0  0  0  0  0
    8.8780   -0.5389   21.0110 C   0  0  0  0  0  0  0  0  0  0  0  0
    9.6704   -0.9860   20.4006 H   0  0  0  0  0  0  0  0  0  0  0  0
    9.0628    0.5389   21.0363 H   0  0  0  0  0  0  0  0  0  0  0  0
    5.5686    0.4658   20.0016 C   0  0  0  0  0  0  0  0  0  0  0  0
    5.1509    0.3269   20.9991 H   0  0  0  0  0  0  0  0  0  0  0  0
    4.9005    1.2154   19.0307 C   0  0  0  0  0  0  0  0  0  0  0  0
    3.9526    1.6939   19.2514 H   0  0  0  0  0  0  0  0  0  0  0  0
  1  2  1  0
  2  3  2  0
  3  4  1  0
  4  5  1  0
  4  6  2  0
  6  7  1  0
  7  8  1  0
  8  9  2  0
  8 10  1  0
 10 11  1  0
 11 12  1  0
 11 13  1  0
 13 14  2  0
 14 15  1  0
 14 16  1  0
 16 17  1  0
 16 18  2  0
 18 19  1  0
 19 20  1  0
 19 21  1  0
 19 22  1  0
 18 23  1  0
 23 24  1  0
 23 25  2  0
 25 26  1  0
 10 27  1  0
 27 28  2  0
 27 29  1  0
 29 30  1  0
 29 31  1  0
  6 32  1  0
 32 33  1  0
 32 34  2  0
 34 35  1  0
 34  2  1  0
 29  7  1  0
 25 13  1  0
M  END
>  <cnnaffinity>  (1) 
4.97215

>  <plip>  (1) 
-0.07142857142857142

>  <filename>  (1) 
[H][c]1[n][c]([H])[c]([N]2[C](=[O])[N]([N]([H])[c]3[c]([H])[c]([H])[c]([C]([H])([H])[H])[c]([H])[c]3[H])[C](=[O])[C]2([H])[H])[c]([H])[c]1[H]

>  <combo1>  (1) 
-0.41935269483329535

$$$$
