
     RDKit          3D

 34 37  0  0  0  0  0  0  0  0999 V2000
    4.9664    1.8014   16.9635 H   0  0  0  0  0  0  0  0  0  0  0  0
    5.4180    1.3042   17.8194 C   0  0  0  0  0  0  0  0  0  0  0  0
    6.5840    0.6829   17.5888 N   0  0  0  0  0  0  0  0  0  0  0  0
    7.1592    0.0647   18.6307 C   0  0  0  0  0  0  0  0  0  0  0  0
    8.1147   -0.4237   18.4372 H   0  0  0  0  0  0  0  0  0  0  0  0
    6.6056    0.0192   19.9216 C   0  0  0  0  0  0  0  0  0  0  0  0
    7.3347   -0.6780   21.0291 C   0  0  0  0  0  0  0  0  0  0  0  0
    8.3860    0.1596   21.6935 C   0  0  0  0  0  0  0  0  0  0  0  0
    9.6457    0.2067   21.3783 N   0  0  0  0  0  0  0  0  0  0  0  0
   10.3572    1.0603   22.1812 N   0  0  0  0  0  0  0  0  0  0  0  0
    9.6134    1.6552   23.0659 C   0  0  0  0  0  0  0  0  0  0  0  0
   10.1203    2.5042   24.2161 C   0  0  1  0  0  0  0  0  0  0  0  0
   11.1329    2.8377   23.9612 H   0  0  0  0  0  0  0  0  0  0  0  0
    9.3034    3.6470   24.4178 O   0  0  0  0  0  0  0  0  0  0  0  0
    8.7475    3.6542   25.7301 C   0  0  0  0  0  0  0  0  0  0  0  0
    9.3593    4.2956   26.3849 H   0  0  0  0  0  0  0  0  0  0  0  0
    7.7520    4.1019   25.6572 H   0  0  0  0  0  0  0  0  0  0  0  0
    8.7515    2.1923   26.1587 C   0  0  0  0  0  0  0  0  0  0  0  0
    8.7037    2.0182   27.2337 H   0  0  0  0  0  0  0  0  0  0  0  0
    7.9013    1.6839   25.6884 H   0  0  0  0  0  0  0  0  0  0  0  0
   10.0557    1.6897   25.5415 C   0  0  0  0  0  0  0  0  0  0  0  0
   10.0703    0.6065   25.4050 H   0  0  0  0  0  0  0  0  0  0  0  0
   10.9105    1.9059   26.1791 H   0  0  0  0  0  0  0  0  0  0  0  0
    7.9426    1.2316   22.9679 S   0  0  0  0  0  0  0  0  0  0  0  0
    7.5679   -2.1591   20.8786 C   0  0  0  0  0  0  0  0  0  0  0  0
    7.0613   -2.5985   20.0252 H   0  0  0  0  0  0  0  0  0  0  0  0
    8.5601   -2.5421   21.1247 H   0  0  0  0  0  0  0  0  0  0  0  0
    6.6003   -1.6675   21.9128 C   0  0  0  0  0  0  0  0  0  0  0  0
    6.8702   -1.6954   22.9664 H   0  0  0  0  0  0  0  0  0  0  0  0
    5.5420   -1.8320   21.7078 H   0  0  0  0  0  0  0  0  0  0  0  0
    5.3969    0.6830   20.1438 C   0  0  0  0  0  0  0  0  0  0  0  0
    4.9545    0.6915   21.1418 H   0  0  0  0  0  0  0  0  0  0  0  0
    4.7892    1.3333   19.0686 C   0  0  0  0  0  0  0  0  0  0  0  0
    3.8551    1.8637   19.1907 H   0  0  0  0  0  0  0  0  0  0  0  0
  1  2  1  0
  2  3  2  0
  3  4  1  0
  4  5  1  0
  4  6  2  0
  6  7  1  0
  7  8  1  0
  8  9  2  0
  9 10  1  0
 10 11  2  0
 11 12  1  0
 12 13  1  6
 12 14  1  0
 14 15  1  0
 15 16  1  0
 15 17  1  0
 15 18  1  0
 18 19  1  0
 18 20  1  0
 18 21  1  0
 21 22  1  0
 21 23  1  0
 11 24  1  0
  7 25  1  0
 25 26  1  0
 25 27  1  0
 25 28  1  0
 28 29  1  0
 28 30  1  0
  6 31  1  0
 31 32  1  0
 31 33  2  0
 33 34  1  0
 33  2  1  0
 28  7  1  0
 24  8  1  0
 21 12  1  0
M  END
>  <cnnaffinity>  (1) 
4.9253

>  <plip>  (1) 
-0.10714285714285714

>  <filename>  (1) 
[H][c]1[n][c]([H])[c]([C]2([c]3[n][n][c]([C@@]4([H])[O][C]([H])([H])[C]([H])([H])[C]4([H])[H])[s]3)[C]([H])([H])[C]2([H])[H])[c]([H])[c]1[H]

>  <combo1>  (1) 
-0.6434845183788886

$$$$
