
     RDKit          3D

 37 40  0  0  0  0  0  0  0  0999 V2000
    9.4746    0.7389   20.2875 O   0  0  0  0  0  0  0  0  0  0  0  0
    9.1209    1.0905   21.4166 C   0  0  0  0  0  0  0  0  0  0  0  0
    7.9611    0.4945   21.9140 N   0  0  0  0  0  0  0  0  0  0  0  0
    7.2857   -0.5356   21.1783 C   0  0  0  0  0  0  0  0  0  0  0  0
    6.5774    0.0942   20.0224 C   0  0  0  0  0  0  0  0  0  0  0  0
    5.3476    0.7279   20.1908 C   0  0  0  0  0  0  0  0  0  0  0  0
    4.7775    1.3203   19.0674 C   0  0  0  0  0  0  0  0  0  0  0  0
    5.4413    1.2702   17.8338 C   0  0  0  0  0  0  0  0  0  0  0  0
    6.6300    0.6632   17.6743 N   0  0  0  0  0  0  0  0  0  0  0  0
    7.1869    0.0993   18.7596 C   0  0  0  0  0  0  0  0  0  0  0  0
    8.1531   -0.3826   18.6465 H   0  0  0  0  0  0  0  0  0  0  0  0
    4.9873    1.7495   16.9721 H   0  0  0  0  0  0  0  0  0  0  0  0
    3.8295    1.8394   19.1393 H   0  0  0  0  0  0  0  0  0  0  0  0
    4.8650    0.7727   21.1674 H   0  0  0  0  0  0  0  0  0  0  0  0
    6.4778   -1.5471   21.9811 C   0  0  0  0  0  0  0  0  0  0  0  0
    7.4504   -2.6555   21.6069 C   0  0  0  0  0  0  0  0  0  0  0  0
    8.2671   -1.6375   20.8263 C   0  0  0  0  0  0  0  0  0  0  0  0
    9.2784   -1.4889   21.2223 H   0  0  0  0  0  0  0  0  0  0  0  0
    8.3177   -1.7702   19.7498 H   0  0  0  0  0  0  0  0  0  0  0  0
    7.9874   -3.0923   22.4556 H   0  0  0  0  0  0  0  0  0  0  0  0
    7.0051   -3.4450   20.9981 H   0  0  0  0  0  0  0  0  0  0  0  0
    6.4427   -1.3373   23.0506 H   0  0  0  0  0  0  0  0  0  0  0  0
    5.4613   -1.6995   21.6054 H   0  0  0  0  0  0  0  0  0  0  0  0
    7.6159    0.7257   22.8416 H   0  0  0  0  0  0  0  0  0  0  0  0
    9.8917    2.1374   22.1616 C   0  0  0  0  0  0  0  0  0  0  0  0
    9.4564    2.6145   23.3130 N   0  0  0  0  0  0  0  0  0  0  0  0
   10.3555    3.5669   23.5995 N   0  0  0  0  0  0  0  0  0  0  0  0
   10.2965    4.3993   24.7022 C   0  0  0  0  0  0  0  0  0  0  0  0
   11.2941    5.3311   24.9025 C   0  0  0  0  0  0  0  0  0  0  0  0
   11.2408    6.4157   26.4706 Br  0  0  0  0  0  0  0  0  0  0  0  0
   12.3842    5.4545   23.9138 C   0  0  0  0  0  0  0  0  0  0  0  0
   12.4155    4.6293   22.7966 C   0  0  0  0  0  0  0  0  0  0  0  0
   11.3465    3.6335   22.6432 C   0  0  0  0  0  0  0  0  0  0  0  0
   11.0915    2.7348   21.7320 N   0  0  0  0  0  0  0  0  0  0  0  0
   13.1923    4.7264   22.0400 H   0  0  0  0  0  0  0  0  0  0  0  0
   13.1485    6.2101   24.0689 H   0  0  0  0  0  0  0  0  0  0  0  0
    9.4727    4.2626   25.3939 H   0  0  0  0  0  0  0  0  0  0  0  0
  1  2  2  0
  2  3  1  0
  3  4  1  0
  4  5  1  0
  5  6  2  0
  6  7  1  0
  7  8  2  0
  8  9  1  0
  9 10  2  0
 10 11  1  0
  8 12  1  0
  7 13  1  0
  6 14  1  0
  4 15  1  0
 15 16  1  0
 16 17  1  0
 17 18  1  0
 17 19  1  0
 16 20  1  0
 16 21  1  0
 15 22  1  0
 15 23  1  0
  3 24  1  0
  2 25  1  0
 25 26  2  0
 26 27  1  0
 27 28  1  0
 28 29  2  0
 29 30  1  0
 29 31  1  0
 31 32  2  0
 32 33  1  0
 33 34  2  0
 32 35  1  0
 31 36  1  0
 28 37  1  0
 17  4  1  0
 34 25  1  0
 10  5  1  0
 33 27  1  0
M  END
>  <cnnaffinity>  (1) 
5.45748

>  <plip>  (1) 
-0.03571428571428571

>  <filename>  (1) 
[H][c]1[n][c]([H])[c]([C]2([N]([H])[C](=[O])[c]3[n][c]4[c]([H])[c]([H])[c]([Br])[c]([H])[n]4[n]3)[C]([H])([H])[C]([H])([H])[C]2([H])[H])[c]([H])[c]1[H]

>  <combo1>  (1) 
-0.1745444971603273

$$$$
