
     RDKit          3D

 38 39  0  0  0  0  0  0  0  0999 V2000
    9.4397    0.5828   21.5250 O   0  0  0  0  0  0  0  0  0  0  0  0
    8.2660    0.4080   21.8064 C   0  0  0  0  0  0  0  0  0  0  0  0
    7.6293    1.1416   22.7570 N   0  0  0  0  0  0  0  0  0  0  0  0
    8.2618    2.2913   23.3791 C   0  0  0  0  0  0  0  0  0  0  0  0
    8.3823    3.4810   22.4237 C   0  0  0  0  0  0  0  0  0  0  0  0
    9.1226    4.6769   23.0384 C   0  0  0  0  0  0  0  0  0  0  0  0
    8.3662    5.3139   24.1808 C   0  0  0  0  0  0  0  0  0  0  0  0
    8.6775    5.0280   25.5165 C   0  0  0  0  0  0  0  0  0  0  0  0
    7.9482    5.5912   26.5611 C   0  0  0  0  0  0  0  0  0  0  0  0
    6.8794    6.4503   26.2835 C   0  0  0  0  0  0  0  0  0  0  0  0
    6.0010    7.1372   27.6085 Cl  0  0  0  0  0  0  0  0  0  0  0  0
    6.5450    6.7334   24.9489 C   0  0  0  0  0  0  0  0  0  0  0  0
    5.2282    7.7858   24.5474 Cl  0  0  0  0  0  0  0  0  0  0  0  0
    7.2835    6.1619   23.9111 C   0  0  0  0  0  0  0  0  0  0  0  0
    7.0028    6.3817   22.8840 H   0  0  0  0  0  0  0  0  0  0  0  0
    8.1957    5.3744   27.5946 H   0  0  0  0  0  0  0  0  0  0  0  0
    9.4969    4.3485   25.7368 H   0  0  0  0  0  0  0  0  0  0  0  0
    9.3087    5.4239   22.2582 H   0  0  0  0  0  0  0  0  0  0  0  0
   10.1123    4.3466   23.3792 H   0  0  0  0  0  0  0  0  0  0  0  0
    8.8993    3.1423   21.5182 H   0  0  0  0  0  0  0  0  0  0  0  0
    7.3771    3.7900   22.1144 H   0  0  0  0  0  0  0  0  0  0  0  0
    9.2536    1.9740   23.7215 H   0  0  0  0  0  0  0  0  0  0  0  0
    7.6779    2.5579   24.2656 H   0  0  0  0  0  0  0  0  0  0  0  0
    6.6724    0.9165   22.9560 H   0  0  0  0  0  0  0  0  0  0  0  0
    7.4103   -0.6721   21.0243 C   0  0  0  0  0  0  0  0  0  0  0  0
    6.4971   -1.4378   21.8183 O   0  0  0  0  0  0  0  0  0  0  0  0
    7.0145   -1.9842   22.4273 H   0  0  0  0  0  0  0  0  0  0  0  0
    6.6352   -0.0130   19.8996 C   0  0  0  0  0  0  0  0  0  0  0  0
    5.4264    0.6494   20.1509 C   0  0  0  0  0  0  0  0  0  0  0  0
    4.8034    1.3155   19.0975 C   0  0  0  0  0  0  0  0  0  0  0  0
    5.4003    1.2950   17.8329 C   0  0  0  0  0  0  0  0  0  0  0  0
    6.5628    0.6766   17.5746 N   0  0  0  0  0  0  0  0  0  0  0  0
    7.1550    0.0481   18.5982 C   0  0  0  0  0  0  0  0  0  0  0  0
    8.1115   -0.4246   18.3730 H   0  0  0  0  0  0  0  0  0  0  0  0
    4.9172    1.7853   16.9906 H   0  0  0  0  0  0  0  0  0  0  0  0
    3.8716    1.8467   19.2547 H   0  0  0  0  0  0  0  0  0  0  0  0
    4.9929    0.6209   21.1531 H   0  0  0  0  0  0  0  0  0  0  0  0
    8.1596   -1.3325   20.5696 H   0  0  0  0  0  0  0  0  0  0  0  0
  1  2  2  0
  2  3  1  0
  3  4  1  0
  4  5  1  0
  5  6  1  0
  6  7  1  0
  7  8  2  0
  8  9  1  0
  9 10  2  0
 10 11  1  0
 10 12  1  0
 12 13  1  0
 12 14  2  0
 14 15  1  0
  9 16  1  0
  8 17  1  0
  6 18  1  0
  6 19  1  0
  5 20  1  0
  5 21  1  0
  4 22  1  0
  4 23  1  0
  3 24  1  0
  2 25  1  0
 25 26  1  0
 26 27  1  0
 25 28  1  0
 28 29  2  0
 29 30  1  0
 30 31  2  0
 31 32  1  0
 32 33  2  0
 33 34  1  0
 31 35  1  0
 30 36  1  0
 29 37  1  0
 25 38  1  0
 14  7  1  0
 33 28  1  0
M  END
>  <cnnaffinity>  (1) 
4.78448

>  <plip>  (1) 
-0.10714285714285714

>  <filename>  (1) 
[H][O][C]([H])([C](=[O])[N]([H])[C]([H])([H])[C]([H])([H])[C]([H])([H])[c]1[c]([H])[c]([H])[c]([Cl])[c]([Cl])[c]1[H])[c]1[c]([H])[n][c]([H])[c]([H])[c]1[H]

>  <combo1>  (1) 
-0.5037240677617776

$$$$
