
     RDKit          3D

 25 26  0  0  0  0  0  0  0  0999 V2000
   12.8250    0.4311   24.6004 H   0  0  0  0  0  0  0  0  0  0  0  0
   11.9260    0.1682   24.0864 C   0  0  0  0  0  0  0  0  0  0  0  0
   10.8927   -0.1542   23.5541 C   0  0  0  0  0  0  0  0  0  0  0  0
    9.6904   -0.5086   22.8004 C   0  0  0  0  0  0  0  0  0  0  0  0
    9.9813   -1.1019   21.9211 H   0  0  0  0  0  0  0  0  0  0  0  0
    9.2021    0.4065   22.4421 H   0  0  0  0  0  0  0  0  0  0  0  0
    8.7919   -1.2648   23.6365 O   0  0  0  0  0  0  0  0  0  0  0  0
    7.6688   -1.7279   23.0280 C   0  0  0  0  0  0  0  0  0  0  0  0
    7.0165   -1.4848   21.8309 C   0  0  0  0  0  0  0  0  0  0  0  0
    7.4977   -0.5881   20.8878 O   0  0  0  0  0  0  0  0  0  0  0  0
    6.6886   -0.0206   19.9234 C   0  0  0  0  0  0  0  0  0  0  0  0
    7.1933    0.0088   18.6103 C   0  0  0  0  0  0  0  0  0  0  0  0
    8.1350   -0.4896   18.3892 H   0  0  0  0  0  0  0  0  0  0  0  0
    6.5817    0.6241   17.5904 N   0  0  0  0  0  0  0  0  0  0  0  0
    5.4262    1.2591   17.8558 C   0  0  0  0  0  0  0  0  0  0  0  0
    4.9491    1.7689   17.0212 H   0  0  0  0  0  0  0  0  0  0  0  0
    4.8410    1.2787   19.1252 C   0  0  0  0  0  0  0  0  0  0  0  0
    3.9066    1.8101   19.2755 H   0  0  0  0  0  0  0  0  0  0  0  0
    5.4778    0.6281   20.1924 C   0  0  0  0  0  0  0  0  0  0  0  0
    5.0563    0.6434   21.1979 H   0  0  0  0  0  0  0  0  0  0  0  0
    5.9264   -2.3923   21.8251 C   0  0  0  0  0  0  0  0  0  0  0  0
    5.2090   -2.5812   21.0313 H   0  0  0  0  0  0  0  0  0  0  0  0
    5.8697   -3.0891   22.9541 N   0  0  0  0  0  0  0  0  0  0  0  0
    6.9407   -2.6650   23.6686 N   0  0  0  0  0  0  0  0  0  0  0  0
    7.0935   -2.9511   24.6247 H   0  0  0  0  0  0  0  0  0  0  0  0
  1  2  1  0
  2  3  3  0
  3  4  1  0
  4  5  1  0
  4  6  1  0
  4  7  1  0
  7  8  1  0
  8  9  2  0
  9 10  1  0
 10 11  1  0
 11 12  2  0
 12 13  1  0
 12 14  1  0
 14 15  2  0
 15 16  1  0
 15 17  1  0
 17 18  1  0
 17 19  2  0
 19 20  1  0
  9 21  1  0
 21 22  1  0
 21 23  2  0
 23 24  1  0
 24 25  1  0
 24  8  1  0
 19 11  1  0
M  END
>  <cnnaffinity>  (1) 
4.64979

>  <plip>  (1) 
-0.03571428571428571

>  <filename>  (1) 
[H][C]#[C][C]([H])([H])[O][c]1[c]([O][c]2[c]([H])[n][c]([H])[c]([H])[c]2[H])[c]([H])[n][n]1[H]

>  <combo1>  (1) 
-0.25720983428964395

$$$$
