
     RDKit          3D

 44 45  0  0  0  0  0  0  0  0999 V2000
    5.4332    2.0869   16.4920 H   0  0  0  0  0  0  0  0  0  0  0  0
    5.8153    1.5721   17.3708 C   0  0  0  0  0  0  0  0  0  0  0  0
    7.0002    0.9573   17.2318 N   0  0  0  0  0  0  0  0  0  0  0  0
    7.5003    0.3076   18.2935 C   0  0  0  0  0  0  0  0  0  0  0  0
    8.4672   -0.1794   18.1708 H   0  0  0  0  0  0  0  0  0  0  0  0
    6.8332    0.2032   19.5345 C   0  0  0  0  0  0  0  0  0  0  0  0
    7.3675   -0.5451   20.6336 N   0  0  0  0  0  0  0  0  0  0  0  0
    8.2928   -0.3099   20.9463 H   0  0  0  0  0  0  0  0  0  0  0  0
    6.6066   -1.3862   21.4416 C   0  0  0  0  0  0  0  0  0  0  0  0
    5.4728   -1.6790   21.1299 O   0  0  0  0  0  0  0  0  0  0  0  0
    7.3337   -1.9014   22.7760 C   0  0  0  0  0  0  0  0  0  0  0  0
    6.5263   -2.8248   23.6038 N   0  0  0  0  0  0  0  0  0  0  0  0
    6.1236   -2.4447   24.4446 H   0  0  0  0  0  0  0  0  0  0  0  0
    6.1345   -4.0910   23.2584 C   0  0  0  0  0  0  0  0  0  0  0  0
    6.5073   -4.6244   22.2241 O   0  0  0  0  0  0  0  0  0  0  0  0
    5.1201   -4.7445   24.2079 C   0  0  0  0  0  0  0  0  0  0  0  0
    5.2802   -4.3303   25.2119 H   0  0  0  0  0  0  0  0  0  0  0  0
    3.6893   -4.3594   23.7352 C   0  0  0  0  0  0  0  0  0  0  0  0
    3.5492   -3.2715   23.8171 H   0  0  0  0  0  0  0  0  0  0  0  0
    3.6003   -4.5981   22.6644 H   0  0  0  0  0  0  0  0  0  0  0  0
    2.6032   -5.1063   24.5217 C   0  0  0  0  0  0  0  0  0  0  0  0
    1.6065   -4.7940   24.1881 H   0  0  0  0  0  0  0  0  0  0  0  0
    2.6618   -4.8280   25.5868 H   0  0  0  0  0  0  0  0  0  0  0  0
    2.7942   -6.6249   24.3879 C   0  0  0  0  0  0  0  0  0  0  0  0
    2.7553   -6.9151   23.3248 H   0  0  0  0  0  0  0  0  0  0  0  0
    1.9858   -7.1638   24.9021 H   0  0  0  0  0  0  0  0  0  0  0  0
    4.1573   -7.0333   24.9620 C   0  0  0  0  0  0  0  0  0  0  0  0
    4.1467   -6.8677   26.0474 H   0  0  0  0  0  0  0  0  0  0  0  0
    4.3108   -8.1109   24.8357 H   0  0  0  0  0  0  0  0  0  0  0  0
    5.3342   -6.2734   24.3250 C   0  0  0  0  0  0  0  0  0  0  0  0
    6.2283   -6.4359   24.9394 H   0  0  0  0  0  0  0  0  0  0  0  0
    5.5367   -6.6854   23.3297 H   0  0  0  0  0  0  0  0  0  0  0  0
    7.5958   -0.6954   23.7013 C   0  0  0  0  0  0  0  0  0  0  0  0
    8.1346   -1.0437   24.5894 H   0  0  0  0  0  0  0  0  0  0  0  0
    8.2095    0.0760   23.2238 H   0  0  0  0  0  0  0  0  0  0  0  0
    6.6610   -0.2205   24.0249 H   0  0  0  0  0  0  0  0  0  0  0  0
    8.6619   -2.6157   22.4360 C   0  0  0  0  0  0  0  0  0  0  0  0
    9.3595   -1.9907   21.8669 H   0  0  0  0  0  0  0  0  0  0  0  0
    9.1477   -2.9015   23.3739 H   0  0  0  0  0  0  0  0  0  0  0  0
    8.4545   -3.5264   21.8731 H   0  0  0  0  0  0  0  0  0  0  0  0
    5.5988    0.8502   19.6589 C   0  0  0  0  0  0  0  0  0  0  0  0
    5.0492    0.7828   20.5935 H   0  0  0  0  0  0  0  0  0  0  0  0
    5.0829    1.5472   18.5609 C   0  0  0  0  0  0  0  0  0  0  0  0
    4.1277    2.0583   18.6156 H   0  0  0  0  0  0  0  0  0  0  0  0
  1  2  1  0
  2  3  2  0
  3  4  1  0
  4  5  1  0
  4  6  2  0
  6  7  1  0
  7  8  1  0
  7  9  1  0
  9 10  2  0
  9 11  1  0
 11 12  1  0
 12 13  1  0
 12 14  1  0
 14 15  2  0
 14 16  1  0
 16 17  1  0
 16 18  1  0
 18 19  1  0
 18 20  1  0
 18 21  1  0
 21 22  1  0
 21 23  1  0
 21 24  1  0
 24 25  1  0
 24 26  1  0
 24 27  1  0
 27 28  1  0
 27 29  1  0
 27 30  1  0
 30 31  1  0
 30 32  1  0
 11 33  1  0
 33 34  1  0
 33 35  1  0
 33 36  1  0
 11 37  1  0
 37 38  1  0
 37 39  1  0
 37 40  1  0
  6 41  1  0
 41 42  1  0
 41 43  2  0
 43 44  1  0
 43  2  1  0
 30 16  1  0
M  END
>  <cnnaffinity>  (1) 
5.32246

>  <plip>  (1) 
-0.10344827586206896

>  <filename>  (1) 
[H][c]1[n][c]([H])[c]([N]([H])[C](=[O])[C]([N]([H])[C](=[O])[C]2([H])[C]([H])([H])[C]([H])([H])[C]([H])([H])[C]([H])([H])[C]2([H])[H])([C]([H])([H])[H])[C]([H])([H])[H])[c]([H])[c]1[H]

>  <combo1>  (1) 
-0.6342308994373325

$$$$
