
     RDKit          3D

 48 52  0  0  0  0  0  0  0  0999 V2000
    6.8301    6.8620   24.0293 F   0  0  0  0  0  0  0  0  0  0  0  0
    7.2979    5.6475   23.7125 C   0  0  0  0  0  0  0  0  0  0  0  0
    6.3929    4.7061   23.1864 C   0  0  0  0  0  0  0  0  0  0  0  0
    6.8521    3.4434   22.8478 C   0  0  0  0  0  0  0  0  0  0  0  0
    8.2143    3.1186   23.0520 C   0  0  0  0  0  0  0  0  0  0  0  0
    9.0896    4.1070   23.5703 C   0  0  0  0  0  0  0  0  0  0  0  0
    8.6426    5.3870   23.9109 C   0  0  0  0  0  0  0  0  0  0  0  0
    9.2984    6.1555   24.2973 H   0  0  0  0  0  0  0  0  0  0  0  0
   10.3600    3.5821   23.6557 N   0  0  0  0  0  0  0  0  0  0  0  0
   10.3522    2.3159   23.1669 C   0  0  0  0  0  0  0  0  0  0  0  0
   11.4512    1.5775   23.0352 N   0  0  0  0  0  0  0  0  0  0  0  0
   11.2264    0.3946   22.4897 C   0  0  0  0  0  0  0  0  0  0  0  0
   10.0502   -0.1048   22.0909 N   0  0  0  0  0  0  0  0  0  0  0  0
    8.9897    0.6675   22.3113 C   0  0  0  0  0  0  0  0  0  0  0  0
    7.7715    0.1527   22.0831 N   0  0  0  0  0  0  0  0  0  0  0  0
    7.4570   -0.7348   20.9898 C   0  0  0  0  0  0  0  0  0  0  0  0
    6.6190   -1.9355   21.4437 C   0  0  0  0  0  0  0  0  0  0  0  0
    7.2636   -2.9486   22.3977 C   0  0  0  0  0  0  0  0  0  0  0  0
    7.5747   -2.5024   23.8355 C   0  0  0  0  0  0  0  0  0  0  0  0
    8.7127   -3.4504   24.2703 C   0  0  0  0  0  0  0  0  0  0  0  0
    9.1162   -4.1738   23.1143 O   0  0  0  0  0  0  0  0  0  0  0  0
    8.6216   -3.5050   21.9687 C   0  0  0  0  0  0  0  0  0  0  0  0
    8.5326   -4.2385   21.1614 H   0  0  0  0  0  0  0  0  0  0  0  0
    9.3186   -2.7044   21.6630 H   0  0  0  0  0  0  0  0  0  0  0  0
    9.5568   -2.8764   24.6853 H   0  0  0  0  0  0  0  0  0  0  0  0
    8.3972   -4.1854   25.0182 H   0  0  0  0  0  0  0  0  0  0  0  0
    7.9397   -1.4742   23.8601 H   0  0  0  0  0  0  0  0  0  0  0  0
    6.7012   -2.5693   24.4917 H   0  0  0  0  0  0  0  0  0  0  0  0
    6.5758   -3.8057   22.4563 H   0  0  0  0  0  0  0  0  0  0  0  0
    5.6987   -1.5522   21.8963 H   0  0  0  0  0  0  0  0  0  0  0  0
    6.3074   -2.4635   20.5343 H   0  0  0  0  0  0  0  0  0  0  0  0
    6.7072    0.0518   19.9364 C   0  0  0  0  0  0  0  0  0  0  0  0
    5.4804    0.6951   20.1767 C   0  0  0  0  0  0  0  0  0  0  0  0
    4.8363    1.3254   19.1102 C   0  0  0  0  0  0  0  0  0  0  0  0
    5.4365    1.2985   17.8458 C   0  0  0  0  0  0  0  0  0  0  0  0
    6.6030    0.6871   17.5970 N   0  0  0  0  0  0  0  0  0  0  0  0
    7.2066    0.0890   18.6328 C   0  0  0  0  0  0  0  0  0  0  0  0
    8.1491   -0.4101   18.4051 H   0  0  0  0  0  0  0  0  0  0  0  0
    4.9510    1.7762   16.9965 H   0  0  0  0  0  0  0  0  0  0  0  0
    3.8883    1.8347   19.2427 H   0  0  0  0  0  0  0  0  0  0  0  0
    5.0140    0.6927   21.1679 H   0  0  0  0  0  0  0  0  0  0  0  0
    8.4100   -1.0917   20.5706 H   0  0  0  0  0  0  0  0  0  0  0  0
    7.0787    0.8633   22.2580 H   0  0  0  0  0  0  0  0  0  0  0  0
    9.0583    1.9617   22.8205 C   0  0  0  0  0  0  0  0  0  0  0  0
   12.1016   -0.2406   22.3417 H   0  0  0  0  0  0  0  0  0  0  0  0
   11.2319    4.0575   23.8110 H   0  0  0  0  0  0  0  0  0  0  0  0
    6.1527    2.7342   22.4099 H   0  0  0  0  0  0  0  0  0  0  0  0
    5.3587    4.9971   23.0434 H   0  0  0  0  0  0  0  0  0  0  0  0
  1  2  1  0
  2  3  2  0
  3  4  1  0
  4  5  2  0
  5  6  1  0
  6  7  2  0
  7  8  1  0
  6  9  1  0
  9 10  1  0
 10 11  2  0
 11 12  1  0
 12 13  2  0
 13 14  1  0
 14 15  1  0
 15 16  1  0
 16 17  1  0
 17 18  1  0
 18 19  1  0
 19 20  1  0
 20 21  1  0
 21 22  1  0
 22 23  1  0
 22 24  1  0
 20 25  1  0
 20 26  1  0
 19 27  1  0
 19 28  1  0
 18 29  1  0
 17 30  1  0
 17 31  1  0
 16 32  1  0
 32 33  2  0
 33 34  1  0
 34 35  2  0
 35 36  1  0
 36 37  2  0
 37 38  1  0
 35 39  1  0
 34 40  1  0
 33 41  1  0
 16 42  1  0
 15 43  1  0
 14 44  2  0
 12 45  1  0
  9 46  1  0
  4 47  1  0
  3 48  1  0
  7  2  1  0
 44 10  1  0
 44  5  1  0
 22 18  1  0
 37 32  1  0
M  END
>  <cnnaffinity>  (1) 
6.28221

>  <plip>  (1) 
-0.07142857142857142

>  <filename>  (1) 
[H][c]1[n][c]([N]([H])[C]([H])([c]2[c]([H])[n][c]([H])[c]([H])[c]2[H])[C]([H])([H])[C]2([H])[C]([H])([H])[O][C]([H])([H])[C]2([H])[H])[c]2[c]3[c]([H])[c]([H])[c]([F])[c]([H])[c]3[n]([H])[c]2[n]1

>  <combo1>  (1) 
-0.3963097865562742

$$$$
