
     RDKit          3D

 36 39  0  0  0  0  0  0  0  0999 V2000
    5.0198    1.8014   16.9759 H   0  0  0  0  0  0  0  0  0  0  0  0
    5.4749    1.2801   17.8165 C   0  0  0  0  0  0  0  0  0  0  0  0
    6.6269    0.6418   17.5617 N   0  0  0  0  0  0  0  0  0  0  0  0
    7.2091    0.0017   18.5842 C   0  0  0  0  0  0  0  0  0  0  0  0
    8.1499   -0.4990   18.3525 H   0  0  0  0  0  0  0  0  0  0  0  0
    6.6929   -0.0574   19.8928 C   0  0  0  0  0  0  0  0  0  0  0  0
    7.4033   -0.7927   21.0147 C   0  0  1  0  0  0  0  0  0  0  0  0
    8.3405   -1.1969   20.6185 H   0  0  0  0  0  0  0  0  0  0  0  0
    7.7534    0.1573   22.2117 C   0  0  0  0  0  0  0  0  0  0  0  0
    8.8342    0.2103   22.3722 H   0  0  0  0  0  0  0  0  0  0  0  0
    7.4151    1.1903   22.0721 H   0  0  0  0  0  0  0  0  0  0  0  0
    7.0754   -0.4894   23.3705 C   0  0  0  0  0  0  0  0  0  0  0  0
    6.8773   -0.1064   24.6186 N   0  0  0  0  0  0  0  0  0  0  0  0
    6.1889   -1.1397   25.1453 N   0  0  0  0  0  0  0  0  0  0  0  0
    5.8187   -1.0577   26.0819 H   0  0  0  0  0  0  0  0  0  0  0  0
    5.9473   -2.1568   24.2728 C   0  0  0  0  0  0  0  0  0  0  0  0
    5.0819   -3.3606   24.7767 C   0  0  1  0  0  0  0  0  0  0  0  0
    5.6232   -3.6193   25.7560 H   0  0  0  0  0  0  0  0  0  0  0  0
    3.8575   -3.0570   25.0358 O   0  0  0  0  0  0  0  0  0  0  0  0
    4.2427   -5.3209   23.5024 C   0  0  0  0  0  0  0  0  0  0  0  0
    4.0213   -4.3273   21.9563 H   0  0  0  0  0  0  0  0  0  0  0  0
    2.8924   -5.6607   22.2528 H   0  0  0  0  0  0  0  0  0  0  0  0
    4.0850   -5.2490   23.1959 C   0  0  0  0  0  0  0  0  0  0  0  0
    4.2162   -6.4816   23.3442 H   0  0  0  0  0  0  0  0  0  0  0  0
    3.2183   -5.2061   24.0815 H   0  0  0  0  0  0  0  0  0  0  0  0
    5.3627   -4.6289   23.8775 C   0  0  0  0  0  0  0  0  0  0  0  0
    6.1087   -5.2342   24.4816 H   0  0  0  0  0  0  0  0  0  0  0  0
    6.1352   -4.2612   23.1311 H   0  0  0  0  0  0  0  0  0  0  0  0
    6.5134   -1.7333   23.0791 C   0  0  0  0  0  0  0  0  0  0  0  0
    6.5779   -1.9998   21.6028 C   0  0  0  0  0  0  0  0  0  0  0  0
    7.0561   -2.9592   21.3725 H   0  0  0  0  0  0  0  0  0  0  0  0
    5.5796   -2.0384   21.1422 H   0  0  0  0  0  0  0  0  0  0  0  0
    5.4835    0.6149   20.1278 C   0  0  0  0  0  0  0  0  0  0  0  0
    5.0412    0.6120   21.1272 H   0  0  0  0  0  0  0  0  0  0  0  0
    4.8657    1.2936   19.0754 C   0  0  0  0  0  0  0  0  0  0  0  0
    3.9398    1.8395   19.2178 H   0  0  0  0  0  0  0  0  0  0  0  0
  1  2  1  0
  2  3  2  0
  3  4  1  0
  4  5  1  0
  4  6  2  0
  6  7  1  0
  7  8  1  6
  7  9  1  0
  9 10  1  0
  9 11  1  0
  9 12  1  0
 12 13  2  0
 13 14  1  0
 14 15  1  0
 14 16  1  0
 16 17  1  0
 17 18  1  1
 17 19  1  0
 19 20  1  0
 20 21  1  0
 20 22  1  0
 20 23  1  0
 23 24  1  0
 23 25  1  0
 23 26  1  0
 26 27  1  0
 26 28  1  0
 16 29  2  0
 29 30  1  0
 30 31  1  0
 30 32  1  0
  6 33  1  0
 33 34  1  0
 33 35  2  0
 35 36  1  0
 35  2  1  0
 30  7  1  0
 29 12  1  0
 26 17  1  0
M  END
>  <cnnaffinity>  (1) 
5.05568

>  <plip>  (1) 
-0.06896551724137931

>  <filename>  (1) 
[H][c]1[n][c]([H])[c]([C@@]2([H])[C]([H])([H])[c]3[n][n]([H])[c]([C@@]4([H])[O][C]([H])([H])[C]([H])([H])[C]4([H])[H])[c]3[C]2([H])[H])[c]([H])[c]1[H]

>  <combo1>  (1) 
-0.45520160400293025

$$$$
