
     RDKit          3D

 39 42  0  0  0  0  0  0  0  0999 V2000
    9.5994    0.7737   20.3723 O   0  0  0  0  0  0  0  0  0  0  0  0
    9.1084    1.1694   21.4256 C   0  0  0  0  0  0  0  0  0  0  0  0
    8.0067    0.5729   21.9601 N   0  0  0  0  0  0  0  0  0  0  0  0
    7.3043   -0.4566   21.2063 C   0  0  0  0  0  0  0  0  0  0  0  0
    6.5446    0.1680   20.0398 C   0  0  0  0  0  0  0  0  0  0  0  0
    5.2779    0.7675   20.1626 C   0  0  0  0  0  0  0  0  0  0  0  0
    4.6974    1.3607   19.0379 C   0  0  0  0  0  0  0  0  0  0  0  0
    5.3930    1.3385   17.8244 C   0  0  0  0  0  0  0  0  0  0  0  0
    6.6180    0.8133   17.6953 N   0  0  0  0  0  0  0  0  0  0  0  0
    7.1748    0.2765   18.7883 C   0  0  0  0  0  0  0  0  0  0  0  0
    8.1970   -0.0719   18.6667 H   0  0  0  0  0  0  0  0  0  0  0  0
    4.9622    1.7667   16.9208 H   0  0  0  0  0  0  0  0  0  0  0  0
    3.7292    1.8481   19.0804 H   0  0  0  0  0  0  0  0  0  0  0  0
    4.7487    0.7897   21.1179 H   0  0  0  0  0  0  0  0  0  0  0  0
    6.4899   -1.4411   22.0713 C   0  0  0  0  0  0  0  0  0  0  0  0
    7.4123   -2.6213   21.6738 C   0  0  0  0  0  0  0  0  0  0  0  0
    8.2680   -1.6324   20.8556 C   0  0  0  0  0  0  0  0  0  0  0  0
    8.3289   -1.7879   19.7864 H   0  0  0  0  0  0  0  0  0  0  0  0
    9.2794   -1.4904   21.2431 H   0  0  0  0  0  0  0  0  0  0  0  0
    6.9204   -3.4075   21.0919 H   0  0  0  0  0  0  0  0  0  0  0  0
    7.9404   -3.1113   22.5012 H   0  0  0  0  0  0  0  0  0  0  0  0
    5.4647   -1.5696   21.7271 H   0  0  0  0  0  0  0  0  0  0  0  0
    6.4997   -1.1944   23.1340 H   0  0  0  0  0  0  0  0  0  0  0  0
    7.5184    1.0475   22.6952 H   0  0  0  0  0  0  0  0  0  0  0  0
    9.7238    2.2737   22.2035 C   0  0  0  0  0  0  0  0  0  0  0  0
    9.3697    2.9135   23.3706 C   0  0  0  0  0  0  0  0  0  0  0  0
   10.3854    3.8711   23.6551 C   0  0  0  0  0  0  0  0  0  0  0  0
   11.3634    3.7459   22.6424 C   0  0  0  0  0  0  0  0  0  0  0  0
   10.9358    2.7930   21.7678 N   0  0  0  0  0  0  0  0  0  0  0  0
   11.3667    2.6077   20.8728 H   0  0  0  0  0  0  0  0  0  0  0  0
   12.5284    4.5374   22.6673 C   0  0  0  0  0  0  0  0  0  0  0  0
   13.4758    4.3733   21.7259 F   0  0  0  0  0  0  0  0  0  0  0  0
   12.6654    5.4991   23.6511 C   0  0  0  0  0  0  0  0  0  0  0  0
   11.6558    5.6606   24.6411 C   0  0  0  0  0  0  0  0  0  0  0  0
   10.5328    4.8452   24.6718 C   0  0  0  0  0  0  0  0  0  0  0  0
    9.7571    4.9676   25.4259 H   0  0  0  0  0  0  0  0  0  0  0  0
   11.7802    6.4534   25.3727 H   0  0  0  0  0  0  0  0  0  0  0  0
   13.5521    6.1249   23.6340 H   0  0  0  0  0  0  0  0  0  0  0  0
    8.5156    2.7429   24.0169 H   0  0  0  0  0  0  0  0  0  0  0  0
  1  2  2  0
  2  3  1  0
  3  4  1  0
  4  5  1  0
  5  6  2  0
  6  7  1  0
  7  8  2  0
  8  9  1  0
  9 10  2  0
 10 11  1  0
  8 12  1  0
  7 13  1  0
  6 14  1  0
  4 15  1  0
 15 16  1  0
 16 17  1  0
 17 18  1  0
 17 19  1  0
 16 20  1  0
 16 21  1  0
 15 22  1  0
 15 23  1  0
  3 24  1  0
  2 25  1  0
 25 26  2  0
 26 27  1  0
 27 28  2  0
 28 29  1  0
 29 30  1  0
 28 31  1  0
 31 32  1  0
 31 33  2  0
 33 34  1  0
 34 35  2  0
 35 36  1  0
 34 37  1  0
 33 38  1  0
 26 39  1  0
 17  4  1  0
 29 25  1  0
 10  5  1  0
 35 27  1  0
M  END
>  <cnnaffinity>  (1) 
5.70749

>  <plip>  (1) 
-0.07142857142857142

>  <filename>  (1) 
[H][c]1[n][c]([H])[c]([C]2([N]([H])[C](=[O])[c]3[c]([H])[c]4[c]([H])[c]([H])[c]([H])[c]([F])[c]4[n]3[H])[C]([H])([H])[C]([H])([H])[C]2([H])[H])[c]([H])[c]1[H]

>  <combo1>  (1) 
-0.43929288768367586

$$$$
