
     RDKit          3D

 45 47  0  0  0  0  0  0  0  0999 V2000
    7.4322   -1.2664   25.4959 C   0  0  0  0  0  0  0  0  0  0  0  0
    7.0956   -0.5466   24.1811 C   0  0  0  0  0  0  0  0  0  0  0  0
    8.3110   -0.4691   23.2621 C   0  0  0  0  0  0  0  0  0  0  0  0
    7.9871    0.1821   21.9327 N   0  0  0  0  0  4  0  0  0  0  0  0
    7.3471   -0.7777   20.9665 C   0  0  0  0  0  0  0  0  0  0  0  0
    6.6303   -0.0106   19.8919 C   0  0  0  0  0  0  0  0  0  0  0  0
    5.4297    0.6622   20.1472 C   0  0  0  0  0  0  0  0  0  0  0  0
    4.7989    1.3257   19.0936 C   0  0  0  0  0  0  0  0  0  0  0  0
    5.3947    1.3086   17.8301 C   0  0  0  0  0  0  0  0  0  0  0  0
    6.5587    0.6928   17.5794 N   0  0  0  0  0  0  0  0  0  0  0  0
    7.1573    0.0649   18.5973 C   0  0  0  0  0  0  0  0  0  0  0  0
    8.1146   -0.4089   18.3642 H   0  0  0  0  0  0  0  0  0  0  0  0
    4.9272    1.8076   16.9813 H   0  0  0  0  0  0  0  0  0  0  0  0
    3.8652    1.8576   19.2333 H   0  0  0  0  0  0  0  0  0  0  0  0
    5.0053    0.6524   21.1548 H   0  0  0  0  0  0  0  0  0  0  0  0
    8.1208   -1.4282   20.5439 H   0  0  0  0  0  0  0  0  0  0  0  0
    6.6572   -1.4199   21.5223 H   0  0  0  0  0  0  0  0  0  0  0  0
    9.2223    0.8708   21.3262 C   0  0  0  0  0  0  0  0  0  0  0  0
    9.6542    2.0924   22.0922 C   0  0  0  0  0  0  0  0  0  0  0  0
   10.7775    2.0926   22.8553 C   0  0  0  0  0  0  0  0  0  0  0  0
   11.1714    3.2604   23.6054 C   0  0  0  0  0  0  0  0  0  0  0  0
   12.1656    3.2284   24.3177 O   0  0  0  0  0  0  0  0  0  0  0  0
   10.3289    4.4732   23.4891 C   0  0  0  0  0  0  0  0  0  0  0  0
   10.6428    5.6716   24.1617 C   0  0  0  0  0  0  0  0  0  0  0  0
    9.8342    6.7892   24.0229 C   0  0  0  0  0  0  0  0  0  0  0  0
    8.7030    6.7402   23.1749 C   0  0  0  0  0  0  0  0  0  0  0  0
    8.3827    5.5632   22.5054 C   0  0  0  0  0  0  0  0  0  0  0  0
    9.1873    4.4218   22.6787 C   0  0  0  0  0  0  0  0  0  0  0  0
    8.8660    3.2247   22.0455 N   0  0  0  0  0  0  0  0  0  0  0  0
    8.1080    3.2977   21.3904 H   0  0  0  0  0  0  0  0  0  0  0  0
    7.5161    5.5053   21.8524 H   0  0  0  0  0  0  0  0  0  0  0  0
    8.0742    7.6221   23.0565 H   0  0  0  0  0  0  0  0  0  0  0  0
   10.0539    7.6901   24.5846 H   0  0  0  0  0  0  0  0  0  0  0  0
   11.5343    5.6708   24.7873 H   0  0  0  0  0  0  0  0  0  0  0  0
   11.3985    1.2169   23.0043 H   0  0  0  0  0  0  0  0  0  0  0  0
   10.0647    0.1749   21.3308 H   0  0  0  0  0  0  0  0  0  0  0  0
    8.9989    1.1278   20.2902 H   0  0  0  0  0  0  0  0  0  0  0  0
    7.2933    0.9547   22.0974 H   0  0  0  0  0  0  0  0  0  0  0  0
    8.7157   -1.4805   23.0906 H   0  0  0  0  0  0  0  0  0  0  0  0
    9.1071    0.1074   23.7494 H   0  0  0  0  0  0  0  0  0  0  0  0
    6.7271    0.4724   24.3713 H   0  0  0  0  0  0  0  0  0  0  0  0
    6.2823   -1.0739   23.6612 H   0  0  0  0  0  0  0  0  0  0  0  0
    8.2308   -0.7478   26.0448 H   0  0  0  0  0  0  0  0  0  0  0  0
    6.5669   -1.3366   26.1662 H   0  0  0  0  0  0  0  0  0  0  0  0
    7.7831   -2.2914   25.3074 H   0  0  0  0  0  0  0  0  0  0  0  0
  1  2  1  0
  2  3  1  0
  3  4  1  0
  4  5  1  0
  5  6  1  0
  6  7  2  0
  7  8  1  0
  8  9  2  0
  9 10  1  0
 10 11  2  0
 11 12  1  0
  9 13  1  0
  8 14  1  0
  7 15  1  0
  5 16  1  0
  5 17  1  0
  4 18  1  0
 18 19  1  0
 19 20  2  0
 20 21  1  0
 21 22  2  0
 21 23  1  0
 23 24  2  0
 24 25  1  0
 25 26  2  0
 26 27  1  0
 27 28  2  0
 28 29  1  0
 29 30  1  0
 27 31  1  0
 26 32  1  0
 25 33  1  0
 24 34  1  0
 20 35  1  0
 18 36  1  0
 18 37  1  0
  4 38  1  0
  3 39  1  0
  3 40  1  0
  2 41  1  0
  2 42  1  0
  1 43  1  0
  1 44  1  0
  1 45  1  0
 11  6  1  0
 29 19  1  0
 28 23  1  0
M  CHG  1   4   1
M  END
>  <cnnaffinity>  (1) 
5.39506

>  <plip>  (1) 
-0.10714285714285714

>  <filename>  (1) 
[H][c]1[n][c]([H])[c]([C]([H])([H])[N+]([H])([C]([H])([H])[c]2[c]([H])[c](=[O])[c]3[c]([H])[c]([H])[c]([H])[c]([H])[c]3[n]2[H])[C]([H])([H])[C]([H])([H])[C]([H])([H])[H])[c]([H])[c]1[H]

>  <combo1>  (1) 
-0.6247652090131952

$$$$
