
     RDKit          3D

 20 21  0  0  0  0  0  0  0  0999 V2000
    7.6712   -1.7804   20.7114 H   0  0  0  0  0  0  0  0  0  0  0  0
    7.3602   -0.7569   20.9387 C   0  0  0  0  0  0  0  0  0  0  0  0
    7.6806   -0.2674   22.1460 C   0  0  0  0  0  0  0  0  0  0  0  0
    8.3480   -1.3152   23.3529 Cl  0  0  0  0  0  0  0  0  0  0  0  0
    7.5463    1.1341   22.5665 C   0  0  0  0  0  0  0  0  0  0  0  0
    7.4967    1.5489   23.8558 N   0  0  0  0  0  0  0  0  0  0  0  0
    7.3853    2.8379   23.8289 N   0  0  0  0  0  0  0  0  0  0  0  0
    7.3780    3.1738   22.5557 N   0  0  0  0  0  0  0  0  0  0  0  0
    7.3097    4.1395   22.2607 H   0  0  0  0  0  0  0  0  0  0  0  0
    7.4877    2.1606   21.7179 N   0  0  0  0  0  0  0  0  0  0  0  0
    6.6363   -0.0044   19.8922 C   0  0  0  0  0  0  0  0  0  0  0  0
    7.1577    0.0655   18.5858 C   0  0  0  0  0  0  0  0  0  0  0  0
    8.1104   -0.4157   18.3602 H   0  0  0  0  0  0  0  0  0  0  0  0
    6.5622    0.6888   17.5663 N   0  0  0  0  0  0  0  0  0  0  0  0
    5.3934    1.2999   17.8273 C   0  0  0  0  0  0  0  0  0  0  0  0
    4.9216    1.7979   16.9828 H   0  0  0  0  0  0  0  0  0  0  0  0
    4.7935    1.3037   19.0896 C   0  0  0  0  0  0  0  0  0  0  0  0
    3.8702    1.8447   19.2430 H   0  0  0  0  0  0  0  0  0  0  0  0
    5.4181    0.6373   20.1451 C   0  0  0  0  0  0  0  0  0  0  0  0
    5.0139    0.6418   21.1608 H   0  0  0  0  0  0  0  0  0  0  0  0
  1  2  1  0
  2  3  2  3
  3  4  1  0
  3  5  1  0
  5  6  1  0
  6  7  2  0
  7  8  1  0
  8  9  1  0
  8 10  1  0
  2 11  1  0
 11 12  2  0
 12 13  1  0
 12 14  1  0
 14 15  2  0
 15 16  1  0
 15 17  1  0
 17 18  1  0
 17 19  2  0
 19 20  1  0
 10  5  2  0
 19 11  1  0
M  END
>  <cnnaffinity>  (1) 
4.08524

>  <plip>  (1) 
-0.07142857142857142

>  <filename>  (1) 
[H][C](=[C]([Cl])[c]1[n][n][n]([H])[n]1)[c]1[c]([H])[n][c]([H])[c]([H])[c]1[H]

>  <combo1>  (1) 
-0.46847965094410576

$$$$
