
     RDKit          3D

 25 26  0  0  0  0  0  0  0  0999 V2000
    4.9179    1.7806   17.0043 H   0  0  0  0  0  0  0  0  0  0  0  0
    5.4048    1.2882   17.8462 C   0  0  0  0  0  0  0  0  0  0  0  0
    6.5697    0.6734   17.5817 N   0  0  0  0  0  0  0  0  0  0  0  0
    7.1869    0.0546   18.5916 C   0  0  0  0  0  0  0  0  0  0  0  0
    8.1328   -0.4301   18.3707 H   0  0  0  0  0  0  0  0  0  0  0  0
    6.6874   -0.0173   19.9076 C   0  0  0  0  0  0  0  0  0  0  0  0
    7.3249   -0.6966   20.9925 N   0  0  0  0  0  0  0  0  0  0  0  0
    8.4090   -1.2581   20.7133 N   0  0  0  0  0  0  0  0  0  0  0  0
    9.0298   -1.9099   21.8780 C   0  0  0  0  0  0  0  0  0  0  0  0
    9.8715   -2.4800   21.4768 H   0  0  0  0  0  0  0  0  0  0  0  0
    8.3419   -2.6266   22.3361 H   0  0  0  0  0  0  0  0  0  0  0  0
    9.5397   -0.9414   22.9079 C   0  0  0  0  0  0  0  0  0  0  0  0
   10.7581   -0.2806   22.7454 C   0  0  0  0  0  0  0  0  0  0  0  0
   11.3952   -0.4885   21.8927 H   0  0  0  0  0  0  0  0  0  0  0  0
   11.1370    0.6766   23.6883 C   0  0  0  0  0  0  0  0  0  0  0  0
   12.0815    1.2020   23.5808 H   0  0  0  0  0  0  0  0  0  0  0  0
   10.4021    1.0111   24.7552 N   0  0  0  0  0  0  0  0  0  0  0  0
    9.2342    0.3741   24.9000 C   0  0  0  0  0  0  0  0  0  0  0  0
    8.6369    0.6556   25.7624 H   0  0  0  0  0  0  0  0  0  0  0  0
    8.7662   -0.6020   24.0198 C   0  0  0  0  0  0  0  0  0  0  0  0
    7.7953   -1.0604   24.1721 H   0  0  0  0  0  0  0  0  0  0  0  0
    5.4691    0.6298   20.1720 C   0  0  0  0  0  0  0  0  0  0  0  0
    5.0474    0.6071   21.1772 H   0  0  0  0  0  0  0  0  0  0  0  0
    4.8257    1.2941   19.1213 C   0  0  0  0  0  0  0  0  0  0  0  0
    3.8935    1.8274   19.2705 H   0  0  0  0  0  0  0  0  0  0  0  0
  1  2  1  0
  2  3  2  0
  3  4  1  0
  4  5  1  0
  4  6  2  0
  6  7  1  0
  7  8  2  3
  8  9  1  0
  9 10  1  0
  9 11  1  0
  9 12  1  0
 12 13  2  0
 13 14  1  0
 13 15  1  0
 15 16  1  0
 15 17  2  0
 17 18  1  0
 18 19  1  0
 18 20  2  0
 20 21  1  0
  6 22  1  0
 22 23  1  0
 22 24  2  0
 24 25  1  0
 24  2  1  0
 20 12  1  0
M  END
>  <cnnaffinity>  (1) 
4.53566

>  <plip>  (1) 
-0.06896551724137931

>  <filename>  (1) 
[H][c]1[n][c]([H])[c]([N]=[N][C]([H])([H])[c]2[c]([H])[c]([H])[n][c]([H])[c]2[H])[c]([H])[c]1[H]

>  <combo1>  (1) 
-0.5259979416584429

$$$$
