
     RDKit          3D

 26 28  0  0  0  0  0  0  0  0999 V2000
    4.9351    1.7863   17.0344 H   0  0  0  0  0  0  0  0  0  0  0  0
    5.4105    1.2715   17.8661 C   0  0  0  0  0  0  0  0  0  0  0  0
    6.5681    0.6480   17.5906 N   0  0  0  0  0  0  0  0  0  0  0  0
    7.2027    0.0362   18.5958 C   0  0  0  0  0  0  0  0  0  0  0  0
    8.1528   -0.4351   18.3550 H   0  0  0  0  0  0  0  0  0  0  0  0
    6.6999   -0.0189   19.9192 C   0  0  0  0  0  0  0  0  0  0  0  0
    7.3963   -0.6912   20.9934 N   0  0  0  0  0  0  0  0  0  0  0  0
    8.7721   -0.6500   21.1923 C   0  0  0  0  0  0  0  0  0  0  0  0
    9.5732   -0.0619   20.5145 O   0  0  0  0  0  0  0  0  0  0  0  0
    9.0350   -1.5305   22.4120 C   0  0  0  0  0  0  0  0  0  0  0  0
   10.0817   -1.8336   22.9165 O   0  0  0  0  0  0  0  0  0  0  0  0
    7.7853   -1.9840   22.8230 N   0  0  0  0  0  0  0  0  0  0  0  0
    7.5894   -2.8430   23.9382 C   0  0  0  0  0  0  0  0  0  0  0  0
    8.9045   -3.6395   24.7723 S   0  0  0  0  0  0  0  0  0  0  0  0
    7.8026   -4.3731   25.8757 C   0  0  0  0  0  0  0  0  0  0  0  0
    8.1881   -5.0248   26.6567 H   0  0  0  0  0  0  0  0  0  0  0  0
    6.5113   -4.0224   25.6246 C   0  0  0  0  0  0  0  0  0  0  0  0
    5.6757   -4.3824   26.2198 H   0  0  0  0  0  0  0  0  0  0  0  0
    6.3862   -3.1396   24.5052 C   0  0  0  0  0  0  0  0  0  0  0  0
    5.4674   -2.7323   24.1021 H   0  0  0  0  0  0  0  0  0  0  0  0
    6.8316   -1.6372   21.8556 C   0  0  0  0  0  0  0  0  0  0  0  0
    5.7464   -2.1318   21.7387 O   0  0  0  0  0  0  0  0  0  0  0  0
    5.4782    0.6106   20.1794 C   0  0  0  0  0  0  0  0  0  0  0  0
    5.0566    0.5617   21.1795 H   0  0  0  0  0  0  0  0  0  0  0  0
    4.8271    1.2829   19.1357 C   0  0  0  0  0  0  0  0  0  0  0  0
    3.8943    1.8201   19.2918 H   0  0  0  0  0  0  0  0  0  0  0  0
  1  2  1  0
  2  3  2  0
  3  4  1  0
  4  5  1  0
  4  6  2  0
  6  7  1  0
  7  8  1  0
  8  9  2  0
  8 10  1  0
 10 11  2  0
 10 12  1  0
 12 13  1  0
 13 14  1  0
 14 15  1  0
 15 16  1  0
 15 17  2  0
 17 18  1  0
 17 19  1  0
 19 20  1  0
 12 21  1  0
 21 22  2  0
  6 23  1  0
 23 24  1  0
 23 25  2  0
 25 26  1  0
 25  2  1  0
 21  7  1  0
 19 13  2  0
M  END
>  <cnnaffinity>  (1) 
4.84948

>  <plip>  (1) 
-0.07142857142857142

>  <filename>  (1) 
[H][c]1[n][c]([H])[c]([N]2[C](=[O])[C](=[O])[N]([c]3[s][c]([H])[c]([H])[c]3[H])[C]2=[O])[c]([H])[c]1[H]

>  <combo1>  (1) 
-0.42252183539467686

$$$$
