
     RDKit          3D

 31 33  0  0  0  0  0  0  0  0999 V2000
    4.9102    1.7874   16.9918 H   0  0  0  0  0  0  0  0  0  0  0  0
    5.3983    1.2979   17.8307 C   0  0  0  0  0  0  0  0  0  0  0  0
    6.5583    0.6783   17.5607 N   0  0  0  0  0  0  0  0  0  0  0  0
    7.1764    0.0632   18.5798 C   0  0  0  0  0  0  0  0  0  0  0  0
    8.1171   -0.4313   18.3534 H   0  0  0  0  0  0  0  0  0  0  0  0
    6.6913    0.0166   19.9122 C   0  0  0  0  0  0  0  0  0  0  0  0
    7.2703   -0.6940   20.9865 N   0  0  0  0  0  0  0  0  0  0  0  0
    8.5073   -0.6115   21.3392 C   0  0  0  0  0  0  0  0  0  0  0  0
    9.0753   -1.5258   22.3211 C   0  0  0  0  0  0  0  0  0  0  0  0
   10.4026   -1.7804   22.6022 C   0  0  0  0  0  0  0  0  0  0  0  0
   11.3031   -1.3755   22.1373 H   0  0  0  0  0  0  0  0  0  0  0  0
   10.4698   -2.7095   23.6065 N   0  0  0  0  0  0  0  0  0  0  0  0
   11.3004   -3.0900   24.0195 H   0  0  0  0  0  0  0  0  0  0  0  0
    9.2077   -3.0674   24.0052 C   0  0  0  0  0  0  0  0  0  0  0  0
    8.7938   -3.9704   24.9998 C   0  0  0  0  0  0  0  0  0  0  0  0
    9.5296   -4.5152   25.5920 H   0  0  0  0  0  0  0  0  0  0  0  0
    7.4245   -4.1293   25.1915 C   0  0  0  0  0  0  0  0  0  0  0  0
    7.0657   -4.8207   25.9536 H   0  0  0  0  0  0  0  0  0  0  0  0
    6.4818   -3.4019   24.4139 C   0  0  0  0  0  0  0  0  0  0  0  0
    5.4158   -3.5417   24.5874 H   0  0  0  0  0  0  0  0  0  0  0  0
    6.9058   -2.5103   23.4374 C   0  0  0  0  0  0  0  0  0  0  0  0
    6.2046   -1.9429   22.8349 H   0  0  0  0  0  0  0  0  0  0  0  0
    8.2916   -2.3460   23.2225 C   0  0  0  0  0  0  0  0  0  0  0  0
    9.4612    0.3908   20.7316 C   0  0  0  0  0  0  0  0  0  0  0  0
    8.9532    1.2736   20.3433 H   0  0  0  0  0  0  0  0  0  0  0  0
    9.9357   -0.1382   19.9073 H   0  0  0  0  0  0  0  0  0  0  0  0
   10.2235    0.7109   21.4444 H   0  0  0  0  0  0  0  0  0  0  0  0
    5.4558    0.6487   20.1560 C   0  0  0  0  0  0  0  0  0  0  0  0
    5.0393    0.6103   21.1630 H   0  0  0  0  0  0  0  0  0  0  0  0
    4.8145    1.3076   19.1052 C   0  0  0  0  0  0  0  0  0  0  0  0
    3.8805    1.8356   19.2636 H   0  0  0  0  0  0  0  0  0  0  0  0
  1  2  1  0
  2  3  2  0
  3  4  1  0
  4  5  1  0
  4  6  2  0
  6  7  1  0
  7  8  2  3
  8  9  1  0
  9 10  2  0
 10 11  1  0
 10 12  1  0
 12 13  1  0
 12 14  1  0
 14 15  2  0
 15 16  1  0
 15 17  1  0
 17 18  1  0
 17 19  2  0
 19 20  1  0
 19 21  1  0
 21 22  1  0
 21 23  2  0
  8 24  1  0
 24 25  1  0
 24 26  1  0
 24 27  1  0
  6 28  1  0
 28 29  1  0
 28 30  2  0
 30 31  1  0
 30  2  1  0
 23  9  1  0
 23 14  1  0
M  END
>  <cnnaffinity>  (1) 
4.98913

>  <plip>  (1) 
-0.07142857142857142

>  <filename>  (1) 
[H][c]1[n][c]([H])[c]([N]=[C]([c]2[c]([H])[n]([H])[c]3[c]([H])[c]([H])[c]([H])[c]([H])[c]23)[C]([H])([H])[H])[c]([H])[c]1[H]

>  <combo1>  (1) 
-0.5048612755485125

$$$$
