
     RDKit          3D

 32 33  0  0  0  0  0  0  0  0999 V2000
    5.8742   -5.5648   23.7687 C   0  0  0  0  0  0  0  0  0  0  0  0
    6.9890   -4.7386   23.1945 C   0  0  0  0  0  0  0  0  0  0  0  0
    6.7437   -3.7962   22.1844 C   0  0  0  0  0  0  0  0  0  0  0  0
    4.9518   -3.5073   21.5942 Br  0  0  0  0  0  0  0  0  0  0  0  0
    7.7906   -3.0054   21.6894 C   0  0  0  0  0  0  0  0  0  0  0  0
    7.5796   -2.0889   20.6691 N   0  0  0  0  0  0  0  0  0  0  0  0
    7.3898   -0.6994   21.0672 C   0  0  0  0  0  0  0  0  0  0  0  0
    8.7481   -0.0324   21.2798 C   0  0  0  0  0  0  0  0  0  0  0  0
    9.2510   -0.4614   22.1525 H   0  0  0  0  0  0  0  0  0  0  0  0
    8.6123    1.0393   21.4480 H   0  0  0  0  0  0  0  0  0  0  0  0
    9.3817   -0.1687   20.3985 H   0  0  0  0  0  0  0  0  0  0  0  0
    6.6477   -0.0491   19.9471 C   0  0  0  0  0  0  0  0  0  0  0  0
    5.4370    0.6116   20.1733 C   0  0  0  0  0  0  0  0  0  0  0  0
    4.8561    1.2595   19.0876 C   0  0  0  0  0  0  0  0  0  0  0  0
    5.4800    1.2291   17.8326 C   0  0  0  0  0  0  0  0  0  0  0  0
    6.6242    0.5579   17.6131 N   0  0  0  0  0  0  0  0  0  0  0  0
    7.1954   -0.0707   18.6541 C   0  0  0  0  0  0  0  0  0  0  0  0
    8.1360   -0.5931   18.4857 H   0  0  0  0  0  0  0  0  0  0  0  0
    5.0254    1.7761   17.0114 H   0  0  0  0  0  0  0  0  0  0  0  0
    3.9318    1.8053   19.2042 H   0  0  0  0  0  0  0  0  0  0  0  0
    4.9780    0.6338   21.1666 H   0  0  0  0  0  0  0  0  0  0  0  0
    6.8019   -0.6385   21.9932 H   0  0  0  0  0  0  0  0  0  0  0  0
    6.9037   -2.3919   19.9698 H   0  0  0  0  0  0  0  0  0  0  0  0
    9.0561   -3.0982   22.2627 C   0  0  0  0  0  0  0  0  0  0  0  0
    9.3000   -4.0204   23.2808 C   0  0  0  0  0  0  0  0  0  0  0  0
    8.2766   -4.8596   23.7177 C   0  0  0  0  0  0  0  0  0  0  0  0
    8.4638   -5.5934   24.4932 H   0  0  0  0  0  0  0  0  0  0  0  0
   10.2839   -4.0848   23.7295 H   0  0  0  0  0  0  0  0  0  0  0  0
    9.8447   -2.4435   21.9120 H   0  0  0  0  0  0  0  0  0  0  0  0
    6.2437   -6.1926   24.5839 H   0  0  0  0  0  0  0  0  0  0  0  0
    5.4284   -6.2048   23.0004 H   0  0  0  0  0  0  0  0  0  0  0  0
    5.0991   -4.9054   24.1693 H   0  0  0  0  0  0  0  0  0  0  0  0
  1  2  1  0
  2  3  2  0
  3  4  1  0
  3  5  1  0
  5  6  1  0
  6  7  1  0
  7  8  1  0
  8  9  1  0
  8 10  1  0
  8 11  1  0
  7 12  1  0
 12 13  2  0
 13 14  1  0
 14 15  2  0
 15 16  1  0
 16 17  2  0
 17 18  1  0
 15 19  1  0
 14 20  1  0
 13 21  1  0
  7 22  1  0
  6 23  1  0
  5 24  2  0
 24 25  1  0
 25 26  2  0
 26 27  1  0
 25 28  1  0
 24 29  1  0
  1 30  1  0
  1 31  1  0
  1 32  1  0
 26  2  1  0
 17 12  1  0
M  END
>  <cnnaffinity>  (1) 
4.5049

>  <plip>  (1) 
-0.07142857142857142

>  <filename>  (1) 
[H][c]1[n][c]([H])[c]([C]([H])([N]([H])[c]2[c]([H])[c]([H])[c]([H])[c]([C]([H])([H])[H])[c]2[Br])[C]([H])([H])[H])[c]([H])[c]1[H]

>  <combo1>  (1) 
-0.36834639622490933

$$$$
