
     RDKit          3D

 35 36  0  0  0  0  0  0  0  0999 V2000
   10.7350   -0.4845   22.3024 O   0  0  0  0  0  0  0  0  0  0  0  0
    9.6760   -0.1489   22.8093 C   0  0  0  0  0  0  0  0  0  0  0  0
    8.3548   -0.7587   22.3669 C   0  0  0  0  0  0  0  0  0  0  0  0
    7.8273   -0.0710   21.0976 C   0  0  0  0  0  0  0  0  0  0  0  0
    6.6331   -0.7976   20.4607 C   0  0  0  0  0  0  0  0  0  0  0  0
    6.1067   -0.0269   19.2737 C   0  0  0  0  0  0  0  0  0  0  0  0
    4.9695    0.7842   19.3696 C   0  0  0  0  0  0  0  0  0  0  0  0
    4.6261    1.6063   18.2944 C   0  0  0  0  0  0  0  0  0  0  0  0
    5.4362    1.5943   17.1574 C   0  0  0  0  0  0  0  0  0  0  0  0
    6.5106    0.8031   17.0262 N   0  0  0  0  0  0  0  0  0  0  0  0
    6.8247    0.0169   18.0644 C   0  0  0  0  0  0  0  0  0  0  0  0
    7.7091   -0.6104   17.9319 H   0  0  0  0  0  0  0  0  0  0  0  0
    5.2146    2.2449   16.3137 H   0  0  0  0  0  0  0  0  0  0  0  0
    3.7614    2.2594   18.3307 H   0  0  0  0  0  0  0  0  0  0  0  0
    4.3763    0.7817   20.2854 H   0  0  0  0  0  0  0  0  0  0  0  0
    6.9462   -1.8051   20.1526 H   0  0  0  0  0  0  0  0  0  0  0  0
    5.8347   -0.9286   21.2039 H   0  0  0  0  0  0  0  0  0  0  0  0
    7.5375    0.9652   21.3232 H   0  0  0  0  0  0  0  0  0  0  0  0
    8.6349   -0.0038   20.3536 H   0  0  0  0  0  0  0  0  0  0  0  0
    8.5685   -1.8126   22.1703 H   0  0  0  0  0  0  0  0  0  0  0  0
    7.6125   -0.7069   23.1730 H   0  0  0  0  0  0  0  0  0  0  0  0
    9.5819    0.8150   23.7727 N   0  0  0  0  0  0  0  0  0  0  0  0
   10.7102    1.7247   24.0390 C   0  0  1  0  0  0  0  0  0  0  0  0
   11.9771    1.4054   24.4490 C   0  0  0  0  0  0  0  0  0  0  0  0
   12.2220    1.2144   24.1887 C   0  0  0  0  0  0  0  0  0  0  0  0
   11.6849    3.9638   23.5995 C   0  0  0  0  0  0  0  0  0  0  0  0
   10.8057    2.9522   23.1855 C   0  0  0  0  0  0  0  0  0  0  0  0
   10.9874    2.7243   22.0788 H   0  0  0  0  0  0  0  0  0  0  0  0
    9.7793    3.4100   23.0366 H   0  0  0  0  0  0  0  0  0  0  0  0
   11.7107    4.8427   22.9574 H   0  0  0  0  0  0  0  0  0  0  0  0
   12.2606    4.0901   24.5015 H   0  0  0  0  0  0  0  0  0  0  0  0
   12.6863    0.7616   23.1861 H   0  0  0  0  0  0  0  0  0  0  0  0
   12.6549    0.8986   25.3049 H   0  0  0  0  0  0  0  0  0  0  0  0
   10.7022    2.0036   25.0765 H   0  0  0  0  0  0  0  0  0  0  0  0
    8.6434    1.0912   24.0214 H   0  0  0  0  0  0  0  0  0  0  0  0
  1  2  2  0
  2  3  1  0
  3  4  1  0
  4  5  1  0
  5  6  1  0
  6  7  2  0
  7  8  1  0
  8  9  2  0
  9 10  1  0
 10 11  2  0
 11 12  1  0
  9 13  1  0
  8 14  1  0
  7 15  1  0
  5 16  1  0
  5 17  1  0
  4 18  1  0
  4 19  1  0
  3 20  1  0
  3 21  1  0
  2 22  1  0
 22 23  1  0
 23 24  1  0
 24 25  2  0
 25 26  1  0
 26 27  1  0
 27 28  1  0
 27 29  1  0
 26 30  1  0
 26 31  1  0
 25 32  1  0
 24 33  1  0
 23 34  1  1
 22 35  1  0
 11  6  1  0
 27 23  1  0
M  END
>  <cnnaffinity>  (1) 
4.63223

>  <plip>  (1) 
-0.10344827586206896

>  <filename>  (1) 
[H][C]1=[C]([H])[C@]([H])([N]([H])[C](=[O])[C]([H])([H])[C]([H])([H])[C]([H])([H])[c]2[c]([H])[n][c]([H])[c]([H])[c]2[H])[C]([H])([H])[C]1([H])[H]

>  <combo1>  (1) 
-0.6935494568888032

$$$$
