
     RDKit          3D

 21 22  0  0  0  0  0  0  0  0999 V2000
    8.8137   -3.5568   24.7881 H   0  0  0  0  0  0  0  0  0  0  0  0
    9.1528   -3.0300   23.9075 C   0  0  0  0  0  0  0  0  0  0  0  0
   10.3349   -2.9997   23.2933 C   0  0  0  0  0  0  0  0  0  0  0  0
   11.2649   -3.5105   23.5149 H   0  0  0  0  0  0  0  0  0  0  0  0
   10.2394   -2.0936   22.1055 C   0  0  0  0  0  0  0  0  0  0  0  0
   11.1048   -1.7870   21.3357 O   0  0  0  0  0  0  0  0  0  0  0  0
    8.8910   -1.6824   22.0524 N   0  0  0  0  0  0  0  0  0  0  0  0
    8.4019   -1.1011   20.9218 N   0  0  0  0  0  0  0  0  0  0  0  0
    7.1868   -0.8300   20.9845 N   0  0  0  0  0  0  0  0  0  0  0  0
    6.6569   -0.1036   19.8847 C   0  0  0  0  0  0  0  0  0  0  0  0
    7.1987   -0.0172   18.5854 C   0  0  0  0  0  0  0  0  0  0  0  0
    8.1445   -0.5019   18.3484 H   0  0  0  0  0  0  0  0  0  0  0  0
    6.6099    0.6542   17.5899 N   0  0  0  0  0  0  0  0  0  0  0  0
    5.4570    1.2891   17.8556 C   0  0  0  0  0  0  0  0  0  0  0  0
    5.0067    1.8206   17.0238 H   0  0  0  0  0  0  0  0  0  0  0  0
    4.8511    1.2835   19.1156 C   0  0  0  0  0  0  0  0  0  0  0  0
    3.9324    1.8299   19.2777 H   0  0  0  0  0  0  0  0  0  0  0  0
    5.4641    0.5781   20.1505 C   0  0  0  0  0  0  0  0  0  0  0  0
    5.0717    0.5471   21.1674 H   0  0  0  0  0  0  0  0  0  0  0  0
    8.1891   -2.1613   23.1953 C   0  0  0  0  0  0  0  0  0  0  0  0
    7.0638   -1.9214   23.5252 O   0  0  0  0  0  0  0  0  0  0  0  0
  1  2  1  0
  2  3  2  0
  3  4  1  0
  3  5  1  0
  5  6  2  0
  5  7  1  0
  7  8  1  0
  8  9  2  3
  9 10  1  0
 10 11  2  0
 11 12  1  0
 11 13  1  0
 13 14  2  0
 14 15  1  0
 14 16  1  0
 16 17  1  0
 16 18  2  0
 18 19  1  0
  7 20  1  0
 20 21  2  0
 20  2  1  0
 18 10  1  0
M  END
>  <cnnaffinity>  (1) 
4.65582

>  <plip>  (1) 
-0.07142857142857142

>  <filename>  (1) 
[H][C]1=[C]([H])[C](=[O])[N]([N]=[N][c]2[c]([H])[n][c]([H])[c]([H])[c]2[H])[C]1=[O]

>  <combo1>  (1) 
-0.5483069309099491

$$$$
