
     RDKit          3D

 36 38  0  0  0  0  0  0  0  0999 V2000
    9.5152   -1.6887   20.9375 C   0  0  0  0  0  0  0  0  0  0  0  0
    8.6260   -0.4952   21.2443 C   0  0  0  0  0  0  0  0  0  0  0  0
    7.2209   -0.7557   20.9107 N   0  0  0  0  0  0  0  0  0  0  0  0
    6.4568   -1.6609   21.6741 C   0  0  0  0  0  0  0  0  0  0  0  0
    5.6004   -2.3649   21.1685 O   0  0  0  0  0  0  0  0  0  0  0  0
    6.6578   -1.6791   23.2152 C   0  0  0  0  0  0  0  0  0  0  0  0
    6.5002   -0.2707   23.8629 C   0  0  0  0  0  0  0  0  0  0  0  0
    7.7809   -0.1143   24.6372 C   0  0  0  0  0  0  0  0  0  0  0  0
    8.3048    0.9529   25.3667 C   0  0  0  0  0  0  0  0  0  0  0  0
    9.6276    0.8742   25.8216 C   0  0  0  0  0  0  0  0  0  0  0  0
   10.4011   -0.2637   25.5722 C   0  0  0  0  0  0  0  0  0  0  0  0
    9.8662   -1.3721   24.8978 C   0  0  0  0  0  0  0  0  0  0  0  0
    8.5582   -1.2533   24.4364 C   0  0  0  0  0  0  0  0  0  0  0  0
    7.9484   -2.1800   23.6356 O   0  0  0  0  0  0  0  0  0  0  0  0
   10.4196   -2.2938   24.7329 H   0  0  0  0  0  0  0  0  0  0  0  0
   11.4316   -0.2759   25.9091 H   0  0  0  0  0  0  0  0  0  0  0  0
   10.0532    1.7079   26.3667 H   0  0  0  0  0  0  0  0  0  0  0  0
    7.7327    1.8562   25.5608 H   0  0  0  0  0  0  0  0  0  0  0  0
    6.3728    0.5269   23.1207 H   0  0  0  0  0  0  0  0  0  0  0  0
    5.6165   -0.2119   24.5002 H   0  0  0  0  0  0  0  0  0  0  0  0
    5.9095   -2.3885   23.5747 H   0  0  0  0  0  0  0  0  0  0  0  0
    6.6033   -0.0437   19.8280 C   0  0  0  0  0  0  0  0  0  0  0  0
    5.3812    0.6134   20.0314 C   0  0  0  0  0  0  0  0  0  0  0  0
    4.8105    1.3248   18.9744 C   0  0  0  0  0  0  0  0  0  0  0  0
    5.4640    1.3490   17.7392 C   0  0  0  0  0  0  0  0  0  0  0  0
    6.6372    0.7333   17.5234 N   0  0  0  0  0  0  0  0  0  0  0  0
    7.1966    0.0764   18.5497 C   0  0  0  0  0  0  0  0  0  0  0  0
    8.1555   -0.4029   18.3463 H   0  0  0  0  0  0  0  0  0  0  0  0
    5.0296    1.8741   16.8900 H   0  0  0  0  0  0  0  0  0  0  0  0
    3.8778    1.8616   19.1004 H   0  0  0  0  0  0  0  0  0  0  0  0
    4.8971    0.5658   21.0054 H   0  0  0  0  0  0  0  0  0  0  0  0
    8.9408    0.3862   20.6744 H   0  0  0  0  0  0  0  0  0  0  0  0
    8.7386   -0.2257   22.2983 H   0  0  0  0  0  0  0  0  0  0  0  0
    9.2132   -2.5560   21.5277 H   0  0  0  0  0  0  0  0  0  0  0  0
    9.4395   -1.9389   19.8767 H   0  0  0  0  0  0  0  0  0  0  0  0
   10.5649   -1.4657   21.1628 H   0  0  0  0  0  0  0  0  0  0  0  0
  1  2  1  0
  2  3  1  0
  3  4  1  0
  4  5  2  0
  4  6  1  0
  6  7  1  0
  7  8  1  0
  8  9  2  0
  9 10  1  0
 10 11  2  0
 11 12  1  0
 12 13  2  0
 13 14  1  0
 12 15  1  0
 11 16  1  0
 10 17  1  0
  9 18  1  0
  7 19  1  0
  7 20  1  0
  6 21  1  0
  3 22  1  0
 22 23  2  0
 23 24  1  0
 24 25  2  0
 25 26  1  0
 26 27  2  0
 27 28  1  0
 25 29  1  0
 24 30  1  0
 23 31  1  0
  2 32  1  0
  2 33  1  0
  1 34  1  0
  1 35  1  0
  1 36  1  0
 14  6  1  0
 27 22  1  0
 13  8  1  0
M  END
>  <cnnaffinity>  (1) 
4.74562

>  <plip>  (1) 
-0.10344827586206896

>  <filename>  (1) 
[H][c]1[n][c]([H])[c]([N]([C](=[O])[C]2([H])[O][c]3[c]([H])[c]([H])[c]([H])[c]([H])[c]3[C]2([H])[H])[C]([H])([H])[C]([H])([H])[H])[c]([H])[c]1[H]

>  <combo1>  (1) 
-0.609885616085203

$$$$
