
     RDKit          3D

 26 29  0  0  0  0  0  0  0  0999 V2000
    5.6804   -1.5975   28.2332 H   0  0  0  0  0  0  0  0  0  0  0  0
    5.7696   -1.3798   27.1751 C   0  0  0  0  0  0  0  0  0  0  0  0
    4.9702   -0.6867   26.4291 N   0  0  0  0  0  0  0  0  0  0  0  0
    5.5962   -0.7039   25.1913 C   0  0  0  0  0  0  0  0  0  0  0  0
    5.2538   -0.1453   24.3362 H   0  0  0  0  0  0  0  0  0  0  0  0
    6.7386   -1.4369   25.2512 C   0  0  0  0  0  0  0  0  0  0  0  0
    7.7678   -1.8132   24.3314 C   0  0  0  0  0  0  0  0  0  0  0  0
    8.9384   -2.5375   24.4500 C   0  0  0  0  0  0  0  0  0  0  0  0
    9.3359   -3.0032   25.3431 H   0  0  0  0  0  0  0  0  0  0  0  0
    9.6208   -2.6341   23.2688 N   0  0  0  0  0  0  0  0  0  0  0  0
    8.8739   -1.9651   22.4260 C   0  0  0  0  0  0  0  0  0  0  0  0
    8.9027   -1.5252   20.7537 S   0  0  0  0  0  0  0  0  0  0  0  0
    7.3598   -0.6940   21.0141 C   0  0  0  0  0  0  0  0  0  0  0  0
    6.6452    0.0074   19.9358 C   0  0  0  0  0  0  0  0  0  0  0  0
    7.1696    0.0466   18.6311 C   0  0  0  0  0  0  0  0  0  0  0  0
    8.1186   -0.4261   18.3805 H   0  0  0  0  0  0  0  0  0  0  0  0
    6.5689    0.6576   17.6088 N   0  0  0  0  0  0  0  0  0  0  0  0
    5.4088    1.2822   17.8491 C   0  0  0  0  0  0  0  0  0  0  0  0
    4.9564    1.7802   16.9942 H   0  0  0  0  0  0  0  0  0  0  0  0
    4.8029    1.3082   19.1075 C   0  0  0  0  0  0  0  0  0  0  0  0
    3.8737    1.8432   19.2386 H   0  0  0  0  0  0  0  0  0  0  0  0
    5.4191    0.6584   20.1741 C   0  0  0  0  0  0  0  0  0  0  0  0
    4.9795    0.6530   21.1728 H   0  0  0  0  0  0  0  0  0  0  0  0
    6.8990   -0.7482   22.2269 N   0  0  0  0  0  0  0  0  0  0  0  0
    7.7515   -1.4528   22.9935 N   0  0  0  0  0  0  0  0  0  0  0  0
    6.8590   -1.8683   26.5519 O   0  0  0  0  0  0  0  0  0  0  0  0
  1  2  1  0
  2  3  2  0
  3  4  1  0
  4  5  1  0
  4  6  2  0
  6  7  1  0
  7  8  2  0
  8  9  1  0
  8 10  1  0
 10 11  2  0
 11 12  1  0
 12 13  1  0
 13 14  1  0
 14 15  2  0
 15 16  1  0
 15 17  1  0
 17 18  2  0
 18 19  1  0
 18 20  1  0
 20 21  1  0
 20 22  2  0
 22 23  1  0
 13 24  2  0
 24 25  1  0
  6 26  1  0
 26  2  1  0
 25  7  1  0
 25 11  1  0
 22 14  1  0
M  END
>  <cnnaffinity>  (1) 
4.89672

>  <plip>  (1) 
-0.0

>  <filename>  (1) 
[H][c]1[n][c]([H])[c](-[c]2[c]([H])[n][c]3[s][c](-[c]4[c]([H])[n][c]([H])[c]([H])[c]4[H])[n][n]23)[o]1

>  <combo1>  (1) 
-6.061294742822765e-06

$$$$
