
     RDKit          3D

 25 25  0  0  0  0  0  0  0  0999 V2000
   12.5024    3.2392   20.7559 H   0  0  0  0  0  0  0  0  0  0  0  0
   12.0857    2.3010   21.1172 C   0  0  0  0  0  0  0  0  0  0  0  0
   12.8070    1.5593   21.4552 H   0  0  0  0  0  0  0  0  0  0  0  0
   10.7760    2.0767   21.1564 C   0  0  0  0  0  0  0  0  0  0  0  0
   10.0869    2.8470   20.8196 H   0  0  0  0  0  0  0  0  0  0  0  0
   10.0718    0.8319   21.6409 C   0  0  0  0  0  0  0  0  0  0  0  0
   10.2374   -0.0496   20.9890 H   0  0  0  0  0  0  0  0  0  0  0  0
   10.4382    0.5371   22.6402 H   0  0  0  0  0  0  0  0  0  0  0  0
    8.7008    1.1864   21.6803 O   0  0  0  0  0  0  0  0  0  0  0  0
    7.8000    0.2134   22.1390 C   0  0  0  0  0  0  0  0  0  0  0  0
    8.2185   -0.3807   22.9659 H   0  0  0  0  0  0  0  0  0  0  0  0
    6.9263    0.7467   22.5276 H   0  0  0  0  0  0  0  0  0  0  0  0
    7.3700   -0.7109   20.9870 C   0  0  1  0  0  0  0  0  0  0  0  0
    8.2662   -1.1852   20.5766 H   0  0  0  0  0  0  0  0  0  0  0  0
    6.3925   -2.0370   21.6902 Cl  0  0  0  0  0  0  0  0  0  0  0  0
    6.6094   -0.0156   19.8840 C   0  0  0  0  0  0  0  0  0  0  0  0
    7.1353    0.0218   18.5860 C   0  0  0  0  0  0  0  0  0  0  0  0
    8.0723   -0.4940   18.3723 H   0  0  0  0  0  0  0  0  0  0  0  0
    6.5695    0.6547   17.5514 N   0  0  0  0  0  0  0  0  0  0  0  0
    5.4177    1.3014   17.7911 C   0  0  0  0  0  0  0  0  0  0  0  0
    4.9772    1.8319   16.9477 H   0  0  0  0  0  0  0  0  0  0  0  0
    4.7868    1.3084   19.0405 C   0  0  0  0  0  0  0  0  0  0  0  0
    3.8577    1.8541   19.1699 H   0  0  0  0  0  0  0  0  0  0  0  0
    5.3872    0.6374   20.1045 C   0  0  0  0  0  0  0  0  0  0  0  0
    4.9136    0.6120   21.0893 H   0  0  0  0  0  0  0  0  0  0  0  0
  1  2  1  0
  2  3  1  0
  2  4  2  3
  4  5  1  0
  4  6  1  0
  6  7  1  0
  6  8  1  0
  6  9  1  0
  9 10  1  0
 10 11  1  0
 10 12  1  0
 10 13  1  0
 13 14  1  6
 13 15  1  0
 13 16  1  0
 16 17  2  0
 17 18  1  0
 17 19  1  0
 19 20  2  0
 20 21  1  0
 20 22  1  0
 22 23  1  0
 22 24  2  0
 24 25  1  0
 24 16  1  0
M  END
>  <cnnaffinity>  (1) 
4.0716

>  <plip>  (1) 
-0.07142857142857142

>  <filename>  (1) 
[H][C]([H])=[C]([H])[C]([H])([H])[O][C]([H])([H])[C@@]([H])([Cl])[c]1[c]([H])[n][c]([H])[c]([H])[c]1[H]

>  <combo1>  (1) 
-0.49044017475454493

$$$$
