
     RDKit          3D

 21 22  0  0  0  0  0  0  0  0999 V2000
   11.4330    1.5063   20.9701 H   0  0  0  0  0  0  0  0  0  0  0  0
   10.4740    1.3639   21.4484 C   0  0  0  0  0  0  0  0  0  0  0  0
    9.8627    2.0259   22.4245 C   0  0  0  0  0  0  0  0  0  0  0  0
   10.1854    2.8593   23.0349 H   0  0  0  0  0  0  0  0  0  0  0  0
    8.4977    1.4450   22.6006 C   0  0  0  0  0  0  0  0  0  0  0  0
    7.5873    1.7802   23.3038 O   0  0  0  0  0  0  0  0  0  0  0  0
    8.4456    0.3637   21.7381 N   0  0  0  0  0  0  0  0  0  0  0  0
    7.0684   -0.6146   21.6837 S   0  0  0  0  0  4  0  0  0  0  0  0
    7.5345   -1.9563   21.2781 O   0  0  0  0  0  0  0  0  0  0  0  0
    6.3745    0.1434   20.2027 C   0  0  0  0  0  0  0  0  0  0  0  0
    6.9822   -0.1366   18.9741 C   0  0  0  0  0  0  0  0  0  0  0  0
    7.8439   -0.8006   18.9290 H   0  0  0  0  0  0  0  0  0  0  0  0
    6.5609    0.4174   17.8287 N   0  0  0  0  0  0  0  0  0  0  0  0
    5.4871    1.2208   17.8848 C   0  0  0  0  0  0  0  0  0  0  0  0
    5.1733    1.6600   16.9427 H   0  0  0  0  0  0  0  0  0  0  0  0
    4.7884    1.5001   19.0630 C   0  0  0  0  0  0  0  0  0  0  0  0
    3.9141    2.1398   19.0376 H   0  0  0  0  0  0  0  0  0  0  0  0
    5.2361    0.9387   20.2609 C   0  0  0  0  0  0  0  0  0  0  0  0
    4.7145    1.0826   21.2077 H   0  0  0  0  0  0  0  0  0  0  0  0
    9.5796    0.2735   20.9594 C   0  0  0  0  0  0  0  0  0  0  0  0
    9.7540   -0.4951   20.0562 O   0  0  0  0  0  0  0  0  0  0  0  0
  1  2  1  0
  2  3  2  0
  3  4  1  0
  3  5  1  0
  5  6  2  0
  5  7  1  0
  8  7  1  6
  8  9  2  0
  8 10  1  0
 10 11  2  0
 11 12  1  0
 11 13  1  0
 13 14  2  0
 14 15  1  0
 14 16  1  0
 16 17  1  0
 16 18  2  0
 18 19  1  0
  7 20  1  0
 20 21  2  0
 20  2  1  0
 18 10  1  0
M  END
>  <cnnaffinity>  (1) 
4.47517

>  <plip>  (1) 
-0.14285714285714285

>  <filename>  (1) 
[H][C]1=[C]([H])[C](=[O])[N]([S@](=[O])[c]2[c]([H])[n][c]([H])[c]([H])[c]2[H])[C]1=[O]

>  <combo1>  (1) 
-0.9589530130873363

$$$$
