
     RDKit          3D

 33 35  0  0  0  0  0  0  0  0999 V2000
    6.9791   -1.6684   24.5484 C   0  0  0  0  0  0  0  0  0  0  0  0
    8.2550   -1.6644   24.1733 C   0  0  0  0  0  0  0  0  0  0  0  0
    8.8251   -2.3949   22.9965 C   0  0  0  0  0  0  0  0  0  0  0  0
    9.3701   -1.4843   22.0028 N   0  0  0  0  0  0  0  0  0  0  0  0
   10.6760   -1.0794   21.8915 C   0  0  0  0  0  0  0  0  0  0  0  0
   10.8065   -0.1452   21.0031 N   0  0  0  0  0  0  0  0  0  0  0  0
    9.5519    0.1085   20.4880 N   0  0  0  0  0  0  0  0  0  0  0  0
    8.7130   -0.6658   21.1205 C   0  0  0  0  0  0  0  0  0  0  0  0
    7.3558   -0.7281   20.9198 N   0  0  0  0  0  0  0  0  0  0  0  0
    6.6721   -0.0116   19.9020 C   0  0  0  0  0  0  0  0  0  0  0  0
    5.4512    0.6239   20.1652 C   0  0  0  0  0  0  0  0  0  0  0  0
    4.8158    1.3000   19.1120 C   0  0  0  0  0  0  0  0  0  0  0  0
    5.3911    1.2968   17.8367 C   0  0  0  0  0  0  0  0  0  0  0  0
    6.5498    0.6777   17.5606 N   0  0  0  0  0  0  0  0  0  0  0  0
    7.1729    0.0632   18.5735 C   0  0  0  0  0  0  0  0  0  0  0  0
    8.1296   -0.4106   18.3703 H   0  0  0  0  0  0  0  0  0  0  0  0
    4.9128    1.7927   16.9953 H   0  0  0  0  0  0  0  0  0  0  0  0
    3.8875    1.8325   19.2673 H   0  0  0  0  0  0  0  0  0  0  0  0
    5.0294    0.6166   21.1721 H   0  0  0  0  0  0  0  0  0  0  0  0
    6.8352   -1.0632   21.7150 H   0  0  0  0  0  0  0  0  0  0  0  0
   11.4830   -1.4863   22.4819 H   0  0  0  0  0  0  0  0  0  0  0  0
    8.0562   -3.0191   22.5298 H   0  0  0  0  0  0  0  0  0  0  0  0
    9.6349   -3.0685   23.2976 H   0  0  0  0  0  0  0  0  0  0  0  0
    9.1119   -0.7988   25.0694 C   0  0  0  0  0  0  0  0  0  0  0  0
    8.1250   -0.2735   26.1453 C   0  0  0  0  0  0  0  0  0  0  0  0
    6.7238   -0.8190   25.7615 C   0  0  0  0  0  0  0  0  0  0  0  0
    6.2640   -1.4016   26.5667 H   0  0  0  0  0  0  0  0  0  0  0  0
    6.0101   -0.0179   25.5364 H   0  0  0  0  0  0  0  0  0  0  0  0
    8.4193   -0.6053   27.1466 H   0  0  0  0  0  0  0  0  0  0  0  0
    8.1338    0.8197   26.1892 H   0  0  0  0  0  0  0  0  0  0  0  0
    9.5913    0.0096   24.5039 H   0  0  0  0  0  0  0  0  0  0  0  0
    9.9441   -1.3626   25.5062 H   0  0  0  0  0  0  0  0  0  0  0  0
    6.1845   -2.2217   24.0449 H   0  0  0  0  0  0  0  0  0  0  0  0
  1  2  2  0
  2  3  1  0
  3  4  1  0
  4  5  1  0
  5  6  2  0
  6  7  1  0
  7  8  2  0
  8  9  1  0
  9 10  1  0
 10 11  2  0
 11 12  1  0
 12 13  2  0
 13 14  1  0
 14 15  2  0
 15 16  1  0
 13 17  1  0
 12 18  1  0
 11 19  1  0
  9 20  1  0
  5 21  1  0
  3 22  1  0
  3 23  1  0
  2 24  1  0
 24 25  1  0
 25 26  1  0
 26 27  1  0
 26 28  1  0
 25 29  1  0
 25 30  1  0
 24 31  1  0
 24 32  1  0
  1 33  1  0
 26  1  1  0
  8  4  1  0
 15 10  1  0
M  END
>  <cnnaffinity>  (1) 
5.42677

>  <plip>  (1) 
-0.10714285714285714

>  <filename>  (1) 
[H][C]1=[C]([C]([H])([H])[n]2[c]([H])[n][n][c]2[N]([H])[c]2[c]([H])[n][c]([H])[c]([H])[c]2[H])[C]([H])([H])[C]([H])([H])[C]1([H])[H]

>  <combo1>  (1) 
-0.8032110265551898

$$$$
