
     RDKit          3D

 29 31  0  0  0  0  0  0  0  0999 V2000
    4.9166    1.7858   16.9927 H   0  0  0  0  0  0  0  0  0  0  0  0
    5.3991    1.2951   17.8351 C   0  0  0  0  0  0  0  0  0  0  0  0
    6.5666    0.6762   17.5726 N   0  0  0  0  0  0  0  0  0  0  0  0
    7.1696    0.0547   18.5902 C   0  0  0  0  0  0  0  0  0  0  0  0
    8.1167   -0.4376   18.3880 H   0  0  0  0  0  0  0  0  0  0  0  0
    6.6596    0.0009   19.9081 C   0  0  0  0  0  0  0  0  0  0  0  0
    7.3596   -0.7575   20.8810 N   0  0  0  0  0  0  0  0  0  0  0  0
    7.6427   -0.3501   22.0621 C   0  0  0  0  0  0  0  0  0  0  0  0
    7.5089    1.0581   22.5928 C   0  0  0  0  0  0  0  0  0  0  0  0
    7.5076    1.4042   23.8417 N   0  0  0  0  0  0  0  0  0  0  0  0
    7.3736    2.7833   23.8172 C   0  0  0  0  0  0  0  0  0  0  0  0
    7.3109    3.7237   24.8523 C   0  0  0  0  0  0  0  0  0  0  0  0
    7.3738    3.3749   25.8780 H   0  0  0  0  0  0  0  0  0  0  0  0
    7.1734    5.0694   24.5056 C   0  0  0  0  0  0  0  0  0  0  0  0
    7.1211    5.8198   25.2912 H   0  0  0  0  0  0  0  0  0  0  0  0
    7.0975    5.4708   23.1493 C   0  0  0  0  0  0  0  0  0  0  0  0
    6.9867    6.5247   22.9015 H   0  0  0  0  0  0  0  0  0  0  0  0
    7.1618    4.5375   22.1100 C   0  0  0  0  0  0  0  0  0  0  0  0
    7.0871    4.8346   21.0684 H   0  0  0  0  0  0  0  0  0  0  0  0
    7.3130    3.2093   22.4886 C   0  0  0  0  0  0  0  0  0  0  0  0
    7.4178    2.1073   21.7053 O   0  0  0  0  0  0  0  0  0  0  0  0
    8.2559   -1.3369   23.0217 C   0  0  0  0  0  0  0  0  0  0  0  0
    9.2757   -1.0249   23.2618 H   0  0  0  0  0  0  0  0  0  0  0  0
    7.7045   -1.3437   23.9648 H   0  0  0  0  0  0  0  0  0  0  0  0
    8.2723   -2.3322   22.5796 H   0  0  0  0  0  0  0  0  0  0  0  0
    5.4283    0.6202   20.1540 C   0  0  0  0  0  0  0  0  0  0  0  0
    5.0157    0.6126   21.1668 H   0  0  0  0  0  0  0  0  0  0  0  0
    4.7993    1.2955   19.0974 C   0  0  0  0  0  0  0  0  0  0  0  0
    3.8740    1.8402   19.2582 H   0  0  0  0  0  0  0  0  0  0  0  0
  1  2  1  0
  2  3  2  0
  3  4  1  0
  4  5  1  0
  4  6  2  0
  6  7  1  0
  7  8  2  3
  8  9  1  0
  9 10  2  0
 10 11  1  0
 11 12  2  0
 12 13  1  0
 12 14  1  0
 14 15  1  0
 14 16  2  0
 16 17  1  0
 16 18  1  0
 18 19  1  0
 18 20  2  0
 20 21  1  0
  8 22  1  0
 22 23  1  0
 22 24  1  0
 22 25  1  0
  6 26  1  0
 26 27  1  0
 26 28  2  0
 28 29  1  0
 28  2  1  0
 21  9  1  0
 20 11  1  0
M  END
>  <cnnaffinity>  (1) 
4.75469

>  <plip>  (1) 
-0.03571428571428571

>  <filename>  (1) 
[H][c]1[n][c]([H])[c]([N]=[C]([c]2[n][c]3[c]([H])[c]([H])[c]([H])[c]([H])[c]3[o]2)[C]([H])([H])[H])[c]([H])[c]1[H]

>  <combo1>  (1) 
-0.23856939746336273

$$$$
