
     RDKit          3D

 38 40  0  0  0  0  0  0  0  0999 V2000
    5.4030   -6.0252   25.3165 Br  0  0  0  0  0  0  0  0  0  0  0  0
    7.2871   -5.6860   25.4237 C   0  0  0  0  0  0  0  0  0  0  0  0
    7.9544   -5.8735   26.6460 C   0  0  0  0  0  0  0  0  0  0  0  0
    9.3370   -5.6816   26.7376 C   0  0  0  0  0  0  0  0  0  0  0  0
   10.0746   -5.3331   25.6070 C   0  0  0  0  0  0  0  0  0  0  0  0
    9.3988   -5.1030   24.4057 C   0  0  0  0  0  0  0  0  0  0  0  0
    8.0139   -5.2471   24.3053 C   0  0  0  0  0  0  0  0  0  0  0  0
    7.3394   -4.8079   23.0338 C   0  0  0  0  0  0  0  0  0  0  0  0
    7.0110   -3.3135   23.1579 C   0  0  0  0  0  0  0  0  0  0  0  0
    8.2802   -2.4535   23.2323 C   0  0  0  0  0  0  0  0  0  0  0  0
    7.8897   -1.0379   23.2676 N   0  0  0  0  0  0  0  0  0  0  0  0
    7.7625   -0.2400   24.3820 C   0  0  0  0  0  0  0  0  0  0  0  0
    7.1960    0.8942   24.0653 N   0  0  0  0  0  0  0  0  0  0  0  0
    6.9353    0.8544   22.7159 N   0  0  0  0  0  0  0  0  0  0  0  0
    7.3521   -0.2925   22.2489 C   0  0  0  0  0  0  0  0  0  0  0  0
    7.3456   -0.7235   20.9239 N   0  0  0  0  0  0  0  0  0  0  0  0
    6.7026   -0.0331   19.8724 C   0  0  0  0  0  0  0  0  0  0  0  0
    5.5229    0.6580   20.1352 C   0  0  0  0  0  0  0  0  0  0  0  0
    4.8785    1.3249   19.0876 C   0  0  0  0  0  0  0  0  0  0  0  0
    5.4268    1.3049   17.8002 C   0  0  0  0  0  0  0  0  0  0  0  0
    6.5595    0.6344   17.5190 N   0  0  0  0  0  0  0  0  0  0  0  0
    7.1731   -0.0178   18.5336 C   0  0  0  0  0  0  0  0  0  0  0  0
    8.0919   -0.5462   18.3068 H   0  0  0  0  0  0  0  0  0  0  0  0
    4.9185    1.8408   17.0038 H   0  0  0  0  0  0  0  0  0  0  0  0
    3.9567    1.8658   19.2615 H   0  0  0  0  0  0  0  0  0  0  0  0
    5.1218    0.6542   21.1447 H   0  0  0  0  0  0  0  0  0  0  0  0
    7.9680   -1.4950   20.7127 H   0  0  0  0  0  0  0  0  0  0  0  0
    8.0809   -0.5087   25.3833 H   0  0  0  0  0  0  0  0  0  0  0  0
    8.8506   -2.7141   24.1332 H   0  0  0  0  0  0  0  0  0  0  0  0
    8.9238   -2.6456   22.3654 H   0  0  0  0  0  0  0  0  0  0  0  0
    6.4072   -3.1516   24.0568 H   0  0  0  0  0  0  0  0  0  0  0  0
    6.4129   -2.9992   22.3004 H   0  0  0  0  0  0  0  0  0  0  0  0
    6.4219   -5.3881   22.8802 H   0  0  0  0  0  0  0  0  0  0  0  0
    7.9973   -4.9799   22.1759 H   0  0  0  0  0  0  0  0  0  0  0  0
    9.9415   -4.7608   23.5439 H   0  0  0  0  0  0  0  0  0  0  0  0
   11.1486   -5.1983   25.6724 H   0  0  0  0  0  0  0  0  0  0  0  0
    9.8379   -5.7707   27.6945 H   0  0  0  0  0  0  0  0  0  0  0  0
    7.3888   -6.1571   27.5267 H   0  0  0  0  0  0  0  0  0  0  0  0
  1  2  1  0
  2  3  2  0
  3  4  1  0
  4  5  2  0
  5  6  1  0
  6  7  2  0
  7  8  1  0
  8  9  1  0
  9 10  1  0
 10 11  1  0
 11 12  1  0
 12 13  2  0
 13 14  1  0
 14 15  2  0
 15 16  1  0
 16 17  1  0
 17 18  2  0
 18 19  1  0
 19 20  2  0
 20 21  1  0
 21 22  2  0
 22 23  1  0
 20 24  1  0
 19 25  1  0
 18 26  1  0
 16 27  1  0
 12 28  1  0
 10 29  1  0
 10 30  1  0
  9 31  1  0
  9 32  1  0
  8 33  1  0
  8 34  1  0
  6 35  1  0
  5 36  1  0
  4 37  1  0
  3 38  1  0
  7  2  1  0
 15 11  1  0
 22 17  1  0
M  END
>  <cnnaffinity>  (1) 
5.60464

>  <plip>  (1) 
-0.07142857142857142

>  <filename>  (1) 
[H][c]1[n][c]([H])[c]([N]([H])[c]2[n][n][c]([H])[n]2[C]([H])([H])[C]([H])([H])[C]([H])([H])[c]2[c]([H])[c]([H])[c]([H])[c]([H])[c]2[Br])[c]([H])[c]1[H]

>  <combo1>  (1) 
-0.3724952323529269

$$$$
