
     RDKit          3D

 20 21  0  0  0  0  0  0  0  0999 V2000
    4.9276    1.7833   17.0059 H   0  0  0  0  0  0  0  0  0  0  0  0
    5.4105    1.2839   17.8478 C   0  0  0  0  0  0  0  0  0  0  0  0
    6.5723    0.6660   17.5856 N   0  0  0  0  0  0  0  0  0  0  0  0
    7.1971    0.0450   18.5954 C   0  0  0  0  0  0  0  0  0  0  0  0
    8.1383   -0.4278   18.3439 H   0  0  0  0  0  0  0  0  0  0  0  0
    6.7037   -0.0208   19.9146 C   0  0  0  0  0  0  0  0  0  0  0  0
    7.3250   -0.6889   21.0225 N   0  0  0  0  0  0  0  0  0  0  0  0
    8.4206   -1.2644   20.8089 N   0  0  0  0  0  0  0  0  0  0  0  0
    9.0024   -1.8916   21.8926 N   0  0  0  0  0  0  0  0  0  0  0  0
   10.1842   -2.5054   21.7218 N   0  0  0  0  0  0  0  0  0  0  0  0
   10.4782   -3.0059   22.9052 C   0  0  0  0  0  0  0  0  0  0  0  0
   11.3858   -3.5745   23.0532 H   0  0  0  0  0  0  0  0  0  0  0  0
    9.4776   -2.7153   23.8640 C   0  0  0  0  0  0  0  0  0  0  0  0
    9.4763   -3.0036   24.9033 H   0  0  0  0  0  0  0  0  0  0  0  0
    8.5404   -1.9900   23.1838 C   0  0  0  0  0  0  0  0  0  0  0  0
    7.6049   -1.5080   23.4267 H   0  0  0  0  0  0  0  0  0  0  0  0
    5.4830    0.6231   20.1718 C   0  0  0  0  0  0  0  0  0  0  0  0
    5.0586    0.6032   21.1777 H   0  0  0  0  0  0  0  0  0  0  0  0
    4.8350    1.2866   19.1243 C   0  0  0  0  0  0  0  0  0  0  0  0
    3.9035    1.8177   19.2741 H   0  0  0  0  0  0  0  0  0  0  0  0
  1  2  1  0
  2  3  2  0
  3  4  1  0
  4  5  1  0
  4  6  2  0
  6  7  1  0
  7  8  2  3
  8  9  1  0
  9 10  1  0
 10 11  2  0
 11 12  1  0
 11 13  1  0
 13 14  1  0
 13 15  2  0
 15 16  1  0
  6 17  1  0
 17 18  1  0
 17 19  2  0
 19 20  1  0
 19  2  1  0
 15  9  1  0
M  END
>  <cnnaffinity>  (1) 
4.29865

>  <plip>  (1) 
-0.03571428571428571

>  <filename>  (1) 
[H][c]1[n][c]([H])[c]([N]=[N][n]2[n][c]([H])[c]([H])[c]2[H])[c]([H])[c]1[H]

>  <combo1>  (1) 
-0.2955000592560574

$$$$
