
     RDKit          3D

 29 29  0  0  0  0  0  0  0  0999 V2000
   12.9884   -0.2507   23.8736 H   0  0  0  0  0  0  0  0  0  0  0  0
   12.8856    0.1276   24.7576 O   0  0  0  0  0  0  0  0  0  0  0  0
   11.5415    0.5545   24.9215 C   0  0  0  0  0  0  0  0  0  0  0  0
   11.4085    0.7174   25.9910 H   0  0  0  0  0  0  0  0  0  0  0  0
   11.3575    1.5128   24.4045 H   0  0  0  0  0  0  0  0  0  0  0  0
   10.4616   -0.4534   24.4916 C   0  0  0  0  0  0  0  0  0  0  0  0
   10.5559   -1.3529   25.1167 H   0  0  0  0  0  0  0  0  0  0  0  0
   10.6461   -0.7784   23.4442 H   0  0  0  0  0  0  0  0  0  0  0  0
    9.1564    0.1564   24.7204 N   0  0  0  0  0  0  0  0  0  0  0  0
    8.9639    0.9189   24.0759 H   0  0  0  0  0  0  0  0  0  0  0  0
    7.9802   -0.6614   24.7513 C   0  0  0  0  0  0  0  0  0  0  0  0
    8.1183   -1.5094   25.4343 H   0  0  0  0  0  0  0  0  0  0  0  0
    7.1456   -0.0529   25.1248 H   0  0  0  0  0  0  0  0  0  0  0  0
    7.6278   -1.1526   23.4314 N   0  0  0  0  0  0  0  0  0  0  0  0
    8.2528   -1.8738   23.1025 H   0  0  0  0  0  0  0  0  0  0  0  0
    7.3973   -0.2035   22.4664 C   0  0  0  0  0  0  0  0  0  0  0  0
    7.2000    0.9730   22.7450 O   0  0  0  0  0  0  0  0  0  0  0  0
    7.4254   -0.7269   20.9560 C   0  0  0  0  0  0  0  0  0  0  0  0
    8.0987   -1.7035   20.6621 O   0  0  0  0  0  0  0  0  0  0  0  0
    6.6574    0.0105   19.9119 C   0  0  0  0  0  0  0  0  0  0  0  0
    7.1585   -0.0010   18.5974 C   0  0  0  0  0  0  0  0  0  0  0  0
    8.0783   -0.5417   18.3785 H   0  0  0  0  0  0  0  0  0  0  0  0
    6.5668    0.6257   17.5789 N   0  0  0  0  0  0  0  0  0  0  0  0
    5.4213    1.2787   17.8342 C   0  0  0  0  0  0  0  0  0  0  0  0
    4.9714    1.7978   16.9876 H   0  0  0  0  0  0  0  0  0  0  0  0
    4.8236    1.3202   19.0967 C   0  0  0  0  0  0  0  0  0  0  0  0
    3.8887    1.8531   19.2234 H   0  0  0  0  0  0  0  0  0  0  0  0
    5.4593    0.6932   20.1693 C   0  0  0  0  0  0  0  0  0  0  0  0
    5.0349    0.7345   21.1743 H   0  0  0  0  0  0  0  0  0  0  0  0
  1  2  1  0
  2  3  1  0
  3  4  1  0
  3  5  1  0
  3  6  1  0
  6  7  1  0
  6  8  1  0
  6  9  1  0
  9 10  1  0
  9 11  1  0
 11 12  1  0
 11 13  1  0
 11 14  1  0
 14 15  1  0
 14 16  1  0
 16 17  2  0
 16 18  1  0
 18 19  2  0
 18 20  1  0
 20 21  2  0
 21 22  1  0
 21 23  1  0
 23 24  2  0
 24 25  1  0
 24 26  1  0
 26 27  1  0
 26 28  2  0
 28 29  1  0
 28 20  1  0
M  END
>  <cnnaffinity>  (1) 
3.91873

>  <plip>  (1) 
-0.034482758620689655

>  <filename>  (1) 
[H][O][C]([H])([H])[C]([H])([H])[N]([H])[C]([H])([H])[N]([H])[C](=[O])[C](=[O])[c]1[c]([H])[n][c]([H])[c]([H])[c]1[H]

>  <combo1>  (1) 
-0.201776060615048

$$$$
