
     RDKit          3D

 34 36  0  0  0  0  0  0  0  0999 V2000
    8.0902    0.3420   21.8565 C   0  0  0  0  0  0  0  0  0  0  0  0
    7.5405   -0.7514   20.9147 C   0  0  0  0  0  0  0  0  0  0  0  0
    6.8067   -1.8621   21.7171 C   0  0  0  0  0  0  0  0  0  0  0  0
    6.4678   -1.7039   22.8723 O   0  0  0  0  0  0  0  0  0  0  0  0
    6.6087   -3.0516   21.0467 N   0  0  0  0  0  0  0  0  0  0  0  0
    6.1574   -4.2640   21.6109 C   0  0  0  0  0  0  0  0  0  0  0  0
    5.7797   -5.3153   20.7311 C   0  0  0  0  0  0  0  0  0  0  0  0
    5.2282   -6.5072   21.2107 C   0  0  0  0  0  0  0  0  0  0  0  0
    5.0642   -6.6685   22.6068 C   0  0  0  0  0  0  0  0  0  0  0  0
    4.4973   -7.6787   23.3841 N   0  0  0  0  0  0  0  0  0  0  0  0
    4.6050   -7.2632   24.6126 C   0  0  0  0  0  0  0  0  0  0  0  0
    5.2260   -6.0452   24.7229 N   0  0  0  0  0  0  0  0  0  0  0  0
    5.5151   -5.6344   23.4456 C   0  0  0  0  0  0  0  0  0  0  0  0
    6.0878   -4.4469   22.9925 C   0  0  0  0  0  0  0  0  0  0  0  0
    6.4151   -3.6847   23.6803 H   0  0  0  0  0  0  0  0  0  0  0  0
    5.4401   -5.5190   25.5526 H   0  0  0  0  0  0  0  0  0  0  0  0
    4.1864   -7.7815   25.4677 H   0  0  0  0  0  0  0  0  0  0  0  0
    4.8878   -7.2917   20.5362 H   0  0  0  0  0  0  0  0  0  0  0  0
    5.9469   -5.2008   19.6651 H   0  0  0  0  0  0  0  0  0  0  0  0
    6.6249   -3.0067   20.0432 H   0  0  0  0  0  0  0  0  0  0  0  0
    6.7073   -0.1238   19.7947 C   0  0  0  0  0  0  0  0  0  0  0  0
    5.4729    0.4796   20.0739 C   0  0  0  0  0  0  0  0  0  0  0  0
    4.8359    1.2055   19.0626 C   0  0  0  0  0  0  0  0  0  0  0  0
    5.4447    1.2885   17.8042 C   0  0  0  0  0  0  0  0  0  0  0  0
    6.6049    0.6859   17.4995 N   0  0  0  0  0  0  0  0  0  0  0  0
    7.2103    0.0086   18.4838 C   0  0  0  0  0  0  0  0  0  0  0  0
    8.1531   -0.4751   18.2253 H   0  0  0  0  0  0  0  0  0  0  0  0
    4.9775    1.8542   16.9997 H   0  0  0  0  0  0  0  0  0  0  0  0
    3.8961    1.7180   19.2414 H   0  0  0  0  0  0  0  0  0  0  0  0
    5.0363    0.3890   21.0730 H   0  0  0  0  0  0  0  0  0  0  0  0
    8.4033   -1.2471   20.4523 H   0  0  0  0  0  0  0  0  0  0  0  0
    8.7242   -0.0925   22.6349 H   0  0  0  0  0  0  0  0  0  0  0  0
    8.6736    1.0770   21.2956 H   0  0  0  0  0  0  0  0  0  0  0  0
    7.2793    0.8784   22.3611 H   0  0  0  0  0  0  0  0  0  0  0  0
  1  2  1  0
  2  3  1  0
  3  4  2  0
  3  5  1  0
  5  6  1  0
  6  7  2  0
  7  8  1  0
  8  9  2  0
  9 10  1  0
 10 11  2  0
 11 12  1  0
 12 13  1  0
 13 14  2  0
 14 15  1  0
 12 16  1  0
 11 17  1  0
  8 18  1  0
  7 19  1  0
  5 20  1  0
  2 21  1  0
 21 22  2  0
 22 23  1  0
 23 24  2  0
 24 25  1  0
 25 26  2  0
 26 27  1  0
 24 28  1  0
 23 29  1  0
 22 30  1  0
  2 31  1  0
  1 32  1  0
  1 33  1  0
  1 34  1  0
 14  6  1  0
 26 21  1  0
 13  9  1  0
M  END
>  <cnnaffinity>  (1) 
4.77089

>  <plip>  (1) 
-0.03333333333333333

>  <filename>  (1) 
[H][c]1[n][c]([H])[c]([C]([H])([C](=[O])[N]([H])[c]2[c]([H])[c]([H])[c]3[n][c]([H])[n]([H])[c]3[c]2[H])[C]([H])([H])[H])[c]([H])[c]1[H]

>  <combo1>  (1) 
-0.19905780194397726

$$$$
