
     RDKit          3D

 34 35  0  0  0  0  0  0  0  0999 V2000
   12.4463   -1.8927   20.7140 O   0  0  0  0  0  0  0  0  0  0  0  0
   12.1911   -1.1202   21.8654 C   0  0  0  0  0  0  0  0  0  0  0  0
   10.7099   -0.9573   22.2013 C   0  0  0  0  0  0  0  0  0  0  0  0
    9.8927   -0.3881   21.0366 C   0  0  0  0  0  0  0  0  0  0  0  0
    8.5680    0.0635   21.4354 N   0  0  0  0  0  0  0  0  0  0  0  0
    7.3636   -0.6743   21.0363 C   0  0  0  0  0  0  0  0  0  0  0  0
    6.6076    0.0074   19.9164 C   0  0  0  0  0  0  0  0  0  0  0  0
    5.3818    0.6567   20.1250 C   0  0  0  0  0  0  0  0  0  0  0  0
    4.7722    1.3127   19.0551 C   0  0  0  0  0  0  0  0  0  0  0  0
    5.4077    1.2979   17.8117 C   0  0  0  0  0  0  0  0  0  0  0  0
    6.5758    0.6780   17.5887 N   0  0  0  0  0  0  0  0  0  0  0  0
    7.1561    0.0644   18.6272 C   0  0  0  0  0  0  0  0  0  0  0  0
    8.1081   -0.4229   18.4045 H   0  0  0  0  0  0  0  0  0  0  0  0
    4.9622    1.8080   16.9591 H   0  0  0  0  0  0  0  0  0  0  0  0
    3.8381    1.8492   19.1752 H   0  0  0  0  0  0  0  0  0  0  0  0
    4.9397    0.6823   21.1233 H   0  0  0  0  0  0  0  0  0  0  0  0
    6.7128   -0.7902   21.9113 H   0  0  0  0  0  0  0  0  0  0  0  0
    7.6720   -1.6869   20.7421 H   0  0  0  0  0  0  0  0  0  0  0  0
    8.4412    1.2539   22.1262 C   0  0  0  0  0  0  0  0  0  0  0  0
    9.5160    2.2002   22.3203 C   0  0  0  0  0  0  0  0  0  0  0  0
    9.3869    3.3417   23.0248 N   0  0  0  0  0  0  0  0  0  0  0  0
    8.1843    3.5624   23.5296 C   0  0  0  0  0  0  0  0  0  0  0  0
    8.0148    4.6779   24.2405 F   0  0  0  0  0  0  0  0  0  0  0  0
    7.1087    2.6718   23.3575 C   0  0  0  0  0  0  0  0  0  0  0  0
    7.2311    1.5238   22.6738 N   0  0  0  0  0  0  0  0  0  0  0  0
    6.1403    2.8977   23.7868 H   0  0  0  0  0  0  0  0  0  0  0  0
   10.4975    2.0088   21.9083 H   0  0  0  0  0  0  0  0  0  0  0  0
   10.4115    0.4782   20.6218 H   0  0  0  0  0  0  0  0  0  0  0  0
    9.7943   -1.1156   20.2202 H   0  0  0  0  0  0  0  0  0  0  0  0
   10.6468   -0.2621   23.0478 H   0  0  0  0  0  0  0  0  0  0  0  0
   10.2616   -1.9019   22.5320 H   0  0  0  0  0  0  0  0  0  0  0  0
   12.7018   -1.6340   22.6820 H   0  0  0  0  0  0  0  0  0  0  0  0
   12.6426   -0.1144   21.7776 H   0  0  0  0  0  0  0  0  0  0  0  0
   11.8143   -1.6337   20.0282 H   0  0  0  0  0  0  0  0  0  0  0  0
  1  2  1  0
  2  3  1  0
  3  4  1  0
  4  5  1  0
  5  6  1  0
  6  7  1  0
  7  8  2  0
  8  9  1  0
  9 10  2  0
 10 11  1  0
 11 12  2  0
 12 13  1  0
 10 14  1  0
  9 15  1  0
  8 16  1  0
  6 17  1  0
  6 18  1  0
  5 19  1  0
 19 20  2  0
 20 21  1  0
 21 22  2  0
 22 23  1  0
 22 24  1  0
 24 25  2  0
 24 26  1  0
 20 27  1  0
  4 28  1  0
  4 29  1  0
  3 30  1  0
  3 31  1  0
  2 32  1  0
  2 33  1  0
  1 34  1  0
 12  7  1  0
 25 19  1  0
M  END
>  <cnnaffinity>  (1) 
5.05204

>  <plip>  (1) 
-0.0

>  <filename>  (1) 
[H][O][C]([H])([H])[C]([H])([H])[C]([H])([H])[N]([c]1[n][c]([H])[c]([F])[n][c]1[H])[C]([H])([H])[c]1[c]([H])[n][c]([H])[c]([H])[c]1[H]

>  <combo1>  (1) 
-6.42047418613636e-06

$$$$
