
     RDKit          3D

 35 36  0  0  0  0  0  0  0  0999 V2000
    9.2594   -2.1545   25.3039 O   0  0  0  0  0  0  0  0  0  0  0  0
    8.9721   -1.0195   24.9583 C   0  0  0  0  0  0  0  0  0  0  0  0
    9.4879    0.1780   25.7500 C   0  0  0  0  0  0  0  0  0  0  0  0
   10.5699    0.9326   25.0094 C   0  0  0  0  0  0  0  0  0  0  0  0
   11.8890    0.4577   24.9963 C   0  0  0  0  0  0  0  0  0  0  0  0
   12.8983    1.1841   24.3438 C   0  0  0  0  0  0  0  0  0  0  0  0
   12.5797    2.3781   23.6747 C   0  0  0  0  0  0  0  0  0  0  0  0
   13.9204    3.4124   22.7789 Br  0  0  0  0  0  0  0  0  0  0  0  0
   11.2638    2.8570   23.6883 C   0  0  0  0  0  0  0  0  0  0  0  0
   10.8649    4.3666   22.8917 Cl  0  0  0  0  0  0  0  0  0  0  0  0
   10.2679    2.1345   24.3540 C   0  0  0  0  0  0  0  0  0  0  0  0
    9.2541    2.5224   24.3618 H   0  0  0  0  0  0  0  0  0  0  0  0
   13.9290    0.8401   24.3696 H   0  0  0  0  0  0  0  0  0  0  0  0
   12.1197   -0.4683   25.5152 H   0  0  0  0  0  0  0  0  0  0  0  0
    9.8748   -0.1816   26.7080 H   0  0  0  0  0  0  0  0  0  0  0  0
    8.6444    0.8407   25.9588 H   0  0  0  0  0  0  0  0  0  0  0  0
    8.1058   -0.8343   23.8864 N   0  0  0  0  0  0  0  0  0  0  0  0
    7.5460   -1.9364   23.0523 C   0  0  0  0  0  0  0  0  0  0  0  0
    6.8272   -1.5425   21.7293 C   0  0  0  0  0  0  0  0  0  0  0  0
    5.7214   -2.0082   21.4734 O   0  0  0  0  0  0  0  0  0  0  0  0
    7.4560   -0.7387   20.7812 N   0  0  0  0  0  0  0  0  0  0  0  0
    6.7710   -0.0754   19.7364 C   0  0  0  0  0  0  0  0  0  0  0  0
    5.5075    0.4615   19.9989 C   0  0  0  0  0  0  0  0  0  0  0  0
    4.8601    1.1816   18.9903 C   0  0  0  0  0  0  0  0  0  0  0  0
    5.4677    1.3142   17.7347 C   0  0  0  0  0  0  0  0  0  0  0  0
    6.6662    0.7643   17.4447 N   0  0  0  0  0  0  0  0  0  0  0  0
    7.3052    0.0990   18.4334 C   0  0  0  0  0  0  0  0  0  0  0  0
    8.2795   -0.3367   18.2245 H   0  0  0  0  0  0  0  0  0  0  0  0
    4.9511    1.8897   16.9743 H   0  0  0  0  0  0  0  0  0  0  0  0
    3.8995    1.6571   19.1715 H   0  0  0  0  0  0  0  0  0  0  0  0
    5.0640    0.3339   20.9849 H   0  0  0  0  0  0  0  0  0  0  0  0
    8.3686   -0.3863   21.0530 H   0  0  0  0  0  0  0  0  0  0  0  0
    6.8202   -2.4937   23.6549 H   0  0  0  0  0  0  0  0  0  0  0  0
    8.3612   -2.6218   22.7838 H   0  0  0  0  0  0  0  0  0  0  0  0
    7.7560    0.1109   23.7535 H   0  0  0  0  0  0  0  0  0  0  0  0
  1  2  2  0
  2  3  1  0
  3  4  1  0
  4  5  2  0
  5  6  1  0
  6  7  2  0
  7  8  1  0
  7  9  1  0
  9 10  1  0
  9 11  2  0
 11 12  1  0
  6 13  1  0
  5 14  1  0
  3 15  1  0
  3 16  1  0
  2 17  1  0
 17 18  1  0
 18 19  1  0
 19 20  2  0
 19 21  1  0
 21 22  1  0
 22 23  2  0
 23 24  1  0
 24 25  2  0
 25 26  1  0
 26 27  2  0
 27 28  1  0
 25 29  1  0
 24 30  1  0
 23 31  1  0
 21 32  1  0
 18 33  1  0
 18 34  1  0
 17 35  1  0
 11  4  1  0
 27 22  1  0
M  END
>  <cnnaffinity>  (1) 
5.29239

>  <plip>  (1) 
-0.06666666666666667

>  <filename>  (1) 
[H][c]1[n][c]([H])[c]([N]([H])[C](=[O])[C]([H])([H])[N]([H])[C](=[O])[C]([H])([H])[c]2[c]([H])[c]([H])[c]([Br])[c]([Cl])[c]2[H])[c]([H])[c]1[H]

>  <combo1>  (1) 
-0.3073571238789652

$$$$
