
     RDKit          3D

 30 32  0  0  0  0  0  0  0  0999 V2000
    4.9301    1.8014   16.9834 H   0  0  0  0  0  0  0  0  0  0  0  0
    5.3943    1.3023   17.8335 C   0  0  0  0  0  0  0  0  0  0  0  0
    6.5579    0.6817   17.5824 N   0  0  0  0  0  0  0  0  0  0  0  0
    7.1549    0.0540   18.5993 C   0  0  0  0  0  0  0  0  0  0  0  0
    8.0995   -0.4374   18.3701 H   0  0  0  0  0  0  0  0  0  0  0  0
    6.6389    0.0309   19.9016 C   0  0  0  0  0  0  0  0  0  0  0  0
    7.3509   -0.7248   20.9255 C   0  0  0  0  0  0  0  0  0  0  0  0
    7.7677   -1.9431   20.7542 N   0  0  0  0  0  0  0  0  0  0  0  0
    8.2858   -2.2751   21.9649 N   0  0  0  0  0  0  0  0  0  0  0  0
    8.6719   -3.1844   22.1818 H   0  0  0  0  0  0  0  0  0  0  0  0
    8.2264   -1.2990   22.8814 C   0  0  0  0  0  0  0  0  0  0  0  0
    8.8138   -1.4149   24.4345 S   0  0  0  0  0  0  0  0  0  0  0  0
    7.6216   -0.2760   22.1979 N   0  0  0  0  0  0  0  0  0  0  0  0
    7.4818    1.0919   22.6744 C   0  0  1  0  0  0  0  0  0  0  0  0
    7.0788    1.6679   21.8355 H   0  0  0  0  0  0  0  0  0  0  0  0
    6.5537    1.0823   23.7787 N   0  0  0  0  0  0  0  0  0  0  0  0
    6.6124    0.1490   24.1744 H   0  0  0  0  0  0  0  0  0  0  0  0
    6.9865    2.1005   24.7391 C   0  0  0  0  0  0  0  0  0  0  0  0
    6.6253    1.8429   25.7409 H   0  0  0  0  0  0  0  0  0  0  0  0
    6.5342    3.0738   24.4896 H   0  0  0  0  0  0  0  0  0  0  0  0
    8.5269    2.1680   24.6273 C   0  0  0  0  0  0  0  0  0  0  0  0
    8.9838    1.4624   25.3306 H   0  0  0  0  0  0  0  0  0  0  0  0
    8.9273    3.1586   24.8684 H   0  0  0  0  0  0  0  0  0  0  0  0
    8.8036    1.7435   23.1662 C   0  0  0  0  0  0  0  0  0  0  0  0
    9.6474    1.0468   23.0856 H   0  0  0  0  0  0  0  0  0  0  0  0
    9.0188    2.5950   22.5133 H   0  0  0  0  0  0  0  0  0  0  0  0
    5.4246    0.6785   20.1547 C   0  0  0  0  0  0  0  0  0  0  0  0
    5.0187    0.6614   21.1701 H   0  0  0  0  0  0  0  0  0  0  0  0
    4.7858    1.3220   19.0944 C   0  0  0  0  0  0  0  0  0  0  0  0
    3.8541    1.8551   19.2346 H   0  0  0  0  0  0  0  0  0  0  0  0
  1  2  1  0
  2  3  2  0
  3  4  1  0
  4  5  1  0
  4  6  2  0
  6  7  1  0
  7  8  2  0
  8  9  1  0
  9 10  1  0
  9 11  1  0
 11 12  2  0
 11 13  1  0
 13 14  1  0
 14 15  1  6
 14 16  1  0
 16 17  1  0
 16 18  1  0
 18 19  1  0
 18 20  1  0
 18 21  1  0
 21 22  1  0
 21 23  1  0
 21 24  1  0
 24 25  1  0
 24 26  1  0
  6 27  1  0
 27 28  1  0
 27 29  2  0
 29 30  1  0
 29  2  1  0
 13  7  1  0
 24 14  1  0
M  END
>  <cnnaffinity>  (1) 
4.69646

>  <plip>  (1) 
-0.034482758620689655

>  <filename>  (1) 
[H][c]1[n][c]([H])[c](-[c]2[n][n]([H])[c](=[S])[n]2[C@@]2([H])[N]([H])[C]([H])([H])[C]([H])([H])[C]2([H])[H])[c]([H])[c]1[H]

>  <combo1>  (1) 
-0.21826286192196845

$$$$
