
     RDKit          3D

 47 51  0  0  0  0  0  0  0  0999 V2000
    4.9970    1.8268   17.0177 H   0  0  0  0  0  0  0  0  0  0  0  0
    5.4739    1.2966   17.8386 C   0  0  0  0  0  0  0  0  0  0  0  0
    6.6375    0.6862   17.5649 N   0  0  0  0  0  0  0  0  0  0  0  0
    7.2470    0.0406   18.5725 C   0  0  0  0  0  0  0  0  0  0  0  0
    8.1805   -0.4548   18.3185 H   0  0  0  0  0  0  0  0  0  0  0  0
    6.7549   -0.0494   19.9061 C   0  0  0  0  0  0  0  0  0  0  0  0
    7.4154   -0.7960   20.8953 N   0  0  0  0  0  0  0  0  0  0  0  0
    6.9512   -0.8436   22.2862 C   0  0  1  0  0  0  0  0  0  0  0  0
    5.8788   -1.0370   22.3021 H   0  0  0  0  0  0  0  0  0  0  0  0
    7.7329   -2.0497   22.8388 C   0  0  0  0  0  0  0  0  0  0  0  0
    7.9232   -1.9522   23.9119 H   0  0  0  0  0  0  0  0  0  0  0  0
    7.1441   -2.9593   22.6940 H   0  0  0  0  0  0  0  0  0  0  0  0
    9.0185   -2.0893   21.9745 C   0  0  0  0  0  0  0  0  0  0  0  0
    9.9355   -2.0452   22.5677 H   0  0  0  0  0  0  0  0  0  0  0  0
    9.0453   -3.0050   21.3790 H   0  0  0  0  0  0  0  0  0  0  0  0
    8.8795   -0.8827   21.0221 C   0  0  2  0  0  0  0  0  0  0  0  0
    9.3485   -1.0872   20.0505 H   0  0  0  0  0  0  0  0  0  0  0  0
    9.4315    0.4440   21.5940 C   0  0  0  0  0  0  0  0  0  0  0  0
    9.2655    1.2169   20.8335 H   0  0  0  0  0  0  0  0  0  0  0  0
   10.5177    0.3575   21.7176 H   0  0  0  0  0  0  0  0  0  0  0  0
    8.7675    0.9086   22.9189 C   0  0  2  0  0  0  0  0  0  0  0  0
    8.7934    2.0032   22.9202 H   0  0  0  0  0  0  0  0  0  0  0  0
    9.5900    0.5309   24.1660 C   0  0  0  0  0  0  0  0  0  0  0  0
    9.5923   -0.5436   24.3720 H   0  0  0  0  0  0  0  0  0  0  0  0
   10.6312    0.8407   24.0223 H   0  0  0  0  0  0  0  0  0  0  0  0
    9.0873    1.2206   25.3478 N   0  0  0  0  0  0  0  0  0  0  0  0
    9.0434    2.6093   25.4670 C   0  0  0  0  0  0  0  0  0  0  0  0
    9.6132    3.3877   24.7372 O   0  0  0  0  0  0  0  0  0  0  0  0
    8.2482    2.9113   26.6885 C   0  0  0  0  0  0  0  0  0  0  0  0
    7.8844    4.1291   27.2704 C   0  0  0  0  0  0  0  0  0  0  0  0
    8.0680    5.0700   26.7566 H   0  0  0  0  0  0  0  0  0  0  0  0
    7.2862    4.0873   28.5360 C   0  0  0  0  0  0  0  0  0  0  0  0
    7.0071    5.0169   29.0280 H   0  0  0  0  0  0  0  0  0  0  0  0
    7.0494    2.8541   29.1850 C   0  0  0  0  0  0  0  0  0  0  0  0
    6.6195    2.8416   30.1844 H   0  0  0  0  0  0  0  0  0  0  0  0
    7.3564    1.6385   28.5591 C   0  0  0  0  0  0  0  0  0  0  0  0
    7.1660    0.6787   29.0357 H   0  0  0  0  0  0  0  0  0  0  0  0
    7.9617    1.6959   27.3048 C   0  0  0  0  0  0  0  0  0  0  0  0
    8.4261    0.6045   26.3995 C   0  0  0  0  0  0  0  0  0  0  0  0
    8.2349   -0.5885   26.4893 O   0  0  0  0  0  0  0  0  0  0  0  0
    7.2751    0.4820   23.0134 C   0  0  0  0  0  0  0  0  0  0  0  0
    6.9520    0.3981   24.0588 H   0  0  0  0  0  0  0  0  0  0  0  0
    6.6642    1.2721   22.5612 H   0  0  0  0  0  0  0  0  0  0  0  0
    5.5160    0.5875   20.1457 C   0  0  0  0  0  0  0  0  0  0  0  0
    5.0756    0.5560   21.1404 H   0  0  0  0  0  0  0  0  0  0  0  0
    4.8755    1.2653   19.1034 C   0  0  0  0  0  0  0  0  0  0  0  0
    3.9330    1.7791   19.2732 H   0  0  0  0  0  0  0  0  0  0  0  0
  1  2  1  0
  2  3  2  0
  3  4  1  0
  4  5  1  0
  4  6  2  0
  6  7  1  0
  7  8  1  0
  8  9  1  6
  8 10  1  0
 10 11  1  0
 10 12  1  0
 10 13  1  0
 13 14  1  0
 13 15  1  0
 13 16  1  0
 16 17  1  6
 16 18  1  0
 18 19  1  0
 18 20  1  0
 18 21  1  0
 21 22  1  6
 21 23  1  0
 23 24  1  0
 23 25  1  0
 23 26  1  0
 26 27  1  0
 27 28  2  0
 27 29  1  0
 29 30  2  0
 30 31  1  0
 30 32  1  0
 32 33  1  0
 32 34  2  0
 34 35  1  0
 34 36  1  0
 36 37  1  0
 36 38  2  0
 38 39  1  0
 39 40  2  0
 21 41  1  0
 41 42  1  0
 41 43  1  0
  6 44  1  0
 44 45  1  0
 44 46  2  0
 46 47  1  0
 46  2  1  0
 16  7  1  0
 39 26  1  0
 41  8  1  0
 38 29  1  0
M  END
>  <cnnaffinity>  (1) 
5.60208

>  <plip>  (1) 
-0.07142857142857142

>  <filename>  (1) 
[H][c]1[n][c]([H])[c]([N]2[C@@]3([H])[C]([H])([H])[C]([H])([H])[C@]2([H])[C]([H])([H])[C@]([H])([C]([H])([H])[N]2[C](=[O])[c]4[c]([H])[c]([H])[c]([H])[c]([H])[c]4[C]2=[O])[C]3([H])[H])[c]([H])[c]1[H]

>  <combo1>  (1) 
-0.38392615564782795

$$$$
