
     RDKit          3D

 37 39  0  0  0  0  0  0  0  0999 V2000
    6.5307    4.0460   23.6219 C   0  0  0  0  0  0  0  0  0  0  0  0
    6.5810    2.6286   23.5635 O   0  0  0  0  0  0  0  0  0  0  0  0
    7.0123    1.9182   24.6413 C   0  0  0  0  0  0  0  0  0  0  0  0
    7.2108    2.4900   25.9089 C   0  0  0  0  0  0  0  0  0  0  0  0
    7.7203    1.7341   26.9691 C   0  0  0  0  0  0  0  0  0  0  0  0
    8.0004    0.3848   26.7907 C   0  0  0  0  0  0  0  0  0  0  0  0
    8.8197   -0.5054   28.0345 Cl  0  0  0  0  0  0  0  0  0  0  0  0
    7.6854   -0.2419   25.5888 C   0  0  0  0  0  0  0  0  0  0  0  0
    7.2531    0.5167   24.4961 C   0  0  0  0  0  0  0  0  0  0  0  0
    7.1605   -0.1498   23.2327 N   0  0  0  0  0  0  0  0  0  0  0  0
    7.8633    0.2409   22.1013 C   0  0  0  0  0  0  0  0  0  0  0  0
    8.7348    1.0672   22.0573 O   0  0  0  0  0  0  0  0  0  0  0  0
    7.4132   -0.6860   20.9577 C   0  0  0  0  0  0  0  0  0  0  0  0
    6.6225   -0.0017   19.8502 C   0  0  0  0  0  0  0  0  0  0  0  0
    5.4145    0.6608   20.1031 C   0  0  0  0  0  0  0  0  0  0  0  0
    4.7958    1.3196   19.0397 C   0  0  0  0  0  0  0  0  0  0  0  0
    5.3973    1.2945   17.7759 C   0  0  0  0  0  0  0  0  0  0  0  0
    6.5412    0.6453   17.5125 N   0  0  0  0  0  0  0  0  0  0  0  0
    7.1252    0.0181   18.5399 C   0  0  0  0  0  0  0  0  0  0  0  0
    8.0644   -0.4896   18.3195 H   0  0  0  0  0  0  0  0  0  0  0  0
    4.9422    1.8210   16.9393 H   0  0  0  0  0  0  0  0  0  0  0  0
    3.8719    1.8675   19.1786 H   0  0  0  0  0  0  0  0  0  0  0  0
    4.9722    0.6677   21.1039 H   0  0  0  0  0  0  0  0  0  0  0  0
    6.6457   -1.6786   21.6799 N   0  0  0  0  0  0  0  0  0  0  0  0
    6.0647   -2.8886   21.1290 C   0  0  0  0  0  0  0  0  0  0  0  0
    6.2378   -2.9233   20.0475 H   0  0  0  0  0  0  0  0  0  0  0  0
    6.5124   -3.7682   21.6063 H   0  0  0  0  0  0  0  0  0  0  0  0
    4.9881   -2.9038   21.3323 H   0  0  0  0  0  0  0  0  0  0  0  0
    6.6491   -1.4344   23.0237 C   0  0  0  0  0  0  0  0  0  0  0  0
    6.3054   -2.2180   23.8781 O   0  0  0  0  0  0  0  0  0  0  0  0
    8.3304   -1.1197   20.5247 H   0  0  0  0  0  0  0  0  0  0  0  0
    7.7490   -1.3179   25.4996 H   0  0  0  0  0  0  0  0  0  0  0  0
    7.9084    2.1856   27.9339 H   0  0  0  0  0  0  0  0  0  0  0  0
    6.9987    3.5398   26.0733 H   0  0  0  0  0  0  0  0  0  0  0  0
    6.3035    4.3836   22.6105 H   0  0  0  0  0  0  0  0  0  0  0  0
    5.7332    4.3919   24.2946 H   0  0  0  0  0  0  0  0  0  0  0  0
    7.4961    4.4804   23.9220 H   0  0  0  0  0  0  0  0  0  0  0  0
  1  2  1  0
  2  3  1  0
  3  4  2  0
  4  5  1  0
  5  6  2  0
  6  7  1  0
  6  8  1  0
  8  9  2  0
  9 10  1  0
 10 11  1  0
 11 12  2  0
 11 13  1  0
 13 14  1  0
 14 15  2  0
 15 16  1  0
 16 17  2  0
 17 18  1  0
 18 19  2  0
 19 20  1  0
 17 21  1  0
 16 22  1  0
 15 23  1  0
 13 24  1  0
 24 25  1  0
 25 26  1  0
 25 27  1  0
 25 28  1  0
 24 29  1  0
 29 30  2  0
 13 31  1  0
  8 32  1  0
  5 33  1  0
  4 34  1  0
  1 35  1  0
  1 36  1  0
  1 37  1  0
  9  3  1  0
 29 10  1  0
 19 14  1  0
M  END
>  <cnnaffinity>  (1) 
4.58554

>  <plip>  (1) 
-0.10344827586206896

>  <filename>  (1) 
[H][c]1[n][c]([H])[c]([C]2([H])[C](=[O])[N]([c]3[c]([H])[c]([Cl])[c]([H])[c]([H])[c]3[O][C]([H])([H])[H])[C](=[O])[N]2[C]([H])([H])[H])[c]([H])[c]1[H]

>  <combo1>  (1) 
-0.4766172702640089

$$$$
