
     RDKit          3D

 42 44  0  0  0  0  0  0  0  0999 V2000
    7.6771   -0.8061   25.1939 C   0  0  0  0  0  0  0  0  0  0  0  0
    8.1468    0.2647   24.2085 C   0  0  2  0  0  0  0  0  0  0  0  0
    9.4975   -0.1660   23.5576 N   0  0  0  0  0  4  0  0  0  0  0  0
    9.3670   -1.0926   22.3428 C   0  0  0  0  0  0  0  0  0  0  0  0
    8.8086   -0.5000   21.0190 C   0  0  0  0  0  0  0  0  0  0  0  0
    9.5415   -0.0418   20.1699 O   0  0  0  0  0  0  0  0  0  0  0  0
    7.4401   -0.5689   20.8572 N   0  0  0  0  0  0  0  0  0  0  0  0
    6.7017    0.0434   19.8095 C   0  0  0  0  0  0  0  0  0  0  0  0
    5.4765    0.6494   20.1093 C   0  0  0  0  0  0  0  0  0  0  0  0
    4.7996    1.3261   19.0887 C   0  0  0  0  0  0  0  0  0  0  0  0
    5.3517    1.3434   17.8044 C   0  0  0  0  0  0  0  0  0  0  0  0
    6.4968    0.7152   17.4874 N   0  0  0  0  0  0  0  0  0  0  0  0
    7.1538    0.0843   18.4680 C   0  0  0  0  0  0  0  0  0  0  0  0
    8.0844   -0.4163   18.2112 H   0  0  0  0  0  0  0  0  0  0  0  0
    4.8575    1.8665   16.9901 H   0  0  0  0  0  0  0  0  0  0  0  0
    3.8618    1.8372   19.2746 H   0  0  0  0  0  0  0  0  0  0  0  0
    5.0792    0.6052   21.1244 H   0  0  0  0  0  0  0  0  0  0  0  0
    6.8945   -0.9459   21.6151 H   0  0  0  0  0  0  0  0  0  0  0  0
   10.3425   -1.4813   22.0626 H   0  0  0  0  0  0  0  0  0  0  0  0
    8.7218   -1.9414   22.5897 H   0  0  0  0  0  0  0  0  0  0  0  0
   10.0022    0.7313   23.3334 H   0  0  0  0  0  0  0  0  0  0  0  0
   10.0127   -0.6162   24.3529 H   0  0  0  0  0  0  0  0  0  0  0  0
    8.3101    1.6325   24.8272 C   0  0  0  0  0  0  0  0  0  0  0  0
    8.5731    1.7666   26.1827 C   0  0  0  0  0  0  0  0  0  0  0  0
    8.5017    3.0155   26.8308 C   0  0  0  0  0  0  0  0  0  0  0  0
    8.3908    4.1736   26.1110 C   0  0  0  0  0  0  0  0  0  0  0  0
    8.1621    4.0981   24.7075 C   0  0  0  0  0  0  0  0  0  0  0  0
    7.9024    5.2743   23.9458 C   0  0  0  0  0  0  0  0  0  0  0  0
    7.4356    5.2866   22.7211 N   0  0  0  0  0  0  0  0  0  0  0  0
    7.2662    4.0736   22.1235 C   0  0  0  0  0  0  0  0  0  0  0  0
    7.6000    2.8673   22.6959 C   0  0  0  0  0  0  0  0  0  0  0  0
    8.0460    2.8280   24.0576 C   0  0  0  0  0  0  0  0  0  0  0  0
    7.5168    1.9676   22.0881 H   0  0  0  0  0  0  0  0  0  0  0  0
    6.8002    4.1153   21.1447 H   0  0  0  0  0  0  0  0  0  0  0  0
    8.0639    6.2308   24.4470 H   0  0  0  0  0  0  0  0  0  0  0  0
    8.4316    5.1420   26.6033 H   0  0  0  0  0  0  0  0  0  0  0  0
    8.4466    3.0069   27.9098 H   0  0  0  0  0  0  0  0  0  0  0  0
    8.8432    0.9082   26.7904 H   0  0  0  0  0  0  0  0  0  0  0  0
    7.4171    0.3487   23.4024 H   0  0  0  0  0  0  0  0  0  0  0  0
    7.3594   -1.7161   24.6780 H   0  0  0  0  0  0  0  0  0  0  0  0
    8.4777   -1.0669   25.8976 H   0  0  0  0  0  0  0  0  0  0  0  0
    6.8330   -0.4180   25.7720 H   0  0  0  0  0  0  0  0  0  0  0  0
  1  2  1  0
  2  3  1  0
  3  4  1  0
  4  5  1  0
  5  6  2  0
  5  7  1  0
  7  8  1  0
  8  9  2  0
  9 10  1  0
 10 11  2  0
 11 12  1  0
 12 13  2  0
 13 14  1  0
 11 15  1  0
 10 16  1  0
  9 17  1  0
  7 18  1  0
  4 19  1  0
  4 20  1  0
  3 21  1  0
  3 22  1  0
  2 23  1  0
 23 24  2  0
 24 25  1  0
 25 26  2  0
 26 27  1  0
 27 28  2  0
 28 29  1  0
 29 30  2  0
 30 31  1  0
 31 32  2  0
 31 33  1  0
 30 34  1  0
 28 35  1  0
 26 36  1  0
 25 37  1  0
 24 38  1  0
  2 39  1  6
  1 40  1  0
  1 41  1  0
  1 42  1  0
 13  8  1  0
 32 23  1  0
 32 27  1  0
M  CHG  1   3   1
M  END
>  <cnnaffinity>  (1) 
5.03639

>  <plip>  (1) 
-0.14285714285714285

>  <filename>  (1) 
[H][c]1[n][c]([H])[c]([N]([H])[C](=[O])[C]([H])([H])[N+]([H])([H])[C@]([H])([c]2[c]([H])[c]([H])[c]([H])[c]3[c]([H])[n][c]([H])[c]([H])[c]23)[C]([H])([H])[H])[c]([H])[c]1[H]

>  <combo1>  (1) 
-0.7802408613464746

$$$$
