
     RDKit          3D

 45 47  0  0  0  0  0  0  0  0999 V2000
    5.5926   -3.2649   18.4101 Cl  0  0  0  0  0  0  0  0  0  0  0  0
    5.6160   -4.4275   19.7189 C   0  0  0  0  0  0  0  0  0  0  0  0
    5.4396   -5.6790   19.3553 N   0  0  0  0  0  0  0  0  0  0  0  0
    5.3449   -6.5957   20.3264 C   0  0  0  0  0  0  0  0  0  0  0  0
    5.4744   -6.3120   21.6873 C   0  0  0  0  0  0  0  0  0  0  0  0
    5.6842   -4.9798   22.0483 C   0  0  0  0  0  0  0  0  0  0  0  0
    5.6833   -3.9903   21.0588 C   0  0  0  0  0  0  0  0  0  0  0  0
    5.8023   -2.5447   21.3812 C   0  0  0  0  0  0  0  0  0  0  0  0
    7.1580   -2.1830   20.8738 N   0  0  0  0  0  4  0  0  0  0  0  0
    7.5025   -0.7454   20.9646 C   0  0  0  0  0  0  0  0  0  0  0  0
    7.3430   -0.1956   22.4052 C   0  0  0  0  0  0  0  0  0  0  0  0
    7.8784    1.2284   22.5296 N   0  0  0  0  0  4  0  0  0  0  0  0
    9.3972    1.2478   22.6512 C   0  0  0  0  0  0  0  0  0  0  0  0
    9.7032    1.2880   24.1573 C   0  0  0  0  0  0  0  0  0  0  0  0
    8.3641    1.5837   24.8650 C   0  0  0  0  0  0  0  0  0  0  0  0
    7.3881    1.9642   23.7498 C   0  0  0  0  0  0  0  0  0  0  0  0
    7.4054    3.0375   23.5420 H   0  0  0  0  0  0  0  0  0  0  0  0
    6.3547    1.6794   23.9685 H   0  0  0  0  0  0  0  0  0  0  0  0
    8.4434    2.3791   25.6110 H   0  0  0  0  0  0  0  0  0  0  0  0
    7.9951    0.6929   25.3861 H   0  0  0  0  0  0  0  0  0  0  0  0
   10.4597    2.0505   24.3606 H   0  0  0  0  0  0  0  0  0  0  0  0
   10.1188    0.3314   24.4874 H   0  0  0  0  0  0  0  0  0  0  0  0
    9.8091    0.3601   22.1667 H   0  0  0  0  0  0  0  0  0  0  0  0
    9.7840    2.1242   22.1257 H   0  0  0  0  0  0  0  0  0  0  0  0
    7.5629    1.7232   21.6701 H   0  0  0  0  0  0  0  0  0  0  0  0
    7.8731   -0.8534   23.1044 H   0  0  0  0  0  0  0  0  0  0  0  0
    6.2851   -0.2235   22.6869 H   0  0  0  0  0  0  0  0  0  0  0  0
    6.6794   -0.0116   19.9091 C   0  0  0  0  0  0  0  0  0  0  0  0
    5.4632    0.6480   20.1502 C   0  0  0  0  0  0  0  0  0  0  0  0
    4.8228    1.3065   19.0950 C   0  0  0  0  0  0  0  0  0  0  0  0
    5.4130    1.2787   17.8297 C   0  0  0  0  0  0  0  0  0  0  0  0
    6.5624    0.6370   17.5748 N   0  0  0  0  0  0  0  0  0  0  0  0
    7.1661    0.0126   18.5907 C   0  0  0  0  0  0  0  0  0  0  0  0
    8.1074   -0.4801   18.3424 H   0  0  0  0  0  0  0  0  0  0  0  0
    4.9501    1.7978   16.9907 H   0  0  0  0  0  0  0  0  0  0  0  0
    3.8969    1.8518   19.2407 H   0  0  0  0  0  0  0  0  0  0  0  0
    5.0203    0.6515   21.1482 H   0  0  0  0  0  0  0  0  0  0  0  0
    8.5538   -0.6316   20.6885 H   0  0  0  0  0  0  0  0  0  0  0  0
    7.8137   -2.8379   21.3466 H   0  0  0  0  0  0  0  0  0  0  0  0
    7.1317   -2.4555   19.8650 H   0  0  0  0  0  0  0  0  0  0  0  0
    5.0598   -1.9276   20.8764 H   0  0  0  0  0  0  0  0  0  0  0  0
    5.6778   -2.3644   22.4546 H   0  0  0  0  0  0  0  0  0  0  0  0
    5.8591   -4.7028   23.0910 H   0  0  0  0  0  0  0  0  0  0  0  0
    5.4446   -7.1135   22.4213 H   0  0  0  0  0  0  0  0  0  0  0  0
    5.1211   -7.6028   19.9928 H   0  0  0  0  0  0  0  0  0  0  0  0
  1  2  1  0
  2  3  2  0
  3  4  1  0
  4  5  2  0
  5  6  1  0
  6  7  2  0
  7  8  1  0
  8  9  1  0
  9 10  1  0
 10 11  1  0
 11 12  1  0
 12 13  1  0
 13 14  1  0
 14 15  1  0
 15 16  1  0
 16 17  1  0
 16 18  1  0
 15 19  1  0
 15 20  1  0
 14 21  1  0
 14 22  1  0
 13 23  1  0
 13 24  1  0
 12 25  1  0
 11 26  1  0
 11 27  1  0
 10 28  1  0
 28 29  2  0
 29 30  1  0
 30 31  2  0
 31 32  1  0
 32 33  2  0
 33 34  1  0
 31 35  1  0
 30 36  1  0
 29 37  1  0
 10 38  1  0
  9 39  1  0
  9 40  1  0
  8 41  1  0
  8 42  1  0
  6 43  1  0
  5 44  1  0
  4 45  1  0
  7  2  1  0
 16 12  1  0
 33 28  1  0
M  CHG  2   9   1  12   1
M  END
>  <cnnaffinity>  (1) 
5.29604

>  <plip>  (1) 
-0.1

>  <filename>  (1) 
[H][c]1[n][c]([Cl])[c]([C]([H])([H])[N+]([H])([H])[C]([H])([c]2[c]([H])[n][c]([H])[c]([H])[c]2[H])[C]([H])([H])[N+]2([H])[C]([H])([H])[C]([H])([H])[C]([H])([H])[C]2([H])[H])[c]([H])[c]1[H]

>  <combo1>  (1) 
-0.5536570781010209

$$$$
