
     RDKit          3D

 23 25  0  0  0  0  0  0  0  0999 V2000
    4.9263    1.8163   16.9641 H   0  0  0  0  0  0  0  0  0  0  0  0
    5.3825    1.3001   17.8068 C   0  0  0  0  0  0  0  0  0  0  0  0
    6.5478    0.6819   17.5606 N   0  0  0  0  0  0  0  0  0  0  0  0
    7.1603    0.0811   18.5903 C   0  0  0  0  0  0  0  0  0  0  0  0
    8.1108   -0.3925   18.3464 H   0  0  0  0  0  0  0  0  0  0  0  0
    6.6602    0.0475   19.9150 C   0  0  0  0  0  0  0  0  0  0  0  0
    7.3525   -0.6735   21.0280 C   0  0  0  0  0  0  0  0  0  0  0  0
    7.7438   -2.0363   21.0594 C   0  0  0  0  0  0  0  0  0  0  0  0
    7.5301   -2.7832   20.3178 H   0  0  0  0  0  0  0  0  0  0  0  0
    8.3116   -2.3826   22.2025 N   0  0  0  0  0  0  0  0  0  0  0  0
    8.2828   -1.2681   22.9363 N   0  0  0  0  0  0  0  0  0  0  0  0
    8.5718   -1.3010   23.9058 H   0  0  0  0  0  0  0  0  0  0  0  0
    7.6919   -0.2226   22.3043 C   0  0  0  0  0  0  0  0  0  0  0  0
    7.4567    1.0705   22.9433 C   0  0  0  0  0  0  0  0  0  0  0  0
    7.5697    1.3331   24.2740 N   0  0  0  0  0  0  0  0  0  0  0  0
    7.2915    2.5941   24.4277 N   0  0  0  0  0  0  0  0  0  0  0  0
    7.0230    3.0476   23.2222 N   0  0  0  0  0  0  0  0  0  0  0  0
    6.8028    4.0168   23.0363 H   0  0  0  0  0  0  0  0  0  0  0  0
    7.1068    2.1522   22.2607 N   0  0  0  0  0  0  0  0  0  0  0  0
    5.4222    0.6754   20.1270 C   0  0  0  0  0  0  0  0  0  0  0  0
    4.9837    0.6792   21.1238 H   0  0  0  0  0  0  0  0  0  0  0  0
    4.7746    1.3134   19.0634 C   0  0  0  0  0  0  0  0  0  0  0  0
    3.8339    1.8382   19.2046 H   0  0  0  0  0  0  0  0  0  0  0  0
  1  2  1  0
  2  3  2  0
  3  4  1  0
  4  5  1  0
  4  6  2  0
  6  7  1  0
  7  8  1  0
  8  9  1  0
  8 10  2  0
 10 11  1  0
 11 12  1  0
 11 13  1  0
 13 14  1  0
 14 15  1  0
 15 16  2  0
 16 17  1  0
 17 18  1  0
 17 19  1  0
  6 20  1  0
 20 21  1  0
 20 22  2  0
 22 23  1  0
 22  2  1  0
 13  7  2  0
 19 14  2  0
M  END
>  <cnnaffinity>  (1) 
4.41444

>  <plip>  (1) 
-0.0

>  <filename>  (1) 
[H][c]1[n][c]([H])[c](-[c]2[c]([H])[n][n]([H])[c]2-[c]2[n][n][n]([H])[n]2)[c]([H])[c]1[H]

>  <combo1>  (1) 
-6.901746683927129e-06

$$$$
