
     RDKit          3D

 32 34  0  0  0  0  0  0  0  0999 V2000
    4.7908    2.1964   25.0040 H   0  0  0  0  0  0  0  0  0  0  0  0
    5.2479    1.2532   24.7239 C   0  0  0  0  0  0  0  0  0  0  0  0
    6.2386    1.2872   23.8131 N   0  0  0  0  0  0  0  0  0  0  0  0
    6.8098    0.0981   23.4856 C   0  0  0  0  0  0  0  0  0  0  0  0
    7.8254    0.0534   22.3465 C   0  0  2  0  0  0  0  0  0  0  0  0
    8.0354    1.0964   22.0830 H   0  0  0  0  0  0  0  0  0  0  0  0
    7.3437   -0.6452   21.1472 N   0  0  0  0  0  0  0  0  0  0  0  0
    6.6778    0.0018   20.0676 C   0  0  0  0  0  0  0  0  0  0  0  0
    7.2197    0.0050   18.7604 C   0  0  0  0  0  0  0  0  0  0  0  0
    8.1762   -0.4876   18.5870 H   0  0  0  0  0  0  0  0  0  0  0  0
    6.6353    0.6047   17.7149 N   0  0  0  0  0  0  0  0  0  0  0  0
    5.4720    1.2389   17.9406 C   0  0  0  0  0  0  0  0  0  0  0  0
    5.0130    1.7027   17.0700 H   0  0  0  0  0  0  0  0  0  0  0  0
    4.8659    1.3134   19.1999 C   0  0  0  0  0  0  0  0  0  0  0  0
    3.9258    1.8429   19.3089 H   0  0  0  0  0  0  0  0  0  0  0  0
    5.4937    0.7020   20.2920 C   0  0  0  0  0  0  0  0  0  0  0  0
    5.0924    0.7553   21.3020 H   0  0  0  0  0  0  0  0  0  0  0  0
    7.6751   -1.9927   21.1350 C   0  0  0  0  0  0  0  0  0  0  0  0
    7.0463   -2.8681   20.5865 O   0  0  0  0  0  0  0  0  0  0  0  0
    8.9345   -2.1284   21.9655 C   0  0  0  0  0  0  0  0  0  0  0  0
    9.7773   -2.3524   21.3039 H   0  0  0  0  0  0  0  0  0  0  0  0
    8.8228   -2.9950   22.6144 H   0  0  0  0  0  0  0  0  0  0  0  0
    9.0913   -0.7779   22.6916 C   0  0  0  0  0  0  0  0  0  0  0  0
    9.2186   -0.8796   23.7717 H   0  0  0  0  0  0  0  0  0  0  0  0
    9.9761   -0.2524   22.3344 H   0  0  0  0  0  0  0  0  0  0  0  0
    6.4417   -1.0777   24.1702 C   0  0  0  0  0  0  0  0  0  0  0  0
    6.9476   -2.0184   23.9686 H   0  0  0  0  0  0  0  0  0  0  0  0
    5.4507   -1.1306   25.0824 N   0  0  0  0  0  0  0  0  0  0  0  0
    4.7905    0.0187   25.2956 C   0  0  0  0  0  0  0  0  0  0  0  0
    3.6639   -0.2238   26.0408 N   0  0  0  0  0  0  0  0  0  0  0  0
    3.3305    0.4439   26.7165 H   0  0  0  0  0  0  0  0  0  0  0  0
    3.8132   -1.1683   26.3698 H   0  0  0  0  0  0  0  0  0  0  0  0
  1  2  1  0
  2  3  2  0
  3  4  1  0
  4  5  1  0
  5  6  1  6
  5  7  1  0
  7  8  1  0
  8  9  2  0
  9 10  1  0
  9 11  1  0
 11 12  2  0
 12 13  1  0
 12 14  1  0
 14 15  1  0
 14 16  2  0
 16 17  1  0
  7 18  1  0
 18 19  2  0
 18 20  1  0
 20 21  1  0
 20 22  1  0
 20 23  1  0
 23 24  1  0
 23 25  1  0
  4 26  2  0
 26 27  1  0
 26 28  1  0
 28 29  2  0
 29 30  1  0
 30 31  1  0
 30 32  1  0
 29  2  1  0
 23  5  1  0
 16  8  1  0
M  END
>  <cnnaffinity>  (1) 
4.90961

>  <plip>  (1) 
-0.07142857142857142

>  <filename>  (1) 
[H][c]1[n][c]([C@]2([H])[N]([c]3[c]([H])[n][c]([H])[c]([H])[c]3[H])[C](=[O])[C]([H])([H])[C]2([H])[H])[c]([H])[n][c]1[N]([H])[H]

>  <combo1>  (1) 
-0.45790903432090974

$$$$
