
     RDKit          3D

 40 41  0  0  0  0  0  0  0  0999 V2000
    5.9924   -4.9366   20.0971 C   0  0  0  0  0  0  0  0  0  0  0  0
    5.6746   -4.1042   21.3318 C   0  0  0  0  0  0  0  0  0  0  0  0
    5.9160   -2.5870   21.2661 C   0  0  0  0  0  0  0  0  0  0  0  0
    7.3436   -2.0470   21.1995 C   0  0  0  0  0  0  0  0  0  0  0  0
    7.4173   -0.5055   21.1819 C   0  0  0  0  0  0  0  0  0  0  0  0
    6.6818    0.1366   20.0145 C   0  0  0  0  0  0  0  0  0  0  0  0
    5.4432    0.7802   20.1663 C   0  0  0  0  0  0  0  0  0  0  0  0
    4.8214    1.3475   19.0514 C   0  0  0  0  0  0  0  0  0  0  0  0
    5.4482    1.2511   17.8089 C   0  0  0  0  0  0  0  0  0  0  0  0
    6.6111    0.6130   17.6256 N   0  0  0  0  0  0  0  0  0  0  0  0
    7.1969    0.0740   18.7040 C   0  0  0  0  0  0  0  0  0  0  0  0
    8.1435   -0.4335   18.5094 H   0  0  0  0  0  0  0  0  0  0  0  0
    5.0049    1.7110   16.9267 H   0  0  0  0  0  0  0  0  0  0  0  0
    3.8825    1.8787   19.1337 H   0  0  0  0  0  0  0  0  0  0  0  0
    4.9689    0.8356   21.1486 H   0  0  0  0  0  0  0  0  0  0  0  0
    8.4771   -0.2070   21.1664 H   0  0  0  0  0  0  0  0  0  0  0  0
    7.0115   -0.1158   22.1234 H   0  0  0  0  0  0  0  0  0  0  0  0
    7.8313   -2.3958   20.2973 H   0  0  0  0  0  0  0  0  0  0  0  0
    7.9307   -2.4485   22.0332 H   0  0  0  0  0  0  0  0  0  0  0  0
    5.4572   -2.2062   22.1800 H   0  0  0  0  0  0  0  0  0  0  0  0
    5.3495   -2.1651   20.4296 H   0  0  0  0  0  0  0  0  0  0  0  0
    6.4147   -4.6810   22.4555 N   0  0  0  0  0  0  0  0  0  0  0  0
    5.8536   -4.7105   23.7027 C   0  0  0  0  0  0  0  0  0  0  0  0
    4.7820   -4.2360   24.0145 O   0  0  0  0  0  0  0  0  0  0  0  0
    6.7083   -5.3985   24.5365 N   0  0  0  0  0  0  0  0  0  0  0  0
    6.5434   -5.3980   25.8835 C   0  0  0  0  0  0  0  0  0  0  0  0
    5.3123   -5.5073   26.5063 C   0  0  0  0  0  0  0  0  0  0  0  0
    5.3747   -5.5380   27.8843 C   0  0  0  0  0  0  0  0  0  0  0  0
    6.5270   -5.4630   28.5684 N   0  0  0  0  0  0  0  0  0  0  0  0
    7.6343   -5.3813   27.8354 C   0  0  0  0  0  0  0  0  0  0  0  0
    7.7091   -5.3414   26.5111 N   0  0  0  0  0  0  0  0  0  0  0  0
    8.5842   -5.3389   28.3713 H   0  0  0  0  0  0  0  0  0  0  0  0
    4.4542   -5.6198   28.4655 H   0  0  0  0  0  0  0  0  0  0  0  0
    4.4118   -5.5653   25.9205 H   0  0  0  0  0  0  0  0  0  0  0  0
    7.6931   -5.2877   24.3580 H   0  0  0  0  0  0  0  0  0  0  0  0
    6.9206   -5.5346   22.2883 H   0  0  0  0  0  0  0  0  0  0  0  0
    4.5941   -4.1897   21.5293 H   0  0  0  0  0  0  0  0  0  0  0  0
    5.6357   -5.9619   20.2633 H   0  0  0  0  0  0  0  0  0  0  0  0
    5.5054   -4.5703   19.1856 H   0  0  0  0  0  0  0  0  0  0  0  0
    7.0747   -4.9724   19.9411 H   0  0  0  0  0  0  0  0  0  0  0  0
  1  2  1  0
  2  3  1  0
  3  4  1  0
  4  5  1  0
  5  6  1  0
  6  7  2  0
  7  8  1  0
  8  9  2  0
  9 10  1  0
 10 11  2  0
 11 12  1  0
  9 13  1  0
  8 14  1  0
  7 15  1  0
  5 16  1  0
  5 17  1  0
  4 18  1  0
  4 19  1  0
  3 20  1  0
  3 21  1  0
  2 22  1  0
 22 23  1  0
 23 24  2  0
 23 25  1  0
 25 26  1  0
 26 27  2  0
 27 28  1  0
 28 29  2  0
 29 30  1  0
 30 31  2  0
 30 32  1  0
 28 33  1  0
 27 34  1  0
 25 35  1  0
 22 36  1  0
  2 37  1  0
  1 38  1  0
  1 39  1  0
  1 40  1  0
 11  6  1  0
 31 26  1  0
M  END
>  <cnnaffinity>  (1) 
4.62988

>  <plip>  (1) 
-0.03333333333333333

>  <filename>  (1) 
[H][c]1[n][c]([H])[c]([H])[c]([N]([H])[C](=[O])[N]([H])[C]([H])([C]([H])([H])[H])[C]([H])([H])[C]([H])([H])[C]([H])([H])[c]2[c]([H])[n][c]([H])[c]([H])[c]2[H])[n]1

>  <combo1>  (1) 
-0.18028011505518157

$$$$
