
     RDKit          3D

 30 31  0  0  0  0  0  0  0  0999 V2000
    4.9373    1.7819   17.0130 H   0  0  0  0  0  0  0  0  0  0  0  0
    5.4253    1.2826   17.8451 C   0  0  0  0  0  0  0  0  0  0  0  0
    6.5877    0.6700   17.5647 N   0  0  0  0  0  0  0  0  0  0  0  0
    7.2309    0.0649   18.5711 C   0  0  0  0  0  0  0  0  0  0  0  0
    8.1794   -0.4188   18.3434 H   0  0  0  0  0  0  0  0  0  0  0  0
    6.7288    0.0141   19.8904 C   0  0  0  0  0  0  0  0  0  0  0  0
    7.4085   -0.6945   20.9439 N   0  0  0  0  0  0  0  0  0  0  0  0
    6.8315   -1.6569   21.7680 C   0  0  0  0  0  0  0  0  0  0  0  0
    5.7527   -2.1664   21.6400 O   0  0  0  0  0  0  0  0  0  0  0  0
    7.9219   -1.9546   22.8184 C   0  0  0  0  0  0  0  0  0  0  0  0
    7.8313   -2.5151   23.8833 O   0  0  0  0  0  0  0  0  0  0  0  0
    9.0680   -1.4011   22.3116 N   0  0  0  0  0  0  0  0  0  0  0  0
   10.3438   -1.3423   23.0362 C   0  0  0  0  0  0  0  0  0  0  0  0
   11.1624   -1.3112   22.3114 H   0  0  0  0  0  0  0  0  0  0  0  0
   10.4413   -2.2633   23.6145 H   0  0  0  0  0  0  0  0  0  0  0  0
   10.4047   -0.1311   23.9808 C   0  0  0  0  0  0  0  0  0  0  0  0
    9.5599   -0.2259   24.6688 H   0  0  0  0  0  0  0  0  0  0  0  0
   10.2280    0.7755   23.3754 H   0  0  0  0  0  0  0  0  0  0  0  0
   11.6441   -0.0866   24.7393 N   0  0  0  0  0  0  0  0  0  0  0  0
   11.4859    0.3415   25.6455 H   0  0  0  0  0  0  0  0  0  0  0  0
   12.7646    0.5389   24.0583 C   0  0  0  0  0  0  0  0  0  0  0  0
   12.5944    1.5895   23.7597 H   0  0  0  0  0  0  0  0  0  0  0  0
   13.6460    0.5068   24.7053 H   0  0  0  0  0  0  0  0  0  0  0  0
   13.0092   -0.0274   23.1510 H   0  0  0  0  0  0  0  0  0  0  0  0
    8.7782   -0.6153   21.2150 C   0  0  0  0  0  0  0  0  0  0  0  0
    9.5914    0.0078   20.5856 O   0  0  0  0  0  0  0  0  0  0  0  0
    5.5078    0.6421   20.1615 C   0  0  0  0  0  0  0  0  0  0  0  0
    5.0859    0.5832   21.1629 H   0  0  0  0  0  0  0  0  0  0  0  0
    4.8464    1.2989   19.1182 C   0  0  0  0  0  0  0  0  0  0  0  0
    3.9033    1.8151   19.2786 H   0  0  0  0  0  0  0  0  0  0  0  0
  1  2  1  0
  2  3  2  0
  3  4  1  0
  4  5  1  0
  4  6  2  0
  6  7  1  0
  7  8  1  0
  8  9  2  0
  8 10  1  0
 10 11  2  0
 10 12  1  0
 12 13  1  0
 13 14  1  0
 13 15  1  0
 13 16  1  0
 16 17  1  0
 16 18  1  0
 16 19  1  0
 19 20  1  0
 19 21  1  0
 21 22  1  0
 21 23  1  0
 21 24  1  0
 12 25  1  0
 25 26  2  0
  6 27  1  0
 27 28  1  0
 27 29  2  0
 29 30  1  0
 29  2  1  0
 25  7  1  0
M  END
>  <cnnaffinity>  (1) 
4.38064

>  <plip>  (1) 
-0.10714285714285714

>  <filename>  (1) 
[H][c]1[n][c]([H])[c]([N]2[C](=[O])[C](=[O])[N]([C]([H])([H])[C]([H])([H])[N]([H])[C]([H])([H])[H])[C]2=[O])[c]([H])[c]1[H]

>  <combo1>  (1) 
-0.6302375447000449

$$$$
