
     RDKit          3D

 29 30  0  0  0  0  0  0  0  0999 V2000
    5.8431   -1.0258   22.2417 H   0  0  0  0  0  0  0  0  0  0  0  0
    6.9093   -1.1183   22.0223 C   0  0  0  0  0  0  0  0  0  0  0  0
    7.4272   -0.7704   20.9072 N   0  0  0  0  0  0  0  0  0  0  0  0
    6.6620   -0.0894   19.9347 C   0  0  0  0  0  0  0  0  0  0  0  0
    7.1758   -0.0189   18.6163 C   0  0  0  0  0  0  0  0  0  0  0  0
    8.1193   -0.5184   18.4180 H   0  0  0  0  0  0  0  0  0  0  0  0
    6.5921    0.6232   17.5992 N   0  0  0  0  0  0  0  0  0  0  0  0
    5.4352    1.2622   17.8590 C   0  0  0  0  0  0  0  0  0  0  0  0
    4.9761    1.7871   17.0245 H   0  0  0  0  0  0  0  0  0  0  0  0
    4.8381    1.2704   19.1236 C   0  0  0  0  0  0  0  0  0  0  0  0
    3.9071    1.8047   19.2827 H   0  0  0  0  0  0  0  0  0  0  0  0
    5.4626    0.5975   20.1818 C   0  0  0  0  0  0  0  0  0  0  0  0
    5.0505    0.6359   21.1905 H   0  0  0  0  0  0  0  0  0  0  0  0
    7.6570   -1.6319   23.0408 N   0  0  0  0  0  0  0  0  0  0  0  0
    9.0976   -1.7330   22.8737 C   0  0  0  0  0  0  0  0  0  0  0  0
    9.5936   -1.5097   23.8298 H   0  0  0  0  0  0  0  0  0  0  0  0
    9.4150   -0.9812   22.1418 H   0  0  0  0  0  0  0  0  0  0  0  0
    9.4117   -3.1132   22.3476 C   0  0  0  0  0  0  0  0  0  0  0  0
    9.1297   -3.2403   21.3027 H   0  0  0  0  0  0  0  0  0  0  0  0
   10.4570   -3.3977   22.4848 H   0  0  0  0  0  0  0  0  0  0  0  0
    8.5654   -4.3501   23.3068 S   0  0  0  0  0  0  0  0  0  0  0  0
    9.2873   -4.3939   24.5780 O   0  0  0  0  0  0  0  0  0  0  0  0
    8.4325   -5.5238   22.4532 O   0  0  0  0  0  0  0  0  0  0  0  0
    6.9303   -3.8058   23.7618 C   0  0  0  0  0  0  0  0  0  0  0  0
    6.6882   -4.4641   24.5960 H   0  0  0  0  0  0  0  0  0  0  0  0
    6.2501   -4.0083   22.9361 H   0  0  0  0  0  0  0  0  0  0  0  0
    7.0333   -2.3414   24.1397 C   0  0  0  0  0  0  0  0  0  0  0  0
    7.6529   -2.2196   25.0385 H   0  0  0  0  0  0  0  0  0  0  0  0
    6.0506   -1.9069   24.3684 H   0  0  0  0  0  0  0  0  0  0  0  0
  1  2  1  0
  2  3  2  3
  3  4  1  0
  4  5  2  0
  5  6  1  0
  5  7  1  0
  7  8  2  0
  8  9  1  0
  8 10  1  0
 10 11  1  0
 10 12  2  0
 12 13  1  0
  2 14  1  0
 14 15  1  0
 15 16  1  0
 15 17  1  0
 15 18  1  0
 18 19  1  0
 18 20  1  0
 18 21  1  0
 21 22  2  0
 21 23  2  0
 21 24  1  0
 24 25  1  0
 24 26  1  0
 24 27  1  0
 27 28  1  0
 27 29  1  0
 12  4  1  0
 27 14  1  0
M  END
>  <cnnaffinity>  (1) 
4.63376

>  <plip>  (1) 
-0.0

>  <filename>  (1) 
[H][C](=[N][c]1[c]([H])[n][c]([H])[c]([H])[c]1[H])[N]1[C]([H])([H])[C]([H])([H])[S](=[O])(=[O])[C]([H])([H])[C]1([H])[H]

>  <combo1>  (1) 
-6.454603705251426e-06

$$$$
