
     RDKit          3D

 27 29  0  0  0  0  0  0  0  0999 V2000
   12.9868    5.0102   22.6541 O   0  0  0  0  0  0  0  0  0  0  0  0
   12.0844    4.2607   22.4813 C   0  0  0  0  0  0  0  0  0  0  0  0
   10.7790    4.5041   22.8246 O   0  0  0  0  0  0  0  0  0  0  0  0
   10.0534    3.3904   22.4599 C   0  0  0  0  0  0  0  0  0  0  0  0
    8.7017    3.1349   22.5516 C   0  0  0  0  0  0  0  0  0  0  0  0
    8.2363    1.8847   22.0816 C   0  0  0  0  0  0  0  0  0  0  0  0
    9.1311    0.9543   21.5352 C   0  0  0  0  0  0  0  0  0  0  0  0
    8.7916   -0.2889   21.0756 O   0  0  0  0  0  0  0  0  0  0  0  0
    7.4267   -0.6952   20.9898 C   0  0  0  0  0  0  0  0  0  0  0  0
    6.6484    0.0184   19.9083 C   0  0  0  0  0  0  0  0  0  0  0  0
    5.4263    0.6562   20.1500 C   0  0  0  0  0  0  0  0  0  0  0  0
    4.7909    1.3134   19.0932 C   0  0  0  0  0  0  0  0  0  0  0  0
    5.3944    1.2975   17.8330 C   0  0  0  0  0  0  0  0  0  0  0  0
    6.5589    0.6817   17.5806 N   0  0  0  0  0  0  0  0  0  0  0  0
    7.1665    0.0716   18.6040 C   0  0  0  0  0  0  0  0  0  0  0  0
    8.1130   -0.4177   18.3756 H   0  0  0  0  0  0  0  0  0  0  0  0
    4.9270    1.7935   16.9839 H   0  0  0  0  0  0  0  0  0  0  0  0
    3.8625    1.8507   19.2366 H   0  0  0  0  0  0  0  0  0  0  0  0
    4.9857    0.6434   21.1504 H   0  0  0  0  0  0  0  0  0  0  0  0
    6.9266   -0.5902   21.9638 H   0  0  0  0  0  0  0  0  0  0  0  0
    7.5017   -1.7681   20.7779 H   0  0  0  0  0  0  0  0  0  0  0  0
   10.5155    1.2431   21.4392 C   0  0  0  0  0  0  0  0  0  0  0  0
   10.9329    2.4702   21.9029 C   0  0  0  0  0  0  0  0  0  0  0  0
   12.1926    3.0118   21.9227 O   0  0  0  0  0  0  0  0  0  0  0  0
   11.1923    0.5016   21.0400 H   0  0  0  0  0  0  0  0  0  0  0  0
    7.1777    1.6482   22.1476 H   0  0  0  0  0  0  0  0  0  0  0  0
    8.0329    3.8802   22.9679 H   0  0  0  0  0  0  0  0  0  0  0  0
  1  2  2  0
  2  3  1  0
  3  4  1  0
  4  5  2  0
  5  6  1  0
  6  7  2  0
  7  8  1  0
  8  9  1  0
  9 10  1  0
 10 11  2  0
 11 12  1  0
 12 13  2  0
 13 14  1  0
 14 15  2  0
 15 16  1  0
 13 17  1  0
 12 18  1  0
 11 19  1  0
  9 20  1  0
  9 21  1  0
  7 22  1  0
 22 23  2  0
 23 24  1  0
 22 25  1  0
  6 26  1  0
  5 27  1  0
 24  2  1  0
 23  4  1  0
 15 10  1  0
M  END
>  <cnnaffinity>  (1) 
4.6731

>  <plip>  (1) 
-0.06896551724137931

>  <filename>  (1) 
[H][c]1[n][c]([H])[c]([C]([H])([H])[O][c]2[c]([H])[c]([H])[c]3[o][c](=[O])[o][c]3[c]2[H])[c]([H])[c]1[H]

>  <combo1>  (1) 
-0.44169258116955373

$$$$
