
     RDKit          3D

 37 39  0  0  0  0  0  0  0  0999 V2000
    4.9404    1.7585   16.7220 H   0  0  0  0  0  0  0  0  0  0  0  0
    5.3220    1.3740   17.6632 C   0  0  0  0  0  0  0  0  0  0  0  0
    6.5087    0.7553   17.5990 N   0  0  0  0  0  0  0  0  0  0  0  0
    7.0140    0.2893   18.7488 C   0  0  0  0  0  0  0  0  0  0  0  0
    7.9848   -0.1963   18.6706 H   0  0  0  0  0  0  0  0  0  0  0  0
    6.3856    0.3981   20.0055 C   0  0  0  0  0  0  0  0  0  0  0  0
    7.0581   -0.1785   21.2460 C   0  0  2  0  0  0  0  0  0  0  0  0
    6.4421    0.0818   22.1176 H   0  0  0  0  0  0  0  0  0  0  0  0
    8.5037    0.3624   21.4653 C   0  0  0  0  0  0  0  0  0  0  0  0
    8.7131    0.5337   22.5356 H   0  0  0  0  0  0  0  0  0  0  0  0
    8.6716    1.3042   20.9319 H   0  0  0  0  0  0  0  0  0  0  0  0
    9.3485   -0.6879   20.9169 N   0  0  0  0  0  0  0  0  0  0  0  0
   10.3538   -0.7248   21.0058 H   0  0  0  0  0  0  0  0  0  0  0  0
    8.7514   -1.9007   20.9616 C   0  0  0  0  0  0  0  0  0  0  0  0
    9.3551   -2.9572   20.9033 O   0  0  0  0  0  0  0  0  0  0  0  0
    7.2639   -1.7084   21.1237 C   0  0  1  0  0  0  0  0  0  0  0  0
    6.8134   -2.1168   20.2151 H   0  0  0  0  0  0  0  0  0  0  0  0
    6.7441   -2.5500   22.2849 C   0  0  0  0  0  0  0  0  0  0  0  0
    5.6577   -2.4283   22.3681 H   0  0  0  0  0  0  0  0  0  0  0  0
    7.1694   -2.1949   23.2372 H   0  0  0  0  0  0  0  0  0  0  0  0
    7.0438   -3.9234   22.0048 N   0  0  0  0  0  0  0  0  0  0  0  0
    7.9468   -4.1044   21.5867 H   0  0  0  0  0  0  0  0  0  0  0  0
    6.3893   -4.9916   22.5687 C   0  0  0  0  0  0  0  0  0  0  0  0
    5.5104   -4.8668   23.6608 C   0  0  0  0  0  0  0  0  0  0  0  0
    5.3504   -3.8837   24.1040 H   0  0  0  0  0  0  0  0  0  0  0  0
    4.8664   -6.0017   24.1637 C   0  0  0  0  0  0  0  0  0  0  0  0
    4.1825   -5.8939   25.0026 H   0  0  0  0  0  0  0  0  0  0  0  0
    5.1017   -7.2625   23.6047 C   0  0  0  0  0  0  0  0  0  0  0  0
    4.6327   -8.1430   24.0321 H   0  0  0  0  0  0  0  0  0  0  0  0
    5.9846   -7.3816   22.5228 C   0  0  0  0  0  0  0  0  0  0  0  0
    6.1971   -8.3504   22.0789 H   0  0  0  0  0  0  0  0  0  0  0  0
    6.6162   -6.2579   21.9959 C   0  0  0  0  0  0  0  0  0  0  0  0
    7.2842   -6.3285   21.1398 H   0  0  0  0  0  0  0  0  0  0  0  0
    5.1413    1.0451   20.0382 C   0  0  0  0  0  0  0  0  0  0  0  0
    4.6031    1.1675   20.9792 H   0  0  0  0  0  0  0  0  0  0  0  0
    4.6002    1.5409   18.8479 C   0  0  0  0  0  0  0  0  0  0  0  0
    3.6469    2.0587   18.8277 H   0  0  0  0  0  0  0  0  0  0  0  0
  1  2  1  0
  2  3  2  0
  3  4  1  0
  4  5  1  0
  4  6  2  0
  6  7  1  0
  7  8  1  1
  7  9  1  0
  9 10  1  0
  9 11  1  0
  9 12  1  0
 12 13  1  0
 12 14  1  0
 14 15  2  0
 14 16  1  0
 16 17  1  6
 16 18  1  0
 18 19  1  0
 18 20  1  0
 18 21  1  0
 21 22  1  0
 21 23  1  0
 23 24  2  0
 24 25  1  0
 24 26  1  0
 26 27  1  0
 26 28  2  0
 28 29  1  0
 28 30  1  0
 30 31  1  0
 30 32  2  0
 32 33  1  0
  6 34  1  0
 34 35  1  0
 34 36  2  0
 36 37  1  0
 36  2  1  0
 16  7  1  0
 32 23  1  0
M  END
>  <cnnaffinity>  (1) 
4.87498

>  <plip>  (1) 
-0.0967741935483871

>  <filename>  (1) 
[H][c]1[n][c]([H])[c]([C@]2([H])[C]([H])([H])[N]([H])[C](=[O])[C@@]2([H])[C]([H])([H])[N]([H])[c]2[c]([H])[c]([H])[c]([H])[c]([H])[c]2[H])[c]([H])[c]1[H]

>  <combo1>  (1) 
-0.5882476447071008

$$$$
