
     RDKit          3D

 32 33  0  0  0  0  0  0  0  0999 V2000
    5.1433   -5.3781   24.6409 H   0  0  0  0  0  0  0  0  0  0  0  0
    4.3747   -5.3334   25.2339 O   0  0  0  0  0  0  0  0  0  0  0  0
    4.0810   -4.0433   25.4768 C   0  0  0  0  0  0  0  0  0  0  0  0
    2.9746   -3.8311   26.3785 C   0  0  0  0  0  0  0  0  0  0  0  0
    2.4247   -4.6749   26.7653 H   0  0  0  0  0  0  0  0  0  0  0  0
    2.6670   -2.5086   26.6440 C   0  0  0  0  0  0  0  0  0  0  0  0
    0.9910   -2.0236   26.5596 Cl  0  0  0  0  0  0  0  0  0  0  0  0
    3.6273   -1.6069   25.7238 C   0  0  0  0  0  0  0  0  0  0  0  0
    3.4374   -0.5400   25.0346 H   0  0  0  0  0  0  0  0  0  0  0  0
    3.8225   -1.3842   25.8786 C   0  0  0  0  0  0  0  0  0  0  0  0
    4.6116   -0.9670   26.6224 H   0  0  0  0  0  0  0  0  0  0  0  0
    4.6756   -2.9037   24.9568 C   0  0  0  0  0  0  0  0  0  0  0  0
    5.7790   -3.1956   24.0711 O   0  0  0  0  0  0  0  0  0  0  0  0
    6.3151   -2.1484   23.3630 N   0  0  0  0  0  0  0  0  0  0  0  0
    7.2438   -1.9076   23.6830 H   0  0  0  0  0  0  0  0  0  0  0  0
    6.0950   -2.1303   21.9915 C   0  0  0  0  0  0  0  0  0  0  0  0
    5.2790   -2.8292   21.4290 O   0  0  0  0  0  0  0  0  0  0  0  0
    7.0847   -1.1512   21.2116 C   0  0  1  0  0  0  0  0  0  0  0  0
    7.7880   -1.8825   20.7821 H   0  0  0  0  0  0  0  0  0  0  0  0
    6.4690   -0.3944   20.0385 C   0  0  0  0  0  0  0  0  0  0  0  0
    7.2613   -0.2034   18.8912 C   0  0  0  0  0  0  0  0  0  0  0  0
    8.2466   -0.6677   18.8242 H   0  0  0  0  0  0  0  0  0  0  0  0
    6.8915    0.5108   17.8223 N   0  0  0  0  0  0  0  0  0  0  0  0
    5.6897    1.1047   17.8725 C   0  0  0  0  0  0  0  0  0  0  0  0
    5.4065    1.6836   16.9949 H   0  0  0  0  0  0  0  0  0  0  0  0
    4.8255    0.9982   18.9653 C   0  0  0  0  0  0  0  0  0  0  0  0
    3.8761    1.5196   18.9434 H   0  0  0  0  0  0  0  0  0  0  0  0
    5.2150    0.2306   20.0691 C   0  0  0  0  0  0  0  0  0  0  0  0
    4.5608    0.1240   20.9370 H   0  0  0  0  0  0  0  0  0  0  0  0
    7.9063   -0.2149   22.0287 N   0  0  0  0  0  0  0  0  0  0  0  0
    8.5757    0.2359   21.4082 H   0  0  0  0  0  0  0  0  0  0  0  0
    7.3099    0.5467   22.3561 H   0  0  0  0  0  0  0  0  0  0  0  0
  1  2  1  0
  2  3  1  0
  3  4  2  0
  4  5  1  0
  4  6  1  0
  6  7  1  0
  6  8  2  0
  8  9  1  0
  8 10  1  0
 10 11  1  0
 10 12  2  0
 12 13  1  0
 13 14  1  0
 14 15  1  0
 14 16  1  0
 16 17  2  0
 16 18  1  0
 18 19  1  6
 18 20  1  0
 20 21  2  0
 21 22  1  0
 21 23  1  0
 23 24  2  0
 24 25  1  0
 24 26  1  0
 26 27  1  0
 26 28  2  0
 28 29  1  0
 18 30  1  0
 30 31  1  0
 30 32  1  0
 12  3  1  0
 28 20  1  0
M  END
>  <cnnaffinity>  (1) 
5.12377

>  <plip>  (1) 
-0.06896551724137931

>  <filename>  (1) 
[H][O][c]1[c]([H])[c]([Cl])[c]([H])[c]([H])[c]1[O][N]([H])[C](=[O])[C@@]([H])([c]1[c]([H])[n][c]([H])[c]([H])[c]1[H])[N]([H])[H]

>  <combo1>  (1) 
-0.40103440840268983

$$$$
