
     RDKit          3D

 36 38  0  0  0  0  0  0  0  0999 V2000
    6.0631   -4.1776   27.2599 C   0  0  0  0  0  0  0  0  0  0  0  0
    5.5402   -3.8766   25.8708 C   0  0  0  0  0  0  0  0  0  0  0  0
    4.3389   -4.4543   25.4245 C   0  0  0  0  0  0  0  0  0  0  0  0
    3.9060   -4.2766   24.1043 C   0  0  0  0  0  0  0  0  0  0  0  0
    4.6788   -3.5168   23.2283 C   0  0  0  0  0  0  0  0  0  0  0  0
    4.2685   -3.3963   21.9598 F   0  0  0  0  0  0  0  0  0  0  0  0
    5.8237   -2.8272   23.6785 C   0  0  0  0  0  0  0  0  0  0  0  0
    6.5280   -1.9043   22.8342 N   0  0  0  0  0  0  0  0  0  0  0  0
    6.7808   -2.0656   21.4746 C   0  0  0  0  0  0  0  0  0  0  0  0
    6.6279   -3.0653   20.8235 O   0  0  0  0  0  0  0  0  0  0  0  0
    7.4152   -0.7521   20.9759 C   0  0  0  0  0  0  0  0  0  0  0  0
    6.6437    0.0165   19.8936 C   0  0  0  0  0  0  0  0  0  0  0  0
    5.4203    0.6605   20.1296 C   0  0  0  0  0  0  0  0  0  0  0  0
    4.8047    1.3159   19.0584 C   0  0  0  0  0  0  0  0  0  0  0  0
    5.4239    1.3155   17.8045 C   0  0  0  0  0  0  0  0  0  0  0  0
    6.5929    0.7078   17.5616 N   0  0  0  0  0  0  0  0  0  0  0  0
    7.1750    0.0878   18.5950 C   0  0  0  0  0  0  0  0  0  0  0  0
    8.1217   -0.4048   18.3750 H   0  0  0  0  0  0  0  0  0  0  0  0
    4.9628    1.8234   16.9577 H   0  0  0  0  0  0  0  0  0  0  0  0
    3.8655    1.8397   19.1824 H   0  0  0  0  0  0  0  0  0  0  0  0
    4.9660    0.6781   21.1232 H   0  0  0  0  0  0  0  0  0  0  0  0
    7.5654   -0.0112   22.2065 N   0  0  0  0  0  0  0  0  0  0  0  0
    8.2863    1.2468   22.3013 C   0  0  0  0  0  0  0  0  0  0  0  0
    9.1201    1.1842   23.0096 H   0  0  0  0  0  0  0  0  0  0  0  0
    8.6997    1.4902   21.3167 H   0  0  0  0  0  0  0  0  0  0  0  0
    7.6276    2.0647   22.6108 H   0  0  0  0  0  0  0  0  0  0  0  0
    6.9863   -0.6461   23.2654 C   0  0  0  0  0  0  0  0  0  0  0  0
    6.8872   -0.2067   24.3883 O   0  0  0  0  0  0  0  0  0  0  0  0
    8.4036   -1.0207   20.5665 H   0  0  0  0  0  0  0  0  0  0  0  0
    6.2267   -2.9996   25.0084 C   0  0  0  0  0  0  0  0  0  0  0  0
    7.0577   -2.3997   25.3693 H   0  0  0  0  0  0  0  0  0  0  0  0
    2.9840   -4.7067   23.7311 H   0  0  0  0  0  0  0  0  0  0  0  0
    3.7414   -5.0435   26.1183 H   0  0  0  0  0  0  0  0  0  0  0  0
    5.7734   -5.1853   27.5727 H   0  0  0  0  0  0  0  0  0  0  0  0
    5.6784   -3.4906   28.0229 H   0  0  0  0  0  0  0  0  0  0  0  0
    7.1555   -4.1254   27.3084 H   0  0  0  0  0  0  0  0  0  0  0  0
  1  2  1  0
  2  3  2  0
  3  4  1  0
  4  5  2  0
  5  6  1  0
  5  7  1  0
  7  8  1  0
  8  9  1  0
  9 10  2  0
  9 11  1  0
 11 12  1  0
 12 13  2  0
 13 14  1  0
 14 15  2  0
 15 16  1  0
 16 17  2  0
 17 18  1  0
 15 19  1  0
 14 20  1  0
 13 21  1  0
 11 22  1  0
 22 23  1  0
 23 24  1  0
 23 25  1  0
 23 26  1  0
 22 27  1  0
 27 28  2  0
 11 29  1  0
  7 30  2  0
 30 31  1  0
  4 32  1  0
  3 33  1  0
  1 34  1  0
  1 35  1  0
  1 36  1  0
 30  2  1  0
 27  8  1  0
 17 12  1  0
M  END
>  <cnnaffinity>  (1) 
5.0142

>  <plip>  (1) 
-0.06896551724137931

>  <filename>  (1) 
[H][c]1[n][c]([H])[c]([C]2([H])[C](=[O])[N]([c]3[c]([H])[c]([C]([H])([H])[H])[c]([H])[c]([H])[c]3[F])[C](=[O])[N]2[C]([H])([H])[H])[c]([H])[c]1[H]

>  <combo1>  (1) 
-0.38512208455335323

$$$$
