
     RDKit          3D

 36 39  0  0  0  0  0  0  0  0999 V2000
    4.9095    1.7706   17.0067 H   0  0  0  0  0  0  0  0  0  0  0  0
    5.4043    1.2885   17.8486 C   0  0  0  0  0  0  0  0  0  0  0  0
    6.5731    0.6756   17.5936 N   0  0  0  0  0  0  0  0  0  0  0  0
    7.1825    0.0567   18.6112 C   0  0  0  0  0  0  0  0  0  0  0  0
    8.1309   -0.4350   18.3778 H   0  0  0  0  0  0  0  0  0  0  0  0
    6.6584    0.0069   19.9158 C   0  0  0  0  0  0  0  0  0  0  0  0
    7.3488   -0.6932   21.0013 C   0  0  0  0  0  0  0  0  0  0  0  0
    6.8605   -0.7418   22.2062 N   0  0  0  0  0  0  0  0  0  0  0  0
    7.7136   -1.4458   22.9902 N   0  0  0  0  0  0  0  0  0  0  0  0
    7.6905   -1.9090   24.3002 C   0  0  0  0  0  0  0  0  0  0  0  0
    6.6491   -1.6324   25.2845 C   0  0  0  0  0  0  0  0  0  0  0  0
    5.8171   -0.5005   25.1942 C   0  0  0  0  0  0  0  0  0  0  0  0
    5.9398    0.1982   24.3747 H   0  0  0  0  0  0  0  0  0  0  0  0
    4.8412   -0.2764   26.1574 C   0  0  0  0  0  0  0  0  0  0  0  0
    4.1983    0.5958   26.0650 H   0  0  0  0  0  0  0  0  0  0  0  0
    4.6785   -1.1478   27.2464 C   0  0  0  0  0  0  0  0  0  0  0  0
    3.5894   -0.9174   28.2588 C   0  0  0  0  0  0  0  0  0  0  0  0
    3.4215    0.1597   28.3839 H   0  0  0  0  0  0  0  0  0  0  0  0
    3.9053   -1.3042   29.2357 H   0  0  0  0  0  0  0  0  0  0  0  0
    2.2845   -1.5937   27.8369 C   0  0  0  0  0  0  0  0  0  0  0  0
    1.9456   -1.1989   26.8731 H   0  0  0  0  0  0  0  0  0  0  0  0
    2.4330   -2.6738   27.7311 H   0  0  0  0  0  0  0  0  0  0  0  0
    1.5059   -1.4175   28.5823 H   0  0  0  0  0  0  0  0  0  0  0  0
    5.5035   -2.2809   27.3253 C   0  0  0  0  0  0  0  0  0  0  0  0
    5.3794   -2.9812   28.1470 H   0  0  0  0  0  0  0  0  0  0  0  0
    6.4797   -2.5183   26.3666 C   0  0  0  0  0  0  0  0  0  0  0  0
    7.1055   -3.4020   26.4536 H   0  0  0  0  0  0  0  0  0  0  0  0
    8.8341   -2.6672   24.3921 C   0  0  0  0  0  0  0  0  0  0  0  0
    9.1853   -3.1945   25.2696 H   0  0  0  0  0  0  0  0  0  0  0  0
    9.5491   -2.7039   23.2249 N   0  0  0  0  0  0  0  0  0  0  0  0
    8.8334   -1.9659   22.4167 C   0  0  0  0  0  0  0  0  0  0  0  0
    8.8897   -1.5265   20.7453 S   0  0  0  0  0  0  0  0  0  0  0  0
    5.4384    0.6539   20.1622 C   0  0  0  0  0  0  0  0  0  0  0  0
    5.0073    0.6288   21.1602 H   0  0  0  0  0  0  0  0  0  0  0  0
    4.8047    1.3113   19.1126 C   0  0  0  0  0  0  0  0  0  0  0  0
    3.8707    1.8461   19.2669 H   0  0  0  0  0  0  0  0  0  0  0  0
  1  2  1  0
  2  3  2  0
  3  4  1  0
  4  5  1  0
  4  6  2  0
  6  7  1  0
  7  8  2  0
  8  9  1  0
  9 10  1  0
 10 11  1  0
 11 12  2  0
 12 13  1  0
 12 14  1  0
 14 15  1  0
 14 16  2  0
 16 17  1  0
 17 18  1  0
 17 19  1  0
 17 20  1  0
 20 21  1  0
 20 22  1  0
 20 23  1  0
 16 24  1  0
 24 25  1  0
 24 26  2  0
 26 27  1  0
 10 28  2  0
 28 29  1  0
 28 30  1  0
 30 31  2  0
 31 32  1  0
  6 33  1  0
 33 34  1  0
 33 35  2  0
 35 36  1  0
 35  2  1  0
 32  7  1  0
 31  9  1  0
 26 11  1  0
M  END
>  <cnnaffinity>  (1) 
5.26332

>  <plip>  (1) 
-0.03571428571428571

>  <filename>  (1) 
[H][c]1[n][c]([H])[c](-[c]2[n][n]3[c](-[c]4[c]([H])[c]([H])[c]([C]([H])([H])[C]([H])([H])[H])[c]([H])[c]4[H])[c]([H])[n][c]3[s]2)[c]([H])[c]1[H]

>  <combo1>  (1) 
-0.2045032586427

$$$$
