
     RDKit          3D

 46 49  0  0  0  0  0  0  0  0999 V2000
    4.9272    1.7675   17.0065 H   0  0  0  0  0  0  0  0  0  0  0  0
    5.4067    1.2683   17.8478 C   0  0  0  0  0  0  0  0  0  0  0  0
    6.5679    0.6459   17.5896 N   0  0  0  0  0  0  0  0  0  0  0  0
    7.1940    0.0666   18.6217 C   0  0  0  0  0  0  0  0  0  0  0  0
    8.1325   -0.4317   18.3826 H   0  0  0  0  0  0  0  0  0  0  0  0
    6.7313    0.0644   19.9713 C   0  0  0  0  0  0  0  0  0  0  0  0
    7.5381   -0.4507   20.9945 N   0  0  0  0  0  0  0  0  0  0  0  0
    8.3396   -1.6746   20.7364 C   0  0  0  0  0  0  0  0  0  0  0  0
    9.2895   -1.4829   20.2230 H   0  0  0  0  0  0  0  0  0  0  0  0
    7.7134   -2.3378   20.1474 H   0  0  0  0  0  0  0  0  0  0  0  0
    8.4921   -2.2914   22.1447 C   0  0  2  0  0  0  0  0  0  0  0  0
    9.3465   -2.9563   22.2630 H   0  0  0  0  0  0  0  0  0  0  0  0
    7.1918   -2.9514   22.3829 N   0  0  0  0  0  0  0  0  0  0  0  0
    7.0837   -4.1028   23.1476 N   0  0  0  0  0  0  0  0  0  0  0  0
    5.8246   -4.8188   22.8457 C   0  0  0  0  0  0  0  0  0  0  0  0
    5.7452   -4.9175   21.7560 H   0  0  0  0  0  0  0  0  0  0  0  0
    4.9440   -4.2407   23.1887 H   0  0  0  0  0  0  0  0  0  0  0  0
    5.7305   -6.2214   23.4536 C   0  0  0  0  0  0  0  0  0  0  0  0
    6.6293   -6.7880   23.1577 H   0  0  0  0  0  0  0  0  0  0  0  0
    4.8866   -6.7162   22.9513 H   0  0  0  0  0  0  0  0  0  0  0  0
    5.4926   -6.2332   24.8996 N   0  0  0  0  0  0  0  0  0  0  0  0
    4.4830   -7.1864   25.3212 C   0  0  0  0  0  0  0  0  0  0  0  0
    4.4694   -7.2994   26.4123 H   0  0  0  0  0  0  0  0  0  0  0  0
    4.6149   -8.1825   24.8688 H   0  0  0  0  0  0  0  0  0  0  0  0
    3.4938   -6.8337   25.0022 H   0  0  0  0  0  0  0  0  0  0  0  0
    6.6374   -6.0826   25.7994 C   0  0  0  0  0  0  0  0  0  0  0  0
    7.0695   -7.0512   26.1056 H   0  0  0  0  0  0  0  0  0  0  0  0
    6.2672   -5.6213   26.7303 H   0  0  0  0  0  0  0  0  0  0  0  0
    7.7701   -5.2064   25.2500 C   0  0  0  0  0  0  0  0  0  0  0  0
    8.4416   -4.9672   26.0813 H   0  0  0  0  0  0  0  0  0  0  0  0
    8.3756   -5.7649   24.5255 H   0  0  0  0  0  0  0  0  0  0  0  0
    7.3058   -3.9044   24.5936 C   0  0  0  0  0  0  0  0  0  0  0  0
    6.3930   -3.5232   25.0924 H   0  0  0  0  0  0  0  0  0  0  0  0
    8.0692   -3.1326   24.7352 H   0  0  0  0  0  0  0  0  0  0  0  0
    6.2377   -1.8505   22.5755 C   0  0  0  0  0  0  0  0  0  0  0  0
    5.4424   -1.8800   21.8127 H   0  0  0  0  0  0  0  0  0  0  0  0
    5.8269   -1.8997   23.5974 H   0  0  0  0  0  0  0  0  0  0  0  0
    7.1108   -0.5895   22.3998 C   0  0  1  0  0  0  0  0  0  0  0  0
    6.6667    0.3177   22.8112 H   0  0  0  0  0  0  0  0  0  0  0  0
    8.4239   -1.0464   23.0391 C   0  0  0  0  0  0  0  0  0  0  0  0
    8.3311   -1.2627   24.1070 H   0  0  0  0  0  0  0  0  0  0  0  0
    9.2396   -0.3389   22.8812 H   0  0  0  0  0  0  0  0  0  0  0  0
    5.4761    0.6677   20.1936 C   0  0  0  0  0  0  0  0  0  0  0  0
    5.0244    0.6449   21.1849 H   0  0  0  0  0  0  0  0  0  0  0  0
    4.8238    1.2864   19.1183 C   0  0  0  0  0  0  0  0  0  0  0  0
    3.8750    1.7917   19.2608 H   0  0  0  0  0  0  0  0  0  0  0  0
  1  2  1  0
  2  3  2  0
  3  4  1  0
  4  5  1  0
  4  6  2  0
  6  7  1  0
  7  8  1  0
  8  9  1  0
  8 10  1  0
  8 11  1  0
 11 12  1  6
 11 13  1  0
 13 14  1  0
 14 15  1  0
 15 16  1  0
 15 17  1  0
 15 18  1  0
 18 19  1  0
 18 20  1  0
 18 21  1  0
 21 22  1  0
 22 23  1  0
 22 24  1  0
 22 25  1  0
 21 26  1  0
 26 27  1  0
 26 28  1  0
 26 29  1  0
 29 30  1  0
 29 31  1  0
 29 32  1  0
 32 33  1  0
 32 34  1  0
 13 35  1  0
 35 36  1  0
 35 37  1  0
 35 38  1  0
 38 39  1  1
 38 40  1  0
 40 41  1  0
 40 42  1  0
  6 43  1  0
 43 44  1  0
 43 45  2  0
 45 46  1  0
 45  2  1  0
 38  7  1  0
 40 11  1  0
 32 14  1  0
M  END
>  <cnnaffinity>  (1) 
5.3097

>  <plip>  (1) 
-0.03571428571428571

>  <filename>  (1) 
[H][c]1[n][c]([H])[c]([N]2[C]([H])([H])[C@]3([H])[N]([N]4[C]([H])([H])[C]([H])([H])[N]([C]([H])([H])[H])[C]([H])([H])[C]([H])([H])[C]4([H])[H])[C]([H])([H])[C@@]2([H])[C]3([H])[H])[c]([H])[c]1[H]

>  <combo1>  (1) 
-0.21993143716042274

$$$$
