
     RDKit          3D

 38 40  0  0  0  0  0  0  0  0999 V2000
    4.9940    1.7772   17.0137 H   0  0  0  0  0  0  0  0  0  0  0  0
    5.4485    1.2659   17.8598 C   0  0  0  0  0  0  0  0  0  0  0  0
    6.6081    0.6331   17.6267 N   0  0  0  0  0  0  0  0  0  0  0  0
    7.1931    0.0220   18.6649 C   0  0  0  0  0  0  0  0  0  0  0  0
    8.1347   -0.4816   18.4597 H   0  0  0  0  0  0  0  0  0  0  0  0
    6.6736   -0.0061   19.9780 C   0  0  0  0  0  0  0  0  0  0  0  0
    7.3615   -0.6603   20.9996 N   0  0  0  0  0  0  0  0  0  0  0  0
    6.8597   -0.7225   22.2577 N   0  0  0  0  0  0  0  0  0  0  0  0
    7.6878   -1.3649   23.0030 C   0  0  0  0  0  0  0  0  0  0  0  0
    7.4167   -1.5061   24.4676 C   0  0  0  0  0  0  0  0  0  0  0  0
    7.3296   -0.5066   24.9038 H   0  0  0  0  0  0  0  0  0  0  0  0
    6.4324   -1.9715   24.5836 H   0  0  0  0  0  0  0  0  0  0  0  0
    8.4685   -2.3187   25.2100 C   0  0  0  0  0  0  0  0  0  0  0  0
    8.3145   -2.2340   26.3051 H   0  0  0  0  0  0  0  0  0  0  0  0
    9.4555   -1.8802   25.0147 H   0  0  0  0  0  0  0  0  0  0  0  0
    8.4429   -3.7029   24.7645 N   0  0  0  0  0  0  0  0  0  0  0  0
    7.2436   -4.4210   25.1831 C   0  0  0  0  0  0  0  0  0  0  0  0
    6.3722   -4.0901   24.6117 H   0  0  0  0  0  0  0  0  0  0  0  0
    7.0214   -4.2603   26.2559 H   0  0  0  0  0  0  0  0  0  0  0  0
    7.5708   -5.8886   24.9366 C   0  0  0  0  0  0  0  0  0  0  0  0
    7.2495   -6.1921   23.9367 H   0  0  0  0  0  0  0  0  0  0  0  0
    7.0550   -6.5240   25.6634 H   0  0  0  0  0  0  0  0  0  0  0  0
    9.1033   -5.9669   25.0478 C   0  0  0  0  0  0  0  0  0  0  0  0
    9.5211   -6.4120   24.1461 H   0  0  0  0  0  0  0  0  0  0  0  0
    9.4264   -6.5875   25.8867 H   0  0  0  0  0  0  0  0  0  0  0  0
    9.5709   -4.5131   25.2147 C   0  0  0  0  0  0  0  0  0  0  0  0
    9.8261   -4.3220   26.2739 H   0  0  0  0  0  0  0  0  0  0  0  0
   10.4595   -4.3014   24.6103 H   0  0  0  0  0  0  0  0  0  0  0  0
    8.9028   -1.8529   22.2575 C   0  0  0  0  0  0  0  0  0  0  0  0
    8.9359   -2.9454   22.2271 H   0  0  0  0  0  0  0  0  0  0  0  0
    9.8317   -1.5097   22.7196 H   0  0  0  0  0  0  0  0  0  0  0  0
    8.6835   -1.2389   20.8742 C   0  0  0  0  0  0  0  0  0  0  0  0
    8.6982   -1.9851   20.0773 H   0  0  0  0  0  0  0  0  0  0  0  0
    9.4425   -0.4882   20.5996 H   0  0  0  0  0  0  0  0  0  0  0  0
    5.4455    0.6435   20.2013 C   0  0  0  0  0  0  0  0  0  0  0  0
    5.0045    0.6460   21.1986 H   0  0  0  0  0  0  0  0  0  0  0  0
    4.8354    1.2826   19.1201 C   0  0  0  0  0  0  0  0  0  0  0  0
    3.8962    1.8065   19.2478 H   0  0  0  0  0  0  0  0  0  0  0  0
  1  2  1  0
  2  3  2  0
  3  4  1  0
  4  5  1  0
  4  6  2  0
  6  7  1  0
  7  8  1  0
  8  9  2  0
  9 10  1  0
 10 11  1  0
 10 12  1  0
 10 13  1  0
 13 14  1  0
 13 15  1  0
 13 16  1  0
 16 17  1  0
 17 18  1  0
 17 19  1  0
 17 20  1  0
 20 21  1  0
 20 22  1  0
 20 23  1  0
 23 24  1  0
 23 25  1  0
 23 26  1  0
 26 27  1  0
 26 28  1  0
  9 29  1  0
 29 30  1  0
 29 31  1  0
 29 32  1  0
 32 33  1  0
 32 34  1  0
  6 35  1  0
 35 36  1  0
 35 37  2  0
 37 38  1  0
 37  2  1  0
 32  7  1  0
 26 16  1  0
M  END
>  <cnnaffinity>  (1) 
4.79946

>  <plip>  (1) 
-0.07142857142857142

>  <filename>  (1) 
[H][c]1[n][c]([H])[c]([N]2[N]=[C]([C]([H])([H])[C]([H])([H])[N]3[C]([H])([H])[C]([H])([H])[C]([H])([H])[C]3([H])[H])[C]([H])([H])[C]2([H])[H])[c]([H])[c]1[H]

>  <combo1>  (1) 
-0.4676758688348998

$$$$
