
     RDKit          3D

 22 23  0  0  0  0  0  0  0  0999 V2000
   11.7491    1.3664   21.6573 H   0  0  0  0  0  0  0  0  0  0  0  0
   10.7449    1.3315   22.0770 C   0  0  0  0  0  0  0  0  0  0  0  0
    9.9112    0.4679   21.4829 N   0  0  0  0  0  0  0  0  0  0  0  0
    8.6777    0.3702   21.9825 C   0  0  0  0  0  0  0  0  0  0  0  0
    7.4912   -0.8952   21.1642 S   0  0  0  0  0  0  0  0  0  0  0  0
    8.2953   -1.8929   20.4665 O   0  0  0  0  0  0  0  0  0  0  0  0
    6.4594   -1.2886   22.1115 O   0  0  0  0  0  0  0  0  0  0  0  0
    6.6194   -0.0124   19.8967 C   0  0  0  0  0  0  0  0  0  0  0  0
    7.1819    0.0143   18.6273 C   0  0  0  0  0  0  0  0  0  0  0  0
    8.1338   -0.4608   18.3991 H   0  0  0  0  0  0  0  0  0  0  0  0
    6.5839    0.6517   17.6239 N   0  0  0  0  0  0  0  0  0  0  0  0
    5.4231    1.2747   17.8646 C   0  0  0  0  0  0  0  0  0  0  0  0
    4.9515    1.7666   17.0142 H   0  0  0  0  0  0  0  0  0  0  0  0
    4.8175    1.3052   19.1243 C   0  0  0  0  0  0  0  0  0  0  0  0
    3.8862    1.8398   19.2552 H   0  0  0  0  0  0  0  0  0  0  0  0
    5.4255    0.6474   20.1854 C   0  0  0  0  0  0  0  0  0  0  0  0
    4.9870    0.6338   21.1869 H   0  0  0  0  0  0  0  0  0  0  0  0
    8.2077    1.0934   22.9966 N   0  0  0  0  0  0  0  0  0  0  0  0
    9.0529    1.9586   23.5749 C   0  0  0  0  0  0  0  0  0  0  0  0
    8.6368    2.5233   24.4073 H   0  0  0  0  0  0  0  0  0  0  0  0
   10.3660    2.1196   23.1558 C   0  0  0  0  0  0  0  0  0  0  0  0
   11.0448    2.8185   23.6285 H   0  0  0  0  0  0  0  0  0  0  0  0
  1  2  1  0
  2  3  2  0
  3  4  1  0
  4  5  1  0
  5  6  2  0
  5  7  2  0
  5  8  1  0
  8  9  2  0
  9 10  1  0
  9 11  1  0
 11 12  2  0
 12 13  1  0
 12 14  1  0
 14 15  1  0
 14 16  2  0
 16 17  1  0
  4 18  2  0
 18 19  1  0
 19 20  1  0
 19 21  2  0
 21 22  1  0
 21  2  1  0
 16  8  1  0
M  END
>  <cnnaffinity>  (1) 
4.31043

>  <plip>  (1) 
-0.07142857142857142

>  <filename>  (1) 
[H][c]1[n][c]([S](=[O])(=[O])[c]2[c]([H])[n][c]([H])[c]([H])[c]2[H])[n][c]([H])[c]1[H]

>  <combo1>  (1) 
-0.46388004806652333

$$$$
