
     RDKit          3D

 34 35  0  0  0  0  0  0  0  0999 V2000
    5.6149   -4.3449   26.6722 H   0  0  0  0  0  0  0  0  0  0  0  0
    6.5765   -4.5019   26.6301 O   0  0  0  0  0  0  0  0  0  0  0  0
    6.7861   -3.9434   25.4282 C   0  0  0  0  0  0  0  0  0  0  0  0
    5.8375   -3.4919   24.8255 O   0  0  0  0  0  0  0  0  0  0  0  0
    8.1932   -3.9097   24.9708 C   0  0  0  0  0  0  0  0  0  0  0  0
    8.6936   -3.3021   23.8277 C   0  0  0  0  0  0  0  0  0  0  0  0
    7.9951   -2.5958   22.7220 C   0  0  0  0  0  0  0  0  0  0  0  0
    6.9546   -2.9464   22.6444 H   0  0  0  0  0  0  0  0  0  0  0  0
    8.4702   -2.8149   21.7547 H   0  0  0  0  0  0  0  0  0  0  0  0
    8.0983   -1.1459   22.9363 N   0  0  0  0  0  0  0  0  0  0  0  0
    7.6477   -0.8011   23.7691 H   0  0  0  0  0  0  0  0  0  0  0  0
    7.5669   -0.3282   21.9842 C   0  0  0  0  0  0  0  0  0  0  0  0
    7.3964   -0.7060   20.7928 N   0  0  0  0  0  0  0  0  0  0  0  0
    6.7021    0.0395   19.8304 C   0  0  0  0  0  0  0  0  0  0  0  0
    7.2063    0.0776   18.5067 C   0  0  0  0  0  0  0  0  0  0  0  0
    8.1353   -0.4520   18.2951 H   0  0  0  0  0  0  0  0  0  0  0  0
    6.6150    0.7224   17.4955 N   0  0  0  0  0  0  0  0  0  0  0  0
    5.4538    1.3531   17.7595 C   0  0  0  0  0  0  0  0  0  0  0  0
    4.9957    1.8813   16.9289 H   0  0  0  0  0  0  0  0  0  0  0  0
    4.8400    1.3345   19.0143 C   0  0  0  0  0  0  0  0  0  0  0  0
    3.9104    1.8653   19.1770 H   0  0  0  0  0  0  0  0  0  0  0  0
    5.4662    0.6561   20.0673 C   0  0  0  0  0  0  0  0  0  0  0  0
    5.0225    0.5823   21.0604 H   0  0  0  0  0  0  0  0  0  0  0  0
    7.3104    0.8773   22.6079 N   0  0  0  0  0  0  0  0  0  0  0  0
    7.1494    1.5860   21.9082 H   0  0  0  0  0  0  0  0  0  0  0  0
    8.1679    1.0643   23.1050 H   0  0  0  0  0  0  0  0  0  0  0  0
   10.0918   -3.3504   23.9614 C   0  0  0  0  0  0  0  0  0  0  0  0
   11.0851   -2.7535   23.0256 C   0  0  0  0  0  0  0  0  0  0  0  0
   10.7583   -2.8523   21.9923 H   0  0  0  0  0  0  0  0  0  0  0  0
   11.1595   -1.6808   23.2127 H   0  0  0  0  0  0  0  0  0  0  0  0
   12.0620   -3.2171   23.1276 H   0  0  0  0  0  0  0  0  0  0  0  0
   10.4361   -3.9885   25.0722 N   0  0  0  0  0  0  0  0  0  0  0  0
    9.2903   -4.3139   25.6779 N   0  0  0  0  0  0  0  0  0  0  0  0
    9.3328   -4.8197   26.5556 H   0  0  0  0  0  0  0  0  0  0  0  0
  1  2  1  0
  2  3  1  0
  3  4  2  0
  3  5  1  0
  5  6  2  0
  6  7  1  0
  7  8  1  0
  7  9  1  0
  7 10  1  0
 10 11  1  0
 10 12  1  0
 12 13  2  3
 13 14  1  0
 14 15  2  0
 15 16  1  0
 15 17  1  0
 17 18  2  0
 18 19  1  0
 18 20  1  0
 20 21  1  0
 20 22  2  0
 22 23  1  0
 12 24  1  0
 24 25  1  0
 24 26  1  0
  6 27  1  0
 27 28  1  0
 28 29  1  0
 28 30  1  0
 28 31  1  0
 27 32  2  0
 32 33  1  0
 33 34  1  0
 33  5  1  0
 22 14  1  0
M  END
>  <cnnaffinity>  (1) 
4.93921

>  <plip>  (1) 
-0.10714285714285714

>  <filename>  (1) 
[H][O][C](=[O])[c]1[c]([C]([H])([H])[N]([H])[C](=[N][c]2[c]([H])[n][c]([H])[c]([H])[c]2[H])[N]([H])[H])[c]([C]([H])([H])[H])[n][n]1[H]

>  <combo1>  (1) 
-0.6431303216478436

$$$$
