
     RDKit          3D

 31 32  0  0  0  0  0  0  0  0999 V2000
    9.3573   -1.7401   22.4908 H   0  0  0  0  0  0  0  0  0  0  0  0
    9.1241   -1.1061   23.3387 C   0  0  0  0  0  0  0  0  0  0  0  0
    8.1531   -0.1921   23.2835 C   0  0  0  0  0  0  0  0  0  0  0  0
    7.3398    0.0569   22.2179 O   0  0  0  0  0  0  0  0  0  0  0  0
    7.3808   -0.7405   21.0128 C   0  0  2  0  0  0  0  0  0  0  0  0
    8.4256   -0.8893   20.7055 H   0  0  0  0  0  0  0  0  0  0  0  0
    6.6755    0.0382   19.9243 C   0  0  0  0  0  0  0  0  0  0  0  0
    7.1727    0.0693   18.6172 C   0  0  0  0  0  0  0  0  0  0  0  0
    8.1149   -0.4202   18.3723 H   0  0  0  0  0  0  0  0  0  0  0  0
    6.5639    0.6675   17.5843 N   0  0  0  0  0  0  0  0  0  0  0  0
    5.4029    1.2884   17.8388 C   0  0  0  0  0  0  0  0  0  0  0  0
    4.9216    1.7798   16.9946 H   0  0  0  0  0  0  0  0  0  0  0  0
    4.8075    1.3097   19.1039 C   0  0  0  0  0  0  0  0  0  0  0  0
    3.8749    1.8400   19.2562 H   0  0  0  0  0  0  0  0  0  0  0  0
    5.4421    0.6630   20.1620 C   0  0  0  0  0  0  0  0  0  0  0  0
    5.0128    0.6387   21.1644 H   0  0  0  0  0  0  0  0  0  0  0  0
    6.7017   -2.0946   21.2254 C   0  0  0  0  0  0  0  0  0  0  0  0
    7.2130   -2.6998   21.9816 H   0  0  0  0  0  0  0  0  0  0  0  0
    6.6836   -2.6514   20.2824 H   0  0  0  0  0  0  0  0  0  0  0  0
    5.6615   -1.9428   21.5382 H   0  0  0  0  0  0  0  0  0  0  0  0
    7.8230    0.6872   24.4824 C   0  0  0  0  0  0  0  0  0  0  0  0
    6.8946    0.3169   24.9401 H   0  0  0  0  0  0  0  0  0  0  0  0
    7.6176    1.7117   24.1592 H   0  0  0  0  0  0  0  0  0  0  0  0
    8.9370    0.6590   25.5464 C   0  0  0  0  0  0  0  0  0  0  0  0
    8.5926    1.0908   26.4933 H   0  0  0  0  0  0  0  0  0  0  0  0
    9.7910    1.2712   25.2335 H   0  0  0  0  0  0  0  0  0  0  0  0
    9.4371   -0.6932   25.7885 N   0  0  0  0  0  0  0  0  0  0  0  0
    8.6402   -1.2644   26.0572 H   0  0  0  0  0  0  0  0  0  0  0  0
    9.9949   -1.2624   24.5657 C   0  0  0  0  0  0  0  0  0  0  0  0
   10.2254   -2.3194   24.7380 H   0  0  0  0  0  0  0  0  0  0  0  0
   10.9682   -0.7853   24.3867 H   0  0  0  0  0  0  0  0  0  0  0  0
  1  2  1  0
  2  3  2  0
  3  4  1  0
  4  5  1  0
  5  6  1  6
  5  7  1  0
  7  8  2  0
  8  9  1  0
  8 10  1  0
 10 11  2  0
 11 12  1  0
 11 13  1  0
 13 14  1  0
 13 15  2  0
 15 16  1  0
  5 17  1  0
 17 18  1  0
 17 19  1  0
 17 20  1  0
  3 21  1  0
 21 22  1  0
 21 23  1  0
 21 24  1  0
 24 25  1  0
 24 26  1  0
 24 27  1  0
 27 28  1  0
 27 29  1  0
 29 30  1  0
 29 31  1  0
 29  2  1  0
 15  7  1  0
M  END
>  <cnnaffinity>  (1) 
4.00935

>  <plip>  (1) 
-0.03571428571428571

>  <filename>  (1) 
[H][C]1=[C]([O][C@]([H])([c]2[c]([H])[n][c]([H])[c]([H])[c]2[H])[C]([H])([H])[H])[C]([H])([H])[C]([H])([H])[N]([H])[C]1([H])[H]

>  <combo1>  (1) 
-0.23365964734868108

$$$$
