
     RDKit          3D

 33 34  0  0  0  0  0  0  0  0999 V2000
    4.9413    1.8035   16.9690 H   0  0  0  0  0  0  0  0  0  0  0  0
    5.3956    1.2784   17.8061 C   0  0  0  0  0  0  0  0  0  0  0  0
    6.5443    0.6399   17.5532 N   0  0  0  0  0  0  0  0  0  0  0  0
    7.1528    0.0319   18.5879 C   0  0  0  0  0  0  0  0  0  0  0  0
    8.1008   -0.4353   18.3306 H   0  0  0  0  0  0  0  0  0  0  0  0
    6.6587    0.0024   19.9046 C   0  0  0  0  0  0  0  0  0  0  0  0
    7.3506   -0.7486   21.0754 C   0  0  0  0  0  0  0  0  0  0  0  0
    7.4438    0.1035   22.3777 C   0  0  0  0  0  0  0  0  0  0  0  0
    7.1655   -0.4616   23.6377 C   0  0  0  0  0  0  0  0  0  0  0  0
    6.8405   -1.4941   23.6962 H   0  0  0  0  0  0  0  0  0  0  0  0
    7.2680    0.2771   24.8209 C   0  0  0  0  0  0  0  0  0  0  0  0
    7.0285   -0.1962   25.7686 H   0  0  0  0  0  0  0  0  0  0  0  0
    7.6671    1.6118   24.7715 C   0  0  0  0  0  0  0  0  0  0  0  0
    7.7167    2.2102   25.6791 H   0  0  0  0  0  0  0  0  0  0  0  0
    7.9847    2.1788   23.5390 C   0  0  0  0  0  0  0  0  0  0  0  0
    8.2853    3.2230   23.4725 H   0  0  0  0  0  0  0  0  0  0  0  0
    7.9015    1.4488   22.3429 C   0  0  0  0  0  0  0  0  0  0  0  0
    8.2481    2.1781   21.0713 C   0  0  0  0  0  0  0  0  0  0  0  0
    8.8443    3.0723   21.2676 H   0  0  0  0  0  0  0  0  0  0  0  0
    8.8062    1.5550   20.3730 H   0  0  0  0  0  0  0  0  0  0  0  0
    7.3246    2.4934   20.5775 H   0  0  0  0  0  0  0  0  0  0  0  0
    6.4871   -2.0219   21.2589 C   0  0  0  0  0  0  0  0  0  0  0  0
    6.3594   -2.5209   20.2936 H   0  0  0  0  0  0  0  0  0  0  0  0
    5.4895   -1.7752   21.6371 H   0  0  0  0  0  0  0  0  0  0  0  0
    6.9429   -2.7495   21.9401 H   0  0  0  0  0  0  0  0  0  0  0  0
    8.7920   -1.1915   20.7538 C   0  0  0  0  0  0  0  0  0  0  0  0
    8.8211   -1.8688   19.9043 H   0  0  0  0  0  0  0  0  0  0  0  0
    9.4607   -0.3557   20.5393 H   0  0  0  0  0  0  0  0  0  0  0  0
    9.2229   -1.7195   21.6104 H   0  0  0  0  0  0  0  0  0  0  0  0
    5.4325    0.6513   20.1274 C   0  0  0  0  0  0  0  0  0  0  0  0
    5.0079    0.6840   21.1355 H   0  0  0  0  0  0  0  0  0  0  0  0
    4.7923    1.3063   19.0711 C   0  0  0  0  0  0  0  0  0  0  0  0
    3.8606    1.8489   19.2135 H   0  0  0  0  0  0  0  0  0  0  0  0
  1  2  1  0
  2  3  2  0
  3  4  1  0
  4  5  1  0
  4  6  2  0
  6  7  1  0
  7  8  1  0
  8  9  2  0
  9 10  1  0
  9 11  1  0
 11 12  1  0
 11 13  2  0
 13 14  1  0
 13 15  1  0
 15 16  1  0
 15 17  2  0
 17 18  1  0
 18 19  1  0
 18 20  1  0
 18 21  1  0
  7 22  1  0
 22 23  1  0
 22 24  1  0
 22 25  1  0
  7 26  1  0
 26 27  1  0
 26 28  1  0
 26 29  1  0
  6 30  1  0
 30 31  1  0
 30 32  2  0
 32 33  1  0
 32  2  1  0
 17  8  1  0
M  END
>  <cnnaffinity>  (1) 
4.17119

>  <plip>  (1) 
-0.07142857142857142

>  <filename>  (1) 
[H][c]1[n][c]([H])[c]([C]([c]2[c]([H])[c]([H])[c]([H])[c]([H])[c]2[C]([H])([H])[H])([C]([H])([H])[H])[C]([H])([H])[H])[c]([H])[c]1[H]

>  <combo1>  (1) 
-0.46999662870808295

$$$$
