
     RDKit          3D

 36 38  0  0  0  0  0  0  0  0999 V2000
    6.6640   -0.9364   22.1610 O   0  0  0  0  0  0  0  0  0  0  0  0
    7.4253   -0.7351   20.9711 C   0  0  0  0  0  0  0  0  0  0  0  0
    6.6253   -0.0071   19.8998 C   0  0  0  0  0  0  0  0  0  0  0  0
    5.4184    0.6525   20.1467 C   0  0  0  0  0  0  0  0  0  0  0  0
    4.7943    1.3179   19.0921 C   0  0  0  0  0  0  0  0  0  0  0  0
    5.3935    1.2977   17.8288 C   0  0  0  0  0  0  0  0  0  0  0  0
    6.5560    0.6782   17.5828 N   0  0  0  0  0  0  0  0  0  0  0  0
    7.1528    0.0527   18.6020 C   0  0  0  0  0  0  0  0  0  0  0  0
    8.1073   -0.4226   18.3810 H   0  0  0  0  0  0  0  0  0  0  0  0
    4.9225    1.7905   16.9819 H   0  0  0  0  0  0  0  0  0  0  0  0
    3.8670    1.8510   19.2453 H   0  0  0  0  0  0  0  0  0  0  0  0
    5.0025    0.6383   21.1560 H   0  0  0  0  0  0  0  0  0  0  0  0
    8.7336   -0.0233   21.2766 C   0  0  0  0  0  0  0  0  0  0  0  0
    9.8932   -0.4229   20.7996 N   0  0  0  0  0  0  0  0  0  0  0  0
   10.8067    0.4950   21.2389 C   0  0  0  0  0  0  0  0  0  0  0  0
   10.1898    1.4735   21.9560 C   0  0  0  0  0  0  0  0  0  0  0  0
    8.8506    1.1464   21.9732 N   0  0  0  0  0  0  0  0  0  0  0  0
    7.8265    1.8570   22.7247 C   0  0  0  0  0  0  0  0  0  0  0  0
    7.7230    1.4083   24.1848 C   0  0  0  0  0  0  0  0  0  0  0  0
    8.9517    1.8117   25.0490 C   0  0  0  0  0  0  0  0  0  0  0  0
    8.3280    2.2491   26.3489 C   0  0  0  0  0  0  0  0  0  0  0  0
    7.0033    2.3498   26.2816 C   0  0  0  0  0  0  0  0  0  0  0  0
    6.4827    1.9965   24.9126 C   0  0  0  0  0  0  0  0  0  0  0  0
    6.0822    2.8906   24.4111 H   0  0  0  0  0  0  0  0  0  0  0  0
    5.6495    1.2797   24.9436 H   0  0  0  0  0  0  0  0  0  0  0  0
    6.3609    2.6849   27.0950 H   0  0  0  0  0  0  0  0  0  0  0  0
    8.9111    2.4923   27.2247 H   0  0  0  0  0  0  0  0  0  0  0  0
    9.5330    2.6348   24.6032 H   0  0  0  0  0  0  0  0  0  0  0  0
    9.6722    0.9899   25.1579 H   0  0  0  0  0  0  0  0  0  0  0  0
    7.6310    0.3182   24.2059 H   0  0  0  0  0  0  0  0  0  0  0  0
    8.0716    2.9254   22.6839 H   0  0  0  0  0  0  0  0  0  0  0  0
    6.8743    1.7351   22.2048 H   0  0  0  0  0  0  0  0  0  0  0  0
   10.5736    2.3479   22.4576 H   0  0  0  0  0  0  0  0  0  0  0  0
   11.8514    0.4034   20.9905 H   0  0  0  0  0  0  0  0  0  0  0  0
    7.7604   -1.7040   20.5676 H   0  0  0  0  0  0  0  0  0  0  0  0
    5.9603   -1.5695   21.9698 H   0  0  0  0  0  0  0  0  0  0  0  0
  1  2  1  0
  2  3  1  0
  3  4  2  0
  4  5  1  0
  5  6  2  0
  6  7  1  0
  7  8  2  0
  8  9  1  0
  6 10  1  0
  5 11  1  0
  4 12  1  0
  2 13  1  0
 13 14  2  0
 14 15  1  0
 15 16  2  0
 16 17  1  0
 17 18  1  0
 18 19  1  0
 19 20  1  0
 20 21  1  0
 21 22  2  0
 22 23  1  0
 23 24  1  0
 23 25  1  0
 22 26  1  0
 21 27  1  0
 20 28  1  0
 20 29  1  0
 19 30  1  0
 18 31  1  0
 18 32  1  0
 16 33  1  0
 15 34  1  0
  2 35  1  0
  1 36  1  0
  8  3  1  0
 17 13  1  0
 23 19  1  0
M  END
>  <cnnaffinity>  (1) 
4.68405

>  <plip>  (1) 
-0.10714285714285714

>  <filename>  (1) 
[H][O][C]([H])([c]1[c]([H])[n][c]([H])[c]([H])[c]1[H])[c]1[n][c]([H])[c]([H])[n]1[C]([H])([H])[C]1([H])[C]([H])([H])[C]([H])=[C]([H])[C]1([H])[H]

>  <combo1>  (1) 
-0.6552046247664703

$$$$
