
     RDKit          3D

 32 33  0  0  0  0  0  0  0  0999 V2000
    5.2882   -3.6822   21.4365 C   0  0  0  0  0  0  0  0  0  0  0  0
    6.6501   -3.8592   22.0702 C   0  0  0  0  0  0  0  0  0  0  0  0
    6.8563   -4.8188   23.0645 C   0  0  0  0  0  0  0  0  0  0  0  0
    5.8181   -5.5856   23.4567 F   0  0  0  0  0  0  0  0  0  0  0  0
    8.0802   -5.0426   23.6841 C   0  0  0  0  0  0  0  0  0  0  0  0
    9.1611   -4.2503   23.3148 C   0  0  0  0  0  0  0  0  0  0  0  0
    9.0108   -3.2822   22.3180 C   0  0  0  0  0  0  0  0  0  0  0  0
    7.7784   -3.0871   21.6981 C   0  0  0  0  0  0  0  0  0  0  0  0
    7.6641   -2.1238   20.6575 N   0  0  0  0  0  0  0  0  0  0  0  0
    7.4148   -0.7236   21.0456 C   0  0  0  0  0  0  0  0  0  0  0  0
    8.7571   -0.0278   21.3097 C   0  0  0  0  0  0  0  0  0  0  0  0
    9.2299   -0.4079   22.2227 H   0  0  0  0  0  0  0  0  0  0  0  0
    9.4365   -0.2178   20.4725 H   0  0  0  0  0  0  0  0  0  0  0  0
    8.6450    1.0550   21.4241 H   0  0  0  0  0  0  0  0  0  0  0  0
    6.6311   -0.0493   19.9378 C   0  0  0  0  0  0  0  0  0  0  0  0
    5.4268    0.6407   20.1507 C   0  0  0  0  0  0  0  0  0  0  0  0
    4.8208    1.2922   19.0766 C   0  0  0  0  0  0  0  0  0  0  0  0
    5.4423    1.2493   17.8271 C   0  0  0  0  0  0  0  0  0  0  0  0
    6.5797    0.5778   17.5960 N   0  0  0  0  0  0  0  0  0  0  0  0
    7.1444   -0.0586   18.6323 C   0  0  0  0  0  0  0  0  0  0  0  0
    8.0719   -0.5895   18.4025 H   0  0  0  0  0  0  0  0  0  0  0  0
    5.0247    1.7960   16.9829 H   0  0  0  0  0  0  0  0  0  0  0  0
    3.9034    1.8521   19.1982 H   0  0  0  0  0  0  0  0  0  0  0  0
    4.9729    0.6765   21.1441 H   0  0  0  0  0  0  0  0  0  0  0  0
    6.8201   -0.6905   21.9762 H   0  0  0  0  0  0  0  0  0  0  0  0
    6.9443   -2.4352   20.0170 H   0  0  0  0  0  0  0  0  0  0  0  0
    9.8451   -2.6809   21.9719 H   0  0  0  0  0  0  0  0  0  0  0  0
   10.1226   -4.3915   23.7967 H   0  0  0  0  0  0  0  0  0  0  0  0
    8.1407   -5.8287   24.4294 H   0  0  0  0  0  0  0  0  0  0  0  0
    5.3009   -4.0520   20.4018 H   0  0  0  0  0  0  0  0  0  0  0  0
    4.5216   -4.2307   21.9879 H   0  0  0  0  0  0  0  0  0  0  0  0
    4.9984   -2.6235   21.4225 H   0  0  0  0  0  0  0  0  0  0  0  0
  1  2  1  0
  2  3  2  0
  3  4  1  0
  3  5  1  0
  5  6  2  0
  6  7  1  0
  7  8  2  0
  8  9  1  0
  9 10  1  0
 10 11  1  0
 11 12  1  0
 11 13  1  0
 11 14  1  0
 10 15  1  0
 15 16  2  0
 16 17  1  0
 17 18  2  0
 18 19  1  0
 19 20  2  0
 20 21  1  0
 18 22  1  0
 17 23  1  0
 16 24  1  0
 10 25  1  0
  9 26  1  0
  7 27  1  0
  6 28  1  0
  5 29  1  0
  1 30  1  0
  1 31  1  0
  1 32  1  0
  8  2  1  0
 20 15  1  0
M  END
>  <cnnaffinity>  (1) 
4.37913

>  <plip>  (1) 
-0.1

>  <filename>  (1) 
[H][c]1[n][c]([H])[c]([C]([H])([N]([H])[c]2[c]([H])[c]([H])[c]([H])[c]([F])[c]2[C]([H])([H])[H])[C]([H])([H])[H])[c]([H])[c]1[H]

>  <combo1>  (1) 
-0.6338683202626297

$$$$
