
     RDKit          3D

 48 51  0  0  0  0  0  0  0  0999 V2000
    3.9545    0.4566   26.0409 F   0  0  0  0  0  0  0  0  0  0  0  0
    4.9439   -0.4505   25.9316 C   0  0  0  0  0  0  0  0  0  0  0  0
    4.6247   -1.8076   25.9648 C   0  0  0  0  0  0  0  0  0  0  0  0
    5.6588   -2.7421   25.8172 C   0  0  0  0  0  0  0  0  0  0  0  0
    6.9906   -2.3314   25.6439 C   0  0  0  0  0  0  0  0  0  0  0  0
    8.0712   -3.3537   25.3350 C   0  0  0  0  0  0  0  0  0  0  0  0
    8.1076   -3.7452   23.8704 C   0  0  0  0  0  0  0  0  0  0  0  0
    8.2975   -5.0332   23.5833 N   0  0  0  0  0  0  0  0  0  0  0  0
    8.2194   -5.3641   22.2934 C   0  0  0  0  0  0  0  0  0  0  0  0
    7.9768   -4.4583   21.2916 C   0  0  0  0  0  0  0  0  0  0  0  0
    7.9377   -3.1232   21.7053 C   0  0  0  0  0  0  0  0  0  0  0  0
    7.8354   -2.1103   20.8142 N   0  0  0  0  0  0  0  0  0  0  0  0
    7.3357   -0.7926   21.2120 C   0  0  0  0  0  0  0  0  0  0  0  0
    6.6182   -0.1738   20.0365 C   0  0  0  0  0  0  0  0  0  0  0  0
    5.4201    0.5413   20.1964 C   0  0  0  0  0  0  0  0  0  0  0  0
    4.8761    1.2147   19.0990 C   0  0  0  0  0  0  0  0  0  0  0  0
    5.5406    1.1380   17.8697 C   0  0  0  0  0  0  0  0  0  0  0  0
    6.6531    0.4147   17.6787 N   0  0  0  0  0  0  0  0  0  0  0  0
    7.1590   -0.2304   18.7391 C   0  0  0  0  0  0  0  0  0  0  0  0
    8.0685   -0.7989   18.5383 H   0  0  0  0  0  0  0  0  0  0  0  0
    5.1515    1.6728   17.0052 H   0  0  0  0  0  0  0  0  0  0  0  0
    3.9670    1.8001   19.1908 H   0  0  0  0  0  0  0  0  0  0  0  0
    4.9208    0.5686   21.1689 H   0  0  0  0  0  0  0  0  0  0  0  0
    8.4825    0.0794   21.7919 C   0  0  0  0  0  0  0  0  0  0  0  0
    8.1155    1.4993   22.2747 C   0  0  0  0  0  0  0  0  0  0  0  0
    9.4730    2.2254   22.2827 C   0  0  0  0  0  0  0  0  0  0  0  0
   10.3537    1.4534   21.4758 O   0  0  0  0  0  0  0  0  0  0  0  0
    9.6540    0.3889   20.8577 C   0  0  0  0  0  0  0  0  0  0  0  0
    9.3064    0.7158   19.8668 H   0  0  0  0  0  0  0  0  0  0  0  0
   10.3440   -0.4509   20.7203 H   0  0  0  0  0  0  0  0  0  0  0  0
    9.3915    3.2478   21.8844 H   0  0  0  0  0  0  0  0  0  0  0  0
    9.9081    2.2966   23.2888 H   0  0  0  0  0  0  0  0  0  0  0  0
    7.4472    1.9933   21.5577 H   0  0  0  0  0  0  0  0  0  0  0  0
    7.6259    1.5169   23.2550 H   0  0  0  0  0  0  0  0  0  0  0  0
    8.8789   -0.4925   22.6388 H   0  0  0  0  0  0  0  0  0  0  0  0
    6.6028   -0.9124   22.0309 H   0  0  0  0  0  0  0  0  0  0  0  0
    7.5364   -2.4168   19.9072 H   0  0  0  0  0  0  0  0  0  0  0  0
    7.9872   -2.7703   22.9748 N   0  0  0  0  0  0  0  0  0  0  0  0
    7.8163   -4.7789   20.2797 H   0  0  0  0  0  0  0  0  0  0  0  0
    8.3467   -6.4250   22.0723 H   0  0  0  0  0  0  0  0  0  0  0  0
    7.9226   -4.2649   25.9274 H   0  0  0  0  0  0  0  0  0  0  0  0
    9.0564   -2.9457   25.5974 H   0  0  0  0  0  0  0  0  0  0  0  0
    7.2709   -0.9570   25.6069 C   0  0  0  0  0  0  0  0  0  0  0  0
    6.2531   -0.0066   25.7503 C   0  0  0  0  0  0  0  0  0  0  0  0
    6.4540    1.0621   25.7060 H   0  0  0  0  0  0  0  0  0  0  0  0
    8.2989   -0.6324   25.4476 H   0  0  0  0  0  0  0  0  0  0  0  0
    5.4277   -3.8067   25.8264 H   0  0  0  0  0  0  0  0  0  0  0  0
    3.5882   -2.1102   26.0892 H   0  0  0  0  0  0  0  0  0  0  0  0
  1  2  1  0
  2  3  2  0
  3  4  1  0
  4  5  2  0
  5  6  1  0
  6  7  1  0
  7  8  2  0
  8  9  1  0
  9 10  2  0
 10 11  1  0
 11 12  1  0
 12 13  1  0
 13 14  1  0
 14 15  2  0
 15 16  1  0
 16 17  2  0
 17 18  1  0
 18 19  2  0
 19 20  1  0
 17 21  1  0
 16 22  1  0
 15 23  1  0
 13 24  1  0
 24 25  1  0
 25 26  1  0
 26 27  1  0
 27 28  1  0
 28 29  1  0
 28 30  1  0
 26 31  1  0
 26 32  1  0
 25 33  1  0
 25 34  1  0
 24 35  1  0
 13 36  1  0
 12 37  1  0
 11 38  2  0
 10 39  1  0
  9 40  1  0
  6 41  1  0
  6 42  1  0
  5 43  1  0
 43 44  2  0
 44 45  1  0
 43 46  1  0
  4 47  1  0
  3 48  1  0
 44  2  1  0
 38  7  1  0
 19 14  1  0
 28 24  1  0
M  END
>  <cnnaffinity>  (1) 
5.84079

>  <plip>  (1) 
-0.06896551724137931

>  <filename>  (1) 
[H][c]1[n][c]([C]([H])([H])[c]2[c]([H])[c]([H])[c]([F])[c]([H])[c]2[H])[n][c]([N]([H])[C]([H])([c]2[c]([H])[n][c]([H])[c]([H])[c]2[H])[C]2([H])[C]([H])([H])[O][C]([H])([H])[C]2([H])[H])[c]1[H]

>  <combo1>  (1) 
-0.3684472880017745

$$$$
