
     RDKit          3D

 40 42  0  0  0  0  0  0  0  0999 V2000
    3.9076    4.0485   25.0807 C   0  0  0  0  0  0  0  0  0  0  0  0
    3.8259    2.5995   26.1623 S   0  0  0  0  0  0  0  0  0  0  0  0
    5.4607    1.9698   25.8367 C   0  0  0  0  0  0  0  0  0  0  0  0
    6.5539    2.4046   26.5971 C   0  0  0  0  0  0  0  0  0  0  0  0
    7.8437    1.9565   26.2950 C   0  0  0  0  0  0  0  0  0  0  0  0
    8.0930    1.0782   25.2265 C   0  0  0  0  0  0  0  0  0  0  0  0
    9.5201    0.6454   24.9582 C   0  0  0  0  0  0  0  0  0  0  0  0
    9.5630   -0.3804   24.5783 H   0  0  0  0  0  0  0  0  0  0  0  0
    9.9852    1.2904   24.2057 H   0  0  0  0  0  0  0  0  0  0  0  0
   10.1107    0.7030   25.8779 H   0  0  0  0  0  0  0  0  0  0  0  0
    6.9791    0.6627   24.4616 C   0  0  0  0  0  0  0  0  0  0  0  0
    7.1467   -0.1456   23.2915 N   0  0  0  0  0  0  0  0  0  0  0  0
    7.7800    0.2807   22.1512 C   0  0  0  0  0  0  0  0  0  0  0  0
    8.5339    1.2194   22.0580 O   0  0  0  0  0  0  0  0  0  0  0  0
    7.3890   -0.6962   21.0285 C   0  0  0  0  0  0  0  0  0  0  0  0
    6.6361   -0.0238   19.8811 C   0  0  0  0  0  0  0  0  0  0  0  0
    5.4308    0.6439   20.1225 C   0  0  0  0  0  0  0  0  0  0  0  0
    4.7960    1.3095   19.0737 C   0  0  0  0  0  0  0  0  0  0  0  0
    5.3976    1.2926   17.8096 C   0  0  0  0  0  0  0  0  0  0  0  0
    6.5533    0.6602   17.5510 N   0  0  0  0  0  0  0  0  0  0  0  0
    7.1511    0.0311   18.5742 C   0  0  0  0  0  0  0  0  0  0  0  0
    8.1113   -0.4305   18.3377 H   0  0  0  0  0  0  0  0  0  0  0  0
    4.9336    1.8088   16.9694 H   0  0  0  0  0  0  0  0  0  0  0  0
    3.8705    1.8549   19.2292 H   0  0  0  0  0  0  0  0  0  0  0  0
    5.0077    0.6548   21.1281 H   0  0  0  0  0  0  0  0  0  0  0  0
    6.6075   -1.6800   21.7582 N   0  0  0  0  0  0  0  0  0  0  0  0
    6.0010   -2.8477   21.1459 C   0  0  0  0  0  0  0  0  0  0  0  0
    6.2512   -2.8201   20.0809 H   0  0  0  0  0  0  0  0  0  0  0  0
    6.3796   -3.7774   21.5851 H   0  0  0  0  0  0  0  0  0  0  0  0
    4.9119   -2.8396   21.2550 H   0  0  0  0  0  0  0  0  0  0  0  0
    6.5901   -1.4114   23.1002 C   0  0  0  0  0  0  0  0  0  0  0  0
    6.2192   -2.1412   23.9874 O   0  0  0  0  0  0  0  0  0  0  0  0
    8.3116   -1.1422   20.6274 H   0  0  0  0  0  0  0  0  0  0  0  0
    5.6834    1.0850   24.7771 C   0  0  0  0  0  0  0  0  0  0  0  0
    4.8538    0.7481   24.1673 H   0  0  0  0  0  0  0  0  0  0  0  0
    8.6907    2.2978   26.8876 H   0  0  0  0  0  0  0  0  0  0  0  0
    6.3890    3.0978   27.4168 H   0  0  0  0  0  0  0  0  0  0  0  0
    4.7064    4.7260   25.3920 H   0  0  0  0  0  0  0  0  0  0  0  0
    4.0803    3.7424   24.0463 H   0  0  0  0  0  0  0  0  0  0  0  0
    2.9517    4.5693   25.1495 H   0  0  0  0  0  0  0  0  0  0  0  0
  1  2  1  0
  2  3  1  0
  3  4  2  0
  4  5  1  0
  5  6  2  0
  6  7  1  0
  7  8  1  0
  7  9  1  0
  7 10  1  0
  6 11  1  0
 11 12  1  0
 12 13  1  0
 13 14  2  0
 13 15  1  0
 15 16  1  0
 16 17  2  0
 17 18  1  0
 18 19  2  0
 19 20  1  0
 20 21  2  0
 21 22  1  0
 19 23  1  0
 18 24  1  0
 17 25  1  0
 15 26  1  0
 26 27  1  0
 27 28  1  0
 27 29  1  0
 27 30  1  0
 26 31  1  0
 31 32  2  0
 15 33  1  0
 11 34  2  0
 34 35  1  0
  5 36  1  0
  4 37  1  0
  1 38  1  0
  1 39  1  0
  1 40  1  0
 34  3  1  0
 31 12  1  0
 21 16  1  0
M  END
>  <cnnaffinity>  (1) 
5.05174

>  <plip>  (1) 
-0.03571428571428571

>  <filename>  (1) 
[H][c]1[n][c]([H])[c]([C]2([H])[C](=[O])[N]([c]3[c]([H])[c]([S][C]([H])([H])[H])[c]([H])[c]([H])[c]3[C]([H])([H])[H])[C](=[O])[N]2[C]([H])([H])[H])[c]([H])[c]1[H]

>  <combo1>  (1) 
-0.1836838996629962

$$$$
