
     RDKit          3D

 23 24  0  0  0  0  0  0  0  0999 V2000
    5.9667   -0.9734   22.3413 H   0  0  0  0  0  0  0  0  0  0  0  0
    7.0028   -1.0706   21.9884 C   0  0  0  0  0  0  0  0  0  0  0  0
    7.4399   -0.6777   20.8618 N   0  0  0  0  0  0  0  0  0  0  0  0
    6.6523    0.0023   19.9072 C   0  0  0  0  0  0  0  0  0  0  0  0
    7.1701    0.0661   18.5908 C   0  0  0  0  0  0  0  0  0  0  0  0
    8.1181   -0.4295   18.3932 H   0  0  0  0  0  0  0  0  0  0  0  0
    6.5670    0.6793   17.5712 N   0  0  0  0  0  0  0  0  0  0  0  0
    5.3974    1.2957   17.8381 C   0  0  0  0  0  0  0  0  0  0  0  0
    4.9105    1.7806   16.9958 H   0  0  0  0  0  0  0  0  0  0  0  0
    4.8040    1.3116   19.1054 C   0  0  0  0  0  0  0  0  0  0  0  0
    3.8705    1.8447   19.2641 H   0  0  0  0  0  0  0  0  0  0  0  0
    5.4363    0.6473   20.1662 C   0  0  0  0  0  0  0  0  0  0  0  0
    5.0074    0.6355   21.1706 H   0  0  0  0  0  0  0  0  0  0  0  0
    7.8891   -1.7757   22.9693 C   0  0  0  0  0  0  0  0  0  0  0  0
    7.4566   -2.2026   24.0997 N   0  0  0  0  0  0  0  0  0  0  0  0
    8.5941   -2.8305   24.7781 C   0  0  0  0  0  0  0  0  0  0  0  0
    8.7742   -2.3384   25.7358 H   0  0  0  0  0  0  0  0  0  0  0  0
    8.3625   -3.8727   25.0040 H   0  0  0  0  0  0  0  0  0  0  0  0
    9.8180   -2.7105   23.8371 C   0  0  0  0  0  0  0  0  0  0  0  0
   10.2125   -3.6910   23.5407 H   0  0  0  0  0  0  0  0  0  0  0  0
   10.6284   -2.1244   24.2883 H   0  0  0  0  0  0  0  0  0  0  0  0
    9.2174   -2.0222   22.7243 N   0  0  0  0  0  0  0  0  0  0  0  0
    9.6870   -1.7395   21.8868 H   0  0  0  0  0  0  0  0  0  0  0  0
  1  2  1  0
  2  3  2  3
  3  4  1  0
  4  5  2  0
  5  6  1  0
  5  7  1  0
  7  8  2  0
  8  9  1  0
  8 10  1  0
 10 11  1  0
 10 12  2  0
 12 13  1  0
  2 14  1  0
 14 15  2  0
 15 16  1  0
 16 17  1  0
 16 18  1  0
 16 19  1  0
 19 20  1  0
 19 21  1  0
 19 22  1  0
 22 23  1  0
 12  4  1  0
 22 14  1  0
M  END
>  <cnnaffinity>  (1) 
3.95866

>  <plip>  (1) 
-0.03571428571428571

>  <filename>  (1) 
[H][C](=[N][c]1[c]([H])[n][c]([H])[c]([H])[c]1[H])[C]1=[N][C]([H])([H])[C]([H])([H])[N]1[H]

>  <combo1>  (1) 
-0.27052245180678597

$$$$
