
     RDKit          3D

 36 38  0  0  0  0  0  0  0  0999 V2000
   10.1166   -0.2679   20.6173 O   0  0  0  0  0  0  0  0  0  0  0  0
    9.4809    0.5558   21.2512 C   0  0  0  0  0  0  0  0  0  0  0  0
    9.9659    1.9326   21.6915 C   0  0  0  0  0  0  0  0  0  0  0  0
    8.7194    2.4684   22.2470 N   0  0  0  0  0  0  0  0  0  0  0  0
    8.6672    3.5945   23.1793 C   0  0  0  0  0  0  0  0  0  0  0  0
    8.5556    3.0316   24.5782 C   0  0  0  0  0  0  0  0  0  0  0  0
    7.3967    3.1873   25.3800 C   0  0  0  0  0  0  0  0  0  0  0  0
    7.2679    2.4658   26.5818 C   0  0  0  0  0  0  0  0  0  0  0  0
    5.7385    2.6934   27.7103 Br  0  0  0  0  0  0  0  0  0  0  0  0
    8.2627    1.5439   26.9436 C   0  0  0  0  0  0  0  0  0  0  0  0
    9.4273    1.4369   26.1761 C   0  0  0  0  0  0  0  0  0  0  0  0
    9.5904    2.1930   25.0193 C   0  0  0  0  0  0  0  0  0  0  0  0
   10.5047    2.0817   24.4386 H   0  0  0  0  0  0  0  0  0  0  0  0
   10.2239    0.7605   26.4747 H   0  0  0  0  0  0  0  0  0  0  0  0
    8.1569    0.9156   27.8257 H   0  0  0  0  0  0  0  0  0  0  0  0
    6.5762    3.8381   25.0757 H   0  0  0  0  0  0  0  0  0  0  0  0
    7.8126    4.2371   22.9533 H   0  0  0  0  0  0  0  0  0  0  0  0
    9.5704    4.2026   23.0592 H   0  0  0  0  0  0  0  0  0  0  0  0
    7.7856    1.4438   22.3064 C   0  0  0  0  0  0  0  0  0  0  0  0
    6.7442    1.4786   22.9380 O   0  0  0  0  0  0  0  0  0  0  0  0
    8.2128    0.3072   21.6818 N   0  0  0  0  0  0  0  0  0  0  0  0
    7.3189   -0.6763   21.0992 C   0  0  0  0  0  0  0  0  0  0  0  0
    6.6274    0.0257   19.9698 C   0  0  0  0  0  0  0  0  0  0  0  0
    5.4122    0.6801   20.1775 C   0  0  0  0  0  0  0  0  0  0  0  0
    4.8234    1.3125   19.0857 C   0  0  0  0  0  0  0  0  0  0  0  0
    5.4549    1.2870   17.8385 C   0  0  0  0  0  0  0  0  0  0  0  0
    6.6332    0.6683   17.6421 N   0  0  0  0  0  0  0  0  0  0  0  0
    7.2096    0.0606   18.6943 C   0  0  0  0  0  0  0  0  0  0  0  0
    8.1642   -0.4326   18.5374 H   0  0  0  0  0  0  0  0  0  0  0  0
    4.9750    1.7851   17.0014 H   0  0  0  0  0  0  0  0  0  0  0  0
    3.8819    1.8363   19.1934 H   0  0  0  0  0  0  0  0  0  0  0  0
    4.9478    0.7033   21.1638 H   0  0  0  0  0  0  0  0  0  0  0  0
    6.5925   -1.0415   21.8378 H   0  0  0  0  0  0  0  0  0  0  0  0
    7.8726   -1.5507   20.7320 H   0  0  0  0  0  0  0  0  0  0  0  0
   10.3561    2.5136   20.8498 H   0  0  0  0  0  0  0  0  0  0  0  0
   10.7412    1.8332   22.4548 H   0  0  0  0  0  0  0  0  0  0  0  0
  1  2  2  0
  2  3  1  0
  3  4  1  0
  4  5  1  0
  5  6  1  0
  6  7  2  0
  7  8  1  0
  8  9  1  0
  8 10  2  0
 10 11  1  0
 11 12  2  0
 12 13  1  0
 11 14  1  0
 10 15  1  0
  7 16  1  0
  5 17  1  0
  5 18  1  0
  4 19  1  0
 19 20  2  0
 19 21  1  0
 21 22  1  0
 22 23  1  0
 23 24  2  0
 24 25  1  0
 25 26  2  0
 26 27  1  0
 27 28  2  0
 28 29  1  0
 26 30  1  0
 25 31  1  0
 24 32  1  0
 22 33  1  0
 22 34  1  0
  3 35  1  0
  3 36  1  0
 21  2  1  0
 28 23  1  0
 12  6  1  0
M  END
>  <cnnaffinity>  (1) 
4.90595

>  <plip>  (1) 
-0.10714285714285714

>  <filename>  (1) 
[H][c]1[n][c]([H])[c]([C]([H])([H])[N]2[C](=[O])[N]([C]([H])([H])[c]3[c]([H])[c]([H])[c]([H])[c]([Br])[c]3[H])[C]([H])([H])[C]2=[O])[c]([H])[c]1[H]

>  <combo1>  (1) 
-0.48641629489382604

$$$$
