
     RDKit          3D

 38 40  0  0  0  0  0  0  0  0999 V2000
   10.6733   -0.5855   22.4283 C   0  0  0  0  0  0  0  0  0  0  0  0
    9.8974   -0.2145   21.1686 C   0  0  0  0  0  0  0  0  0  0  0  0
    8.5182    0.1629   21.4699 N   0  0  0  0  0  0  0  0  0  0  0  0
    7.4032   -0.6710   21.0277 C   0  0  0  0  0  0  0  0  0  0  0  0
    6.6221   -0.0117   19.9073 C   0  0  0  0  0  0  0  0  0  0  0  0
    5.4146    0.6570   20.1465 C   0  0  0  0  0  0  0  0  0  0  0  0
    4.7811    1.3177   19.0867 C   0  0  0  0  0  0  0  0  0  0  0  0
    5.3936    1.2967   17.8297 C   0  0  0  0  0  0  0  0  0  0  0  0
    6.5557    0.6755   17.5825 N   0  0  0  0  0  0  0  0  0  0  0  0
    7.1526    0.0569   18.6083 C   0  0  0  0  0  0  0  0  0  0  0  0
    8.1064   -0.4156   18.3684 H   0  0  0  0  0  0  0  0  0  0  0  0
    4.9350    1.8049   16.9822 H   0  0  0  0  0  0  0  0  0  0  0  0
    3.8500    1.8638   19.2185 H   0  0  0  0  0  0  0  0  0  0  0  0
    4.9952    0.6775   21.1574 H   0  0  0  0  0  0  0  0  0  0  0  0
    6.7290   -0.8920   21.8648 H   0  0  0  0  0  0  0  0  0  0  0  0
    7.8160   -1.6347   20.7003 H   0  0  0  0  0  0  0  0  0  0  0  0
    8.3201    1.4369   21.9809 C   0  0  0  0  0  0  0  0  0  0  0  0
    9.0247    2.3836   21.6805 O   0  0  0  0  0  0  0  0  0  0  0  0
    7.2180    1.5838   22.9756 C   0  0  0  0  0  0  0  0  0  0  0  0
    6.4888    2.8042   22.9946 C   0  0  0  0  0  0  0  0  0  0  0  0
    5.5249    3.0633   23.8536 N   0  0  0  0  0  0  0  0  0  0  0  0
    5.2289    2.1250   24.7998 C   0  0  0  0  0  0  0  0  0  0  0  0
    4.1932    2.3906   25.7282 C   0  0  0  0  0  0  0  0  0  0  0  0
    3.9081    1.4379   26.6685 C   0  0  0  0  0  0  0  0  0  0  0  0
    4.5696    0.2506   26.7646 N   0  0  0  0  0  0  0  0  0  0  0  0
    5.5363   -0.0027   25.9099 C   0  0  0  0  0  0  0  0  0  0  0  0
    5.9280    0.8935   24.8822 C   0  0  0  0  0  0  0  0  0  0  0  0
    6.9502    0.6367   23.9426 C   0  0  0  0  0  0  0  0  0  0  0  0
    7.5141   -0.2924   24.0264 H   0  0  0  0  0  0  0  0  0  0  0  0
    6.0595   -0.9595   26.0066 H   0  0  0  0  0  0  0  0  0  0  0  0
    3.1181    1.5775   27.4103 H   0  0  0  0  0  0  0  0  0  0  0  0
    3.6697    3.3355   25.6568 H   0  0  0  0  0  0  0  0  0  0  0  0
    6.7188    3.5892   22.2706 H   0  0  0  0  0  0  0  0  0  0  0  0
   10.3651    0.6462   20.6821 H   0  0  0  0  0  0  0  0  0  0  0  0
    9.8705   -1.0533   20.4615 H   0  0  0  0  0  0  0  0  0  0  0  0
   10.1839   -1.3934   22.9840 H   0  0  0  0  0  0  0  0  0  0  0  0
   11.6842   -0.9192   22.1753 H   0  0  0  0  0  0  0  0  0  0  0  0
   10.7621    0.2823   23.0904 H   0  0  0  0  0  0  0  0  0  0  0  0
  1  2  1  0
  2  3  1  0
  3  4  1  0
  4  5  1  0
  5  6  2  0
  6  7  1  0
  7  8  2  0
  8  9  1  0
  9 10  2  0
 10 11  1  0
  8 12  1  0
  7 13  1  0
  6 14  1  0
  4 15  1  0
  4 16  1  0
  3 17  1  0
 17 18  2  0
 17 19  1  0
 19 20  2  0
 20 21  1  0
 21 22  2  0
 22 23  1  0
 23 24  2  0
 24 25  1  0
 25 26  2  0
 26 27  1  0
 27 28  2  0
 28 29  1  0
 26 30  1  0
 24 31  1  0
 23 32  1  0
 20 33  1  0
  2 34  1  0
  2 35  1  0
  1 36  1  0
  1 37  1  0
  1 38  1  0
 10  5  1  0
 28 19  1  0
 27 22  1  0
M  END
>  <cnnaffinity>  (1) 
5.12758

>  <plip>  (1) 
-0.03571428571428571

>  <filename>  (1) 
[H][c]1[n][c]([H])[c]([C]([H])([H])[N]([C](=[O])[c]2[c]([H])[n][c]3[c]([H])[c]([H])[n][c]([H])[c]3[c]2[H])[C]([H])([H])[C]([H])([H])[H])[c]([H])[c]1[H]

>  <combo1>  (1) 
-0.2088055053588574

$$$$
