
     RDKit          3D

 24 25  0  0  0  0  0  0  0  0999 V2000
    4.9146    1.7840   16.9940 H   0  0  0  0  0  0  0  0  0  0  0  0
    5.3974    1.2961   17.8385 C   0  0  0  0  0  0  0  0  0  0  0  0
    6.5664    0.6758   17.5820 N   0  0  0  0  0  0  0  0  0  0  0  0
    7.1735    0.0596   18.6030 C   0  0  0  0  0  0  0  0  0  0  0  0
    8.1166   -0.4369   18.3907 H   0  0  0  0  0  0  0  0  0  0  0  0
    6.6771    0.0199   19.9316 C   0  0  0  0  0  0  0  0  0  0  0  0
    7.3769   -0.7204   20.9063 N   0  0  0  0  0  0  0  0  0  0  0  0
    7.6555   -0.3022   22.0906 C   0  0  0  0  0  0  0  0  0  0  0  0
    8.2886   -1.2698   23.0345 C   0  0  0  0  0  0  0  0  0  0  0  0
    8.6210   -0.9754   24.2948 N   0  0  0  0  0  0  0  0  0  0  0  0
    9.1441   -2.1016   24.7801 N   0  0  0  0  0  0  0  0  0  0  0  0
    9.4584   -2.1092   25.7370 H   0  0  0  0  0  0  0  0  0  0  0  0
    9.1728   -3.1167   23.8812 C   0  0  0  0  0  0  0  0  0  0  0  0
    9.5720   -4.0935   24.1258 H   0  0  0  0  0  0  0  0  0  0  0  0
    8.6278   -2.6138   22.7342 C   0  0  0  0  0  0  0  0  0  0  0  0
    8.4710   -3.0992   21.7887 H   0  0  0  0  0  0  0  0  0  0  0  0
    7.4160    1.1154   22.5488 C   0  0  0  0  0  0  0  0  0  0  0  0
    6.4333    1.1808   23.0234 H   0  0  0  0  0  0  0  0  0  0  0  0
    7.4430    1.8107   21.7059 H   0  0  0  0  0  0  0  0  0  0  0  0
    8.1605    1.4029   23.2913 H   0  0  0  0  0  0  0  0  0  0  0  0
    5.4451    0.6500   20.1650 C   0  0  0  0  0  0  0  0  0  0  0  0
    5.0159    0.6199   21.1652 H   0  0  0  0  0  0  0  0  0  0  0  0
    4.8060    1.3064   19.1036 C   0  0  0  0  0  0  0  0  0  0  0  0
    3.8757    1.8389   19.2608 H   0  0  0  0  0  0  0  0  0  0  0  0
  1  2  1  0
  2  3  2  0
  3  4  1  0
  4  5  1  0
  4  6  2  0
  6  7  1  0
  7  8  2  3
  8  9  1  0
  9 10  2  0
 10 11  1  0
 11 12  1  0
 11 13  1  0
 13 14  1  0
 13 15  2  0
 15 16  1  0
  8 17  1  0
 17 18  1  0
 17 19  1  0
 17 20  1  0
  6 21  1  0
 21 22  1  0
 21 23  2  0
 23 24  1  0
 23  2  1  0
 15  9  1  0
M  END
>  <cnnaffinity>  (1) 
4.16862

>  <plip>  (1) 
-0.0

>  <filename>  (1) 
[H][c]1[n][c]([H])[c]([N]=[C]([c]2[n][n]([H])[c]([H])[c]2[H])[C]([H])([H])[H])[c]([H])[c]1[H]

>  <combo1>  (1) 
-7.461899494141273e-06

$$$$
