
     RDKit          3D

 36 38  0  0  0  0  0  0  0  0999 V2000
    5.5870   -1.6982   21.7313 H   0  0  0  0  0  0  0  0  0  0  0  0
    6.6490   -1.5817   21.8053 C   0  0  0  0  0  0  0  0  0  0  0  0
    7.3217   -0.7655   20.9752 C   0  0  0  0  0  0  0  0  0  0  0  0
    6.6844    0.0149   19.8994 C   0  0  0  0  0  0  0  0  0  0  0  0
    7.2124    0.0737   18.5981 C   0  0  0  0  0  0  0  0  0  0  0  0
    8.1556   -0.4216   18.3594 H   0  0  0  0  0  0  0  0  0  0  0  0
    6.6017    0.6879   17.5764 N   0  0  0  0  0  0  0  0  0  0  0  0
    5.4353    1.3046   17.8282 C   0  0  0  0  0  0  0  0  0  0  0  0
    4.9556    1.7857   16.9783 H   0  0  0  0  0  0  0  0  0  0  0  0
    4.8310    1.3296   19.0896 C   0  0  0  0  0  0  0  0  0  0  0  0
    3.8835    1.8374   19.2297 H   0  0  0  0  0  0  0  0  0  0  0  0
    5.4635    0.6708   20.1420 C   0  0  0  0  0  0  0  0  0  0  0  0
    5.0404    0.6634   21.1483 H   0  0  0  0  0  0  0  0  0  0  0  0
    8.6960   -0.6443   21.1431 N   0  0  0  0  0  0  0  0  0  0  0  0
    9.2345    0.0161   20.6151 H   0  0  0  0  0  0  0  0  0  0  0  0
    9.3695   -1.0775   22.2504 C   0  0  0  0  0  0  0  0  0  0  0  0
   10.9655   -0.7180   22.4784 S   0  0  0  0  0  0  0  0  0  0  0  0
    8.6432   -1.7915   23.1168 N   0  0  0  0  0  0  0  0  0  0  0  0
    9.1095   -2.0750   23.9569 H   0  0  0  0  0  0  0  0  0  0  0  0
    7.3631   -2.3925   22.8248 C   0  0  1  0  0  0  0  0  0  0  0  0
    7.5131   -3.4394   22.4891 H   0  0  0  0  0  0  0  0  0  0  0  0
    6.7363   -2.4463   24.0965 O   0  0  0  0  0  0  0  0  0  0  0  0
    5.5305   -3.0932   24.2083 C   0  0  0  0  0  0  0  0  0  0  0  0
    4.9760   -3.9105   23.2110 C   0  0  0  0  0  0  0  0  0  0  0  0
    5.4706   -4.0111   22.2513 H   0  0  0  0  0  0  0  0  0  0  0  0
    3.7748   -4.5747   23.4659 C   0  0  0  0  0  0  0  0  0  0  0  0
    3.3524   -5.2260   22.7022 H   0  0  0  0  0  0  0  0  0  0  0  0
    3.1205   -4.4093   24.6864 C   0  0  0  0  0  0  0  0  0  0  0  0
    2.1975   -4.9456   24.8829 H   0  0  0  0  0  0  0  0  0  0  0  0
    3.6524   -3.5707   25.6841 C   0  0  0  0  0  0  0  0  0  0  0  0
    2.9209   -3.3980   26.9975 C   0  0  0  0  0  0  0  0  0  0  0  0
    2.2088   -2.5644   26.9589 H   0  0  0  0  0  0  0  0  0  0  0  0
    3.6110   -3.2035   27.8250 H   0  0  0  0  0  0  0  0  0  0  0  0
    2.3523   -4.3000   27.2477 H   0  0  0  0  0  0  0  0  0  0  0  0
    4.8645   -2.9184   25.4313 C   0  0  0  0  0  0  0  0  0  0  0  0
    5.3271   -2.2641   26.1659 H   0  0  0  0  0  0  0  0  0  0  0  0
  1  2  1  0
  2  3  2  0
  3  4  1  0
  4  5  2  0
  5  6  1  0
  5  7  1  0
  7  8  2  0
  8  9  1  0
  8 10  1  0
 10 11  1  0
 10 12  2  0
 12 13  1  0
  3 14  1  0
 14 15  1  0
 14 16  1  0
 16 17  2  0
 16 18  1  0
 18 19  1  0
 18 20  1  0
 20 21  1  6
 20 22  1  0
 22 23  1  0
 23 24  2  0
 24 25  1  0
 24 26  1  0
 26 27  1  0
 26 28  2  0
 28 29  1  0
 28 30  1  0
 30 31  1  0
 31 32  1  0
 31 33  1  0
 31 34  1  0
 30 35  2  0
 35 36  1  0
 20  2  1  0
 35 23  1  0
 12  4  1  0
M  END
>  <cnnaffinity>  (1) 
5.072

>  <plip>  (1) 
-0.03333333333333333

>  <filename>  (1) 
[H][C]1=[C]([c]2[c]([H])[n][c]([H])[c]([H])[c]2[H])[N]([H])[C](=[S])[N]([H])[C@@]1([H])[O][c]1[c]([H])[c]([H])[c]([H])[c]([C]([H])([H])[H])[c]1[H]

>  <combo1>  (1) 
-0.18950496684597157

$$$$
