
     RDKit          3D

 32 34  0  0  0  0  0  0  0  0999 V2000
    7.3976    0.8252   22.7736 O   0  0  0  0  0  0  0  0  0  0  0  0
    8.0829    0.3829   21.8751 C   0  0  0  0  0  0  0  0  0  0  0  0
    7.5943   -0.6885   20.8909 C   0  0  0  0  0  0  0  0  0  0  0  0
    6.7922   -0.0478   19.7541 C   0  0  0  0  0  0  0  0  0  0  0  0
    5.6056    0.6354   20.0634 C   0  0  0  0  0  0  0  0  0  0  0  0
    4.9100    1.2852   19.0438 C   0  0  0  0  0  0  0  0  0  0  0  0
    5.4344    1.2517   17.7477 C   0  0  0  0  0  0  0  0  0  0  0  0
    6.5681    0.6124   17.4251 N   0  0  0  0  0  0  0  0  0  0  0  0
    7.2229   -0.0130   18.4143 C   0  0  0  0  0  0  0  0  0  0  0  0
    8.1553   -0.5004   18.1273 H   0  0  0  0  0  0  0  0  0  0  0  0
    4.9242    1.7650   16.9341 H   0  0  0  0  0  0  0  0  0  0  0  0
    3.9921    1.8295   19.2392 H   0  0  0  0  0  0  0  0  0  0  0  0
    5.2634    0.6744   21.0991 H   0  0  0  0  0  0  0  0  0  0  0  0
    6.9615   -1.3620   21.4761 H   0  0  0  0  0  0  0  0  0  0  0  0
    8.4355   -1.2766   20.5031 H   0  0  0  0  0  0  0  0  0  0  0  0
    9.3358    0.8413   21.5984 N   0  0  0  0  0  0  0  0  0  0  0  0
    9.9727    1.9330   22.1510 C   0  0  0  0  0  0  0  0  0  0  0  0
    9.3184    3.1432   22.4966 C   0  0  0  0  0  0  0  0  0  0  0  0
   10.1025    4.2324   22.8097 C   0  0  0  0  0  0  0  0  0  0  0  0
   11.5210    4.0926   22.7876 C   0  0  0  0  0  0  0  0  0  0  0  0
   12.4605    5.1527   22.9471 C   0  0  0  0  0  0  0  0  0  0  0  0
   13.7980    4.8557   22.8319 C   0  0  0  0  0  0  0  0  0  0  0  0
   14.1912    3.5112   22.5830 C   0  0  0  0  0  0  0  0  0  0  0  0
   13.3596    2.5023   22.4768 N   0  0  0  0  0  0  0  0  0  0  0  0
   12.0372    2.7781   22.5047 C   0  0  0  0  0  0  0  0  0  0  0  0
   11.2622    1.7260   22.1767 N   0  0  0  0  0  0  0  0  0  0  0  0
   15.2405    3.2724   22.4307 H   0  0  0  0  0  0  0  0  0  0  0  0
   14.5587    5.6207   22.9016 H   0  0  0  0  0  0  0  0  0  0  0  0
   12.1165    6.1703   23.1372 H   0  0  0  0  0  0  0  0  0  0  0  0
    9.6622    5.2098   23.0253 H   0  0  0  0  0  0  0  0  0  0  0  0
    8.2432    3.2031   22.3909 H   0  0  0  0  0  0  0  0  0  0  0  0
   10.0285    0.2328   21.2024 H   0  0  0  0  0  0  0  0  0  0  0  0
  1  2  2  0
  2  3  1  0
  3  4  1  0
  4  5  2  0
  5  6  1  0
  6  7  2  0
  7  8  1  0
  8  9  2  0
  9 10  1  0
  7 11  1  0
  6 12  1  0
  5 13  1  0
  3 14  1  0
  3 15  1  0
  2 16  1  0
 16 17  1  0
 17 18  2  0
 18 19  1  0
 19 20  2  0
 20 21  1  0
 21 22  2  0
 22 23  1  0
 23 24  2  0
 24 25  1  0
 25 26  2  0
 23 27  1  0
 22 28  1  0
 21 29  1  0
 19 30  1  0
 18 31  1  0
 16 32  1  0
  9  4  1  0
 26 17  1  0
 25 20  1  0
M  END
>  <cnnaffinity>  (1) 
4.53273

>  <plip>  (1) 
-0.10714285714285714

>  <filename>  (1) 
[H][c]1[n][c]([H])[c]([C]([H])([H])[C](=[O])[N]([H])[c]2[n][c]3[n][c]([H])[c]([H])[c]([H])[c]3[c]([H])[c]2[H])[c]([H])[c]1[H]

>  <combo1>  (1) 
-0.6125257835607913

$$$$
