
     RDKit          3D

 31 33  0  0  0  0  0  0  0  0999 V2000
   12.2952    3.9433   21.7651 H   0  0  0  0  0  0  0  0  0  0  0  0
   11.9340    2.9981   22.1708 C   0  0  0  0  0  0  0  0  0  0  0  0
   10.7935    2.5383   21.6476 N   0  0  0  0  0  0  0  0  0  0  0  0
   10.3363    1.3799   22.1156 C   0  0  0  0  0  0  0  0  0  0  0  0
    9.1476    1.0285   21.4696 N   0  0  0  0  0  0  0  0  0  0  0  0
    9.0954    1.7536   20.7496 H   0  0  0  0  0  0  0  0  0  0  0  0
    8.8572   -0.2776   21.0137 N   0  0  0  0  0  0  0  0  0  0  0  0
    9.6411   -1.4431   21.1076 C   0  0  0  0  0  0  0  0  0  0  0  0
   10.8297   -1.5777   21.2454 O   0  0  0  0  0  0  0  0  0  0  0  0
    8.7727   -2.4941   21.0198 N   0  0  0  0  0  0  0  0  0  0  0  0
    9.1030   -3.4270   20.8899 H   0  0  0  0  0  0  0  0  0  0  0  0
    7.4627   -2.1448   20.9120 C   0  0  0  0  0  0  0  0  0  0  0  0
    6.5634   -2.9362   20.7979 O   0  0  0  0  0  0  0  0  0  0  0  0
    7.4299   -0.6116   20.9738 C   0  0  2  0  0  0  0  0  0  0  0  0
    6.9964   -0.3441   21.9464 H   0  0  0  0  0  0  0  0  0  0  0  0
    6.6703    0.0908   19.8610 C   0  0  0  0  0  0  0  0  0  0  0  0
    7.2034    0.1738   18.5604 C   0  0  0  0  0  0  0  0  0  0  0  0
    8.1721   -0.2778   18.3393 H   0  0  0  0  0  0  0  0  0  0  0  0
    6.5798    0.7723   17.5396 N   0  0  0  0  0  0  0  0  0  0  0  0
    5.3933    1.3454   17.7936 C   0  0  0  0  0  0  0  0  0  0  0  0
    4.9196    1.8374   16.9490 H   0  0  0  0  0  0  0  0  0  0  0  0
    4.7784    1.3262   19.0485 C   0  0  0  0  0  0  0  0  0  0  0  0
    3.8294    1.8249   19.1876 H   0  0  0  0  0  0  0  0  0  0  0  0
    5.4272    0.6849   20.1041 C   0  0  0  0  0  0  0  0  0  0  0  0
    4.9933    0.6614   21.1059 H   0  0  0  0  0  0  0  0  0  0  0  0
   10.9335    0.6381   23.1429 C   0  0  0  0  0  0  0  0  0  0  0  0
   10.4796   -0.2976   23.4420 H   0  0  0  0  0  0  0  0  0  0  0  0
   12.1228    1.1298   23.6720 C   0  0  0  0  0  0  0  0  0  0  0  0
   12.6473    0.5727   24.4502 H   0  0  0  0  0  0  0  0  0  0  0  0
   12.6384    2.3342   23.1773 C   0  0  0  0  0  0  0  0  0  0  0  0
   13.5667    2.7535   23.5422 H   0  0  0  0  0  0  0  0  0  0  0  0
  1  2  1  0
  2  3  2  0
  3  4  1  0
  4  5  1  0
  5  6  1  0
  5  7  1  0
  7  8  1  0
  8  9  2  0
  8 10  1  0
 10 11  1  0
 10 12  1  0
 12 13  2  0
 12 14  1  0
 14 15  1  1
 14 16  1  0
 16 17  2  0
 17 18  1  0
 17 19  1  0
 19 20  2  0
 20 21  1  0
 20 22  1  0
 22 23  1  0
 22 24  2  0
 24 25  1  0
  4 26  2  0
 26 27  1  0
 26 28  1  0
 28 29  1  0
 28 30  2  0
 30 31  1  0
 30  2  1  0
 14  7  1  0
 24 16  1  0
M  END
>  <cnnaffinity>  (1) 
5.31304

>  <plip>  (1) 
-0.13793103448275862

>  <filename>  (1) 
[H][c]1[n][c]([N]([H])[N]2[C](=[O])[N]([H])[C](=[O])[C@]2([H])[c]2[c]([H])[n][c]([H])[c]([H])[c]2[H])[c]([H])[c]([H])[c]1[H]

>  <combo1>  (1) 
-0.9072052006559558

$$$$
