
     RDKit          3D

 39 41  0  0  0  0  0  0  0  0999 V2000
    5.5144   -2.0684   21.4095 O   0  0  0  0  0  0  0  0  0  0  0  0
    6.6130   -1.6256   21.6762 C   0  0  0  0  0  0  0  0  0  0  0  0
    7.3175   -2.0916   22.9559 C   0  0  0  0  0  0  0  0  0  0  0  0
    8.8836   -2.0478   23.0035 N   0  0  0  0  0  4  0  0  0  0  0  0
    9.4005   -2.4177   24.4227 C   0  0  0  0  0  0  0  0  0  0  0  0
    9.0939   -3.8327   24.8757 C   0  0  0  0  0  0  0  0  0  0  0  0
    8.1314   -3.9813   25.7826 N   0  0  0  0  0  0  0  0  0  0  0  0
    7.8398   -5.2255   26.1899 C   0  0  0  0  0  0  0  0  0  0  0  0
    6.6963   -5.4785   27.2041 C   0  0  0  0  0  0  0  0  0  0  0  0
    7.1679   -6.1656   28.2670 F   0  0  0  0  0  0  0  0  0  0  0  0
    5.7420   -6.2492   26.6352 F   0  0  0  0  0  0  0  0  0  0  0  0
    6.1057   -4.3730   27.6613 F   0  0  0  0  0  0  0  0  0  0  0  0
    8.5467   -6.3116   25.6886 C   0  0  0  0  0  0  0  0  0  0  0  0
    9.5019   -6.0569   24.7225 C   0  0  0  0  0  0  0  0  0  0  0  0
    9.7923   -4.8238   24.3032 N   0  0  0  0  0  0  0  0  0  0  0  0
   10.0417   -6.8862   24.2636 H   0  0  0  0  0  0  0  0  0  0  0  0
    8.3640   -7.3139   26.0249 H   0  0  0  0  0  0  0  0  0  0  0  0
    8.9569   -1.7528   25.1648 H   0  0  0  0  0  0  0  0  0  0  0  0
   10.4845   -2.3139   24.4385 H   0  0  0  0  0  0  0  0  0  0  0  0
    9.2650   -0.6694   22.4943 C   0  0  0  0  0  0  0  0  0  0  0  0
    8.7586   -0.5038   21.0584 C   0  0  0  0  0  0  0  0  0  0  0  0
    7.2960   -0.6650   20.9285 N   0  0  0  0  0  0  0  0  0  0  0  0
    6.6291    0.0141   19.8575 C   0  0  0  0  0  0  0  0  0  0  0  0
    5.4080    0.6562   20.0961 C   0  0  0  0  0  0  0  0  0  0  0  0
    4.7997    1.3411   19.0404 C   0  0  0  0  0  0  0  0  0  0  0  0
    5.4109    1.3398   17.7823 C   0  0  0  0  0  0  0  0  0  0  0  0
    6.5738    0.7201   17.5354 N   0  0  0  0  0  0  0  0  0  0  0  0
    7.1709    0.0905   18.5557 C   0  0  0  0  0  0  0  0  0  0  0  0
    8.1243   -0.3919   18.3415 H   0  0  0  0  0  0  0  0  0  0  0  0
    4.9475    1.8530   16.9408 H   0  0  0  0  0  0  0  0  0  0  0  0
    3.8669    1.8717   19.1846 H   0  0  0  0  0  0  0  0  0  0  0  0
    4.9678    0.6219   21.0929 H   0  0  0  0  0  0  0  0  0  0  0  0
    9.0219    0.4917   20.6970 H   0  0  0  0  0  0  0  0  0  0  0  0
    9.2797   -1.2355   20.4206 H   0  0  0  0  0  0  0  0  0  0  0  0
    8.8148    0.0856   23.1519 H   0  0  0  0  0  0  0  0  0  0  0  0
   10.3513   -0.5441   22.5086 H   0  0  0  0  0  0  0  0  0  0  0  0
    9.3259   -2.7633   22.3486 H   0  0  0  0  0  0  0  0  0  0  0  0
    6.9432   -1.4256   23.7418 H   0  0  0  0  0  0  0  0  0  0  0  0
    6.9411   -3.0857   23.1730 H   0  0  0  0  0  0  0  0  0  0  0  0
  1  2  2  0
  2  3  1  0
  3  4  1  0
  4  5  1  0
  5  6  1  0
  6  7  2  0
  7  8  1  0
  8  9  1  0
  9 10  1  0
  9 11  1  0
  9 12  1  0
  8 13  2  0
 13 14  1  0
 14 15  2  0
 14 16  1  0
 13 17  1  0
  5 18  1  0
  5 19  1  0
  4 20  1  0
 20 21  1  0
 21 22  1  0
 22 23  1  0
 23 24  2  0
 24 25  1  0
 25 26  2  0
 26 27  1  0
 27 28  2  0
 28 29  1  0
 26 30  1  0
 25 31  1  0
 24 32  1  0
 21 33  1  0
 21 34  1  0
 20 35  1  0
 20 36  1  0
  4 37  1  0
  3 38  1  0
  3 39  1  0
 22  2  1  0
 28 23  1  0
 15  6  1  0
M  CHG  1   4   1
M  END
>  <cnnaffinity>  (1) 
4.90359

>  <plip>  (1) 
-0.10714285714285714

>  <filename>  (1) 
[H][c]1[n][c]([C]([H])([H])[N+]2([H])[C]([H])([H])[C](=[O])[N]([c]3[c]([H])[n][c]([H])[c]([H])[c]3[H])[C]([H])([H])[C]2([H])[H])[n][c]([C]([F])([F])[F])[c]1[H]

>  <combo1>  (1) 
-0.517651447877304

$$$$
