
     RDKit          3D

 27 28  0  0  0  0  0  0  0  0999 V2000
    4.9981    1.8044   16.9234 H   0  0  0  0  0  0  0  0  0  0  0  0
    5.4490    1.3298   17.7911 C   0  0  0  0  0  0  0  0  0  0  0  0
    6.6362    0.7438   17.5898 N   0  0  0  0  0  0  0  0  0  0  0  0
    7.1965    0.1323   18.6432 C   0  0  0  0  0  0  0  0  0  0  0  0
    8.1844   -0.2896   18.4780 H   0  0  0  0  0  0  0  0  0  0  0  0
    6.6009    0.0271   19.9065 C   0  0  0  0  0  0  0  0  0  0  0  0
    7.2339   -0.7863   21.0067 C   0  0  1  0  0  0  0  0  0  0  0  0
    7.1158   -0.2083   21.9289 H   0  0  0  0  0  0  0  0  0  0  0  0
    6.5169   -2.1272   21.2620 C   0  0  0  0  0  0  0  0  0  0  0  0
    6.2019   -2.5025   22.5802 C   0  0  0  0  0  0  0  0  0  0  0  0
    6.3373   -1.7789   23.3802 H   0  0  0  0  0  0  0  0  0  0  0  0
    5.6819   -3.7686   22.8716 C   0  0  0  0  0  0  0  0  0  0  0  0
    5.4263   -4.0188   23.9004 H   0  0  0  0  0  0  0  0  0  0  0  0
    5.4990   -4.6923   21.8417 C   0  0  0  0  0  0  0  0  0  0  0  0
    5.1580   -5.7001   22.0649 H   0  0  0  0  0  0  0  0  0  0  0  0
    5.7860   -4.3251   20.5150 C   0  0  0  0  0  0  0  0  0  0  0  0
    5.7034   -5.3557   19.5096 C   0  0  0  0  0  0  0  0  0  0  0  0
    5.6548   -6.2584   18.7831 N   0  0  0  0  0  0  0  0  0  0  0  0
    6.2177   -3.0214   20.2228 C   0  0  0  0  0  0  0  0  0  0  0  0
    6.2890   -2.6981   19.1863 H   0  0  0  0  0  0  0  0  0  0  0  0
    8.6720   -0.9052   20.7503 N   0  0  0  0  0  0  0  0  0  0  0  0
    9.1517   -1.1423   21.6112 H   0  0  0  0  0  0  0  0  0  0  0  0
    8.8219   -1.6923   20.1263 H   0  0  0  0  0  0  0  0  0  0  0  0
    5.3827    0.6946   20.1113 C   0  0  0  0  0  0  0  0  0  0  0  0
    4.9227    0.7264   21.1052 H   0  0  0  0  0  0  0  0  0  0  0  0
    4.7895    1.3439   19.0286 C   0  0  0  0  0  0  0  0  0  0  0  0
    3.8420    1.8659   19.1247 H   0  0  0  0  0  0  0  0  0  0  0  0
  1  2  1  0
  2  3  2  0
  3  4  1  0
  4  5  1  0
  4  6  2  0
  6  7  1  0
  7  8  1  1
  7  9  1  0
  9 10  2  0
 10 11  1  0
 10 12  1  0
 12 13  1  0
 12 14  2  0
 14 15  1  0
 14 16  1  0
 16 17  1  0
 17 18  3  0
 16 19  2  0
 19 20  1  0
  7 21  1  0
 21 22  1  0
 21 23  1  0
  6 24  1  0
 24 25  1  0
 24 26  2  0
 26 27  1  0
 26  2  1  0
 19  9  1  0
M  END
>  <cnnaffinity>  (1) 
4.54535

>  <plip>  (1) 
-0.1

>  <filename>  (1) 
[H][c]1[n][c]([H])[c]([C@@]([H])([c]2[c]([H])[c]([H])[c]([H])[c]([C]#[N])[c]2[H])[N]([H])[H])[c]([H])[c]1[H]

>  <combo1>  (1) 
-0.7240631710409778

$$$$
