
     RDKit          3D

 43 45  0  0  0  0  0  0  0  0999 V2000
    9.1258    1.4902   21.1516 O   0  0  0  0  0  0  0  0  0  0  0  0
    8.4710    1.1691   22.1296 C   0  0  0  0  0  0  0  0  0  0  0  0
    7.6353    0.0982   22.1438 N   0  0  0  0  0  0  0  0  0  0  0  0
    7.3942   -0.7229   20.9730 C   0  0  0  0  0  0  0  0  0  0  0  0
    6.6268   -2.0038   21.3573 C   0  0  0  0  0  0  0  0  0  0  0  0
    7.2435   -2.9386   22.4147 C   0  0  0  0  0  0  0  0  0  0  0  0
    6.3681   -4.1740   22.6980 C   0  0  0  0  0  0  0  0  0  0  0  0
    7.2923   -5.1586   23.4319 C   0  0  0  0  0  0  0  0  0  0  0  0
    8.6840   -4.9164   22.8118 C   0  0  0  0  0  0  0  0  0  0  0  0
    8.5859   -3.5815   22.0251 C   0  0  0  0  0  0  0  0  0  0  0  0
    8.5660   -3.8101   20.9541 H   0  0  0  0  0  0  0  0  0  0  0  0
    9.4431   -2.9199   22.2017 H   0  0  0  0  0  0  0  0  0  0  0  0
    9.4568   -4.8715   23.5853 H   0  0  0  0  0  0  0  0  0  0  0  0
    8.9478   -5.7416   22.1403 H   0  0  0  0  0  0  0  0  0  0  0  0
    6.9635   -6.1977   23.3095 H   0  0  0  0  0  0  0  0  0  0  0  0
    7.3142   -4.9592   24.5134 H   0  0  0  0  0  0  0  0  0  0  0  0
    6.0413   -4.6182   21.7409 H   0  0  0  0  0  0  0  0  0  0  0  0
    5.4742   -3.9194   23.2789 H   0  0  0  0  0  0  0  0  0  0  0  0
    7.3834   -2.3854   23.3572 H   0  0  0  0  0  0  0  0  0  0  0  0
    6.4808   -2.5849   20.4384 H   0  0  0  0  0  0  0  0  0  0  0  0
    5.6170   -1.7116   21.6769 H   0  0  0  0  0  0  0  0  0  0  0  0
    6.6424    0.0580   19.8897 C   0  0  0  0  0  0  0  0  0  0  0  0
    5.4202    0.7152   20.1063 C   0  0  0  0  0  0  0  0  0  0  0  0
    4.7937    1.3424   19.0267 C   0  0  0  0  0  0  0  0  0  0  0  0
    5.4067    1.3085   17.7669 C   0  0  0  0  0  0  0  0  0  0  0  0
    6.5713    0.6897   17.5363 N   0  0  0  0  0  0  0  0  0  0  0  0
    7.1587    0.0963   18.5860 C   0  0  0  0  0  0  0  0  0  0  0  0
    8.1066   -0.3960   18.3715 H   0  0  0  0  0  0  0  0  0  0  0  0
    4.9460    1.8019   16.9125 H   0  0  0  0  0  0  0  0  0  0  0  0
    3.8498    1.8605   19.1399 H   0  0  0  0  0  0  0  0  0  0  0  0
    4.9615    0.7552   21.0998 H   0  0  0  0  0  0  0  0  0  0  0  0
    8.3740   -1.0010   20.5550 H   0  0  0  0  0  0  0  0  0  0  0  0
    7.0764   -0.0497   22.9651 H   0  0  0  0  0  0  0  0  0  0  0  0
    8.5116    1.9792   23.4380 C   0  0  0  0  0  0  0  0  0  0  0  0
    8.4652    3.3865   23.3899 C   0  0  0  0  0  0  0  0  0  0  0  0
    8.5386    4.1449   24.5625 C   0  0  0  0  0  0  0  0  0  0  0  0
    8.6600    3.6073   25.7854 N   0  0  0  0  0  0  0  0  0  0  0  0
    8.7251    2.2763   25.8588 C   0  0  0  0  0  0  0  0  0  0  0  0
    8.6571    1.4392   24.7316 C   0  0  0  0  0  0  0  0  0  0  0  0
    8.7715   -0.2694   25.0195 Cl  0  0  0  0  0  0  0  0  0  0  0  0
    8.8194    1.8305   26.8470 H   0  0  0  0  0  0  0  0  0  0  0  0
    8.4964    5.2283   24.5124 H   0  0  0  0  0  0  0  0  0  0  0  0
    8.3690    3.8992   22.4406 H   0  0  0  0  0  0  0  0  0  0  0  0
  1  2  2  0
  2  3  1  0
  3  4  1  0
  4  5  1  0
  5  6  1  0
  6  7  1  0
  7  8  1  0
  8  9  1  0
  9 10  1  0
 10 11  1  0
 10 12  1  0
  9 13  1  0
  9 14  1  0
  8 15  1  0
  8 16  1  0
  7 17  1  0
  7 18  1  0
  6 19  1  0
  5 20  1  0
  5 21  1  0
  4 22  1  0
 22 23  2  0
 23 24  1  0
 24 25  2  0
 25 26  1  0
 26 27  2  0
 27 28  1  0
 25 29  1  0
 24 30  1  0
 23 31  1  0
  4 32  1  0
  3 33  1  0
  2 34  1  0
 34 35  2  0
 35 36  1  0
 36 37  2  0
 37 38  1  0
 38 39  2  0
 39 40  1  0
 38 41  1  0
 36 42  1  0
 35 43  1  0
 10  6  1  0
 27 22  1  0
 39 34  1  0
M  END
>  <cnnaffinity>  (1) 
5.43819

>  <plip>  (1) 
-0.14285714285714285

>  <filename>  (1) 
[H][c]1[n][c]([H])[c]([C]([H])([N]([H])[C](=[O])[c]2[c]([H])[c]([H])[n][c]([H])[c]2[Cl])[C]([H])([H])[C]2([H])[C]([H])([H])[C]([H])([H])[C]([H])([H])[C]2([H])[H])[c]([H])[c]1[H]

>  <combo1>  (1) 
-0.7851336853462182

$$$$
