
     RDKit          3D

 34 36  0  0  0  0  0  0  0  0999 V2000
    7.2294   -1.7748   27.0181 N   0  0  0  0  0  0  0  0  0  0  0  0
    6.9816   -2.0123   25.6861 C   0  0  0  0  0  0  0  0  0  0  0  0
    6.4800   -3.2719   25.3367 C   0  0  0  0  0  0  0  0  0  0  0  0
    6.2142   -3.5552   24.0003 C   0  0  0  0  0  0  0  0  0  0  0  0
    6.4574   -2.6023   23.0135 C   0  0  0  0  0  0  0  0  0  0  0  0
    6.9892   -1.3451   23.3518 C   0  0  0  0  0  0  0  0  0  0  0  0
    7.2584   -1.0344   24.7030 C   0  0  0  0  0  0  0  0  0  0  0  0
    7.8046    0.3265   25.1148 C   0  0  0  0  0  0  0  0  0  0  0  0
    8.3470    1.1147   23.9202 C   0  0  0  0  0  0  0  0  0  0  0  0
    7.3685    1.0345   22.7471 C   0  0  0  0  0  0  0  0  0  0  0  0
    7.2101   -0.3707   22.3390 N   0  0  0  0  0  0  0  0  0  0  0  0
    7.4088   -0.7516   20.9950 C   0  0  0  0  0  0  0  0  0  0  0  0
    8.1282   -1.6756   20.6833 O   0  0  0  0  0  0  0  0  0  0  0  0
    6.6738    0.0484   19.9585 C   0  0  0  0  0  0  0  0  0  0  0  0
    5.4398    0.6794   20.1895 C   0  0  0  0  0  0  0  0  0  0  0  0
    4.8081    1.3118   19.1190 C   0  0  0  0  0  0  0  0  0  0  0  0
    5.4133    1.2832   17.8582 C   0  0  0  0  0  0  0  0  0  0  0  0
    6.5763    0.6585   17.6247 N   0  0  0  0  0  0  0  0  0  0  0  0
    7.1829    0.0577   18.6513 C   0  0  0  0  0  0  0  0  0  0  0  0
    8.1145   -0.4418   18.4012 H   0  0  0  0  0  0  0  0  0  0  0  0
    4.9497    1.7729   17.0010 H   0  0  0  0  0  0  0  0  0  0  0  0
    3.8721    1.8378   19.2469 H   0  0  0  0  0  0  0  0  0  0  0  0
    4.9765    0.6504   21.1788 H   0  0  0  0  0  0  0  0  0  0  0  0
    6.4050    1.4842   23.0359 H   0  0  0  0  0  0  0  0  0  0  0  0
    7.7368    1.6060   21.8906 H   0  0  0  0  0  0  0  0  0  0  0  0
    8.5213    2.1594   24.1965 H   0  0  0  0  0  0  0  0  0  0  0  0
    9.3090    0.6962   23.6048 H   0  0  0  0  0  0  0  0  0  0  0  0
    8.5880    0.2176   25.8805 H   0  0  0  0  0  0  0  0  0  0  0  0
    6.9994    0.8985   25.6038 H   0  0  0  0  0  0  0  0  0  0  0  0
    6.2322   -2.8187   21.9794 H   0  0  0  0  0  0  0  0  0  0  0  0
    5.8208   -4.5271   23.7265 H   0  0  0  0  0  0  0  0  0  0  0  0
    6.3107   -3.9957   26.1299 H   0  0  0  0  0  0  0  0  0  0  0  0
    7.0037   -2.4935   27.6780 H   0  0  0  0  0  0  0  0  0  0  0  0
    7.4040   -0.8449   27.3529 H   0  0  0  0  0  0  0  0  0  0  0  0
  1  2  1  0
  2  3  2  0
  3  4  1  0
  4  5  2  0
  5  6  1  0
  6  7  2  0
  7  8  1  0
  8  9  1  0
  9 10  1  0
 10 11  1  0
 11 12  1  0
 12 13  2  0
 12 14  1  0
 14 15  2  0
 15 16  1  0
 16 17  2  0
 17 18  1  0
 18 19  2  0
 19 20  1  0
 17 21  1  0
 16 22  1  0
 15 23  1  0
 10 24  1  0
 10 25  1  0
  9 26  1  0
  9 27  1  0
  8 28  1  0
  8 29  1  0
  5 30  1  0
  4 31  1  0
  3 32  1  0
  1 33  1  0
  1 34  1  0
  7  2  1  0
 19 14  1  0
 11  6  1  0
M  END
>  <cnnaffinity>  (1) 
4.76712

>  <plip>  (1) 
-0.034482758620689655

>  <filename>  (1) 
[H][c]1[n][c]([H])[c]([C](=[O])[N]2[c]3[c]([H])[c]([H])[c]([H])[c]([N]([H])[H])[c]3[C]([H])([H])[C]([H])([H])[C]2([H])[H])[c]([H])[c]1[H]

>  <combo1>  (1) 
-0.21631820437267588

$$$$
