
     RDKit          3D

 26 27  0  0  0  0  0  0  0  0999 V2000
    4.9105    1.7819   16.9955 H   0  0  0  0  0  0  0  0  0  0  0  0
    5.3993    1.2971   17.8377 C   0  0  0  0  0  0  0  0  0  0  0  0
    6.5694    0.6827   17.5774 N   0  0  0  0  0  0  0  0  0  0  0  0
    7.1739    0.0598   18.5953 C   0  0  0  0  0  0  0  0  0  0  0  0
    8.1199   -0.4382   18.3890 H   0  0  0  0  0  0  0  0  0  0  0  0
    6.6673    0.0051   19.9123 C   0  0  0  0  0  0  0  0  0  0  0  0
    7.3729   -0.7610   20.8849 N   0  0  0  0  0  0  0  0  0  0  0  0
    7.5834   -0.3746   22.0837 C   0  0  0  0  0  0  0  0  0  0  0  0
    7.3345    1.0414   22.6338 C   0  0  0  0  0  0  0  0  0  0  0  0
    6.9698    1.2346   23.8485 N   0  0  0  0  0  0  0  0  0  0  0  0
    6.8180    2.6754   24.0360 C   0  0  0  0  0  0  0  0  0  0  0  0
    5.7881    2.9010   24.3255 H   0  0  0  0  0  0  0  0  0  0  0  0
    7.4616    3.0000   24.8564 H   0  0  0  0  0  0  0  0  0  0  0  0
    7.2045    3.3532   22.7015 C   0  0  0  0  0  0  0  0  0  0  0  0
    6.3779    3.9430   22.2839 H   0  0  0  0  0  0  0  0  0  0  0  0
    8.0899    3.9937   22.8077 H   0  0  0  0  0  0  0  0  0  0  0  0
    7.4920    2.1926   21.8900 N   0  0  0  0  0  0  0  0  0  0  0  0
    7.8470    2.2214   20.9514 H   0  0  0  0  0  0  0  0  0  0  0  0
    8.1872   -1.3669   23.0438 C   0  0  0  0  0  0  0  0  0  0  0  0
    9.0166   -0.9127   23.5911 H   0  0  0  0  0  0  0  0  0  0  0  0
    7.4399   -1.6611   23.7843 H   0  0  0  0  0  0  0  0  0  0  0  0
    8.5397   -2.2470   22.5055 H   0  0  0  0  0  0  0  0  0  0  0  0
    5.4417    0.6386   20.1592 C   0  0  0  0  0  0  0  0  0  0  0  0
    5.0209    0.6196   21.1677 H   0  0  0  0  0  0  0  0  0  0  0  0
    4.8048    1.3054   19.1040 C   0  0  0  0  0  0  0  0  0  0  0  0
    3.8724    1.8422   19.2616 H   0  0  0  0  0  0  0  0  0  0  0  0
  1  2  1  0
  2  3  2  0
  3  4  1  0
  4  5  1  0
  4  6  2  0
  6  7  1  0
  7  8  2  3
  8  9  1  0
  9 10  2  0
 10 11  1  0
 11 12  1  0
 11 13  1  0
 11 14  1  0
 14 15  1  0
 14 16  1  0
 14 17  1  0
 17 18  1  0
  8 19  1  0
 19 20  1  0
 19 21  1  0
 19 22  1  0
  6 23  1  0
 23 24  1  0
 23 25  2  0
 25 26  1  0
 25  2  1  0
 17  9  1  0
M  END
>  <cnnaffinity>  (1) 
4.13223

>  <plip>  (1) 
-0.07142857142857142

>  <filename>  (1) 
[H][c]1[n][c]([H])[c]([N]=[C]([C]2=[N][C]([H])([H])[C]([H])([H])[N]2[H])[C]([H])([H])[H])[c]([H])[c]1[H]

>  <combo1>  (1) 
-0.5226814952209936

$$$$
