
     RDKit          3D

 34 36  0  0  0  0  0  0  0  0999 V2000
    4.8038    1.3141   19.1041 C   0  0  0  0  0  0  0  0  0  0  0  0
    5.4031    1.2954   17.8407 C   0  0  0  0  0  0  0  0  0  0  0  0
    6.5698    0.6855   17.5842 N   0  0  0  0  0  0  0  0  0  0  0  0
    7.1797    0.0790   18.6079 C   0  0  0  0  0  0  0  0  0  0  0  0
    6.6671    0.0290   19.9111 C   0  0  0  0  0  0  0  0  0  0  0  0
    7.3978   -0.7050   20.9832 C   0  0  0  0  0  0  0  0  0  0  0  0
    8.3281    0.2679   21.6594 N   0  0  0  0  0  4  0  0  0  0  0  0
    9.1228   -0.3599   22.7444 C   0  0  0  0  0  0  0  0  0  0  0  0
    8.2410   -0.7798   23.9173 C   0  0  0  0  0  0  0  0  0  0  0  0
    7.8008    0.2039   24.8438 C   0  0  0  0  0  0  0  0  0  0  0  0
    7.0064   -0.1325   25.9210 C   0  0  0  0  0  0  0  0  0  0  0  0
    6.6013   -1.4828   26.1236 C   0  0  0  0  0  0  0  0  0  0  0  0
    5.8038   -1.7956   27.2110 N   0  0  0  0  0  0  0  0  0  0  0  0
    5.4762   -3.0668   27.3201 C   0  0  0  0  0  0  0  0  0  0  0  0
    5.9071   -4.0790   26.3802 C   0  0  0  0  0  0  0  0  0  0  0  0
    6.6629   -3.8165   25.3342 N   0  0  0  0  0  0  0  0  0  0  0  0
    7.0329   -2.4912   25.1880 C   0  0  0  0  0  0  0  0  0  0  0  0
    7.8552   -2.1042   24.0923 C   0  0  0  0  0  0  0  0  0  0  0  0
    8.1485   -2.8874   23.4012 H   0  0  0  0  0  0  0  0  0  0  0  0
    5.5953   -5.1128   26.5329 H   0  0  0  0  0  0  0  0  0  0  0  0
    4.8474   -3.3568   28.1618 H   0  0  0  0  0  0  0  0  0  0  0  0
    6.6651    0.6020   26.6413 H   0  0  0  0  0  0  0  0  0  0  0  0
    8.1059    1.2424   24.6924 H   0  0  0  0  0  0  0  0  0  0  0  0
    9.8992    0.3260   23.0862 H   0  0  0  0  0  0  0  0  0  0  0  0
    9.6148   -1.2553   22.3497 H   0  0  0  0  0  0  0  0  0  0  0  0
    7.7071    1.0065   22.0827 H   0  0  0  0  0  0  0  0  0  0  0  0
    8.9016    0.7063   20.9089 H   0  0  0  0  0  0  0  0  0  0  0  0
    6.6925   -1.1132   21.7135 H   0  0  0  0  0  0  0  0  0  0  0  0
    7.9758   -1.5421   20.5750 H   0  0  0  0  0  0  0  0  0  0  0  0
    5.4403    0.6599   20.1580 C   0  0  0  0  0  0  0  0  0  0  0  0
    4.9995    0.6354   21.1595 H   0  0  0  0  0  0  0  0  0  0  0  0
    8.1186   -0.4239   18.3731 H   0  0  0  0  0  0  0  0  0  0  0  0
    4.9179    1.7807   16.9957 H   0  0  0  0  0  0  0  0  0  0  0  0
    3.8712    1.8453   19.2551 H   0  0  0  0  0  0  0  0  0  0  0  0
  1  2  2  0
  2  3  1  0
  3  4  2  0
  4  5  1  0
  5  6  1  0
  6  7  1  0
  7  8  1  0
  8  9  1  0
  9 10  2  0
 10 11  1  0
 11 12  2  0
 12 13  1  0
 13 14  2  0
 14 15  1  0
 15 16  2  0
 16 17  1  0
 17 18  2  0
 18 19  1  0
 15 20  1  0
 14 21  1  0
 11 22  1  0
 10 23  1  0
  8 24  1  0
  8 25  1  0
  7 26  1  0
  7 27  1  0
  6 28  1  0
  6 29  1  0
  5 30  2  0
 30 31  1  0
  4 32  1  0
  2 33  1  0
  1 34  1  0
 30  1  1  0
 18  9  1  0
 17 12  1  0
M  CHG  1   7   1
M  END
>  <cnnaffinity>  (1) 
4.67676

>  <plip>  (1) 
-0.03571428571428571

>  <filename>  (1) 
[H][c]1[n][c]2[c]([H])[c]([H])[c]([C]([H])([H])[N+]([H])([H])[C]([H])([H])[c]3[c]([H])[n][c]([H])[c]([H])[c]3[H])[c]([H])[c]2[n][c]1[H]

>  <combo1>  (1) 
-0.2215393325682088

$$$$
