
     RDKit          3D

 35 36  0  0  0  0  0  0  0  0999 V2000
    7.1498   -2.0617   26.0829 C   0  0  0  0  0  0  0  0  0  0  0  0
    8.6305   -1.7958   25.9671 C   0  0  0  0  0  0  0  0  0  0  0  0
    8.7465   -0.7668   24.9677 O   0  0  0  0  0  0  0  0  0  0  0  0
    9.9677   -0.3021   24.6769 C   0  0  0  0  0  0  0  0  0  0  0  0
   10.9718   -0.4983   25.3101 O   0  0  0  0  0  0  0  0  0  0  0  0
    9.9129    0.6254   23.4469 C   0  0  0  0  0  0  0  0  0  0  0  0
    9.1761    0.1764   22.2565 N   0  0  0  0  0  0  0  0  0  0  0  0
    9.7249   -0.7064   21.3274 C   0  0  0  0  0  0  0  0  0  0  0  0
   10.8772   -1.0616   21.3115 O   0  0  0  0  0  0  0  0  0  0  0  0
    8.7469   -1.1347   20.4732 N   0  0  0  0  0  0  0  0  0  0  0  0
    7.4282   -0.6965   20.9121 C   0  0  0  0  0  0  0  0  0  0  0  0
    6.6309   -1.8754   21.5058 C   0  0  0  0  0  0  0  0  0  0  0  0
    6.3676   -2.6024   20.7298 H   0  0  0  0  0  0  0  0  0  0  0  0
    7.2005   -2.3736   22.3014 H   0  0  0  0  0  0  0  0  0  0  0  0
    5.7028   -1.5116   21.9494 H   0  0  0  0  0  0  0  0  0  0  0  0
    6.6594    0.0119   19.7963 C   0  0  0  0  0  0  0  0  0  0  0  0
    5.4563    0.6785   20.0812 C   0  0  0  0  0  0  0  0  0  0  0  0
    4.7876    1.3213   19.0377 C   0  0  0  0  0  0  0  0  0  0  0  0
    5.3556    1.3065   17.7585 C   0  0  0  0  0  0  0  0  0  0  0  0
    6.5006    0.6739   17.4668 N   0  0  0  0  0  0  0  0  0  0  0  0
    7.1270    0.0495   18.4716 C   0  0  0  0  0  0  0  0  0  0  0  0
    8.0711   -0.4332   18.2315 H   0  0  0  0  0  0  0  0  0  0  0  0
    4.8862    1.8442   16.9378 H   0  0  0  0  0  0  0  0  0  0  0  0
    3.8576    1.8529   19.2022 H   0  0  0  0  0  0  0  0  0  0  0  0
    5.0834    0.7339   21.1076 H   0  0  0  0  0  0  0  0  0  0  0  0
    7.8126    0.2981   22.0585 C   0  0  0  0  0  0  0  0  0  0  0  0
    7.0694    0.9963   22.7074 O   0  0  0  0  0  0  0  0  0  0  0  0
    8.9111   -2.0853   20.1809 H   0  0  0  0  0  0  0  0  0  0  0  0
    9.4742    1.5591   23.8132 H   0  0  0  0  0  0  0  0  0  0  0  0
   10.9474    0.8190   23.1686 H   0  0  0  0  0  0  0  0  0  0  0  0
    9.1795   -2.6825   25.6256 H   0  0  0  0  0  0  0  0  0  0  0  0
    9.0752   -1.4423   26.9035 H   0  0  0  0  0  0  0  0  0  0  0  0
    6.7599   -2.3812   25.1118 H   0  0  0  0  0  0  0  0  0  0  0  0
    6.9496   -2.8459   26.8171 H   0  0  0  0  0  0  0  0  0  0  0  0
    6.6252   -1.1515   26.3850 H   0  0  0  0  0  0  0  0  0  0  0  0
  1  2  1  0
  2  3  1  0
  3  4  1  0
  4  5  2  0
  4  6  1  0
  6  7  1  0
  7  8  1  0
  8  9  2  0
  8 10  1  0
 10 11  1  0
 11 12  1  0
 12 13  1  0
 12 14  1  0
 12 15  1  0
 11 16  1  0
 16 17  2  0
 17 18  1  0
 18 19  2  0
 19 20  1  0
 20 21  2  0
 21 22  1  0
 19 23  1  0
 18 24  1  0
 17 25  1  0
 11 26  1  0
 26 27  2  0
 10 28  1  0
  6 29  1  0
  6 30  1  0
  2 31  1  0
  2 32  1  0
  1 33  1  0
  1 34  1  0
  1 35  1  0
 26  7  1  0
 21 16  1  0
M  END
>  <cnnaffinity>  (1) 
4.58428

>  <plip>  (1) 
-0.06896551724137931

>  <filename>  (1) 
[H][c]1[n][c]([H])[c]([C]2([C]([H])([H])[H])[C](=[O])[N]([C]([H])([H])[C](=[O])[O][C]([H])([H])[C]([H])([H])[H])[C](=[O])[N]2[H])[c]([H])[c]1[H]

>  <combo1>  (1) 
-0.38006977469141956

$$$$
