
     RDKit          3D

 47 51  0  0  0  0  0  0  0  0999 V2000
    4.7962    1.2881   19.0489 C   0  0  0  0  0  0  0  0  0  0  0  0
    5.4430    1.2806   17.8075 C   0  0  0  0  0  0  0  0  0  0  0  0
    6.6204    0.6762   17.5909 N   0  0  0  0  0  0  0  0  0  0  0  0
    7.2039    0.0897   18.6436 C   0  0  0  0  0  0  0  0  0  0  0  0
    6.6681    0.0577   19.9452 C   0  0  0  0  0  0  0  0  0  0  0  0
    7.4316   -0.5974   21.0779 C   0  0  0  0  0  0  0  0  0  0  0  0
    7.1178   -2.0472   21.3581 C   0  0  0  0  0  0  0  0  0  0  0  0
    8.0037   -3.0012   21.2195 N   0  0  0  0  0  0  0  0  0  0  0  0
    7.3374   -4.1296   21.6495 O   0  0  0  0  0  0  0  0  0  0  0  0
    6.1304   -3.7372   22.0851 C   0  0  0  0  0  0  0  0  0  0  0  0
    5.3019   -4.7505   22.7957 C   0  0  0  0  0  0  0  0  0  0  0  0
    5.0807   -6.0776   22.0270 C   0  0  0  0  0  0  0  0  0  0  0  0
    4.8033   -7.1397   23.1208 C   0  0  0  0  0  0  0  0  0  0  0  0
    4.8903   -6.3971   24.4705 C   0  0  0  0  0  0  0  0  0  0  0  0
    5.8115   -5.1786   24.2271 C   0  0  0  0  0  0  0  0  0  0  0  0
    7.3133   -5.5609   24.2163 C   0  0  0  0  0  0  0  0  0  0  0  0
    7.8904   -5.8245   25.6078 C   0  0  0  0  0  0  0  0  0  0  0  0
    7.6209   -4.7592   26.5015 O   0  0  0  0  0  0  0  0  0  0  0  0
    6.2429   -4.4656   26.6459 C   0  0  0  0  0  0  0  0  0  0  0  0
    5.6240   -4.0750   25.2932 C   0  0  0  0  0  0  0  0  0  0  0  0
    6.1033   -3.1504   24.9443 H   0  0  0  0  0  0  0  0  0  0  0  0
    4.5621   -3.8483   25.4298 H   0  0  0  0  0  0  0  0  0  0  0  0
    5.7183   -5.3255   27.1049 H   0  0  0  0  0  0  0  0  0  0  0  0
    6.1917   -3.6344   27.3582 H   0  0  0  0  0  0  0  0  0  0  0  0
    8.9835   -5.8700   25.5454 H   0  0  0  0  0  0  0  0  0  0  0  0
    7.5402   -6.7819   26.0323 H   0  0  0  0  0  0  0  0  0  0  0  0
    7.8783   -4.7226   23.7977 H   0  0  0  0  0  0  0  0  0  0  0  0
    7.4793   -6.4206   23.5582 H   0  0  0  0  0  0  0  0  0  0  0  0
    3.8919   -6.0286   24.7439 H   0  0  0  0  0  0  0  0  0  0  0  0
    5.2284   -7.0280   25.3055 H   0  0  0  0  0  0  0  0  0  0  0  0
    5.5511   -7.9383   23.0805 H   0  0  0  0  0  0  0  0  0  0  0  0
    3.8320   -7.6290   22.9865 H   0  0  0  0  0  0  0  0  0  0  0  0
    4.2601   -5.9870   21.3083 H   0  0  0  0  0  0  0  0  0  0  0  0
    5.9673   -6.3425   21.4396 H   0  0  0  0  0  0  0  0  0  0  0  0
    4.3375   -4.2557   22.9372 H   0  0  0  0  0  0  0  0  0  0  0  0
    5.9054   -2.4747   21.8557 N   0  0  0  0  0  0  0  0  0  0  0  0
    7.7904    0.2870   22.2735 C   0  0  0  0  0  0  0  0  0  0  0  0
    8.8563   -0.1286   21.3091 C   0  0  0  0  0  0  0  0  0  0  0  0
    9.2637    0.6181   20.6284 H   0  0  0  0  0  0  0  0  0  0  0  0
    9.5781   -0.8764   21.6270 H   0  0  0  0  0  0  0  0  0  0  0  0
    7.4425    1.3180   22.2428 H   0  0  0  0  0  0  0  0  0  0  0  0
    7.7614   -0.1458   23.2712 H   0  0  0  0  0  0  0  0  0  0  0  0
    5.4139    0.6583   20.1357 C   0  0  0  0  0  0  0  0  0  0  0  0
    4.9390    0.6390   21.1208 H   0  0  0  0  0  0  0  0  0  0  0  0
    8.1506   -0.4132   18.4458 H   0  0  0  0  0  0  0  0  0  0  0  0
    5.0041    1.7852   16.9483 H   0  0  0  0  0  0  0  0  0  0  0  0
    3.8526    1.8147   19.1493 H   0  0  0  0  0  0  0  0  0  0  0  0
  1  2  2  0
  2  3  1  0
  3  4  2  0
  4  5  1  0
  5  6  1  0
  6  7  1  0
  7  8  2  0
  8  9  1  0
  9 10  1  0
 10 11  1  0
 11 12  1  0
 12 13  1  0
 13 14  1  0
 14 15  1  0
 15 16  1  0
 16 17  1  0
 17 18  1  0
 18 19  1  0
 19 20  1  0
 20 21  1  0
 20 22  1  0
 19 23  1  0
 19 24  1  0
 17 25  1  0
 17 26  1  0
 16 27  1  0
 16 28  1  0
 14 29  1  0
 14 30  1  0
 13 31  1  0
 13 32  1  0
 12 33  1  0
 12 34  1  0
 11 35  1  0
 10 36  2  0
  6 37  1  0
 37 38  1  0
 38 39  1  0
 38 40  1  0
 37 41  1  0
 37 42  1  0
  5 43  2  0
 43 44  1  0
  4 45  1  0
  2 46  1  0
  1 47  1  0
 43  1  1  0
 38  6  1  0
 36  7  1  0
 15 11  1  0
 20 15  1  0
M  END
>  <cnnaffinity>  (1) 
5.37338

>  <plip>  (1) 
-0.06896551724137931

>  <filename>  (1) 
[H][c]1[n][c]([H])[c]([C]2([c]3[n][o][c]([C]4([H])[C]([H])([H])[C]([H])([H])[C]([H])([H])[C]45[C]([H])([H])[C]([H])([H])[O][C]([H])([H])[C]5([H])[H])[n]3)[C]([H])([H])[C]2([H])[H])[c]([H])[c]1[H]

>  <combo1>  (1) 
-0.37959871489525393

$$$$
