
     RDKit          3D

 46 47  0  0  0  0  0  0  0  0999 V2000
    5.9096    0.2280   28.3632 C   0  0  0  0  0  0  0  0  0  0  0  0
    5.9716   -0.9124   27.3694 C   0  0  0  0  0  0  0  0  0  0  0  0
    7.1921   -1.5165   27.0318 C   0  0  0  0  0  0  0  0  0  0  0  0
    7.2617   -2.5937   26.1491 C   0  0  0  0  0  0  0  0  0  0  0  0
    6.0763   -3.0822   25.5835 C   0  0  0  0  0  0  0  0  0  0  0  0
    6.1403   -4.4605   24.4594 S   0  0  0  0  0  0  0  0  0  0  0  0
    4.9134   -5.2348   24.5891 O   0  0  0  0  0  0  0  0  0  0  0  0
    7.4567   -5.0839   24.5328 O   0  0  0  0  0  0  0  0  0  0  0  0
    6.0320   -3.7027   22.8393 C   0  0  0  0  0  0  0  0  0  0  0  0
    7.1526   -2.6949   22.4631 C   0  0  0  0  0  0  0  0  0  0  0  0
    6.9645   -2.0447   21.0753 C   0  0  0  0  0  0  0  0  0  0  0  0
    6.4860   -2.6818   20.1576 O   0  0  0  0  0  0  0  0  0  0  0  0
    7.3606   -0.7153   20.9240 N   0  0  0  0  0  0  0  0  0  0  0  0
    6.6793    0.0242   19.8918 C   0  0  0  0  0  0  0  0  0  0  0  0
    5.4563    0.6517   20.1532 C   0  0  0  0  0  0  0  0  0  0  0  0
    4.8106    1.3125   19.0998 C   0  0  0  0  0  0  0  0  0  0  0  0
    5.3996    1.3040   17.8302 C   0  0  0  0  0  0  0  0  0  0  0  0
    6.5619    0.6886   17.5574 N   0  0  0  0  0  0  0  0  0  0  0  0
    7.1740    0.0658   18.5745 C   0  0  0  0  0  0  0  0  0  0  0  0
    8.1119   -0.4457   18.3509 H   0  0  0  0  0  0  0  0  0  0  0  0
    4.9242    1.8041   16.9898 H   0  0  0  0  0  0  0  0  0  0  0  0
    3.8753    1.8378   19.2520 H   0  0  0  0  0  0  0  0  0  0  0  0
    5.0358    0.6169   21.1603 H   0  0  0  0  0  0  0  0  0  0  0  0
    8.2984   -0.0025   21.8162 C   0  0  0  0  0  0  0  0  0  0  0  0
    7.5608    0.9280   22.7830 C   0  0  0  0  0  0  0  0  0  0  0  0
    7.0866    1.7577   22.2431 H   0  0  0  0  0  0  0  0  0  0  0  0
    8.2666    1.3601   23.5032 H   0  0  0  0  0  0  0  0  0  0  0  0
    6.7798    0.4003   23.3433 H   0  0  0  0  0  0  0  0  0  0  0  0
    9.3322    0.7718   20.9934 C   0  0  0  0  0  0  0  0  0  0  0  0
    9.8229    0.1126   20.2704 H   0  0  0  0  0  0  0  0  0  0  0  0
   10.0968    1.2162   21.6413 H   0  0  0  0  0  0  0  0  0  0  0  0
    8.8391    1.5803   20.4423 H   0  0  0  0  0  0  0  0  0  0  0  0
    8.8329   -0.7707   22.3913 H   0  0  0  0  0  0  0  0  0  0  0  0
    8.1238   -3.2147   22.4567 H   0  0  0  0  0  0  0  0  0  0  0  0
    7.2243   -1.9023   23.2177 H   0  0  0  0  0  0  0  0  0  0  0  0
    5.0152   -3.2928   22.8462 H   0  0  0  0  0  0  0  0  0  0  0  0
    6.0229   -4.5928   22.2015 H   0  0  0  0  0  0  0  0  0  0  0  0
    4.8411   -2.4936   25.8844 C   0  0  0  0  0  0  0  0  0  0  0  0
    4.8072   -1.4192   26.7719 C   0  0  0  0  0  0  0  0  0  0  0  0
    3.8551   -0.9678   27.0268 H   0  0  0  0  0  0  0  0  0  0  0  0
    3.9031   -2.8643   25.4668 H   0  0  0  0  0  0  0  0  0  0  0  0
    8.2314   -3.0391   25.9205 H   0  0  0  0  0  0  0  0  0  0  0  0
    8.1003   -1.1342   27.4852 H   0  0  0  0  0  0  0  0  0  0  0  0
    5.7889   -0.1319   29.3923 H   0  0  0  0  0  0  0  0  0  0  0  0
    6.8217    0.8331   28.3440 H   0  0  0  0  0  0  0  0  0  0  0  0
    5.0684    0.8988   28.1609 H   0  0  0  0  0  0  0  0  0  0  0  0
  1  2  1  0
  2  3  2  0
  3  4  1  0
  4  5  2  0
  5  6  1  0
  6  7  2  0
  6  8  2  0
  6  9  1  0
  9 10  1  0
 10 11  1  0
 11 12  2  0
 11 13  1  0
 13 14  1  0
 14 15  2  0
 15 16  1  0
 16 17  2  0
 17 18  1  0
 18 19  2  0
 19 20  1  0
 17 21  1  0
 16 22  1  0
 15 23  1  0
 13 24  1  0
 24 25  1  0
 25 26  1  0
 25 27  1  0
 25 28  1  0
 24 29  1  0
 29 30  1  0
 29 31  1  0
 29 32  1  0
 24 33  1  0
 10 34  1  0
 10 35  1  0
  9 36  1  0
  9 37  1  0
  5 38  1  0
 38 39  2  0
 39 40  1  0
 38 41  1  0
  4 42  1  0
  3 43  1  0
  1 44  1  0
  1 45  1  0
  1 46  1  0
 39  2  1  0
 19 14  1  0
M  END
>  <cnnaffinity>  (1) 
5.42085

>  <plip>  (1) 
-0.07142857142857142

>  <filename>  (1) 
[H][c]1[n][c]([H])[c]([N]([C](=[O])[C]([H])([H])[C]([H])([H])[S](=[O])(=[O])[c]2[c]([H])[c]([H])[c]([C]([H])([H])[H])[c]([H])[c]2[H])[C]([H])([C]([H])([H])[H])[C]([H])([H])[H])[c]([H])[c]1[H]

>  <combo1>  (1) 
-0.372541815728751

$$$$
