
     RDKit          3D

 36 39  0  0  0  0  0  0  0  0999 V2000
    4.9321    1.7808   16.9985 H   0  0  0  0  0  0  0  0  0  0  0  0
    5.4055    1.2840   17.8452 C   0  0  0  0  0  0  0  0  0  0  0  0
    6.5719    0.6633   17.6011 N   0  0  0  0  0  0  0  0  0  0  0  0
    7.1842    0.0492   18.6231 C   0  0  0  0  0  0  0  0  0  0  0  0
    8.1270   -0.4424   18.3944 H   0  0  0  0  0  0  0  0  0  0  0  0
    6.6653    0.0268   19.9351 C   0  0  0  0  0  0  0  0  0  0  0  0
    7.3610   -0.6937   20.9161 O   0  0  0  0  0  0  0  0  0  0  0  0
    7.3436   -0.3073   22.2355 C   0  0  0  0  0  0  0  0  0  0  0  0
    6.9768    0.7739   22.6149 O   0  0  0  0  0  0  0  0  0  0  0  0
    7.8635   -1.4144   23.1744 C   0  0  0  0  0  0  0  0  0  0  0  0
    6.8005   -2.3186   23.7558 C   0  0  0  0  0  0  0  0  0  0  0  0
    6.2275   -2.0391   24.9881 C   0  0  0  0  0  0  0  0  0  0  0  0
    6.5659   -1.1611   25.5320 H   0  0  0  0  0  0  0  0  0  0  0  0
    5.2422   -2.8770   25.5666 C   0  0  0  0  0  0  0  0  0  0  0  0
    4.8303   -2.6272   26.5419 H   0  0  0  0  0  0  0  0  0  0  0  0
    4.8040   -4.0026   24.9065 C   0  0  0  0  0  0  0  0  0  0  0  0
    4.0435   -4.6527   25.3356 H   0  0  0  0  0  0  0  0  0  0  0  0
    5.3402   -4.3255   23.6298 C   0  0  0  0  0  0  0  0  0  0  0  0
    4.9072   -5.4635   22.8834 C   0  0  0  0  0  0  0  0  0  0  0  0
    4.1451   -6.1180   23.3090 H   0  0  0  0  0  0  0  0  0  0  0  0
    5.4617   -5.6980   21.6498 C   0  0  0  0  0  0  0  0  0  0  0  0
    5.1707   -6.5490   21.0477 H   0  0  0  0  0  0  0  0  0  0  0  0
    6.4590   -4.8101   21.1587 C   0  0  0  0  0  0  0  0  0  0  0  0
    6.9009   -4.9875   20.1796 H   0  0  0  0  0  0  0  0  0  0  0  0
    6.9017   -3.7666   21.8150 N   0  0  0  0  0  0  0  0  0  0  0  0
    6.3477   -3.4862   23.0456 C   0  0  0  0  0  0  0  0  0  0  0  0
    9.2483   -1.9889   22.9321 C   0  0  0  0  0  0  0  0  0  0  0  0
    9.7878   -1.6660   22.0434 H   0  0  0  0  0  0  0  0  0  0  0  0
    9.3825   -3.0443   23.1740 H   0  0  0  0  0  0  0  0  0  0  0  0
    9.0354   -1.0282   24.0680 C   0  0  0  0  0  0  0  0  0  0  0  0
    9.0510   -1.4141   25.0893 H   0  0  0  0  0  0  0  0  0  0  0  0
    9.4255   -0.0150   23.9867 H   0  0  0  0  0  0  0  0  0  0  0  0
    5.4412    0.6514   20.1794 C   0  0  0  0  0  0  0  0  0  0  0  0
    5.0052    0.6382   21.1751 H   0  0  0  0  0  0  0  0  0  0  0  0
    4.8115    1.2960   19.1088 C   0  0  0  0  0  0  0  0  0  0  0  0
    3.8818    1.8296   19.2573 H   0  0  0  0  0  0  0  0  0  0  0  0
  1  2  1  0
  2  3  2  0
  3  4  1  0
  4  5  1  0
  4  6  2  0
  6  7  1  0
  7  8  1  0
  8  9  2  0
  8 10  1  0
 10 11  1  0
 11 12  2  0
 12 13  1  0
 12 14  1  0
 14 15  1  0
 14 16  2  0
 16 17  1  0
 16 18  1  0
 18 19  2  0
 19 20  1  0
 19 21  1  0
 21 22  1  0
 21 23  2  0
 23 24  1  0
 23 25  1  0
 25 26  2  0
 10 27  1  0
 27 28  1  0
 27 29  1  0
 27 30  1  0
 30 31  1  0
 30 32  1  0
  6 33  1  0
 33 34  1  0
 33 35  2  0
 35 36  1  0
 35  2  1  0
 30 10  1  0
 26 11  1  0
 26 18  1  0
M  END
>  <cnnaffinity>  (1) 
5.23209

>  <plip>  (1) 
-0.0

>  <filename>  (1) 
[H][c]1[n][c]([H])[c]([O][C](=[O])[C]2([c]3[c]([H])[c]([H])[c]([H])[c]4[c]([H])[c]([H])[c]([H])[n][c]34)[C]([H])([H])[C]2([H])[H])[c]([H])[c]1[H]

>  <combo1>  (1) 
-6.007226458897362e-06

$$$$
