
     RDKit          3D

 30 31  0  0  0  0  0  0  0  0999 V2000
    8.4458   -1.6337   23.4471 C   0  0  0  0  0  0  0  0  0  0  0  0
    8.5360   -0.2125   23.1055 N   0  0  0  0  0  0  0  0  0  0  0  0
    9.2385    0.6706   24.0643 C   0  0  0  0  0  0  0  0  0  0  0  0
   10.7318    0.8008   23.8431 C   0  0  0  0  0  0  0  0  0  0  0  0
   11.6750    0.3213   24.6131 N   0  0  0  0  0  0  0  0  0  0  0  0
   12.8841    0.6154   24.0285 N   0  0  0  0  0  0  0  0  0  0  0  0
   12.6357    1.2780   22.9313 C   0  0  0  0  0  0  0  0  0  0  0  0
   11.2957    1.4359   22.7759 N   0  0  0  0  0  0  0  0  0  0  0  0
   10.7728    1.8911   22.0405 H   0  0  0  0  0  0  0  0  0  0  0  0
   13.3828    1.6195   22.2289 H   0  0  0  0  0  0  0  0  0  0  0  0
    9.0834    0.2805   25.0781 H   0  0  0  0  0  0  0  0  0  0  0  0
    8.7803    1.6672   24.0171 H   0  0  0  0  0  0  0  0  0  0  0  0
    8.2823    0.2633   21.8294 C   0  0  0  0  0  0  0  0  0  0  0  0
    8.7817    1.3122   21.4316 O   0  0  0  0  0  0  0  0  0  0  0  0
    7.4063   -0.6415   20.9333 C   0  0  0  0  0  0  0  0  0  0  0  0
    6.6504    0.0219   19.7924 C   0  0  0  0  0  0  0  0  0  0  0  0
    5.4532    0.7149   20.0202 C   0  0  0  0  0  0  0  0  0  0  0  0
    4.8207    1.3503   18.9460 C   0  0  0  0  0  0  0  0  0  0  0  0
    5.4113    1.2754   17.6824 C   0  0  0  0  0  0  0  0  0  0  0  0
    6.5470    0.6088   17.4318 N   0  0  0  0  0  0  0  0  0  0  0  0
    7.1379    0.0053   18.4721 C   0  0  0  0  0  0  0  0  0  0  0  0
    8.0745   -0.5086   18.2523 H   0  0  0  0  0  0  0  0  0  0  0  0
    4.9499    1.7692   16.8293 H   0  0  0  0  0  0  0  0  0  0  0  0
    3.9032    1.9134   19.0747 H   0  0  0  0  0  0  0  0  0  0  0  0
    5.0368    0.7841   21.0266 H   0  0  0  0  0  0  0  0  0  0  0  0
    8.0924   -1.3976   20.5260 H   0  0  0  0  0  0  0  0  0  0  0  0
    6.7076   -1.1690   21.5918 H   0  0  0  0  0  0  0  0  0  0  0  0
    7.4219   -1.9514   23.6822 H   0  0  0  0  0  0  0  0  0  0  0  0
    9.0664   -1.8431   24.3236 H   0  0  0  0  0  0  0  0  0  0  0  0
    8.8179   -2.2667   22.6337 H   0  0  0  0  0  0  0  0  0  0  0  0
  1  2  1  0
  2  3  1  0
  3  4  1  0
  4  5  2  0
  5  6  1  0
  6  7  2  0
  7  8  1  0
  8  9  1  0
  7 10  1  0
  3 11  1  0
  3 12  1  0
  2 13  1  0
 13 14  2  0
 13 15  1  0
 15 16  1  0
 16 17  2  0
 17 18  1  0
 18 19  2  0
 19 20  1  0
 20 21  2  0
 21 22  1  0
 19 23  1  0
 18 24  1  0
 17 25  1  0
 15 26  1  0
 15 27  1  0
  1 28  1  0
  1 29  1  0
  1 30  1  0
  8  4  1  0
 21 16  1  0
M  END
>  <cnnaffinity>  (1) 
4.70062

>  <plip>  (1) 
-0.10714285714285714

>  <filename>  (1) 
[H][c]1[n][c]([H])[c]([C]([H])([H])[C](=[O])[N]([C]([H])([H])[H])[C]([H])([H])[c]2[n][n][c]([H])[n]2[H])[c]([H])[c]1[H]

>  <combo1>  (1) 
-0.7259362261113543

$$$$
