
     RDKit          3D

 38 38  0  0  0  0  0  0  0  0999 V2000
    8.0196   -2.1966   26.3157 C   0  0  0  0  0  0  0  0  0  0  0  0
    7.6794   -3.2217   25.2251 C   0  0  0  0  0  0  0  0  0  0  0  0
    6.7997   -4.3940   25.7119 C   0  0  0  0  0  0  0  0  0  0  0  0
    7.5684   -5.6451   26.1816 C   0  0  0  0  0  0  0  0  0  0  0  0
    8.5017   -5.4547   27.3846 C   0  0  0  0  0  0  0  0  0  0  0  0
    9.9395   -5.1317   27.0099 C   0  0  0  0  0  0  0  0  0  0  0  0
   10.6363   -4.9314   28.2198 O   0  0  0  0  0  0  0  0  0  0  0  0
   11.5767   -4.8964   28.0315 H   0  0  0  0  0  0  0  0  0  0  0  0
   10.3651   -5.9731   26.4357 H   0  0  0  0  0  0  0  0  0  0  0  0
    9.9985   -4.2354   26.3683 H   0  0  0  0  0  0  0  0  0  0  0  0
    8.5252   -6.3680   27.9915 H   0  0  0  0  0  0  0  0  0  0  0  0
    8.1277   -4.6676   28.0501 H   0  0  0  0  0  0  0  0  0  0  0  0
    8.1512   -6.0322   25.3324 H   0  0  0  0  0  0  0  0  0  0  0  0
    6.8365   -6.4302   26.4059 H   0  0  0  0  0  0  0  0  0  0  0  0
    6.1405   -4.7149   24.8936 H   0  0  0  0  0  0  0  0  0  0  0  0
    6.1379   -4.0521   26.5226 H   0  0  0  0  0  0  0  0  0  0  0  0
    7.0695   -2.5487   24.0830 N   0  0  0  0  0  0  0  0  0  0  0  0
    7.7969   -1.9909   23.0710 C   0  0  0  0  0  0  0  0  0  0  0  0
    9.0176   -2.0722   23.0235 O   0  0  0  0  0  0  0  0  0  0  0  0
    6.9628   -1.3227   22.0394 C   0  0  0  0  0  0  0  0  0  0  0  0
    7.4530   -0.7562   20.9282 C   0  0  0  0  0  0  0  0  0  0  0  0
    6.6721   -0.0214   19.9094 C   0  0  0  0  0  0  0  0  0  0  0  0
    5.4484    0.6255   20.1463 C   0  0  0  0  0  0  0  0  0  0  0  0
    4.8245    1.2884   19.0877 C   0  0  0  0  0  0  0  0  0  0  0  0
    5.4303    1.2889   17.8270 C   0  0  0  0  0  0  0  0  0  0  0  0
    6.5986    0.6726   17.5729 N   0  0  0  0  0  0  0  0  0  0  0  0
    7.1899    0.0558   18.5990 C   0  0  0  0  0  0  0  0  0  0  0  0
    8.1397   -0.4324   18.3764 H   0  0  0  0  0  0  0  0  0  0  0  0
    4.9649    1.8063   16.9903 H   0  0  0  0  0  0  0  0  0  0  0  0
    3.8888    1.8135   19.2234 H   0  0  0  0  0  0  0  0  0  0  0  0
    5.0099    0.6484   21.1470 H   0  0  0  0  0  0  0  0  0  0  0  0
    8.5236   -0.8276   20.7121 H   0  0  0  0  0  0  0  0  0  0  0  0
    5.8948   -1.3600   22.2122 H   0  0  0  0  0  0  0  0  0  0  0  0
    6.0977   -2.3011   24.1393 H   0  0  0  0  0  0  0  0  0  0  0  0
    8.6203   -3.6354   24.8424 H   0  0  0  0  0  0  0  0  0  0  0  0
    7.1075   -1.7378   26.7236 H   0  0  0  0  0  0  0  0  0  0  0  0
    8.5730   -2.6550   27.1437 H   0  0  0  0  0  0  0  0  0  0  0  0
    8.6410   -1.4026   25.8833 H   0  0  0  0  0  0  0  0  0  0  0  0
  1  2  1  0
  2  3  1  0
  3  4  1  0
  4  5  1  0
  5  6  1  0
  6  7  1  0
  7  8  1  0
  6  9  1  0
  6 10  1  0
  5 11  1  0
  5 12  1  0
  4 13  1  0
  4 14  1  0
  3 15  1  0
  3 16  1  0
  2 17  1  0
 17 18  1  0
 18 19  2  0
 18 20  1  0
 20 21  2  3
 21 22  1  0
 22 23  2  0
 23 24  1  0
 24 25  2  0
 25 26  1  0
 26 27  2  0
 27 28  1  0
 25 29  1  0
 24 30  1  0
 23 31  1  0
 21 32  1  0
 20 33  1  0
 17 34  1  0
  2 35  1  0
  1 36  1  0
  1 37  1  0
  1 38  1  0
 27 22  1  0
M  END
>  <cnnaffinity>  (1) 
4.62542

>  <plip>  (1) 
-0.10714285714285714

>  <filename>  (1) 
[H][O][C]([H])([H])[C]([H])([H])[C]([H])([H])[C]([H])([H])[C]([H])([N]([H])[C](=[O])[C]([H])=[C]([H])[c]1[c]([H])[n][c]([H])[c]([H])[c]1[H])[C]([H])([H])[H]

>  <combo1>  (1) 
-0.6652286568002199

$$$$
