
     RDKit          3D

 45 46  0  0  0  0  0  0  0  0999 V2000
    6.4281    6.0289   23.6408 C   0  0  0  0  0  0  0  0  0  0  0  0
    6.3468    5.2077   22.3506 C   0  0  0  0  0  0  0  0  0  0  0  0
    6.1198    3.7048   22.5406 C   0  0  0  0  0  0  0  0  0  0  0  0
    7.2392    3.2041   23.2716 O   0  0  0  0  0  0  0  0  0  0  0  0
    7.4683    1.8093   23.1340 C   0  0  0  0  0  0  0  0  0  0  0  0
    8.3769    1.5835   21.9244 C   0  0  0  0  0  0  0  0  0  0  0  0
    8.6994    0.1780   21.6365 N   0  0  0  0  0  0  0  0  0  0  0  0
    9.9423    0.0041   20.8942 C   0  0  0  0  0  0  0  0  0  0  0  0
   10.2464   -1.0416   20.9046 H   0  0  0  0  0  0  0  0  0  0  0  0
   10.7376    0.5804   21.3862 H   0  0  0  0  0  0  0  0  0  0  0  0
    9.8135    0.3335   19.8589 H   0  0  0  0  0  0  0  0  0  0  0  0
    7.4631   -0.8755   21.2096 S   0  0  0  0  0  0  0  0  0  0  0  0
    6.6073   -1.0561   22.3601 O   0  0  0  0  0  0  0  0  0  0  0  0
    8.0832   -2.0028   20.5461 O   0  0  0  0  0  0  0  0  0  0  0  0
    6.6085    0.0244   20.0094 C   0  0  0  0  0  0  0  0  0  0  0  0
    5.4065    0.6942   20.2296 C   0  0  0  0  0  0  0  0  0  0  0  0
    4.8356    1.3181   19.1271 C   0  0  0  0  0  0  0  0  0  0  0  0
    5.4987    1.2713   17.8962 C   0  0  0  0  0  0  0  0  0  0  0  0
    6.6649    0.6301   17.7203 N   0  0  0  0  0  0  0  0  0  0  0  0
    7.2129    0.0126   18.7646 C   0  0  0  0  0  0  0  0  0  0  0  0
    8.1328   -0.5459   18.5826 H   0  0  0  0  0  0  0  0  0  0  0  0
    5.0615    1.7514   17.0181 H   0  0  0  0  0  0  0  0  0  0  0  0
    3.8851    1.8315   19.2052 H   0  0  0  0  0  0  0  0  0  0  0  0
    4.9309    0.7177   21.2123 H   0  0  0  0  0  0  0  0  0  0  0  0
    7.9692    2.1196   21.0505 H   0  0  0  0  0  0  0  0  0  0  0  0
    9.3241    2.0892   22.1580 H   0  0  0  0  0  0  0  0  0  0  0  0
    6.5351    1.2350   23.0627 H   0  0  0  0  0  0  0  0  0  0  0  0
    7.9805    1.4634   24.0363 H   0  0  0  0  0  0  0  0  0  0  0  0
    4.8047    3.3594   23.2315 C   0  0  0  0  0  0  0  0  0  0  0  0
    3.6379    3.2108   22.4645 C   0  0  0  0  0  0  0  0  0  0  0  0
    2.4134    2.9457   23.0828 C   0  0  0  0  0  0  0  0  0  0  0  0
    2.3444    2.8085   24.4735 C   0  0  0  0  0  0  0  0  0  0  0  0
    3.5037    2.9477   25.2445 C   0  0  0  0  0  0  0  0  0  0  0  0
    4.7264    3.2215   24.6283 C   0  0  0  0  0  0  0  0  0  0  0  0
    5.6313    3.3322   25.2236 H   0  0  0  0  0  0  0  0  0  0  0  0
    3.4546    2.8540   26.3250 H   0  0  0  0  0  0  0  0  0  0  0  0
    1.3931    2.6002   24.9536 H   0  0  0  0  0  0  0  0  0  0  0  0
    1.5167    2.8453   22.4797 H   0  0  0  0  0  0  0  0  0  0  0  0
    3.6887    3.3202   21.3804 H   0  0  0  0  0  0  0  0  0  0  0  0
    6.0883    3.2463   21.5315 H   0  0  0  0  0  0  0  0  0  0  0  0
    5.5398    5.5935   21.7124 H   0  0  0  0  0  0  0  0  0  0  0  0
    7.2759    5.3221   21.7762 H   0  0  0  0  0  0  0  0  0  0  0  0
    7.2448    5.6756   24.2807 H   0  0  0  0  0  0  0  0  0  0  0  0
    6.6077    7.0863   23.4177 H   0  0  0  0  0  0  0  0  0  0  0  0
    5.4944    5.9597   24.2137 H   0  0  0  0  0  0  0  0  0  0  0  0
  1  2  1  0
  2  3  1  0
  3  4  1  0
  4  5  1  0
  5  6  1  0
  6  7  1  0
  7  8  1  0
  8  9  1  0
  8 10  1  0
  8 11  1  0
  7 12  1  0
 12 13  2  0
 12 14  2  0
 12 15  1  0
 15 16  2  0
 16 17  1  0
 17 18  2  0
 18 19  1  0
 19 20  2  0
 20 21  1  0
 18 22  1  0
 17 23  1  0
 16 24  1  0
  6 25  1  0
  6 26  1  0
  5 27  1  0
  5 28  1  0
  3 29  1  0
 29 30  2  0
 30 31  1  0
 31 32  2  0
 32 33  1  0
 33 34  2  0
 34 35  1  0
 33 36  1  0
 32 37  1  0
 31 38  1  0
 30 39  1  0
  3 40  1  0
  2 41  1  0
  2 42  1  0
  1 43  1  0
  1 44  1  0
  1 45  1  0
 20 15  1  0
 34 29  1  0
M  END
>  <cnnaffinity>  (1) 
4.64357

>  <plip>  (1) 
-0.06896551724137931

>  <filename>  (1) 
[H][c]1[n][c]([H])[c]([S](=[O])(=[O])[N]([C]([H])([H])[H])[C]([H])([H])[C]([H])([H])[O][C]([H])([c]2[c]([H])[c]([H])[c]([H])[c]([H])[c]2[H])[C]([H])([H])[C]([H])([H])[H])[c]([H])[c]1[H]

>  <combo1>  (1) 
-0.31918555330292614

$$$$
