
     RDKit          3D

 44 47  0  0  0  0  0  0  0  0999 V2000
    8.2863    1.2561   22.2917 C   0  0  0  0  0  0  0  0  0  0  0  0
    7.6079   -0.0197   22.1618 N   0  0  0  0  0  0  0  0  0  0  0  0
    7.0510   -0.6273   23.2440 C   0  0  0  0  0  0  0  0  0  0  0  0
    7.0589   -0.2160   24.3848 O   0  0  0  0  0  0  0  0  0  0  0  0
    6.4789   -1.8236   22.8424 N   0  0  0  0  0  0  0  0  0  0  0  0
    5.8671   -2.7267   23.8102 C   0  0  0  0  0  0  0  0  0  0  0  0
    6.9206   -3.5128   24.6113 C   0  0  0  0  0  0  0  0  0  0  0  0
    7.7625   -4.4457   23.7324 C   0  0  0  0  0  0  0  0  0  0  0  0
    6.9510   -5.4099   23.0675 O   0  0  0  0  0  0  0  0  0  0  0  0
    5.9790   -6.0345   23.8040 C   0  0  0  0  0  0  0  0  0  0  0  0
    5.3482   -7.1161   23.1754 C   0  0  0  0  0  0  0  0  0  0  0  0
    4.3187   -7.7887   23.8305 C   0  0  0  0  0  0  0  0  0  0  0  0
    3.9389   -7.4175   25.1237 C   0  0  0  0  0  0  0  0  0  0  0  0
    4.5690   -6.3337   25.7435 C   0  0  0  0  0  0  0  0  0  0  0  0
    5.5787   -5.6047   25.0896 C   0  0  0  0  0  0  0  0  0  0  0  0
    6.2201   -4.3611   25.6942 C   0  0  0  0  0  0  0  0  0  0  0  0
    5.4579   -3.7541   26.2020 H   0  0  0  0  0  0  0  0  0  0  0  0
    6.9333   -4.6391   26.4838 H   0  0  0  0  0  0  0  0  0  0  0  0
    4.2545   -6.0491   26.7473 H   0  0  0  0  0  0  0  0  0  0  0  0
    3.1554   -7.9659   25.6426 H   0  0  0  0  0  0  0  0  0  0  0  0
    3.7864   -8.5946   23.3373 H   0  0  0  0  0  0  0  0  0  0  0  0
    5.6904   -7.3976   22.1845 H   0  0  0  0  0  0  0  0  0  0  0  0
    8.5143   -4.9677   24.3495 H   0  0  0  0  0  0  0  0  0  0  0  0
    8.2768   -3.9014   22.9342 H   0  0  0  0  0  0  0  0  0  0  0  0
    7.5846   -2.7799   25.0833 H   0  0  0  0  0  0  0  0  0  0  0  0
    5.2906   -2.1210   24.5220 H   0  0  0  0  0  0  0  0  0  0  0  0
    5.1596   -3.3892   23.3004 H   0  0  0  0  0  0  0  0  0  0  0  0
    6.5947   -2.0019   21.4911 C   0  0  0  0  0  0  0  0  0  0  0  0
    6.2106   -2.9610   20.8659 O   0  0  0  0  0  0  0  0  0  0  0  0
    7.3587   -0.7661   20.9429 C   0  0  0  0  0  0  0  0  0  0  0  0
    6.6399    0.0373   19.8623 C   0  0  0  0  0  0  0  0  0  0  0  0
    5.4166    0.6822   20.0873 C   0  0  0  0  0  0  0  0  0  0  0  0
    4.8095    1.3369   19.0103 C   0  0  0  0  0  0  0  0  0  0  0  0
    5.4484    1.3469   17.7639 C   0  0  0  0  0  0  0  0  0  0  0  0
    6.6253    0.7451   17.5355 N   0  0  0  0  0  0  0  0  0  0  0  0
    7.1903    0.1173   18.5730 C   0  0  0  0  0  0  0  0  0  0  0  0
    8.1376   -0.3750   18.3671 H   0  0  0  0  0  0  0  0  0  0  0  0
    5.0017    1.8661   16.9144 H   0  0  0  0  0  0  0  0  0  0  0  0
    3.8643    1.8569   19.1219 H   0  0  0  0  0  0  0  0  0  0  0  0
    4.9516    0.6937   21.0773 H   0  0  0  0  0  0  0  0  0  0  0  0
    8.2984   -1.1486   20.5186 H   0  0  0  0  0  0  0  0  0  0  0  0
    8.6916    1.5545   21.3215 H   0  0  0  0  0  0  0  0  0  0  0  0
    7.5928    2.0277   22.6486 H   0  0  0  0  0  0  0  0  0  0  0  0
    9.1045    1.1715   23.0168 H   0  0  0  0  0  0  0  0  0  0  0  0
  1  2  1  0
  2  3  1  0
  3  4  2  0
  3  5  1  0
  5  6  1  0
  6  7  1  0
  7  8  1  0
  8  9  1  0
  9 10  1  0
 10 11  2  0
 11 12  1  0
 12 13  2  0
 13 14  1  0
 14 15  2  0
 15 16  1  0
 16 17  1  0
 16 18  1  0
 14 19  1  0
 13 20  1  0
 12 21  1  0
 11 22  1  0
  8 23  1  0
  8 24  1  0
  7 25  1  0
  6 26  1  0
  6 27  1  0
  5 28  1  0
 28 29  2  0
 28 30  1  0
 30 31  1  0
 31 32  2  0
 32 33  1  0
 33 34  2  0
 34 35  1  0
 35 36  2  0
 36 37  1  0
 34 38  1  0
 33 39  1  0
 32 40  1  0
 30 41  1  0
  1 42  1  0
  1 43  1  0
  1 44  1  0
 30  2  1  0
 36 31  1  0
 16  7  1  0
 15 10  1  0
M  END
>  <cnnaffinity>  (1) 
5.42093

>  <plip>  (1) 
-0.10714285714285714

>  <filename>  (1) 
[H][c]1[n][c]([H])[c]([C]2([H])[C](=[O])[N]([C]([H])([H])[C]3([H])[C]([H])([H])[O][c]4[c]([H])[c]([H])[c]([H])[c]([H])[c]4[C]3([H])[H])[C](=[O])[N]2[C]([H])([H])[H])[c]([H])[c]1[H]

>  <combo1>  (1) 
-0.5738491217803801

$$$$
