
     RDKit          3D

 34 37  0  0  0  0  0  0  0  0999 V2000
    5.0171    1.7142   16.8782 H   0  0  0  0  0  0  0  0  0  0  0  0
    5.4762    1.2421   17.7444 C   0  0  0  0  0  0  0  0  0  0  0  0
    6.6072    0.5579   17.5130 N   0  0  0  0  0  0  0  0  0  0  0  0
    7.1963   -0.0336   18.5543 C   0  0  0  0  0  0  0  0  0  0  0  0
    8.1169   -0.5769   18.3418 H   0  0  0  0  0  0  0  0  0  0  0  0
    6.6892    0.0261   19.8643 C   0  0  0  0  0  0  0  0  0  0  0  0
    7.4136   -0.6673   20.9291 C   0  0  0  0  0  0  0  0  0  0  0  0
    8.3112   -1.6093   20.7612 N   0  0  0  0  0  0  0  0  0  0  0  0
    8.7726   -2.0169   21.9924 N   0  0  0  0  0  0  0  0  0  0  0  0
    8.1418   -1.2875   22.8720 C   0  0  0  0  0  0  0  0  0  0  0  0
    8.1694   -1.0016   24.5925 S   0  0  0  0  0  0  0  0  0  0  0  0
    6.9775    0.2806   24.3129 C   0  0  0  0  0  0  0  0  0  0  0  0
    6.4900    1.1007   25.3219 N   0  0  0  0  0  0  0  0  0  0  0  0
    6.8182    0.9383   26.6871 C   0  0  0  0  0  0  0  0  0  0  0  0
    6.4442   -0.2372   28.0460 C   0  0  0  0  0  0  0  0  0  0  0  0
    7.2718   -1.3921   27.5758 H   0  0  0  0  0  0  0  0  0  0  0  0
    6.5533   -0.5583   27.9664 C   0  0  0  0  0  0  0  0  0  0  0  0
    5.3642   -0.9015   27.9918 H   0  0  0  0  0  0  0  0  0  0  0  0
    7.2045    0.4957   29.2318 C   0  0  0  0  0  0  0  0  0  0  0  0
    6.7920    0.3559   30.2428 H   0  0  0  0  0  0  0  0  0  0  0  0
    7.7001    1.7384   28.8073 C   0  0  0  0  0  0  0  0  0  0  0  0
    8.1972    2.4653   29.4385 H   0  0  0  0  0  0  0  0  0  0  0  0
    7.4194    1.9508   27.3872 C   0  0  0  0  0  0  0  0  0  0  0  0
    7.6693    2.8929   26.8913 H   0  0  0  0  0  0  0  0  0  0  0  0
    5.8420    2.3570   24.8680 C   0  0  0  0  0  0  0  0  0  0  0  0
    5.4358    2.8909   25.7320 H   0  0  0  0  0  0  0  0  0  0  0  0
    5.0211    2.1600   24.1632 H   0  0  0  0  0  0  0  0  0  0  0  0
    6.5475    3.0161   24.3359 H   0  0  0  0  0  0  0  0  0  0  0  0
    6.6033    0.4578   23.0774 N   0  0  0  0  0  0  0  0  0  0  0  0
    7.2610   -0.4380   22.2822 N   0  0  0  0  0  0  0  0  0  0  0  0
    5.5097    0.7474   20.0982 C   0  0  0  0  0  0  0  0  0  0  0  0
    5.1041    0.8267   21.1077 H   0  0  0  0  0  0  0  0  0  0  0  0
    4.8926    1.3598   19.0106 C   0  0  0  0  0  0  0  0  0  0  0  0
    3.9838    1.9396   19.1307 H   0  0  0  0  0  0  0  0  0  0  0  0
  1  2  1  0
  2  3  2  0
  3  4  1  0
  4  5  1  0
  4  6  2  0
  6  7  1  0
  7  8  2  0
  8  9  1  0
  9 10  2  0
 10 11  1  0
 11 12  1  0
 12 13  1  0
 13 14  1  0
 14 15  2  0
 15 16  1  0
 15 17  1  0
 17 18  1  0
 17 19  2  0
 19 20  1  0
 19 21  1  0
 21 22  1  0
 21 23  2  0
 23 24  1  0
 13 25  1  0
 25 26  1  0
 25 27  1  0
 25 28  1  0
 12 29  2  0
 29 30  1  0
  6 31  1  0
 31 32  1  0
 31 33  2  0
 33 34  1  0
 33  2  1  0
 30  7  1  0
 30 10  1  0
 23 14  1  0
M  END
>  <cnnaffinity>  (1) 
5.05343

>  <plip>  (1) 
-0.10344827586206896

>  <filename>  (1) 
[H][c]1[n][c]([H])[c](-[c]2[n][n][c]3[s][c]([N]([c]4[c]([H])[c]([H])[c]([H])[c]([H])[c]4[H])[C]([H])([H])[H])[n][n]23)[c]([H])[c]1[H]

>  <combo1>  (1) 
-0.5650880659485413

$$$$
