
     RDKit          3D

 42 44  0  0  0  0  0  0  0  0999 V2000
    9.6630    0.3374   20.8249 C   0  0  0  0  0  0  0  0  0  0  0  0
    8.4623    0.0767   21.7425 C   0  0  0  0  0  0  0  0  0  0  0  0
    7.2439   -0.6671   21.1764 C   0  0  0  0  0  0  0  0  0  0  0  0
    7.6188   -2.0865   20.7854 N   0  0  0  0  0  4  0  0  0  0  0  0
    6.4598   -3.0295   20.7055 C   0  0  0  0  0  0  0  0  0  0  0  0
    6.0109   -3.6626   22.0261 C   0  0  0  0  0  0  0  0  0  0  0  0
    6.9553   -4.7606   22.5404 C   0  0  0  0  0  0  0  0  0  0  0  0
    6.3911   -5.4774   23.6423 O   0  0  0  0  0  0  0  0  0  0  0  0
    5.0927   -5.8833   23.4411 C   0  0  0  0  0  0  0  0  0  0  0  0
    4.5836   -6.9633   24.1695 C   0  0  0  0  0  0  0  0  0  0  0  0
    3.2535   -7.3721   24.0030 C   0  0  0  0  0  0  0  0  0  0  0  0
    2.4036   -6.6598   23.1484 C   0  0  0  0  0  0  0  0  0  0  0  0
    2.8952   -5.5649   22.4335 C   0  0  0  0  0  0  0  0  0  0  0  0
    4.2406   -5.2000   22.5424 C   0  0  0  0  0  0  0  0  0  0  0  0
    4.7161   -4.2088   21.7265 O   0  0  0  0  0  0  0  0  0  0  0  0
    2.2571   -4.9764   21.7827 H   0  0  0  0  0  0  0  0  0  0  0  0
    1.3605   -6.9499   23.0315 H   0  0  0  0  0  0  0  0  0  0  0  0
    2.8742   -8.2353   24.5436 H   0  0  0  0  0  0  0  0  0  0  0  0
    5.2354   -7.4597   24.8780 H   0  0  0  0  0  0  0  0  0  0  0  0
    7.1930   -5.4558   21.7246 H   0  0  0  0  0  0  0  0  0  0  0  0
    7.8820   -4.3255   22.9160 H   0  0  0  0  0  0  0  0  0  0  0  0
    5.9000   -2.9048   22.8109 H   0  0  0  0  0  0  0  0  0  0  0  0
    5.5991   -2.5045   20.2856 H   0  0  0  0  0  0  0  0  0  0  0  0
    6.6868   -3.8506   20.0186 H   0  0  0  0  0  0  0  0  0  0  0  0
    8.3591   -2.4262   21.4334 H   0  0  0  0  0  0  0  0  0  0  0  0
    8.0307   -1.9710   19.8323 H   0  0  0  0  0  0  0  0  0  0  0  0
    6.5637   -0.0185   19.9980 C   0  0  0  0  0  0  0  0  0  0  0  0
    5.3666    0.6910   20.1607 C   0  0  0  0  0  0  0  0  0  0  0  0
    4.8043    1.3280   19.0539 C   0  0  0  0  0  0  0  0  0  0  0  0
    5.4549    1.2293   17.8202 C   0  0  0  0  0  0  0  0  0  0  0  0
    6.5825    0.5293   17.6361 N   0  0  0  0  0  0  0  0  0  0  0  0
    7.1052   -0.0899   18.7033 C   0  0  0  0  0  0  0  0  0  0  0  0
    8.0281   -0.6408   18.5119 H   0  0  0  0  0  0  0  0  0  0  0  0
    5.0472    1.7245   16.9406 H   0  0  0  0  0  0  0  0  0  0  0  0
    3.8892    1.9032   19.1353 H   0  0  0  0  0  0  0  0  0  0  0  0
    4.8829    0.7363   21.1392 H   0  0  0  0  0  0  0  0  0  0  0  0
    6.5042   -0.7280   21.9846 H   0  0  0  0  0  0  0  0  0  0  0  0
    8.8046   -0.4866   22.6183 H   0  0  0  0  0  0  0  0  0  0  0  0
    8.0984    1.0346   22.1267 H   0  0  0  0  0  0  0  0  0  0  0  0
   10.2354   -0.5756   20.6234 H   0  0  0  0  0  0  0  0  0  0  0  0
   10.3462    1.0522   21.2969 H   0  0  0  0  0  0  0  0  0  0  0  0
    9.3618    0.7572   19.8618 H   0  0  0  0  0  0  0  0  0  0  0  0
  1  2  1  0
  2  3  1  0
  3  4  1  0
  4  5  1  0
  5  6  1  0
  6  7  1  0
  7  8  1  0
  8  9  1  0
  9 10  2  0
 10 11  1  0
 11 12  2  0
 12 13  1  0
 13 14  2  0
 14 15  1  0
 13 16  1  0
 12 17  1  0
 11 18  1  0
 10 19  1  0
  7 20  1  0
  7 21  1  0
  6 22  1  0
  5 23  1  0
  5 24  1  0
  4 25  1  0
  4 26  1  0
  3 27  1  0
 27 28  2  0
 28 29  1  0
 29 30  2  0
 30 31  1  0
 31 32  2  0
 32 33  1  0
 30 34  1  0
 29 35  1  0
 28 36  1  0
  3 37  1  0
  2 38  1  0
  2 39  1  0
  1 40  1  0
  1 41  1  0
  1 42  1  0
 15  6  1  0
 32 27  1  0
 14  9  1  0
M  CHG  1   4   1
M  END
>  <cnnaffinity>  (1) 
4.83211

>  <plip>  (1) 
-0.13333333333333333

>  <filename>  (1) 
[H][c]1[n][c]([H])[c]([C]([H])([C]([H])([H])[C]([H])([H])[H])[N+]([H])([H])[C]([H])([H])[C]2([H])[O][c]3[c]([H])[c]([H])[c]([H])[c]([H])[c]3[O][C]2([H])[H])[c]([H])[c]1[H]

>  <combo1>  (1) 
-0.7525763120628683

$$$$
