
     RDKit          3D

 23 23  0  0  0  0  0  0  0  0999 V2000
    5.0500    1.7171   16.9325 H   0  0  0  0  0  0  0  0  0  0  0  0
    5.4598    1.2863   17.8434 C   0  0  0  0  0  0  0  0  0  0  0  0
    6.6362    0.6598   17.7061 N   0  0  0  0  0  0  0  0  0  0  0  0
    7.1572    0.1208   18.8147 C   0  0  0  0  0  0  0  0  0  0  0  0
    8.1071   -0.3908   18.6776 H   0  0  0  0  0  0  0  0  0  0  0  0
    6.5678    0.1563   20.0856 C   0  0  0  0  0  0  0  0  0  0  0  0
    7.3075   -0.4984   21.2300 C   0  0  2  0  0  0  0  0  0  0  0  0
    6.8037   -0.2385   22.1708 H   0  0  0  0  0  0  0  0  0  0  0  0
    8.6602    0.0553   21.2856 N   0  0  0  0  0  0  0  0  0  0  0  0
    9.1337   -0.2104   20.4275 H   0  0  0  0  0  0  0  0  0  0  0  0
    9.1785   -0.4023   22.0285 H   0  0  0  0  0  0  0  0  0  0  0  0
    7.3864   -2.0335   21.0980 C   0  0  0  0  0  0  0  0  0  0  0  0
    7.8456   -2.4163   22.0148 H   0  0  0  0  0  0  0  0  0  0  0  0
    8.1190   -2.2164   20.3084 H   0  0  0  0  0  0  0  0  0  0  0  0
    6.0629   -2.7657   20.7930 C   0  0  0  0  0  0  0  0  0  0  0  0
    5.5772   -2.2983   19.9263 H   0  0  0  0  0  0  0  0  0  0  0  0
    5.3564   -2.6857   21.6314 H   0  0  0  0  0  0  0  0  0  0  0  0
    6.2240   -4.2000   20.4776 C   0  0  0  0  0  0  0  0  0  0  0  0
    6.3039   -5.3150   20.1802 N   0  0  0  0  0  0  0  0  0  0  0  0
    5.3163    0.7889   20.1961 C   0  0  0  0  0  0  0  0  0  0  0  0
    4.8002    0.8543   21.1601 H   0  0  0  0  0  0  0  0  0  0  0  0
    4.7508    1.3620   19.0495 C   0  0  0  0  0  0  0  0  0  0  0  0
    3.7874    1.8769   19.0741 H   0  0  0  0  0  0  0  0  0  0  0  0
  1  2  1  0
  2  3  2  0
  3  4  1  0
  4  5  1  0
  4  6  2  0
  6  7  1  0
  7  8  1  1
  7  9  1  0
  9 10  1  0
  9 11  1  0
  7 12  1  0
 12 13  1  0
 12 14  1  0
 12 15  1  0
 15 16  1  0
 15 17  1  0
 15 18  1  0
 18 19  3  0
  6 20  1  0
 20 21  1  0
 20 22  2  0
 22 23  1  0
 22  2  1  0
M  END
>  <cnnaffinity>  (1) 
3.3178

>  <plip>  (1) 
-0.13793103448275862

>  <filename>  (1) 
[H][c]1[n][c]([H])[c]([C@]([H])([N]([H])[H])[C]([H])([H])[C]([H])([H])[C]#[N])[c]([H])[c]1[H]

>  <combo1>  (1) 
-0.9462466424472248

$$$$
