
     RDKit          3D

 29 30  0  0  0  0  0  0  0  0999 V2000
    4.9585    2.3916   24.1653 H   0  0  0  0  0  0  0  0  0  0  0  0
    4.4292    2.6037   23.3756 O   0  0  0  0  0  0  0  0  0  0  0  0
    5.1483    3.5449   22.5956 C   0  0  0  0  0  0  0  0  0  0  0  0
    4.8219    4.5709   22.8354 H   0  0  0  0  0  0  0  0  0  0  0  0
    4.8921    3.3574   21.5409 H   0  0  0  0  0  0  0  0  0  0  0  0
    6.6707    3.4735   22.7795 C   0  0  0  0  0  0  0  0  0  0  0  0
    6.9209    3.6715   23.8293 H   0  0  0  0  0  0  0  0  0  0  0  0
    7.1296    4.2587   22.1710 H   0  0  0  0  0  0  0  0  0  0  0  0
    7.2818    2.2091   22.3761 N   0  0  0  0  0  0  0  0  0  0  0  0
    7.3166    2.0046   21.3929 H   0  0  0  0  0  0  0  0  0  0  0  0
    7.2790    1.0908   23.1487 C   0  0  0  0  0  0  0  0  0  0  0  0
    7.0746    1.1107   24.3560 O   0  0  0  0  0  0  0  0  0  0  0  0
    7.5814   -0.1697   22.4066 C   0  0  0  0  0  0  0  0  0  0  0  0
    7.3172   -0.6297   21.1124 C   0  0  0  0  0  0  0  0  0  0  0  0
    6.6464    0.0881   19.9917 C   0  0  0  0  0  0  0  0  0  0  0  0
    7.1741    0.1135   18.6775 C   0  0  0  0  0  0  0  0  0  0  0  0
    8.1270   -0.3666   18.4636 H   0  0  0  0  0  0  0  0  0  0  0  0
    6.5921    0.7155   17.6316 N   0  0  0  0  0  0  0  0  0  0  0  0
    5.4165    1.3232   17.8481 C   0  0  0  0  0  0  0  0  0  0  0  0
    4.9379    1.7779   16.9818 H   0  0  0  0  0  0  0  0  0  0  0  0
    4.8015    1.3658   19.1022 C   0  0  0  0  0  0  0  0  0  0  0  0
    3.8457    1.8645   19.2116 H   0  0  0  0  0  0  0  0  0  0  0  0
    5.4264    0.7501   20.1898 C   0  0  0  0  0  0  0  0  0  0  0  0
    4.9731    0.7875   21.1850 H   0  0  0  0  0  0  0  0  0  0  0  0
    7.7351   -1.9803   21.1613 C   0  0  0  0  0  0  0  0  0  0  0  0
    7.6470   -2.7493   20.4174 H   0  0  0  0  0  0  0  0  0  0  0  0
    8.2314   -2.3162   22.3418 N   0  0  0  0  0  0  0  0  0  0  0  0
    8.1303   -1.2125   23.0709 N   0  0  0  0  0  0  0  0  0  0  0  0
    8.4137   -1.2181   24.0441 H   0  0  0  0  0  0  0  0  0  0  0  0
  1  2  1  0
  2  3  1  0
  3  4  1  0
  3  5  1  0
  3  6  1  0
  6  7  1  0
  6  8  1  0
  6  9  1  0
  9 10  1  0
  9 11  1  0
 11 12  2  0
 11 13  1  0
 13 14  2  0
 14 15  1  0
 15 16  2  0
 16 17  1  0
 16 18  1  0
 18 19  2  0
 19 20  1  0
 19 21  1  0
 21 22  1  0
 21 23  2  0
 23 24  1  0
 14 25  1  0
 25 26  1  0
 25 27  2  0
 27 28  1  0
 28 29  1  0
 28 13  1  0
 23 15  1  0
M  END
>  <cnnaffinity>  (1) 
4.27899

>  <plip>  (1) 
-0.06896551724137931

>  <filename>  (1) 
[H][O][C]([H])([H])[C]([H])([H])[N]([H])[C](=[O])[c]1[c](-[c]2[c]([H])[n][c]([H])[c]([H])[c]2[H])[c]([H])[n][n]1[H]

>  <combo1>  (1) 
-0.42355457950033604

$$$$
