
     RDKit          3D

 31 31  0  0  0  0  0  0  0  0999 V2000
    4.9440    1.8102   17.0120 H   0  0  0  0  0  0  0  0  0  0  0  0
    5.4274    1.2909   17.8377 C   0  0  0  0  0  0  0  0  0  0  0  0
    6.5853    0.6729   17.5506 N   0  0  0  0  0  0  0  0  0  0  0  0
    7.2068    0.0375   18.5479 C   0  0  0  0  0  0  0  0  0  0  0  0
    8.1483   -0.4581   18.3262 H   0  0  0  0  0  0  0  0  0  0  0  0
    6.7152   -0.0167   19.8675 C   0  0  0  0  0  0  0  0  0  0  0  0
    7.3454   -0.6678   20.9601 N   0  0  0  0  0  0  0  0  0  0  0  0
    8.3987   -1.2780   20.6786 N   0  0  0  0  0  0  0  0  0  0  0  0
    8.9827   -1.9081   21.8604 C   0  0  0  0  0  0  0  0  0  0  0  0
    9.0400   -1.1826   22.6852 H   0  0  0  0  0  0  0  0  0  0  0  0
   10.0083   -2.1785   21.5826 H   0  0  0  0  0  0  0  0  0  0  0  0
    8.1911   -3.1548   22.2560 C   0  0  0  0  0  0  0  0  0  0  0  0
    8.0865   -3.7704   21.3537 H   0  0  0  0  0  0  0  0  0  0  0  0
    7.1753   -2.8390   22.5348 H   0  0  0  0  0  0  0  0  0  0  0  0
    8.8357   -3.9721   23.3746 C   0  0  0  0  0  0  0  0  0  0  0  0
    8.3347   -4.9516   23.4123 H   0  0  0  0  0  0  0  0  0  0  0  0
    9.8804   -4.1725   23.1027 H   0  0  0  0  0  0  0  0  0  0  0  0
    8.8322   -3.3231   24.7662 C   0  0  0  0  0  0  0  0  0  0  0  0
    7.8296   -2.9383   25.0043 H   0  0  0  0  0  0  0  0  0  0  0  0
    9.5008   -2.4451   24.7595 H   0  0  0  0  0  0  0  0  0  0  0  0
    9.3217   -4.2844   25.8609 C   0  0  0  0  0  0  0  0  0  0  0  0
    9.2409   -3.7858   26.8372 H   0  0  0  0  0  0  0  0  0  0  0  0
    8.6547   -5.1597   25.9061 H   0  0  0  0  0  0  0  0  0  0  0  0
   10.7630   -4.7486   25.6029 C   0  0  0  0  0  0  0  0  0  0  0  0
   10.7905   -5.5825   24.8898 H   0  0  0  0  0  0  0  0  0  0  0  0
   11.2624   -5.0533   26.5251 H   0  0  0  0  0  0  0  0  0  0  0  0
   11.3519   -3.9407   25.1527 H   0  0  0  0  0  0  0  0  0  0  0  0
    5.5055    0.6207   20.1522 C   0  0  0  0  0  0  0  0  0  0  0  0
    5.1283    0.5900   21.1762 H   0  0  0  0  0  0  0  0  0  0  0  0
    4.8498    1.2816   19.1159 C   0  0  0  0  0  0  0  0  0  0  0  0
    3.9133    1.8003   19.2824 H   0  0  0  0  0  0  0  0  0  0  0  0
  1  2  1  0
  2  3  2  0
  3  4  1  0
  4  5  1  0
  4  6  2  0
  6  7  1  0
  7  8  2  3
  8  9  1  0
  9 10  1  0
  9 11  1  0
  9 12  1  0
 12 13  1  0
 12 14  1  0
 12 15  1  0
 15 16  1  0
 15 17  1  0
 15 18  1  0
 18 19  1  0
 18 20  1  0
 18 21  1  0
 21 22  1  0
 21 23  1  0
 21 24  1  0
 24 25  1  0
 24 26  1  0
 24 27  1  0
  6 28  1  0
 28 29  1  0
 28 30  2  0
 30 31  1  0
 30  2  1  0
M  END
>  <cnnaffinity>  (1) 
4.2141

>  <plip>  (1) 
-0.10344827586206896

>  <filename>  (1) 
[H][c]1[n][c]([H])[c]([N]=[N][C]([H])([H])[C]([H])([H])[C]([H])([H])[C]([H])([H])[C]([H])([H])[C]([H])([H])[H])[c]([H])[c]1[H]

>  <combo1>  (1) 
-0.7596994589207764

$$$$
