
     RDKit          3D

 21 22  0  0  0  0  0  0  0  0999 V2000
    5.9406   -0.9621   22.3389 H   0  0  0  0  0  0  0  0  0  0  0  0
    6.9837   -1.0811   22.0234 C   0  0  0  0  0  0  0  0  0  0  0  0
    7.4313   -0.6919   20.8925 N   0  0  0  0  0  0  0  0  0  0  0  0
    6.6584   -0.0055   19.9218 C   0  0  0  0  0  0  0  0  0  0  0  0
    7.1736    0.0620   18.6003 C   0  0  0  0  0  0  0  0  0  0  0  0
    8.1205   -0.4319   18.3961 H   0  0  0  0  0  0  0  0  0  0  0  0
    6.5685    0.6769   17.5807 N   0  0  0  0  0  0  0  0  0  0  0  0
    5.3981    1.2937   17.8408 C   0  0  0  0  0  0  0  0  0  0  0  0
    4.9112    1.7791   16.9977 H   0  0  0  0  0  0  0  0  0  0  0  0
    4.8066    1.3097   19.1077 C   0  0  0  0  0  0  0  0  0  0  0  0
    3.8733    1.8429   19.2645 H   0  0  0  0  0  0  0  0  0  0  0  0
    5.4383    0.6444   20.1681 C   0  0  0  0  0  0  0  0  0  0  0  0
    5.0045    0.6366   21.1703 H   0  0  0  0  0  0  0  0  0  0  0  0
    7.8604   -1.7732   22.9798 C   0  0  0  0  0  0  0  0  0  0  0  0
    7.4506   -2.2303   24.1667 N   0  0  0  0  0  0  0  0  0  0  0  0
    8.5440   -2.7777   24.6992 N   0  0  0  0  0  0  0  0  0  0  0  0
    8.4903   -3.1993   25.6160 H   0  0  0  0  0  0  0  0  0  0  0  0
    9.6396   -2.6956   23.9068 C   0  0  0  0  0  0  0  0  0  0  0  0
   10.6106   -3.0896   24.1857 H   0  0  0  0  0  0  0  0  0  0  0  0
    9.2326   -2.0481   22.7770 C   0  0  0  0  0  0  0  0  0  0  0  0
    9.8129   -1.7881   21.9089 H   0  0  0  0  0  0  0  0  0  0  0  0
  1  2  1  0
  2  3  2  3
  3  4  1  0
  4  5  2  0
  5  6  1  0
  5  7  1  0
  7  8  2  0
  8  9  1  0
  8 10  1  0
 10 11  1  0
 10 12  2  0
 12 13  1  0
  2 14  1  0
 14 15  2  0
 15 16  1  0
 16 17  1  0
 16 18  1  0
 18 19  1  0
 18 20  2  0
 20 21  1  0
 12  4  1  0
 20 14  1  0
M  END
>  <cnnaffinity>  (1) 
4.08074

>  <plip>  (1) 
-0.03571428571428571

>  <filename>  (1) 
[H][C](=[N][c]1[c]([H])[n][c]([H])[c]([H])[c]1[H])[c]1[n][n]([H])[c]([H])[c]1[H]

>  <combo1>  (1) 
-0.2821299492728313

$$$$
