
     RDKit          3D

 31 33  0  0  0  0  0  0  0  0999 V2000
    4.9132    1.7867   16.9908 H   0  0  0  0  0  0  0  0  0  0  0  0
    5.3966    1.2977   17.8329 C   0  0  0  0  0  0  0  0  0  0  0  0
    6.5599    0.6850   17.5667 N   0  0  0  0  0  0  0  0  0  0  0  0
    7.1591    0.0580   18.5867 C   0  0  0  0  0  0  0  0  0  0  0  0
    8.1156   -0.4196   18.3720 H   0  0  0  0  0  0  0  0  0  0  0  0
    6.6405   -0.0142   19.8917 C   0  0  0  0  0  0  0  0  0  0  0  0
    7.4037   -0.6993   21.0154 C   0  0  0  0  0  0  0  0  0  0  0  0
    6.7039   -1.1148   21.7509 H   0  0  0  0  0  0  0  0  0  0  0  0
    8.0201   -1.5128   20.6197 H   0  0  0  0  0  0  0  0  0  0  0  0
    8.3312    0.3224   21.6798 C   0  0  0  0  0  0  0  0  0  0  0  0
    9.8657    0.4896   21.1621 S   0  0  0  0  0  0  0  0  0  0  0  0
    7.7242    1.2958   22.6229 C   0  0  0  0  0  0  0  0  0  0  0  0
    7.7461    2.6532   22.3145 C   0  0  0  0  0  0  0  0  0  0  0  0
    8.2167    2.9795   21.3867 H   0  0  0  0  0  0  0  0  0  0  0  0
    7.1708    3.6174   23.1704 C   0  0  0  0  0  0  0  0  0  0  0  0
    7.2087    4.6687   22.8881 H   0  0  0  0  0  0  0  0  0  0  0  0
    6.5718    3.2309   24.3503 C   0  0  0  0  0  0  0  0  0  0  0  0
    6.1267    3.9671   25.0197 H   0  0  0  0  0  0  0  0  0  0  0  0
    6.5313    1.8569   24.7144 C   0  0  0  0  0  0  0  0  0  0  0  0
    5.9264    1.4187   25.9308 C   0  0  0  0  0  0  0  0  0  0  0  0
    5.4779    2.1583   26.5979 H   0  0  0  0  0  0  0  0  0  0  0  0
    5.9345    0.0789   26.2260 C   0  0  0  0  0  0  0  0  0  0  0  0
    5.4876   -0.2996   27.1400 H   0  0  0  0  0  0  0  0  0  0  0  0
    6.5429   -0.8262   25.3130 C   0  0  0  0  0  0  0  0  0  0  0  0
    6.5479   -1.8886   25.5517 H   0  0  0  0  0  0  0  0  0  0  0  0
    7.1020   -0.4769   24.1730 N   0  0  0  0  0  0  0  0  0  0  0  0
    7.1129    0.8569   23.8492 C   0  0  0  0  0  0  0  0  0  0  0  0
    5.4371    0.6514   20.1488 C   0  0  0  0  0  0  0  0  0  0  0  0
    5.0159    0.6383   21.1590 H   0  0  0  0  0  0  0  0  0  0  0  0
    4.8002    1.3171   19.0985 C   0  0  0  0  0  0  0  0  0  0  0  0
    3.8682    1.8486   19.2535 H   0  0  0  0  0  0  0  0  0  0  0  0
  1  2  1  0
  2  3  2  0
  3  4  1  0
  4  5  1  0
  4  6  2  0
  6  7  1  0
  7  8  1  0
  7  9  1  0
  7 10  1  0
 10 11  2  0
 10 12  1  0
 12 13  2  0
 13 14  1  0
 13 15  1  0
 15 16  1  0
 15 17  2  0
 17 18  1  0
 17 19  1  0
 19 20  2  0
 20 21  1  0
 20 22  1  0
 22 23  1  0
 22 24  2  0
 24 25  1  0
 24 26  1  0
 26 27  2  0
  6 28  1  0
 28 29  1  0
 28 30  2  0
 30 31  1  0
 30  2  1  0
 27 12  1  0
 27 19  1  0
M  END
>  <cnnaffinity>  (1) 
5.15782

>  <plip>  (1) 
-0.0

>  <filename>  (1) 
[H][c]1[n][c]([H])[c]([C]([H])([H])[C](=[S])[c]2[c]([H])[c]([H])[c]([H])[c]3[c]([H])[c]([H])[c]([H])[n][c]23)[c]([H])[c]1[H]

>  <combo1>  (1) 
-6.5037027509933055e-06

$$$$
