
     RDKit          3D

 33 34  0  0  0  0  0  0  0  0999 V2000
   10.3228    4.4592   23.4587 C   0  0  0  0  0  0  0  0  0  0  0  0
    9.1077    3.6281   23.4628 N   0  0  0  0  0  4  0  0  0  0  0  0
    8.4520    3.5014   24.7972 C   0  0  0  0  0  0  0  0  0  0  0  0
    7.1315    2.7798   24.5426 C   0  0  0  0  0  0  0  0  0  0  0  0
    7.5099    1.3715   24.1580 C   0  0  0  0  0  0  0  0  0  0  0  0
    7.8648    0.5758   24.9906 O   0  0  0  0  0  0  0  0  0  0  0  0
    7.5554    1.1232   22.7914 N   0  0  0  0  0  0  0  0  0  0  0  0
    7.7501   -0.1656   22.3122 C   0  0  0  0  0  0  0  0  0  0  0  0
    8.3657   -1.1293   22.9285 N   0  0  0  0  0  0  0  0  0  0  0  0
    8.3258   -2.2336   22.1032 N   0  0  0  0  0  0  0  0  0  0  0  0
    7.7095   -1.8807   21.0213 C   0  0  0  0  0  0  0  0  0  0  0  0
    7.3368   -0.5559   21.0478 N   0  0  0  0  0  0  0  0  0  0  0  0
    6.6579    0.1143   19.9667 C   0  0  0  0  0  0  0  0  0  0  0  0
    5.4146    0.7162   20.1795 C   0  0  0  0  0  0  0  0  0  0  0  0
    4.7859    1.3363   19.0927 C   0  0  0  0  0  0  0  0  0  0  0  0
    5.4078    1.3149   17.8413 C   0  0  0  0  0  0  0  0  0  0  0  0
    6.5840    0.7065   17.6161 N   0  0  0  0  0  0  0  0  0  0  0  0
    7.1846    0.1141   18.6537 C   0  0  0  0  0  0  0  0  0  0  0  0
    8.1351   -0.3805   18.4427 H   0  0  0  0  0  0  0  0  0  0  0  0
    4.9449    1.7942   16.9825 H   0  0  0  0  0  0  0  0  0  0  0  0
    3.8291    1.8302   19.2104 H   0  0  0  0  0  0  0  0  0  0  0  0
    4.9415    0.6571   21.1638 H   0  0  0  0  0  0  0  0  0  0  0  0
    7.4471   -2.5345   20.2072 H   0  0  0  0  0  0  0  0  0  0  0  0
    6.8850    1.6408   22.2495 H   0  0  0  0  0  0  0  0  0  0  0  0
    6.5372    2.7269   25.4577 H   0  0  0  0  0  0  0  0  0  0  0  0
    6.5336    3.2826   23.7762 H   0  0  0  0  0  0  0  0  0  0  0  0
    8.3292    4.4875   25.2648 H   0  0  0  0  0  0  0  0  0  0  0  0
    9.0741    2.9019   25.4740 H   0  0  0  0  0  0  0  0  0  0  0  0
    9.3090    2.6724   23.0722 H   0  0  0  0  0  0  0  0  0  0  0  0
    8.4091    4.0597   22.8052 H   0  0  0  0  0  0  0  0  0  0  0  0
   10.1148    5.4541   23.8721 H   0  0  0  0  0  0  0  0  0  0  0  0
   11.1133    4.0247   24.0798 H   0  0  0  0  0  0  0  0  0  0  0  0
   10.7192    4.5934   22.4509 H   0  0  0  0  0  0  0  0  0  0  0  0
  1  2  1  0
  2  3  1  0
  3  4  1  0
  4  5  1  0
  5  6  2  0
  5  7  1  0
  7  8  1  0
  8  9  2  0
  9 10  1  0
 10 11  2  0
 11 12  1  0
 12 13  1  0
 13 14  2  0
 14 15  1  0
 15 16  2  0
 16 17  1  0
 17 18  2  0
 18 19  1  0
 16 20  1  0
 15 21  1  0
 14 22  1  0
 11 23  1  0
  7 24  1  0
  4 25  1  0
  4 26  1  0
  3 27  1  0
  3 28  1  0
  2 29  1  0
  2 30  1  0
  1 31  1  0
  1 32  1  0
  1 33  1  0
 12  8  1  0
 18 13  1  0
M  CHG  1   2   1
M  END
>  <cnnaffinity>  (1) 
4.53748

>  <plip>  (1) 
-0.06896551724137931

>  <filename>  (1) 
[H][c]1[n][c]([H])[c](-[n]2[c]([H])[n][n][c]2[N]([H])[C](=[O])[C]([H])([H])[C]([H])([H])[N+]([H])([H])[C]([H])([H])[H])[c]([H])[c]1[H]

>  <combo1>  (1) 
-0.42182562846252947

$$$$
