
     RDKit          3D

 34 35  0  0  0  0  0  0  0  0999 V2000
    9.3907    0.1009   26.3185 H   0  0  0  0  0  0  0  0  0  0  0  0
    8.4723   -0.0007   26.0374 O   0  0  0  0  0  0  0  0  0  0  0  0
    7.8568    1.2755   26.0265 C   0  0  0  0  0  0  0  0  0  0  0  0
    8.4386    2.0069   25.4397 H   0  0  0  0  0  0  0  0  0  0  0  0
    7.7652    1.6781   27.0517 H   0  0  0  0  0  0  0  0  0  0  0  0
    6.4677    1.0833   25.4444 C   0  0  0  0  0  0  0  0  0  0  0  0
    5.9564    0.3356   26.0627 H   0  0  0  0  0  0  0  0  0  0  0  0
    5.8843    2.0091   25.5220 H   0  0  0  0  0  0  0  0  0  0  0  0
    6.4081    0.5560   24.0116 C   0  0  0  0  0  0  0  0  0  0  0  0
    6.9516   -0.3915   23.9548 H   0  0  0  0  0  0  0  0  0  0  0  0
    5.3526    0.3386   23.8061 H   0  0  0  0  0  0  0  0  0  0  0  0
    6.8896    1.4563   22.9572 N   0  0  0  0  0  0  0  0  0  0  0  0
    6.9019    2.4247   23.2556 H   0  0  0  0  0  0  0  0  0  0  0  0
    8.1610    1.1823   22.4257 N   0  0  0  0  0  0  0  0  0  0  0  0
    9.2514    1.9928   22.5951 C   0  0  0  0  0  0  0  0  0  0  0  0
    9.1904    2.8370   23.2681 H   0  0  0  0  0  0  0  0  0  0  0  0
   10.2702    1.5098   21.8102 C   0  0  0  0  0  0  0  0  0  0  0  0
   11.2450    1.9602   21.6744 H   0  0  0  0  0  0  0  0  0  0  0  0
    9.7750    0.3578   21.1443 C   0  0  0  0  0  0  0  0  0  0  0  0
   10.3209   -0.2940   20.4706 H   0  0  0  0  0  0  0  0  0  0  0  0
    8.4580    0.1910   21.5196 C   0  0  0  0  0  0  0  0  0  0  0  0
    7.3936   -0.7141   20.9726 C   0  0  0  0  0  0  0  0  0  0  0  0
    6.7175   -1.0264   21.7813 H   0  0  0  0  0  0  0  0  0  0  0  0
    7.8919   -1.6201   20.6062 H   0  0  0  0  0  0  0  0  0  0  0  0
    6.6031   -0.0310   19.8618 C   0  0  0  0  0  0  0  0  0  0  0  0
    7.1157    0.0267   18.5540 C   0  0  0  0  0  0  0  0  0  0  0  0
    8.0574   -0.4714   18.3183 H   0  0  0  0  0  0  0  0  0  0  0  0
    6.5283    0.6664   17.5377 N   0  0  0  0  0  0  0  0  0  0  0  0
    5.3783    1.3040   17.8013 C   0  0  0  0  0  0  0  0  0  0  0  0
    4.9311    1.8439   16.9705 H   0  0  0  0  0  0  0  0  0  0  0  0
    4.7740    1.3171   19.0607 C   0  0  0  0  0  0  0  0  0  0  0  0
    3.8515    1.8691   19.2065 H   0  0  0  0  0  0  0  0  0  0  0  0
    5.4032    0.6483   20.1133 C   0  0  0  0  0  0  0  0  0  0  0  0
    4.9990    0.6907   21.1262 H   0  0  0  0  0  0  0  0  0  0  0  0
  1  2  1  0
  2  3  1  0
  3  4  1  0
  3  5  1  0
  3  6  1  0
  6  7  1  0
  6  8  1  0
  6  9  1  0
  9 10  1  0
  9 11  1  0
  9 12  1  0
 12 13  1  0
 12 14  1  0
 14 15  1  0
 15 16  1  0
 15 17  2  0
 17 18  1  0
 17 19  1  0
 19 20  1  0
 19 21  2  0
 21 22  1  0
 22 23  1  0
 22 24  1  0
 22 25  1  0
 25 26  2  0
 26 27  1  0
 26 28  1  0
 28 29  2  0
 29 30  1  0
 29 31  1  0
 31 32  1  0
 31 33  2  0
 33 34  1  0
 21 14  1  0
 33 25  1  0
M  END
>  <cnnaffinity>  (1) 
4.378

>  <plip>  (1) 
-0.03571428571428571

>  <filename>  (1) 
[H][O][C]([H])([H])[C]([H])([H])[C]([H])([H])[N]([H])[n]1[c]([H])[c]([H])[c]([H])[c]1[C]([H])([H])[c]1[c]([H])[n][c]([H])[c]([H])[c]1[H]

>  <combo1>  (1) 
-0.22533191937296576

$$$$
