
     RDKit          3D

 25 27  0  0  0  0  0  0  0  0999 V2000
    4.9129    1.7893   16.9894 H   0  0  0  0  0  0  0  0  0  0  0  0
    5.3967    1.2997   17.8275 C   0  0  0  0  0  0  0  0  0  0  0  0
    6.5611    0.6852   17.5541 N   0  0  0  0  0  0  0  0  0  0  0  0
    7.1603    0.0550   18.5680 C   0  0  0  0  0  0  0  0  0  0  0  0
    8.1192   -0.4155   18.3523 H   0  0  0  0  0  0  0  0  0  0  0  0
    6.6455    0.0044   19.8797 C   0  0  0  0  0  0  0  0  0  0  0  0
    7.3440   -0.6794   20.9621 C   0  0  0  0  0  0  0  0  0  0  0  0
    7.5787   -0.3361   22.2897 C   0  0  0  0  0  0  0  0  0  0  0  0
    7.3298    0.9675   22.8875 C   0  0  0  0  0  0  0  0  0  0  0  0
    7.0808    1.1374   24.5978 S   0  0  0  0  0  0  0  0  0  0  0  0
    6.9240    2.8503   24.4275 C   0  0  0  0  0  0  0  0  0  0  0  0
    6.6583    3.8520   25.7964 Cl  0  0  0  0  0  0  0  0  0  0  0  0
    7.0547    3.2859   23.1420 C   0  0  0  0  0  0  0  0  0  0  0  0
    6.9959    4.3335   22.8463 H   0  0  0  0  0  0  0  0  0  0  0  0
    7.2910    2.1973   22.2607 C   0  0  0  0  0  0  0  0  0  0  0  0
    7.4359    2.3372   21.1938 H   0  0  0  0  0  0  0  0  0  0  0  0
    8.1607   -1.4024   22.9391 N   0  0  0  0  0  0  0  0  0  0  0  0
    8.3104   -2.3364   22.0426 C   0  0  0  0  0  0  0  0  0  0  0  0
    8.7439   -3.3176   22.2084 H   0  0  0  0  0  0  0  0  0  0  0  0
    7.8550   -1.9425   20.8185 N   0  0  0  0  0  0  0  0  0  0  0  0
    7.7960   -2.5067   19.9872 H   0  0  0  0  0  0  0  0  0  0  0  0
    5.4245    0.6502   20.1408 C   0  0  0  0  0  0  0  0  0  0  0  0
    5.0153    0.6334   21.1558 H   0  0  0  0  0  0  0  0  0  0  0  0
    4.7956    1.3144   19.0913 C   0  0  0  0  0  0  0  0  0  0  0  0
    3.8681    1.8482   19.2529 H   0  0  0  0  0  0  0  0  0  0  0  0
  1  2  1  0
  2  3  2  0
  3  4  1  0
  4  5  1  0
  4  6  2  0
  6  7  1  0
  7  8  2  0
  8  9  1  0
  9 10  1  0
 10 11  1  0
 11 12  1  0
 11 13  2  0
 13 14  1  0
 13 15  1  0
 15 16  1  0
  8 17  1  0
 17 18  2  0
 18 19  1  0
 18 20  1  0
 20 21  1  0
  6 22  1  0
 22 23  1  0
 22 24  2  0
 24 25  1  0
 24  2  1  0
 20  7  1  0
 15  9  2  0
M  END
>  <cnnaffinity>  (1) 
5.00806

>  <plip>  (1) 
-0.0

>  <filename>  (1) 
[H][c]1[n][c]([H])[c](-[c]2[c](-[c]3[s][c]([Cl])[c]([H])[c]3[H])[n][c]([H])[n]2[H])[c]([H])[c]1[H]

>  <combo1>  (1) 
-6.377979931508854e-06

$$$$
