
     RDKit          3D

 37 40  0  0  0  0  0  0  0  0999 V2000
    9.5082    0.7336   21.0631 O   0  0  0  0  0  0  0  0  0  0  0  0
    8.4268    0.6146   21.6233 C   0  0  0  0  0  0  0  0  0  0  0  0
    8.0995    1.4021   22.6870 N   0  0  0  0  0  0  0  0  0  0  0  0
    8.7275    2.5701   23.0360 C   0  0  0  0  0  0  0  0  0  0  0  0
    8.2528    3.3186   23.9766 N   0  0  0  0  0  0  0  0  0  0  0  0
    9.1698    4.3515   24.0480 C   0  0  0  0  0  0  0  0  0  0  0  0
    9.1809    5.3559   24.9270 N   0  0  0  0  0  0  0  0  0  0  0  0
   10.1922    6.2211   24.8191 C   0  0  0  0  0  0  0  0  0  0  0  0
   11.1994    6.1623   23.8315 C   0  0  0  0  0  0  0  0  0  0  0  0
   11.1929    5.1177   22.9037 C   0  0  0  0  0  0  0  0  0  0  0  0
   10.1890    4.1791   23.0687 C   0  0  0  0  0  0  0  0  0  0  0  0
    9.8665    2.9910   22.4361 N   0  0  0  0  0  0  0  0  0  0  0  0
   10.4014    2.3707   21.8460 H   0  0  0  0  0  0  0  0  0  0  0  0
   11.9069    5.0291   22.0890 H   0  0  0  0  0  0  0  0  0  0  0  0
   11.9726    6.9212   23.8097 H   0  0  0  0  0  0  0  0  0  0  0  0
   10.2223    7.0123   25.5668 H   0  0  0  0  0  0  0  0  0  0  0  0
    7.2349    1.2856   23.1778 H   0  0  0  0  0  0  0  0  0  0  0  0
    7.3535   -0.3696   21.1060 C   0  0  0  0  0  0  0  0  0  0  0  0
    6.5695    0.2857   19.9555 C   0  0  0  0  0  0  0  0  0  0  0  0
    5.3483    0.9486   20.1267 C   0  0  0  0  0  0  0  0  0  0  0  0
    4.7242    1.5145   19.0109 C   0  0  0  0  0  0  0  0  0  0  0  0
    5.3401    1.4165   17.7604 C   0  0  0  0  0  0  0  0  0  0  0  0
    6.5179    0.8055   17.5732 N   0  0  0  0  0  0  0  0  0  0  0  0
    7.1056    0.2759   18.6514 C   0  0  0  0  0  0  0  0  0  0  0  0
    8.0783   -0.1804   18.4759 H   0  0  0  0  0  0  0  0  0  0  0  0
    4.8845    1.8474   16.8702 H   0  0  0  0  0  0  0  0  0  0  0  0
    3.7711    2.0203   19.0880 H   0  0  0  0  0  0  0  0  0  0  0  0
    4.8834    1.0309   21.1109 H   0  0  0  0  0  0  0  0  0  0  0  0
    7.9777   -1.7551   20.7339 C   0  0  0  0  0  0  0  0  0  0  0  0
    7.4481   -2.3773   22.0333 C   0  0  0  0  0  0  0  0  0  0  0  0
    6.5157   -1.1517   22.1718 C   0  0  0  0  0  0  0  0  0  0  0  0
    6.3939   -0.7364   23.1770 H   0  0  0  0  0  0  0  0  0  0  0  0
    5.5342   -1.3649   21.7357 H   0  0  0  0  0  0  0  0  0  0  0  0
    6.9545   -3.3502   21.9355 H   0  0  0  0  0  0  0  0  0  0  0  0
    8.2006   -2.4504   22.8271 H   0  0  0  0  0  0  0  0  0  0  0  0
    7.4227   -2.1345   19.8780 H   0  0  0  0  0  0  0  0  0  0  0  0
    9.0510   -1.7789   20.5305 H   0  0  0  0  0  0  0  0  0  0  0  0
  1  2  2  0
  2  3  1  0
  3  4  1  0
  4  5  2  0
  5  6  1  0
  6  7  2  0
  7  8  1  0
  8  9  2  0
  9 10  1  0
 10 11  2  0
 11 12  1  0
 12 13  1  0
 10 14  1  0
  9 15  1  0
  8 16  1  0
  3 17  1  0
  2 18  1  0
 18 19  1  0
 19 20  2  0
 20 21  1  0
 21 22  2  0
 22 23  1  0
 23 24  2  0
 24 25  1  0
 22 26  1  0
 21 27  1  0
 20 28  1  0
 18 29  1  0
 29 30  1  0
 30 31  1  0
 31 32  1  0
 31 33  1  0
 30 34  1  0
 30 35  1  0
 29 36  1  0
 29 37  1  0
 12  4  1  0
 31 18  1  0
 11  6  1  0
 24 19  1  0
M  END
>  <cnnaffinity>  (1) 
4.7488

>  <plip>  (1) 
-0.10714285714285714

>  <filename>  (1) 
[H][c]1[n][c]([H])[c]([C]2([C](=[O])[N]([H])[c]3[n][c]4[n][c]([H])[c]([H])[c]([H])[c]4[n]3[H])[C]([H])([H])[C]([H])([H])[C]2([H])[H])[c]([H])[c]1[H]

>  <combo1>  (1) 
-0.5781883885044149

$$$$
