
     RDKit          3D

 37 39  0  0  0  0  0  0  0  0999 V2000
    6.9038   -3.5785   22.9385 H   0  0  0  0  0  0  0  0  0  0  0  0
    7.2344   -2.5685   22.6995 C   0  0  0  0  0  0  0  0  0  0  0  0
    8.0976   -1.9310   23.5007 C   0  0  0  0  0  0  0  0  0  0  0  0
    8.6786   -2.6219   24.7179 C   0  0  1  0  0  0  0  0  0  0  0  0
    9.2660   -1.8778   25.2762 H   0  0  0  0  0  0  0  0  0  0  0  0
    7.6382   -3.1710   25.5970 N   0  0  0  0  0  0  0  0  0  0  0  0
    7.5201   -2.5778   26.4038 H   0  0  0  0  0  0  0  0  0  0  0  0
    7.9242   -4.5569   25.9431 C   0  0  0  0  0  0  0  0  0  0  0  0
    7.2153   -5.2212   25.4222 H   0  0  0  0  0  0  0  0  0  0  0  0
    7.7827   -4.7270   27.0178 H   0  0  0  0  0  0  0  0  0  0  0  0
    9.3674   -4.8133   25.4932 C   0  0  0  0  0  0  0  0  0  0  0  0
   10.0637   -4.6123   26.3151 H   0  0  0  0  0  0  0  0  0  0  0  0
    9.5167   -5.8479   25.1753 H   0  0  0  0  0  0  0  0  0  0  0  0
    9.5821   -3.8160   24.3554 C   0  0  0  0  0  0  0  0  0  0  0  0
   10.6233   -3.5037   24.2407 H   0  0  0  0  0  0  0  0  0  0  0  0
    9.2804   -4.2422   23.3913 H   0  0  0  0  0  0  0  0  0  0  0  0
    8.6246   -0.5400   23.1797 C   0  0  0  0  0  0  0  0  0  0  0  0
    9.6462   -0.6341   22.7791 H   0  0  0  0  0  0  0  0  0  0  0  0
    8.7104    0.0546   24.0971 H   0  0  0  0  0  0  0  0  0  0  0  0
    7.7588    0.2027   22.1598 C   0  0  0  0  0  0  0  0  0  0  0  0
    8.2699    1.0987   21.7920 H   0  0  0  0  0  0  0  0  0  0  0  0
    6.8346    0.5534   22.6371 H   0  0  0  0  0  0  0  0  0  0  0  0
    7.4072   -0.7216   20.9832 C   0  0  2  0  0  0  0  0  0  0  0  0
    8.3547   -1.0975   20.5710 H   0  0  0  0  0  0  0  0  0  0  0  0
    6.6639    0.0106   19.8918 C   0  0  0  0  0  0  0  0  0  0  0  0
    7.1631    0.0706   18.5830 C   0  0  0  0  0  0  0  0  0  0  0  0
    8.1111   -0.4171   18.3598 H   0  0  0  0  0  0  0  0  0  0  0  0
    6.5597    0.6823   17.5590 N   0  0  0  0  0  0  0  0  0  0  0  0
    5.3977    1.2971   17.8282 C   0  0  0  0  0  0  0  0  0  0  0  0
    4.9123    1.7884   16.9899 H   0  0  0  0  0  0  0  0  0  0  0  0
    4.8075    1.3113   19.0969 C   0  0  0  0  0  0  0  0  0  0  0  0
    3.8747    1.8419   19.2556 H   0  0  0  0  0  0  0  0  0  0  0  0
    5.4433    0.6534   20.1486 C   0  0  0  0  0  0  0  0  0  0  0  0
    5.0065    0.6378   21.1542 H   0  0  0  0  0  0  0  0  0  0  0  0
    6.6167   -1.9443   21.4826 C   0  0  0  0  0  0  0  0  0  0  0  0
    6.4987   -2.6801   20.6811 H   0  0  0  0  0  0  0  0  0  0  0  0
    5.5905   -1.6464   21.7222 H   0  0  0  0  0  0  0  0  0  0  0  0
  1  2  1  0
  2  3  2  0
  3  4  1  0
  4  5  1  1
  4  6  1  0
  6  7  1  0
  6  8  1  0
  8  9  1  0
  8 10  1  0
  8 11  1  0
 11 12  1  0
 11 13  1  0
 11 14  1  0
 14 15  1  0
 14 16  1  0
  3 17  1  0
 17 18  1  0
 17 19  1  0
 17 20  1  0
 20 21  1  0
 20 22  1  0
 20 23  1  0
 23 24  1  6
 23 25  1  0
 25 26  2  0
 26 27  1  0
 26 28  1  0
 28 29  2  0
 29 30  1  0
 29 31  1  0
 31 32  1  0
 31 33  2  0
 33 34  1  0
 23 35  1  0
 35 36  1  0
 35 37  1  0
 35  2  1  0
 14  4  1  0
 33 25  1  0
M  END
>  <cnnaffinity>  (1) 
5.11263

>  <plip>  (1) 
-0.03571428571428571

>  <filename>  (1) 
[H][C]1=[C]([C@@]2([H])[N]([H])[C]([H])([H])[C]([H])([H])[C]2([H])[H])[C]([H])([H])[C]([H])([H])[C@]([H])([c]2[c]([H])[n][c]([H])[c]([H])[c]2[H])[C]1([H])[H]

>  <combo1>  (1) 
-0.2665538644609237

$$$$
