
     RDKit          3D

 44 46  0  0  0  0  0  0  0  0999 V2000
    4.9143    1.7804   16.9396 H   0  0  0  0  0  0  0  0  0  0  0  0
    5.4292    1.4245   17.8309 C   0  0  0  0  0  0  0  0  0  0  0  0
    6.5735    0.7528   17.6245 N   0  0  0  0  0  0  0  0  0  0  0  0
    7.2259    0.3004   18.7068 C   0  0  0  0  0  0  0  0  0  0  0  0
    8.1586   -0.2266   18.5156 H   0  0  0  0  0  0  0  0  0  0  0  0
    6.7911    0.4752   20.0495 C   0  0  0  0  0  0  0  0  0  0  0  0
    7.4851   -0.0263   21.1696 N   0  0  0  0  0  0  0  0  0  0  0  0
    7.7475   -1.4448   21.3493 C   0  0  0  0  0  0  0  0  0  0  0  0
    7.2892   -1.9805   20.5087 H   0  0  0  0  0  0  0  0  0  0  0  0
    7.3264   -1.8618   22.2392 H   0  0  0  0  0  0  0  0  0  0  0  0
    9.2592   -1.7279   21.3560 C   0  0  0  0  0  0  0  0  0  0  0  0
    9.6893   -1.5930   20.3372 H   0  0  0  0  0  0  0  0  0  0  0  0
    9.4613   -2.7678   21.6423 H   0  0  0  0  0  0  0  0  0  0  0  0
    9.9686   -0.9208   22.2838 O   0  0  0  0  0  0  0  0  0  0  0  0
    9.7648    0.4652   22.0821 C   0  0  0  0  0  0  0  0  0  0  0  0
   10.2903    0.8024   21.1658 H   0  0  0  0  0  0  0  0  0  0  0  0
   10.2171    0.9721   22.9437 H   0  0  0  0  0  0  0  0  0  0  0  0
    8.2925    0.8660   21.9705 C   0  0  2  0  0  0  0  0  0  0  0  0
    8.1339    1.9185   21.7322 H   0  0  0  0  0  0  0  0  0  0  0  0
    6.7590   -0.3965   23.5468 C   0  0  0  0  0  0  0  0  0  0  0  0
    7.5395    0.5158   23.2906 H   0  0  0  0  0  0  0  0  0  0  0  0
    8.3247   -1.2686   24.5854 C   0  0  0  0  0  0  0  0  0  0  0  0
    9.1861   -0.6145   24.7685 H   0  0  0  0  0  0  0  0  0  0  0  0
    8.6442   -2.0278   23.8466 H   0  0  0  0  0  0  0  0  0  0  0  0
    7.7415   -1.9697   25.8262 C   0  0  0  0  0  0  0  0  0  0  0  0
    7.8353   -1.3555   26.7281 H   0  0  0  0  0  0  0  0  0  0  0  0
    8.2862   -2.9046   26.0109 H   0  0  0  0  0  0  0  0  0  0  0  0
    6.2960   -2.2745   25.6718 N   0  0  0  0  0  0  0  0  0  0  0  0
    5.4265   -1.8304   26.6633 C   0  0  0  0  0  0  0  0  0  0  0  0
    5.7001   -0.8656   27.3527 O   0  0  0  0  0  0  0  0  0  0  0  0
    4.1681   -2.6441   26.9962 C   0  0  0  0  0  0  0  0  0  0  0  0
    4.2487   -2.8997   28.0573 H   0  0  0  0  0  0  0  0  0  0  0  0
    3.2681   -2.0251   26.9058 H   0  0  0  0  0  0  0  0  0  0  0  0
    4.0467   -3.5666   26.4235 H   0  0  0  0  0  0  0  0  0  0  0  0
    5.8766   -2.7730   24.3910 C   0  0  0  0  0  0  0  0  0  0  0  0
    4.8269   -3.0490   24.3245 H   0  0  0  0  0  0  0  0  0  0  0  0
    6.5643   -3.4899   23.9457 H   0  0  0  0  0  0  0  0  0  0  0  0
    6.6972   -0.3042   23.7959 C   0  0  0  0  0  0  0  0  0  0  0  0
    5.7870    0.1490   22.9647 H   0  0  0  0  0  0  0  0  0  0  0  0
    6.1121   -1.4056   23.6349 H   0  0  0  0  0  0  0  0  0  0  0  0
    5.6087    1.2065   20.2287 C   0  0  0  0  0  0  0  0  0  0  0  0
    5.2639    1.4007   21.2417 H   0  0  0  0  0  0  0  0  0  0  0  0
    4.9046    1.6701   19.1078 C   0  0  0  0  0  0  0  0  0  0  0  0
    3.9800    2.2312   19.2117 H   0  0  0  0  0  0  0  0  0  0  0  0
  1  2  1  0
  2  3  2  0
  3  4  1  0
  4  5  1  0
  4  6  2  0
  6  7  1  0
  7  8  1  0
  8  9  1  0
  8 10  1  0
  8 11  1  0
 11 12  1  0
 11 13  1  0
 11 14  1  0
 14 15  1  0
 15 16  1  0
 15 17  1  0
 15 18  1  0
 18 19  1  6
 18 20  1  0
 20 21  1  0
 20 22  1  0
 22 23  1  0
 22 24  1  0
 22 25  1  0
 25 26  1  0
 25 27  1  0
 25 28  1  0
 28 29  1  0
 29 30  2  0
 29 31  1  0
 31 32  1  0
 31 33  1  0
 31 34  1  0
 28 35  1  0
 35 36  1  0
 35 37  1  0
 35 38  1  0
 38 39  1  0
 38 40  1  0
  6 41  1  0
 41 42  1  0
 41 43  2  0
 43 44  1  0
 43  2  1  0
 18  7  1  0
 38 20  1  0
M  END
>  <cnnaffinity>  (1) 
4.67561

>  <plip>  (1) 
-0.03571428571428571

>  <filename>  (1) 
[H][c]1[n][c]([H])[c]([N]2[C]([H])([H])[C]([H])([H])[O][C]([H])([H])[C@]2([H])[C]2([H])[C]([H])([H])[C]([H])([H])[N]([C](=[O])[C]([H])([H])[H])[C]([H])([H])[C]2([H])[H])[c]([H])[c]1[H]

>  <combo1>  (1) 
-0.19234990724801665

$$$$
