
     RDKit          3D

 37 37  0  0  0  0  0  0  0  0999 V2000
    4.9201    1.7805   17.0046 H   0  0  0  0  0  0  0  0  0  0  0  0
    5.4065    1.2870   17.8465 C   0  0  0  0  0  0  0  0  0  0  0  0
    6.5704    0.6696   17.5838 N   0  0  0  0  0  0  0  0  0  0  0  0
    7.1891    0.0530   18.5959 C   0  0  0  0  0  0  0  0  0  0  0  0
    8.1330   -0.4304   18.3666 H   0  0  0  0  0  0  0  0  0  0  0  0
    6.6944   -0.0065   19.9136 C   0  0  0  0  0  0  0  0  0  0  0  0
    7.3238   -0.6839   21.0082 N   0  0  0  0  0  0  0  0  0  0  0  0
    8.4062   -1.2430   20.7345 N   0  0  0  0  0  0  0  0  0  0  0  0
    9.0133   -1.9271   21.8819 C   0  0  0  0  0  0  0  0  0  0  0  0
    9.1435   -1.2316   22.7167 H   0  0  0  0  0  0  0  0  0  0  0  0
   10.0141   -2.2127   21.5488 H   0  0  0  0  0  0  0  0  0  0  0  0
    8.2469   -3.1805   22.2986 C   0  0  0  0  0  0  0  0  0  0  0  0
    8.0796   -3.7749   21.3961 H   0  0  0  0  0  0  0  0  0  0  0  0
    7.2595   -2.8701   22.6520 H   0  0  0  0  0  0  0  0  0  0  0  0
    8.9390   -4.0266   23.3681 C   0  0  0  0  0  0  0  0  0  0  0  0
    9.9774   -4.2111   23.0824 H   0  0  0  0  0  0  0  0  0  0  0  0
    8.4624   -5.0162   23.4089 H   0  0  0  0  0  0  0  0  0  0  0  0
    8.9608   -3.4041   24.7624 C   0  0  0  0  0  0  0  0  0  0  0  0
    7.9291   -3.2410   25.0964 H   0  0  0  0  0  0  0  0  0  0  0  0
    9.4162   -2.4078   24.7106 H   0  0  0  0  0  0  0  0  0  0  0  0
    9.7212   -4.2321   25.8029 C   0  0  0  0  0  0  0  0  0  0  0  0
    9.7441   -3.6787   26.7509 H   0  0  0  0  0  0  0  0  0  0  0  0
   10.7711   -4.3189   25.4905 H   0  0  0  0  0  0  0  0  0  0  0  0
    9.1681   -5.6426   26.0538 C   0  0  0  0  0  0  0  0  0  0  0  0
    9.7822   -6.1101   26.8304 H   0  0  0  0  0  0  0  0  0  0  0  0
    9.3126   -6.2624   25.1595 H   0  0  0  0  0  0  0  0  0  0  0  0
    7.6986   -5.7085   26.4869 C   0  0  0  0  0  0  0  0  0  0  0  0
    7.0550   -5.3197   25.6887 H   0  0  0  0  0  0  0  0  0  0  0  0
    7.4098   -6.7572   26.6041 H   0  0  0  0  0  0  0  0  0  0  0  0
    7.4078   -4.9661   27.7889 C   0  0  0  0  0  0  0  0  0  0  0  0
    6.3827   -5.1360   28.1310 H   0  0  0  0  0  0  0  0  0  0  0  0
    7.5467   -3.8858   27.6796 H   0  0  0  0  0  0  0  0  0  0  0  0
    8.0824   -5.3013   28.5825 H   0  0  0  0  0  0  0  0  0  0  0  0
    5.4711    0.6324   20.1741 C   0  0  0  0  0  0  0  0  0  0  0  0
    5.0488    0.6067   21.1784 H   0  0  0  0  0  0  0  0  0  0  0  0
    4.8272    1.2930   19.1217 C   0  0  0  0  0  0  0  0  0  0  0  0
    3.8945    1.8258   19.2698 H   0  0  0  0  0  0  0  0  0  0  0  0
  1  2  1  0
  2  3  2  0
  3  4  1  0
  4  5  1  0
  4  6  2  0
  6  7  1  0
  7  8  2  3
  8  9  1  0
  9 10  1  0
  9 11  1  0
  9 12  1  0
 12 13  1  0
 12 14  1  0
 12 15  1  0
 15 16  1  0
 15 17  1  0
 15 18  1  0
 18 19  1  0
 18 20  1  0
 18 21  1  0
 21 22  1  0
 21 23  1  0
 21 24  1  0
 24 25  1  0
 24 26  1  0
 24 27  1  0
 27 28  1  0
 27 29  1  0
 27 30  1  0
 30 31  1  0
 30 32  1  0
 30 33  1  0
  6 34  1  0
 34 35  1  0
 34 36  2  0
 36 37  1  0
 36  2  1  0
M  END
>  <cnnaffinity>  (1) 
4.40083

>  <plip>  (1) 
-0.10344827586206896

>  <filename>  (1) 
[H][c]1[n][c]([H])[c]([N]=[N][C]([H])([H])[C]([H])([H])[C]([H])([H])[C]([H])([H])[C]([H])([H])[C]([H])([H])[C]([H])([H])[C]([H])([H])[H])[c]([H])[c]1[H]

>  <combo1>  (1) 
-0.6918860842042639

$$$$
