
     RDKit          3D

 34 36  0  0  0  0  0  0  0  0999 V2000
    9.0176    0.1041   24.2990 H   0  0  0  0  0  0  0  0  0  0  0  0
    9.1818   -0.8792   24.0642 N   0  0  0  0  0  0  0  0  0  0  0  0
    8.5245   -1.1123   23.0065 C   0  0  0  0  0  0  0  0  0  0  0  0
    8.4590   -2.7107   22.2515 S   0  0  0  0  0  0  0  0  0  0  0  0
    7.5094   -2.0986   20.9444 C   0  0  0  0  0  0  0  0  0  0  0  0
    7.1392   -2.7533   20.1708 H   0  0  0  0  0  0  0  0  0  0  0  0
    7.2605   -0.7848   21.0345 C   0  0  0  0  0  0  0  0  0  0  0  0
    6.6108    0.0201   19.9812 C   0  0  0  0  0  0  0  0  0  0  0  0
    7.1839    0.0656   18.6943 C   0  0  0  0  0  0  0  0  0  0  0  0
    8.1571   -0.3839   18.5001 H   0  0  0  0  0  0  0  0  0  0  0  0
    6.6195    0.6663   17.6414 N   0  0  0  0  0  0  0  0  0  0  0  0
    5.4501    1.2903   17.8431 C   0  0  0  0  0  0  0  0  0  0  0  0
    5.0144    1.7770   16.9751 H   0  0  0  0  0  0  0  0  0  0  0  0
    4.8058    1.3355   19.0820 C   0  0  0  0  0  0  0  0  0  0  0  0
    3.8797    1.8865   19.1894 H   0  0  0  0  0  0  0  0  0  0  0  0
    5.3989    0.7045   20.1759 C   0  0  0  0  0  0  0  0  0  0  0  0
    4.9288    0.7407   21.1613 H   0  0  0  0  0  0  0  0  0  0  0  0
    7.7289   -0.2261   22.2330 N   0  0  0  0  0  0  0  0  0  0  0  0
    7.3515    1.1510   22.7151 N   0  0  0  0  0  0  0  0  0  0  0  0
    6.9560    1.6836   21.9360 H   0  0  0  0  0  0  0  0  0  0  0  0
    6.0860    1.6335   23.8217 S   0  0  0  0  0  0  0  0  0  0  0  0
    5.4902    0.4751   24.4403 O   0  0  0  0  0  0  0  0  0  0  0  0
    5.3352    2.5772   23.0084 O   0  0  0  0  0  0  0  0  0  0  0  0
    7.0376    2.5259   25.0280 C   0  0  0  0  0  0  0  0  0  0  0  0
    7.9900    3.4769   24.6269 C   0  0  0  0  0  0  0  0  0  0  0  0
    8.3187    3.5621   23.5922 H   0  0  0  0  0  0  0  0  0  0  0  0
    8.5528    4.3280   25.5812 C   0  0  0  0  0  0  0  0  0  0  0  0
    9.2627    5.0813   25.2516 H   0  0  0  0  0  0  0  0  0  0  0  0
    8.1967    4.2147   26.9297 C   0  0  0  0  0  0  0  0  0  0  0  0
    8.6164    4.8859   27.6751 H   0  0  0  0  0  0  0  0  0  0  0  0
    7.2941    3.2209   27.3233 C   0  0  0  0  0  0  0  0  0  0  0  0
    7.0235    3.1150   28.3676 H   0  0  0  0  0  0  0  0  0  0  0  0
    6.7160    2.3668   26.3830 C   0  0  0  0  0  0  0  0  0  0  0  0
    6.0227    1.5934   26.7093 H   0  0  0  0  0  0  0  0  0  0  0  0
  1  2  1  0
  2  3  2  3
  3  4  1  0
  4  5  1  0
  5  6  1  0
  5  7  2  0
  7  8  1  0
  8  9  2  0
  9 10  1  0
  9 11  1  0
 11 12  2  0
 12 13  1  0
 12 14  1  0
 14 15  1  0
 14 16  2  0
 16 17  1  0
  7 18  1  0
 18 19  1  0
 19 20  1  0
 19 21  1  0
 21 22  2  0
 21 23  2  0
 21 24  1  0
 24 25  2  0
 25 26  1  0
 25 27  1  0
 27 28  1  0
 27 29  2  0
 29 30  1  0
 29 31  1  0
 31 32  1  0
 31 33  2  0
 33 34  1  0
 18  3  1  0
 33 24  1  0
 16  8  1  0
M  END
>  <cnnaffinity>  (1) 
4.91004

>  <plip>  (1) 
-0.10714285714285714

>  <filename>  (1) 
[H][N]=[c]1[s][c]([H])[c](-[c]2[c]([H])[n][c]([H])[c]([H])[c]2[H])[n]1[N]([H])[S](=[O])(=[O])[c]1[c]([H])[c]([H])[c]([H])[c]([H])[c]1[H]

>  <combo1>  (1) 
-0.5275369917528696

$$$$
