
     RDKit          3D

 28 30  0  0  0  0  0  0  0  0999 V2000
    5.2733   -5.4216   19.7384 H   0  0  0  0  0  0  0  0  0  0  0  0
    5.3463   -4.5662   20.4711 C   0  0  0  0  0  0  0  0  0  0  0  0
    4.4836   -4.4480   21.4988 C   0  0  0  0  0  0  0  0  0  0  0  0
    3.5457   -5.0135   21.6631 H   0  0  0  0  0  0  0  0  0  0  0  0
    4.6339   -3.1849   22.1084 C   0  0  0  0  0  0  0  0  0  0  0  0
    4.0788   -2.9647   23.1310 O   0  0  0  0  0  0  0  0  0  0  0  0
    5.7879   -2.5447   21.3900 N   0  0  0  0  0  0  0  0  0  0  0  0
    6.7091   -1.4284   22.0054 C   0  0  1  0  0  0  0  0  0  0  0  0
    6.1040   -0.8191   22.6614 H   0  0  0  0  0  0  0  0  0  0  0  0
    7.8979   -2.0731   22.7686 C   0  0  0  0  0  0  0  0  0  0  0  0
    7.7671   -2.8145   23.6990 O   0  0  0  0  0  0  0  0  0  0  0  0
    9.0529   -1.6525   22.1644 N   0  0  0  0  0  0  0  0  0  0  0  0
    9.9924   -1.8799   22.4988 H   0  0  0  0  0  0  0  0  0  0  0  0
    8.7641   -0.8000   21.0959 C   0  0  0  0  0  0  0  0  0  0  0  0
    9.5850   -0.2171   20.4411 O   0  0  0  0  0  0  0  0  0  0  0  0
    7.3659   -0.6902   20.9524 N   0  0  0  0  0  0  0  0  0  0  0  0
    6.6735    0.0085   19.9086 C   0  0  0  0  0  0  0  0  0  0  0  0
    7.1888    0.0601   18.5953 C   0  0  0  0  0  0  0  0  0  0  0  0
    8.1364   -0.4379   18.3836 H   0  0  0  0  0  0  0  0  0  0  0  0
    6.5648    0.6846   17.5917 N   0  0  0  0  0  0  0  0  0  0  0  0
    5.3955    1.2918   17.8489 C   0  0  0  0  0  0  0  0  0  0  0  0
    4.9031    1.7697   17.0090 H   0  0  0  0  0  0  0  0  0  0  0  0
    4.8059    1.3140   19.1121 C   0  0  0  0  0  0  0  0  0  0  0  0
    3.8749    1.8437   19.2697 H   0  0  0  0  0  0  0  0  0  0  0  0
    5.4463    0.6504   20.1581 C   0  0  0  0  0  0  0  0  0  0  0  0
    5.0137    0.6218   21.1550 H   0  0  0  0  0  0  0  0  0  0  0  0
    6.3263   -3.4333   20.2838 C   0  0  0  0  0  0  0  0  0  0  0  0
    6.3261   -3.4331   20.2839 O   0  0  0  0  0  0  0  0  0  0  0  0
  1  2  1  0
  2  3  2  0
  3  4  1  0
  3  5  1  0
  5  6  2  0
  5  7  1  0
  7  8  1  0
  8  9  1  1
  8 10  1  0
 10 11  2  0
 10 12  1  0
 12 13  1  0
 12 14  1  0
 14 15  2  0
 14 16  1  0
 16 17  1  0
 17 18  2  0
 18 19  1  0
 18 20  1  0
 20 21  2  0
 21 22  1  0
 21 23  1  0
 23 24  1  0
 23 25  2  0
 25 26  1  0
  7 27  1  0
 27 28  2  0
 27  2  1  0
 16  8  1  0
 25 17  1  0
M  END
>  <cnnaffinity>  (1) 
4.30507

>  <plip>  (1) 
-0.13793103448275862

>  <filename>  (1) 
[H][C]1=[C]([H])[C](=[O])[N]([C@@]2([H])[C](=[O])[N]([H])[C](=[O])[N]2[c]2[c]([H])[n][c]([H])[c]([H])[c]2[H])[C]1=[O]

>  <combo1>  (1) 
-0.7271113543221042

$$$$
