
     RDKit          3D

 49 51  0  0  0  0  0  0  0  0999 V2000
    3.6357   -6.6868   24.6898 C   0  0  0  0  0  0  0  0  0  0  0  0
    4.5822   -5.6986   24.0500 C   0  0  0  0  0  0  0  0  0  0  0  0
    5.0405   -5.8903   22.7390 C   0  0  0  0  0  0  0  0  0  0  0  0
    5.9130   -4.9704   22.1496 C   0  0  0  0  0  0  0  0  0  0  0  0
    6.3531   -3.8281   22.8355 C   0  0  0  0  0  0  0  0  0  0  0  0
    7.3491   -2.9019   22.1884 C   0  0  0  0  0  0  0  0  0  0  0  0
    6.6177   -1.7911   21.5458 N   0  0  0  0  0  4  0  0  0  0  0  0
    7.4115   -0.6707   20.9872 C   0  0  0  0  0  0  0  0  0  0  0  0
    7.8697    0.3086   22.0922 C   0  0  0  0  0  0  0  0  0  0  0  0
    8.8741    1.3201   21.6366 N   0  0  0  0  0  4  0  0  0  0  0  0
    9.2274    2.3124   22.7147 C   0  0  0  0  0  0  0  0  0  0  0  0
   10.6690    2.7546   22.4294 C   0  0  0  0  0  0  0  0  0  0  0  0
   11.2234    1.8156   21.3382 C   0  0  0  0  0  0  0  0  0  0  0  0
   10.1776    0.7202   21.1575 C   0  0  0  0  0  0  0  0  0  0  0  0
   10.0648    0.3905   20.1257 H   0  0  0  0  0  0  0  0  0  0  0  0
   10.4116   -0.1607   21.7670 H   0  0  0  0  0  0  0  0  0  0  0  0
   11.4084    2.3561   20.4039 H   0  0  0  0  0  0  0  0  0  0  0  0
   12.1700    1.3556   21.6336 H   0  0  0  0  0  0  0  0  0  0  0  0
   10.7126    3.8055   22.1183 H   0  0  0  0  0  0  0  0  0  0  0  0
   11.2563    2.6847   23.3468 H   0  0  0  0  0  0  0  0  0  0  0  0
    9.1557    1.7972   23.6787 H   0  0  0  0  0  0  0  0  0  0  0  0
    8.5028    3.1341   22.7231 H   0  0  0  0  0  0  0  0  0  0  0  0
    8.4438    1.8632   20.8449 H   0  0  0  0  0  0  0  0  0  0  0  0
    6.9767    0.7967   22.5008 H   0  0  0  0  0  0  0  0  0  0  0  0
    8.3041   -0.2923   22.9062 H   0  0  0  0  0  0  0  0  0  0  0  0
    6.5768   -0.0076   19.9120 C   0  0  0  0  0  0  0  0  0  0  0  0
    5.3636    0.6654   20.1311 C   0  0  0  0  0  0  0  0  0  0  0  0
    4.7551    1.3280   19.0603 C   0  0  0  0  0  0  0  0  0  0  0  0
    5.3801    1.3031   17.8083 C   0  0  0  0  0  0  0  0  0  0  0  0
    6.5263    0.6513   17.5715 N   0  0  0  0  0  0  0  0  0  0  0  0
    7.0963    0.0257   18.6077 C   0  0  0  0  0  0  0  0  0  0  0  0
    8.0386   -0.4788   18.3926 H   0  0  0  0  0  0  0  0  0  0  0  0
    4.9494    1.8441   16.9654 H   0  0  0  0  0  0  0  0  0  0  0  0
    3.8359    1.8902   19.1882 H   0  0  0  0  0  0  0  0  0  0  0  0
    4.8931    0.6949   21.1185 H   0  0  0  0  0  0  0  0  0  0  0  0
    8.3145   -1.0752   20.5176 H   0  0  0  0  0  0  0  0  0  0  0  0
    5.9676   -1.4087   22.2904 H   0  0  0  0  0  0  0  0  0  0  0  0
    6.0051   -2.1494   20.7718 H   0  0  0  0  0  0  0  0  0  0  0  0
    8.0406   -2.5340   22.9544 H   0  0  0  0  0  0  0  0  0  0  0  0
    7.9541   -3.4571   21.4627 H   0  0  0  0  0  0  0  0  0  0  0  0
    5.8813   -3.6490   24.1492 C   0  0  0  0  0  0  0  0  0  0  0  0
    6.3636   -2.2516   25.0843 Cl  0  0  0  0  0  0  0  0  0  0  0  0
    5.0224   -4.5693   24.7555 C   0  0  0  0  0  0  0  0  0  0  0  0
    4.7229   -4.4074   25.7869 H   0  0  0  0  0  0  0  0  0  0  0  0
    6.2786   -5.1447   21.1407 H   0  0  0  0  0  0  0  0  0  0  0  0
    4.7350   -6.7776   22.1899 H   0  0  0  0  0  0  0  0  0  0  0  0
    2.5908   -6.4068   24.5172 H   0  0  0  0  0  0  0  0  0  0  0  0
    3.7798   -6.7449   25.7726 H   0  0  0  0  0  0  0  0  0  0  0  0
    3.7694   -7.6961   24.2900 H   0  0  0  0  0  0  0  0  0  0  0  0
  1  2  1  0
  2  3  2  0
  3  4  1  0
  4  5  2  0
  5  6  1  0
  6  7  1  0
  7  8  1  0
  8  9  1  0
  9 10  1  0
 10 11  1  0
 11 12  1  0
 12 13  1  0
 13 14  1  0
 14 15  1  0
 14 16  1  0
 13 17  1  0
 13 18  1  0
 12 19  1  0
 12 20  1  0
 11 21  1  0
 11 22  1  0
 10 23  1  0
  9 24  1  0
  9 25  1  0
  8 26  1  0
 26 27  2  0
 27 28  1  0
 28 29  2  0
 29 30  1  0
 30 31  2  0
 31 32  1  0
 29 33  1  0
 28 34  1  0
 27 35  1  0
  8 36  1  0
  7 37  1  0
  7 38  1  0
  6 39  1  0
  6 40  1  0
  5 41  1  0
 41 42  1  0
 41 43  2  0
 43 44  1  0
  4 45  1  0
  3 46  1  0
  1 47  1  0
  1 48  1  0
  1 49  1  0
 43  2  1  0
 14 10  1  0
 31 26  1  0
M  CHG  2   7   1  10   1
M  END
>  <cnnaffinity>  (1) 
5.07731

>  <plip>  (1) 
-0.14285714285714285

>  <filename>  (1) 
[H][c]1[n][c]([H])[c]([C]([H])([C]([H])([H])[N+]2([H])[C]([H])([H])[C]([H])([H])[C]([H])([H])[C]2([H])[H])[N+]([H])([H])[C]([H])([H])[c]2[c]([H])[c]([H])[c]([C]([H])([H])[H])[c]([H])[c]2[Cl])[c]([H])[c]1[H]

>  <combo1>  (1) 
-0.728482142229427

$$$$
