
     RDKit          3D

 31 33  0  0  0  0  0  0  0  0999 V2000
    7.0091   -2.0080   21.1836 C   0  0  0  0  0  0  0  0  0  0  0  0
    7.0904   -0.4976   21.2565 C   0  0  0  0  0  0  0  0  0  0  0  0
    8.5127   -0.1742   21.1616 N   0  0  0  0  0  0  0  0  0  0  0  0
    9.0133    1.0005   21.6429 C   0  0  0  0  0  0  0  0  0  0  0  0
    8.0997    1.9398   21.8796 N   0  0  0  0  0  0  0  0  0  0  0  0
    8.5535    3.1201   22.3140 C   0  0  0  0  0  0  0  0  0  0  0  0
    9.8927    3.3994   22.5123 C   0  0  0  0  0  0  0  0  0  0  0  0
   10.8589    2.4153   22.2943 C   0  0  0  0  0  0  0  0  0  0  0  0
   10.3968    1.1700   21.8500 C   0  0  0  0  0  0  0  0  0  0  0  0
   11.6321   -0.2661   21.5539 Br  0  0  0  0  0  0  0  0  0  0  0  0
   11.9202    2.6180   22.4496 H   0  0  0  0  0  0  0  0  0  0  0  0
    9.9351    4.7418   22.8811 N   0  0  0  0  0  0  0  0  0  0  0  0
    8.6944    5.3124   22.9894 N   0  0  0  0  0  0  0  0  0  0  0  0
    7.8545    4.3503   22.6530 C   0  0  0  0  0  0  0  0  0  0  0  0
    6.7716    4.4295   22.6412 H   0  0  0  0  0  0  0  0  0  0  0  0
   10.8019    5.2740   22.9831 H   0  0  0  0  0  0  0  0  0  0  0  0
    9.1770   -0.8907   20.9097 H   0  0  0  0  0  0  0  0  0  0  0  0
    6.4436    0.1566   20.0782 C   0  0  0  0  0  0  0  0  0  0  0  0
    5.2208    0.8274   20.1624 C   0  0  0  0  0  0  0  0  0  0  0  0
    4.7236    1.3970   18.9917 C   0  0  0  0  0  0  0  0  0  0  0  0
    5.4513    1.3067   17.8001 C   0  0  0  0  0  0  0  0  0  0  0  0
    6.6353    0.6746   17.7281 N   0  0  0  0  0  0  0  0  0  0  0  0
    7.1143    0.1177   18.8511 C   0  0  0  0  0  0  0  0  0  0  0  0
    8.0717   -0.3928   18.8085 H   0  0  0  0  0  0  0  0  0  0  0  0
    5.0417    1.7486   16.8967 H   0  0  0  0  0  0  0  0  0  0  0  0
    3.7796    1.9261   18.9914 H   0  0  0  0  0  0  0  0  0  0  0  0
    4.6821    0.9167   21.1049 H   0  0  0  0  0  0  0  0  0  0  0  0
    6.6471   -0.1501   22.2000 H   0  0  0  0  0  0  0  0  0  0  0  0
    7.6561   -2.4579   21.9430 H   0  0  0  0  0  0  0  0  0  0  0  0
    5.9872   -2.3654   21.3339 H   0  0  0  0  0  0  0  0  0  0  0  0
    7.3515   -2.3233   20.2010 H   0  0  0  0  0  0  0  0  0  0  0  0
  1  2  1  0
  2  3  1  0
  3  4  1  0
  4  5  2  0
  5  6  1  0
  6  7  2  0
  7  8  1  0
  8  9  2  0
  9 10  1  0
  8 11  1  0
  7 12  1  0
 12 13  1  0
 13 14  2  0
 14 15  1  0
 12 16  1  0
  3 17  1  0
  2 18  1  0
 18 19  2  0
 19 20  1  0
 20 21  2  0
 21 22  1  0
 22 23  2  0
 23 24  1  0
 21 25  1  0
 20 26  1  0
 19 27  1  0
  2 28  1  0
  1 29  1  0
  1 30  1  0
  1 31  1  0
  9  4  1  0
 23 18  1  0
 14  6  1  0
M  END
>  <cnnaffinity>  (1) 
5.64411

>  <plip>  (1) 
-0.06896551724137931

>  <filename>  (1) 
[H][c]1[n][c]([H])[c]([C]([H])([N]([H])[c]2[n][c]3[c]([H])[n][n]([H])[c]3[c]([H])[c]2[Br])[C]([H])([H])[H])[c]([H])[c]1[H]

>  <combo1>  (1) 
-0.4077895240161602

$$$$
