
     RDKit          3D

 34 36  0  0  0  0  0  0  0  0999 V2000
    7.6333   -3.2004   21.9565 O   0  0  0  0  0  0  0  0  0  0  0  0
    8.7737   -2.8632   22.2533 C   0  0  0  0  0  0  0  0  0  0  0  0
    9.4990   -3.4070   23.2970 N   0  0  0  0  0  0  0  0  0  0  0  0
    9.1055   -4.6030   23.8574 O   0  0  0  0  0  0  0  0  0  0  0  0
    7.9386   -4.5622   24.6070 C   0  0  0  0  0  0  0  0  0  0  0  0
    7.3972   -5.8303   24.7841 C   0  0  0  0  0  0  0  0  0  0  0  0
    6.1746   -5.9909   25.4312 C   0  0  0  0  0  0  0  0  0  0  0  0
    5.5039   -4.8640   25.9226 C   0  0  0  0  0  0  0  0  0  0  0  0
    6.0799   -3.5971   25.7955 C   0  0  0  0  0  0  0  0  0  0  0  0
    7.3142   -3.4327   25.1525 C   0  0  0  0  0  0  0  0  0  0  0  0
    7.7649   -2.4544   25.0693 H   0  0  0  0  0  0  0  0  0  0  0  0
    5.5548   -2.7257   26.1835 H   0  0  0  0  0  0  0  0  0  0  0  0
    4.5379   -4.9792   26.3960 H   0  0  0  0  0  0  0  0  0  0  0  0
    5.7362   -6.9809   25.5467 H   0  0  0  0  0  0  0  0  0  0  0  0
    7.9875   -6.6300   24.3606 H   0  0  0  0  0  0  0  0  0  0  0  0
   10.5000   -3.3815   23.1611 H   0  0  0  0  0  0  0  0  0  0  0  0
    9.4609   -1.6802   21.6626 C   0  0  0  0  0  0  0  0  0  0  0  0
    8.7084   -0.6487   21.1794 C   0  0  0  0  0  0  0  0  0  0  0  0
    7.3610   -0.6908   20.9501 N   0  0  0  0  0  0  0  0  0  0  0  0
    6.7083   -0.0324   19.8895 C   0  0  0  0  0  0  0  0  0  0  0  0
    5.4937    0.5954   20.1643 C   0  0  0  0  0  0  0  0  0  0  0  0
    4.8449    1.2745   19.1272 C   0  0  0  0  0  0  0  0  0  0  0  0
    5.4251    1.2824   17.8528 C   0  0  0  0  0  0  0  0  0  0  0  0
    6.5767    0.6520   17.5628 N   0  0  0  0  0  0  0  0  0  0  0  0
    7.2010    0.0167   18.5652 C   0  0  0  0  0  0  0  0  0  0  0  0
    8.1277   -0.5054   18.3252 H   0  0  0  0  0  0  0  0  0  0  0  0
    4.9495    1.8089   17.0289 H   0  0  0  0  0  0  0  0  0  0  0  0
    3.9150    1.8037   19.3030 H   0  0  0  0  0  0  0  0  0  0  0  0
    5.1098    0.5661   21.1846 H   0  0  0  0  0  0  0  0  0  0  0  0
    6.8833   -1.4877   21.3763 H   0  0  0  0  0  0  0  0  0  0  0  0
    9.7189    0.7278   20.8913 S   0  0  0  0  0  0  0  0  0  0  0  0
   11.0865   -0.2428   21.3664 C   0  0  0  0  0  0  0  0  0  0  0  0
   10.8264   -1.4422   21.7545 N   0  0  0  0  0  0  0  0  0  0  0  0
   12.0900    0.1619   21.3850 H   0  0  0  0  0  0  0  0  0  0  0  0
  1  2  2  0
  2  3  1  0
  3  4  1  0
  4  5  1  0
  5  6  2  0
  6  7  1  0
  7  8  2  0
  8  9  1  0
  9 10  2  0
 10 11  1  0
  9 12  1  0
  8 13  1  0
  7 14  1  0
  6 15  1  0
  3 16  1  0
  2 17  1  0
 17 18  2  0
 18 19  1  0
 19 20  1  0
 20 21  2  0
 21 22  1  0
 22 23  2  0
 23 24  1  0
 24 25  2  0
 25 26  1  0
 23 27  1  0
 22 28  1  0
 21 29  1  0
 19 30  1  0
 18 31  1  0
 31 32  1  0
 32 33  2  0
 32 34  1  0
 10  5  1  0
 33 17  1  0
 25 20  1  0
M  END
>  <cnnaffinity>  (1) 
5.61738

>  <plip>  (1) 
-0.1

>  <filename>  (1) 
[H][c]1[n][c]([C](=[O])[N]([H])[O][c]2[c]([H])[c]([H])[c]([H])[c]([H])[c]2[H])[c]([N]([H])[c]2[c]([H])[n][c]([H])[c]([H])[c]2[H])[s]1

>  <combo1>  (1) 
-0.5994672711090621

$$$$
