
     RDKit          3D

 29 31  0  0  0  0  0  0  0  0999 V2000
    6.5716   -1.3739   27.8051 F   0  0  0  0  0  0  0  0  0  0  0  0
    7.2271   -1.2394   26.6474 C   0  0  0  0  0  0  0  0  0  0  0  0
    6.7283   -0.2817   25.7126 C   0  0  0  0  0  0  0  0  0  0  0  0
    7.3009   -0.0812   24.5456 N   0  0  0  0  0  0  0  0  0  0  0  0
    8.4286   -0.8074   24.2473 C   0  0  0  0  0  0  0  0  0  0  0  0
    9.1315   -0.6258   23.0108 C   0  0  0  0  0  0  0  0  0  0  0  0
    8.5262    0.4855   21.7771 S   0  0  0  0  0  0  0  0  0  0  0  0
    7.3844   -0.7013   20.9764 C   0  0  0  0  0  0  0  0  0  0  0  0
    6.6435    0.0062   19.8871 C   0  0  0  0  0  0  0  0  0  0  0  0
    5.4341    0.6564   20.1492 C   0  0  0  0  0  0  0  0  0  0  0  0
    4.8003    1.3181   19.0966 C   0  0  0  0  0  0  0  0  0  0  0  0
    5.3946    1.2991   17.8302 C   0  0  0  0  0  0  0  0  0  0  0  0
    6.5578    0.6855   17.5621 N   0  0  0  0  0  0  0  0  0  0  0  0
    7.1625    0.0694   18.5842 C   0  0  0  0  0  0  0  0  0  0  0  0
    8.1115   -0.4160   18.3563 H   0  0  0  0  0  0  0  0  0  0  0  0
    4.9160    1.7887   16.9873 H   0  0  0  0  0  0  0  0  0  0  0  0
    3.8693    1.8474   19.2514 H   0  0  0  0  0  0  0  0  0  0  0  0
    5.0061    0.6392   21.1576 H   0  0  0  0  0  0  0  0  0  0  0  0
    7.9847   -1.5346   20.5942 H   0  0  0  0  0  0  0  0  0  0  0  0
    6.7076   -1.0921   21.7470 H   0  0  0  0  0  0  0  0  0  0  0  0
   10.2221   -1.4310   22.7229 C   0  0  0  0  0  0  0  0  0  0  0  0
   10.6364   -2.4030   23.6575 C   0  0  0  0  0  0  0  0  0  0  0  0
   10.0522   -2.6011   24.8230 N   0  0  0  0  0  0  0  0  0  0  0  0
    8.9788   -1.8219   25.1268 C   0  0  0  0  0  0  0  0  0  0  0  0
    8.3297   -2.0110   26.3881 C   0  0  0  0  0  0  0  0  0  0  0  0
    8.7131   -2.7455   27.0895 H   0  0  0  0  0  0  0  0  0  0  0  0
   11.5108   -3.0139   23.4349 H   0  0  0  0  0  0  0  0  0  0  0  0
   10.7520   -1.3411   21.7786 H   0  0  0  0  0  0  0  0  0  0  0  0
    5.8497    0.3123   25.9623 H   0  0  0  0  0  0  0  0  0  0  0  0
  1  2  1  0
  2  3  2  0
  3  4  1  0
  4  5  2  0
  5  6  1  0
  6  7  1  0
  7  8  1  0
  8  9  1  0
  9 10  2  0
 10 11  1  0
 11 12  2  0
 12 13  1  0
 13 14  2  0
 14 15  1  0
 12 16  1  0
 11 17  1  0
 10 18  1  0
  8 19  1  0
  8 20  1  0
  6 21  2  0
 21 22  1  0
 22 23  2  0
 23 24  1  0
 24 25  2  0
 25 26  1  0
 22 27  1  0
 21 28  1  0
  3 29  1  0
 25  2  1  0
 24  5  1  0
 14  9  1  0
M  END
>  <cnnaffinity>  (1) 
5.24233

>  <plip>  (1) 
-0.03571428571428571

>  <filename>  (1) 
[H][c]1[n][c]([H])[c]([C]([H])([H])[S][c]2[c]([H])[c]([H])[n][c]3[c]([H])[c]([F])[c]([H])[n][c]23)[c]([H])[c]1[H]

>  <combo1>  (1) 
-0.23001876189072124

$$$$
