
     RDKit          3D

 38 41  0  0  0  0  0  0  0  0999 V2000
    4.9381    1.8379   16.9164 H   0  0  0  0  0  0  0  0  0  0  0  0
    5.4019    1.3217   17.7528 C   0  0  0  0  0  0  0  0  0  0  0  0
    6.5539    0.6861   17.4838 N   0  0  0  0  0  0  0  0  0  0  0  0
    7.1632    0.0713   18.4987 C   0  0  0  0  0  0  0  0  0  0  0  0
    8.0960   -0.4450   18.2674 H   0  0  0  0  0  0  0  0  0  0  0  0
    6.6654    0.0617   19.8094 C   0  0  0  0  0  0  0  0  0  0  0  0
    7.4871   -0.5666   20.8391 C   0  0  0  0  0  0  0  0  0  0  0  0
    8.7075   -0.9896   20.7395 N   0  0  0  0  0  0  0  0  0  0  0  0
    9.0584   -1.4692   21.9892 N   0  0  0  0  0  0  0  0  0  0  0  0
    8.0245   -1.3303   22.7511 C   0  0  0  0  0  0  0  0  0  0  0  0
    7.8468   -1.7930   24.1820 C   0  0  0  0  0  0  0  0  0  0  0  0
    6.9047   -2.8718   24.5489 N   0  0  0  0  0  0  0  0  0  0  0  0
    6.0530   -2.8137   23.9925 H   0  0  0  0  0  0  0  0  0  0  0  0
    7.2794   -4.4200   23.9979 S   0  0  0  0  0  0  0  0  0  0  0  0
    6.7951   -4.3769   22.6255 O   0  0  0  0  0  0  0  0  0  0  0  0
    8.6519   -4.7364   24.3271 O   0  0  0  0  0  0  0  0  0  0  0  0
    6.1272   -5.4293   24.9016 C   0  0  0  0  0  0  0  0  0  0  0  0
    5.3723   -6.3562   24.1579 C   0  0  0  0  0  0  0  0  0  0  0  0
    5.4080   -6.3614   23.0678 H   0  0  0  0  0  0  0  0  0  0  0  0
    4.5408   -7.2566   24.8181 C   0  0  0  0  0  0  0  0  0  0  0  0
    3.9575   -7.9628   24.2323 H   0  0  0  0  0  0  0  0  0  0  0  0
    4.4458   -7.2330   26.2133 C   0  0  0  0  0  0  0  0  0  0  0  0
    3.8237   -7.9579   26.7346 H   0  0  0  0  0  0  0  0  0  0  0  0
    5.1429   -6.2602   26.9377 C   0  0  0  0  0  0  0  0  0  0  0  0
    5.0107   -6.2160   28.0141 H   0  0  0  0  0  0  0  0  0  0  0  0
    5.9838   -5.3417   26.2973 C   0  0  0  0  0  0  0  0  0  0  0  0
    6.4805   -4.5750   26.8968 H   0  0  0  0  0  0  0  0  0  0  0  0
    9.0040   -1.7232   25.1251 C   0  0  0  0  0  0  0  0  0  0  0  0
    9.9621   -1.3887   24.7328 H   0  0  0  0  0  0  0  0  0  0  0  0
    9.0517   -2.5370   25.8459 H   0  0  0  0  0  0  0  0  0  0  0  0
    7.8735   -0.7483   25.2708 C   0  0  0  0  0  0  0  0  0  0  0  0
    8.0218    0.2950   25.0027 H   0  0  0  0  0  0  0  0  0  0  0  0
    7.1717   -0.9232   26.0837 H   0  0  0  0  0  0  0  0  0  0  0  0
    6.9874   -0.7392   22.0856 O   0  0  0  0  0  0  0  0  0  0  0  0
    5.4348    0.6834   20.0729 C   0  0  0  0  0  0  0  0  0  0  0  0
    4.9965    0.6605   21.0737 H   0  0  0  0  0  0  0  0  0  0  0  0
    4.7990    1.3338   19.0181 C   0  0  0  0  0  0  0  0  0  0  0  0
    3.8594    1.8569   19.1625 H   0  0  0  0  0  0  0  0  0  0  0  0
  1  2  1  0
  2  3  2  0
  3  4  1  0
  4  5  1  0
  4  6  2  0
  6  7  1  0
  7  8  2  0
  8  9  1  0
  9 10  2  0
 10 11  1  0
 11 12  1  0
 12 13  1  0
 12 14  1  0
 14 15  2  0
 14 16  2  0
 14 17  1  0
 17 18  2  0
 18 19  1  0
 18 20  1  0
 20 21  1  0
 20 22  2  0
 22 23  1  0
 22 24  1  0
 24 25  1  0
 24 26  2  0
 26 27  1  0
 11 28  1  0
 28 29  1  0
 28 30  1  0
 28 31  1  0
 31 32  1  0
 31 33  1  0
 10 34  1  0
  6 35  1  0
 35 36  1  0
 35 37  2  0
 37 38  1  0
 37  2  1  0
 34  7  1  0
 31 11  1  0
 26 17  1  0
M  END
>  <cnnaffinity>  (1) 
5.61985

>  <plip>  (1) 
-0.10714285714285714

>  <filename>  (1) 
[H][c]1[n][c]([H])[c](-[c]2[n][n][c]([C]3([N]([H])[S](=[O])(=[O])[c]4[c]([H])[c]([H])[c]([H])[c]([H])[c]4[H])[C]([H])([H])[C]3([H])[H])[o]2)[c]([H])[c]1[H]

>  <combo1>  (1) 
-0.586216860130348

$$$$
