
     RDKit          3D

 43 45  0  0  0  0  0  0  0  0999 V2000
    4.9285    1.8588   17.0334 H   0  0  0  0  0  0  0  0  0  0  0  0
    5.4414    1.3306   17.8340 C   0  0  0  0  0  0  0  0  0  0  0  0
    6.5983    0.7301   17.5109 N   0  0  0  0  0  0  0  0  0  0  0  0
    7.2485    0.0629   18.4785 C   0  0  0  0  0  0  0  0  0  0  0  0
    8.1922   -0.4050   18.1903 H   0  0  0  0  0  0  0  0  0  0  0  0
    6.7822   -0.0707   19.8082 C   0  0  0  0  0  0  0  0  0  0  0  0
    7.5120   -0.8336   20.7694 N   0  0  0  0  0  0  0  0  0  0  0  0
    6.7239   -1.5989   21.7413 C   0  0  0  0  0  0  0  0  0  0  0  0
    5.9838   -2.1892   21.1890 H   0  0  0  0  0  0  0  0  0  0  0  0
    6.1819   -0.9603   22.4551 H   0  0  0  0  0  0  0  0  0  0  0  0
    7.6237   -2.5412   22.5392 C   0  0  0  0  0  0  0  0  0  0  0  0
    8.0179   -3.3306   21.8784 H   0  0  0  0  0  0  0  0  0  0  0  0
    7.0514   -3.0178   23.3415 H   0  0  0  0  0  0  0  0  0  0  0  0
    8.6883   -1.8382   23.1642 O   0  0  0  0  0  0  0  0  0  0  0  0
    9.5118   -1.1989   22.1947 C   0  0  0  0  0  0  0  0  0  0  0  0
   10.0138   -1.9580   21.5747 H   0  0  0  0  0  0  0  0  0  0  0  0
   10.2851   -0.6655   22.7602 H   0  0  0  0  0  0  0  0  0  0  0  0
    8.7562   -0.2116   21.2797 C   0  0  2  0  0  0  0  0  0  0  0  0
    9.3970   -0.0549   20.3985 H   0  0  0  0  0  0  0  0  0  0  0  0
    8.5702    1.1841   21.9146 C   0  0  0  0  0  0  0  0  0  0  0  0
    9.5631    1.6510   21.9818 H   0  0  0  0  0  0  0  0  0  0  0  0
    7.9908    1.7950   21.2086 H   0  0  0  0  0  0  0  0  0  0  0  0
    7.9146    1.2103   23.2965 C   0  0  0  0  0  0  0  0  0  0  0  0
    6.9492    0.6848   23.2718 H   0  0  0  0  0  0  0  0  0  0  0  0
    8.5387    0.6520   24.0082 H   0  0  0  0  0  0  0  0  0  0  0  0
    7.6733    2.6398   23.8099 C   0  0  0  0  0  0  0  0  0  0  0  0
    7.3782    2.5692   24.8659 H   0  0  0  0  0  0  0  0  0  0  0  0
    8.6260    3.1922   23.8031 H   0  0  0  0  0  0  0  0  0  0  0  0
    6.6046    3.4032   23.0378 C   0  0  0  0  0  0  0  0  0  0  0  0
    6.9059    4.4979   22.2074 C   0  0  0  0  0  0  0  0  0  0  0  0
    7.9389    4.8070   22.0627 H   0  0  0  0  0  0  0  0  0  0  0  0
    5.8966    5.2131   21.5565 C   0  0  0  0  0  0  0  0  0  0  0  0
    6.1464    6.0519   20.9115 H   0  0  0  0  0  0  0  0  0  0  0  0
    4.5594    4.8429   21.7198 C   0  0  0  0  0  0  0  0  0  0  0  0
    3.7731    5.4079   21.2246 H   0  0  0  0  0  0  0  0  0  0  0  0
    4.2415    3.7410   22.5172 C   0  0  0  0  0  0  0  0  0  0  0  0
    3.2062    3.4491   22.6444 H   0  0  0  0  0  0  0  0  0  0  0  0
    5.2533    3.0127   23.1531 C   0  0  0  0  0  0  0  0  0  0  0  0
    4.9967    2.1450   23.7567 H   0  0  0  0  0  0  0  0  0  0  0  0
    5.5810    0.5933   20.1213 C   0  0  0  0  0  0  0  0  0  0  0  0
    5.2164    0.5767   21.1459 H   0  0  0  0  0  0  0  0  0  0  0  0
    4.8959    1.2923   19.1206 C   0  0  0  0  0  0  0  0  0  0  0  0
    3.9576    1.8000   19.3275 H   0  0  0  0  0  0  0  0  0  0  0  0
  1  2  1  0
  2  3  2  0
  3  4  1  0
  4  5  1  0
  4  6  2  0
  6  7  1  0
  7  8  1  0
  8  9  1  0
  8 10  1  0
  8 11  1  0
 11 12  1  0
 11 13  1  0
 11 14  1  0
 14 15  1  0
 15 16  1  0
 15 17  1  0
 15 18  1  0
 18 19  1  6
 18 20  1  0
 20 21  1  0
 20 22  1  0
 20 23  1  0
 23 24  1  0
 23 25  1  0
 23 26  1  0
 26 27  1  0
 26 28  1  0
 26 29  1  0
 29 30  2  0
 30 31  1  0
 30 32  1  0
 32 33  1  0
 32 34  2  0
 34 35  1  0
 34 36  1  0
 36 37  1  0
 36 38  2  0
 38 39  1  0
  6 40  1  0
 40 41  1  0
 40 42  2  0
 42 43  1  0
 42  2  1  0
 18  7  1  0
 38 29  1  0
M  END
>  <cnnaffinity>  (1) 
4.85554

>  <plip>  (1) 
-0.03571428571428571

>  <filename>  (1) 
[H][c]1[n][c]([H])[c]([N]2[C]([H])([H])[C]([H])([H])[O][C]([H])([H])[C@]2([H])[C]([H])([H])[C]([H])([H])[C]([H])([H])[c]2[c]([H])[c]([H])[c]([H])[c]([H])[c]2[H])[c]([H])[c]1[H]

>  <combo1>  (1) 
-0.20469797695732314

$$$$
