
     RDKit          3D

 42 44  0  0  0  0  0  0  0  0999 V2000
    6.6886   -1.9884   21.1504 C   0  0  0  0  0  0  0  0  0  0  0  0
    7.2673   -0.5910   20.8502 C   0  0  0  0  0  0  0  0  0  0  0  0
    7.1954    0.3310   22.1080 C   0  0  0  0  0  0  0  0  0  0  0  0
    6.3723    0.2077   22.9982 O   0  0  0  0  0  0  0  0  0  0  0  0
    8.1201    1.3310   22.1380 N   0  0  0  0  0  0  0  0  0  0  0  0
    8.2072    2.3210   23.2042 C   0  0  0  0  0  0  0  0  0  0  0  0
    8.8041    1.7852   24.5203 C   0  0  0  0  0  0  0  0  0  0  0  0
   10.0327    0.9011   24.3119 C   0  0  0  0  0  0  0  0  0  0  0  0
   10.5272    0.0940   25.5285 C   0  0  0  0  0  0  0  0  0  0  0  0
    9.9107   -0.3787   26.4554 O   0  0  0  0  0  0  0  0  0  0  0  0
   11.8705   -0.0879   25.3265 N   0  0  0  0  0  0  0  0  0  0  0  0
   12.3791    0.7491   24.3387 C   0  0  0  0  0  0  0  0  0  0  0  0
   13.6966    0.8718   23.9151 C   0  0  0  0  0  0  0  0  0  0  0  0
   13.9799    1.8456   22.9529 C   0  0  0  0  0  0  0  0  0  0  0  0
   12.9620    2.6679   22.4378 C   0  0  0  0  0  0  0  0  0  0  0  0
   11.6335    2.4827   22.8343 C   0  0  0  0  0  0  0  0  0  0  0  0
   11.3282    1.4886   23.7673 C   0  0  0  0  0  0  0  0  0  0  0  0
   10.8654    3.1257   22.4119 H   0  0  0  0  0  0  0  0  0  0  0  0
   13.1991    3.4384   21.7060 H   0  0  0  0  0  0  0  0  0  0  0  0
   14.9992    1.9623   22.5876 H   0  0  0  0  0  0  0  0  0  0  0  0
   14.4751    0.2412   24.3410 H   0  0  0  0  0  0  0  0  0  0  0  0
   12.3837   -0.6234   26.0008 H   0  0  0  0  0  0  0  0  0  0  0  0
    9.7332    0.0974   23.6153 H   0  0  0  0  0  0  0  0  0  0  0  0
    9.0402    2.6376   25.1672 H   0  0  0  0  0  0  0  0  0  0  0  0
    8.0363    1.2023   25.0358 H   0  0  0  0  0  0  0  0  0  0  0  0
    8.8015    3.1642   22.8356 H   0  0  0  0  0  0  0  0  0  0  0  0
    7.1998    2.7002   23.4068 H   0  0  0  0  0  0  0  0  0  0  0  0
    8.7567    1.3837   21.3671 H   0  0  0  0  0  0  0  0  0  0  0  0
    6.5797    0.0420   19.6230 C   0  0  0  0  0  0  0  0  0  0  0  0
    5.3741    0.7423   19.7683 C   0  0  0  0  0  0  0  0  0  0  0  0
    4.7881    1.3380   18.6488 C   0  0  0  0  0  0  0  0  0  0  0  0
    5.4128    1.2002   17.4074 C   0  0  0  0  0  0  0  0  0  0  0  0
    6.5304    0.4820   17.2253 N   0  0  0  0  0  0  0  0  0  0  0  0
    7.0816   -0.0876   18.3073 C   0  0  0  0  0  0  0  0  0  0  0  0
    7.9822   -0.6706   18.1080 H   0  0  0  0  0  0  0  0  0  0  0  0
    5.0022    1.6875   16.5241 H   0  0  0  0  0  0  0  0  0  0  0  0
    3.8805    1.9239   18.7296 H   0  0  0  0  0  0  0  0  0  0  0  0
    4.9151    0.8295   20.7561 H   0  0  0  0  0  0  0  0  0  0  0  0
    8.3379   -0.7044   20.6212 H   0  0  0  0  0  0  0  0  0  0  0  0
    6.7730   -2.6390   20.2730 H   0  0  0  0  0  0  0  0  0  0  0  0
    7.2153   -2.4693   21.9817 H   0  0  0  0  0  0  0  0  0  0  0  0
    5.6308   -1.9070   21.4250 H   0  0  0  0  0  0  0  0  0  0  0  0
  1  2  1  0
  2  3  1  0
  3  4  2  0
  3  5  1  0
  5  6  1  0
  6  7  1  0
  7  8  1  0
  8  9  1  0
  9 10  2  0
  9 11  1  0
 11 12  1  0
 12 13  2  0
 13 14  1  0
 14 15  2  0
 15 16  1  0
 16 17  2  0
 16 18  1  0
 15 19  1  0
 14 20  1  0
 13 21  1  0
 11 22  1  0
  8 23  1  0
  7 24  1  0
  7 25  1  0
  6 26  1  0
  6 27  1  0
  5 28  1  0
  2 29  1  0
 29 30  2  0
 30 31  1  0
 31 32  2  0
 32 33  1  0
 33 34  2  0
 34 35  1  0
 32 36  1  0
 31 37  1  0
 30 38  1  0
  2 39  1  0
  1 40  1  0
  1 41  1  0
  1 42  1  0
 17  8  1  0
 34 29  1  0
 17 12  1  0
M  END
>  <cnnaffinity>  (1) 
5.32368

>  <plip>  (1) 
-0.10714285714285714

>  <filename>  (1) 
[H][c]1[n][c]([H])[c]([C]([H])([C](=[O])[N]([H])[C]([H])([H])[C]([H])([H])[C]2([H])[C](=[O])[N]([H])[c]3[c]([H])[c]([H])[c]([H])[c]([H])[c]32)[C]([H])([H])[H])[c]([H])[c]1[H]

>  <combo1>  (1) 
-0.6145781528576832

$$$$
