
     RDKit          3D

 36 38  0  0  0  0  0  0  0  0999 V2000
    5.1123    1.7408   16.9111 H   0  0  0  0  0  0  0  0  0  0  0  0
    5.5455    1.2268   17.7686 C   0  0  0  0  0  0  0  0  0  0  0  0
    6.7294    0.6165   17.5659 N   0  0  0  0  0  0  0  0  0  0  0  0
    7.2930    0.0017   18.6165 C   0  0  0  0  0  0  0  0  0  0  0  0
    8.2456   -0.4935   18.4373 H   0  0  0  0  0  0  0  0  0  0  0  0
    6.7487   -0.0347   19.9246 C   0  0  0  0  0  0  0  0  0  0  0  0
    7.4417   -0.6765   20.9752 N   0  0  0  0  0  0  0  0  0  0  0  0
    7.6143   -0.1159   22.1208 C   0  0  0  0  0  0  0  0  0  0  0  0
    8.1281   -0.8536   23.1656 N   0  0  0  0  0  0  0  0  0  0  0  0
    8.9425   -2.0296   22.8378 C   0  0  0  0  0  0  0  0  0  0  0  0
    9.8285   -1.7194   22.2608 H   0  0  0  0  0  0  0  0  0  0  0  0
    8.3566   -2.6658   22.1579 H   0  0  0  0  0  0  0  0  0  0  0  0
    9.4052   -2.8482   24.0338 C   0  0  0  0  0  0  0  0  0  0  0  0
   10.4933   -3.7141   23.8789 C   0  0  0  0  0  0  0  0  0  0  0  0
   11.0444   -3.6573   22.9439 H   0  0  0  0  0  0  0  0  0  0  0  0
   10.8480   -4.6050   24.8969 C   0  0  0  0  0  0  0  0  0  0  0  0
   11.6607   -5.3200   24.7690 H   0  0  0  0  0  0  0  0  0  0  0  0
   10.1236   -4.5958   26.0931 C   0  0  0  0  0  0  0  0  0  0  0  0
   10.3845   -5.2954   26.8826 H   0  0  0  0  0  0  0  0  0  0  0  0
    9.0675   -3.6940   26.2809 C   0  0  0  0  0  0  0  0  0  0  0  0
    8.4967   -3.6770   27.2092 H   0  0  0  0  0  0  0  0  0  0  0  0
    8.7128   -2.8063   25.2551 C   0  0  0  0  0  0  0  0  0  0  0  0
    7.5858   -1.8029   25.3871 C   0  0  0  0  0  0  0  0  0  0  0  0
    7.4337   -1.5178   26.4293 H   0  0  0  0  0  0  0  0  0  0  0  0
    6.6491   -2.2698   25.0625 H   0  0  0  0  0  0  0  0  0  0  0  0
    7.8734   -0.5378   24.5715 C   0  0  0  0  0  0  0  0  0  0  0  0
    8.7461   -0.0343   25.0144 H   0  0  0  0  0  0  0  0  0  0  0  0
    7.0351    0.1622   24.6465 H   0  0  0  0  0  0  0  0  0  0  0  0
    7.3127    1.3347   22.4278 C   0  0  0  0  0  0  0  0  0  0  0  0
    7.2916    1.9340   21.5173 H   0  0  0  0  0  0  0  0  0  0  0  0
    6.3299    1.3972   22.8996 H   0  0  0  0  0  0  0  0  0  0  0  0
    8.0586    1.7486   23.1045 H   0  0  0  0  0  0  0  0  0  0  0  0
    5.4759    0.5427   20.0819 C   0  0  0  0  0  0  0  0  0  0  0  0
    4.9857    0.4888   21.0515 H   0  0  0  0  0  0  0  0  0  0  0  0
    4.8816    1.2014   18.9952 C   0  0  0  0  0  0  0  0  0  0  0  0
    3.9294    1.7093   19.1064 H   0  0  0  0  0  0  0  0  0  0  0  0
  1  2  1  0
  2  3  2  0
  3  4  1  0
  4  5  1  0
  4  6  2  0
  6  7  1  0
  7  8  2  3
  8  9  1  0
  9 10  1  0
 10 11  1  0
 10 12  1  0
 10 13  1  0
 13 14  2  0
 14 15  1  0
 14 16  1  0
 16 17  1  0
 16 18  2  0
 18 19  1  0
 18 20  1  0
 20 21  1  0
 20 22  2  0
 22 23  1  0
 23 24  1  0
 23 25  1  0
 23 26  1  0
 26 27  1  0
 26 28  1  0
  8 29  1  0
 29 30  1  0
 29 31  1  0
 29 32  1  0
  6 33  1  0
 33 34  1  0
 33 35  2  0
 35 36  1  0
 35  2  1  0
 26  9  1  0
 22 13  1  0
M  END
>  <cnnaffinity>  (1) 
4.92388

>  <plip>  (1) 
-0.03571428571428571

>  <filename>  (1) 
[H][c]1[n][c]([H])[c]([N]=[C]([N]2[C]([H])([H])[c]3[c]([H])[c]([H])[c]([H])[c]([H])[c]3[C]([H])([H])[C]2([H])[H])[C]([H])([H])[H])[c]([H])[c]1[H]

>  <combo1>  (1) 
-0.23322691030473125

$$$$
