
     RDKit          3D

 35 37  0  0  0  0  0  0  0  0999 V2000
    5.0146    1.8507   16.9028 H   0  0  0  0  0  0  0  0  0  0  0  0
    5.4383    1.3358   17.7644 C   0  0  0  0  0  0  0  0  0  0  0  0
    6.5977    0.6952   17.5609 N   0  0  0  0  0  0  0  0  0  0  0  0
    7.1248    0.0263   18.5940 C   0  0  0  0  0  0  0  0  0  0  0  0
    8.0732   -0.4780   18.4053 H   0  0  0  0  0  0  0  0  0  0  0  0
    6.5434   -0.0330   19.8828 C   0  0  0  0  0  0  0  0  0  0  0  0
    7.1968   -0.7324   21.0156 C   0  0  0  0  0  0  0  0  0  0  0  0
    7.8532   -0.1640   22.0552 C   0  0  0  0  0  0  0  0  0  0  0  0
    7.8865    1.2715   22.5360 C   0  0  1  0  0  0  0  0  0  0  0  0
    7.2347    1.8532   21.8705 H   0  0  0  0  0  0  0  0  0  0  0  0
    7.2967    1.4020   23.9537 C   0  0  0  0  0  0  0  0  0  0  0  0
    8.0247    1.0954   25.1168 C   0  0  0  0  0  0  0  0  0  0  0  0
    9.0597    0.7576   25.0487 H   0  0  0  0  0  0  0  0  0  0  0  0
    7.4343    1.1974   26.3823 C   0  0  0  0  0  0  0  0  0  0  0  0
    8.0120    0.9453   27.2684 H   0  0  0  0  0  0  0  0  0  0  0  0
    6.1024    1.6065   26.5052 C   0  0  0  0  0  0  0  0  0  0  0  0
    5.6440    1.6910   27.4868 H   0  0  0  0  0  0  0  0  0  0  0  0
    5.3662    1.9182   25.3573 C   0  0  0  0  0  0  0  0  0  0  0  0
    4.3328    2.2455   25.4376 H   0  0  0  0  0  0  0  0  0  0  0  0
    5.9624    1.8106   24.0991 C   0  0  0  0  0  0  0  0  0  0  0  0
    5.3858    2.0520   23.2059 H   0  0  0  0  0  0  0  0  0  0  0  0
    9.2809    1.9114   22.4409 C   0  0  0  0  0  0  0  0  0  0  0  0
    9.6308    1.9192   21.4045 H   0  0  0  0  0  0  0  0  0  0  0  0
   10.0267    1.3974   23.0535 H   0  0  0  0  0  0  0  0  0  0  0  0
    9.2280    2.9479   22.7866 H   0  0  0  0  0  0  0  0  0  0  0  0
    8.5126   -1.2553   22.8451 C   0  0  0  0  0  0  0  0  0  0  0  0
    8.2210   -1.2627   23.9069 H   0  0  0  0  0  0  0  0  0  0  0  0
    9.6110   -1.1913   22.8090 H   0  0  0  0  0  0  0  0  0  0  0  0
    8.0917   -2.4635   22.2394 O   0  0  0  0  0  0  0  0  0  0  0  0
    7.2279   -2.2129   21.2133 C   0  0  0  0  0  0  0  0  0  0  0  0
    6.6375   -3.0952   20.6481 O   0  0  0  0  0  0  0  0  0  0  0  0
    5.3332    0.6444   20.0628 C   0  0  0  0  0  0  0  0  0  0  0  0
    4.8511    0.6318   21.0437 H   0  0  0  0  0  0  0  0  0  0  0  0
    4.7678    1.3365   18.9915 C   0  0  0  0  0  0  0  0  0  0  0  0
    3.8329    1.8723   19.0919 H   0  0  0  0  0  0  0  0  0  0  0  0
  1  2  1  0
  2  3  2  0
  3  4  1  0
  4  5  1  0
  4  6  2  0
  6  7  1  0
  7  8  2  0
  8  9  1  0
  9 10  1  6
  9 11  1  0
 11 12  2  0
 12 13  1  0
 12 14  1  0
 14 15  1  0
 14 16  2  0
 16 17  1  0
 16 18  1  0
 18 19  1  0
 18 20  2  0
 20 21  1  0
  9 22  1  0
 22 23  1  0
 22 24  1  0
 22 25  1  0
  8 26  1  0
 26 27  1  0
 26 28  1  0
 26 29  1  0
 29 30  1  0
 30 31  2  0
  6 32  1  0
 32 33  1  0
 32 34  2  0
 34 35  1  0
 34  2  1  0
 30  7  1  0
 20 11  1  0
M  END
>  <cnnaffinity>  (1) 
4.89738

>  <plip>  (1) 
-0.07142857142857142

>  <filename>  (1) 
[H][c]1[n][c]([H])[c]([C]2=[C]([C@@]([H])([c]3[c]([H])[c]([H])[c]([H])[c]([H])[c]3[H])[C]([H])([H])[H])[C]([H])([H])[O][C]2=[O])[c]([H])[c]1[H]

>  <combo1>  (1) 
-0.43949872495132414

$$$$
