
     RDKit          3D

 37 39  0  0  0  0  0  0  0  0999 V2000
    6.5918   -4.9143   28.4225 Cl  0  0  0  0  0  0  0  0  0  0  0  0
    7.4172   -4.5447   26.9354 C   0  0  0  0  0  0  0  0  0  0  0  0
    8.6679   -5.1251   26.7066 C   0  0  0  0  0  0  0  0  0  0  0  0
    9.3120   -4.8462   25.5020 C   0  0  0  0  0  0  0  0  0  0  0  0
    8.7149   -4.0350   24.5286 C   0  0  0  0  0  0  0  0  0  0  0  0
    9.3823   -3.9238   23.1799 C   0  0  0  0  0  0  0  0  0  0  0  0
    8.8767   -2.7817   22.3204 C   0  0  0  0  0  0  0  0  0  0  0  0
    7.3642   -2.8311   22.3224 N   0  0  0  0  0  4  0  0  0  0  0  0
    6.7282   -2.1326   21.1405 C   0  0  0  0  0  0  0  0  0  0  0  0
    7.2405   -0.6968   20.8909 C   0  0  0  0  0  0  0  0  0  0  0  0
    6.5648    0.0573   19.7603 C   0  0  0  0  0  0  0  0  0  0  0  0
    5.3646    0.7515   19.9783 C   0  0  0  0  0  0  0  0  0  0  0  0
    4.7560    1.4291   18.9179 C   0  0  0  0  0  0  0  0  0  0  0  0
    5.3795    1.4114   17.6676 C   0  0  0  0  0  0  0  0  0  0  0  0
    6.5372    0.7754   17.4328 N   0  0  0  0  0  0  0  0  0  0  0  0
    7.1095    0.1369   18.4638 C   0  0  0  0  0  0  0  0  0  0  0  0
    8.0704   -0.3324   18.2463 H   0  0  0  0  0  0  0  0  0  0  0  0
    4.9450    1.9388   16.8189 H   0  0  0  0  0  0  0  0  0  0  0  0
    3.8362    1.9869   19.0560 H   0  0  0  0  0  0  0  0  0  0  0  0
    4.9406    0.7921   20.9833 H   0  0  0  0  0  0  0  0  0  0  0  0
    7.1155   -0.1466   21.8323 H   0  0  0  0  0  0  0  0  0  0  0  0
    8.3198   -0.7511   20.7059 H   0  0  0  0  0  0  0  0  0  0  0  0
    5.6433   -2.1200   21.2727 H   0  0  0  0  0  0  0  0  0  0  0  0
    6.9263   -2.7317   20.2431 H   0  0  0  0  0  0  0  0  0  0  0  0
    6.8441   -2.5036   23.7365 C   0  0  0  0  0  0  0  0  0  0  0  0
    7.4686   -3.4302   24.7762 C   0  0  0  0  0  0  0  0  0  0  0  0
    6.8256   -3.6875   26.0016 C   0  0  0  0  0  0  0  0  0  0  0  0
    5.8642   -3.2376   26.2340 H   0  0  0  0  0  0  0  0  0  0  0  0
    5.7546   -2.5861   23.7534 H   0  0  0  0  0  0  0  0  0  0  0  0
    7.0772   -1.4577   23.9608 H   0  0  0  0  0  0  0  0  0  0  0  0
    7.1454   -3.8487   22.2609 H   0  0  0  0  0  0  0  0  0  0  0  0
    9.2131   -1.8146   22.7149 H   0  0  0  0  0  0  0  0  0  0  0  0
    9.2440   -2.8770   21.2934 H   0  0  0  0  0  0  0  0  0  0  0  0
   10.4618   -3.8221   23.3035 H   0  0  0  0  0  0  0  0  0  0  0  0
    9.1839   -4.8727   22.6612 H   0  0  0  0  0  0  0  0  0  0  0  0
   10.2960   -5.2653   25.2943 H   0  0  0  0  0  0  0  0  0  0  0  0
    9.0994   -5.7959   27.4461 H   0  0  0  0  0  0  0  0  0  0  0  0
  1  2  1  0
  2  3  2  0
  3  4  1  0
  4  5  2  0
  5  6  1  0
  6  7  1  0
  7  8  1  0
  8  9  1  0
  9 10  1  0
 10 11  1  0
 11 12  2  0
 12 13  1  0
 13 14  2  0
 14 15  1  0
 15 16  2  0
 16 17  1  0
 14 18  1  0
 13 19  1  0
 12 20  1  0
 10 21  1  0
 10 22  1  0
  9 23  1  0
  9 24  1  0
  8 25  1  0
 25 26  1  0
 26 27  2  0
 27 28  1  0
 25 29  1  0
 25 30  1  0
  8 31  1  0
  7 32  1  0
  7 33  1  0
  6 34  1  0
  6 35  1  0
  4 36  1  0
  3 37  1  0
 27  2  1  0
 26  5  1  0
 16 11  1  0
M  CHG  1   8   1
M  END
>  <cnnaffinity>  (1) 
4.4372

>  <plip>  (1) 
-0.034482758620689655

>  <filename>  (1) 
[H][c]1[n][c]([H])[c]([C]([H])([H])[C]([H])([H])[N+]2([H])[C]([H])([H])[c]3[c]([H])[c]([Cl])[c]([H])[c]([H])[c]3[C]([H])([H])[C]2([H])[H])[c]([H])[c]1[H]

>  <combo1>  (1) 
-0.1862845892996188

$$$$
