
     RDKit          3D

 38 40  0  0  0  0  0  0  0  0999 V2000
    5.6528   -5.7696   25.3891 C   0  0  0  0  0  0  0  0  0  0  0  0
    7.0674   -5.4832   24.9932 C   0  0  0  0  0  0  0  0  0  0  0  0
    7.6155   -4.6747   24.0211 C   0  0  0  0  0  0  0  0  0  0  0  0
    6.7654   -3.8392   23.0671 C   0  0  0  0  0  0  0  0  0  0  0  0
    5.6320   -4.2052   22.7556 O   0  0  0  0  0  0  0  0  0  0  0  0
    7.2763   -2.6622   22.5396 N   0  0  0  0  0  0  0  0  0  0  0  0
    8.5467   -2.0282   22.9562 C   0  0  0  0  0  0  0  0  0  0  0  0
    8.4224   -0.4891   23.1048 C   0  0  0  0  0  0  0  0  0  0  0  0
    7.8081    0.1655   21.8977 N   0  0  0  0  0  4  0  0  0  0  0  0
    7.3024   -0.8240   20.8285 C   0  0  0  0  0  0  0  0  0  0  0  0
    6.5989    0.0255   19.8074 C   0  0  0  0  0  0  0  0  0  0  0  0
    5.3742    0.6765   20.0179 C   0  0  0  0  0  0  0  0  0  0  0  0
    4.8234    1.4195   18.9701 C   0  0  0  0  0  0  0  0  0  0  0  0
    5.5141    1.5050   17.7582 C   0  0  0  0  0  0  0  0  0  0  0  0
    6.6940    0.9077   17.5462 N   0  0  0  0  0  0  0  0  0  0  0  0
    7.2147    0.2090   18.5601 C   0  0  0  0  0  0  0  0  0  0  0  0
    8.1879   -0.2431   18.3707 H   0  0  0  0  0  0  0  0  0  0  0  0
    5.0985    2.0646   16.9198 H   0  0  0  0  0  0  0  0  0  0  0  0
    3.8880    1.9516   19.0849 H   0  0  0  0  0  0  0  0  0  0  0  0
    4.8405    0.6097   20.9717 H   0  0  0  0  0  0  0  0  0  0  0  0
    6.5101   -1.9934   21.4511 C   0  0  0  0  0  0  0  0  0  0  0  0
    6.3142   -2.7140   20.6538 H   0  0  0  0  0  0  0  0  0  0  0  0
    5.5417   -1.6520   21.8286 H   0  0  0  0  0  0  0  0  0  0  0  0
    8.1940   -1.2726   20.3843 H   0  0  0  0  0  0  0  0  0  0  0  0
    6.9669    0.7404   22.1392 H   0  0  0  0  0  0  0  0  0  0  0  0
    8.4575    0.8057   21.3968 H   0  0  0  0  0  0  0  0  0  0  0  0
    7.8286   -0.2658   23.9978 H   0  0  0  0  0  0  0  0  0  0  0  0
    9.4329   -0.1030   23.2846 H   0  0  0  0  0  0  0  0  0  0  0  0
    8.8798   -2.4598   23.8962 H   0  0  0  0  0  0  0  0  0  0  0  0
    9.3240   -2.2535   22.2150 H   0  0  0  0  0  0  0  0  0  0  0  0
    9.0107   -4.7857   24.0531 N   0  0  0  0  0  0  0  0  0  0  0  0
    9.2750   -5.6313   25.0060 C   0  0  0  0  0  0  0  0  0  0  0  0
    8.1417   -6.0646   25.6153 N   0  0  0  0  0  0  0  0  0  0  0  0
    8.1083   -6.6597   26.4246 H   0  0  0  0  0  0  0  0  0  0  0  0
   10.2650   -5.9205   25.3398 H   0  0  0  0  0  0  0  0  0  0  0  0
    5.0709   -6.0106   24.4982 H   0  0  0  0  0  0  0  0  0  0  0  0
    5.5805   -6.5853   26.1188 H   0  0  0  0  0  0  0  0  0  0  0  0
    5.1759   -4.8871   25.8210 H   0  0  0  0  0  0  0  0  0  0  0  0
  1  2  1  0
  2  3  2  0
  3  4  1  0
  4  5  2  0
  4  6  1  0
  6  7  1  0
  7  8  1  0
  8  9  1  0
  9 10  1  0
 10 11  1  0
 11 12  2  0
 12 13  1  0
 13 14  2  0
 14 15  1  0
 15 16  2  0
 16 17  1  0
 14 18  1  0
 13 19  1  0
 12 20  1  0
 10 21  1  0
 21 22  1  0
 21 23  1  0
 10 24  1  0
  9 25  1  0
  9 26  1  0
  8 27  1  0
  8 28  1  0
  7 29  1  0
  7 30  1  0
  3 31  1  0
 31 32  2  0
 32 33  1  0
 33 34  1  0
 32 35  1  0
  1 36  1  0
  1 37  1  0
  1 38  1  0
 33  2  1  0
 21  6  1  0
 16 11  1  0
M  CHG  1   9   1
M  END
>  <cnnaffinity>  (1) 
4.93797

>  <plip>  (1) 
-0.17857142857142858

>  <filename>  (1) 
[H][c]1[n][c]([H])[c]([C]2([H])[C]([H])([H])[N]([C](=[O])[c]3[n][c]([H])[n]([H])[c]3[C]([H])([H])[H])[C]([H])([H])[C]([H])([H])[N+]2([H])[H])[c]([H])[c]1[H]

>  <combo1>  (1) 
-1.0792958070086722

$$$$
