
     RDKit          3D

 35 37  0  0  0  0  0  0  0  0999 V2000
    9.1921    1.0848   21.2429 C   0  0  0  0  0  0  0  0  0  0  0  0
    8.0277    0.3937   21.9504 C   0  0  0  0  0  0  0  0  0  0  0  0
    7.3004   -0.6539   21.0531 C   0  0  0  0  0  0  0  0  0  0  0  0
    6.5913   -0.0274   19.8602 C   0  0  0  0  0  0  0  0  0  0  0  0
    5.3854    0.6719   20.0401 C   0  0  0  0  0  0  0  0  0  0  0  0
    4.8126    1.3482   18.9610 C   0  0  0  0  0  0  0  0  0  0  0  0
    5.4565    1.3000   17.7212 C   0  0  0  0  0  0  0  0  0  0  0  0
    6.5875    0.6136   17.5080 N   0  0  0  0  0  0  0  0  0  0  0  0
    7.1249   -0.0300   18.5559 C   0  0  0  0  0  0  0  0  0  0  0  0
    8.0382   -0.5845   18.3361 H   0  0  0  0  0  0  0  0  0  0  0  0
    5.0465    1.8353   16.8649 H   0  0  0  0  0  0  0  0  0  0  0  0
    3.8970    1.9211   19.0700 H   0  0  0  0  0  0  0  0  0  0  0  0
    4.9059    0.6922   21.0216 H   0  0  0  0  0  0  0  0  0  0  0  0
    8.0309   -1.4103   20.7316 H   0  0  0  0  0  0  0  0  0  0  0  0
    6.5720   -1.1836   21.6840 H   0  0  0  0  0  0  0  0  0  0  0  0
    8.4235   -0.1174   23.2554 N   0  0  0  0  0  0  0  0  0  0  0  0
    9.2455   -1.1590   23.5311 C   0  0  0  0  0  0  0  0  0  0  0  0
   10.3143   -1.6107   22.7077 C   0  0  0  0  0  0  0  0  0  0  0  0
   10.9684   -2.7779   23.0550 C   0  0  0  0  0  0  0  0  0  0  0  0
   10.5807   -3.4774   24.2382 C   0  0  0  0  0  0  0  0  0  0  0  0
   11.1233   -4.6965   24.5845 N   0  0  0  0  0  0  0  0  0  0  0  0
   10.6524   -5.2317   25.6968 C   0  0  0  0  0  0  0  0  0  0  0  0
    9.7070   -4.5391   26.5383 C   0  0  0  0  0  0  0  0  0  0  0  0
    9.1749   -3.3803   26.2368 N   0  0  0  0  0  0  0  0  0  0  0  0
    9.5560   -2.8280   25.0392 C   0  0  0  0  0  0  0  0  0  0  0  0
    8.9047   -1.7082   24.6869 N   0  0  0  0  0  0  0  0  0  0  0  0
    9.4094   -4.9855   27.4851 H   0  0  0  0  0  0  0  0  0  0  0  0
   10.9835   -6.2295   25.9874 H   0  0  0  0  0  0  0  0  0  0  0  0
   11.7787   -3.1903   22.4632 H   0  0  0  0  0  0  0  0  0  0  0  0
   10.5863   -1.0275   21.8385 H   0  0  0  0  0  0  0  0  0  0  0  0
    7.7110   -0.2286   23.9636 H   0  0  0  0  0  0  0  0  0  0  0  0
    7.2970    1.1792   22.1887 H   0  0  0  0  0  0  0  0  0  0  0  0
    8.7732    1.7560   20.4901 H   0  0  0  0  0  0  0  0  0  0  0  0
    9.8575    0.3890   20.7216 H   0  0  0  0  0  0  0  0  0  0  0  0
    9.7908    1.6659   21.9516 H   0  0  0  0  0  0  0  0  0  0  0  0
  1  2  1  0
  2  3  1  0
  3  4  1  0
  4  5  2  0
  5  6  1  0
  6  7  2  0
  7  8  1  0
  8  9  2  0
  9 10  1  0
  7 11  1  0
  6 12  1  0
  5 13  1  0
  3 14  1  0
  3 15  1  0
  2 16  1  0
 16 17  1  0
 17 18  2  0
 18 19  1  0
 19 20  2  0
 20 21  1  0
 21 22  2  0
 22 23  1  0
 23 24  2  0
 24 25  1  0
 25 26  2  0
 23 27  1  0
 22 28  1  0
 19 29  1  0
 18 30  1  0
 16 31  1  0
  2 32  1  0
  1 33  1  0
  1 34  1  0
  1 35  1  0
  9  4  1  0
 26 17  1  0
 25 20  1  0
M  END
>  <cnnaffinity>  (1) 
5.40505

>  <plip>  (1) 
-0.10714285714285714

>  <filename>  (1) 
[H][c]1[n][c]2[n][c]([N]([H])[C]([H])([C]([H])([H])[H])[C]([H])([H])[c]3[c]([H])[n][c]([H])[c]([H])[c]3[H])[c]([H])[c]([H])[c]2[n][c]1[H]

>  <combo1>  (1) 
-0.7275648273782609

$$$$
