
     RDKit          3D

 41 43  0  0  0  0  0  0  0  0999 V2000
   10.3713   -2.0756   21.7180 C   0  0  0  0  0  0  0  0  0  0  0  0
    9.5109   -0.9907   22.3584 C   0  0  0  0  0  0  0  0  0  0  0  0
    8.7055   -0.2170   21.3215 N   0  0  0  0  0  4  0  0  0  0  0  0
    8.8727    1.3027   21.4778 C   0  0  0  0  0  0  0  0  0  0  0  0
    8.2677    1.9082   22.7351 C   0  0  0  0  0  0  0  0  0  0  0  0
    9.0277    2.1212   23.9094 C   0  0  0  0  0  0  0  0  0  0  0  0
    8.3348    2.5859   25.0034 C   0  0  0  0  0  0  0  0  0  0  0  0
    6.9619    2.8196   24.9535 C   0  0  0  0  0  0  0  0  0  0  0  0
    6.3005    2.6331   23.7493 C   0  0  0  0  0  0  0  0  0  0  0  0
    6.9651    2.2142   22.6503 N   0  0  0  0  0  0  0  0  0  0  0  0
    5.2316    2.7900   23.6529 H   0  0  0  0  0  0  0  0  0  0  0  0
    6.5120    3.2111   26.1874 O   0  0  0  0  0  0  0  0  0  0  0  0
    7.6735    3.2716   27.0223 C   0  0  0  0  0  0  0  0  0  0  0  0
    8.8018    2.8386   26.2533 O   0  0  0  0  0  0  0  0  0  0  0  0
    7.8251    4.3103   27.3362 H   0  0  0  0  0  0  0  0  0  0  0  0
    7.5443    2.5933   27.8718 H   0  0  0  0  0  0  0  0  0  0  0  0
   10.0884    1.8960   23.9592 H   0  0  0  0  0  0  0  0  0  0  0  0
    8.3496    1.7721   20.6455 H   0  0  0  0  0  0  0  0  0  0  0  0
    9.9343    1.5540   21.4016 H   0  0  0  0  0  0  0  0  0  0  0  0
    7.2028   -0.6044   21.1887 C   0  0  0  0  0  0  0  0  0  0  0  0
    7.1323   -2.1114   21.0477 C   0  0  0  0  0  0  0  0  0  0  0  0
    6.1743   -2.4627   20.6730 H   0  0  0  0  0  0  0  0  0  0  0  0
    7.9125   -2.4002   20.3483 H   0  0  0  0  0  0  0  0  0  0  0  0
    7.3382   -2.6012   21.9983 H   0  0  0  0  0  0  0  0  0  0  0  0
    6.5562    0.0996   20.0184 C   0  0  0  0  0  0  0  0  0  0  0  0
    5.3208    0.7647   20.1234 C   0  0  0  0  0  0  0  0  0  0  0  0
    4.7657    1.3558   18.9827 C   0  0  0  0  0  0  0  0  0  0  0  0
    5.4706    1.2775   17.7772 C   0  0  0  0  0  0  0  0  0  0  0  0
    6.6420    0.6380   17.6539 N   0  0  0  0  0  0  0  0  0  0  0  0
    7.1520    0.0649   18.7522 C   0  0  0  0  0  0  0  0  0  0  0  0
    8.1028   -0.4468   18.6063 H   0  0  0  0  0  0  0  0  0  0  0  0
    5.0746    1.7465   16.8765 H   0  0  0  0  0  0  0  0  0  0  0  0
    3.8148    1.8760   19.0123 H   0  0  0  0  0  0  0  0  0  0  0  0
    4.8115    0.8354   21.0856 H   0  0  0  0  0  0  0  0  0  0  0  0
    6.7041   -0.2881   22.1094 H   0  0  0  0  0  0  0  0  0  0  0  0
    9.1105   -0.4965   20.4080 H   0  0  0  0  0  0  0  0  0  0  0  0
   10.1585   -0.2943   22.8986 H   0  0  0  0  0  0  0  0  0  0  0  0
    8.8280   -1.4094   23.1062 H   0  0  0  0  0  0  0  0  0  0  0  0
   10.8844   -2.6678   22.4812 H   0  0  0  0  0  0  0  0  0  0  0  0
    9.7759   -2.7659   21.1173 H   0  0  0  0  0  0  0  0  0  0  0  0
   11.1322   -1.6302   21.0696 H   0  0  0  0  0  0  0  0  0  0  0  0
  1  2  1  0
  2  3  1  0
  3  4  1  0
  4  5  1  0
  5  6  2  0
  6  7  1  0
  7  8  2  0
  8  9  1  0
  9 10  2  0
  9 11  1  0
  8 12  1  0
 12 13  1  0
 13 14  1  0
 13 15  1  0
 13 16  1  0
  6 17  1  0
  4 18  1  0
  4 19  1  0
  3 20  1  0
 20 21  1  0
 21 22  1  0
 21 23  1  0
 21 24  1  0
 20 25  1  0
 25 26  2  0
 26 27  1  0
 27 28  2  0
 28 29  1  0
 29 30  2  0
 30 31  1  0
 28 32  1  0
 27 33  1  0
 26 34  1  0
 20 35  1  0
  3 36  1  0
  2 37  1  0
  2 38  1  0
  1 39  1  0
  1 40  1  0
  1 41  1  0
 10  5  1  0
 30 25  1  0
 14  7  1  0
M  CHG  1   3   1
M  END
>  <cnnaffinity>  (1) 
4.74166

>  <plip>  (1) 
-0.06896551724137931

>  <filename>  (1) 
[H][c]1[n][c]([H])[c]([C]([H])([C]([H])([H])[H])[N+]([H])([C]([H])([H])[c]2[n][c]([H])[c]3[c]([c]2[H])[O][C]([H])([H])[O]3)[C]([H])([H])[C]([H])([H])[H])[c]([H])[c]1[H]

>  <combo1>  (1) 
-0.3806592452058445

$$$$
