
     RDKit          3D

 52 53  0  0  0  0  0  0  0  0999 V2000
    6.6509    4.2523   21.5481 C   0  0  0  0  0  0  0  0  0  0  0  0
    8.1577    4.1731   21.8528 C   0  0  0  0  0  0  0  0  0  0  0  0
    8.4535    3.5167   23.1763 C   0  0  0  0  0  0  0  0  0  0  0  0
    8.5535    4.3287   24.3110 C   0  0  0  0  0  0  0  0  0  0  0  0
    8.6763    3.8037   25.5998 C   0  0  0  0  0  0  0  0  0  0  0  0
    8.7423    4.7248   26.7912 C   0  0  0  0  0  0  0  0  0  0  0  0
    8.2702    4.2703   27.6654 H   0  0  0  0  0  0  0  0  0  0  0  0
    9.7718    4.9867   27.0652 H   0  0  0  0  0  0  0  0  0  0  0  0
    8.2164    5.6653   26.6013 H   0  0  0  0  0  0  0  0  0  0  0  0
    8.7323    2.4074   25.7280 C   0  0  0  0  0  0  0  0  0  0  0  0
    8.6549    1.5756   24.6119 C   0  0  0  0  0  0  0  0  0  0  0  0
    8.5240    2.1154   23.3174 C   0  0  0  0  0  0  0  0  0  0  0  0
    8.5121    1.2299   22.0830 C   0  0  0  0  0  0  0  0  0  0  0  0
    9.1689    1.4453   21.0743 O   0  0  0  0  0  0  0  0  0  0  0  0
    7.6960    0.1320   22.1774 N   0  0  0  0  0  0  0  0  0  0  0  0
    7.4168   -0.6837   21.0019 C   0  0  0  0  0  0  0  0  0  0  0  0
    6.6909   -1.9678   21.3985 C   0  0  0  0  0  0  0  0  0  0  0  0
    7.5001   -2.8602   22.3313 C   0  0  0  0  0  0  0  0  0  0  0  0
    6.6838   -4.0206   22.8635 N   0  0  0  0  0  4  0  0  0  0  0  0
    7.3917   -4.6777   24.0000 C   0  0  0  0  0  0  0  0  0  0  0  0
    8.3542   -5.0678   23.6448 H   0  0  0  0  0  0  0  0  0  0  0  0
    7.5891   -3.9589   24.8011 H   0  0  0  0  0  0  0  0  0  0  0  0
    6.8046   -5.5076   24.4016 H   0  0  0  0  0  0  0  0  0  0  0  0
    6.3669   -5.0434   21.8101 C   0  0  0  0  0  0  0  0  0  0  0  0
    5.8848   -5.9141   22.2639 H   0  0  0  0  0  0  0  0  0  0  0  0
    5.7027   -4.6388   21.0443 H   0  0  0  0  0  0  0  0  0  0  0  0
    7.2970   -5.3744   21.3316 H   0  0  0  0  0  0  0  0  0  0  0  0
    5.7961   -3.5894   23.2075 H   0  0  0  0  0  0  0  0  0  0  0  0
    8.3835   -3.2595   21.8147 H   0  0  0  0  0  0  0  0  0  0  0  0
    7.8714   -2.2974   23.1930 H   0  0  0  0  0  0  0  0  0  0  0  0
    5.7345   -1.7097   21.8670 H   0  0  0  0  0  0  0  0  0  0  0  0
    6.4483   -2.5156   20.4823 H   0  0  0  0  0  0  0  0  0  0  0  0
    6.6605    0.0727   19.9236 C   0  0  0  0  0  0  0  0  0  0  0  0
    5.4319    0.7107   20.1457 C   0  0  0  0  0  0  0  0  0  0  0  0
    4.7954    1.3378   19.0750 C   0  0  0  0  0  0  0  0  0  0  0  0
    5.4039    1.3056   17.8160 C   0  0  0  0  0  0  0  0  0  0  0  0
    6.5642    0.6821   17.5744 N   0  0  0  0  0  0  0  0  0  0  0  0
    7.1691    0.0979   18.6182 C   0  0  0  0  0  0  0  0  0  0  0  0
    8.1180   -0.3933   18.3929 H   0  0  0  0  0  0  0  0  0  0  0  0
    4.9341    1.7951   16.9666 H   0  0  0  0  0  0  0  0  0  0  0  0
    3.8503    1.8516   19.2023 H   0  0  0  0  0  0  0  0  0  0  0  0
    4.9756    0.7257   21.1385 H   0  0  0  0  0  0  0  0  0  0  0  0
    8.3936   -0.9539   20.5833 H   0  0  0  0  0  0  0  0  0  0  0  0
    6.9749    0.2245   22.8722 H   0  0  0  0  0  0  0  0  0  0  0  0
    8.6965    0.4973   24.7478 H   0  0  0  0  0  0  0  0  0  0  0  0
    8.8246    1.9630   26.7150 H   0  0  0  0  0  0  0  0  0  0  0  0
    8.5386    5.4078   24.1736 H   0  0  0  0  0  0  0  0  0  0  0  0
    8.6492    3.6054   21.0628 H   0  0  0  0  0  0  0  0  0  0  0  0
    8.6054    5.1763   21.8589 H   0  0  0  0  0  0  0  0  0  0  0  0
    6.4794    4.9567   20.7270 H   0  0  0  0  0  0  0  0  0  0  0  0
    6.2326    3.2744   21.2660 H   0  0  0  0  0  0  0  0  0  0  0  0
    6.0737    4.6056   22.4080 H   0  0  0  0  0  0  0  0  0  0  0  0
  1  2  1  0
  2  3  1  0
  3  4  2  0
  4  5  1  0
  5  6  1  0
  6  7  1  0
  6  8  1  0
  6  9  1  0
  5 10  2  0
 10 11  1  0
 11 12  2  0
 12 13  1  0
 13 14  2  0
 13 15  1  0
 15 16  1  0
 16 17  1  0
 17 18  1  0
 18 19  1  0
 19 20  1  0
 20 21  1  0
 20 22  1  0
 20 23  1  0
 19 24  1  0
 24 25  1  0
 24 26  1  0
 24 27  1  0
 19 28  1  0
 18 29  1  0
 18 30  1  0
 17 31  1  0
 17 32  1  0
 16 33  1  0
 33 34  2  0
 34 35  1  0
 35 36  2  0
 36 37  1  0
 37 38  2  0
 38 39  1  0
 36 40  1  0
 35 41  1  0
 34 42  1  0
 16 43  1  0
 15 44  1  0
 11 45  1  0
 10 46  1  0
  4 47  1  0
  2 48  1  0
  2 49  1  0
  1 50  1  0
  1 51  1  0
  1 52  1  0
 12  3  1  0
 38 33  1  0
M  CHG  1  19   1
M  END
>  <cnnaffinity>  (1) 
5.22652

>  <plip>  (1) 
-0.13793103448275862

>  <filename>  (1) 
[H][c]1[n][c]([H])[c]([C]([H])([N]([H])[C](=[O])[c]2[c]([H])[c]([H])[c]([C]([H])([H])[H])[c]([H])[c]2[C]([H])([H])[C]([H])([H])[H])[C]([H])([H])[C]([H])([H])[N+]([H])([C]([H])([H])[H])[C]([H])([H])[H])[c]([H])[c]1[H]

>  <combo1>  (1) 
-0.7360682038906055

$$$$
