
     RDKit          3D

 37 39  0  0  0  0  0  0  0  0999 V2000
    4.9468    1.7930   16.9701 H   0  0  0  0  0  0  0  0  0  0  0  0
    5.4202    1.2822   17.8055 C   0  0  0  0  0  0  0  0  0  0  0  0
    6.5689    0.6479   17.5449 N   0  0  0  0  0  0  0  0  0  0  0  0
    7.1815    0.0386   18.5721 C   0  0  0  0  0  0  0  0  0  0  0  0
    8.1127   -0.4652   18.3188 H   0  0  0  0  0  0  0  0  0  0  0  0
    6.7081    0.0249   19.9012 C   0  0  0  0  0  0  0  0  0  0  0  0
    7.4224   -0.7139   21.0701 C   0  0  0  0  0  0  0  0  0  0  0  0
    7.6441    0.2912   22.2910 C   0  0  0  0  0  0  0  0  0  0  0  0
    8.4207    1.2092   22.1540 O   0  0  0  0  0  0  0  0  0  0  0  0
    6.9530    0.1245   23.6115 C   0  0  0  0  0  0  0  0  0  0  0  0
    5.8740    0.8887   24.0207 C   0  0  0  0  0  0  0  0  0  0  0  0
    5.4663    1.6598   23.3667 H   0  0  0  0  0  0  0  0  0  0  0  0
    5.3102    0.6935   25.3045 C   0  0  0  0  0  0  0  0  0  0  0  0
    4.4526    1.2958   25.5935 H   0  0  0  0  0  0  0  0  0  0  0  0
    5.8393   -0.2402   26.1732 C   0  0  0  0  0  0  0  0  0  0  0  0
    5.3903   -0.3819   27.1548 H   0  0  0  0  0  0  0  0  0  0  0  0
    6.9641   -1.0289   25.7903 C   0  0  0  0  0  0  0  0  0  0  0  0
    7.5843   -2.0069   26.6335 C   0  0  0  0  0  0  0  0  0  0  0  0
    7.1850   -2.1874   27.6317 H   0  0  0  0  0  0  0  0  0  0  0  0
    8.6756   -2.6943   26.1619 C   0  0  0  0  0  0  0  0  0  0  0  0
    9.1819   -3.4374   26.7670 H   0  0  0  0  0  0  0  0  0  0  0  0
    9.1581   -2.4297   24.8537 C   0  0  0  0  0  0  0  0  0  0  0  0
   10.0125   -2.9885   24.4779 H   0  0  0  0  0  0  0  0  0  0  0  0
    8.6247   -1.5421   24.0418 N   0  0  0  0  0  0  0  0  0  0  0  0
    7.5372   -0.8358   24.4839 C   0  0  0  0  0  0  0  0  0  0  0  0
    6.5638   -1.9420   21.4507 C   0  0  0  0  0  0  0  0  0  0  0  0
    5.5501   -1.6498   21.7347 H   0  0  0  0  0  0  0  0  0  0  0  0
    7.0064   -2.4969   22.2857 H   0  0  0  0  0  0  0  0  0  0  0  0
    6.4780   -2.6058   20.5828 H   0  0  0  0  0  0  0  0  0  0  0  0
    8.8542   -1.1812   20.7044 C   0  0  0  0  0  0  0  0  0  0  0  0
    8.8611   -1.8458   19.8457 H   0  0  0  0  0  0  0  0  0  0  0  0
    9.4841   -0.3201   20.4640 H   0  0  0  0  0  0  0  0  0  0  0  0
    9.3016   -1.7256   21.5452 H   0  0  0  0  0  0  0  0  0  0  0  0
    5.4742    0.6590   20.1289 C   0  0  0  0  0  0  0  0  0  0  0  0
    5.0271    0.6530   21.1269 H   0  0  0  0  0  0  0  0  0  0  0  0
    4.8308    1.3045   19.0721 C   0  0  0  0  0  0  0  0  0  0  0  0
    3.8906    1.8186   19.2147 H   0  0  0  0  0  0  0  0  0  0  0  0
  1  2  1  0
  2  3  2  0
  3  4  1  0
  4  5  1  0
  4  6  2  0
  6  7  1  0
  7  8  1  0
  8  9  2  0
  8 10  1  0
 10 11  2  0
 11 12  1  0
 11 13  1  0
 13 14  1  0
 13 15  2  0
 15 16  1  0
 15 17  1  0
 17 18  2  0
 18 19  1  0
 18 20  1  0
 20 21  1  0
 20 22  2  0
 22 23  1  0
 22 24  1  0
 24 25  2  0
  7 26  1  0
 26 27  1  0
 26 28  1  0
 26 29  1  0
  7 30  1  0
 30 31  1  0
 30 32  1  0
 30 33  1  0
  6 34  1  0
 34 35  1  0
 34 36  2  0
 36 37  1  0
 36  2  1  0
 25 10  1  0
 25 17  1  0
M  END
>  <cnnaffinity>  (1) 
4.91491

>  <plip>  (1) 
-0.07142857142857142

>  <filename>  (1) 
[H][c]1[n][c]([H])[c]([C]([C](=[O])[c]2[c]([H])[c]([H])[c]([H])[c]3[c]([H])[c]([H])[c]([H])[n][c]23)([C]([H])([H])[H])[C]([H])([H])[H])[c]([H])[c]1[H]

>  <combo1>  (1) 
-0.42347141252833165

$$$$
