
     RDKit          3D

 43 45  0  0  0  0  0  0  0  0999 V2000
    4.9331    1.7995   17.0012 H   0  0  0  0  0  0  0  0  0  0  0  0
    5.4106    1.2940   17.8368 C   0  0  0  0  0  0  0  0  0  0  0  0
    6.5773    0.6857   17.5731 N   0  0  0  0  0  0  0  0  0  0  0  0
    7.1937    0.0617   18.5876 C   0  0  0  0  0  0  0  0  0  0  0  0
    8.1501   -0.4026   18.3493 H   0  0  0  0  0  0  0  0  0  0  0  0
    6.6888   -0.0329   19.9183 C   0  0  0  0  0  0  0  0  0  0  0  0
    7.3462   -0.7421   20.9221 N   0  0  0  0  0  0  0  0  0  0  0  0
    6.6318   -1.4440   21.9805 C   0  0  0  0  0  0  0  0  0  0  0  0
    5.8016   -2.0291   21.5570 H   0  0  0  0  0  0  0  0  0  0  0  0
    6.1922   -0.7407   22.7064 H   0  0  0  0  0  0  0  0  0  0  0  0
    7.6983   -2.3334   22.6363 C   0  0  0  0  0  0  0  0  0  0  0  0
    7.5179   -2.4484   23.7106 H   0  0  0  0  0  0  0  0  0  0  0  0
    7.6845   -3.3337   22.1926 H   0  0  0  0  0  0  0  0  0  0  0  0
    9.0273   -1.6222   22.3432 C   0  0  0  0  0  0  0  0  0  0  0  0
    9.2973   -0.9599   23.1754 H   0  0  0  0  0  0  0  0  0  0  0  0
    9.8688   -2.3108   22.2072 H   0  0  0  0  0  0  0  0  0  0  0  0
    8.8009   -0.7846   21.0719 C   0  0  2  0  0  0  0  0  0  0  0  0
    9.2347   -1.3016   20.1977 H   0  0  0  0  0  0  0  0  0  0  0  0
    9.4876    0.6161   21.1226 C   0  0  0  0  0  0  0  0  0  0  0  0
    9.3276    1.0329   20.1210 H   0  0  0  0  0  0  0  0  0  0  0  0
    8.8766    1.6031   22.1668 C   0  0  0  0  0  0  0  0  0  0  0  0
    8.3086    2.3792   21.6398 H   0  0  0  0  0  0  0  0  0  0  0  0
    8.1698    1.0815   22.8243 H   0  0  0  0  0  0  0  0  0  0  0  0
    9.9311    2.2706   23.0625 C   0  0  0  0  0  0  0  0  0  0  0  0
    9.5069    3.0996   23.6317 H   0  0  0  0  0  0  0  0  0  0  0  0
   10.3310    1.5502   23.7954 H   0  0  0  0  0  0  0  0  0  0  0  0
   11.0455    2.7957   22.2570 N   0  0  0  0  0  0  0  0  0  0  0  0
   11.5504    4.0339   22.5628 C   0  0  0  0  0  0  0  0  0  0  0  0
   11.1835    4.6532   23.5511 O   0  0  0  0  0  0  0  0  0  0  0  0
   12.5981    4.6264   21.6433 C   0  0  0  0  0  0  0  0  0  0  0  0
   12.7771    5.6443   21.9893 H   0  0  0  0  0  0  0  0  0  0  0  0
   13.5297    4.0569   21.6933 H   0  0  0  0  0  0  0  0  0  0  0  0
   12.2705    4.6393   20.6014 H   0  0  0  0  0  0  0  0  0  0  0  0
   11.6632    1.9008   21.2683 C   0  0  0  0  0  0  0  0  0  0  0  0
   11.5490    2.3238   20.2587 H   0  0  0  0  0  0  0  0  0  0  0  0
   12.7390    1.8133   21.4687 H   0  0  0  0  0  0  0  0  0  0  0  0
   11.0131    0.5146   21.3401 C   0  0  0  0  0  0  0  0  0  0  0  0
   11.4916   -0.1974   20.6656 H   0  0  0  0  0  0  0  0  0  0  0  0
   11.2157    0.1115   22.3386 H   0  0  0  0  0  0  0  0  0  0  0  0
    5.4555    0.6213   20.1557 C   0  0  0  0  0  0  0  0  0  0  0  0
    5.0260    0.6079   21.1569 H   0  0  0  0  0  0  0  0  0  0  0  0
    4.8215    1.2937   19.1057 C   0  0  0  0  0  0  0  0  0  0  0  0
    3.8864    1.8238   19.2630 H   0  0  0  0  0  0  0  0  0  0  0  0
  1  2  1  0
  2  3  2  0
  3  4  1  0
  4  5  1  0
  4  6  2  0
  6  7  1  0
  7  8  1  0
  8  9  1  0
  8 10  1  0
  8 11  1  0
 11 12  1  0
 11 13  1  0
 11 14  1  0
 14 15  1  0
 14 16  1  0
 14 17  1  0
 17 18  1  6
 17 19  1  0
 19 20  1  0
 19 21  1  0
 21 22  1  0
 21 23  1  0
 21 24  1  0
 24 25  1  0
 24 26  1  0
 24 27  1  0
 27 28  1  0
 28 29  2  0
 28 30  1  0
 30 31  1  0
 30 32  1  0
 30 33  1  0
 27 34  1  0
 34 35  1  0
 34 36  1  0
 34 37  1  0
 37 38  1  0
 37 39  1  0
  6 40  1  0
 40 41  1  0
 40 42  2  0
 42 43  1  0
 42  2  1  0
 17  7  1  0
 37 19  1  0
M  END
>  <cnnaffinity>  (1) 
5.48927

>  <plip>  (1) 
-0.06896551724137931

>  <filename>  (1) 
[H][c]1[n][c]([H])[c]([N]2[C]([H])([H])[C]([H])([H])[C]([H])([H])[C@]2([H])[C]2([H])[C]([H])([H])[C]([H])([H])[N]([C](=[O])[C]([H])([H])[H])[C]([H])([H])[C]2([H])[H])[c]([H])[c]1[H]

>  <combo1>  (1) 
-0.4615923437798256

$$$$
