
     RDKit          3D

 38 40  0  0  0  0  0  0  0  0999 V2000
    9.6355    0.0254   20.9822 C   0  0  0  0  0  0  0  0  0  0  0  0
    8.3225    0.2018   21.6104 N   0  0  0  0  0  0  0  0  0  0  0  0
    8.0262    1.2045   22.5301 C   0  0  0  0  0  0  0  0  0  0  0  0
    6.8642    1.4558   22.8343 O   0  0  0  0  0  0  0  0  0  0  0  0
    9.1973    1.9965   23.1511 C   0  0  0  0  0  0  0  0  0  0  0  0
   10.2245    1.2983   23.6348 N   0  0  0  0  0  0  0  0  0  0  0  0
   11.2898    1.9544   24.1501 C   0  0  0  0  0  0  0  0  0  0  0  0
   11.3689    3.3216   24.2132 C   0  0  0  0  0  0  0  0  0  0  0  0
   10.2646    4.1105   23.7934 C   0  0  0  0  0  0  0  0  0  0  0  0
   10.2675    5.5291   23.9166 C   0  0  0  0  0  0  0  0  0  0  0  0
    9.2016    6.2705   23.4620 C   0  0  0  0  0  0  0  0  0  0  0  0
    8.1002    5.6222   22.8448 C   0  0  0  0  0  0  0  0  0  0  0  0
    8.0635    4.2515   22.7168 C   0  0  0  0  0  0  0  0  0  0  0  0
    9.1360    3.4447   23.2214 C   0  0  0  0  0  0  0  0  0  0  0  0
    7.2293    3.7691   22.2157 H   0  0  0  0  0  0  0  0  0  0  0  0
    7.2871    6.2265   22.4493 H   0  0  0  0  0  0  0  0  0  0  0  0
    9.2017    7.3523   23.5604 H   0  0  0  0  0  0  0  0  0  0  0  0
   11.1338    6.0143   24.3587 H   0  0  0  0  0  0  0  0  0  0  0  0
   12.2725    3.8012   24.5508 H   0  0  0  0  0  0  0  0  0  0  0  0
   12.1026    1.3306   24.5100 H   0  0  0  0  0  0  0  0  0  0  0  0
    7.2150   -0.6472   21.1263 C   0  0  0  0  0  0  0  0  0  0  0  0
    7.5641   -2.3119   20.9491 C   0  0  0  0  0  0  0  0  0  0  0  0
    8.7759   -2.5861   20.9355 O   0  0  0  0  0  0  0  0  0  0  0  0
    6.5445   -3.0029   20.8922 O   0  0  0  0  0  1  0  0  0  0  0  0
    6.5617   -0.0071   19.9025 C   0  0  0  0  0  0  0  0  0  0  0  0
    5.3698    0.7120   20.0768 C   0  0  0  0  0  0  0  0  0  0  0  0
    4.8008    1.3687   18.9843 C   0  0  0  0  0  0  0  0  0  0  0  0
    5.4532    1.2936   17.7501 C   0  0  0  0  0  0  0  0  0  0  0  0
    6.6047    0.6337   17.5634 N   0  0  0  0  0  0  0  0  0  0  0  0
    7.1418    0.0072   18.6227 C   0  0  0  0  0  0  0  0  0  0  0  0
    8.0858   -0.5018   18.4201 H   0  0  0  0  0  0  0  0  0  0  0  0
    5.0258    1.7630   16.8656 H   0  0  0  0  0  0  0  0  0  0  0  0
    3.8702    1.9210   19.0682 H   0  0  0  0  0  0  0  0  0  0  0  0
    4.9220    0.7596   21.0709 H   0  0  0  0  0  0  0  0  0  0  0  0
    6.4798   -0.6675   21.9360 H   0  0  0  0  0  0  0  0  0  0  0  0
    9.5579   -0.6939   20.1682 H   0  0  0  0  0  0  0  0  0  0  0  0
    9.9894    0.9894   20.6017 H   0  0  0  0  0  0  0  0  0  0  0  0
   10.3656   -0.3441   21.7068 H   0  0  0  0  0  0  0  0  0  0  0  0
  1  2  1  0
  2  3  1  0
  3  4  2  0
  3  5  1  0
  5  6  2  0
  6  7  1  0
  7  8  2  0
  8  9  1  0
  9 10  2  0
 10 11  1  0
 11 12  2  0
 12 13  1  0
 13 14  2  0
 13 15  1  0
 12 16  1  0
 11 17  1  0
 10 18  1  0
  8 19  1  0
  7 20  1  0
  2 21  1  0
 21 22  1  0
 22 23  2  0
 22 24  1  0
 21 25  1  0
 25 26  2  0
 26 27  1  0
 27 28  2  0
 28 29  1  0
 29 30  2  0
 30 31  1  0
 28 32  1  0
 27 33  1  0
 26 34  1  0
 21 35  1  0
  1 36  1  0
  1 37  1  0
  1 38  1  0
 14  5  1  0
 30 25  1  0
 14  9  1  0
M  CHG  1  24  -1
M  END
>  <cnnaffinity>  (1) 
5.08264

>  <plip>  (1) 
-0.13793103448275862

>  <filename>  (1) 
[H][c]1[n][c]([H])[c]([C]([H])([C](=[O])[O-])[N]([C](=[O])[c]2[n][c]([H])[c]([H])[c]3[c]([H])[c]([H])[c]([H])[c]([H])[c]23)[C]([H])([H])[H])[c]([H])[c]1[H]

>  <combo1>  (1) 
-0.7295166132874723

$$$$
