
     RDKit          3D

 33 35  0  0  0  0  0  0  0  0999 V2000
    4.9899    1.8676   16.9480 H   0  0  0  0  0  0  0  0  0  0  0  0
    5.4114    1.3416   17.8026 C   0  0  0  0  0  0  0  0  0  0  0  0
    6.5780    0.7155   17.5851 N   0  0  0  0  0  0  0  0  0  0  0  0
    7.1349    0.0791   18.6192 C   0  0  0  0  0  0  0  0  0  0  0  0
    8.0799   -0.4256   18.4161 H   0  0  0  0  0  0  0  0  0  0  0  0
    6.5814    0.0185   19.9078 C   0  0  0  0  0  0  0  0  0  0  0  0
    7.3643   -0.6835   21.0003 C   0  0  0  0  0  0  0  0  0  0  0  0
    7.5640   -1.7242   20.7267 H   0  0  0  0  0  0  0  0  0  0  0  0
    6.7822   -0.6972   21.9291 H   0  0  0  0  0  0  0  0  0  0  0  0
    8.6425   -0.0278   21.2719 N   0  0  0  0  0  0  0  0  0  0  0  0
    9.9088   -0.4069   20.9213 C   0  0  0  0  0  0  0  0  0  0  0  0
   10.0950   -1.3412   20.3987 H   0  0  0  0  0  0  0  0  0  0  0  0
   10.8204    0.4553   21.3011 N   0  0  0  0  0  0  0  0  0  0  0  0
   10.1187    1.4458   21.9421 C   0  0  0  0  0  0  0  0  0  0  0  0
   10.5957    2.2971   22.4059 H   0  0  0  0  0  0  0  0  0  0  0  0
    8.7667    1.1672   21.9411 C   0  0  0  0  0  0  0  0  0  0  0  0
    7.6531    1.7649   22.5295 N   0  0  0  0  0  0  0  0  0  0  0  0
    6.9382    2.0562   21.8742 H   0  0  0  0  0  0  0  0  0  0  0  0
    7.7371    2.5243   23.7020 C   0  0  0  0  0  0  0  0  0  0  0  0
    6.9852    3.6933   23.8509 C   0  0  0  0  0  0  0  0  0  0  0  0
    6.2773    3.9623   23.0692 H   0  0  0  0  0  0  0  0  0  0  0  0
    7.1828    4.4958   24.9837 C   0  0  0  0  0  0  0  0  0  0  0  0
    6.6546    5.4412   25.0574 H   0  0  0  0  0  0  0  0  0  0  0  0
    8.0809    4.1012   25.9847 C   0  0  0  0  0  0  0  0  0  0  0  0
    8.2429    4.7150   26.8648 H   0  0  0  0  0  0  0  0  0  0  0  0
    8.7918    2.9070   25.8461 C   0  0  0  0  0  0  0  0  0  0  0  0
    9.5017    2.5767   26.5916 H   0  0  0  0  0  0  0  0  0  0  0  0
    8.6057    2.1136   24.7205 C   0  0  0  0  0  0  0  0  0  0  0  0
    9.1507    1.1861   24.5803 H   0  0  0  0  0  0  0  0  0  0  0  0
    5.3487    0.6564   20.1052 C   0  0  0  0  0  0  0  0  0  0  0  0
    4.8600    0.6272   21.0817 H   0  0  0  0  0  0  0  0  0  0  0  0
    4.7499    1.3350   19.0340 C   0  0  0  0  0  0  0  0  0  0  0  0
    3.8065    1.8630   19.1429 H   0  0  0  0  0  0  0  0  0  0  0  0
  1  2  1  0
  2  3  2  0
  3  4  1  0
  4  5  1  0
  4  6  2  0
  6  7  1  0
  7  8  1  0
  7  9  1  0
  7 10  1  0
 10 11  1  0
 11 12  1  0
 11 13  2  0
 13 14  1  0
 14 15  1  0
 14 16  2  0
 16 17  1  0
 17 18  1  0
 17 19  1  0
 19 20  2  0
 20 21  1  0
 20 22  1  0
 22 23  1  0
 22 24  2  0
 24 25  1  0
 24 26  1  0
 26 27  1  0
 26 28  2  0
 28 29  1  0
  6 30  1  0
 30 31  1  0
 30 32  2  0
 32 33  1  0
 32  2  1  0
 16 10  1  0
 28 19  1  0
M  END
>  <cnnaffinity>  (1) 
4.6905

>  <plip>  (1) 
-0.07142857142857142

>  <filename>  (1) 
[H][c]1[n][c]([H])[c]([C]([H])([H])[n]2[c]([H])[n][c]([H])[c]2[N]([H])[c]2[c]([H])[c]([H])[c]([H])[c]([H])[c]2[H])[c]([H])[c]1[H]

>  <combo1>  (1) 
-0.44616995836508017

$$$$
