
     RDKit          3D

 33 35  0  0  0  0  0  0  0  0999 V2000
    4.8068    1.3096   19.1046 C   0  0  0  0  0  0  0  0  0  0  0  0
    5.4046    1.2892   17.8396 C   0  0  0  0  0  0  0  0  0  0  0  0
    6.5636    0.6679   17.5867 N   0  0  0  0  0  0  0  0  0  0  0  0
    7.1595    0.0422   18.6066 C   0  0  0  0  0  0  0  0  0  0  0  0
    6.6425   -0.0197   19.9051 C   0  0  0  0  0  0  0  0  0  0  0  0
    7.3732   -0.7739   20.9894 C   0  0  0  0  0  0  0  0  0  0  0  0
    6.9505   -2.1514   21.0178 N   0  0  0  0  0  0  0  0  0  0  0  0
    7.4000   -3.0917   21.9174 C   0  0  0  0  0  0  0  0  0  0  0  0
    6.8958   -4.4128   21.8650 C   0  0  0  0  0  0  0  0  0  0  0  0
    7.3549   -5.3766   22.7612 C   0  0  0  0  0  0  0  0  0  0  0  0
    8.3190   -5.0355   23.7151 C   0  0  0  0  0  0  0  0  0  0  0  0
    8.9433   -5.9053   24.7659 C   0  0  0  0  0  0  0  0  0  0  0  0
    9.9244   -4.9852   25.5130 N   0  0  0  0  0  4  0  0  0  0  0  0
    9.8281   -3.5872   24.8578 C   0  0  0  0  0  0  0  0  0  0  0  0
    8.8113   -3.7376   23.7654 C   0  0  0  0  0  0  0  0  0  0  0  0
    8.3669   -2.7600   22.8831 C   0  0  0  0  0  0  0  0  0  0  0  0
    8.7530   -1.7440   22.9265 H   0  0  0  0  0  0  0  0  0  0  0  0
    9.5225   -2.8376   25.5928 H   0  0  0  0  0  0  0  0  0  0  0  0
   10.8002   -3.2784   24.4649 H   0  0  0  0  0  0  0  0  0  0  0  0
    9.6483   -4.9292   26.5243 H   0  0  0  0  0  0  0  0  0  0  0  0
   10.9006   -5.3614   25.4179 H   0  0  0  0  0  0  0  0  0  0  0  0
    9.4729   -6.7577   24.3293 H   0  0  0  0  0  0  0  0  0  0  0  0
    8.1975   -6.3169   25.4543 H   0  0  0  0  0  0  0  0  0  0  0  0
    6.9692   -6.3972   22.7302 H   0  0  0  0  0  0  0  0  0  0  0  0
    6.1465   -4.6703   21.1231 H   0  0  0  0  0  0  0  0  0  0  0  0
    6.2492   -2.4366   20.3608 H   0  0  0  0  0  0  0  0  0  0  0  0
    7.1775   -0.2895   21.9580 H   0  0  0  0  0  0  0  0  0  0  0  0
    8.4583   -0.7201   20.8167 H   0  0  0  0  0  0  0  0  0  0  0  0
    5.4374    0.6447   20.1592 C   0  0  0  0  0  0  0  0  0  0  0  0
    5.0036    0.6360   21.1623 H   0  0  0  0  0  0  0  0  0  0  0  0
    8.1144   -0.4265   18.3749 H   0  0  0  0  0  0  0  0  0  0  0  0
    4.9221    1.7819   16.9946 H   0  0  0  0  0  0  0  0  0  0  0  0
    3.8734    1.8465   19.2554 H   0  0  0  0  0  0  0  0  0  0  0  0
  1  2  2  0
  2  3  1  0
  3  4  2  0
  4  5  1  0
  5  6  1  0
  6  7  1  0
  7  8  1  0
  8  9  2  0
  9 10  1  0
 10 11  2  0
 11 12  1  0
 12 13  1  0
 13 14  1  0
 14 15  1  0
 15 16  2  0
 16 17  1  0
 14 18  1  0
 14 19  1  0
 13 20  1  0
 13 21  1  0
 12 22  1  0
 12 23  1  0
 10 24  1  0
  9 25  1  0
  7 26  1  0
  6 27  1  0
  6 28  1  0
  5 29  2  0
 29 30  1  0
  4 31  1  0
  2 32  1  0
  1 33  1  0
 29  1  1  0
 16  8  1  0
 15 11  1  0
M  CHG  1  13   1
M  END
>  <cnnaffinity>  (1) 
4.61272

>  <plip>  (1) 
-0.10714285714285714

>  <filename>  (1) 
[H][c]1[n][c]([H])[c]([C]([H])([H])[N]([H])[c]2[c]([H])[c]([H])[c]3[c]([c]2[H])[C]([H])([H])[N+]([H])([H])[C]3([H])[H])[c]([H])[c]1[H]

>  <combo1>  (1) 
-0.7279620685541064

$$$$
