
     RDKit          3D

 30 31  0  0  0  0  0  0  0  0999 V2000
    8.2436    0.0591   21.4737 H   0  0  0  0  0  0  0  0  0  0  0  0
    7.4574   -0.5216   21.0077 C   0  0  0  0  0  0  0  0  0  0  0  0
    7.3475   -1.8475   21.3548 C   0  0  0  0  0  0  0  0  0  0  0  0
    5.9262   -2.9007   20.6094 Br  0  0  0  0  0  0  0  0  0  0  0  0
    8.2914   -2.4519   22.2033 N   0  0  0  0  0  0  0  0  0  0  0  0
    8.1233   -3.8567   22.6119 C   0  0  0  0  0  0  0  0  0  0  0  0
    7.1300   -4.2320   22.3390 H   0  0  0  0  0  0  0  0  0  0  0  0
    8.8642   -4.4850   22.1110 H   0  0  0  0  0  0  0  0  0  0  0  0
    8.3024   -3.9364   24.1256 C   0  0  0  0  0  0  0  0  0  0  0  0
    7.4969   -3.3676   24.6002 H   0  0  0  0  0  0  0  0  0  0  0  0
    8.2223   -4.9773   24.4544 H   0  0  0  0  0  0  0  0  0  0  0  0
    9.6616   -3.3516   24.5470 C   0  0  0  0  0  0  0  0  0  0  0  0
    9.7435   -3.3685   25.6401 H   0  0  0  0  0  0  0  0  0  0  0  0
   10.4740   -3.9643   24.1385 H   0  0  0  0  0  0  0  0  0  0  0  0
    9.7859   -1.9025   24.0386 C   0  0  0  0  0  0  0  0  0  0  0  0
    9.0195   -1.2823   24.5173 H   0  0  0  0  0  0  0  0  0  0  0  0
   10.7633   -1.4940   24.3066 H   0  0  0  0  0  0  0  0  0  0  0  0
    9.5981   -1.8374   22.5204 C   0  0  0  0  0  0  0  0  0  0  0  0
   10.4021   -2.3841   22.0085 H   0  0  0  0  0  0  0  0  0  0  0  0
    9.6409   -0.7940   22.1903 H   0  0  0  0  0  0  0  0  0  0  0  0
    6.6645    0.0972   19.9443 C   0  0  0  0  0  0  0  0  0  0  0  0
    7.1790    0.0835   18.6391 C   0  0  0  0  0  0  0  0  0  0  0  0
    8.1300   -0.4159   18.4703 H   0  0  0  0  0  0  0  0  0  0  0  0
    6.5661    0.6649   17.5951 N   0  0  0  0  0  0  0  0  0  0  0  0
    5.3963    1.2799   17.8372 C   0  0  0  0  0  0  0  0  0  0  0  0
    4.9023    1.7552   16.9997 H   0  0  0  0  0  0  0  0  0  0  0  0
    4.8058    1.3227   19.1056 C   0  0  0  0  0  0  0  0  0  0  0  0
    3.8612    1.8449   19.2194 H   0  0  0  0  0  0  0  0  0  0  0  0
    5.4422    0.7267   20.1963 C   0  0  0  0  0  0  0  0  0  0  0  0
    5.0107    0.7823   21.1952 H   0  0  0  0  0  0  0  0  0  0  0  0
  1  2  1  0
  2  3  2  3
  3  4  1  0
  3  5  1  0
  5  6  1  0
  6  7  1  0
  6  8  1  0
  6  9  1  0
  9 10  1  0
  9 11  1  0
  9 12  1  0
 12 13  1  0
 12 14  1  0
 12 15  1  0
 15 16  1  0
 15 17  1  0
 15 18  1  0
 18 19  1  0
 18 20  1  0
  2 21  1  0
 21 22  2  0
 22 23  1  0
 22 24  1  0
 24 25  2  0
 25 26  1  0
 25 27  1  0
 27 28  1  0
 27 29  2  0
 29 30  1  0
 18  5  1  0
 29 21  1  0
M  END
>  <cnnaffinity>  (1) 
-4.78164

>  <filename>  (1) 
BrC(=Cc1cccnc1)N1CCCCC1

$$$$
