
     RDKit          3D

 27 29  0  0  0  0  0  0  0  0999 V2000
    4.8929    1.7808   17.0144 H   0  0  0  0  0  0  0  0  0  0  0  0
    5.4027    1.2925   17.8397 C   0  0  0  0  0  0  0  0  0  0  0  0
    6.5711    0.6763   17.5888 N   0  0  0  0  0  0  0  0  0  0  0  0
    7.1855    0.0507   18.6011 C   0  0  0  0  0  0  0  0  0  0  0  0
    8.1328   -0.4436   18.3930 H   0  0  0  0  0  0  0  0  0  0  0  0
    6.6575    0.0184   19.8932 C   0  0  0  0  0  0  0  0  0  0  0  0
    7.3682   -0.7147   20.9118 C   0  0  0  0  0  0  0  0  0  0  0  0
    7.9367   -1.8723   20.6617 N   0  0  0  0  0  0  0  0  0  0  0  0
    8.4589   -2.3604   21.8958 O   0  0  0  0  0  0  0  0  0  0  0  0
    8.1697   -1.4329   22.8557 C   0  0  0  0  0  0  0  0  0  0  0  0
    8.4810   -1.5309   23.8897 H   0  0  0  0  0  0  0  0  0  0  0  0
    7.5108   -0.3708   22.3013 C   0  0  0  0  0  0  0  0  0  0  0  0
    7.1120    0.8631   22.9857 C   0  0  0  0  0  0  0  0  0  0  0  0
    7.2374    2.1099   22.3533 C   0  0  0  0  0  0  0  0  0  0  0  0
    7.6364    2.1822   21.3466 H   0  0  0  0  0  0  0  0  0  0  0  0
    6.8858    3.2853   23.0314 C   0  0  0  0  0  0  0  0  0  0  0  0
    6.9911    4.2497   22.5414 H   0  0  0  0  0  0  0  0  0  0  0  0
    6.4014    3.2247   24.3424 C   0  0  0  0  0  0  0  0  0  0  0  0
    5.9124    4.8251   25.2658 Br  0  0  0  0  0  0  0  0  0  0  0  0
    6.2803    1.9835   24.9755 C   0  0  0  0  0  0  0  0  0  0  0  0
    5.9089    1.9307   25.9934 H   0  0  0  0  0  0  0  0  0  0  0  0
    6.6380    0.8108   24.3013 C   0  0  0  0  0  0  0  0  0  0  0  0
    6.5367   -0.1463   24.8018 H   0  0  0  0  0  0  0  0  0  0  0  0
    5.4501    0.6580   20.1671 C   0  0  0  0  0  0  0  0  0  0  0  0
    5.0059    0.6336   21.1598 H   0  0  0  0  0  0  0  0  0  0  0  0
    4.8165    1.3097   19.1137 C   0  0  0  0  0  0  0  0  0  0  0  0
    3.8777    1.8383   19.2663 H   0  0  0  0  0  0  0  0  0  0  0  0
  1  2  1  0
  2  3  2  0
  3  4  1  0
  4  5  1  0
  4  6  2  0
  6  7  1  0
  7  8  2  0
  8  9  1  0
  9 10  1  0
 10 11  1  0
 10 12  2  0
 12 13  1  0
 13 14  2  0
 14 15  1  0
 14 16  1  0
 16 17  1  0
 16 18  2  0
 18 19  1  0
 18 20  1  0
 20 21  1  0
 20 22  2  0
 22 23  1  0
  6 24  1  0
 24 25  1  0
 24 26  2  0
 26 27  1  0
 26  2  1  0
 12  7  1  0
 22 13  1  0
M  END
>  <cnnaffinity>  (1) 
-4.95767

>  <filename>  (1) 
Brc1ccc(-c2conc2-c2cccnc2)cc1

$$$$
