
     RDKit          3D

 28 30  0  0  0  0  0  0  0  0999 V2000
    4.8929    1.7845   17.0152 H   0  0  0  0  0  0  0  0  0  0  0  0
    5.4051    1.2922   17.8370 C   0  0  0  0  0  0  0  0  0  0  0  0
    6.5728    0.6684   17.5897 N   0  0  0  0  0  0  0  0  0  0  0  0
    7.1862    0.0398   18.6102 C   0  0  0  0  0  0  0  0  0  0  0  0
    8.1327   -0.4465   18.3978 H   0  0  0  0  0  0  0  0  0  0  0  0
    6.6649    0.0209   19.9105 C   0  0  0  0  0  0  0  0  0  0  0  0
    7.3663   -0.6934   20.9648 C   0  0  0  0  0  0  0  0  0  0  0  0
    7.9779   -1.9215   20.7521 N   0  0  0  0  0  0  0  0  0  0  0  0
    8.4392   -2.3059   21.9222 C   0  0  0  0  0  0  0  0  0  0  0  0
    8.9743   -3.2295   22.1088 H   0  0  0  0  0  0  0  0  0  0  0  0
    8.1536   -1.3659   22.8824 N   0  0  0  0  0  0  0  0  0  0  0  0
    8.4422   -1.4085   23.8598 H   0  0  0  0  0  0  0  0  0  0  0  0
    7.4997   -0.3224   22.2826 C   0  0  0  0  0  0  0  0  0  0  0  0
    7.1085    0.9082   22.9434 C   0  0  0  0  0  0  0  0  0  0  0  0
    6.6108    0.8734   24.2512 C   0  0  0  0  0  0  0  0  0  0  0  0
    6.4849   -0.0777   24.7607 H   0  0  0  0  0  0  0  0  0  0  0  0
    6.2585    2.0609   24.8969 C   0  0  0  0  0  0  0  0  0  0  0  0
    5.8594    2.0310   25.9044 H   0  0  0  0  0  0  0  0  0  0  0  0
    6.4170    3.2882   24.2462 C   0  0  0  0  0  0  0  0  0  0  0  0
    5.9295    4.9119   25.1291 Br  0  0  0  0  0  0  0  0  0  0  0  0
    6.9361    3.3226   22.9482 C   0  0  0  0  0  0  0  0  0  0  0  0
    7.0712    4.2731   22.4444 H   0  0  0  0  0  0  0  0  0  0  0  0
    7.2819    2.1364   22.2962 C   0  0  0  0  0  0  0  0  0  0  0  0
    7.7105    2.1730   21.2993 H   0  0  0  0  0  0  0  0  0  0  0  0
    5.4517    0.6629   20.1685 C   0  0  0  0  0  0  0  0  0  0  0  0
    5.0038    0.6391   21.1625 H   0  0  0  0  0  0  0  0  0  0  0  0
    4.8176    1.3109   19.1097 C   0  0  0  0  0  0  0  0  0  0  0  0
    3.8794    1.8353   19.2640 H   0  0  0  0  0  0  0  0  0  0  0  0
  1  2  1  0
  2  3  2  0
  3  4  1  0
  4  5  1  0
  4  6  2  0
  6  7  1  0
  7  8  1  0
  8  9  2  0
  9 10  1  0
  9 11  1  0
 11 12  1  0
 11 13  1  0
 13 14  1  0
 14 15  2  0
 15 16  1  0
 15 17  1  0
 17 18  1  0
 17 19  2  0
 19 20  1  0
 19 21  1  0
 21 22  1  0
 21 23  2  0
 23 24  1  0
  6 25  1  0
 25 26  1  0
 25 27  2  0
 27 28  1  0
 27  2  1  0
 13  7  2  0
 23 14  1  0
M  END
>  <cnnaffinity>  (1) 
-5.18493

>  <filename>  (1) 
Brc1ccc(-c2[nH]cnc2-c2cccnc2)cc1

$$$$
