
     RDKit          3D

 31 33  0  0  0  0  0  0  0  0999 V2000
    4.9458    1.8230   17.0115 H   0  0  0  0  0  0  0  0  0  0  0  0
    5.4294    1.2900   17.8237 C   0  0  0  0  0  0  0  0  0  0  0  0
    6.5867    0.6498   17.5737 N   0  0  0  0  0  0  0  0  0  0  0  0
    7.1836    0.0084   18.5938 C   0  0  0  0  0  0  0  0  0  0  0  0
    8.1180   -0.5102   18.3957 H   0  0  0  0  0  0  0  0  0  0  0  0
    6.6557   -0.0241   19.8944 C   0  0  0  0  0  0  0  0  0  0  0  0
    7.3720   -0.7867   20.9837 C   0  0  0  0  0  0  0  0  0  0  0  0
    8.4322   -0.9064   20.7250 H   0  0  0  0  0  0  0  0  0  0  0  0
    7.3176   -0.2260   21.9239 H   0  0  0  0  0  0  0  0  0  0  0  0
    6.7410   -2.1443   21.1695 C   0  0  0  0  0  0  0  0  0  0  0  0
    6.1685   -2.9842   20.1325 C   0  0  0  0  0  0  0  0  0  0  0  0
    6.1972   -2.7639   19.0706 H   0  0  0  0  0  0  0  0  0  0  0  0
    5.6059   -4.0558   20.6441 N   0  0  0  0  0  0  0  0  0  0  0  0
    5.8025   -3.9371   21.9917 N   0  0  0  0  0  0  0  0  0  0  0  0
    5.5192   -4.6502   22.6687 H   0  0  0  0  0  0  0  0  0  0  0  0
    6.4851   -2.7855   22.3530 C   0  0  0  0  0  0  0  0  0  0  0  0
    6.8158   -2.3300   23.7132 C   0  0  0  0  0  0  0  0  0  0  0  0
    5.9084   -2.5118   24.7753 C   0  0  0  0  0  0  0  0  0  0  0  0
    4.9846   -3.0603   24.6078 H   0  0  0  0  0  0  0  0  0  0  0  0
    6.1651   -1.9195   26.0204 C   0  0  0  0  0  0  0  0  0  0  0  0
    5.4427   -2.0069   26.8229 H   0  0  0  0  0  0  0  0  0  0  0  0
    7.3294   -1.1716   26.2280 C   0  0  0  0  0  0  0  0  0  0  0  0
    7.5367   -0.1598   27.8352 Br  0  0  0  0  0  0  0  0  0  0  0  0
    8.2936   -1.1054   25.2118 C   0  0  0  0  0  0  0  0  0  0  0  0
    9.2319   -0.5945   25.3890 H   0  0  0  0  0  0  0  0  0  0  0  0
    8.0304   -1.6641   23.9529 C   0  0  0  0  0  0  0  0  0  0  0  0
    8.7542   -1.5776   23.1437 H   0  0  0  0  0  0  0  0  0  0  0  0
    5.4481    0.6389   20.1488 C   0  0  0  0  0  0  0  0  0  0  0  0
    5.0019    0.6366   21.1435 H   0  0  0  0  0  0  0  0  0  0  0  0
    4.8297    1.3013   19.0871 C   0  0  0  0  0  0  0  0  0  0  0  0
    3.8925    1.8326   19.2248 H   0  0  0  0  0  0  0  0  0  0  0  0
  1  2  1  0
  2  3  2  0
  3  4  1  0
  4  5  1  0
  4  6  2  0
  6  7  1  0
  7  8  1  0
  7  9  1  0
  7 10  1  0
 10 11  1  0
 11 12  1  0
 11 13  2  0
 13 14  1  0
 14 15  1  0
 14 16  1  0
 16 17  1  0
 17 18  2  0
 18 19  1  0
 18 20  1  0
 20 21  1  0
 20 22  2  0
 22 23  1  0
 22 24  1  0
 24 25  1  0
 24 26  2  0
 26 27  1  0
  6 28  1  0
 28 29  1  0
 28 30  2  0
 30 31  1  0
 30  2  1  0
 16 10  2  0
 26 17  1  0
M  END
>  <cnnaffinity>  (1) 
-5.38727

>  <filename>  (1) 
Brc1ccc(-c2[nH]ncc2Cc2cccnc2)cc1

$$$$
