
     RDKit          3D

 33 35  0  0  0  0  0  0  0  0999 V2000
    2.7654    5.0317   26.7554 Br  0  0  0  0  0  0  0  0  0  0  0  0
    3.7360    3.6856   25.7970 C   0  0  0  0  0  0  0  0  0  0  0  0
    3.2259    2.3877   25.6872 C   0  0  0  0  0  0  0  0  0  0  0  0
    3.9396    1.4032   24.9840 C   0  0  0  0  0  0  0  0  0  0  0  0
    5.1636    1.7068   24.3808 C   0  0  0  0  0  0  0  0  0  0  0  0
    5.8419    0.7150   23.6719 N   0  0  0  0  0  0  0  0  0  0  0  0
    7.1155    0.9238   22.9728 C   0  0  0  0  0  0  0  0  0  0  0  0
    7.5500   -0.3599   22.3173 C   0  0  0  0  0  0  0  0  0  0  0  0
    8.3194   -1.3415   22.8730 C   0  0  0  0  0  0  0  0  0  0  0  0
    8.5494   -2.2425   21.8454 N   0  0  0  0  0  0  0  0  0  0  0  0
    7.9961   -1.8563   20.6627 N   0  0  0  0  0  0  0  0  0  0  0  0
    7.3694   -0.7336   20.9219 C   0  0  0  0  0  0  0  0  0  0  0  0
    6.6544    0.0085   19.8997 C   0  0  0  0  0  0  0  0  0  0  0  0
    5.4500    0.6610   20.1732 C   0  0  0  0  0  0  0  0  0  0  0  0
    4.8274    1.3094   19.1091 C   0  0  0  0  0  0  0  0  0  0  0  0
    5.4065    1.2931   17.8340 C   0  0  0  0  0  0  0  0  0  0  0  0
    6.5703    0.6672   17.5818 N   0  0  0  0  0  0  0  0  0  0  0  0
    7.1781    0.0392   18.6011 C   0  0  0  0  0  0  0  0  0  0  0  0
    8.1270   -0.4504   18.4014 H   0  0  0  0  0  0  0  0  0  0  0  0
    4.8931    1.7949   17.0194 H   0  0  0  0  0  0  0  0  0  0  0  0
    3.8884    1.8286   19.2599 H   0  0  0  0  0  0  0  0  0  0  0  0
    5.0037    0.6455   21.1705 H   0  0  0  0  0  0  0  0  0  0  0  0
    9.0893   -3.0990   21.9589 H   0  0  0  0  0  0  0  0  0  0  0  0
    8.6887   -1.3925   23.8960 H   0  0  0  0  0  0  0  0  0  0  0  0
    7.8804    1.2378   23.6912 H   0  0  0  0  0  0  0  0  0  0  0  0
    7.0052    1.7212   22.2304 H   0  0  0  0  0  0  0  0  0  0  0  0
    5.4349   -0.2184   23.6438 H   0  0  0  0  0  0  0  0  0  0  0  0
    5.6715    3.0049   24.4990 C   0  0  0  0  0  0  0  0  0  0  0  0
    4.9623    3.9898   25.2013 C   0  0  0  0  0  0  0  0  0  0  0  0
    5.3575    4.9969   25.2859 H   0  0  0  0  0  0  0  0  0  0  0  0
    6.6209    3.2404   24.0361 H   0  0  0  0  0  0  0  0  0  0  0  0
    3.5457    0.3959   24.9047 H   0  0  0  0  0  0  0  0  0  0  0  0
    2.2744    2.1559   26.1537 H   0  0  0  0  0  0  0  0  0  0  0  0
  1  2  1  0
  2  3  2  0
  3  4  1  0
  4  5  2  0
  5  6  1  0
  6  7  1  0
  7  8  1  0
  8  9  2  0
  9 10  1  0
 10 11  1  0
 11 12  2  0
 12 13  1  0
 13 14  2  0
 14 15  1  0
 15 16  2  0
 16 17  1  0
 17 18  2  0
 18 19  1  0
 16 20  1  0
 15 21  1  0
 14 22  1  0
 10 23  1  0
  9 24  1  0
  7 25  1  0
  7 26  1  0
  6 27  1  0
  5 28  1  0
 28 29  2  0
 29 30  1  0
 28 31  1  0
  4 32  1  0
  3 33  1  0
 29  2  1  0
 12  8  1  0
 18 13  1  0
M  END
>  <cnnaffinity>  (1) 
-4.65633

>  <filename>  (1) 
Brc1ccc(NCc2c[nH]nc2-c2cccnc2)cc1

$$$$
