
     RDKit          3D

 27 29  0  0  0  0  0  0  0  0999 V2000
    4.8911    1.8022   17.0179 H   0  0  0  0  0  0  0  0  0  0  0  0
    5.4084    1.2956   17.8260 C   0  0  0  0  0  0  0  0  0  0  0  0
    6.5695    0.6667   17.5671 N   0  0  0  0  0  0  0  0  0  0  0  0
    7.1781    0.0431   18.5912 C   0  0  0  0  0  0  0  0  0  0  0  0
    8.1280   -0.4527   18.4008 H   0  0  0  0  0  0  0  0  0  0  0  0
    6.6533    0.0309   19.8891 C   0  0  0  0  0  0  0  0  0  0  0  0
    7.3594   -0.6838   20.9261 C   0  0  0  0  0  0  0  0  0  0  0  0
    7.9295   -1.8450   20.7384 N   0  0  0  0  0  0  0  0  0  0  0  0
    8.4292   -2.2807   21.9437 N   0  0  0  0  0  0  0  0  0  0  0  0
    8.1631   -1.3638   22.8400 C   0  0  0  0  0  0  0  0  0  0  0  0
    8.4553   -1.4196   23.8856 H   0  0  0  0  0  0  0  0  0  0  0  0
    7.4950   -0.3153   22.2463 N   0  0  0  0  0  0  0  0  0  0  0  0
    7.1456    0.8945   22.8503 C   0  0  0  0  0  0  0  0  0  0  0  0
    7.3754    2.1172   22.2026 C   0  0  0  0  0  0  0  0  0  0  0  0
    7.8338    2.1285   21.2198 H   0  0  0  0  0  0  0  0  0  0  0  0
    7.0553    3.3306   22.8352 C   0  0  0  0  0  0  0  0  0  0  0  0
    7.2478    4.2773   22.3413 H   0  0  0  0  0  0  0  0  0  0  0  0
    6.4898    3.3354   24.1137 C   0  0  0  0  0  0  0  0  0  0  0  0
    6.0359    4.9903   24.9709 Br  0  0  0  0  0  0  0  0  0  0  0  0
    6.2575    2.1187   24.7603 C   0  0  0  0  0  0  0  0  0  0  0  0
    5.8172    2.1251   25.7507 H   0  0  0  0  0  0  0  0  0  0  0  0
    6.5900    0.9068   24.1350 C   0  0  0  0  0  0  0  0  0  0  0  0
    6.4040   -0.0336   24.6411 H   0  0  0  0  0  0  0  0  0  0  0  0
    5.4475    0.6718   20.1660 C   0  0  0  0  0  0  0  0  0  0  0  0
    5.0032    0.6532   21.1650 H   0  0  0  0  0  0  0  0  0  0  0  0
    4.8269    1.3125   19.1010 C   0  0  0  0  0  0  0  0  0  0  0  0
    3.8877    1.8275   19.2556 H   0  0  0  0  0  0  0  0  0  0  0  0
  1  2  1  0
  2  3  2  0
  3  4  1  0
  4  5  1  0
  4  6  2  0
  6  7  1  0
  7  8  2  0
  8  9  1  0
  9 10  2  0
 10 11  1  0
 10 12  1  0
 12 13  1  0
 13 14  2  0
 14 15  1  0
 14 16  1  0
 16 17  1  0
 16 18  2  0
 18 19  1  0
 18 20  1  0
 20 21  1  0
 20 22  2  0
 22 23  1  0
  6 24  1  0
 24 25  1  0
 24 26  2  0
 26 27  1  0
 26  2  1  0
 12  7  1  0
 22 13  1  0
M  END
>  <cnnaffinity>  (1) 
-4.98376

>  <filename>  (1) 
Brc1ccc(-n2cnnc2-c2cccnc2)cc1

$$$$
