
     RDKit          3D

 22 23  0  0  0  0  0  0  0  0999 V2000
    4.8956    1.7744   17.0140 H   0  0  0  0  0  0  0  0  0  0  0  0
    5.3975    1.2923   17.8434 C   0  0  0  0  0  0  0  0  0  0  0  0
    6.5673    0.6824   17.5931 N   0  0  0  0  0  0  0  0  0  0  0  0
    7.1891    0.0532   18.6028 C   0  0  0  0  0  0  0  0  0  0  0  0
    8.1358   -0.4415   18.3913 H   0  0  0  0  0  0  0  0  0  0  0  0
    6.6497    0.0022   19.8930 C   0  0  0  0  0  0  0  0  0  0  0  0
    7.5231   -0.8118   21.1760 S   0  0  0  0  0  0  0  0  0  0  0  0
    8.4444    0.6031   21.6729 C   0  0  0  0  0  0  0  0  0  0  0  0
    9.6794    0.8845   21.0821 C   0  0  0  0  0  0  0  0  0  0  0  0
   10.0787    0.2096   20.3380 H   0  0  0  0  0  0  0  0  0  0  0  0
   10.4018    2.0247   21.4543 C   0  0  0  0  0  0  0  0  0  0  0  0
   11.3634    2.2347   20.9952 H   0  0  0  0  0  0  0  0  0  0  0  0
    9.8864    2.8957   22.4208 C   0  0  0  0  0  0  0  0  0  0  0  0
   10.8690    4.4520   22.9354 Br  0  0  0  0  0  0  0  0  0  0  0  0
    8.6470    2.6207   23.0092 C   0  0  0  0  0  0  0  0  0  0  0  0
    8.2422    3.2940   23.7590 H   0  0  0  0  0  0  0  0  0  0  0  0
    7.9275    1.4789   22.6338 C   0  0  0  0  0  0  0  0  0  0  0  0
    6.9658    1.2774   23.0944 H   0  0  0  0  0  0  0  0  0  0  0  0
    5.4454    0.6474   20.1583 C   0  0  0  0  0  0  0  0  0  0  0  0
    5.0124    0.6284   21.1543 H   0  0  0  0  0  0  0  0  0  0  0  0
    4.8104    1.3111   19.1122 C   0  0  0  0  0  0  0  0  0  0  0  0
    3.8766    1.8414   19.2682 H   0  0  0  0  0  0  0  0  0  0  0  0
  1  2  1  0
  2  3  2  0
  3  4  1  0
  4  5  1  0
  4  6  2  0
  6  7  1  0
  7  8  1  0
  8  9  2  0
  9 10  1  0
  9 11  1  0
 11 12  1  0
 11 13  2  0
 13 14  1  0
 13 15  1  0
 15 16  1  0
 15 17  2  0
 17 18  1  0
  6 19  1  0
 19 20  1  0
 19 21  2  0
 21 22  1  0
 21  2  1  0
 17  8  1  0
M  END
>  <cnnaffinity>  (1) 
-4.51364

>  <filename>  (1) 
Brc1ccc(Sc2cccnc2)cc1

$$$$
