
     RDKit          3D

 30 32  0  0  0  0  0  0  0  0999 V2000
    4.8908    1.7826   17.0122 H   0  0  0  0  0  0  0  0  0  0  0  0
    5.4012    1.2939   17.8354 C   0  0  0  0  0  0  0  0  0  0  0  0
    6.5671    0.6836   17.5754 N   0  0  0  0  0  0  0  0  0  0  0  0
    7.1883    0.0638   18.5960 C   0  0  0  0  0  0  0  0  0  0  0  0
    8.1311   -0.4382   18.3931 H   0  0  0  0  0  0  0  0  0  0  0  0
    6.6616    0.0074   19.9023 C   0  0  0  0  0  0  0  0  0  0  0  0
    7.3760   -0.7059   20.9777 C   0  0  0  0  0  0  0  0  0  0  0  0
    8.7635   -0.5692   21.1450 C   0  0  0  0  0  0  0  0  0  0  0  0
    9.3125    0.0836   20.4709 H   0  0  0  0  0  0  0  0  0  0  0  0
    9.4346   -1.2045   22.1243 N   0  0  0  0  0  0  0  0  0  0  0  0
    8.7472   -1.9970   22.9716 C   0  0  0  0  0  0  0  0  0  0  0  0
    9.3039   -2.5151   23.7457 H   0  0  0  0  0  0  0  0  0  0  0  0
    7.3594   -2.1997   22.8727 C   0  0  0  0  0  0  0  0  0  0  0  0
    6.6435   -3.0850   23.8132 C   0  0  0  0  0  0  0  0  0  0  0  0
    5.6211   -3.9366   23.3598 C   0  0  0  0  0  0  0  0  0  0  0  0
    5.3615   -3.9646   22.3075 H   0  0  0  0  0  0  0  0  0  0  0  0
    4.9381   -4.7768   24.2500 C   0  0  0  0  0  0  0  0  0  0  0  0
    4.1545   -5.4344   23.8860 H   0  0  0  0  0  0  0  0  0  0  0  0
    5.2633   -4.7754   25.6095 C   0  0  0  0  0  0  0  0  0  0  0  0
    4.3302   -5.9193   26.8238 Br  0  0  0  0  0  0  0  0  0  0  0  0
    6.2769   -3.9314   26.0737 C   0  0  0  0  0  0  0  0  0  0  0  0
    6.5288   -3.9250   27.1301 H   0  0  0  0  0  0  0  0  0  0  0  0
    6.9642   -3.0950   25.1818 C   0  0  0  0  0  0  0  0  0  0  0  0
    7.7353   -2.4372   25.5688 H   0  0  0  0  0  0  0  0  0  0  0  0
    6.6735   -1.5353   21.8527 C   0  0  0  0  0  0  0  0  0  0  0  0
    5.6021   -1.6572   21.7392 H   0  0  0  0  0  0  0  0  0  0  0  0
    5.4445    0.6405   20.1594 C   0  0  0  0  0  0  0  0  0  0  0  0
    5.0108    0.6290   21.1569 H   0  0  0  0  0  0  0  0  0  0  0  0
    4.8114    1.3082   19.1094 C   0  0  0  0  0  0  0  0  0  0  0  0
    3.8756    1.8401   19.2664 H   0  0  0  0  0  0  0  0  0  0  0  0
  1  2  1  0
  2  3  2  0
  3  4  1  0
  4  5  1  0
  4  6  2  0
  6  7  1  0
  7  8  2  0
  8  9  1  0
  8 10  1  0
 10 11  2  0
 11 12  1  0
 11 13  1  0
 13 14  1  0
 14 15  2  0
 15 16  1  0
 15 17  1  0
 17 18  1  0
 17 19  2  0
 19 20  1  0
 19 21  1  0
 21 22  1  0
 21 23  2  0
 23 24  1  0
 13 25  2  0
 25 26  1  0
  6 27  1  0
 27 28  1  0
 27 29  2  0
 29 30  1  0
 29  2  1  0
 25  7  1  0
 23 14  1  0
M  END
>  <cnnaffinity>  (1) 
-5.13168

>  <filename>  (1) 
Brc1ccc(-c2cncc(-c3cccnc3)c2)cc1

$$$$
