
     RDKit          3D

 27 29  0  0  0  0  0  0  0  0999 V2000
    4.9240    1.8597   17.0302 H   0  0  0  0  0  0  0  0  0  0  0  0
    5.4428    1.3298   17.8241 C   0  0  0  0  0  0  0  0  0  0  0  0
    6.6089    0.7144   17.5524 N   0  0  0  0  0  0  0  0  0  0  0  0
    7.2257    0.0568   18.5584 C   0  0  0  0  0  0  0  0  0  0  0  0
    8.1583   -0.4524   18.3321 H   0  0  0  0  0  0  0  0  0  0  0  0
    6.7176   -0.0144   19.8804 C   0  0  0  0  0  0  0  0  0  0  0  0
    7.3443   -0.7718   20.9001 N   0  0  0  0  0  0  0  0  0  0  0  0
    7.0965   -2.1047   21.1669 C   0  0  0  0  0  0  0  0  0  0  0  0
    6.3579   -2.7249   20.6639 H   0  0  0  0  0  0  0  0  0  0  0  0
    7.8759   -2.5283   22.1268 N   0  0  0  0  0  0  0  0  0  0  0  0
    8.6166   -1.4625   22.5654 N   0  0  0  0  0  0  0  0  0  0  0  0
    8.2804   -0.3967   21.8665 C   0  0  0  0  0  0  0  0  0  0  0  0
    8.8114    0.9528   22.1625 C   0  0  0  0  0  0  0  0  0  0  0  0
    9.8846    1.1330   23.0579 C   0  0  0  0  0  0  0  0  0  0  0  0
   10.3504    0.2780   23.5504 H   0  0  0  0  0  0  0  0  0  0  0  0
   10.3914    2.4127   23.3300 C   0  0  0  0  0  0  0  0  0  0  0  0
   11.2587    2.5260   23.9689 H   0  0  0  0  0  0  0  0  0  0  0  0
    9.8029    3.5500   22.7707 C   0  0  0  0  0  0  0  0  0  0  0  0
   10.5103    5.3061   23.1146 Br  0  0  0  0  0  0  0  0  0  0  0  0
    8.7189    3.3760   21.9077 C   0  0  0  0  0  0  0  0  0  0  0  0
    8.2660    4.2511   21.4579 H   0  0  0  0  0  0  0  0  0  0  0  0
    8.2486    2.0995   21.5745 C   0  0  0  0  0  0  0  0  0  0  0  0
    7.4595    2.0015   20.8361 H   0  0  0  0  0  0  0  0  0  0  0  0
    5.5129    0.6409   20.1479 C   0  0  0  0  0  0  0  0  0  0  0  0
    5.0908    0.6267   21.1519 H   0  0  0  0  0  0  0  0  0  0  0  0
    4.8681    1.3069   19.0990 C   0  0  0  0  0  0  0  0  0  0  0  0
    3.9236    1.8173   19.2528 H   0  0  0  0  0  0  0  0  0  0  0  0
  1  2  1  0
  2  3  2  0
  3  4  1  0
  4  5  1  0
  4  6  2  0
  6  7  1  0
  7  8  1  0
  8  9  1  0
  8 10  2  0
 10 11  1  0
 11 12  2  0
 12 13  1  0
 13 14  2  0
 14 15  1  0
 14 16  1  0
 16 17  1  0
 16 18  2  0
 18 19  1  0
 18 20  1  0
 20 21  1  0
 20 22  2  0
 22 23  1  0
  6 24  1  0
 24 25  1  0
 24 26  2  0
 26 27  1  0
 26  2  1  0
 12  7  1  0
 22 13  1  0
M  END
>  <cnnaffinity>  (1) 
-5.08895

>  <filename>  (1) 
Brc1ccc(-c2nncn2-c2cccnc2)cc1

$$$$
