
     RDKit          3D

 29 31  0  0  0  0  0  0  0  0999 V2000
    8.5230   -1.8046   19.8128 H   0  0  0  0  0  0  0  0  0  0  0  0
    8.2916   -1.5637   20.8416 C   0  0  0  0  0  0  0  0  0  0  0  0
    8.9352   -2.2367   21.8140 N   0  0  0  0  0  0  0  0  0  0  0  0
    8.6507   -1.8155   23.0622 C   0  0  0  0  0  0  0  0  0  0  0  0
    9.1264   -2.3184   23.8918 H   0  0  0  0  0  0  0  0  0  0  0  0
    7.7669   -0.7471   23.3368 C   0  0  0  0  0  0  0  0  0  0  0  0
    7.6332   -0.2322   24.7041 C   0  0  0  0  0  0  0  0  0  0  0  0
    6.5176    0.5430   25.0477 C   0  0  0  0  0  0  0  0  0  0  0  0
    5.7437    0.7267   24.3039 H   0  0  0  0  0  0  0  0  0  0  0  0
    6.4005    1.0829   26.3280 C   0  0  0  0  0  0  0  0  0  0  0  0
    5.5287    1.6762   26.5688 H   0  0  0  0  0  0  0  0  0  0  0  0
    7.3925    0.8770   27.2860 C   0  0  0  0  0  0  0  0  0  0  0  0
    7.2263    1.6503   29.0278 Br  0  0  0  0  0  0  0  0  0  0  0  0
    8.5092    0.1074   26.9489 C   0  0  0  0  0  0  0  0  0  0  0  0
    9.2907   -0.0451   27.6824 H   0  0  0  0  0  0  0  0  0  0  0  0
    8.6322   -0.4525   25.6724 C   0  0  0  0  0  0  0  0  0  0  0  0
    9.5233   -1.0329   25.4378 H   0  0  0  0  0  0  0  0  0  0  0  0
    7.0788   -0.1446   22.3432 N   0  0  0  0  0  0  0  0  0  0  0  0
    7.3309   -0.5532   21.0933 C   0  0  0  0  0  0  0  0  0  0  0  0
    6.6088    0.0926   20.0035 C   0  0  0  0  0  0  0  0  0  0  0  0
    7.1563    0.0404   18.7255 C   0  0  0  0  0  0  0  0  0  0  0  0
    8.0908   -0.4946   18.5889 H   0  0  0  0  0  0  0  0  0  0  0  0
    6.5982    0.6204   17.6573 N   0  0  0  0  0  0  0  0  0  0  0  0
    5.4388    1.2787   17.8267 C   0  0  0  0  0  0  0  0  0  0  0  0
    4.9782    1.7519   16.9607 H   0  0  0  0  0  0  0  0  0  0  0  0
    4.8049    1.3536   19.0726 C   0  0  0  0  0  0  0  0  0  0  0  0
    3.8598    1.8786   19.1572 H   0  0  0  0  0  0  0  0  0  0  0  0
    5.3981    0.7681   20.1913 C   0  0  0  0  0  0  0  0  0  0  0  0
    4.9273    0.8347   21.1731 H   0  0  0  0  0  0  0  0  0  0  0  0
  1  2  1  0
  2  3  2  0
  3  4  1  0
  4  5  1  0
  4  6  2  0
  6  7  1  0
  7  8  2  0
  8  9  1  0
  8 10  1  0
 10 11  1  0
 10 12  2  0
 12 13  1  0
 12 14  1  0
 14 15  1  0
 14 16  2  0
 16 17  1  0
  6 18  1  0
 18 19  2  0
 19 20  1  0
 20 21  2  0
 21 22  1  0
 21 23  1  0
 23 24  2  0
 24 25  1  0
 24 26  1  0
 26 27  1  0
 26 28  2  0
 28 29  1  0
 19  2  1  0
 28 20  1  0
 16  7  1  0
M  END
>  <cnnaffinity>  (1) 
-5.18461

>  <filename>  (1) 
Brc1ccc(-c2cncc(-c3cccnc3)n2)cc1

$$$$
