
     RDKit          3D

 32 34  0  0  0  0  0  0  0  0999 V2000
    6.7607   -1.5149   21.4567 H   0  0  0  0  0  0  0  0  0  0  0  0
    7.3190   -0.7117   20.9784 C   0  0  0  0  0  0  0  0  0  0  0  0
    8.5739   -0.3802   21.4270 C   0  0  0  0  0  0  0  0  0  0  0  0
    9.2824   -1.0353   22.5124 C   0  0  0  0  0  0  0  0  0  0  0  0
    8.7763   -2.1232   23.3563 C   0  0  0  0  0  0  0  0  0  0  0  0
    7.4978   -2.0584   23.9428 C   0  0  0  0  0  0  0  0  0  0  0  0
    6.8557   -1.1963   23.7824 H   0  0  0  0  0  0  0  0  0  0  0  0
    7.0549   -3.0917   24.7773 C   0  0  0  0  0  0  0  0  0  0  0  0
    6.0720   -3.0328   25.2354 H   0  0  0  0  0  0  0  0  0  0  0  0
    7.8712   -4.1970   25.0352 C   0  0  0  0  0  0  0  0  0  0  0  0
    7.2574   -5.6101   26.1686 Br  0  0  0  0  0  0  0  0  0  0  0  0
    9.1450   -4.2611   24.4612 C   0  0  0  0  0  0  0  0  0  0  0  0
    9.7855   -5.1119   24.6667 H   0  0  0  0  0  0  0  0  0  0  0  0
    9.5962   -3.2304   23.6318 C   0  0  0  0  0  0  0  0  0  0  0  0
   10.5937   -3.2943   23.2009 H   0  0  0  0  0  0  0  0  0  0  0  0
   10.4722   -0.5293   22.6912 N   0  0  0  0  0  0  0  0  0  0  0  0
   10.6926    0.5776   21.7453 C   0  0  0  0  0  0  0  0  0  0  0  0
   10.9001    1.5024   22.2930 H   0  0  0  0  0  0  0  0  0  0  0  0
   11.5609    0.3573   21.1207 H   0  0  0  0  0  0  0  0  0  0  0  0
    9.4261    0.7218   20.8972 C   0  0  0  0  0  0  0  0  0  0  0  0
    8.9538    1.6986   21.0419 H   0  0  0  0  0  0  0  0  0  0  0  0
    9.6210    0.5803   19.8340 H   0  0  0  0  0  0  0  0  0  0  0  0
    6.6517    0.0099   19.8968 C   0  0  0  0  0  0  0  0  0  0  0  0
    7.1928    0.0689   18.5994 C   0  0  0  0  0  0  0  0  0  0  0  0
    8.1333   -0.4390   18.3996 H   0  0  0  0  0  0  0  0  0  0  0  0
    6.5762    0.6824   17.5740 N   0  0  0  0  0  0  0  0  0  0  0  0
    5.4025    1.2955   17.8293 C   0  0  0  0  0  0  0  0  0  0  0  0
    4.8893    1.7898   17.0126 H   0  0  0  0  0  0  0  0  0  0  0  0
    4.8140    1.3081   19.1027 C   0  0  0  0  0  0  0  0  0  0  0  0
    3.8784    1.8369   19.2626 H   0  0  0  0  0  0  0  0  0  0  0  0
    5.4368    0.6418   20.1563 C   0  0  0  0  0  0  0  0  0  0  0  0
    5.0058    0.6288   21.1592 H   0  0  0  0  0  0  0  0  0  0  0  0
  1  2  1  0
  2  3  2  3
  3  4  1  0
  4  5  1  0
  5  6  2  0
  6  7  1  0
  6  8  1  0
  8  9  1  0
  8 10  2  0
 10 11  1  0
 10 12  1  0
 12 13  1  0
 12 14  2  0
 14 15  1  0
  4 16  2  0
 16 17  1  0
 17 18  1  0
 17 19  1  0
 17 20  1  0
 20 21  1  0
 20 22  1  0
  2 23  1  0
 23 24  2  0
 24 25  1  0
 24 26  1  0
 26 27  2  0
 27 28  1  0
 27 29  1  0
 29 30  1  0
 29 31  2  0
 31 32  1  0
 20  3  1  0
 31 23  1  0
 14  5  1  0
M  END
>  <cnnaffinity>  (1) 
-5.25198

>  <filename>  (1) 
Brc1ccc(C2=NCCC2=Cc2cccnc2)cc1

$$$$
