
     RDKit          3D

 28 30  0  0  0  0  0  0  0  0999 V2000
    1.6860    1.8356   24.2264 H   0  0  0  0  0  0  0  0  0  0  0  0
    2.5782    1.9852   24.8304 C   0  0  0  0  0  0  0  0  0  0  0  0
    3.7283    1.9889   24.1563 N   0  0  0  0  0  0  0  0  0  0  0  0
    4.8787    2.1132   24.8411 C   0  0  0  0  0  0  0  0  0  0  0  0
    6.0793    1.9255   24.0439 C   0  0  0  0  0  0  0  0  0  0  0  0
    7.0217    1.6617   23.3391 C   0  0  0  0  0  0  0  0  0  0  0  0
    8.1452    1.5602   22.5496 N   0  0  0  0  0  0  0  0  0  0  0  0
    9.1402    2.5043   22.5177 N   0  0  0  0  0  0  0  0  0  0  0  0
   10.0251    2.0564   21.7212 N   0  0  0  0  0  0  0  0  0  0  0  0
    9.6913    0.8493   21.2029 N   0  0  0  0  0  0  0  0  0  0  0  0
    8.5202    0.5585   21.7159 C   0  0  0  0  0  0  0  0  0  0  0  0
    7.5345   -0.8151   21.2015 S   0  0  0  0  0  0  0  0  0  0  0  0
    6.6291   -0.0039   19.8816 C   0  0  0  0  0  0  0  0  0  0  0  0
    7.1438    0.0333   18.5688 C   0  0  0  0  0  0  0  0  0  0  0  0
    8.0934   -0.4553   18.3394 H   0  0  0  0  0  0  0  0  0  0  0  0
    6.5385    0.6646   17.5567 N   0  0  0  0  0  0  0  0  0  0  0  0
    5.3839    1.2990   17.8136 C   0  0  0  0  0  0  0  0  0  0  0  0
    4.9257    1.8230   16.9744 H   0  0  0  0  0  0  0  0  0  0  0  0
    4.7883    1.3105   19.0766 C   0  0  0  0  0  0  0  0  0  0  0  0
    3.8616    1.8487   19.2244 H   0  0  0  0  0  0  0  0  0  0  0  0
    5.4132    0.6427   20.1324 C   0  0  0  0  0  0  0  0  0  0  0  0
    4.9726    0.6286   21.1310 H   0  0  0  0  0  0  0  0  0  0  0  0
    4.9026    2.3341   26.2311 C   0  0  0  0  0  0  0  0  0  0  0  0
    5.8456    2.4373   26.7564 H   0  0  0  0  0  0  0  0  0  0  0  0
    3.6816    2.3650   26.9145 C   0  0  0  0  0  0  0  0  0  0  0  0
    3.6494    2.5188   27.9899 H   0  0  0  0  0  0  0  0  0  0  0  0
    2.4924    2.1447   26.2130 C   0  0  0  0  0  0  0  0  0  0  0  0
    1.5214    2.0783   26.7001 H   0  0  0  0  0  0  0  0  0  0  0  0
  1  2  1  0
  2  3  2  0
  3  4  1  0
  4  5  1  0
  5  6  3  0
  6  7  1  0
  7  8  1  0
  8  9  2  0
  9 10  1  0
 10 11  2  0
 11 12  1  0
 12 13  1  0
 13 14  2  0
 14 15  1  0
 14 16  1  0
 16 17  2  0
 17 18  1  0
 17 19  1  0
 19 20  1  0
 19 21  2  0
 21 22  1  0
  4 23  2  0
 23 24  1  0
 23 25  1  0
 25 26  1  0
 25 27  2  0
 27 28  1  0
 27  2  1  0
 11  7  1  0
 21 13  1  0
M  END
>  <cnnaffinity>  (1) 
-4.73235

>  <filename>  (1) 
C(#Cn1nnnc1Sc1cccnc1)c1ccccn1

$$$$
