
     RDKit          3D

 41 43  0  0  0  0  0  0  0  0999 V2000
    6.6155   -1.0449   21.6974 H   0  0  0  0  0  0  0  0  0  0  0  0
    7.1995   -0.4745   20.9650 C   0  0  0  0  0  0  0  0  0  0  0  0
    8.4884   -0.2111   21.2313 C   0  0  0  0  0  0  0  0  0  0  0  0
    9.2636   -0.8625   22.2832 C   0  0  0  0  0  0  0  0  0  0  0  0
    8.5982   -1.8014   22.9684 O   0  0  0  0  0  0  0  0  0  0  0  0
    9.2302   -2.4163   24.0802 C   0  0  0  0  0  0  0  0  0  0  0  0
   10.1138   -2.9707   23.7414 H   0  0  0  0  0  0  0  0  0  0  0  0
    9.5625   -1.6743   24.8146 H   0  0  0  0  0  0  0  0  0  0  0  0
    8.2061   -3.3549   24.7054 C   0  0  0  0  0  0  0  0  0  0  0  0
    7.3388   -2.7703   25.0470 H   0  0  0  0  0  0  0  0  0  0  0  0
    7.8426   -4.0603   23.9279 H   0  0  0  0  0  0  0  0  0  0  0  0
    8.7906   -4.0459   25.8430 N   0  0  0  0  0  0  0  0  0  0  0  0
    9.9873   -4.8166   25.5218 C   0  0  0  0  0  0  0  0  0  0  0  0
    9.8540   -5.3870   24.5801 H   0  0  0  0  0  0  0  0  0  0  0  0
   10.8427   -4.1465   25.3942 H   0  0  0  0  0  0  0  0  0  0  0  0
   10.1749   -5.7411   26.7185 C   0  0  0  0  0  0  0  0  0  0  0  0
   10.9099   -5.3218   27.4100 H   0  0  0  0  0  0  0  0  0  0  0  0
   10.5434   -6.7176   26.3869 H   0  0  0  0  0  0  0  0  0  0  0  0
    8.7904   -5.7950   27.4087 C   0  0  0  0  0  0  0  0  0  0  0  0
    8.4004   -6.8093   27.5157 H   0  0  0  0  0  0  0  0  0  0  0  0
    8.8506   -5.3605   28.4088 H   0  0  0  0  0  0  0  0  0  0  0  0
    7.8808   -4.9606   26.5084 C   0  0  0  0  0  0  0  0  0  0  0  0
    7.3661   -5.6216   25.7821 H   0  0  0  0  0  0  0  0  0  0  0  0
    7.1155   -4.4018   27.0621 H   0  0  0  0  0  0  0  0  0  0  0  0
   10.4730   -0.4894   22.4464 N   0  0  0  0  0  0  0  0  0  0  0  0
   10.7063    0.6007   21.4961 C   0  0  0  0  0  0  0  0  0  0  0  0
   10.9507    1.5167   22.0453 H   0  0  0  0  0  0  0  0  0  0  0  0
   11.5777    0.3518   20.8867 H   0  0  0  0  0  0  0  0  0  0  0  0
    9.4186    0.8165   20.6495 C   0  0  0  0  0  0  0  0  0  0  0  0
    9.0332    1.8350   20.7677 H   0  0  0  0  0  0  0  0  0  0  0  0
    9.5602    0.6405   19.5819 H   0  0  0  0  0  0  0  0  0  0  0  0
    6.4704    0.0334   19.7980 C   0  0  0  0  0  0  0  0  0  0  0  0
    7.0241    0.0375   18.5032 C   0  0  0  0  0  0  0  0  0  0  0  0
    7.9393   -0.5233   18.3173 H   0  0  0  0  0  0  0  0  0  0  0  0
    6.5048    0.6904   17.4575 N   0  0  0  0  0  0  0  0  0  0  0  0
    5.3617    1.3595   17.6736 C   0  0  0  0  0  0  0  0  0  0  0  0
    4.9861    1.9385   16.8349 H   0  0  0  0  0  0  0  0  0  0  0  0
    4.6654    1.3334   18.8875 C   0  0  0  0  0  0  0  0  0  0  0  0
    3.7396    1.8885   18.9871 H   0  0  0  0  0  0  0  0  0  0  0  0
    5.2121    0.6346   19.9628 C   0  0  0  0  0  0  0  0  0  0  0  0
    4.7049    0.5870   20.9274 H   0  0  0  0  0  0  0  0  0  0  0  0
  1  2  1  0
  2  3  2  3
  3  4  1  0
  4  5  1  0
  5  6  1  0
  6  7  1  0
  6  8  1  0
  6  9  1  0
  9 10  1  0
  9 11  1  0
  9 12  1  0
 12 13  1  0
 13 14  1  0
 13 15  1  0
 13 16  1  0
 16 17  1  0
 16 18  1  0
 16 19  1  0
 19 20  1  0
 19 21  1  0
 19 22  1  0
 22 23  1  0
 22 24  1  0
  4 25  2  0
 25 26  1  0
 26 27  1  0
 26 28  1  0
 26 29  1  0
 29 30  1  0
 29 31  1  0
  2 32  1  0
 32 33  2  0
 33 34  1  0
 33 35  1  0
 35 36  2  0
 36 37  1  0
 36 38  1  0
 38 39  1  0
 38 40  2  0
 40 41  1  0
 29  3  1  0
 40 32  1  0
 22 12  1  0
M  END
>  <cnnaffinity>  (1) 
-4.5455

>  <filename>  (1) 
C(=C1CCN=C1OCCN1CCCC1)c1cccnc1

$$$$
