
     RDKit          3D

 28 30  0  0  0  0  0  0  0  0999 V2000
    9.0195   -1.1255   20.1426 H   0  0  0  0  0  0  0  0  0  0  0  0
    8.4003   -1.0775   21.0390 C   0  0  0  0  0  0  0  0  0  0  0  0
    7.1628   -0.5544   21.0140 C   0  0  0  0  0  0  0  0  0  0  0  0
    6.5762   -0.5638   21.9379 H   0  0  0  0  0  0  0  0  0  0  0  0
    6.5094    0.0850   19.8570 C   0  0  0  0  0  0  0  0  0  0  0  0
    7.0721    0.0877   18.5642 C   0  0  0  0  0  0  0  0  0  0  0  0
    7.9991   -0.4464   18.3640 H   0  0  0  0  0  0  0  0  0  0  0  0
    6.5369    0.7022   17.5030 N   0  0  0  0  0  0  0  0  0  0  0  0
    5.3851    1.3669   17.6865 C   0  0  0  0  0  0  0  0  0  0  0  0
    4.9779    1.8746   16.8109 H   0  0  0  0  0  0  0  0  0  0  0  0
    4.7198    1.4152   18.9165 C   0  0  0  0  0  0  0  0  0  0  0  0
    3.7874    1.9666   18.9953 H   0  0  0  0  0  0  0  0  0  0  0  0
    5.2840    0.7611   20.0123 C   0  0  0  0  0  0  0  0  0  0  0  0
    4.7835    0.7794   20.9839 H   0  0  0  0  0  0  0  0  0  0  0  0
    9.0277   -1.6791   22.2074 C   0  0  0  0  0  0  0  0  0  0  0  0
    8.2813   -1.8060   23.3599 O   0  0  0  0  0  0  0  0  0  0  0  0
    8.9913   -2.6019   24.2022 C   0  0  0  0  0  0  0  0  0  0  0  0
    8.5667   -3.0943   25.4429 C   0  0  0  0  0  0  0  0  0  0  0  0
    7.6045   -2.8249   25.8624 H   0  0  0  0  0  0  0  0  0  0  0  0
    9.4378   -3.9693   26.1020 C   0  0  0  0  0  0  0  0  0  0  0  0
    9.1433   -4.4073   27.0500 H   0  0  0  0  0  0  0  0  0  0  0  0
   10.6917   -4.3196   25.5582 C   0  0  0  0  0  0  0  0  0  0  0  0
   11.3439   -4.9988   26.1047 H   0  0  0  0  0  0  0  0  0  0  0  0
   11.0952   -3.8027   24.3319 C   0  0  0  0  0  0  0  0  0  0  0  0
   12.0576   -4.0685   23.9166 H   0  0  0  0  0  0  0  0  0  0  0  0
   10.2284   -2.9394   23.6310 C   0  0  0  0  0  0  0  0  0  0  0  0
   10.2366   -2.2873   22.3428 C   0  0  0  0  0  0  0  0  0  0  0  0
   11.0517   -2.2611   21.6357 H   0  0  0  0  0  0  0  0  0  0  0  0
  1  2  1  0
  2  3  2  3
  3  4  1  0
  3  5  1  0
  5  6  2  0
  6  7  1  0
  6  8  1  0
  8  9  2  0
  9 10  1  0
  9 11  1  0
 11 12  1  0
 11 13  2  0
 13 14  1  0
  2 15  1  0
 15 16  1  0
 16 17  1  0
 17 18  2  0
 18 19  1  0
 18 20  1  0
 20 21  1  0
 20 22  2  0
 22 23  1  0
 22 24  1  0
 24 25  1  0
 24 26  2  0
 26 27  1  0
 27 28  1  0
 13  5  1  0
 27 15  2  0
 26 17  1  0
M  END
>  <cnnaffinity>  (1) 
-4.72651

>  <filename>  (1) 
C(=Cc1cc2ccccc2o1)c1cccnc1

$$$$
