
     RDKit          3D

 33 35  0  0  0  0  0  0  0  0999 V2000
    6.4645   -1.1998   21.6025 H   0  0  0  0  0  0  0  0  0  0  0  0
    7.0869   -0.5501   20.9787 C   0  0  0  0  0  0  0  0  0  0  0  0
    8.3549   -0.2991   21.3546 C   0  0  0  0  0  0  0  0  0  0  0  0
    9.0887   -0.9782   22.4301 C   0  0  0  0  0  0  0  0  0  0  0  0
    8.4842   -2.0243   23.1167 N   0  0  0  0  0  0  0  0  0  0  0  0
    7.6671   -1.7726   23.6519 H   0  0  0  0  0  0  0  0  0  0  0  0
    9.1456   -2.8473   24.0025 C   0  0  0  0  0  0  0  0  0  0  0  0
    8.3550   -3.1077   25.0441 N   0  0  0  0  0  0  0  0  0  0  0  0
    8.8382   -3.9502   25.9686 C   0  0  0  0  0  0  0  0  0  0  0  0
    8.1771   -4.1690   26.8069 H   0  0  0  0  0  0  0  0  0  0  0  0
   10.1014   -4.5425   25.8982 C   0  0  0  0  0  0  0  0  0  0  0  0
   10.4463   -5.1745   26.7120 H   0  0  0  0  0  0  0  0  0  0  0  0
   10.8972   -4.2802   24.7781 C   0  0  0  0  0  0  0  0  0  0  0  0
   11.8754   -4.7488   24.6715 H   0  0  0  0  0  0  0  0  0  0  0  0
   10.4097   -3.4175   23.7957 C   0  0  0  0  0  0  0  0  0  0  0  0
   10.9526   -3.1548   22.8981 H   0  0  0  0  0  0  0  0  0  0  0  0
   10.2695   -0.5519   22.6620 N   0  0  0  0  0  0  0  0  0  0  0  0
   10.5463    0.5637   21.7486 C   0  0  0  0  0  0  0  0  0  0  0  0
   11.4473    0.3283   21.1664 H   0  0  0  0  0  0  0  0  0  0  0  0
   10.7765    1.4683   22.3264 H   0  0  0  0  0  0  0  0  0  0  0  0
    9.2966    0.7754   20.8537 C   0  0  0  0  0  0  0  0  0  0  0  0
    8.8558    1.7678   20.9917 H   0  0  0  0  0  0  0  0  0  0  0  0
    9.5131    0.6577   19.7892 H   0  0  0  0  0  0  0  0  0  0  0  0
    6.4060    0.0270   19.8063 C   0  0  0  0  0  0  0  0  0  0  0  0
    6.9917    0.0466   18.5247 C   0  0  0  0  0  0  0  0  0  0  0  0
    7.9031   -0.5221   18.3494 H   0  0  0  0  0  0  0  0  0  0  0  0
    6.4979    0.7127   17.4733 N   0  0  0  0  0  0  0  0  0  0  0  0
    5.3546    1.3880   17.6609 C   0  0  0  0  0  0  0  0  0  0  0  0
    4.9965    1.9662   16.8106 H   0  0  0  0  0  0  0  0  0  0  0  0
    4.6339    1.3639   18.8606 C   0  0  0  0  0  0  0  0  0  0  0  0
    3.7125    1.9330   18.9343 H   0  0  0  0  0  0  0  0  0  0  0  0
    5.1512    0.6481   19.9425 C   0  0  0  0  0  0  0  0  0  0  0  0
    4.6089    0.5955   20.8871 H   0  0  0  0  0  0  0  0  0  0  0  0
  1  2  1  0
  2  3  2  3
  3  4  1  0
  4  5  1  0
  5  6  1  0
  5  7  1  0
  7  8  2  0
  8  9  1  0
  9 10  1  0
  9 11  2  0
 11 12  1  0
 11 13  1  0
 13 14  1  0
 13 15  2  0
 15 16  1  0
  4 17  2  0
 17 18  1  0
 18 19  1  0
 18 20  1  0
 18 21  1  0
 21 22  1  0
 21 23  1  0
  2 24  1  0
 24 25  2  0
 25 26  1  0
 25 27  1  0
 27 28  2  0
 28 29  1  0
 28 30  1  0
 30 31  1  0
 30 32  2  0
 32 33  1  0
 21  3  1  0
 32 24  1  0
 15  7  1  0
M  END
>  <cnnaffinity>  (1) 
-4.83489

>  <filename>  (1) 
C(=C1CCN=C1Nc1ccccn1)c1cccnc1

$$$$
