
     RDKit          3D

 34 37  0  0  0  0  0  0  0  0999 V2000
    6.0186    2.0094   24.9738 H   0  0  0  0  0  0  0  0  0  0  0  0
    6.6926    1.2546   25.3678 C   0  0  0  0  0  0  0  0  0  0  0  0
    7.0775    1.1823   26.6505 C   0  0  0  0  0  0  0  0  0  0  0  0
    7.8192    0.4347   26.9461 H   0  0  0  0  0  0  0  0  0  0  0  0
    6.6200    2.0505   27.7404 C   0  0  0  0  0  0  0  0  0  0  0  0
    7.4066    2.1362   28.9053 C   0  0  0  0  0  0  0  0  0  0  0  0
    8.3214    1.5504   28.9688 H   0  0  0  0  0  0  0  0  0  0  0  0
    7.0252    2.9654   29.9588 C   0  0  0  0  0  0  0  0  0  0  0  0
    7.6429    3.0240   30.8508 H   0  0  0  0  0  0  0  0  0  0  0  0
    5.8415    3.7084   29.8678 C   0  0  0  0  0  0  0  0  0  0  0  0
    5.5364    4.3492   30.6901 H   0  0  0  0  0  0  0  0  0  0  0  0
    5.0449    3.6157   28.7216 C   0  0  0  0  0  0  0  0  0  0  0  0
    4.1216    4.1815   28.6447 H   0  0  0  0  0  0  0  0  0  0  0  0
    5.4295    2.7934   27.6629 C   0  0  0  0  0  0  0  0  0  0  0  0
    4.8018    2.7070   26.7795 H   0  0  0  0  0  0  0  0  0  0  0  0
    7.1553    0.3616   24.3297 C   0  0  0  0  0  0  0  0  0  0  0  0
    6.7589    0.5325   23.1063 N   0  0  0  0  0  0  0  0  0  0  0  0
    7.3275   -0.4154   22.3335 N   0  0  0  0  0  0  0  0  0  0  0  0
    7.4048   -0.6686   20.9646 C   0  0  0  0  0  0  0  0  0  0  0  0
    6.6562    0.0293   19.9057 C   0  0  0  0  0  0  0  0  0  0  0  0
    7.1510    0.0761   18.5811 C   0  0  0  0  0  0  0  0  0  0  0  0
    8.1030   -0.3916   18.3354 H   0  0  0  0  0  0  0  0  0  0  0  0
    6.5414    0.6860   17.5604 N   0  0  0  0  0  0  0  0  0  0  0  0
    5.3780    1.3057   17.8137 C   0  0  0  0  0  0  0  0  0  0  0  0
    4.9133    1.8125   16.9668 H   0  0  0  0  0  0  0  0  0  0  0  0
    4.7872    1.3161   19.0804 C   0  0  0  0  0  0  0  0  0  0  0  0
    3.8576    1.8505   19.2277 H   0  0  0  0  0  0  0  0  0  0  0  0
    5.4241    0.6651   20.1399 C   0  0  0  0  0  0  0  0  0  0  0  0
    5.0075    0.6507   21.1444 H   0  0  0  0  0  0  0  0  0  0  0  0
    8.3122   -1.7008   20.9053 C   0  0  0  0  0  0  0  0  0  0  0  0
    8.7181   -2.1148   20.0042 H   0  0  0  0  0  0  0  0  0  0  0  0
    8.7677   -2.1163   22.1239 N   0  0  0  0  0  0  0  0  0  0  0  0
    8.1645   -1.3008   22.9449 C   0  0  0  0  0  0  0  0  0  0  0  0
    8.2626   -0.9784   24.6310 S   0  0  0  0  0  0  0  0  0  0  0  0
  1  2  1  0
  2  3  2  3
  3  4  1  0
  3  5  1  0
  5  6  2  0
  6  7  1  0
  6  8  1  0
  8  9  1  0
  8 10  2  0
 10 11  1  0
 10 12  1  0
 12 13  1  0
 12 14  2  0
 14 15  1  0
  2 16  1  0
 16 17  2  0
 17 18  1  0
 18 19  1  0
 19 20  1  0
 20 21  2  0
 21 22  1  0
 21 23  1  0
 23 24  2  0
 24 25  1  0
 24 26  1  0
 26 27  1  0
 26 28  2  0
 28 29  1  0
 19 30  2  0
 30 31  1  0
 30 32  1  0
 32 33  2  0
 33 34  1  0
 14  5  1  0
 34 16  1  0
 33 18  1  0
 28 20  1  0
M  END
>  <cnnaffinity>  (1) 
-5.25977

>  <filename>  (1) 
C(=Cc1nn2c(-c3cccnc3)cnc2s1)c1ccccc1

$$$$
