
     RDKit          3D

 38 41  0  0  0  0  0  0  0  0999 V2000
    6.5274   -1.2671   21.7629 H   0  0  0  0  0  0  0  0  0  0  0  0
    7.1637   -0.6455   21.1238 C   0  0  0  0  0  0  0  0  0  0  0  0
    8.4361   -0.4195   21.5047 C   0  0  0  0  0  0  0  0  0  0  0  0
    9.1545   -0.9801   22.6929 C   0  0  0  0  0  0  0  0  0  0  0  0
    8.6258   -2.0576   23.6015 C   0  0  0  0  0  0  0  0  0  0  0  0
    8.6308   -1.8666   24.9713 C   0  0  0  0  0  0  0  0  0  0  0  0
    9.1037   -0.9741   25.3782 H   0  0  0  0  0  0  0  0  0  0  0  0
    8.0463   -2.8256   25.8424 C   0  0  0  0  0  0  0  0  0  0  0  0
    8.0620   -2.6385   26.9150 H   0  0  0  0  0  0  0  0  0  0  0  0
    7.4785   -3.9726   25.3358 C   0  0  0  0  0  0  0  0  0  0  0  0
    7.0117   -4.7056   25.9924 H   0  0  0  0  0  0  0  0  0  0  0  0
    7.5516   -4.2603   23.9391 C   0  0  0  0  0  0  0  0  0  0  0  0
    7.0895   -5.5045   23.4143 C   0  0  0  0  0  0  0  0  0  0  0  0
    6.5111   -6.1427   24.0752 H   0  0  0  0  0  0  0  0  0  0  0  0
    7.3719   -5.8786   22.1243 C   0  0  0  0  0  0  0  0  0  0  0  0
    7.1241   -6.8770   21.7681 H   0  0  0  0  0  0  0  0  0  0  0  0
    8.0345   -4.9659   21.2634 C   0  0  0  0  0  0  0  0  0  0  0  0
    8.2537   -5.2604   20.2480 H   0  0  0  0  0  0  0  0  0  0  0  0
    8.4155   -3.7195   21.7037 C   0  0  0  0  0  0  0  0  0  0  0  0
    8.9151   -3.0147   21.0394 H   0  0  0  0  0  0  0  0  0  0  0  0
    8.1867   -3.3230   23.0617 C   0  0  0  0  0  0  0  0  0  0  0  0
   10.3148   -0.4718   22.8775 N   0  0  0  0  0  0  0  0  0  0  0  0
   10.6353    0.4578   21.7905 C   0  0  0  0  0  0  0  0  0  0  0  0
   11.5188    0.0738   21.2703 H   0  0  0  0  0  0  0  0  0  0  0  0
   10.9200    1.4123   22.2363 H   0  0  0  0  0  0  0  0  0  0  0  0
    9.3938    0.5680   20.8672 C   0  0  0  0  0  0  0  0  0  0  0  0
    8.9758    1.5806   20.8494 H   0  0  0  0  0  0  0  0  0  0  0  0
    9.6174    0.2914   19.8346 H   0  0  0  0  0  0  0  0  0  0  0  0
    6.4979   -0.0652   19.9346 C   0  0  0  0  0  0  0  0  0  0  0  0
    7.0877   -0.0346   18.6502 C   0  0  0  0  0  0  0  0  0  0  0  0
    7.9942   -0.6090   18.4602 H   0  0  0  0  0  0  0  0  0  0  0  0
    6.5929    0.6368   17.6004 N   0  0  0  0  0  0  0  0  0  0  0  0
    5.4435    1.3030   17.7889 C   0  0  0  0  0  0  0  0  0  0  0  0
    5.0694    1.8663   16.9350 H   0  0  0  0  0  0  0  0  0  0  0  0
    4.7200    1.2649   18.9886 C   0  0  0  0  0  0  0  0  0  0  0  0
    3.7828    1.8054   19.0670 H   0  0  0  0  0  0  0  0  0  0  0  0
    5.2379    0.5455   20.0669 C   0  0  0  0  0  0  0  0  0  0  0  0
    4.7132    0.4897   21.0239 H   0  0  0  0  0  0  0  0  0  0  0  0
  1  2  1  0
  2  3  2  3
  3  4  1  0
  4  5  1  0
  5  6  2  0
  6  7  1  0
  6  8  1  0
  8  9  1  0
  8 10  2  0
 10 11  1  0
 10 12  1  0
 12 13  2  0
 13 14  1  0
 13 15  1  0
 15 16  1  0
 15 17  2  0
 17 18  1  0
 17 19  1  0
 19 20  1  0
 19 21  2  0
  4 22  2  0
 22 23  1  0
 23 24  1  0
 23 25  1  0
 23 26  1  0
 26 27  1  0
 26 28  1  0
  2 29  1  0
 29 30  2  0
 30 31  1  0
 30 32  1  0
 32 33  2  0
 33 34  1  0
 33 35  1  0
 35 36  1  0
 35 37  2  0
 37 38  1  0
 26  3  1  0
 37 29  1  0
 21  5  1  0
 21 12  1  0
M  END
>  <cnnaffinity>  (1) 
-5.62073

>  <filename>  (1) 
C(=C1CCN=C1c1cccc2ccccc12)c1cccnc1

$$$$
