
     RDKit          3D

 30 32  0  0  0  0  0  0  0  0999 V2000
    6.6177    0.4804   22.6585 H   0  0  0  0  0  0  0  0  0  0  0  0
    7.2893   -0.3026   22.3199 C   0  0  0  0  0  0  0  0  0  0  0  0
    7.4076   -0.5947   21.0143 C   0  0  0  0  0  0  0  0  0  0  0  0
    8.1415   -1.3526   20.7300 H   0  0  0  0  0  0  0  0  0  0  0  0
    6.6448    0.0357   19.9180 C   0  0  0  0  0  0  0  0  0  0  0  0
    7.1573    0.0208   18.5997 C   0  0  0  0  0  0  0  0  0  0  0  0
    8.0840   -0.5137   18.3911 H   0  0  0  0  0  0  0  0  0  0  0  0
    6.5923    0.6323   17.5538 N   0  0  0  0  0  0  0  0  0  0  0  0
    5.4438    1.2922   17.7844 C   0  0  0  0  0  0  0  0  0  0  0  0
    5.0072    1.7922   16.9238 H   0  0  0  0  0  0  0  0  0  0  0  0
    4.8166    1.3407   19.0339 C   0  0  0  0  0  0  0  0  0  0  0  0
    3.8839    1.8842   19.1464 H   0  0  0  0  0  0  0  0  0  0  0  0
    5.4203    0.7009   20.1168 C   0  0  0  0  0  0  0  0  0  0  0  0
    4.9412    0.6980   21.0979 H   0  0  0  0  0  0  0  0  0  0  0  0
    8.0082   -0.9866   23.4073 C   0  0  0  0  0  0  0  0  0  0  0  0
    8.8915   -1.9137   23.0977 N   0  0  0  0  0  0  0  0  0  0  0  0
    9.4312   -2.6409   24.1235 C   0  0  0  0  0  0  0  0  0  0  0  0
   10.4476   -3.5836   23.8129 C   0  0  0  0  0  0  0  0  0  0  0  0
   10.8084   -3.5463   22.7915 H   0  0  0  0  0  0  0  0  0  0  0  0
   10.8910   -4.4742   24.7693 C   0  0  0  0  0  0  0  0  0  0  0  0
   11.6604   -5.2087   24.5492 H   0  0  0  0  0  0  0  0  0  0  0  0
   10.3450   -4.4422   26.0843 C   0  0  0  0  0  0  0  0  0  0  0  0
   10.6336   -5.2114   26.7967 H   0  0  0  0  0  0  0  0  0  0  0  0
    9.4545   -3.4563   26.4462 C   0  0  0  0  0  0  0  0  0  0  0  0
    9.0573   -3.3968   27.4539 H   0  0  0  0  0  0  0  0  0  0  0  0
    9.0186   -2.4997   25.4862 C   0  0  0  0  0  0  0  0  0  0  0  0
    8.1726   -1.3918   25.8025 C   0  0  0  0  0  0  0  0  0  0  0  0
    7.9307   -1.1863   26.8467 H   0  0  0  0  0  0  0  0  0  0  0  0
    7.6925   -0.6261   24.7727 C   0  0  0  0  0  0  0  0  0  0  0  0
    7.0801    0.2513   24.9524 H   0  0  0  0  0  0  0  0  0  0  0  0
  1  2  1  0
  2  3  2  3
  3  4  1  0
  3  5  1  0
  5  6  2  0
  6  7  1  0
  6  8  1  0
  8  9  2  0
  9 10  1  0
  9 11  1  0
 11 12  1  0
 11 13  2  0
 13 14  1  0
  2 15  1  0
 15 16  2  0
 16 17  1  0
 17 18  2  0
 18 19  1  0
 18 20  1  0
 20 21  1  0
 20 22  2  0
 22 23  1  0
 22 24  1  0
 24 25  1  0
 24 26  2  0
 26 27  1  0
 27 28  1  0
 27 29  2  0
 29 30  1  0
 13  5  1  0
 29 15  1  0
 26 17  1  0
M  END
>  <cnnaffinity>  (1) 
-4.94964

>  <filename>  (1) 
C(=Cc1ccc2ccccc2n1)c1cccnc1

$$$$
