
     RDKit          3D

 41 43  0  0  0  0  0  0  0  0999 V2000
    6.6261   -1.3468   21.6771 H   0  0  0  0  0  0  0  0  0  0  0  0
    7.2670   -0.7024   21.0636 C   0  0  0  0  0  0  0  0  0  0  0  0
    8.5438   -0.4790   21.4114 C   0  0  0  0  0  0  0  0  0  0  0  0
    9.3177   -1.0804   22.5138 C   0  0  0  0  0  0  0  0  0  0  0  0
    8.7261   -1.9995   23.2659 O   0  0  0  0  0  0  0  0  0  0  0  0
    9.4870   -2.5707   24.3433 C   0  0  0  0  0  0  0  0  0  0  0  0
   10.4168   -3.0081   23.9538 H   0  0  0  0  0  0  0  0  0  0  0  0
    9.7568   -1.7937   25.0662 H   0  0  0  0  0  0  0  0  0  0  0  0
    8.5902   -3.6368   24.9363 C   0  0  0  0  0  0  0  0  0  0  0  0
    7.6517   -3.1372   25.2295 H   0  0  0  0  0  0  0  0  0  0  0  0
    9.2041   -4.3177   26.1709 C   0  0  0  0  0  0  0  0  0  0  0  0
    9.3280   -3.5983   26.9907 H   0  0  0  0  0  0  0  0  0  0  0  0
   10.2077   -4.6975   25.9133 H   0  0  0  0  0  0  0  0  0  0  0  0
    8.3398   -5.5001   26.6383 C   0  0  0  0  0  0  0  0  0  0  0  0
    8.8428   -6.0330   27.4526 H   0  0  0  0  0  0  0  0  0  0  0  0
    7.3875   -5.1306   27.0492 H   0  0  0  0  0  0  0  0  0  0  0  0
    8.0359   -6.4540   25.5692 N   0  0  0  0  0  0  0  0  0  0  0  0
    8.9188   -6.8783   25.2820 H   0  0  0  0  0  0  0  0  0  0  0  0
    7.4374   -5.8175   24.3909 C   0  0  0  0  0  0  0  0  0  0  0  0
    7.2916   -6.5553   23.5946 H   0  0  0  0  0  0  0  0  0  0  0  0
    6.4339   -5.4519   24.6605 H   0  0  0  0  0  0  0  0  0  0  0  0
    8.2816   -4.6782   23.8474 C   0  0  0  0  0  0  0  0  0  0  0  0
    7.7758   -4.1976   23.0033 H   0  0  0  0  0  0  0  0  0  0  0  0
    9.2338   -5.0941   23.4734 H   0  0  0  0  0  0  0  0  0  0  0  0
   10.5092   -0.6483   22.6848 N   0  0  0  0  0  0  0  0  0  0  0  0
   10.7326    0.4171   21.7242 C   0  0  0  0  0  0  0  0  0  0  0  0
   11.6150    0.1710   21.1293 H   0  0  0  0  0  0  0  0  0  0  0  0
   10.9342    1.3430   22.2761 H   0  0  0  0  0  0  0  0  0  0  0  0
    9.4764    0.5507   20.8322 C   0  0  0  0  0  0  0  0  0  0  0  0
    9.0588    1.5607   20.8534 H   0  0  0  0  0  0  0  0  0  0  0  0
    9.6883    0.3216   19.7894 H   0  0  0  0  0  0  0  0  0  0  0  0
    6.5838   -0.0459   19.9270 C   0  0  0  0  0  0  0  0  0  0  0  0
    7.1274    0.0009   18.6292 C   0  0  0  0  0  0  0  0  0  0  0  0
    8.0501   -0.5424   18.4281 H   0  0  0  0  0  0  0  0  0  0  0  0
    6.5809    0.6523   17.5943 N   0  0  0  0  0  0  0  0  0  0  0  0
    5.4304    1.3054   17.8190 C   0  0  0  0  0  0  0  0  0  0  0  0
    5.0061    1.8467   16.9755 H   0  0  0  0  0  0  0  0  0  0  0  0
    4.7764    1.2952   19.0603 C   0  0  0  0  0  0  0  0  0  0  0  0
    3.8509    1.8409   19.1791 H   0  0  0  0  0  0  0  0  0  0  0  0
    5.3505    0.5944   20.1209 C   0  0  0  0  0  0  0  0  0  0  0  0
    4.8750    0.5694   21.1042 H   0  0  0  0  0  0  0  0  0  0  0  0
  1  2  1  0
  2  3  2  3
  3  4  1  0
  4  5  1  0
  5  6  1  0
  6  7  1  0
  6  8  1  0
  6  9  1  0
  9 10  1  0
  9 11  1  0
 11 12  1  0
 11 13  1  0
 11 14  1  0
 14 15  1  0
 14 16  1  0
 14 17  1  0
 17 18  1  0
 17 19  1  0
 19 20  1  0
 19 21  1  0
 19 22  1  0
 22 23  1  0
 22 24  1  0
  4 25  2  0
 25 26  1  0
 26 27  1  0
 26 28  1  0
 26 29  1  0
 29 30  1  0
 29 31  1  0
  2 32  1  0
 32 33  2  0
 33 34  1  0
 33 35  1  0
 35 36  2  0
 36 37  1  0
 36 38  1  0
 38 39  1  0
 38 40  2  0
 40 41  1  0
 29  3  1  0
 40 32  1  0
 22  9  1  0
M  END
>  <cnnaffinity>  (1) 
-4.75893

>  <filename>  (1) 
C(=C1CCN=C1OCC1CCNCC1)c1cccnc1

$$$$
