
     RDKit          3D

 38 41  0  0  0  0  0  0  0  0999 V2000
    4.9416    1.8031   16.9441 H   0  0  0  0  0  0  0  0  0  0  0  0
    5.4173    1.3086   17.7852 C   0  0  0  0  0  0  0  0  0  0  0  0
    6.5818    0.6936   17.5305 N   0  0  0  0  0  0  0  0  0  0  0  0
    7.2045    0.0986   18.5522 C   0  0  0  0  0  0  0  0  0  0  0  0
    8.1435   -0.4002   18.3151 H   0  0  0  0  0  0  0  0  0  0  0  0
    6.6977    0.0776   19.8644 C   0  0  0  0  0  0  0  0  0  0  0  0
    7.3970   -0.6612   20.9288 C   0  0  0  0  0  0  0  0  0  0  0  0
    8.6084   -1.2083   20.7379 N   0  0  0  0  0  0  0  0  0  0  0  0
    8.8123   -1.8862   21.8932 N   0  0  0  0  0  0  0  0  0  0  0  0
    9.7553   -2.7963   22.3517 C   0  0  0  0  0  0  0  0  0  0  0  0
   10.6951   -2.9196   21.8459 H   0  0  0  0  0  0  0  0  0  0  0  0
    9.2224   -3.3579   23.4673 C   0  0  0  0  0  0  0  0  0  0  0  0
    9.5933   -4.1857   24.0552 H   0  0  0  0  0  0  0  0  0  0  0  0
    8.0084   -2.7338   23.7531 N   0  0  0  0  0  0  0  0  0  0  0  0
    6.9735   -3.1296   24.6895 C   0  0  0  0  0  0  0  0  0  0  0  0
    7.4140   -3.5848   25.5826 H   0  0  0  0  0  0  0  0  0  0  0  0
    6.4734   -2.2153   25.0242 H   0  0  0  0  0  0  0  0  0  0  0  0
    5.9500   -4.0561   24.0156 C   0  0  0  0  0  0  0  0  0  0  0  0
    6.4662   -4.9599   23.6708 H   0  0  0  0  0  0  0  0  0  0  0  0
    5.5878   -3.5332   23.1219 H   0  0  0  0  0  0  0  0  0  0  0  0
    4.8049   -4.4235   24.9254 C   0  0  0  0  0  0  0  0  0  0  0  0
    4.9291   -5.5133   25.8008 C   0  0  0  0  0  0  0  0  0  0  0  0
    5.8375   -6.1143   25.7834 H   0  0  0  0  0  0  0  0  0  0  0  0
    3.9055   -5.8260   26.6993 C   0  0  0  0  0  0  0  0  0  0  0  0
    4.0187   -6.6694   27.3760 H   0  0  0  0  0  0  0  0  0  0  0  0
    2.7436   -5.0479   26.7300 C   0  0  0  0  0  0  0  0  0  0  0  0
    1.9494   -5.2873   27.4316 H   0  0  0  0  0  0  0  0  0  0  0  0
    2.6108   -3.9554   25.8669 C   0  0  0  0  0  0  0  0  0  0  0  0
    1.7131   -3.3433   25.8964 H   0  0  0  0  0  0  0  0  0  0  0  0
    3.6377   -3.6452   24.9690 C   0  0  0  0  0  0  0  0  0  0  0  0
    3.5330   -2.7886   24.3050 H   0  0  0  0  0  0  0  0  0  0  0  0
    7.7718   -1.8224   22.7512 C   0  0  0  0  0  0  0  0  0  0  0  0
    6.8456   -0.9559   22.1973 C   0  0  0  0  0  0  0  0  0  0  0  0
    5.9575   -0.5166   22.6103 H   0  0  0  0  0  0  0  0  0  0  0  0
    5.4654    0.7118   20.1048 C   0  0  0  0  0  0  0  0  0  0  0  0
    5.0112    0.7148   21.0966 H   0  0  0  0  0  0  0  0  0  0  0  0
    4.8178    1.3359   19.0467 C   0  0  0  0  0  0  0  0  0  0  0  0
    3.8704    1.8416   19.1918 H   0  0  0  0  0  0  0  0  0  0  0  0
  1  2  1  0
  2  3  2  0
  3  4  1  0
  4  5  1  0
  4  6  2  0
  6  7  1  0
  7  8  2  0
  8  9  1  0
  9 10  1  0
 10 11  1  0
 10 12  2  0
 12 13  1  0
 12 14  1  0
 14 15  1  0
 15 16  1  0
 15 17  1  0
 15 18  1  0
 18 19  1  0
 18 20  1  0
 18 21  1  0
 21 22  2  0
 22 23  1  0
 22 24  1  0
 24 25  1  0
 24 26  2  0
 26 27  1  0
 26 28  1  0
 28 29  1  0
 28 30  2  0
 30 31  1  0
 14 32  1  0
 32 33  2  0
 33 34  1  0
  6 35  1  0
 35 36  1  0
 35 37  2  0
 37 38  1  0
 37  2  1  0
 33  7  1  0
 32  9  1  0
 30 21  1  0
M  END
>  <cnnaffinity>  (1) 
-5.42976

>  <filename>  (1) 
c1ccc(CCn2ccn3nc(-c4cccnc4)cc23)cc1

$$$$
