
     RDKit          3D

 32 34  0  0  0  0  0  0  0  0999 V2000
    4.9577    1.8346   16.9825 H   0  0  0  0  0  0  0  0  0  0  0  0
    5.4095    1.3037   17.8197 C   0  0  0  0  0  0  0  0  0  0  0  0
    6.5482    0.6424   17.5642 N   0  0  0  0  0  0  0  0  0  0  0  0
    7.1362   -0.0017   18.5804 C   0  0  0  0  0  0  0  0  0  0  0  0
    8.0547   -0.5336   18.3422 H   0  0  0  0  0  0  0  0  0  0  0  0
    6.6288   -0.0295   19.8995 C   0  0  0  0  0  0  0  0  0  0  0  0
    7.2738   -0.7493   20.9568 N   0  0  0  0  0  0  0  0  0  0  0  0
    6.6926   -1.6842   21.7814 C   0  0  0  0  0  0  0  0  0  0  0  0
    5.6603   -1.9936   21.6855 H   0  0  0  0  0  0  0  0  0  0  0  0
    7.5503   -2.1575   22.6394 N   0  0  0  0  0  0  0  0  0  0  0  0
    8.7460   -1.5259   22.4103 N   0  0  0  0  0  0  0  0  0  0  0  0
    8.5786   -0.6789   21.4302 C   0  0  0  0  0  0  0  0  0  0  0  0
    9.6742    0.1983   20.8465 C   0  0  0  0  0  0  0  0  0  0  0  0
   10.3952   -0.4846   20.3814 H   0  0  0  0  0  0  0  0  0  0  0  0
    9.2409    0.8082   20.0483 H   0  0  0  0  0  0  0  0  0  0  0  0
   10.4324    1.0709   21.7339 N   0  0  0  0  0  0  0  0  0  0  0  0
   11.2002    0.6144   22.2106 H   0  0  0  0  0  0  0  0  0  0  0  0
    9.8369    2.0622   22.5148 C   0  0  0  0  0  0  0  0  0  0  0  0
   10.6431    2.7238   23.4608 C   0  0  0  0  0  0  0  0  0  0  0  0
   11.6788    2.4165   23.5738 H   0  0  0  0  0  0  0  0  0  0  0  0
   10.1148    3.7432   24.2528 C   0  0  0  0  0  0  0  0  0  0  0  0
   10.7665    4.2749   24.9411 H   0  0  0  0  0  0  0  0  0  0  0  0
    8.7595    4.0741   24.1619 C   0  0  0  0  0  0  0  0  0  0  0  0
    8.3348    4.8305   24.8167 H   0  0  0  0  0  0  0  0  0  0  0  0
    7.9450    3.3977   23.2502 C   0  0  0  0  0  0  0  0  0  0  0  0
    6.8767    3.5968   23.2262 H   0  0  0  0  0  0  0  0  0  0  0  0
    8.4832    2.4271   22.3952 C   0  0  0  0  0  0  0  0  0  0  0  0
    7.8480    1.9216   21.6715 H   0  0  0  0  0  0  0  0  0  0  0  0
    5.4304    0.6516   20.1454 C   0  0  0  0  0  0  0  0  0  0  0  0
    4.9999    0.6601   21.1485 H   0  0  0  0  0  0  0  0  0  0  0  0
    4.8147    1.3258   19.0850 C   0  0  0  0  0  0  0  0  0  0  0  0
    3.8882    1.8687   19.2283 H   0  0  0  0  0  0  0  0  0  0  0  0
  1  2  1  0
  2  3  2  0
  3  4  1  0
  4  5  1  0
  4  6  2  0
  6  7  1  0
  7  8  1  0
  8  9  1  0
  8 10  2  0
 10 11  1  0
 11 12  2  0
 12 13  1  0
 13 14  1  0
 13 15  1  0
 13 16  1  0
 16 17  1  0
 16 18  1  0
 18 19  2  0
 19 20  1  0
 19 21  1  0
 21 22  1  0
 21 23  2  0
 23 24  1  0
 23 25  1  0
 25 26  1  0
 25 27  2  0
 27 28  1  0
  6 29  1  0
 29 30  1  0
 29 31  2  0
 31 32  1  0
 31  2  1  0
 12  7  1  0
 27 18  1  0
M  END
>  <cnnaffinity>  (1) 
-5.11972

>  <filename>  (1) 
c1ccc(NCc2nncn2-c2cccnc2)cc1

$$$$
