
     RDKit          3D

 31 33  0  0  0  0  0  0  0  0999 V2000
   11.0101    3.9414   24.8630 H   0  0  0  0  0  0  0  0  0  0  0  0
   10.2573    3.5203   24.2077 C   0  0  0  0  0  0  0  0  0  0  0  0
   10.7053    2.5861   23.3727 N   0  0  0  0  0  0  0  0  0  0  0  0
    9.8241    2.0944   22.4954 C   0  0  0  0  0  0  0  0  0  0  0  0
   10.4131    1.1456   21.7130 N   0  0  0  0  0  0  0  0  0  0  0  0
   11.2393    0.8787   22.2381 H   0  0  0  0  0  0  0  0  0  0  0  0
    9.6919    0.2273   20.8477 C   0  0  0  0  0  0  0  0  0  0  0  0
    9.2354    0.8179   20.0495 H   0  0  0  0  0  0  0  0  0  0  0  0
   10.4321   -0.4286   20.3735 H   0  0  0  0  0  0  0  0  0  0  0  0
    8.6039   -0.6629   21.4294 C   0  0  0  0  0  0  0  0  0  0  0  0
    8.7837   -1.5279   22.3918 N   0  0  0  0  0  0  0  0  0  0  0  0
    7.5909   -2.1607   22.6258 N   0  0  0  0  0  0  0  0  0  0  0  0
    6.7216   -1.6679   21.7888 C   0  0  0  0  0  0  0  0  0  0  0  0
    5.6869   -1.9677   21.7175 H   0  0  0  0  0  0  0  0  0  0  0  0
    7.2925   -0.7194   20.9702 N   0  0  0  0  0  0  0  0  0  0  0  0
    6.6453   -0.0067   19.9009 C   0  0  0  0  0  0  0  0  0  0  0  0
    7.1532    0.0262   18.5790 C   0  0  0  0  0  0  0  0  0  0  0  0
    8.0841   -0.4876   18.3369 H   0  0  0  0  0  0  0  0  0  0  0  0
    6.5487    0.6564   17.5625 N   0  0  0  0  0  0  0  0  0  0  0  0
    5.4021    1.3030   17.8237 C   0  0  0  0  0  0  0  0  0  0  0  0
    4.9415    1.8262   16.9886 H   0  0  0  0  0  0  0  0  0  0  0  0
    4.8073    1.3189   19.0890 C   0  0  0  0  0  0  0  0  0  0  0  0
    3.8773    1.8566   19.2363 H   0  0  0  0  0  0  0  0  0  0  0  0
    5.4340    0.6508   20.1460 C   0  0  0  0  0  0  0  0  0  0  0  0
    5.0067    0.6510   21.1510 H   0  0  0  0  0  0  0  0  0  0  0  0
    8.4723    2.4783   22.4181 C   0  0  0  0  0  0  0  0  0  0  0  0
    7.8279    1.9955   21.6866 H   0  0  0  0  0  0  0  0  0  0  0  0
    8.0174    3.4179   23.3394 C   0  0  0  0  0  0  0  0  0  0  0  0
    6.9693    3.7282   23.3357 H   0  0  0  0  0  0  0  0  0  0  0  0
    8.9289    3.9535   24.2583 C   0  0  0  0  0  0  0  0  0  0  0  0
    8.6244    4.6841   24.9934 H   0  0  0  0  0  0  0  0  0  0  0  0
  1  2  1  0
  2  3  2  0
  3  4  1  0
  4  5  1  0
  5  6  1  0
  5  7  1  0
  7  8  1  0
  7  9  1  0
  7 10  1  0
 10 11  2  0
 11 12  1  0
 12 13  2  0
 13 14  1  0
 13 15  1  0
 15 16  1  0
 16 17  2  0
 17 18  1  0
 17 19  1  0
 19 20  2  0
 20 21  1  0
 20 22  1  0
 22 23  1  0
 22 24  2  0
 24 25  1  0
  4 26  2  0
 26 27  1  0
 26 28  1  0
 28 29  1  0
 28 30  2  0
 30 31  1  0
 30  2  1  0
 15 10  1  0
 24 16  1  0
M  END
>  <cnnaffinity>  (1) 
-5.0418

>  <filename>  (1) 
c1ccc(NCc2nncn2-c2cccnc2)nc1

$$$$
