
     RDKit          3D

 34 37  0  0  0  0  0  0  0  0999 V2000
    4.9678    1.7892   16.9714 H   0  0  0  0  0  0  0  0  0  0  0  0
    5.4191    1.2971   17.8286 C   0  0  0  0  0  0  0  0  0  0  0  0
    6.5858    0.6725   17.6002 N   0  0  0  0  0  0  0  0  0  0  0  0
    7.1646    0.0723   18.6506 C   0  0  0  0  0  0  0  0  0  0  0  0
    8.1134   -0.4266   18.4459 H   0  0  0  0  0  0  0  0  0  0  0  0
    6.6297    0.0506   19.9532 C   0  0  0  0  0  0  0  0  0  0  0  0
    7.3551   -0.6507   21.0791 C   0  0  0  0  0  0  0  0  0  0  0  0
    8.4229    0.1320   21.8034 C   0  0  0  0  0  0  0  0  0  0  0  0
    9.6642    0.3158   21.4883 N   0  0  0  0  0  0  0  0  0  0  0  0
   10.2032    1.1799   22.4384 N   0  0  0  0  0  0  0  0  0  0  0  0
    9.2410    1.4485   23.2584 C   0  0  0  0  0  0  0  0  0  0  0  0
    9.2232    2.5413   24.6460 S   0  0  0  0  0  0  0  0  0  0  0  0
    8.6970    4.0153   23.7586 C   0  0  0  0  0  0  0  0  0  0  0  0
    7.3394    4.3517   23.6201 C   0  0  0  0  0  0  0  0  0  0  0  0
    6.5656    3.7487   24.0946 H   0  0  0  0  0  0  0  0  0  0  0  0
    6.9804    5.4537   22.8320 C   0  0  0  0  0  0  0  0  0  0  0  0
    5.9303    5.6950   22.6800 H   0  0  0  0  0  0  0  0  0  0  0  0
    7.9638    6.2338   22.2111 C   0  0  0  0  0  0  0  0  0  0  0  0
    7.6824    7.0772   21.5833 H   0  0  0  0  0  0  0  0  0  0  0  0
    9.3134    5.9074   22.3725 C   0  0  0  0  0  0  0  0  0  0  0  0
   10.0836    6.4921   21.8771 H   0  0  0  0  0  0  0  0  0  0  0  0
    9.6804    4.7938   23.1315 C   0  0  0  0  0  0  0  0  0  0  0  0
   10.7242    4.5000   23.2166 H   0  0  0  0  0  0  0  0  0  0  0  0
    8.0930    0.8143   22.9406 O   0  0  0  0  0  0  0  0  0  0  0  0
    7.5940   -2.1323   20.8898 C   0  0  0  0  0  0  0  0  0  0  0  0
    8.5847   -2.5199   21.1300 H   0  0  0  0  0  0  0  0  0  0  0  0
    7.1000   -2.5583   20.0226 H   0  0  0  0  0  0  0  0  0  0  0  0
    6.6019   -1.6685   21.9141 C   0  0  0  0  0  0  0  0  0  0  0  0
    6.8471   -1.7065   22.9689 H   0  0  0  0  0  0  0  0  0  0  0  0
    5.5459   -1.8352   21.6879 H   0  0  0  0  0  0  0  0  0  0  0  0
    5.4043    0.7016   20.1583 C   0  0  0  0  0  0  0  0  0  0  0  0
    4.9567    0.7148   21.1548 H   0  0  0  0  0  0  0  0  0  0  0  0
    4.7906    1.3350   19.0766 C   0  0  0  0  0  0  0  0  0  0  0  0
    3.8513    1.8649   19.1909 H   0  0  0  0  0  0  0  0  0  0  0  0
  1  2  1  0
  2  3  2  0
  3  4  1  0
  4  5  1  0
  4  6  2  0
  6  7  1  0
  7  8  1  0
  8  9  2  0
  9 10  1  0
 10 11  2  0
 11 12  1  0
 12 13  1  0
 13 14  2  0
 14 15  1  0
 14 16  1  0
 16 17  1  0
 16 18  2  0
 18 19  1  0
 18 20  1  0
 20 21  1  0
 20 22  2  0
 22 23  1  0
 11 24  1  0
  7 25  1  0
 25 26  1  0
 25 27  1  0
 25 28  1  0
 28 29  1  0
 28 30  1  0
  6 31  1  0
 31 32  1  0
 31 33  2  0
 33 34  1  0
 33  2  1  0
 28  7  1  0
 24  8  1  0
 22 13  1  0
M  END
>  <cnnaffinity>  (1) 
-5.43378

>  <filename>  (1) 
c1ccc(Sc2nnc(C3(c4cccnc4)CC3)o2)cc1

$$$$
