
     RDKit          3D

 40 42  0  0  0  0  0  0  0  0999 V2000
    4.9127    1.8563   16.8902 H   0  0  0  0  0  0  0  0  0  0  0  0
    5.3965    1.3745   17.7367 C   0  0  0  0  0  0  0  0  0  0  0  0
    6.5521    0.7423   17.4758 N   0  0  0  0  0  0  0  0  0  0  0  0
    7.1716    0.1416   18.5023 C   0  0  0  0  0  0  0  0  0  0  0  0
    8.1086   -0.3684   18.2791 H   0  0  0  0  0  0  0  0  0  0  0  0
    6.6933    0.1369   19.8376 C   0  0  0  0  0  0  0  0  0  0  0  0
    7.3831   -0.5423   20.8698 N   0  0  0  0  0  0  0  0  0  0  0  0
    7.4957   -1.9959   20.8028 C   0  0  0  0  0  0  0  0  0  0  0  0
    8.5509   -2.3163   20.7861 H   0  0  0  0  0  0  0  0  0  0  0  0
    7.0378   -2.2982   19.8558 H   0  0  0  0  0  0  0  0  0  0  0  0
    6.7925   -2.7903   21.9061 C   0  0  0  0  0  0  0  0  0  0  0  0
    6.7089   -3.8271   21.5619 H   0  0  0  0  0  0  0  0  0  0  0  0
    5.7671   -2.4131   22.0601 H   0  0  0  0  0  0  0  0  0  0  0  0
    7.5498   -2.8273   23.1514 N   0  0  0  0  0  0  0  0  0  0  0  0
    7.1242   -3.8732   23.9718 N   0  0  0  0  0  0  0  0  0  0  0  0
    6.3273   -3.6571   24.5699 H   0  0  0  0  0  0  0  0  0  0  0  0
    8.1103   -4.6240   24.6315 C   0  0  0  0  0  0  0  0  0  0  0  0
    7.7056   -5.4777   25.6688 C   0  0  0  0  0  0  0  0  0  0  0  0
    6.6592   -5.4626   25.9598 H   0  0  0  0  0  0  0  0  0  0  0  0
    8.6378   -6.2954   26.3021 C   0  0  0  0  0  0  0  0  0  0  0  0
    8.3376   -6.9303   27.1321 H   0  0  0  0  0  0  0  0  0  0  0  0
    9.9749   -6.2806   25.8923 C   0  0  0  0  0  0  0  0  0  0  0  0
   10.6729   -7.0088   26.2861 H   0  0  0  0  0  0  0  0  0  0  0  0
   10.3987   -5.3794   24.9130 C   0  0  0  0  0  0  0  0  0  0  0  0
   11.4514   -5.3250   24.6433 H   0  0  0  0  0  0  0  0  0  0  0  0
    9.4704   -4.5482   24.2901 C   0  0  0  0  0  0  0  0  0  0  0  0
    9.7724   -3.8035   23.5600 H   0  0  0  0  0  0  0  0  0  0  0  0
    7.7189   -1.5662   23.8712 C   0  0  0  0  0  0  0  0  0  0  0  0
    6.7367   -1.1395   24.1573 H   0  0  0  0  0  0  0  0  0  0  0  0
    8.2360   -1.8014   24.8101 H   0  0  0  0  0  0  0  0  0  0  0  0
    8.5468   -0.5334   23.1030 C   0  0  0  0  0  0  0  0  0  0  0  0
    8.9305    0.2023   23.8213 H   0  0  0  0  0  0  0  0  0  0  0  0
    9.4191   -1.0250   22.6555 H   0  0  0  0  0  0  0  0  0  0  0  0
    7.7665    0.2334   22.0372 C   0  0  0  0  0  0  0  0  0  0  0  0
    6.8745    0.6794   22.5126 H   0  0  0  0  0  0  0  0  0  0  0  0
    8.3684    1.0908   21.6966 H   0  0  0  0  0  0  0  0  0  0  0  0
    5.4834    0.8075   20.0807 C   0  0  0  0  0  0  0  0  0  0  0  0
    5.0756    0.8105   21.0922 H   0  0  0  0  0  0  0  0  0  0  0  0
    4.8237    1.4275   19.0133 C   0  0  0  0  0  0  0  0  0  0  0  0
    3.8914    1.9587   19.1660 H   0  0  0  0  0  0  0  0  0  0  0  0
  1  2  1  0
  2  3  2  0
  3  4  1  0
  4  5  1  0
  4  6  2  0
  6  7  1  0
  7  8  1  0
  8  9  1  0
  8 10  1  0
  8 11  1  0
 11 12  1  0
 11 13  1  0
 11 14  1  0
 14 15  1  0
 15 16  1  0
 15 17  1  0
 17 18  2  0
 18 19  1  0
 18 20  1  0
 20 21  1  0
 20 22  2  0
 22 23  1  0
 22 24  1  0
 24 25  1  0
 24 26  2  0
 26 27  1  0
 14 28  1  0
 28 29  1  0
 28 30  1  0
 28 31  1  0
 31 32  1  0
 31 33  1  0
 31 34  1  0
 34 35  1  0
 34 36  1  0
  6 37  1  0
 37 38  1  0
 37 39  2  0
 39 40  1  0
 39  2  1  0
 34  7  1  0
 26 17  1  0
M  END
>  <cnnaffinity>  (1) 
-4.92498

>  <filename>  (1) 
c1ccc(NN2CCCN(c3cccnc3)CC2)cc1

$$$$
