
     RDKit          3D

 29 31  0  0  0  0  0  0  0  0999 V2000
    4.9266    1.7798   16.9954 H   0  0  0  0  0  0  0  0  0  0  0  0
    5.4035    1.2901   17.8384 C   0  0  0  0  0  0  0  0  0  0  0  0
    6.5672    0.6724   17.5841 N   0  0  0  0  0  0  0  0  0  0  0  0
    7.1725    0.0627   18.6048 C   0  0  0  0  0  0  0  0  0  0  0  0
    8.1218   -0.4206   18.3827 H   0  0  0  0  0  0  0  0  0  0  0  0
    6.6412    0.0088   19.9039 C   0  0  0  0  0  0  0  0  0  0  0  0
    7.3998   -0.7030   20.9212 C   0  0  0  0  0  0  0  0  0  0  0  0
    8.6524   -1.0790   20.8077 N   0  0  0  0  0  0  0  0  0  0  0  0
    8.9687   -1.6692   21.9958 C   0  0  0  0  0  0  0  0  0  0  0  0
    9.9362   -2.0962   22.1953 H   0  0  0  0  0  0  0  0  0  0  0  0
    7.8966   -1.6646   22.8546 C   0  0  0  0  0  0  0  0  0  0  0  0
    7.6470   -2.4543   24.4059 S   0  0  0  0  0  0  0  0  0  0  0  0
    7.1235   -4.0417   23.7613 C   0  0  0  0  0  0  0  0  0  0  0  0
    8.0719   -5.0161   23.4168 C   0  0  0  0  0  0  0  0  0  0  0  0
    9.1305   -4.8173   23.5749 H   0  0  0  0  0  0  0  0  0  0  0  0
    7.6493   -6.2274   22.8609 C   0  0  0  0  0  0  0  0  0  0  0  0
    8.3852   -6.9891   22.6147 H   0  0  0  0  0  0  0  0  0  0  0  0
    6.2853   -6.4605   22.6446 C   0  0  0  0  0  0  0  0  0  0  0  0
    5.9550   -7.4097   22.2315 H   0  0  0  0  0  0  0  0  0  0  0  0
    5.3424   -5.4777   22.9681 C   0  0  0  0  0  0  0  0  0  0  0  0
    4.2823   -5.6514   22.8037 H   0  0  0  0  0  0  0  0  0  0  0  0
    5.7612   -4.2654   23.5216 C   0  0  0  0  0  0  0  0  0  0  0  0
    5.0407   -3.4855   23.7641 H   0  0  0  0  0  0  0  0  0  0  0  0
    6.8917   -1.0489   22.1349 N   0  0  0  0  0  0  0  0  0  0  0  0
    5.9348   -0.9378   22.4173 H   0  0  0  0  0  0  0  0  0  0  0  0
    5.4206    0.6564   20.1582 C   0  0  0  0  0  0  0  0  0  0  0  0
    4.9780    0.6612   21.1594 H   0  0  0  0  0  0  0  0  0  0  0  0
    4.8012    1.3128   19.1013 C   0  0  0  0  0  0  0  0  0  0  0  0
    3.8708    1.8451   19.2552 H   0  0  0  0  0  0  0  0  0  0  0  0
  1  2  1  0
  2  3  2  0
  3  4  1  0
  4  5  1  0
  4  6  2  0
  6  7  1  0
  7  8  2  0
  8  9  1  0
  9 10  1  0
  9 11  2  0
 11 12  1  0
 12 13  1  0
 13 14  2  0
 14 15  1  0
 14 16  1  0
 16 17  1  0
 16 18  2  0
 18 19  1  0
 18 20  1  0
 20 21  1  0
 20 22  2  0
 22 23  1  0
 11 24  1  0
 24 25  1  0
  6 26  1  0
 26 27  1  0
 26 28  2  0
 28 29  1  0
 28  2  1  0
 24  7  1  0
 22 13  1  0
M  END
>  <cnnaffinity>  (1) 
-5.29726

>  <filename>  (1) 
c1ccc(Sc2cnc(-c3cccnc3)[nH]2)cc1

$$$$
