
     RDKit          3D

 34 37  0  0  0  0  0  0  0  0999 V2000
    5.0075    1.8046   16.9640 H   0  0  0  0  0  0  0  0  0  0  0  0
    5.4656    1.3013   17.8114 C   0  0  0  0  0  0  0  0  0  0  0  0
    6.6195    0.6592   17.5570 N   0  0  0  0  0  0  0  0  0  0  0  0
    7.2121    0.0190   18.5649 C   0  0  0  0  0  0  0  0  0  0  0  0
    8.1234   -0.5351   18.3450 H   0  0  0  0  0  0  0  0  0  0  0  0
    6.7075    0.0129   19.8746 C   0  0  0  0  0  0  0  0  0  0  0  0
    7.4403   -0.6556   20.8920 N   0  0  0  0  0  0  0  0  0  0  0  0
    7.9607   -1.8805   20.6842 N   0  0  0  0  0  0  0  0  0  0  0  0
    8.5752   -2.2431   21.7610 N   0  0  0  0  0  0  0  0  0  0  0  0
    8.4590   -1.2535   22.6860 C   0  0  0  0  0  0  0  0  0  0  0  0
    8.9173   -1.3367   23.6571 H   0  0  0  0  0  0  0  0  0  0  0  0
    7.7317   -0.2131   22.1562 C   0  0  0  0  0  0  0  0  0  0  0  0
    7.2947    1.1031   22.6545 C   0  0  1  0  0  0  0  0  0  0  0  0
    7.4675    1.9119   21.9358 H   0  0  0  0  0  0  0  0  0  0  0  0
    6.0622    1.2463   23.5143 C   0  0  0  0  0  0  0  0  0  0  0  0
    5.5339    0.3330   23.7825 H   0  0  0  0  0  0  0  0  0  0  0  0
    5.4345    2.1108   23.3176 H   0  0  0  0  0  0  0  0  0  0  0  0
    7.4202    1.4823   24.1151 C   0  0  2  0  0  0  0  0  0  0  0  0
    7.7668    0.6828   24.7707 H   0  0  0  0  0  0  0  0  0  0  0  0
    7.8649    2.8640   24.4913 C   0  0  0  0  0  0  0  0  0  0  0  0
    8.6274    3.0886   25.6509 C   0  0  0  0  0  0  0  0  0  0  0  0
    8.9338    2.2583   26.2875 H   0  0  0  0  0  0  0  0  0  0  0  0
    8.9985    4.3817   26.0282 C   0  0  0  0  0  0  0  0  0  0  0  0
    9.5821    4.5340   26.9321 H   0  0  0  0  0  0  0  0  0  0  0  0
    8.6250    5.4791   25.2427 C   0  0  0  0  0  0  0  0  0  0  0  0
    8.9217    6.4829   25.5244 H   0  0  0  0  0  0  0  0  0  0  0  0
    7.8754    5.2718   24.0801 C   0  0  0  0  0  0  0  0  0  0  0  0
    7.5752    6.1170   23.4644 H   0  0  0  0  0  0  0  0  0  0  0  0
    7.5022    3.9794   23.7070 C   0  0  0  0  0  0  0  0  0  0  0  0
    6.9042    3.8563   22.8057 H   0  0  0  0  0  0  0  0  0  0  0  0
    5.4944    0.6625   20.1335 C   0  0  0  0  0  0  0  0  0  0  0  0
    5.0488    0.6469   21.1263 H   0  0  0  0  0  0  0  0  0  0  0  0
    4.8596    1.3104   19.0705 C   0  0  0  0  0  0  0  0  0  0  0  0
    3.9105    1.8189   19.2044 H   0  0  0  0  0  0  0  0  0  0  0  0
  1  2  1  0
  2  3  2  0
  3  4  1  0
  4  5  1  0
  4  6  2  0
  6  7  1  0
  7  8  1  0
  8  9  2  0
  9 10  1  0
 10 11  1  0
 10 12  2  0
 12 13  1  0
 13 14  1  6
 13 15  1  0
 15 16  1  0
 15 17  1  0
 15 18  1  0
 18 19  1  1
 18 20  1  0
 20 21  2  0
 21 22  1  0
 21 23  1  0
 23 24  1  0
 23 25  2  0
 25 26  1  0
 25 27  1  0
 27 28  1  0
 27 29  2  0
 29 30  1  0
  6 31  1  0
 31 32  1  0
 31 33  2  0
 33 34  1  0
 33  2  1  0
 12  7  1  0
 18 13  1  0
 29 20  1  0
M  END
>  <cnnaffinity>  (1) 
-5.13017

>  <filename>  (1) 
c1ccc([C@H]2C[C@@H]2c2cnnn2-c2cccnc2)cc1

$$$$
