
     RDKit          3D

 39 41  0  0  0  0  0  0  0  0999 V2000
   12.1941   -5.5913   25.3989 H   0  0  0  0  0  0  0  0  0  0  0  0
   11.2952   -5.0263   25.1716 C   0  0  0  0  0  0  0  0  0  0  0  0
   11.4377   -4.1490   24.1842 N   0  0  0  0  0  0  0  0  0  0  0  0
   10.3494   -3.4634   23.8166 C   0  0  0  0  0  0  0  0  0  0  0  0
   10.6350   -2.6353   22.7671 N   0  0  0  0  0  0  0  0  0  0  0  0
   11.6165   -2.7660   22.5460 H   0  0  0  0  0  0  0  0  0  0  0  0
    9.7823   -1.7142   22.2040 N   0  0  0  0  0  0  0  0  0  0  0  0
    9.1571   -2.1016   20.9357 C   0  0  0  0  0  0  0  0  0  0  0  0
    9.4067   -3.1422   20.7213 H   0  0  0  0  0  0  0  0  0  0  0  0
    9.5492   -1.4959   20.1061 H   0  0  0  0  0  0  0  0  0  0  0  0
    7.6312   -1.9567   21.0477 C   0  0  0  0  0  0  0  0  0  0  0  0
    7.3304   -2.4951   21.9611 H   0  0  0  0  0  0  0  0  0  0  0  0
    7.1265   -2.4505   20.2073 H   0  0  0  0  0  0  0  0  0  0  0  0
    7.1320   -0.5894   21.1393 N   0  0  0  0  0  0  0  0  0  0  0  0
    6.5950    0.0508   19.9930 C   0  0  0  0  0  0  0  0  0  0  0  0
    7.1451    0.0013   18.6840 C   0  0  0  0  0  0  0  0  0  0  0  0
    8.0620   -0.5589   18.5036 H   0  0  0  0  0  0  0  0  0  0  0  0
    6.6147    0.6137   17.6118 N   0  0  0  0  0  0  0  0  0  0  0  0
    5.4797    1.3071   17.7918 C   0  0  0  0  0  0  0  0  0  0  0  0
    5.0697    1.7950   16.9090 H   0  0  0  0  0  0  0  0  0  0  0  0
    4.8339    1.4077   19.0301 C   0  0  0  0  0  0  0  0  0  0  0  0
    3.9163    1.9806   19.1174 H   0  0  0  0  0  0  0  0  0  0  0  0
    5.4034    0.7813   20.1415 C   0  0  0  0  0  0  0  0  0  0  0  0
    4.9546    0.8127   21.1343 H   0  0  0  0  0  0  0  0  0  0  0  0
    7.6987    0.2479   22.2059 C   0  0  0  0  0  0  0  0  0  0  0  0
    7.0514    1.1267   22.3366 H   0  0  0  0  0  0  0  0  0  0  0  0
    7.6577   -0.3181   23.1489 H   0  0  0  0  0  0  0  0  0  0  0  0
    9.1520    0.7035   21.9411 C   0  0  0  0  0  0  0  0  0  0  0  0
    9.2476    0.9831   20.8819 H   0  0  0  0  0  0  0  0  0  0  0  0
    9.3538    1.6127   22.5198 H   0  0  0  0  0  0  0  0  0  0  0  0
   10.2369   -0.3292   22.3112 C   0  0  0  0  0  0  0  0  0  0  0  0
   11.1359   -0.1728   21.6868 H   0  0  0  0  0  0  0  0  0  0  0  0
   10.5441   -0.1940   23.3537 H   0  0  0  0  0  0  0  0  0  0  0  0
    9.0796   -3.6205   24.4045 C   0  0  0  0  0  0  0  0  0  0  0  0
    8.2735   -3.0139   24.0153 H   0  0  0  0  0  0  0  0  0  0  0  0
    8.9590   -4.5384   25.4448 C   0  0  0  0  0  0  0  0  0  0  0  0
    7.9849   -4.7434   25.8913 H   0  0  0  0  0  0  0  0  0  0  0  0
   10.0987   -5.2453   25.8543 C   0  0  0  0  0  0  0  0  0  0  0  0
   10.0809   -5.9359   26.6896 H   0  0  0  0  0  0  0  0  0  0  0  0
  1  2  1  0
  2  3  2  0
  3  4  1  0
  4  5  1  0
  5  6  1  0
  5  7  1  0
  7  8  1  0
  8  9  1  0
  8 10  1  0
  8 11  1  0
 11 12  1  0
 11 13  1  0
 11 14  1  0
 14 15  1  0
 15 16  2  0
 16 17  1  0
 16 18  1  0
 18 19  2  0
 19 20  1  0
 19 21  1  0
 21 22  1  0
 21 23  2  0
 23 24  1  0
 14 25  1  0
 25 26  1  0
 25 27  1  0
 25 28  1  0
 28 29  1  0
 28 30  1  0
 28 31  1  0
 31 32  1  0
 31 33  1  0
  4 34  2  0
 34 35  1  0
 34 36  1  0
 36 37  1  0
 36 38  2  0
 38 39  1  0
 38  2  1  0
 31  7  1  0
 23 15  1  0
M  END
>  <cnnaffinity>  (1) 
-5.29658

>  <filename>  (1) 
c1ccc(NN2CCCN(c3cccnc3)CC2)nc1

$$$$
