
     RDKit          3D

 29 31  0  0  0  0  0  0  0  0999 V2000
    2.8189   -4.9604   23.3643 H   0  0  0  0  0  0  0  0  0  0  0  0
    3.8370   -4.9202   22.9843 C   0  0  0  0  0  0  0  0  0  0  0  0
    4.2100   -3.7551   22.4501 N   0  0  0  0  0  0  0  0  0  0  0  0
    5.4596   -3.6714   22.0063 C   0  0  0  0  0  0  0  0  0  0  0  0
    5.6910   -2.4286   21.4509 N   0  0  0  0  0  0  0  0  0  0  0  0
    4.8460   -1.9345   21.7285 H   0  0  0  0  0  0  0  0  0  0  0  0
    6.8974   -1.7683   21.6779 C   0  0  0  0  0  0  0  0  0  0  0  0
    7.9019   -2.0487   22.5717 C   0  0  0  0  0  0  0  0  0  0  0  0
    7.8677   -2.7624   23.3779 H   0  0  0  0  0  0  0  0  0  0  0  0
    8.9401   -1.1679   22.2110 C   0  0  0  0  0  0  0  0  0  0  0  0
    9.9260   -1.0575   22.6453 H   0  0  0  0  0  0  0  0  0  0  0  0
    8.6148   -0.3900   21.1905 N   0  0  0  0  0  0  0  0  0  0  0  0
    7.3367   -0.7327   20.8975 N   0  0  0  0  0  0  0  0  0  0  0  0
    6.6268   -0.0298   19.8978 C   0  0  0  0  0  0  0  0  0  0  0  0
    7.1872    0.0446   18.6133 C   0  0  0  0  0  0  0  0  0  0  0  0
    8.1565   -0.4167   18.4204 H   0  0  0  0  0  0  0  0  0  0  0  0
    6.5866    0.6660   17.5981 N   0  0  0  0  0  0  0  0  0  0  0  0
    5.4175    1.2872   17.8442 C   0  0  0  0  0  0  0  0  0  0  0  0
    4.9598    1.7934   16.9996 H   0  0  0  0  0  0  0  0  0  0  0  0
    4.8015    1.2924   19.0996 C   0  0  0  0  0  0  0  0  0  0  0  0
    3.8786    1.8373   19.2405 H   0  0  0  0  0  0  0  0  0  0  0  0
    5.4094    0.6137   20.1572 C   0  0  0  0  0  0  0  0  0  0  0  0
    4.9971    0.6402   21.1683 H   0  0  0  0  0  0  0  0  0  0  0  0
    6.3814   -4.7205   22.0295 C   0  0  0  0  0  0  0  0  0  0  0  0
    7.3715   -4.5168   21.6449 H   0  0  0  0  0  0  0  0  0  0  0  0
    5.9656   -5.9406   22.5533 C   0  0  0  0  0  0  0  0  0  0  0  0
    6.6352   -6.7986   22.5750 H   0  0  0  0  0  0  0  0  0  0  0  0
    4.6613   -6.0430   23.0515 C   0  0  0  0  0  0  0  0  0  0  0  0
    4.2801   -6.9619   23.4761 H   0  0  0  0  0  0  0  0  0  0  0  0
  1  2  1  0
  2  3  2  0
  3  4  1  0
  4  5  1  0
  5  6  1  0
  5  7  1  0
  7  8  2  0
  8  9  1  0
  8 10  1  0
 10 11  1  0
 10 12  2  0
 12 13  1  0
 13 14  1  0
 14 15  2  0
 15 16  1  0
 15 17  1  0
 17 18  2  0
 18 19  1  0
 18 20  1  0
 20 21  1  0
 20 22  2  0
 22 23  1  0
  4 24  2  0
 24 25  1  0
 24 26  1  0
 26 27  1  0
 26 28  2  0
 28 29  1  0
 28  2  1  0
 13  7  1  0
 22 14  1  0
M  END
>  <cnnaffinity>  (1) 
-5.13784

>  <filename>  (1) 
c1ccc(Nc2ccnn2-c2cccnc2)nc1

$$$$
