
     RDKit          3D

 33 35  0  0  0  0  0  0  0  0999 V2000
    4.9402    1.8488   16.9488 H   0  0  0  0  0  0  0  0  0  0  0  0
    5.3929    1.3099   17.7806 C   0  0  0  0  0  0  0  0  0  0  0  0
    6.5437    0.6749   17.5173 N   0  0  0  0  0  0  0  0  0  0  0  0
    7.1338    0.0401   18.5363 C   0  0  0  0  0  0  0  0  0  0  0  0
    8.0862   -0.4404   18.3072 H   0  0  0  0  0  0  0  0  0  0  0  0
    6.6237   -0.0167   19.8466 C   0  0  0  0  0  0  0  0  0  0  0  0
    7.4488   -0.6622   20.9478 C   0  0  0  0  0  0  0  0  0  0  0  0
    7.9140   -1.5930   20.6076 H   0  0  0  0  0  0  0  0  0  0  0  0
    6.8415   -0.9172   21.8198 H   0  0  0  0  0  0  0  0  0  0  0  0
    8.5345    0.1950   21.4058 N   0  0  0  0  0  0  0  0  0  0  0  0
    9.8219    0.1460   20.9321 C   0  0  0  0  0  0  0  0  0  0  0  0
   10.1290   -0.6553   20.2701 H   0  0  0  0  0  0  0  0  0  0  0  0
   10.5368    1.1663   21.4984 C   0  0  0  0  0  0  0  0  0  0  0  0
   11.5877    1.3748   21.3366 H   0  0  0  0  0  0  0  0  0  0  0  0
    9.6505    1.8691   22.3627 C   0  0  0  0  0  0  0  0  0  0  0  0
    9.8780    2.7442   22.9608 H   0  0  0  0  0  0  0  0  0  0  0  0
    8.4225    1.2346   22.3057 C   0  0  0  0  0  0  0  0  0  0  0  0
    6.9640    1.5382   23.2829 S   0  0  0  0  0  0  0  0  0  0  0  0
    7.3203    0.4851   24.7135 C   0  0  0  0  0  0  0  0  0  0  0  0
    8.1282    0.9854   25.7440 C   0  0  0  0  0  0  0  0  0  0  0  0
    8.4767    2.0144   25.6919 H   0  0  0  0  0  0  0  0  0  0  0  0
    8.4838    0.1635   26.8164 C   0  0  0  0  0  0  0  0  0  0  0  0
    9.1161    0.5456   27.6036 H   0  0  0  0  0  0  0  0  0  0  0  0
    8.0405   -1.1606   26.8775 C   0  0  0  0  0  0  0  0  0  0  0  0
    8.3718   -1.8127   27.6813 H   0  0  0  0  0  0  0  0  0  0  0  0
    7.1933   -1.6482   25.8790 C   0  0  0  0  0  0  0  0  0  0  0  0
    6.8363   -2.6754   25.9198 H   0  0  0  0  0  0  0  0  0  0  0  0
    6.8186   -0.8228   24.8114 C   0  0  0  0  0  0  0  0  0  0  0  0
    6.1303   -1.2055   24.0623 H   0  0  0  0  0  0  0  0  0  0  0  0
    5.4106    0.6368   20.0942 C   0  0  0  0  0  0  0  0  0  0  0  0
    4.9799    0.6633   21.0995 H   0  0  0  0  0  0  0  0  0  0  0  0
    4.7856    1.3085   19.0384 C   0  0  0  0  0  0  0  0  0  0  0  0
    3.8580    1.8478   19.1808 H   0  0  0  0  0  0  0  0  0  0  0  0
  1  2  1  0
  2  3  2  0
  3  4  1  0
  4  5  1  0
  4  6  2  0
  6  7  1  0
  7  8  1  0
  7  9  1  0
  7 10  1  0
 10 11  1  0
 11 12  1  0
 11 13  2  0
 13 14  1  0
 13 15  1  0
 15 16  1  0
 15 17  2  0
 17 18  1  0
 18 19  1  0
 19 20  2  0
 20 21  1  0
 20 22  1  0
 22 23  1  0
 22 24  2  0
 24 25  1  0
 24 26  1  0
 26 27  1  0
 26 28  2  0
 28 29  1  0
  6 30  1  0
 30 31  1  0
 30 32  2  0
 32 33  1  0
 32  2  1  0
 17 10  1  0
 28 19  1  0
M  END
>  <cnnaffinity>  (1) 
-4.87911

>  <filename>  (1) 
c1ccc(Sc2cccn2Cc2cccnc2)cc1

$$$$
