
     RDKit          3D

 30 32  0  0  0  0  0  0  0  0999 V2000
    6.5691   -3.1398   23.1610 H   0  0  0  0  0  0  0  0  0  0  0  0
    7.1778   -2.4233   22.6150 C   0  0  0  0  0  0  0  0  0  0  0  0
    8.4603   -2.3229   22.9621 N   0  0  0  0  0  0  0  0  0  0  0  0
    9.1752   -1.4018   22.3240 C   0  0  0  0  0  0  0  0  0  0  0  0
   10.2229   -1.3017   22.6156 H   0  0  0  0  0  0  0  0  0  0  0  0
    8.6467   -0.5683   21.3388 C   0  0  0  0  0  0  0  0  0  0  0  0
    9.6606    0.7820   20.7879 S   0  0  0  0  0  0  0  0  0  0  0  0
    9.0723    2.0652   21.8986 C   0  0  0  0  0  0  0  0  0  0  0  0
    9.7778    2.4032   23.0615 C   0  0  0  0  0  0  0  0  0  0  0  0
   10.6990    1.8800   23.3157 H   0  0  0  0  0  0  0  0  0  0  0  0
    9.3007    3.4351   23.8808 C   0  0  0  0  0  0  0  0  0  0  0  0
    9.8434    3.6930   24.7866 H   0  0  0  0  0  0  0  0  0  0  0  0
    8.1495    4.1518   23.5243 C   0  0  0  0  0  0  0  0  0  0  0  0
    7.8295    4.9996   24.1282 H   0  0  0  0  0  0  0  0  0  0  0  0
    7.4380    3.8054   22.3683 C   0  0  0  0  0  0  0  0  0  0  0  0
    6.5400    4.3536   22.0778 H   0  0  0  0  0  0  0  0  0  0  0  0
    7.8939    2.7501   21.5689 C   0  0  0  0  0  0  0  0  0  0  0  0
    7.3522    2.4313   20.6810 H   0  0  0  0  0  0  0  0  0  0  0  0
    7.2969   -0.8164   21.0050 C   0  0  0  0  0  0  0  0  0  0  0  0
    6.5958   -0.0789   19.9321 C   0  0  0  0  0  0  0  0  0  0  0  0
    7.1754   -0.0181   18.6619 C   0  0  0  0  0  0  0  0  0  0  0  0
    8.1141   -0.5282   18.4592 H   0  0  0  0  0  0  0  0  0  0  0  0
    6.6406    0.6377   17.6261 N   0  0  0  0  0  0  0  0  0  0  0  0
    5.4835    1.2809   17.8367 C   0  0  0  0  0  0  0  0  0  0  0  0
    5.0546    1.8065   16.9841 H   0  0  0  0  0  0  0  0  0  0  0  0
    4.8184    1.2768   19.0682 C   0  0  0  0  0  0  0  0  0  0  0  0
    3.8857    1.8170   19.1735 H   0  0  0  0  0  0  0  0  0  0  0  0
    5.3639    0.5633   20.1332 C   0  0  0  0  0  0  0  0  0  0  0  0
    4.8547    0.5088   21.1009 H   0  0  0  0  0  0  0  0  0  0  0  0
    6.5706   -1.7273   21.6590 N   0  0  0  0  0  0  0  0  0  0  0  0
  1  2  1  0
  2  3  2  0
  3  4  1  0
  4  5  1  0
  4  6  2  0
  6  7  1  0
  7  8  1  0
  8  9  2  0
  9 10  1  0
  9 11  1  0
 11 12  1  0
 11 13  2  0
 13 14  1  0
 13 15  1  0
 15 16  1  0
 15 17  2  0
 17 18  1  0
  6 19  1  0
 19 20  1  0
 20 21  2  0
 21 22  1  0
 21 23  1  0
 23 24  2  0
 24 25  1  0
 24 26  1  0
 26 27  1  0
 26 28  2  0
 28 29  1  0
 19 30  2  0
 30  2  1  0
 17  8  1  0
 28 20  1  0
M  END
>  <cnnaffinity>  (1) 
-5.34295

>  <filename>  (1) 
c1ccc(Sc2cncnc2-c2cccnc2)cc1

$$$$
