
     RDKit          3D

 45 48  0  0  0  0  0  0  0  0999 V2000
   11.2480    7.3166   25.9508 H   0  0  0  0  0  0  0  0  0  0  0  0
   11.6378    6.4989   25.3494 C   0  0  0  0  0  0  0  0  0  0  0  0
   10.7970    5.4825   25.1438 N   0  0  0  0  0  0  0  0  0  0  0  0
   11.2027    4.4989   24.3253 C   0  0  0  0  0  0  0  0  0  0  0  0
   10.3022    3.4979   24.0596 N   0  0  0  0  0  0  0  0  0  0  0  0
   10.5913    2.3720   23.1641 C   0  0  0  0  0  0  0  0  0  0  0  0
   10.9897    1.5232   23.7375 H   0  0  0  0  0  0  0  0  0  0  0  0
   11.3332    2.6395   22.4118 H   0  0  0  0  0  0  0  0  0  0  0  0
    9.3421    1.9216   22.4039 C   0  0  0  0  0  0  0  0  0  0  0  0
    9.5888    1.0272   21.8224 H   0  0  0  0  0  0  0  0  0  0  0  0
    9.0691    2.7087   21.6745 H   0  0  0  0  0  0  0  0  0  0  0  0
    8.2428    1.6144   23.3275 N   0  0  0  0  0  0  0  0  0  0  0  0
    7.0988    1.0321   22.6432 C   0  0  0  0  0  0  0  0  0  0  0  0
    6.7445    1.6699   21.8114 H   0  0  0  0  0  0  0  0  0  0  0  0
    6.2656    0.9581   23.3593 H   0  0  0  0  0  0  0  0  0  0  0  0
    7.4344   -0.3404   22.1543 C   0  0  0  0  0  0  0  0  0  0  0  0
    8.2076   -1.3011   22.7563 C   0  0  0  0  0  0  0  0  0  0  0  0
    8.8605   -1.1094   23.6012 H   0  0  0  0  0  0  0  0  0  0  0  0
    8.0301   -2.5120   22.0430 C   0  0  0  0  0  0  0  0  0  0  0  0
    8.4782   -3.4697   22.2918 H   0  0  0  0  0  0  0  0  0  0  0  0
    7.1937   -2.2335   20.9894 C   0  0  0  0  0  0  0  0  0  0  0  0
    6.7859   -2.8567   20.2106 H   0  0  0  0  0  0  0  0  0  0  0  0
    6.8335   -0.9011   21.0338 N   0  0  0  0  0  0  0  0  0  0  0  0
    6.3094   -0.1587   19.9192 C   0  0  0  0  0  0  0  0  0  0  0  0
    7.0403   -0.0841   18.7178 C   0  0  0  0  0  0  0  0  0  0  0  0
    8.0114   -0.5779   18.6440 H   0  0  0  0  0  0  0  0  0  0  0  0
    6.6440    0.6121   17.6442 N   0  0  0  0  0  0  0  0  0  0  0  0
    5.4949    1.3036   17.7405 C   0  0  0  0  0  0  0  0  0  0  0  0
    5.2037    1.8791   16.8638 H   0  0  0  0  0  0  0  0  0  0  0  0
    4.7038    1.3151   18.8949 C   0  0  0  0  0  0  0  0  0  0  0  0
    3.8079    1.9285   18.9311 H   0  0  0  0  0  0  0  0  0  0  0  0
    5.1130    0.5679   20.0051 C   0  0  0  0  0  0  0  0  0  0  0  0
    4.5423    0.5642   20.9369 H   0  0  0  0  0  0  0  0  0  0  0  0
    7.9396    2.8049   24.1277 C   0  0  0  0  0  0  0  0  0  0  0  0
    7.1191    2.5840   24.8162 H   0  0  0  0  0  0  0  0  0  0  0  0
    7.6216    3.6643   23.5074 H   0  0  0  0  0  0  0  0  0  0  0  0
    9.1699    3.2041   24.9489 C   0  0  0  0  0  0  0  0  0  0  0  0
    9.4276    2.3578   25.6048 H   0  0  0  0  0  0  0  0  0  0  0  0
    8.9593    4.0633   25.5855 H   0  0  0  0  0  0  0  0  0  0  0  0
   12.4910    4.4870   23.7378 C   0  0  0  0  0  0  0  0  0  0  0  0
   12.7954    3.6480   23.1360 H   0  0  0  0  0  0  0  0  0  0  0  0
   13.3494    5.5396   23.9825 C   0  0  0  0  0  0  0  0  0  0  0  0
   14.3092    5.5515   23.4680 H   0  0  0  0  0  0  0  0  0  0  0  0
   12.9245    6.5785   24.8159 C   0  0  0  0  0  0  0  0  0  0  0  0
   13.5559    7.4275   25.0420 H   0  0  0  0  0  0  0  0  0  0  0  0
  1  2  1  0
  2  3  2  0
  3  4  1  0
  4  5  1  0
  5  6  1  0
  6  7  1  0
  6  8  1  0
  6  9  1  0
  9 10  1  0
  9 11  1  0
  9 12  1  0
 12 13  1  0
 13 14  1  0
 13 15  1  0
 13 16  1  0
 16 17  2  0
 17 18  1  0
 17 19  1  0
 19 20  1  0
 19 21  2  0
 21 22  1  0
 21 23  1  0
 23 24  1  0
 24 25  2  0
 25 26  1  0
 25 27  1  0
 27 28  2  0
 28 29  1  0
 28 30  1  0
 30 31  1  0
 30 32  2  0
 32 33  1  0
 12 34  1  0
 34 35  1  0
 34 36  1  0
 34 37  1  0
 37 38  1  0
 37 39  1  0
  4 40  2  0
 40 41  1  0
 40 42  1  0
 42 43  1  0
 42 44  2  0
 44 45  1  0
 44  2  1  0
 37  5  1  0
 23 16  1  0
 32 24  1  0
M  END
>  <cnnaffinity>  (1) 
-5.474

>  <filename>  (1) 
c1ccc(N2CCN(Cc3cccn3-c3cccnc3)CC2)nc1

$$$$
