
     RDKit          3D

 40 43  0  0  0  0  0  0  0  0999 V2000
    4.4711   -5.8952   28.9394 H   0  0  0  0  0  0  0  0  0  0  0  0
    5.5037   -5.8732   28.6034 C   0  0  0  0  0  0  0  0  0  0  0  0
    5.7806   -4.8867   27.7574 N   0  0  0  0  0  0  0  0  0  0  0  0
    7.0288   -4.7998   27.2738 C   0  0  0  0  0  0  0  0  0  0  0  0
    7.2585   -3.7486   26.4176 N   0  0  0  0  0  0  0  0  0  0  0  0
    6.1254   -3.2662   25.6090 C   0  0  0  0  0  0  0  0  0  0  0  0
    5.7979   -4.0475   24.9012 H   0  0  0  0  0  0  0  0  0  0  0  0
    5.2763   -3.0721   26.2721 H   0  0  0  0  0  0  0  0  0  0  0  0
    6.4563   -1.9823   24.8422 C   0  0  0  0  0  0  0  0  0  0  0  0
    5.6594   -1.7958   24.1305 H   0  0  0  0  0  0  0  0  0  0  0  0
    6.4796   -1.1331   25.5451 H   0  0  0  0  0  0  0  0  0  0  0  0
    7.7219   -2.0986   24.1245 N   0  0  0  0  0  0  0  0  0  0  0  0
    7.8506   -1.6543   22.8451 C   0  0  0  0  0  0  0  0  0  0  0  0
    6.8183   -1.0488   22.1980 N   0  0  0  0  0  0  0  0  0  0  0  0
    7.3266   -0.7390   21.0306 C   0  0  0  0  0  0  0  0  0  0  0  0
    6.6270   -0.0281   19.9534 C   0  0  0  0  0  0  0  0  0  0  0  0
    7.1635   -0.0078   18.6605 C   0  0  0  0  0  0  0  0  0  0  0  0
    8.0850   -0.5418   18.4384 H   0  0  0  0  0  0  0  0  0  0  0  0
    6.6119    0.6218   17.6210 N   0  0  0  0  0  0  0  0  0  0  0  0
    5.4621    1.2792   17.8359 C   0  0  0  0  0  0  0  0  0  0  0  0
    5.0381    1.8052   16.9783 H   0  0  0  0  0  0  0  0  0  0  0  0
    4.8273    1.3035   19.0832 C   0  0  0  0  0  0  0  0  0  0  0  0
    3.8990    1.8487   19.1904 H   0  0  0  0  0  0  0  0  0  0  0  0
    5.4124    0.6467   20.1652 C   0  0  0  0  0  0  0  0  0  0  0  0
    4.9493    0.6597   21.1549 H   0  0  0  0  0  0  0  0  0  0  0  0
    8.6006   -1.1691   20.9656 N   0  0  0  0  0  0  0  0  0  0  0  0
    9.2991   -0.9665   20.2665 H   0  0  0  0  0  0  0  0  0  0  0  0
    8.9670   -1.7625   22.1422 N   0  0  0  0  0  0  0  0  0  0  0  0
    8.8591   -2.7390   24.7973 C   0  0  0  0  0  0  0  0  0  0  0  0
    9.7245   -2.0680   24.7518 H   0  0  0  0  0  0  0  0  0  0  0  0
    9.1451   -3.6694   24.2819 H   0  0  0  0  0  0  0  0  0  0  0  0
    8.5347   -3.0376   26.2805 C   0  0  0  0  0  0  0  0  0  0  0  0
    8.5044   -2.0817   26.8329 H   0  0  0  0  0  0  0  0  0  0  0  0
    9.3556   -3.6148   26.7103 H   0  0  0  0  0  0  0  0  0  0  0  0
    8.0244   -5.7526   27.5793 C   0  0  0  0  0  0  0  0  0  0  0  0
    8.9987   -5.6827   27.1153 H   0  0  0  0  0  0  0  0  0  0  0  0
    7.7049   -6.7761   28.4649 C   0  0  0  0  0  0  0  0  0  0  0  0
    8.4551   -7.5114   28.7408 H   0  0  0  0  0  0  0  0  0  0  0  0
    6.4186   -6.8374   29.0067 C   0  0  0  0  0  0  0  0  0  0  0  0
    6.1075   -7.5905   29.7204 H   0  0  0  0  0  0  0  0  0  0  0  0
  1  2  1  0
  2  3  2  0
  3  4  1  0
  4  5  1  0
  5  6  1  0
  6  7  1  0
  6  8  1  0
  6  9  1  0
  9 10  1  0
  9 11  1  0
  9 12  1  0
 12 13  1  0
 13 14  1  0
 14 15  2  0
 15 16  1  0
 16 17  2  0
 17 18  1  0
 17 19  1  0
 19 20  2  0
 20 21  1  0
 20 22  1  0
 22 23  1  0
 22 24  2  0
 24 25  1  0
 15 26  1  0
 26 27  1  0
 26 28  1  0
 12 29  1  0
 29 30  1  0
 29 31  1  0
 29 32  1  0
 32 33  1  0
 32 34  1  0
  4 35  2  0
 35 36  1  0
 35 37  1  0
 37 38  1  0
 37 39  2  0
 39 40  1  0
 39  2  1  0
 32  5  1  0
 28 13  2  0
 24 16  1  0
M  END
>  <cnnaffinity>  (1) 
-4.94553

>  <filename>  (1) 
c1ccc(N2CCN(c3n[nH]c(-c4cccnc4)n3)CC2)nc1

$$$$
