
     RDKit          3D

 32 35  0  0  0  0  0  0  0  0999 V2000
    4.9987    1.8341   17.2544 H   0  0  0  0  0  0  0  0  0  0  0  0
    5.4856    1.1941   17.9894 C   0  0  0  0  0  0  0  0  0  0  0  0
    6.5915    0.5544   17.5756 N   0  0  0  0  0  0  0  0  0  0  0  0
    7.2468   -0.1917   18.4719 C   0  0  0  0  0  0  0  0  0  0  0  0
    8.1480   -0.6899   18.1045 H   0  0  0  0  0  0  0  0  0  0  0  0
    6.8359   -0.3485   19.8156 C   0  0  0  0  0  0  0  0  0  0  0  0
    7.7052   -1.0075   20.7988 C   0  0  0  0  0  0  0  0  0  0  0  0
    9.0532   -0.8675   21.0313 C   0  0  0  0  0  0  0  0  0  0  0  0
    9.7207   -0.2649   20.4274 H   0  0  0  0  0  0  0  0  0  0  0  0
    9.4721   -1.5161   22.1646 N   0  0  0  0  0  0  0  0  0  0  0  0
    8.3662   -2.0330   22.6341 C   0  0  0  0  0  0  0  0  0  0  0  0
    7.8924   -2.8535   24.0986 S   0  0  0  0  0  0  0  0  0  0  0  0
    6.2527   -2.7313   23.5032 C   0  0  0  0  0  0  0  0  0  0  0  0
    5.1329   -3.0955   24.1714 N   0  0  0  0  0  0  0  0  0  0  0  0
    4.3783   -2.5541   23.7735 H   0  0  0  0  0  0  0  0  0  0  0  0
    4.8986   -3.9179   25.2846 C   0  0  0  0  0  0  0  0  0  0  0  0
    4.0428   -3.4448   26.2884 C   0  0  0  0  0  0  0  0  0  0  0  0
    3.6502   -2.4369   26.2015 H   0  0  0  0  0  0  0  0  0  0  0  0
    3.7022   -4.2645   27.3719 C   0  0  0  0  0  0  0  0  0  0  0  0
    3.0441   -3.8838   28.1492 H   0  0  0  0  0  0  0  0  0  0  0  0
    4.2060   -5.5679   27.4556 C   0  0  0  0  0  0  0  0  0  0  0  0
    3.9572   -6.2034   28.3055 H   0  0  0  0  0  0  0  0  0  0  0  0
    5.0494   -6.0434   26.4451 C   0  0  0  0  0  0  0  0  0  0  0  0
    5.4367   -7.0596   26.4971 H   0  0  0  0  0  0  0  0  0  0  0  0
    5.4041   -5.2213   25.3662 C   0  0  0  0  0  0  0  0  0  0  0  0
    6.0377   -5.5914   24.5672 H   0  0  0  0  0  0  0  0  0  0  0  0
    6.0626   -2.1596   22.3437 N   0  0  0  0  0  0  0  0  0  0  0  0
    7.2754   -1.7880   21.8604 N   0  0  0  0  0  0  0  0  0  0  0  0
    5.6238    0.2544   20.1979 C   0  0  0  0  0  0  0  0  0  0  0  0
    5.2325    0.0806   21.2005 H   0  0  0  0  0  0  0  0  0  0  0  0
    4.9583    1.0623   19.2789 C   0  0  0  0  0  0  0  0  0  0  0  0
    4.0545    1.5993   19.5462 H   0  0  0  0  0  0  0  0  0  0  0  0
  1  2  1  0
  2  3  2  0
  3  4  1  0
  4  5  1  0
  4  6  2  0
  6  7  1  0
  7  8  2  0
  8  9  1  0
  8 10  1  0
 10 11  2  0
 11 12  1  0
 12 13  1  0
 13 14  1  0
 14 15  1  0
 14 16  1  0
 16 17  2  0
 17 18  1  0
 17 19  1  0
 19 20  1  0
 19 21  2  0
 21 22  1  0
 21 23  1  0
 23 24  1  0
 23 25  2  0
 25 26  1  0
 13 27  2  0
 27 28  1  0
  6 29  1  0
 29 30  1  0
 29 31  2  0
 31 32  1  0
 31  2  1  0
 28  7  1  0
 28 11  1  0
 25 16  1  0
M  END
>  <cnnaffinity>  (1) 
-5.06162

>  <filename>  (1) 
c1ccc(Nc2nn3c(-c4cccnc4)cnc3s2)cc1

$$$$
