
     RDKit          3D

 33 35  0  0  0  0  0  0  0  0999 V2000
    4.9410    1.7945   16.9830 H   0  0  0  0  0  0  0  0  0  0  0  0
    5.3975    1.2958   17.8376 C   0  0  0  0  0  0  0  0  0  0  0  0
    6.5581    0.6666   17.5956 N   0  0  0  0  0  0  0  0  0  0  0  0
    7.1555    0.0475   18.6182 C   0  0  0  0  0  0  0  0  0  0  0  0
    8.0954   -0.4481   18.3801 H   0  0  0  0  0  0  0  0  0  0  0  0
    6.6443    0.0354   19.9256 C   0  0  0  0  0  0  0  0  0  0  0  0
    7.3715   -0.7067   20.9595 C   0  0  0  0  0  0  0  0  0  0  0  0
    7.9118   -1.8867   20.7632 N   0  0  0  0  0  0  0  0  0  0  0  0
    8.4856   -2.2444   21.9554 C   0  0  0  0  0  0  0  0  0  0  0  0
    8.9528   -3.2186   22.0587 H   0  0  0  0  0  0  0  0  0  0  0  0
    8.3279   -1.2490   22.8758 C   0  0  0  0  0  0  0  0  0  0  0  0
    8.6755   -1.1439   23.8952 H   0  0  0  0  0  0  0  0  0  0  0  0
    7.5848   -0.2611   22.2369 N   0  0  0  0  0  0  0  0  0  0  0  0
    7.2872    1.0616   22.7561 C   0  0  0  0  0  0  0  0  0  0  0  0
    7.2141    1.7862   21.9305 H   0  0  0  0  0  0  0  0  0  0  0  0
    8.1413    1.3751   23.3832 H   0  0  0  0  0  0  0  0  0  0  0  0
    6.0527    1.0376   23.4882 N   0  0  0  0  0  0  0  0  0  0  0  0
    5.6398    0.1347   23.6662 H   0  0  0  0  0  0  0  0  0  0  0  0
    5.5052    2.1168   24.1620 C   0  0  0  0  0  0  0  0  0  0  0  0
    4.3016    1.9392   24.8683 C   0  0  0  0  0  0  0  0  0  0  0  0
    3.8634    0.9453   24.9051 H   0  0  0  0  0  0  0  0  0  0  0  0
    3.6899    3.0232   25.5026 C   0  0  0  0  0  0  0  0  0  0  0  0
    2.7532    2.8773   26.0357 H   0  0  0  0  0  0  0  0  0  0  0  0
    4.2697    4.2973   25.4559 C   0  0  0  0  0  0  0  0  0  0  0  0
    3.7927    5.1421   25.9436 H   0  0  0  0  0  0  0  0  0  0  0  0
    5.4760    4.4733   24.7715 C   0  0  0  0  0  0  0  0  0  0  0  0
    5.9441    5.4539   24.7168 H   0  0  0  0  0  0  0  0  0  0  0  0
    6.0935    3.3949   24.1350 C   0  0  0  0  0  0  0  0  0  0  0  0
    7.0285    3.5217   23.5995 H   0  0  0  0  0  0  0  0  0  0  0  0
    5.4248    0.6829   20.1616 C   0  0  0  0  0  0  0  0  0  0  0  0
    4.9910    0.6750   21.1620 H   0  0  0  0  0  0  0  0  0  0  0  0
    4.7926    1.3220   19.0975 C   0  0  0  0  0  0  0  0  0  0  0  0
    3.8592    1.8504   19.2325 H   0  0  0  0  0  0  0  0  0  0  0  0
  1  2  1  0
  2  3  2  0
  3  4  1  0
  4  5  1  0
  4  6  2  0
  6  7  1  0
  7  8  2  0
  8  9  1  0
  9 10  1  0
  9 11  2  0
 11 12  1  0
 11 13  1  0
 13 14  1  0
 14 15  1  0
 14 16  1  0
 14 17  1  0
 17 18  1  0
 17 19  1  0
 19 20  2  0
 20 21  1  0
 20 22  1  0
 22 23  1  0
 22 24  2  0
 24 25  1  0
 24 26  1  0
 26 27  1  0
 26 28  2  0
 28 29  1  0
  6 30  1  0
 30 31  1  0
 30 32  2  0
 32 33  1  0
 32  2  1  0
 13  7  1  0
 28 19  1  0
M  END
>  <cnnaffinity>  (1) 
-4.84659

>  <filename>  (1) 
c1ccc(NCn2ccnc2-c2cccnc2)cc1

$$$$
