
     RDKit          3D

 32 35  0  0  0  0  0  0  0  0999 V2000
    5.0500    2.1181   16.2903 H   0  0  0  0  0  0  0  0  0  0  0  0
    5.2661    1.6467   17.2483 C   0  0  0  0  0  0  0  0  0  0  0  0
    6.3723    0.8906   17.2939 N   0  0  0  0  0  0  0  0  0  0  0  0
    6.6625    0.3061   18.4584 C   0  0  0  0  0  0  0  0  0  0  0  0
    7.5601   -0.3074   18.4965 H   0  0  0  0  0  0  0  0  0  0  0  0
    5.8841    0.4404   19.6139 C   0  0  0  0  0  0  0  0  0  0  0  0
    6.3655   -0.2624   20.7996 C   0  0  0  0  0  0  0  0  0  0  0  0
    7.3764   -1.1657   20.6862 N   0  0  0  0  0  0  0  0  0  0  0  0
    7.5792   -1.5687   21.9226 C   0  0  0  0  0  0  0  0  0  0  0  0
    8.7640   -2.2915   22.3457 C   0  0  0  0  0  0  0  0  0  0  0  0
    9.9476   -1.8357   21.7991 C   0  0  0  0  0  0  0  0  0  0  0  0
    9.9291   -1.1015   20.9948 H   0  0  0  0  0  0  0  0  0  0  0  0
   11.1694   -2.2358   22.2061 N   0  0  0  0  0  0  0  0  0  0  0  0
   11.2132   -3.1665   23.1368 C   0  0  0  0  0  0  0  0  0  0  0  0
   12.1928   -3.5148   23.4447 H   0  0  0  0  0  0  0  0  0  0  0  0
   10.0785   -3.7643   23.7475 C   0  0  0  0  0  0  0  0  0  0  0  0
   10.2021   -4.7518   24.7711 C   0  0  0  0  0  0  0  0  0  0  0  0
   11.1931   -5.0467   25.1099 H   0  0  0  0  0  0  0  0  0  0  0  0
    9.0786   -5.3277   25.3034 C   0  0  0  0  0  0  0  0  0  0  0  0
    9.1715   -6.0825   26.0790 H   0  0  0  0  0  0  0  0  0  0  0  0
    7.7902   -4.9442   24.8541 C   0  0  0  0  0  0  0  0  0  0  0  0
    6.9242   -5.3996   25.3276 H   0  0  0  0  0  0  0  0  0  0  0  0
    7.6413   -3.9886   23.8676 C   0  0  0  0  0  0  0  0  0  0  0  0
    6.6442   -3.7214   23.5369 H   0  0  0  0  0  0  0  0  0  0  0  0
    8.7892   -3.3374   23.3177 C   0  0  0  0  0  0  0  0  0  0  0  0
    6.7183   -0.9318   22.7356 N   0  0  0  0  0  0  0  0  0  0  0  0
    6.6256   -1.0377   23.7339 H   0  0  0  0  0  0  0  0  0  0  0  0
    5.9370   -0.0730   22.0297 N   0  0  0  0  0  0  0  0  0  0  0  0
    4.7304    1.2346   19.5643 C   0  0  0  0  0  0  0  0  0  0  0  0
    4.1097    1.3756   20.4508 H   0  0  0  0  0  0  0  0  0  0  0  0
    4.4190    1.8388   18.3471 C   0  0  0  0  0  0  0  0  0  0  0  0
    3.5399    2.4601   18.2346 H   0  0  0  0  0  0  0  0  0  0  0  0
  1  2  1  0
  2  3  2  0
  3  4  1  0
  4  5  1  0
  4  6  2  0
  6  7  1  0
  7  8  1  0
  8  9  2  0
  9 10  1  0
 10 11  2  0
 11 12  1  0
 11 13  1  0
 13 14  2  0
 14 15  1  0
 14 16  1  0
 16 17  2  0
 17 18  1  0
 17 19  1  0
 19 20  1  0
 19 21  2  0
 21 22  1  0
 21 23  1  0
 23 24  1  0
 23 25  2  0
  9 26  1  0
 26 27  1  0
 26 28  1  0
  6 29  1  0
 29 30  1  0
 29 31  2  0
 31 32  1  0
 31  2  1  0
 28  7  2  0
 25 10  1  0
 25 16  1  0
M  END
>  <cnnaffinity>  (1) 
-5.55442

>  <filename>  (1) 
c1cncc(-c2n[nH]c(-c3cncc4ccccc34)n2)c1

$$$$
