
     RDKit          3D

 38 40  0  0  0  0  0  0  0  0999 V2000
    4.9203    1.7735   17.0019 H   0  0  0  0  0  0  0  0  0  0  0  0
    5.4086    1.2873   17.8453 C   0  0  0  0  0  0  0  0  0  0  0  0
    6.5723    0.6725   17.5954 N   0  0  0  0  0  0  0  0  0  0  0  0
    7.1763    0.0507   18.6125 C   0  0  0  0  0  0  0  0  0  0  0  0
    8.1205   -0.4381   18.3850 H   0  0  0  0  0  0  0  0  0  0  0  0
    6.6504    0.0169   19.9054 C   0  0  0  0  0  0  0  0  0  0  0  0
    7.4060   -0.7169   20.9348 C   0  0  0  0  0  0  0  0  0  0  0  0
    8.1167   -1.7483   20.6783 N   0  0  0  0  0  0  0  0  0  0  0  0
    8.6676   -2.2125   21.9497 C   0  0  0  0  0  0  0  0  0  0  0  0
    9.7599   -2.1992   21.8976 H   0  0  0  0  0  0  0  0  0  0  0  0
    8.3673   -3.2485   22.1334 H   0  0  0  0  0  0  0  0  0  0  0  0
    8.1485   -1.2738   23.0562 C   0  0  0  0  0  0  0  0  0  0  0  0
    7.5376   -1.8094   23.7998 H   0  0  0  0  0  0  0  0  0  0  0  0
    8.9717   -0.7654   23.5845 H   0  0  0  0  0  0  0  0  0  0  0  0
    7.3600   -0.3251   22.2824 N   0  0  0  0  0  0  0  0  0  0  0  0
    7.1635    0.9968   22.7340 N   0  0  0  0  0  0  0  0  0  0  0  0
    8.0679    1.4242   22.9611 H   0  0  0  0  0  0  0  0  0  0  0  0
    6.2370    1.1441   23.8599 C   0  0  0  0  0  0  0  0  0  0  0  0
    5.5208    0.3209   23.7862 H   0  0  0  0  0  0  0  0  0  0  0  0
    5.4572    2.4569   23.7294 C   0  0  0  0  0  0  0  0  0  0  0  0
    4.9240    2.4763   22.7691 H   0  0  0  0  0  0  0  0  0  0  0  0
    6.1707    3.2923   23.7117 H   0  0  0  0  0  0  0  0  0  0  0  0
    4.4728    2.6442   24.8943 C   0  0  0  0  0  0  0  0  0  0  0  0
    3.6958    1.8683   24.8383 H   0  0  0  0  0  0  0  0  0  0  0  0
    3.9597    3.6087   24.8035 H   0  0  0  0  0  0  0  0  0  0  0  0
    5.1828    2.5432   26.2515 C   0  0  0  0  0  0  0  0  0  0  0  0
    5.8782    3.3875   26.3518 H   0  0  0  0  0  0  0  0  0  0  0  0
    4.4581    2.6321   27.0682 H   0  0  0  0  0  0  0  0  0  0  0  0
    5.9714    1.2344   26.3854 C   0  0  0  0  0  0  0  0  0  0  0  0
    6.5139    1.2080   27.3370 H   0  0  0  0  0  0  0  0  0  0  0  0
    5.2690    0.3891   26.3985 H   0  0  0  0  0  0  0  0  0  0  0  0
    6.9489    1.0461   25.2216 C   0  0  0  0  0  0  0  0  0  0  0  0
    7.7246    1.8258   25.2604 H   0  0  0  0  0  0  0  0  0  0  0  0
    7.4654    0.0823   25.3104 H   0  0  0  0  0  0  0  0  0  0  0  0
    5.4345    0.6595   20.1601 C   0  0  0  0  0  0  0  0  0  0  0  0
    4.9969    0.6428   21.1658 H   0  0  0  0  0  0  0  0  0  0  0  0
    4.7998    1.3105   19.1074 C   0  0  0  0  0  0  0  0  0  0  0  0
    3.8701    1.8441   19.2618 H   0  0  0  0  0  0  0  0  0  0  0  0
  1  2  1  0
  2  3  2  0
  3  4  1  0
  4  5  1  0
  4  6  2  0
  6  7  1  0
  7  8  2  0
  8  9  1  0
  9 10  1  0
  9 11  1  0
  9 12  1  0
 12 13  1  0
 12 14  1  0
 12 15  1  0
 15 16  1  0
 16 17  1  0
 16 18  1  0
 18 19  1  0
 18 20  1  0
 20 21  1  0
 20 22  1  0
 20 23  1  0
 23 24  1  0
 23 25  1  0
 23 26  1  0
 26 27  1  0
 26 28  1  0
 26 29  1  0
 29 30  1  0
 29 31  1  0
 29 32  1  0
 32 33  1  0
 32 34  1  0
  6 35  1  0
 35 36  1  0
 35 37  2  0
 37 38  1  0
 37  2  1  0
 15  7  1  0
 32 18  1  0
M  END
>  <cnnaffinity>  (1) 
-4.71973

>  <filename>  (1) 
c1cncc(C2=NCCN2NC2CCCCC2)c1

$$$$
