
     RDKit          3D

 31 34  0  0  0  0  0  0  0  0999 V2000
    4.9310    1.7825   16.9969 H   0  0  0  0  0  0  0  0  0  0  0  0
    5.4096    1.2895   17.8434 C   0  0  0  0  0  0  0  0  0  0  0  0
    6.5776    0.6690   17.5998 N   0  0  0  0  0  0  0  0  0  0  0  0
    7.1755    0.0363   18.6131 C   0  0  0  0  0  0  0  0  0  0  0  0
    8.1218   -0.4417   18.3798 H   0  0  0  0  0  0  0  0  0  0  0  0
    6.6506   -0.0113   19.9168 C   0  0  0  0  0  0  0  0  0  0  0  0
    7.3497   -0.7110   20.9418 N   0  0  0  0  0  0  0  0  0  0  0  0
    7.7470   -1.9770   20.7451 N   0  0  0  0  0  0  0  0  0  0  0  0
    8.2377   -2.3733   21.9118 C   0  0  0  0  0  0  0  0  0  0  0  0
    8.6103   -3.3818   22.0126 H   0  0  0  0  0  0  0  0  0  0  0  0
    8.1862   -1.3697   22.8866 C   0  0  0  0  0  0  0  0  0  0  0  0
    8.5352   -1.3744   23.9135 H   0  0  0  0  0  0  0  0  0  0  0  0
    7.6111   -0.2971   22.2310 C   0  0  0  0  0  0  0  0  0  0  0  0
    7.4356    1.0705   22.6467 C   0  0  0  0  0  0  0  0  0  0  0  0
    7.3149    1.2706   24.0006 O   0  0  0  0  0  0  0  0  0  0  0  0
    7.2036    2.6154   24.1855 C   0  0  0  0  0  0  0  0  0  0  0  0
    7.0470    3.3014   25.3973 C   0  0  0  0  0  0  0  0  0  0  0  0
    6.9939    2.7744   26.3489 H   0  0  0  0  0  0  0  0  0  0  0  0
    6.9654    4.6975   25.3057 C   0  0  0  0  0  0  0  0  0  0  0  0
    6.8414    5.2872   26.2125 H   0  0  0  0  0  0  0  0  0  0  0  0
    7.0375    5.3812   24.0652 C   0  0  0  0  0  0  0  0  0  0  0  0
    6.9702    6.4693   24.0272 H   0  0  0  0  0  0  0  0  0  0  0  0
    7.1958    4.6767   22.8777 C   0  0  0  0  0  0  0  0  0  0  0  0
    7.2559    5.1542   21.9006 H   0  0  0  0  0  0  0  0  0  0  0  0
    7.2830    3.2772   22.9465 C   0  0  0  0  0  0  0  0  0  0  0  0
    7.4499    2.2491   21.9687 C   0  0  0  0  0  0  0  0  0  0  0  0
    7.5557    2.3600   20.8991 H   0  0  0  0  0  0  0  0  0  0  0  0
    5.4274    0.6300   20.1677 C   0  0  0  0  0  0  0  0  0  0  0  0
    5.0048    0.6391   21.1758 H   0  0  0  0  0  0  0  0  0  0  0  0
    4.8084    1.2968   19.1063 C   0  0  0  0  0  0  0  0  0  0  0  0
    3.8808    1.8369   19.2567 H   0  0  0  0  0  0  0  0  0  0  0  0
  1  2  1  0
  2  3  2  0
  3  4  1  0
  4  5  1  0
  4  6  2  0
  6  7  1  0
  7  8  1  0
  8  9  2  0
  9 10  1  0
  9 11  1  0
 11 12  1  0
 11 13  2  0
 13 14  1  0
 14 15  1  0
 15 16  1  0
 16 17  2  0
 17 18  1  0
 17 19  1  0
 19 20  1  0
 19 21  2  0
 21 22  1  0
 21 23  1  0
 23 24  1  0
 23 25  2  0
 25 26  1  0
 26 27  1  0
  6 28  1  0
 28 29  1  0
 28 30  2  0
 30 31  1  0
 30  2  1  0
 13  7  1  0
 26 14  2  0
 25 16  1  0
M  END
>  <cnnaffinity>  (1) 
-5.04791

>  <filename>  (1) 
c1cncc(-n2nccc2-c2cc3ccccc3o2)c1

$$$$
