
     RDKit          3D

 35 38  0  0  0  0  0  0  0  0999 V2000
    8.6690   -3.6764   21.4487 H   0  0  0  0  0  0  0  0  0  0  0  0
    8.3881   -2.6508   21.6577 C   0  0  0  0  0  0  0  0  0  0  0  0
    8.7163   -2.1802   22.8591 N   0  0  0  0  0  0  0  0  0  0  0  0
    8.3652   -0.9176   23.0995 C   0  0  0  0  0  0  0  0  0  0  0  0
    8.6226   -0.5040   24.0742 H   0  0  0  0  0  0  0  0  0  0  0  0
    7.6971   -0.1119   22.1810 C   0  0  0  0  0  0  0  0  0  0  0  0
    7.4310    1.3226   22.4756 C   0  0  0  0  0  0  0  0  0  0  0  0
    8.0933    2.2895   21.7380 C   0  0  0  0  0  0  0  0  0  0  0  0
    8.7888    1.9787   20.9624 H   0  0  0  0  0  0  0  0  0  0  0  0
    7.8853    3.6686   21.9884 C   0  0  0  0  0  0  0  0  0  0  0  0
    8.4240    4.4084   21.4018 H   0  0  0  0  0  0  0  0  0  0  0  0
    7.0001    4.0729   22.9563 C   0  0  0  0  0  0  0  0  0  0  0  0
    6.8316    5.1317   23.1508 H   0  0  0  0  0  0  0  0  0  0  0  0
    6.2775    3.1149   23.7253 C   0  0  0  0  0  0  0  0  0  0  0  0
    5.3467    3.5184   24.7294 C   0  0  0  0  0  0  0  0  0  0  0  0
    5.2115    4.5860   24.9028 H   0  0  0  0  0  0  0  0  0  0  0  0
    4.6395    2.5918   25.4515 C   0  0  0  0  0  0  0  0  0  0  0  0
    3.9335    2.9105   26.2152 H   0  0  0  0  0  0  0  0  0  0  0  0
    4.8181    1.2044   25.2075 C   0  0  0  0  0  0  0  0  0  0  0  0
    4.2501    0.4750   25.7790 H   0  0  0  0  0  0  0  0  0  0  0  0
    5.7089    0.7791   24.2505 C   0  0  0  0  0  0  0  0  0  0  0  0
    5.8320   -0.2851   24.0602 H   0  0  0  0  0  0  0  0  0  0  0  0
    6.4853    1.7130   23.4900 C   0  0  0  0  0  0  0  0  0  0  0  0
    7.4049   -0.7293   20.9484 C   0  0  0  0  0  0  0  0  0  0  0  0
    6.6508   -0.0182   19.8991 C   0  0  0  0  0  0  0  0  0  0  0  0
    7.1731    0.0385   18.6045 C   0  0  0  0  0  0  0  0  0  0  0  0
    8.1247   -0.4378   18.3733 H   0  0  0  0  0  0  0  0  0  0  0  0
    6.5755    0.6749   17.5937 N   0  0  0  0  0  0  0  0  0  0  0  0
    5.4084    1.2876   17.8480 C   0  0  0  0  0  0  0  0  0  0  0  0
    4.9197    1.7746   17.0044 H   0  0  0  0  0  0  0  0  0  0  0  0
    4.8072    1.3029   19.1114 C   0  0  0  0  0  0  0  0  0  0  0  0
    3.8766    1.8413   19.2622 H   0  0  0  0  0  0  0  0  0  0  0  0
    5.4422    0.6451   20.1619 C   0  0  0  0  0  0  0  0  0  0  0  0
    5.0121    0.6455   21.1703 H   0  0  0  0  0  0  0  0  0  0  0  0
    7.7687   -1.9878   20.6849 N   0  0  0  0  0  0  0  0  0  0  0  0
  1  2  1  0
  2  3  2  0
  3  4  1  0
  4  5  1  0
  4  6  2  0
  6  7  1  0
  7  8  2  0
  8  9  1  0
  8 10  1  0
 10 11  1  0
 10 12  2  0
 12 13  1  0
 12 14  1  0
 14 15  2  0
 15 16  1  0
 15 17  1  0
 17 18  1  0
 17 19  2  0
 19 20  1  0
 19 21  1  0
 21 22  1  0
 21 23  2  0
  6 24  1  0
 24 25  1  0
 25 26  2  0
 26 27  1  0
 26 28  1  0
 28 29  2  0
 29 30  1  0
 29 31  1  0
 31 32  1  0
 31 33  2  0
 33 34  1  0
 24 35  2  0
 35  2  1  0
 23  7  1  0
 33 25  1  0
 23 14  1  0
M  END
>  <cnnaffinity>  (1) 
-4.82834

>  <filename>  (1) 
c1cncc(-c2ncncc2-c2cccc3ccccc23)c1

$$$$
