
     RDKit          3D

 27 29  0  0  0  0  0  0  0  0999 V2000
    4.9205    1.7867   16.9915 H   0  0  0  0  0  0  0  0  0  0  0  0
    5.3987    1.2938   17.8351 C   0  0  0  0  0  0  0  0  0  0  0  0
    6.5615    0.6777   17.5730 N   0  0  0  0  0  0  0  0  0  0  0  0
    7.1714    0.0578   18.5896 C   0  0  0  0  0  0  0  0  0  0  0  0
    8.1197   -0.4161   18.3522 H   0  0  0  0  0  0  0  0  0  0  0  0
    6.6670    0.0001   19.9063 C   0  0  0  0  0  0  0  0  0  0  0  0
    7.3760   -0.6917   20.9975 C   0  0  0  0  0  0  0  0  0  0  0  0
    8.5900   -1.8984   20.7219 S   0  0  0  0  0  0  0  0  0  0  0  0
    8.8265   -2.1514   22.3831 C   0  0  0  0  0  0  0  0  0  0  0  0
    9.5409   -2.8901   22.7199 H   0  0  0  0  0  0  0  0  0  0  0  0
    8.0483   -1.3258   23.1484 C   0  0  0  0  0  0  0  0  0  0  0  0
    8.1097   -1.3332   24.6194 C   0  0  0  0  0  0  0  0  0  0  0  0
    8.8910   -2.1031   25.2793 N   0  0  0  0  0  0  0  0  0  0  0  0
    8.6704   -1.8228   26.6935 C   0  0  0  0  0  0  0  0  0  0  0  0
    9.6117   -1.5108   27.1435 H   0  0  0  0  0  0  0  0  0  0  0  0
    8.3621   -2.7426   27.1883 H   0  0  0  0  0  0  0  0  0  0  0  0
    7.5890   -0.7190   26.7929 C   0  0  0  0  0  0  0  0  0  0  0  0
    6.6910   -1.0531   27.3317 H   0  0  0  0  0  0  0  0  0  0  0  0
    7.9570    0.1907   27.2882 H   0  0  0  0  0  0  0  0  0  0  0  0
    7.3292   -0.5020   25.3839 N   0  0  0  0  0  0  0  0  0  0  0  0
    6.6656    0.1405   25.0079 H   0  0  0  0  0  0  0  0  0  0  0  0
    7.2185   -0.4866   22.3365 C   0  0  0  0  0  0  0  0  0  0  0  0
    6.5440    0.2691   22.7286 H   0  0  0  0  0  0  0  0  0  0  0  0
    5.4447    0.6515   20.1537 C   0  0  0  0  0  0  0  0  0  0  0  0
    5.0033    0.6287   21.1521 H   0  0  0  0  0  0  0  0  0  0  0  0
    4.8059    1.3095   19.1019 C   0  0  0  0  0  0  0  0  0  0  0  0
    3.8756    1.8411   19.2549 H   0  0  0  0  0  0  0  0  0  0  0  0
  1  2  1  0
  2  3  2  0
  3  4  1  0
  4  5  1  0
  4  6  2  0
  6  7  1  0
  7  8  1  0
  8  9  1  0
  9 10  1  0
  9 11  2  0
 11 12  1  0
 12 13  2  0
 13 14  1  0
 14 15  1  0
 14 16  1  0
 14 17  1  0
 17 18  1  0
 17 19  1  0
 17 20  1  0
 20 21  1  0
 11 22  1  0
 22 23  1  0
  6 24  1  0
 24 25  1  0
 24 26  2  0
 26 27  1  0
 26  2  1  0
 22  7  2  0
 20 12  1  0
M  END
>  <cnnaffinity>  (1) 
-4.73837

>  <filename>  (1) 
c1cncc(-c2cc(C3=NCCN3)cs2)c1

$$$$
