
     RDKit          3D

 40 43  0  0  0  0  0  0  0  0999 V2000
    4.8249    2.3078   16.1578 H   0  0  0  0  0  0  0  0  0  0  0  0
    5.1147    1.8827   17.1164 C   0  0  0  0  0  0  0  0  0  0  0  0
    6.3000    1.2564   17.1422 N   0  0  0  0  0  0  0  0  0  0  0  0
    6.6821    0.7275   18.3104 C   0  0  0  0  0  0  0  0  0  0  0  0
    7.6468    0.2164   18.2945 H   0  0  0  0  0  0  0  0  0  0  0  0
    5.9169    0.7710   19.4873 C   0  0  0  0  0  0  0  0  0  0  0  0
    6.4303    0.0998   20.7355 C   0  0  0  0  0  0  0  0  0  0  0  0
    6.6076   -0.9553   20.4701 H   0  0  0  0  0  0  0  0  0  0  0  0
    5.6496    0.1086   21.5120 H   0  0  0  0  0  0  0  0  0  0  0  0
    7.6837    0.7485   21.2832 C   0  0  0  0  0  0  0  0  0  0  0  0
    7.8695    2.1076   21.6151 C   0  0  0  0  0  0  0  0  0  0  0  0
    7.1238    2.8881   21.5702 H   0  0  0  0  0  0  0  0  0  0  0  0
    9.0959    2.3859   22.0350 N   0  0  0  0  0  0  0  0  0  0  0  0
    9.7283    1.1897   21.9676 N   0  0  0  0  0  0  0  0  0  0  0  0
   10.6793    1.0840   22.2830 H   0  0  0  0  0  0  0  0  0  0  0  0
    8.9143    0.1794   21.5653 C   0  0  0  0  0  0  0  0  0  0  0  0
    9.2963   -1.1336   21.5211 N   0  0  0  0  0  0  0  0  0  0  0  0
    8.3279   -2.1759   21.8419 C   0  0  0  0  0  0  0  0  0  0  0  0
    7.4165   -1.6947   22.2191 H   0  0  0  0  0  0  0  0  0  0  0  0
    8.0529   -2.7190   20.9231 H   0  0  0  0  0  0  0  0  0  0  0  0
    8.8016   -3.1694   22.8966 C   0  0  0  0  0  0  0  0  0  0  0  0
    7.8958   -4.1040   23.4228 C   0  0  0  0  0  0  0  0  0  0  0  0
    6.8772   -4.1413   23.0291 H   0  0  0  0  0  0  0  0  0  0  0  0
    8.2995   -4.9860   24.4319 C   0  0  0  0  0  0  0  0  0  0  0  0
    7.5678   -5.6583   24.8745 H   0  0  0  0  0  0  0  0  0  0  0  0
    9.6244   -4.9724   24.8955 C   0  0  0  0  0  0  0  0  0  0  0  0
    9.9409   -5.6449   25.6940 H   0  0  0  0  0  0  0  0  0  0  0  0
   10.5399   -4.0739   24.3344 C   0  0  0  0  0  0  0  0  0  0  0  0
   11.5781   -4.0523   24.6655 H   0  0  0  0  0  0  0  0  0  0  0  0
   10.1342   -3.1639   23.3479 C   0  0  0  0  0  0  0  0  0  0  0  0
   11.1018   -2.1094   22.8413 C   0  0  0  0  0  0  0  0  0  0  0  0
   12.1161   -2.5206   22.7755 H   0  0  0  0  0  0  0  0  0  0  0  0
   11.0976   -1.2823   23.5648 H   0  0  0  0  0  0  0  0  0  0  0  0
   10.6865   -1.5443   21.4916 C   0  0  0  0  0  0  0  0  0  0  0  0
   11.3232   -0.7075   21.1805 H   0  0  0  0  0  0  0  0  0  0  0  0
   10.7828   -2.3237   20.7381 H   0  0  0  0  0  0  0  0  0  0  0  0
    4.6857    1.4330   19.4354 C   0  0  0  0  0  0  0  0  0  0  0  0
    4.0705    1.5281   20.3306 H   0  0  0  0  0  0  0  0  0  0  0  0
    4.2695    1.9846   18.2244 C   0  0  0  0  0  0  0  0  0  0  0  0
    3.3122    2.4872   18.1335 H   0  0  0  0  0  0  0  0  0  0  0  0
  1  2  1  0
  2  3  2  0
  3  4  1  0
  4  5  1  0
  4  6  2  0
  6  7  1  0
  7  8  1  0
  7  9  1  0
  7 10  1  0
 10 11  1  0
 11 12  1  0
 11 13  2  0
 13 14  1  0
 14 15  1  0
 14 16  1  0
 16 17  1  0
 17 18  1  0
 18 19  1  0
 18 20  1  0
 18 21  1  0
 21 22  2  0
 22 23  1  0
 22 24  1  0
 24 25  1  0
 24 26  2  0
 26 27  1  0
 26 28  1  0
 28 29  1  0
 28 30  2  0
 30 31  1  0
 31 32  1  0
 31 33  1  0
 31 34  1  0
 34 35  1  0
 34 36  1  0
  6 37  1  0
 37 38  1  0
 37 39  2  0
 39 40  1  0
 39  2  1  0
 16 10  2  0
 34 17  1  0
 30 21  1  0
M  END
>  <cnnaffinity>  (1) 
-5.57545

>  <filename>  (1) 
c1cncc(Cc2cn[nH]c2N2CCc3ccccc3C2)c1

$$$$
