
     RDKit          3D

 33 36  0  0  0  0  0  0  0  0999 V2000
    4.9383    1.7558   16.9476 H   0  0  0  0  0  0  0  0  0  0  0  0
    5.4071    1.3010   17.8219 C   0  0  0  0  0  0  0  0  0  0  0  0
    6.5709    0.6654   17.6187 N   0  0  0  0  0  0  0  0  0  0  0  0
    7.1429    0.0762   18.6777 C   0  0  0  0  0  0  0  0  0  0  0  0
    8.0869   -0.4289   18.4818 H   0  0  0  0  0  0  0  0  0  0  0  0
    6.6214    0.0999   19.9874 C   0  0  0  0  0  0  0  0  0  0  0  0
    7.3285   -0.6217   21.0717 C   0  0  0  0  0  0  0  0  0  0  0  0
    7.8302   -1.9029   21.1014 C   0  0  0  0  0  0  0  0  0  0  0  0
    7.6644   -2.6806   20.3860 H   0  0  0  0  0  0  0  0  0  0  0  0
    8.4476   -2.0344   22.3534 C   0  0  0  0  0  0  0  0  0  0  0  0
    8.9632   -2.8872   22.7679 H   0  0  0  0  0  0  0  0  0  0  0  0
    8.3265   -0.9357   23.0786 N   0  0  0  0  0  0  0  0  0  0  0  0
    7.6077   -0.0953   22.3143 N   0  0  0  0  0  0  0  0  0  0  0  0
    7.2206    1.1313   22.8763 C   0  0  0  0  0  0  0  0  0  0  0  0
    7.6752    2.3024   22.3226 C   0  0  0  0  0  0  0  0  0  0  0  0
    8.3326    2.2750   21.4544 H   0  0  0  0  0  0  0  0  0  0  0  0
    7.3557    3.5281   22.8067 N   0  0  0  0  0  0  0  0  0  0  0  0
    6.5642    3.5992   23.8572 C   0  0  0  0  0  0  0  0  0  0  0  0
    6.2990    4.5981   24.2065 H   0  0  0  0  0  0  0  0  0  0  0  0
    6.0263    2.4608   24.5394 C   0  0  0  0  0  0  0  0  0  0  0  0
    5.1510    2.5749   25.6688 C   0  0  0  0  0  0  0  0  0  0  0  0
    4.8940    3.5636   26.0531 H   0  0  0  0  0  0  0  0  0  0  0  0
    4.6244    1.4445   26.2447 C   0  0  0  0  0  0  0  0  0  0  0  0
    3.9393    1.5309   27.0836 H   0  0  0  0  0  0  0  0  0  0  0  0
    4.9558    0.1557   25.7471 C   0  0  0  0  0  0  0  0  0  0  0  0
    4.5044   -0.7241   26.1976 H   0  0  0  0  0  0  0  0  0  0  0  0
    5.8267    0.0186   24.6881 C   0  0  0  0  0  0  0  0  0  0  0  0
    6.1073   -0.9630   24.3275 H   0  0  0  0  0  0  0  0  0  0  0  0
    6.3762    1.1687   24.0376 C   0  0  0  0  0  0  0  0  0  0  0  0
    5.4118    0.7879   20.1759 C   0  0  0  0  0  0  0  0  0  0  0  0
    4.9870    0.8627   21.1778 H   0  0  0  0  0  0  0  0  0  0  0  0
    4.7875    1.3735   19.0734 C   0  0  0  0  0  0  0  0  0  0  0  0
    3.8323    1.8737   19.1646 H   0  0  0  0  0  0  0  0  0  0  0  0
  1  2  1  0
  2  3  2  0
  3  4  1  0
  4  5  1  0
  4  6  2  0
  6  7  1  0
  7  8  2  0
  8  9  1  0
  8 10  1  0
 10 11  1  0
 10 12  2  0
 12 13  1  0
 13 14  1  0
 14 15  2  0
 15 16  1  0
 15 17  1  0
 17 18  2  0
 18 19  1  0
 18 20  1  0
 20 21  2  0
 21 22  1  0
 21 23  1  0
 23 24  1  0
 23 25  2  0
 25 26  1  0
 25 27  1  0
 27 28  1  0
 27 29  2  0
  6 30  1  0
 30 31  1  0
 30 32  2  0
 32 33  1  0
 32  2  1  0
 13  7  1  0
 29 14  1  0
 29 20  1  0
M  END
>  <cnnaffinity>  (1) 
-4.95897

>  <filename>  (1) 
c1cncc(-c2ccnn2-c2cncc3ccccc23)c1

$$$$
