
     RDKit          3D

 32 35  0  0  0  0  0  0  0  0999 V2000
    4.9283    1.7766   16.9809 H   0  0  0  0  0  0  0  0  0  0  0  0
    5.4107    1.2995   17.8352 C   0  0  0  0  0  0  0  0  0  0  0  0
    6.5816    0.6840   17.6021 N   0  0  0  0  0  0  0  0  0  0  0  0
    7.1886    0.0849   18.6339 C   0  0  0  0  0  0  0  0  0  0  0  0
    8.1393   -0.3984   18.4196 H   0  0  0  0  0  0  0  0  0  0  0  0
    6.6715    0.0655   19.9497 C   0  0  0  0  0  0  0  0  0  0  0  0
    7.3485   -0.6057   21.0243 N   0  0  0  0  0  0  0  0  0  0  0  0
    7.7746   -1.9148   21.0386 C   0  0  0  0  0  0  0  0  0  0  0  0
    7.5489   -2.5984   20.2445 H   0  0  0  0  0  0  0  0  0  0  0  0
    8.3369   -2.2287   22.1682 N   0  0  0  0  0  0  0  0  0  0  0  0
    8.2489   -1.1240   22.9744 N   0  0  0  0  0  0  0  0  0  0  0  0
    7.6240   -0.1826   22.3145 C   0  0  0  0  0  0  0  0  0  0  0  0
    7.2305    1.0983   22.8976 C   0  0  0  0  0  0  0  0  0  0  0  0
    7.6248    2.2694   22.2915 C   0  0  0  0  0  0  0  0  0  0  0  0
    8.2062    2.2468   21.3701 H   0  0  0  0  0  0  0  0  0  0  0  0
    7.3389    3.5007   22.7805 N   0  0  0  0  0  0  0  0  0  0  0  0
    6.6435    3.5850   23.8966 C   0  0  0  0  0  0  0  0  0  0  0  0
    6.4321    4.5901   24.2677 H   0  0  0  0  0  0  0  0  0  0  0  0
    6.1596    2.4601   24.6306 C   0  0  0  0  0  0  0  0  0  0  0  0
    5.4113    2.5812   25.8470 C   0  0  0  0  0  0  0  0  0  0  0  0
    5.2115    3.5686   26.2659 H   0  0  0  0  0  0  0  0  0  0  0  0
    4.9490    1.4529   26.4792 C   0  0  0  0  0  0  0  0  0  0  0  0
    4.3844    1.5386   27.4029 H   0  0  0  0  0  0  0  0  0  0  0  0
    5.2003    0.1645   25.9388 C   0  0  0  0  0  0  0  0  0  0  0  0
    4.8134   -0.7134   26.4470 H   0  0  0  0  0  0  0  0  0  0  0  0
    5.9338    0.0213   24.7827 C   0  0  0  0  0  0  0  0  0  0  0  0
    6.1478   -0.9589   24.3672 H   0  0  0  0  0  0  0  0  0  0  0  0
    6.4531    1.1637   24.1023 C   0  0  0  0  0  0  0  0  0  0  0  0
    5.4541    0.7132   20.1794 C   0  0  0  0  0  0  0  0  0  0  0  0
    5.0396    0.7354   21.1890 H   0  0  0  0  0  0  0  0  0  0  0  0
    4.8116    1.3264   19.0988 C   0  0  0  0  0  0  0  0  0  0  0  0
    3.8540    1.8169   19.2251 H   0  0  0  0  0  0  0  0  0  0  0  0
  1  2  1  0
  2  3  2  0
  3  4  1  0
  4  5  1  0
  4  6  2  0
  6  7  1  0
  7  8  1  0
  8  9  1  0
  8 10  2  0
 10 11  1  0
 11 12  2  0
 12 13  1  0
 13 14  2  0
 14 15  1  0
 14 16  1  0
 16 17  2  0
 17 18  1  0
 17 19  1  0
 19 20  2  0
 20 21  1  0
 20 22  1  0
 22 23  1  0
 22 24  2  0
 24 25  1  0
 24 26  1  0
 26 27  1  0
 26 28  2  0
  6 29  1  0
 29 30  1  0
 29 31  2  0
 31 32  1  0
 31  2  1  0
 12  7  1  0
 28 13  1  0
 28 19  1  0
M  END
>  <cnnaffinity>  (1) 
-4.99479

>  <filename>  (1) 
c1cncc(-n2cnnc2-c2cncc3ccccc23)c1

$$$$
