
     RDKit          3D

 37 39  0  0  0  0  0  0  0  0999 V2000
    4.9558    1.8694   16.8621 H   0  0  0  0  0  0  0  0  0  0  0  0
    5.4035    1.3416   17.7005 C   0  0  0  0  0  0  0  0  0  0  0  0
    6.5408    0.6828   17.4355 N   0  0  0  0  0  0  0  0  0  0  0  0
    7.1384    0.0579   18.4489 C   0  0  0  0  0  0  0  0  0  0  0  0
    8.0560   -0.4852   18.2265 H   0  0  0  0  0  0  0  0  0  0  0  0
    6.6533    0.0641   19.7638 C   0  0  0  0  0  0  0  0  0  0  0  0
    7.4753   -0.5982   20.7625 C   0  0  0  0  0  0  0  0  0  0  0  0
    8.5220   -1.3504   20.5110 N   0  0  0  0  0  0  0  0  0  0  0  0
    8.9604   -1.8046   21.7237 C   0  0  0  0  0  0  0  0  0  0  0  0
    9.8058   -2.4816   21.7832 H   0  0  0  0  0  0  0  0  0  0  0  0
    8.1680   -1.3232   22.7372 C   0  0  0  0  0  0  0  0  0  0  0  0
    8.0116   -1.6694   24.1800 C   0  0  0  0  0  0  0  0  0  0  0  0
    7.7651   -0.7823   24.7777 H   0  0  0  0  0  0  0  0  0  0  0  0
    8.9613   -2.0412   24.5762 H   0  0  0  0  0  0  0  0  0  0  0  0
    6.9008   -2.7142   24.4004 C   0  0  0  0  0  0  0  0  0  0  0  0
    6.9561   -3.5145   23.6392 H   0  0  0  0  0  0  0  0  0  0  0  0
    5.9326   -2.2282   24.2359 H   0  0  0  0  0  0  0  0  0  0  0  0
    6.9370   -3.2215   25.7582 N   0  0  0  0  0  0  0  0  0  0  0  0
    8.0004   -4.2023   26.0325 C   0  0  0  0  0  0  0  0  0  0  0  0
    8.9591   -3.8944   25.6004 H   0  0  0  0  0  0  0  0  0  0  0  0
    7.7682   -5.2038   25.6157 H   0  0  0  0  0  0  0  0  0  0  0  0
    8.1224   -4.3066   27.5520 C   0  0  0  0  0  0  0  0  0  0  0  0
    8.9331   -4.9834   27.8427 H   0  0  0  0  0  0  0  0  0  0  0  0
    8.3392   -3.3002   27.9508 H   0  0  0  0  0  0  0  0  0  0  0  0
    6.9127   -4.8288   28.1038 O   0  0  0  0  0  0  0  0  0  0  0  0
    5.7788   -4.0356   27.7536 C   0  0  0  0  0  0  0  0  0  0  0  0
    5.8084   -3.0668   28.2668 H   0  0  0  0  0  0  0  0  0  0  0  0
    4.8990   -4.5723   28.1181 H   0  0  0  0  0  0  0  0  0  0  0  0
    5.6641   -3.7530   26.2506 C   0  0  0  0  0  0  0  0  0  0  0  0
    5.3464   -4.6648   25.7110 H   0  0  0  0  0  0  0  0  0  0  0  0
    4.8772   -3.0029   26.0959 H   0  0  0  0  0  0  0  0  0  0  0  0
    7.2300   -0.5355   22.1001 N   0  0  0  0  0  0  0  0  0  0  0  0
    6.6013    0.1146   22.5346 H   0  0  0  0  0  0  0  0  0  0  0  0
    5.4279    0.7038   20.0204 C   0  0  0  0  0  0  0  0  0  0  0  0
    4.9606    0.6805   21.0086 H   0  0  0  0  0  0  0  0  0  0  0  0
    4.7984    1.3628   18.9652 C   0  0  0  0  0  0  0  0  0  0  0  0
    3.8682    1.8981   19.1078 H   0  0  0  0  0  0  0  0  0  0  0  0
  1  2  1  0
  2  3  2  0
  3  4  1  0
  4  5  1  0
  4  6  2  0
  6  7  1  0
  7  8  2  0
  8  9  1  0
  9 10  1  0
  9 11  2  0
 11 12  1  0
 12 13  1  0
 12 14  1  0
 12 15  1  0
 15 16  1  0
 15 17  1  0
 15 18  1  0
 18 19  1  0
 19 20  1  0
 19 21  1  0
 19 22  1  0
 22 23  1  0
 22 24  1  0
 22 25  1  0
 25 26  1  0
 26 27  1  0
 26 28  1  0
 26 29  1  0
 29 30  1  0
 29 31  1  0
 11 32  1  0
 32 33  1  0
  6 34  1  0
 34 35  1  0
 34 36  2  0
 36 37  1  0
 36  2  1  0
 32  7  1  0
 29 18  1  0
M  END
>  <cnnaffinity>  (1) 
-4.78256

>  <filename>  (1) 
c1cncc(-c2ncc(CCN3CCOCC3)[nH]2)c1

$$$$
