
     RDKit          3D

 43 46  0  0  0  0  0  0  0  0999 V2000
    4.9662    1.6697   16.9318 H   0  0  0  0  0  0  0  0  0  0  0  0
    5.3593    1.2210   17.8420 C   0  0  0  0  0  0  0  0  0  0  0  0
    6.4755    0.4925   17.6963 N   0  0  0  0  0  0  0  0  0  0  0  0
    6.9845   -0.0701   18.7939 C   0  0  0  0  0  0  0  0  0  0  0  0
    7.8846   -0.6662   18.6594 H   0  0  0  0  0  0  0  0  0  0  0  0
    6.4370    0.0673   20.0847 C   0  0  0  0  0  0  0  0  0  0  0  0
    7.1030   -0.6382   21.1922 C   0  0  0  0  0  0  0  0  0  0  0  0
    7.6915   -1.8129   20.9444 N   0  0  0  0  0  0  0  0  0  0  0  0
    8.2901   -2.1216   22.0985 N   0  0  0  0  0  0  0  0  0  0  0  0
    8.1896   -1.1782   23.0415 C   0  0  0  0  0  0  0  0  0  0  0  0
    7.3424   -0.2097   22.5332 C   0  0  0  0  0  0  0  0  0  0  0  0
    7.2653    1.1822   23.1069 C   0  0  0  0  0  0  0  0  0  0  0  0
    6.3779    1.7122   22.7084 H   0  0  0  0  0  0  0  0  0  0  0  0
    7.1049    1.0871   24.1862 H   0  0  0  0  0  0  0  0  0  0  0  0
    8.5514    1.9928   22.9977 N   0  0  0  0  0  0  0  0  0  0  0  0
    8.9206    2.3535   21.5782 C   0  0  0  0  0  0  0  0  0  0  0  0
    9.5921    1.0808   20.9510 H   0  0  0  0  0  0  0  0  0  0  0  0
    9.8744    3.0741   22.0768 H   0  0  0  0  0  0  0  0  0  0  0  0
    8.8515    2.5478   21.6261 C   0  0  0  0  0  0  0  0  0  0  0  0
    7.6975    2.4953   21.1517 H   0  0  0  0  0  0  0  0  0  0  0  0
    9.0033    3.1384   20.5403 H   0  0  0  0  0  0  0  0  0  0  0  0
    7.7285    4.7294   22.1750 C   0  0  0  0  0  0  0  0  0  0  0  0
    7.0383    5.4632   21.7841 H   0  0  0  0  0  0  0  0  0  0  0  0
    8.6819    4.6322   21.7217 H   0  0  0  0  0  0  0  0  0  0  0  0
    7.4918    4.2629   23.4780 C   0  0  0  0  0  0  0  0  0  0  0  0
    6.4522    3.8745   23.5847 H   0  0  0  0  0  0  0  0  0  0  0  0
    7.5132    5.0744   24.2467 H   0  0  0  0  0  0  0  0  0  0  0  0
    8.4871    3.1573   23.9834 C   0  0  0  0  0  0  0  0  0  0  0  0
    9.4982    3.5808   24.1253 H   0  0  0  0  0  0  0  0  0  0  0  0
    8.1808    2.7402   24.9478 H   0  0  0  0  0  0  0  0  0  0  0  0
    9.2441   -1.3767   24.0913 C   0  0  0  0  0  0  0  0  0  0  0  0
    9.9294   -0.5222   24.0709 H   0  0  0  0  0  0  0  0  0  0  0  0
    8.8180   -1.4178   25.0945 H   0  0  0  0  0  0  0  0  0  0  0  0
    9.9296   -2.7060   23.6634 C   0  0  0  0  0  0  0  0  0  0  0  0
    9.7059   -3.5033   24.3730 H   0  0  0  0  0  0  0  0  0  0  0  0
   11.0129   -2.6107   23.6057 H   0  0  0  0  0  0  0  0  0  0  0  0
    9.3605   -3.0703   22.2676 C   0  0  0  0  0  0  0  0  0  0  0  0
   10.0810   -2.9084   21.4601 H   0  0  0  0  0  0  0  0  0  0  0  0
    8.9617   -4.0840   22.2054 H   0  0  0  0  0  0  0  0  0  0  0  0
    5.2685    0.8321   20.2178 C   0  0  0  0  0  0  0  0  0  0  0  0
    4.7883    0.9568   21.1908 H   0  0  0  0  0  0  0  0  0  0  0  0
    4.7174    1.4082   19.0712 C   0  0  0  0  0  0  0  0  0  0  0  0
    3.8203    2.0142   19.1142 H   0  0  0  0  0  0  0  0  0  0  0  0
  1  2  1  0
  2  3  2  0
  3  4  1  0
  4  5  1  0
  4  6  2  0
  6  7  1  0
  7  8  2  0
  8  9  1  0
  9 10  1  0
 10 11  2  0
 11 12  1  0
 12 13  1  0
 12 14  1  0
 12 15  1  0
 15 16  1  0
 16 17  1  0
 16 18  1  0
 16 19  1  0
 19 20  1  0
 19 21  1  0
 19 22  1  0
 22 23  1  0
 22 24  1  0
 22 25  1  0
 25 26  1  0
 25 27  1  0
 25 28  1  0
 28 29  1  0
 28 30  1  0
 10 31  1  0
 31 32  1  0
 31 33  1  0
 31 34  1  0
 34 35  1  0
 34 36  1  0
 34 37  1  0
 37 38  1  0
 37 39  1  0
  6 40  1  0
 40 41  1  0
 40 42  2  0
 42 43  1  0
 42  2  1  0
 11  7  1  0
 28 15  1  0
 37  9  1  0
M  END
>  <cnnaffinity>  (1) 
-5.42799

>  <filename>  (1) 
c1cncc(-c2nn3c(c2CN2CCCCC2)CCC3)c1

$$$$
