
     RDKit          3D

 39 41  0  0  0  0  0  0  0  0999 V2000
    4.9139    1.7848   16.9917 H   0  0  0  0  0  0  0  0  0  0  0  0
    5.3976    1.2959   17.8346 C   0  0  0  0  0  0  0  0  0  0  0  0
    6.5598    0.6780   17.5727 N   0  0  0  0  0  0  0  0  0  0  0  0
    7.1686    0.0664   18.5965 C   0  0  0  0  0  0  0  0  0  0  0  0
    8.1108   -0.4268   18.3646 H   0  0  0  0  0  0  0  0  0  0  0  0
    6.6588    0.0041   19.9073 C   0  0  0  0  0  0  0  0  0  0  0  0
    7.3732   -0.7229   20.9918 C   0  0  0  0  0  0  0  0  0  0  0  0
    8.7663   -0.6002   21.1698 C   0  0  0  0  0  0  0  0  0  0  0  0
    9.3333    0.0480   20.5019 H   0  0  0  0  0  0  0  0  0  0  0  0
    9.4464   -1.2245   22.1349 N   0  0  0  0  0  0  0  0  0  0  0  0
    8.7560   -2.0146   22.9758 C   0  0  0  0  0  0  0  0  0  0  0  0
    9.3386   -2.5094   23.7480 H   0  0  0  0  0  0  0  0  0  0  0  0
    7.3623   -2.2193   22.8973 C   0  0  0  0  0  0  0  0  0  0  0  0
    6.6105   -3.0045   23.7188 O   0  0  0  0  0  0  0  0  0  0  0  0
    7.1947   -3.7340   24.8041 C   0  0  0  0  0  0  0  0  0  0  0  0
    7.6958   -3.0440   25.4980 H   0  0  0  0  0  0  0  0  0  0  0  0
    7.9500   -4.4318   24.4199 H   0  0  0  0  0  0  0  0  0  0  0  0
    6.1003   -4.5043   25.5496 C   0  0  0  0  0  0  0  0  0  0  0  0
    5.5913   -5.1465   24.8150 H   0  0  0  0  0  0  0  0  0  0  0  0
    5.0467   -3.5647   26.1701 C   0  0  0  0  0  0  0  0  0  0  0  0
    5.5502   -2.8410   26.8288 H   0  0  0  0  0  0  0  0  0  0  0  0
    4.5471   -2.9860   25.3872 H   0  0  0  0  0  0  0  0  0  0  0  0
    4.0210   -4.3407   27.0058 C   0  0  0  0  0  0  0  0  0  0  0  0
    3.3088   -3.6567   27.4813 H   0  0  0  0  0  0  0  0  0  0  0  0
    3.4276   -4.9912   26.3494 H   0  0  0  0  0  0  0  0  0  0  0  0
    4.6286   -5.1861   28.0373 N   0  0  0  0  0  0  0  0  0  0  0  0
    5.1414   -4.5680   28.6644 H   0  0  0  0  0  0  0  0  0  0  0  0
    5.6048   -6.1179   27.4627 C   0  0  0  0  0  0  0  0  0  0  0  0
    5.0548   -6.8198   26.8215 H   0  0  0  0  0  0  0  0  0  0  0  0
    6.0374   -6.7205   28.2701 H   0  0  0  0  0  0  0  0  0  0  0  0
    6.6995   -5.4149   26.6434 C   0  0  0  0  0  0  0  0  0  0  0  0
    7.3047   -4.8107   27.3377 H   0  0  0  0  0  0  0  0  0  0  0  0
    7.3729   -6.1631   26.2064 H   0  0  0  0  0  0  0  0  0  0  0  0
    6.6680   -1.5472   21.8768 C   0  0  0  0  0  0  0  0  0  0  0  0
    5.5952   -1.6853   21.7672 H   0  0  0  0  0  0  0  0  0  0  0  0
    5.4372    0.6486   20.1513 C   0  0  0  0  0  0  0  0  0  0  0  0
    5.0121    0.6379   21.1575 H   0  0  0  0  0  0  0  0  0  0  0  0
    4.8049    1.3161   19.1014 C   0  0  0  0  0  0  0  0  0  0  0  0
    3.8729    1.8452   19.2556 H   0  0  0  0  0  0  0  0  0  0  0  0
  1  2  1  0
  2  3  2  0
  3  4  1  0
  4  5  1  0
  4  6  2  0
  6  7  1  0
  7  8  2  0
  8  9  1  0
  8 10  1  0
 10 11  2  0
 11 12  1  0
 11 13  1  0
 13 14  1  0
 14 15  1  0
 15 16  1  0
 15 17  1  0
 15 18  1  0
 18 19  1  0
 18 20  1  0
 20 21  1  0
 20 22  1  0
 20 23  1  0
 23 24  1  0
 23 25  1  0
 23 26  1  0
 26 27  1  0
 26 28  1  0
 28 29  1  0
 28 30  1  0
 28 31  1  0
 31 32  1  0
 31 33  1  0
 13 34  2  0
 34 35  1  0
  6 36  1  0
 36 37  1  0
 36 38  2  0
 38 39  1  0
 38  2  1  0
 34  7  1  0
 31 18  1  0
M  END
>  <cnnaffinity>  (1) 
-4.94932

>  <filename>  (1) 
c1cncc(-c2cncc(OCC3CCNCC3)c2)c1

$$$$
