
     RDKit          3D

 35 39  0  0  0  0  0  0  0  0999 V2000
    4.9192    1.7725   17.0039 H   0  0  0  0  0  0  0  0  0  0  0  0
    5.4070    1.2872   17.8479 C   0  0  0  0  0  0  0  0  0  0  0  0
    6.5729    0.6707   17.5954 N   0  0  0  0  0  0  0  0  0  0  0  0
    7.1793    0.0555   18.6146 C   0  0  0  0  0  0  0  0  0  0  0  0
    8.1256   -0.4303   18.3755 H   0  0  0  0  0  0  0  0  0  0  0  0
    6.6541    0.0082   19.9181 C   0  0  0  0  0  0  0  0  0  0  0  0
    7.3505   -0.6926   21.0029 C   0  0  0  0  0  0  0  0  0  0  0  0
    6.8745   -0.7481   22.2062 N   0  0  0  0  0  0  0  0  0  0  0  0
    7.7321   -1.4500   22.9819 N   0  0  0  0  0  0  0  0  0  0  0  0
    7.7404   -1.8218   24.3125 C   0  0  0  0  0  0  0  0  0  0  0  0
    6.7597   -1.4071   25.3113 C   0  0  0  0  0  0  0  0  0  0  0  0
    6.3359   -0.0866   25.4045 C   0  0  0  0  0  0  0  0  0  0  0  0
    6.7094    0.6323   24.6842 H   0  0  0  0  0  0  0  0  0  0  0  0
    5.4961    0.3987   26.3559 N   0  0  0  0  0  0  0  0  0  0  0  0
    5.0450   -0.4601   27.2475 C   0  0  0  0  0  0  0  0  0  0  0  0
    4.3714   -0.0781   28.0116 H   0  0  0  0  0  0  0  0  0  0  0  0
    5.3679   -1.8483   27.2762 C   0  0  0  0  0  0  0  0  0  0  0  0
    4.8332   -2.7389   28.2590 C   0  0  0  0  0  0  0  0  0  0  0  0
    4.1694   -2.3475   29.0290 H   0  0  0  0  0  0  0  0  0  0  0  0
    5.1472   -4.0761   28.2224 C   0  0  0  0  0  0  0  0  0  0  0  0
    4.7412   -4.7573   28.9653 H   0  0  0  0  0  0  0  0  0  0  0  0
    5.9977   -4.5878   27.2061 C   0  0  0  0  0  0  0  0  0  0  0  0
    6.2281   -5.6482   27.1764 H   0  0  0  0  0  0  0  0  0  0  0  0
    6.5247   -3.7501   26.2476 C   0  0  0  0  0  0  0  0  0  0  0  0
    7.1479   -4.1453   25.4515 H   0  0  0  0  0  0  0  0  0  0  0  0
    6.2446   -2.3489   26.2676 C   0  0  0  0  0  0  0  0  0  0  0  0
    8.9290   -2.5167   24.4326 C   0  0  0  0  0  0  0  0  0  0  0  0
    9.3265   -2.9409   25.3444 H   0  0  0  0  0  0  0  0  0  0  0  0
    9.6230   -2.6015   23.2533 N   0  0  0  0  0  0  0  0  0  0  0  0
    8.8630   -1.9492   22.4142 C   0  0  0  0  0  0  0  0  0  0  0  0
    8.9032   -1.5130   20.7418 S   0  0  0  0  0  0  0  0  0  0  0  0
    5.4317    0.6558   20.1663 C   0  0  0  0  0  0  0  0  0  0  0  0
    5.0028    0.6321   21.1699 H   0  0  0  0  0  0  0  0  0  0  0  0
    4.8045    1.3105   19.1107 C   0  0  0  0  0  0  0  0  0  0  0  0
    3.8725    1.8447   19.2619 H   0  0  0  0  0  0  0  0  0  0  0  0
  1  2  1  0
  2  3  2  0
  3  4  1  0
  4  5  1  0
  4  6  2  0
  6  7  1  0
  7  8  2  0
  8  9  1  0
  9 10  1  0
 10 11  1  0
 11 12  2  0
 12 13  1  0
 12 14  1  0
 14 15  2  0
 15 16  1  0
 15 17  1  0
 17 18  2  0
 18 19  1  0
 18 20  1  0
 20 21  1  0
 20 22  2  0
 22 23  1  0
 22 24  1  0
 24 25  1  0
 24 26  2  0
 10 27  2  0
 27 28  1  0
 27 29  1  0
 29 30  2  0
 30 31  1  0
  6 32  1  0
 32 33  1  0
 32 34  2  0
 34 35  1  0
 34  2  1  0
 31  7  1  0
 30  9  1  0
 26 11  1  0
 26 17  1  0
M  END
>  <cnnaffinity>  (1) 
-5.59918

>  <filename>  (1) 
c1cncc(-c2nn3c(-c4cncc5ccccc45)cnc3s2)c1

$$$$
