
     RDKit          3D

 34 37  0  0  0  0  0  0  0  0999 V2000
    4.9109    1.7860   16.9922 H   0  0  0  0  0  0  0  0  0  0  0  0
    5.3956    1.2975   17.8307 C   0  0  0  0  0  0  0  0  0  0  0  0
    6.5613    0.6868   17.5573 N   0  0  0  0  0  0  0  0  0  0  0  0
    7.1631    0.0627   18.5723 C   0  0  0  0  0  0  0  0  0  0  0  0
    8.1196   -0.4140   18.3548 H   0  0  0  0  0  0  0  0  0  0  0  0
    6.6489    0.0039   19.8816 C   0  0  0  0  0  0  0  0  0  0  0  0
    7.3723   -0.6739   20.9559 C   0  0  0  0  0  0  0  0  0  0  0  0
    7.5106   -0.3283   22.2909 C   0  0  0  0  0  0  0  0  0  0  0  0
    7.0844    0.9273   22.9200 C   0  0  0  0  0  0  0  0  0  0  0  0
    7.4845    2.1332   22.3597 C   0  0  0  0  0  0  0  0  0  0  0  0
    8.0712    2.1201   21.4435 H   0  0  0  0  0  0  0  0  0  0  0  0
    7.1497    3.3730   22.9545 C   0  0  0  0  0  0  0  0  0  0  0  0
    7.4826    4.2977   22.4858 H   0  0  0  0  0  0  0  0  0  0  0  0
    6.4075    3.4050   24.1127 C   0  0  0  0  0  0  0  0  0  0  0  0
    6.1483    4.3515   24.5833 H   0  0  0  0  0  0  0  0  0  0  0  0
    5.9593    2.1951   24.7208 C   0  0  0  0  0  0  0  0  0  0  0  0
    5.1820    2.2191   25.9211 C   0  0  0  0  0  0  0  0  0  0  0  0
    4.9522    3.1854   26.3662 H   0  0  0  0  0  0  0  0  0  0  0  0
    4.7295    1.0555   26.4958 C   0  0  0  0  0  0  0  0  0  0  0  0
    4.1358    1.0838   27.4076 H   0  0  0  0  0  0  0  0  0  0  0  0
    5.0300   -0.1977   25.9004 C   0  0  0  0  0  0  0  0  0  0  0  0
    4.6576   -1.1155   26.3497 H   0  0  0  0  0  0  0  0  0  0  0  0
    5.7848   -0.2573   24.7508 C   0  0  0  0  0  0  0  0  0  0  0  0
    5.9840   -1.2154   24.2754 H   0  0  0  0  0  0  0  0  0  0  0  0
    6.2852    0.9327   24.1215 C   0  0  0  0  0  0  0  0  0  0  0  0
    8.2799   -1.3790   22.8365 C   0  0  0  0  0  0  0  0  0  0  0  0
    8.6056   -1.4455   23.8621 H   0  0  0  0  0  0  0  0  0  0  0  0
    8.6055   -2.2984   21.9410 N   0  0  0  0  0  0  0  0  0  0  0  0
    8.0495   -1.8376   20.8096 N   0  0  0  0  0  0  0  0  0  0  0  0
    8.1192   -2.3704   19.9581 H   0  0  0  0  0  0  0  0  0  0  0  0
    5.4294    0.6497   20.1463 C   0  0  0  0  0  0  0  0  0  0  0  0
    5.0148    0.6337   21.1607 H   0  0  0  0  0  0  0  0  0  0  0  0
    4.7975    1.3115   19.0969 C   0  0  0  0  0  0  0  0  0  0  0  0
    3.8686    1.8470   19.2557 H   0  0  0  0  0  0  0  0  0  0  0  0
  1  2  1  0
  2  3  2  0
  3  4  1  0
  4  5  1  0
  4  6  2  0
  6  7  1  0
  7  8  2  0
  8  9  1  0
  9 10  2  0
 10 11  1  0
 10 12  1  0
 12 13  1  0
 12 14  2  0
 14 15  1  0
 14 16  1  0
 16 17  2  0
 17 18  1  0
 17 19  1  0
 19 20  1  0
 19 21  2  0
 21 22  1  0
 21 23  1  0
 23 24  1  0
 23 25  2  0
  8 26  1  0
 26 27  1  0
 26 28  2  0
 28 29  1  0
 29 30  1  0
  6 31  1  0
 31 32  1  0
 31 33  2  0
 33 34  1  0
 33  2  1  0
 29  7  1  0
 25  9  1  0
 25 16  1  0
M  END
>  <cnnaffinity>  (1) 
-4.91227

>  <filename>  (1) 
c1cncc(-c2[nH]ncc2-c2cccc3ccccc23)c1

$$$$
