
     RDKit          3D

 32 35  0  0  0  0  0  0  0  0999 V2000
    4.8034    1.2897   19.1012 C   0  0  0  0  0  0  0  0  0  0  0  0
    5.4084    1.2863   17.8428 C   0  0  0  0  0  0  0  0  0  0  0  0
    6.5737    0.6613   17.5972 N   0  0  0  0  0  0  0  0  0  0  0  0
    7.1701    0.0281   18.6086 C   0  0  0  0  0  0  0  0  0  0  0  0
    6.6449   -0.0096   19.9111 C   0  0  0  0  0  0  0  0  0  0  0  0
    7.3968   -0.6444   20.9378 N   0  0  0  0  0  0  0  0  0  0  0  0
    7.9517   -1.8458   20.7022 N   0  0  0  0  0  0  0  0  0  0  0  0
    8.4714   -2.2366   21.8549 C   0  0  0  0  0  0  0  0  0  0  0  0
    8.2700   -1.2865   22.8666 C   0  0  0  0  0  0  0  0  0  0  0  0
    7.5988   -0.2511   22.2397 C   0  0  0  0  0  0  0  0  0  0  0  0
    7.2159    1.0654   22.7474 C   0  0  0  0  0  0  0  0  0  0  0  0
    7.5751    2.1263   22.0342 N   0  0  0  0  0  0  0  0  0  0  0  0
    7.3048    3.3320   22.5672 C   0  0  0  0  0  0  0  0  0  0  0  0
    6.7100    3.5759   23.7109 N   0  0  0  0  0  0  0  0  0  0  0  0
    6.3010    2.4969   24.4349 C   0  0  0  0  0  0  0  0  0  0  0  0
    5.6418    2.7236   25.6759 C   0  0  0  0  0  0  0  0  0  0  0  0
    5.1899    1.6658   26.4327 C   0  0  0  0  0  0  0  0  0  0  0  0
    5.3755    0.3302   25.9764 C   0  0  0  0  0  0  0  0  0  0  0  0
    6.0093    0.0752   24.7842 C   0  0  0  0  0  0  0  0  0  0  0  0
    6.5107    1.1589   23.9909 C   0  0  0  0  0  0  0  0  0  0  0  0
    6.1311   -0.9458   24.4237 H   0  0  0  0  0  0  0  0  0  0  0  0
    5.0065   -0.4964   26.5802 H   0  0  0  0  0  0  0  0  0  0  0  0
    4.6830    1.8417   27.3792 H   0  0  0  0  0  0  0  0  0  0  0  0
    5.5177    3.7626   25.9702 H   0  0  0  0  0  0  0  0  0  0  0  0
    7.6288    4.1855   21.9722 H   0  0  0  0  0  0  0  0  0  0  0  0
    8.6067   -1.3103   23.8956 H   0  0  0  0  0  0  0  0  0  0  0  0
    8.9980   -3.1816   21.8983 H   0  0  0  0  0  0  0  0  0  0  0  0
    5.4164    0.6188   20.1598 C   0  0  0  0  0  0  0  0  0  0  0  0
    5.0001    0.6403   21.1694 H   0  0  0  0  0  0  0  0  0  0  0  0
    8.1214   -0.4466   18.3753 H   0  0  0  0  0  0  0  0  0  0  0  0
    4.9451    1.7865   16.9952 H   0  0  0  0  0  0  0  0  0  0  0  0
    3.8815    1.8351   19.2509 H   0  0  0  0  0  0  0  0  0  0  0  0
  1  2  2  0
  2  3  1  0
  3  4  2  0
  4  5  1  0
  5  6  1  0
  6  7  1  0
  7  8  2  0
  8  9  1  0
  9 10  2  0
 10 11  1  0
 11 12  2  0
 12 13  1  0
 13 14  2  0
 14 15  1  0
 15 16  2  0
 16 17  1  0
 17 18  2  0
 18 19  1  0
 19 20  2  0
 19 21  1  0
 18 22  1  0
 17 23  1  0
 16 24  1  0
 13 25  1  0
  9 26  1  0
  8 27  1  0
  5 28  2  0
 28 29  1  0
  4 30  1  0
  2 31  1  0
  1 32  1  0
 28  1  1  0
 10  6  1  0
 20 11  1  0
 20 15  1  0
M  END
>  <cnnaffinity>  (1) 
-5.66283

>  <filename>  (1) 
c1cncc(-n2nccc2-c2ncnc3ccccc23)c1

$$$$
