
     RDKit          3D

 35 39  0  0  0  0  0  0  0  0999 V2000
    4.9207    1.7735   17.0026 H   0  0  0  0  0  0  0  0  0  0  0  0
    5.4066    1.2879   17.8468 C   0  0  0  0  0  0  0  0  0  0  0  0
    6.5714    0.6712   17.5930 N   0  0  0  0  0  0  0  0  0  0  0  0
    7.1770    0.0574   18.6114 C   0  0  0  0  0  0  0  0  0  0  0  0
    8.1237   -0.4285   18.3736 H   0  0  0  0  0  0  0  0  0  0  0  0
    6.6505    0.0117   19.9130 C   0  0  0  0  0  0  0  0  0  0  0  0
    7.3488   -0.6895   20.9928 C   0  0  0  0  0  0  0  0  0  0  0  0
    6.8736   -0.7437   22.1975 N   0  0  0  0  0  0  0  0  0  0  0  0
    7.7358   -1.4525   22.9791 N   0  0  0  0  0  0  0  0  0  0  0  0
    7.7796   -1.8733   24.2884 C   0  0  0  0  0  0  0  0  0  0  0  0
    6.8053   -1.5035   25.3223 C   0  0  0  0  0  0  0  0  0  0  0  0
    6.3249   -0.2018   25.3727 C   0  0  0  0  0  0  0  0  0  0  0  0
    6.6324    0.5186   24.6190 H   0  0  0  0  0  0  0  0  0  0  0  0
    5.4420    0.2071   26.3987 C   0  0  0  0  0  0  0  0  0  0  0  0
    5.0913    1.2347   26.4156 H   0  0  0  0  0  0  0  0  0  0  0  0
    5.0378   -0.6822   27.3678 C   0  0  0  0  0  0  0  0  0  0  0  0
    4.3658   -0.3727   28.1665 H   0  0  0  0  0  0  0  0  0  0  0  0
    5.4889   -2.0347   27.3427 C   0  0  0  0  0  0  0  0  0  0  0  0
    5.0606   -2.9661   28.3373 C   0  0  0  0  0  0  0  0  0  0  0  0
    4.3990   -2.6128   29.1267 H   0  0  0  0  0  0  0  0  0  0  0  0
    5.4692   -4.2773   28.2941 C   0  0  0  0  0  0  0  0  0  0  0  0
    5.1389   -4.9809   29.0549 H   0  0  0  0  0  0  0  0  0  0  0  0
    6.3188   -4.7273   27.2484 C   0  0  0  0  0  0  0  0  0  0  0  0
    6.6270   -5.7690   27.2188 H   0  0  0  0  0  0  0  0  0  0  0  0
    6.7547   -3.8580   26.2700 C   0  0  0  0  0  0  0  0  0  0  0  0
    7.3992   -4.2014   25.4639 H   0  0  0  0  0  0  0  0  0  0  0  0
    6.3753   -2.4731   26.2987 C   0  0  0  0  0  0  0  0  0  0  0  0
    8.8712   -2.5865   24.4573 N   0  0  0  0  0  0  0  0  0  0  0  0
    9.5696   -2.6301   23.2720 N   0  0  0  0  0  0  0  0  0  0  0  0
    8.8607   -1.9560   22.4107 C   0  0  0  0  0  0  0  0  0  0  0  0
    8.9053   -1.5140   20.7311 S   0  0  0  0  0  0  0  0  0  0  0  0
    5.4296    0.6574   20.1659 C   0  0  0  0  0  0  0  0  0  0  0  0
    5.0022    0.6325   21.1716 H   0  0  0  0  0  0  0  0  0  0  0  0
    4.8032    1.3113   19.1097 C   0  0  0  0  0  0  0  0  0  0  0  0
    3.8713    1.8455   19.2602 H   0  0  0  0  0  0  0  0  0  0  0  0
  1  2  1  0
  2  3  2  0
  3  4  1  0
  4  5  1  0
  4  6  2  0
  6  7  1  0
  7  8  2  0
  8  9  1  0
  9 10  1  0
 10 11  1  0
 11 12  2  0
 12 13  1  0
 12 14  1  0
 14 15  1  0
 14 16  2  0
 16 17  1  0
 16 18  1  0
 18 19  2  0
 19 20  1  0
 19 21  1  0
 21 22  1  0
 21 23  2  0
 23 24  1  0
 23 25  1  0
 25 26  1  0
 25 27  2  0
 10 28  2  0
 28 29  1  0
 29 30  2  0
 30 31  1  0
  6 32  1  0
 32 33  1  0
 32 34  2  0
 34 35  1  0
 34  2  1  0
 31  7  1  0
 30  9  1  0
 27 11  1  0
 27 18  1  0
M  END
>  <cnnaffinity>  (1) 
-5.40767

>  <filename>  (1) 
c1cncc(-c2nn3c(-c4cccc5ccccc45)nnc3s2)c1

$$$$
