
     RDKit          3D

 35 38  0  0  0  0  0  0  0  0999 V2000
    5.0803    1.8328   16.8727 H   0  0  0  0  0  0  0  0  0  0  0  0
    5.4775    1.3176   17.7444 C   0  0  0  0  0  0  0  0  0  0  0  0
    6.6247    0.6440   17.5629 N   0  0  0  0  0  0  0  0  0  0  0  0
    7.1278   -0.0288   18.6043 C   0  0  0  0  0  0  0  0  0  0  0  0
    8.0584   -0.5643   18.4174 H   0  0  0  0  0  0  0  0  0  0  0  0
    6.5270   -0.0493   19.8754 C   0  0  0  0  0  0  0  0  0  0  0  0
    7.1376   -0.7668   20.9988 C   0  0  0  0  0  0  0  0  0  0  0  0
    7.7237   -1.9562   20.8510 N   0  0  0  0  0  0  0  0  0  0  0  0
    8.0812   -2.2741   22.0939 N   0  0  0  0  0  0  0  0  0  0  0  0
    7.7690   -1.3654   23.0241 C   0  0  0  0  0  0  0  0  0  0  0  0
    7.1680   -0.3148   22.3498 C   0  0  0  0  0  0  0  0  0  0  0  0
    6.8766    1.0785   22.8779 C   0  0  0  0  0  0  0  0  0  0  0  0
    6.8105    1.7825   22.0383 H   0  0  0  0  0  0  0  0  0  0  0  0
    5.9191    1.1088   23.4234 H   0  0  0  0  0  0  0  0  0  0  0  0
    7.9334    1.5514   23.8318 C   0  0  0  0  0  0  0  0  0  0  0  0
    9.5257    1.9517   23.2949 S   0  0  0  0  0  0  0  0  0  0  0  0
   10.0882    2.1337   24.9117 C   0  0  0  0  0  0  0  0  0  0  0  0
   11.1375    2.3443   25.0732 H   0  0  0  0  0  0  0  0  0  0  0  0
    9.0901    1.9198   25.8174 C   0  0  0  0  0  0  0  0  0  0  0  0
    9.1989    1.9585   26.8918 H   0  0  0  0  0  0  0  0  0  0  0  0
    7.8546    1.5856   25.1910 C   0  0  0  0  0  0  0  0  0  0  0  0
    6.9398    1.3385   25.7247 H   0  0  0  0  0  0  0  0  0  0  0  0
    8.4142   -1.7606   24.3288 C   0  0  0  0  0  0  0  0  0  0  0  0
    9.2503   -1.0843   24.5262 H   0  0  0  0  0  0  0  0  0  0  0  0
    7.7381   -1.7154   25.1835 H   0  0  0  0  0  0  0  0  0  0  0  0
    8.8995   -3.2104   24.0601 C   0  0  0  0  0  0  0  0  0  0  0  0
    9.8764   -3.4210   24.5041 H   0  0  0  0  0  0  0  0  0  0  0  0
    8.1903   -3.9300   24.4758 H   0  0  0  0  0  0  0  0  0  0  0  0
    8.9255   -3.3678   22.5251 C   0  0  0  0  0  0  0  0  0  0  0  0
    9.9282   -3.2300   22.1116 H   0  0  0  0  0  0  0  0  0  0  0  0
    8.5090   -4.3206   22.1930 H   0  0  0  0  0  0  0  0  0  0  0  0
    5.3204    0.6523   20.0409 C   0  0  0  0  0  0  0  0  0  0  0  0
    4.8224    0.6701   21.0103 H   0  0  0  0  0  0  0  0  0  0  0  0
    4.7836    1.3411   18.9577 C   0  0  0  0  0  0  0  0  0  0  0  0
    3.8578    1.8989   19.0489 H   0  0  0  0  0  0  0  0  0  0  0  0
  1  2  1  0
  2  3  2  0
  3  4  1  0
  4  5  1  0
  4  6  2  0
  6  7  1  0
  7  8  2  0
  8  9  1  0
  9 10  1  0
 10 11  2  0
 11 12  1  0
 12 13  1  0
 12 14  1  0
 12 15  1  0
 15 16  1  0
 16 17  1  0
 17 18  1  0
 17 19  2  0
 19 20  1  0
 19 21  1  0
 21 22  1  0
 10 23  1  0
 23 24  1  0
 23 25  1  0
 23 26  1  0
 26 27  1  0
 26 28  1  0
 26 29  1  0
 29 30  1  0
 29 31  1  0
  6 32  1  0
 32 33  1  0
 32 34  2  0
 34 35  1  0
 34  2  1  0
 11  7  1  0
 21 15  2  0
 29  9  1  0
M  END
>  <cnnaffinity>  (1) 
-5.54432

>  <filename>  (1) 
c1cncc(-c2nn3c(c2Cc2cccs2)CCC3)c1

$$$$
