
     RDKit          3D

 32 35  0  0  0  0  0  0  0  0999 V2000
    4.9684    1.8351   16.9443 H   0  0  0  0  0  0  0  0  0  0  0  0
    5.4099    1.2995   17.7801 C   0  0  0  0  0  0  0  0  0  0  0  0
    6.5609    0.6587   17.5264 N   0  0  0  0  0  0  0  0  0  0  0  0
    7.1444    0.0081   18.5381 C   0  0  0  0  0  0  0  0  0  0  0  0
    8.0953   -0.4725   18.3101 H   0  0  0  0  0  0  0  0  0  0  0  0
    6.6161   -0.0393   19.8432 C   0  0  0  0  0  0  0  0  0  0  0  0
    7.3727   -0.6676   20.9416 C   0  0  0  0  0  0  0  0  0  0  0  0
    8.5115   -1.3413   20.7057 N   0  0  0  0  0  0  0  0  0  0  0  0
    8.9272   -1.6712   21.9480 N   0  0  0  0  0  0  0  0  0  0  0  0
   10.0985   -2.1906   22.4823 C   0  0  0  0  0  0  0  0  0  0  0  0
   10.8708   -2.5385   21.8206 H   0  0  0  0  0  0  0  0  0  0  0  0
    9.9992   -2.0386   23.8275 C   0  0  0  0  0  0  0  0  0  0  0  0
   10.6914   -2.3258   24.6041 H   0  0  0  0  0  0  0  0  0  0  0  0
    8.7575   -1.4726   24.1311 N   0  0  0  0  0  0  0  0  0  0  0  0
    8.3855   -0.7418   25.3379 C   0  0  0  0  0  0  0  0  0  0  0  0
    8.7677   -1.2524   26.2280 H   0  0  0  0  0  0  0  0  0  0  0  0
    7.2931   -0.7540   25.3910 H   0  0  0  0  0  0  0  0  0  0  0  0
    8.8310    0.6924   25.2632 C   0  0  0  0  0  0  0  0  0  0  0  0
    7.9707    1.6510   24.7783 N   0  0  0  0  0  0  0  0  0  0  0  0
    8.6630    2.7578   24.7219 C   0  0  0  0  0  0  0  0  0  0  0  0
    8.2777    3.7305   24.4345 H   0  0  0  0  0  0  0  0  0  0  0  0
    9.9414    2.5612   25.1417 N   0  0  0  0  0  0  0  0  0  0  0  0
   10.6666    3.2578   25.1295 H   0  0  0  0  0  0  0  0  0  0  0  0
   10.0660    1.2336   25.4976 C   0  0  0  0  0  0  0  0  0  0  0  0
   10.9743    0.8132   25.9202 H   0  0  0  0  0  0  0  0  0  0  0  0
    8.1202   -1.2252   22.9301 C   0  0  0  0  0  0  0  0  0  0  0  0
    7.0630   -0.5707   22.3215 C   0  0  0  0  0  0  0  0  0  0  0  0
    6.2862    0.0053   22.7973 H   0  0  0  0  0  0  0  0  0  0  0  0
    5.3981    0.6235   20.0797 C   0  0  0  0  0  0  0  0  0  0  0  0
    4.9516    0.6479   21.0742 H   0  0  0  0  0  0  0  0  0  0  0  0
    4.7878    1.3036   19.0317 C   0  0  0  0  0  0  0  0  0  0  0  0
    3.8666    1.8570   19.1782 H   0  0  0  0  0  0  0  0  0  0  0  0
  1  2  1  0
  2  3  2  0
  3  4  1  0
  4  5  1  0
  4  6  2  0
  6  7  1  0
  7  8  2  0
  8  9  1  0
  9 10  1  0
 10 11  1  0
 10 12  2  0
 12 13  1  0
 12 14  1  0
 14 15  1  0
 15 16  1  0
 15 17  1  0
 15 18  1  0
 18 19  1  0
 19 20  2  0
 20 21  1  0
 20 22  1  0
 22 23  1  0
 22 24  1  0
 24 25  1  0
 14 26  1  0
 26 27  2  0
 27 28  1  0
  6 29  1  0
 29 30  1  0
 29 31  2  0
 31 32  1  0
 31  2  1  0
 27  7  1  0
 26  9  1  0
 24 18  2  0
M  END
>  <cnnaffinity>  (1) 
-5.58999

>  <filename>  (1) 
c1cncc(-c2cc3n(Cc4c[nH]cn4)ccn3n2)c1

$$$$
