
     RDKit          3D

 28 30  0  0  0  0  0  0  0  0999 V2000
   10.3917    2.0235   24.4398 H   0  0  0  0  0  0  0  0  0  0  0  0
    9.3565    1.8459   24.1521 C   0  0  0  0  0  0  0  0  0  0  0  0
    8.4603    2.7476   24.5570 N   0  0  0  0  0  0  0  0  0  0  0  0
    7.2003    2.5169   24.1978 C   0  0  0  0  0  0  0  0  0  0  0  0
    6.4589    3.2437   24.5314 H   0  0  0  0  0  0  0  0  0  0  0  0
    6.8193    1.4051   23.4586 C   0  0  0  0  0  0  0  0  0  0  0  0
    5.7830    1.2124   23.2158 H   0  0  0  0  0  0  0  0  0  0  0  0
    7.8326    0.5232   23.0787 C   0  0  0  0  0  0  0  0  0  0  0  0
    7.4832   -0.7571   22.2853 C   0  0  0  0  0  0  0  0  0  0  0  0
    7.5042   -0.8142   20.8360 N   0  0  0  0  0  0  0  0  0  0  0  0
    8.4252   -1.0558   20.4871 H   0  0  0  0  0  0  0  0  0  0  0  0
    6.7583   -0.0626   19.9148 C   0  0  0  0  0  0  0  0  0  0  0  0
    7.2152    0.0303   18.5697 C   0  0  0  0  0  0  0  0  0  0  0  0
    8.1473   -0.4688   18.3008 H   0  0  0  0  0  0  0  0  0  0  0  0
    6.5903    0.6813   17.5818 N   0  0  0  0  0  0  0  0  0  0  0  0
    5.4336    1.2970   17.8943 C   0  0  0  0  0  0  0  0  0  0  0  0
    4.9434    1.8382   17.0878 H   0  0  0  0  0  0  0  0  0  0  0  0
    4.8765    1.2578   19.1759 C   0  0  0  0  0  0  0  0  0  0  0  0
    3.9431    1.7781   19.3650 H   0  0  0  0  0  0  0  0  0  0  0  0
    5.5402    0.5678   20.2044 C   0  0  0  0  0  0  0  0  0  0  0  0
    5.1340    0.5210   21.2119 H   0  0  0  0  0  0  0  0  0  0  0  0
    6.5352   -1.7661   22.9189 C   0  0  0  0  0  0  0  0  0  0  0  0
    6.0877   -1.5423   23.8842 H   0  0  0  0  0  0  0  0  0  0  0  0
    5.8772   -2.3042   22.2373 H   0  0  0  0  0  0  0  0  0  0  0  0
    8.0072   -2.0437   22.8570 C   0  0  0  0  0  0  0  0  0  0  0  0
    8.5896   -1.9527   23.7676 H   0  0  0  0  0  0  0  0  0  0  0  0
    8.3677   -2.7889   22.1519 H   0  0  0  0  0  0  0  0  0  0  0  0
    9.1126    0.7447   23.4499 N   0  0  0  0  0  0  0  0  0  0  0  0
  1  2  1  0
  2  3  2  0
  3  4  1  0
  4  5  1  0
  4  6  2  0
  6  7  1  0
  6  8  1  0
  8  9  1  0
  9 10  1  0
 10 11  1  0
 10 12  1  0
 12 13  2  0
 13 14  1  0
 13 15  1  0
 15 16  2  0
 16 17  1  0
 16 18  1  0
 18 19  1  0
 18 20  2  0
 20 21  1  0
  9 22  1  0
 22 23  1  0
 22 24  1  0
 22 25  1  0
 25 26  1  0
 25 27  1  0
  8 28  2  0
 28  2  1  0
 25  9  1  0
 20 12  1  0
M  END
>  <cnnaffinity>  (1) 
-4.6946

>  <filename>  (1) 
c1cncc(NC2(c3ccncn3)CC2)c1

$$$$
