
     RDKit          3D

 32 35  0  0  0  0  0  0  0  0999 V2000
    4.9239    1.7853   16.9916 H   0  0  0  0  0  0  0  0  0  0  0  0
    5.4021    1.2953   17.8353 C   0  0  0  0  0  0  0  0  0  0  0  0
    6.5667    0.6800   17.5783 N   0  0  0  0  0  0  0  0  0  0  0  0
    7.1670    0.0571   18.5938 C   0  0  0  0  0  0  0  0  0  0  0  0
    8.1123   -0.4370   18.3761 H   0  0  0  0  0  0  0  0  0  0  0  0
    6.6478    0.0202   19.8959 C   0  0  0  0  0  0  0  0  0  0  0  0
    7.3784   -0.7222   20.9243 C   0  0  0  0  0  0  0  0  0  0  0  0
    7.9458   -1.8841   20.7387 N   0  0  0  0  0  0  0  0  0  0  0  0
    8.4489   -2.3106   21.9431 N   0  0  0  0  0  0  0  0  0  0  0  0
    8.1877   -1.3806   22.8190 C   0  0  0  0  0  0  0  0  0  0  0  0
    8.4717   -1.3881   23.8590 H   0  0  0  0  0  0  0  0  0  0  0  0
    7.5039   -0.3272   22.2476 N   0  0  0  0  0  0  0  0  0  0  0  0
    7.1763    0.9387   22.8543 C   0  0  0  0  0  0  0  0  0  0  0  0
    6.5844    0.9943   24.1677 C   0  0  0  0  0  0  0  0  0  0  0  0
    6.3964    0.0545   24.6868 H   0  0  0  0  0  0  0  0  0  0  0  0
    6.2473    2.1016   24.7879 N   0  0  0  0  0  0  0  0  0  0  0  0
    6.4724    3.2912   24.1360 C   0  0  0  0  0  0  0  0  0  0  0  0
    6.1211    4.5128   24.7840 C   0  0  0  0  0  0  0  0  0  0  0  0
    5.6916    4.4313   25.7750 H   0  0  0  0  0  0  0  0  0  0  0  0
    6.3271    5.7247   24.1588 C   0  0  0  0  0  0  0  0  0  0  0  0
    6.0577    6.6576   24.6502 H   0  0  0  0  0  0  0  0  0  0  0  0
    6.8963    5.7761   22.8549 C   0  0  0  0  0  0  0  0  0  0  0  0
    7.0535    6.7382   22.3659 H   0  0  0  0  0  0  0  0  0  0  0  0
    7.2510    4.6166   22.2094 C   0  0  0  0  0  0  0  0  0  0  0  0
    7.7056    4.6688   21.2260 H   0  0  0  0  0  0  0  0  0  0  0  0
    7.0526    3.3470   22.8276 C   0  0  0  0  0  0  0  0  0  0  0  0
    7.4176    2.1235   22.1944 C   0  0  0  0  0  0  0  0  0  0  0  0
    7.8378    2.1333   21.1864 H   0  0  0  0  0  0  0  0  0  0  0  0
    5.4196    0.6523   20.1494 C   0  0  0  0  0  0  0  0  0  0  0  0
    4.9977    0.6395   21.1589 H   0  0  0  0  0  0  0  0  0  0  0  0
    4.7958    1.3104   19.0957 C   0  0  0  0  0  0  0  0  0  0  0  0
    3.8678    1.8451   19.2501 H   0  0  0  0  0  0  0  0  0  0  0  0
  1  2  1  0
  2  3  2  0
  3  4  1  0
  4  5  1  0
  4  6  2  0
  6  7  1  0
  7  8  2  0
  8  9  1  0
  9 10  2  0
 10 11  1  0
 10 12  1  0
 12 13  1  0
 13 14  2  0
 14 15  1  0
 14 16  1  0
 16 17  2  0
 17 18  1  0
 18 19  1  0
 18 20  2  0
 20 21  1  0
 20 22  1  0
 22 23  1  0
 22 24  2  0
 24 25  1  0
 24 26  1  0
 26 27  2  0
 27 28  1  0
  6 29  1  0
 29 30  1  0
 29 31  2  0
 31 32  1  0
 31  2  1  0
 12  7  1  0
 27 13  1  0
 26 17  1  0
M  END
>  <cnnaffinity>  (1) 
-5.34567

>  <filename>  (1) 
c1cncc(-c2nncn2-c2cnc3ccccc3c2)c1

$$$$
