
     RDKit          3D

 40 43  0  0  0  0  0  0  0  0999 V2000
    4.9337    1.8068   16.9750 H   0  0  0  0  0  0  0  0  0  0  0  0
    5.4037    1.2952   17.8149 C   0  0  0  0  0  0  0  0  0  0  0  0
    6.5643    0.6717   17.5617 N   0  0  0  0  0  0  0  0  0  0  0  0
    7.1733    0.0421   18.5727 C   0  0  0  0  0  0  0  0  0  0  0  0
    8.1227   -0.4305   18.3257 H   0  0  0  0  0  0  0  0  0  0  0  0
    6.6570   -0.0166   19.8796 C   0  0  0  0  0  0  0  0  0  0  0  0
    7.3757   -0.7095   20.9649 C   0  0  0  0  0  0  0  0  0  0  0  0
    8.4578   -1.4715   20.7382 N   0  0  0  0  0  0  0  0  0  0  0  0
    8.8097   -1.8594   21.9828 N   0  0  0  0  0  0  0  0  0  0  0  0
    9.8661   -2.5812   22.5163 C   0  0  0  0  0  0  0  0  0  0  0  0
   10.6251   -2.9543   21.8540 H   0  0  0  0  0  0  0  0  0  0  0  0
    9.6964   -2.5607   23.8603 C   0  0  0  0  0  0  0  0  0  0  0  0
   10.2934   -2.9747   24.6614 H   0  0  0  0  0  0  0  0  0  0  0  0
    8.5442   -1.8244   24.1501 N   0  0  0  0  0  0  0  0  0  0  0  0
    8.0969   -1.4919   25.4005 N   0  0  0  0  0  0  0  0  0  0  0  0
    8.6853   -1.7799   26.1656 H   0  0  0  0  0  0  0  0  0  0  0  0
    6.8164   -0.8480   25.6246 C   0  0  0  0  0  0  0  0  0  0  0  0
    6.7369    0.0380   24.9587 H   0  0  0  0  0  0  0  0  0  0  0  0
    6.7417   -0.3766   27.0799 C   0  0  0  0  0  0  0  0  0  0  0  0
    7.5707    0.3160   27.2790 H   0  0  0  0  0  0  0  0  0  0  0  0
    6.8950   -1.2555   27.7297 H   0  0  0  0  0  0  0  0  0  0  0  0
    5.3816    0.2787   27.4050 C   0  0  0  0  0  0  0  0  0  0  0  0
    5.2825    1.2112   26.8232 H   0  0  0  0  0  0  0  0  0  0  0  0
    5.3443    0.5738   28.4608 H   0  0  0  0  0  0  0  0  0  0  0  0
    4.2032   -0.6578   27.0690 C   0  0  0  0  0  0  0  0  0  0  0  0
    4.2193   -1.5274   27.7452 H   0  0  0  0  0  0  0  0  0  0  0  0
    3.2467   -0.1492   27.2519 H   0  0  0  0  0  0  0  0  0  0  0  0
    4.2773   -1.1359   25.6074 C   0  0  0  0  0  0  0  0  0  0  0  0
    3.4630   -1.8376   25.3836 H   0  0  0  0  0  0  0  0  0  0  0  0
    4.1110   -0.2578   24.9599 H   0  0  0  0  0  0  0  0  0  0  0  0
    5.6411   -1.7890   25.2943 C   0  0  0  0  0  0  0  0  0  0  0  0
    5.7653   -2.7044   25.8930 H   0  0  0  0  0  0  0  0  0  0  0  0
    5.7291   -2.0928   24.2428 H   0  0  0  0  0  0  0  0  0  0  0  0
    8.0198   -1.3819   22.9568 C   0  0  0  0  0  0  0  0  0  0  0  0
    7.0453   -0.6137   22.3344 C   0  0  0  0  0  0  0  0  0  0  0  0
    6.2448   -0.0486   22.7710 H   0  0  0  0  0  0  0  0  0  0  0  0
    5.4401    0.6460   20.1235 C   0  0  0  0  0  0  0  0  0  0  0  0
    4.9926    0.6517   21.1181 H   0  0  0  0  0  0  0  0  0  0  0  0
    4.8056    1.3087   19.0779 C   0  0  0  0  0  0  0  0  0  0  0  0
    3.8748    1.8424   19.2342 H   0  0  0  0  0  0  0  0  0  0  0  0
  1  2  1  0
  2  3  2  0
  3  4  1  0
  4  5  1  0
  4  6  2  0
  6  7  1  0
  7  8  2  0
  8  9  1  0
  9 10  1  0
 10 11  1  0
 10 12  2  0
 12 13  1  0
 12 14  1  0
 14 15  1  0
 15 16  1  0
 15 17  1  0
 17 18  1  0
 17 19  1  0
 19 20  1  0
 19 21  1  0
 19 22  1  0
 22 23  1  0
 22 24  1  0
 22 25  1  0
 25 26  1  0
 25 27  1  0
 25 28  1  0
 28 29  1  0
 28 30  1  0
 28 31  1  0
 31 32  1  0
 31 33  1  0
 14 34  1  0
 34 35  2  0
 35 36  1  0
  6 37  1  0
 37 38  1  0
 37 39  2  0
 39 40  1  0
 39  2  1  0
 35  7  1  0
 34  9  1  0
 31 17  1  0
M  END
>  <cnnaffinity>  (1) 
-5.29522

>  <filename>  (1) 
c1cncc(-c2cc3n(NC4CCCCC4)ccn3n2)c1

$$$$
