
     RDKit          3D

 29 31  0  0  0  0  0  0  0  0999 V2000
    9.2900   -1.5713   20.1909 H   0  0  0  0  0  0  0  0  0  0  0  0
    8.5570   -1.4430   20.9720 C   0  0  0  0  0  0  0  0  0  0  0  0
    8.7276   -2.0536   22.2058 N   0  0  0  0  0  0  0  0  0  0  0  0
    7.6885   -1.6554   22.8592 C   0  0  0  0  0  0  0  0  0  0  0  0
    7.3271   -1.9376   24.1303 N   0  0  0  0  0  0  0  0  0  0  0  0
    6.7700   -1.1566   24.4500 H   0  0  0  0  0  0  0  0  0  0  0  0
    8.3554   -2.4683   25.0252 C   0  0  0  0  0  0  0  0  0  0  0  0
    7.8742   -2.8255   25.9374 H   0  0  0  0  0  0  0  0  0  0  0  0
    8.8015   -3.3478   24.5350 H   0  0  0  0  0  0  0  0  0  0  0  0
    9.4544   -1.4742   25.3476 C   0  0  0  0  0  0  0  0  0  0  0  0
    9.4192   -0.4584   26.8159 S   0  0  0  0  0  0  0  0  0  0  0  0
   10.7323    0.4459   26.3342 C   0  0  0  0  0  0  0  0  0  0  0  0
   11.1629    0.8941   24.2924 H   0  0  0  0  0  0  0  0  0  0  0  0
   11.3006    0.0130   24.9677 C   0  0  0  0  0  0  0  0  0  0  0  0
   12.3892   -0.1817   25.0425 H   0  0  0  0  0  0  0  0  0  0  0  0
   10.5078   -1.1956   24.5766 C   0  0  0  0  0  0  0  0  0  0  0  0
   10.7157   -1.7248   23.6520 H   0  0  0  0  0  0  0  0  0  0  0  0
    6.8419   -0.8565   22.1993 O   0  0  0  0  0  0  0  0  0  0  0  0
    7.4059   -0.7230   20.9475 C   0  0  0  0  0  0  0  0  0  0  0  0
    6.6596    0.0156   19.9338 C   0  0  0  0  0  0  0  0  0  0  0  0
    7.1649    0.0592   18.6229 C   0  0  0  0  0  0  0  0  0  0  0  0
    8.1034   -0.4412   18.3933 H   0  0  0  0  0  0  0  0  0  0  0  0
    6.5702    0.6722   17.5957 N   0  0  0  0  0  0  0  0  0  0  0  0
    5.4091    1.2955   17.8485 C   0  0  0  0  0  0  0  0  0  0  0  0
    4.9427    1.8007   17.0045 H   0  0  0  0  0  0  0  0  0  0  0  0
    4.8044    1.3120   19.1103 C   0  0  0  0  0  0  0  0  0  0  0  0
    3.8660    1.8375   19.2475 H   0  0  0  0  0  0  0  0  0  0  0  0
    5.4296    0.6649   20.1755 C   0  0  0  0  0  0  0  0  0  0  0  0
    4.9821    0.6603   21.1690 H   0  0  0  0  0  0  0  0  0  0  0  0
  1  2  1  0
  2  3  1  0
  3  4  2  0
  4  5  1  0
  5  6  1  0
  5  7  1  0
  7  8  1  0
  7  9  1  0
  7 10  1  0
 10 11  1  0
 11 12  1  0
 12 13  1  0
 12 14  2  0
 14 15  1  0
 14 16  1  0
 16 17  1  0
  4 18  1  0
 18 19  1  0
 19 20  1  0
 20 21  2  0
 21 22  1  0
 21 23  1  0
 23 24  2  0
 24 25  1  0
 24 26  1  0
 26 27  1  0
 26 28  2  0
 28 29  1  0
 19  2  2  0
 28 20  1  0
 16 10  2  0
M  END
>  <cnnaffinity>  (1) 
-4.81606

>  <filename>  (1) 
c1cncc(-c2cnc(NCc3cccs3)o2)c1

$$$$
