
     RDKit          3D

 41 44  0  0  0  0  0  0  0  0999 V2000
    4.9132    1.8387   16.9379 H   0  0  0  0  0  0  0  0  0  0  0  0
    5.3694    1.3217   17.7784 C   0  0  0  0  0  0  0  0  0  0  0  0
    6.5337    0.6999   17.5318 N   0  0  0  0  0  0  0  0  0  0  0  0
    7.1437    0.0880   18.5593 C   0  0  0  0  0  0  0  0  0  0  0  0
    8.1030   -0.3767   18.3257 H   0  0  0  0  0  0  0  0  0  0  0  0
    6.6191    0.0241   19.8814 C   0  0  0  0  0  0  0  0  0  0  0  0
    7.2917   -0.5658   20.9819 N   0  0  0  0  0  0  0  0  0  0  0  0
    6.6754   -1.6075   21.8004 C   0  0  0  0  0  0  0  0  0  0  0  0
    5.6259   -1.7050   21.5051 H   0  0  0  0  0  0  0  0  0  0  0  0
    6.6792   -1.3354   22.8680 H   0  0  0  0  0  0  0  0  0  0  0  0
    7.3151   -3.0082   21.6839 C   0  0  0  0  0  0  0  0  0  0  0  0
    6.6010   -3.7426   22.0658 H   0  0  0  0  0  0  0  0  0  0  0  0
    7.4713   -3.2399   20.6280 H   0  0  0  0  0  0  0  0  0  0  0  0
    8.5701   -3.1840   22.4143 N   0  0  0  0  0  0  0  0  0  0  0  0
    8.5761   -3.7671   23.6527 C   0  0  0  0  0  0  0  0  0  0  0  0
    7.3781   -4.0541   24.2435 O   0  0  0  0  0  0  0  0  0  0  0  0
    7.6884   -4.6136   25.4610 C   0  0  0  0  0  0  0  0  0  0  0  0
    6.7752   -5.0670   26.4060 C   0  0  0  0  0  0  0  0  0  0  0  0
    5.7044   -5.0063   26.2366 H   0  0  0  0  0  0  0  0  0  0  0  0
    7.3104   -5.6010   27.5800 C   0  0  0  0  0  0  0  0  0  0  0  0
    6.6376   -5.9887   28.3434 H   0  0  0  0  0  0  0  0  0  0  0  0
    8.7047   -5.6627   27.7933 C   0  0  0  0  0  0  0  0  0  0  0  0
    9.0771   -6.0682   28.7296 H   0  0  0  0  0  0  0  0  0  0  0  0
    9.6028   -5.2213   26.8218 C   0  0  0  0  0  0  0  0  0  0  0  0
   10.6773   -5.3078   26.9744 H   0  0  0  0  0  0  0  0  0  0  0  0
    9.0838   -4.6802   25.6286 C   0  0  0  0  0  0  0  0  0  0  0  0
    9.6374   -4.1158   24.4253 C   0  0  0  0  0  0  0  0  0  0  0  0
   10.6684   -3.9790   24.1447 H   0  0  0  0  0  0  0  0  0  0  0  0
    9.7629   -2.3791   22.1361 C   0  0  0  0  0  0  0  0  0  0  0  0
   10.6328   -3.0359   22.0188 H   0  0  0  0  0  0  0  0  0  0  0  0
   10.0000   -1.7843   23.0327 H   0  0  0  0  0  0  0  0  0  0  0  0
    9.6476   -1.4143   20.9708 C   0  0  0  0  0  0  0  0  0  0  0  0
    9.3252   -1.9482   20.0745 H   0  0  0  0  0  0  0  0  0  0  0  0
   10.6454   -1.0122   20.7621 H   0  0  0  0  0  0  0  0  0  0  0  0
    8.6859   -0.2504   21.2451 C   0  0  0  0  0  0  0  0  0  0  0  0
    8.8072    0.1011   22.2874 H   0  0  0  0  0  0  0  0  0  0  0  0
    8.9569    0.6101   20.6270 H   0  0  0  0  0  0  0  0  0  0  0  0
    5.3821    0.6568   20.0918 C   0  0  0  0  0  0  0  0  0  0  0  0
    4.9774    0.6520   21.1023 H   0  0  0  0  0  0  0  0  0  0  0  0
    4.7579    1.3251   19.0362 C   0  0  0  0  0  0  0  0  0  0  0  0
    3.8245    1.8577   19.1812 H   0  0  0  0  0  0  0  0  0  0  0  0
  1  2  1  0
  2  3  2  0
  3  4  1  0
  4  5  1  0
  4  6  2  0
  6  7  1  0
  7  8  1  0
  8  9  1  0
  8 10  1  0
  8 11  1  0
 11 12  1  0
 11 13  1  0
 11 14  1  0
 14 15  1  0
 15 16  1  0
 16 17  1  0
 17 18  2  0
 18 19  1  0
 18 20  1  0
 20 21  1  0
 20 22  2  0
 22 23  1  0
 22 24  1  0
 24 25  1  0
 24 26  2  0
 26 27  1  0
 27 28  1  0
 14 29  1  0
 29 30  1  0
 29 31  1  0
 29 32  1  0
 32 33  1  0
 32 34  1  0
 32 35  1  0
 35 36  1  0
 35 37  1  0
  6 38  1  0
 38 39  1  0
 38 40  2  0
 40 41  1  0
 40  2  1  0
 35  7  1  0
 27 15  2  0
 26 17  1  0
M  END
>  <cnnaffinity>  (1) 
-5.42552

>  <filename>  (1) 
c1cncc(N2CCCN(c3cc4ccccc4o3)CC2)c1

$$$$
