
     RDKit          3D

 36 39  0  0  0  0  0  0  0  0999 V2000
    4.9842    1.7751   16.9972 H   0  0  0  0  0  0  0  0  0  0  0  0
    5.4308    1.2980   17.8668 C   0  0  0  0  0  0  0  0  0  0  0  0
    6.5809    0.6418   17.6443 N   0  0  0  0  0  0  0  0  0  0  0  0
    7.1510    0.0397   18.6875 C   0  0  0  0  0  0  0  0  0  0  0  0
    8.0597   -0.5281   18.4909 H   0  0  0  0  0  0  0  0  0  0  0  0
    6.6431    0.0911   19.9956 C   0  0  0  0  0  0  0  0  0  0  0  0
    7.4116   -0.6297   21.0151 C   0  0  0  0  0  0  0  0  0  0  0  0
    8.0133   -1.7731   20.7980 N   0  0  0  0  0  0  0  0  0  0  0  0
    8.6336   -2.1560   21.9554 N   0  0  0  0  0  0  0  0  0  0  0  0
    8.4120   -1.2160   22.8317 C   0  0  0  0  0  0  0  0  0  0  0  0
    8.7805   -1.2130   23.8482 H   0  0  0  0  0  0  0  0  0  0  0  0
    7.6498   -0.2110   22.2995 N   0  0  0  0  0  0  0  0  0  0  0  0
    7.3288    1.0493   22.9644 C   0  0  0  0  0  0  0  0  0  0  0  0
    8.2495    1.4563   23.4021 H   0  0  0  0  0  0  0  0  0  0  0  0
    6.9925    1.7649   22.2065 H   0  0  0  0  0  0  0  0  0  0  0  0
    6.2850    0.9794   24.0636 C   0  0  0  0  0  0  0  0  0  0  0  0
    5.8326   -0.2166   24.5757 C   0  0  0  0  0  0  0  0  0  0  0  0
    6.3046   -1.1386   24.2534 H   0  0  0  0  0  0  0  0  0  0  0  0
    4.7058   -0.2754   25.4438 C   0  0  0  0  0  0  0  0  0  0  0  0
    4.3184   -1.2406   25.7634 H   0  0  0  0  0  0  0  0  0  0  0  0
    4.0617    0.8775   25.8167 C   0  0  0  0  0  0  0  0  0  0  0  0
    3.1443    0.8442   26.4027 H   0  0  0  0  0  0  0  0  0  0  0  0
    4.5996    2.1529   25.4437 C   0  0  0  0  0  0  0  0  0  0  0  0
    4.0377    3.3667   25.9356 C   0  0  0  0  0  0  0  0  0  0  0  0
    3.1097    3.2944   26.4952 H   0  0  0  0  0  0  0  0  0  0  0  0
    4.6466    4.5790   25.7125 C   0  0  0  0  0  0  0  0  0  0  0  0
    4.2386    5.4866   26.1563 H   0  0  0  0  0  0  0  0  0  0  0  0
    5.8360    4.6445   24.9406 C   0  0  0  0  0  0  0  0  0  0  0  0
    6.3191    5.6071   24.7818 H   0  0  0  0  0  0  0  0  0  0  0  0
    6.3728    3.4963   24.3927 C   0  0  0  0  0  0  0  0  0  0  0  0
    7.2729    3.5623   23.7850 H   0  0  0  0  0  0  0  0  0  0  0  0
    5.7654    2.2144   24.6111 C   0  0  0  0  0  0  0  0  0  0  0  0
    5.4316    0.7612   20.2132 C   0  0  0  0  0  0  0  0  0  0  0  0
    4.9889    0.7879   21.2125 H   0  0  0  0  0  0  0  0  0  0  0  0
    4.8089    1.3666   19.1193 C   0  0  0  0  0  0  0  0  0  0  0  0
    3.8669    1.8937   19.2237 H   0  0  0  0  0  0  0  0  0  0  0  0
  1  2  1  0
  2  3  2  0
  3  4  1  0
  4  5  1  0
  4  6  2  0
  6  7  1  0
  7  8  2  0
  8  9  1  0
  9 10  2  0
 10 11  1  0
 10 12  1  0
 12 13  1  0
 13 14  1  0
 13 15  1  0
 13 16  1  0
 16 17  2  0
 17 18  1  0
 17 19  1  0
 19 20  1  0
 19 21  2  0
 21 22  1  0
 21 23  1  0
 23 24  2  0
 24 25  1  0
 24 26  1  0
 26 27  1  0
 26 28  2  0
 28 29  1  0
 28 30  1  0
 30 31  1  0
 30 32  2  0
  6 33  1  0
 33 34  1  0
 33 35  2  0
 35 36  1  0
 35  2  1  0
 12  7  1  0
 32 16  1  0
 32 23  1  0
M  END
>  <cnnaffinity>  (1) 
-5.57429

>  <filename>  (1) 
c1cncc(-c2nncn2Cc2cccc3ccccc23)c1

$$$$
