
     RDKit          3D

 39 41  0  0  0  0  0  0  0  0999 V2000
    4.9356    1.7913   16.9909 H   0  0  0  0  0  0  0  0  0  0  0  0
    5.3960    1.2953   17.8447 C   0  0  0  0  0  0  0  0  0  0  0  0
    6.5564    0.6667   17.5981 N   0  0  0  0  0  0  0  0  0  0  0  0
    7.1562    0.0483   18.6194 C   0  0  0  0  0  0  0  0  0  0  0  0
    8.0962   -0.4475   18.3807 H   0  0  0  0  0  0  0  0  0  0  0  0
    6.6510    0.0377   19.9278 C   0  0  0  0  0  0  0  0  0  0  0  0
    7.3902   -0.6958   20.9607 C   0  0  0  0  0  0  0  0  0  0  0  0
    7.8721   -1.9068   20.7902 N   0  0  0  0  0  0  0  0  0  0  0  0
    8.4675   -2.2453   21.9783 C   0  0  0  0  0  0  0  0  0  0  0  0
    8.9124   -3.2265   22.1092 H   0  0  0  0  0  0  0  0  0  0  0  0
    8.3809   -1.2127   22.8642 C   0  0  0  0  0  0  0  0  0  0  0  0
    8.7392   -1.0883   23.8785 H   0  0  0  0  0  0  0  0  0  0  0  0
    7.6801   -0.2145   22.2057 N   0  0  0  0  0  0  0  0  0  0  0  0
    7.4092    1.1181   22.6916 C   0  0  0  0  0  0  0  0  0  0  0  0
    7.3211    1.7914   21.8313 H   0  0  0  0  0  0  0  0  0  0  0  0
    8.2845    1.4432   23.2830 H   0  0  0  0  0  0  0  0  0  0  0  0
    6.1700    1.1516   23.4501 N   0  0  0  0  0  0  0  0  0  0  0  0
    6.2666    0.5075   24.2313 H   0  0  0  0  0  0  0  0  0  0  0  0
    5.7779    2.4813   23.9235 C   0  0  0  0  0  0  0  0  0  0  0  0
    6.6549    3.1235   24.1741 H   0  0  0  0  0  0  0  0  0  0  0  0
    4.9425    2.3827   25.2141 C   0  0  0  0  0  0  0  0  0  0  0  0
    5.5408    1.9034   26.0023 H   0  0  0  0  0  0  0  0  0  0  0  0
    4.0842    1.7197   25.0242 H   0  0  0  0  0  0  0  0  0  0  0  0
    4.4526    3.7704   25.6839 C   0  0  0  0  0  0  0  0  0  0  0  0
    5.3230    4.3817   25.9743 H   0  0  0  0  0  0  0  0  0  0  0  0
    3.8365    3.6773   26.5878 H   0  0  0  0  0  0  0  0  0  0  0  0
    3.6718    4.4974   24.5706 C   0  0  0  0  0  0  0  0  0  0  0  0
    3.3679    5.4999   24.9013 H   0  0  0  0  0  0  0  0  0  0  0  0
    2.7395    3.9468   24.3698 H   0  0  0  0  0  0  0  0  0  0  0  0
    4.4934    4.5864   23.2699 C   0  0  0  0  0  0  0  0  0  0  0  0
    5.3670    5.2379   23.4339 H   0  0  0  0  0  0  0  0  0  0  0  0
    3.9070    5.0591   22.4717 H   0  0  0  0  0  0  0  0  0  0  0  0
    4.9814    3.1986   22.8189 C   0  0  0  0  0  0  0  0  0  0  0  0
    5.5997    3.2730   21.9137 H   0  0  0  0  0  0  0  0  0  0  0  0
    4.1245    2.5579   22.5548 H   0  0  0  0  0  0  0  0  0  0  0  0
    5.4320    0.6857   20.1697 C   0  0  0  0  0  0  0  0  0  0  0  0
    5.0120    0.6787   21.1784 H   0  0  0  0  0  0  0  0  0  0  0  0
    4.7945    1.3227   19.1071 C   0  0  0  0  0  0  0  0  0  0  0  0
    3.8578    1.8508   19.2370 H   0  0  0  0  0  0  0  0  0  0  0  0
  1  2  1  0
  2  3  2  0
  3  4  1  0
  4  5  1  0
  4  6  2  0
  6  7  1  0
  7  8  2  0
  8  9  1  0
  9 10  1  0
  9 11  2  0
 11 12  1  0
 11 13  1  0
 13 14  1  0
 14 15  1  0
 14 16  1  0
 14 17  1  0
 17 18  1  0
 17 19  1  0
 19 20  1  0
 19 21  1  0
 21 22  1  0
 21 23  1  0
 21 24  1  0
 24 25  1  0
 24 26  1  0
 24 27  1  0
 27 28  1  0
 27 29  1  0
 27 30  1  0
 30 31  1  0
 30 32  1  0
 30 33  1  0
 33 34  1  0
 33 35  1  0
  6 36  1  0
 36 37  1  0
 36 38  2  0
 38 39  1  0
 38  2  1  0
 13  7  1  0
 33 19  1  0
M  END
>  <cnnaffinity>  (1) 
-4.92195

>  <filename>  (1) 
c1cncc(-c2nccn2CNC2CCCCC2)c1

$$$$
