
     RDKit          3D

 29 31  0  0  0  0  0  0  0  0999 V2000
    4.9216    1.9493   16.6456 H   0  0  0  0  0  0  0  0  0  0  0  0
    5.3589    1.4002   17.4770 C   0  0  0  0  0  0  0  0  0  0  0  0
    6.4752    0.7052   17.2042 N   0  0  0  0  0  0  0  0  0  0  0  0
    7.0624    0.0589   18.2218 C   0  0  0  0  0  0  0  0  0  0  0  0
    7.9579   -0.5074   17.9676 H   0  0  0  0  0  0  0  0  0  0  0  0
    6.5957    0.0700   19.5570 C   0  0  0  0  0  0  0  0  0  0  0  0
    7.3679   -0.5079   20.6825 C   0  0  0  0  0  0  0  0  0  0  0  0
    6.9602   -0.6389   22.0412 C   0  0  0  0  0  0  0  0  0  0  0  0
    5.9785   -0.4460   22.4529 H   0  0  0  0  0  0  0  0  0  0  0  0
    7.9355   -1.0667   22.8219 N   0  0  0  0  0  0  0  0  0  0  0  0
    8.9797   -1.1902   22.0101 N   0  0  0  0  0  0  0  0  0  0  0  0
   10.1206   -1.7164   22.5808 N   0  0  0  0  0  0  0  0  0  0  0  0
    9.8221   -1.7829   23.5456 H   0  0  0  0  0  0  0  0  0  0  0  0
   11.3236   -0.9599   22.4728 C   0  0  0  0  0  0  0  0  0  0  0  0
   12.5195   -1.6158   22.2250 C   0  0  0  0  0  0  0  0  0  0  0  0
   12.5414   -2.6908   22.1483 H   0  0  0  0  0  0  0  0  0  0  0  0
   13.6857   -0.8636   22.1638 C   0  0  0  0  0  0  0  0  0  0  0  0
   14.6304   -1.3674   21.9716 H   0  0  0  0  0  0  0  0  0  0  0  0
   13.7256    0.4586   22.3770 N   0  0  0  0  0  0  0  0  0  0  0  0
   12.5636    1.0695   22.6499 C   0  0  0  0  0  0  0  0  0  0  0  0
   12.6329    2.1334   22.8779 H   0  0  0  0  0  0  0  0  0  0  0  0
   11.3335    0.4136   22.6871 C   0  0  0  0  0  0  0  0  0  0  0  0
   10.4074    0.9316   22.9019 H   0  0  0  0  0  0  0  0  0  0  0  0
    8.6967   -0.9175   20.7189 C   0  0  0  0  0  0  0  0  0  0  0  0
    9.5003   -1.0249   20.0075 H   0  0  0  0  0  0  0  0  0  0  0  0
    5.3854    0.7475   19.7895 C   0  0  0  0  0  0  0  0  0  0  0  0
    4.9492    0.7638   20.7874 H   0  0  0  0  0  0  0  0  0  0  0  0
    4.7660    1.4277   18.7431 C   0  0  0  0  0  0  0  0  0  0  0  0
    3.8544    1.9934   18.8995 H   0  0  0  0  0  0  0  0  0  0  0  0
  1  2  1  0
  2  3  2  0
  3  4  1  0
  4  5  1  0
  4  6  2  0
  6  7  1  0
  7  8  1  0
  8  9  1  0
  8 10  2  0
 10 11  1  0
 11 12  1  0
 12 13  1  0
 12 14  1  0
 14 15  2  0
 15 16  1  0
 15 17  1  0
 17 18  1  0
 17 19  2  0
 19 20  1  0
 20 21  1  0
 20 22  2  0
 22 23  1  0
 11 24  1  0
 24 25  1  0
  6 26  1  0
 26 27  1  0
 26 28  2  0
 28 29  1  0
 28  2  1  0
 24  7  2  0
 22 14  1  0
M  END
>  <cnnaffinity>  (1) 
-4.7686

>  <filename>  (1) 
c1cncc(-c2cnn(Nc3ccncc3)c2)c1

$$$$
