
     RDKit          3D

 33 36  0  0  0  0  0  0  0  0999 V2000
    4.9898    2.2962   16.1260 H   0  0  0  0  0  0  0  0  0  0  0  0
    5.2436    1.8284   17.0758 C   0  0  0  0  0  0  0  0  0  0  0  0
    6.3713    1.0998   17.0974 N   0  0  0  0  0  0  0  0  0  0  0  0
    6.7065    0.5385   18.2655 C   0  0  0  0  0  0  0  0  0  0  0  0
    7.6501   -0.0067   18.2822 H   0  0  0  0  0  0  0  0  0  0  0  0
    5.9471    0.6326   19.4459 C   0  0  0  0  0  0  0  0  0  0  0  0
    6.4227   -0.0420   20.6692 C   0  0  0  0  0  0  0  0  0  0  0  0
    5.9394    0.5215   22.2360 S   0  0  0  0  0  0  0  0  0  0  0  0
    6.9334   -0.6315   23.0286 C   0  0  0  0  0  0  0  0  0  0  0  0
    7.0232   -0.6807   24.1032 H   0  0  0  0  0  0  0  0  0  0  0  0
    7.6257   -1.4097   22.1467 C   0  0  0  0  0  0  0  0  0  0  0  0
    8.7569   -2.2790   22.5138 C   0  0  0  0  0  0  0  0  0  0  0  0
    9.9849   -1.9952   21.9423 C   0  0  0  0  0  0  0  0  0  0  0  0
   10.0391   -1.2719   21.1244 H   0  0  0  0  0  0  0  0  0  0  0  0
   11.1724   -2.4977   22.3627 N   0  0  0  0  0  0  0  0  0  0  0  0
   11.1357   -3.3636   23.3556 C   0  0  0  0  0  0  0  0  0  0  0  0
   12.0855   -3.7677   23.7080 H   0  0  0  0  0  0  0  0  0  0  0  0
    9.9390   -3.8466   23.9573 C   0  0  0  0  0  0  0  0  0  0  0  0
    9.9672   -4.8347   24.9865 C   0  0  0  0  0  0  0  0  0  0  0  0
   10.9326   -5.1857   25.3466 H   0  0  0  0  0  0  0  0  0  0  0  0
    8.7939   -5.3224   25.5094 C   0  0  0  0  0  0  0  0  0  0  0  0
    8.8146   -6.0865   26.2835 H   0  0  0  0  0  0  0  0  0  0  0  0
    7.5421   -4.8517   25.0243 C   0  0  0  0  0  0  0  0  0  0  0  0
    6.6237   -5.2443   25.4533 H   0  0  0  0  0  0  0  0  0  0  0  0
    7.4909   -3.8822   24.0372 C   0  0  0  0  0  0  0  0  0  0  0  0
    6.5416   -3.5413   23.6357 H   0  0  0  0  0  0  0  0  0  0  0  0
    8.6937   -3.3209   23.5025 C   0  0  0  0  0  0  0  0  0  0  0  0
    7.3205   -1.0639   20.7914 C   0  0  0  0  0  0  0  0  0  0  0  0
    7.7516   -1.6193   19.9651 H   0  0  0  0  0  0  0  0  0  0  0  0
    4.7696    1.4068   19.4011 C   0  0  0  0  0  0  0  0  0  0  0  0
    4.1559    1.5466   20.2922 H   0  0  0  0  0  0  0  0  0  0  0  0
    4.4178    2.0060   18.1924 C   0  0  0  0  0  0  0  0  0  0  0  0
    3.5265    2.6196   18.1080 H   0  0  0  0  0  0  0  0  0  0  0  0
  1  2  1  0
  2  3  2  0
  3  4  1  0
  4  5  1  0
  4  6  2  0
  6  7  1  0
  7  8  1  0
  8  9  1  0
  9 10  1  0
  9 11  2  0
 11 12  1  0
 12 13  2  0
 13 14  1  0
 13 15  1  0
 15 16  2  0
 16 17  1  0
 16 18  1  0
 18 19  2  0
 19 20  1  0
 19 21  1  0
 21 22  1  0
 21 23  2  0
 23 24  1  0
 23 25  1  0
 25 26  1  0
 25 27  2  0
 11 28  1  0
 28 29  1  0
  6 30  1  0
 30 31  1  0
 30 32  2  0
 32 33  1  0
 32  2  1  0
 28  7  2  0
 27 12  1  0
 27 18  1  0
M  END
>  <cnnaffinity>  (1) 
-5.65645

>  <filename>  (1) 
c1cncc(-c2cc(-c3cncc4ccccc34)cs2)c1

$$$$
