
     RDKit          3D

 34 36  0  0  0  0  0  0  0  0999 V2000
    4.9264    1.7812   17.0003 H   0  0  0  0  0  0  0  0  0  0  0  0
    5.4064    1.2869   17.8434 C   0  0  0  0  0  0  0  0  0  0  0  0
    6.5678    0.6624   17.5891 N   0  0  0  0  0  0  0  0  0  0  0  0
    7.1898    0.0500   18.6066 C   0  0  0  0  0  0  0  0  0  0  0  0
    8.1301   -0.4387   18.3657 H   0  0  0  0  0  0  0  0  0  0  0  0
    6.6854    0.0156   19.9203 C   0  0  0  0  0  0  0  0  0  0  0  0
    7.2802   -0.6669   20.9579 O   0  0  0  0  0  0  0  0  0  0  0  0
    8.6468   -0.7287   21.0859 C   0  0  0  0  0  0  0  0  0  0  0  0
    9.6623    0.1258   20.6202 C   0  0  0  0  0  0  0  0  0  0  0  0
    9.5733    0.9763   19.9653 H   0  0  0  0  0  0  0  0  0  0  0  0
   10.8563   -0.2494   21.0710 N   0  0  0  0  0  0  0  0  0  0  0  0
   10.5966   -1.3278   21.8144 N   0  0  0  0  0  0  0  0  0  0  0  0
   11.3770   -1.7849   22.2698 H   0  0  0  0  0  0  0  0  0  0  0  0
    9.2804   -1.6656   21.8707 C   0  0  0  0  0  0  0  0  0  0  0  0
    8.7253   -2.7497   22.7447 C   0  0  0  0  0  0  0  0  0  0  0  0
    9.4201   -3.6009   22.7724 H   0  0  0  0  0  0  0  0  0  0  0  0
    7.8011   -3.1201   22.2876 H   0  0  0  0  0  0  0  0  0  0  0  0
    8.4186   -2.3701   24.1254 N   0  0  0  0  0  0  0  0  0  0  0  0
    7.4016   -1.3170   24.2687 C   0  0  0  0  0  0  0  0  0  0  0  0
    6.7814   -1.2468   23.3700 H   0  0  0  0  0  0  0  0  0  0  0  0
    6.7323   -1.5804   25.0994 H   0  0  0  0  0  0  0  0  0  0  0  0
    8.1411    0.0085   24.5634 C   0  0  0  0  0  0  0  0  0  0  0  0
    8.1749    0.6408   23.6710 H   0  0  0  0  0  0  0  0  0  0  0  0
    7.6114    0.5799   25.3296 H   0  0  0  0  0  0  0  0  0  0  0  0
    9.5592   -0.4080   25.0190 C   0  0  0  0  0  0  0  0  0  0  0  0
    9.7910   -0.0772   26.0344 H   0  0  0  0  0  0  0  0  0  0  0  0
   10.3280    0.0315   24.3813 H   0  0  0  0  0  0  0  0  0  0  0  0
    9.5661   -1.9516   24.9382 C   0  0  0  0  0  0  0  0  0  0  0  0
    9.4768   -2.3934   25.9398 H   0  0  0  0  0  0  0  0  0  0  0  0
   10.4975   -2.3440   24.5170 H   0  0  0  0  0  0  0  0  0  0  0  0
    5.4601    0.6453   20.1745 C   0  0  0  0  0  0  0  0  0  0  0  0
    5.0336    0.6113   21.1768 H   0  0  0  0  0  0  0  0  0  0  0  0
    4.8251    1.2993   19.1159 C   0  0  0  0  0  0  0  0  0  0  0  0
    3.8915    1.8265   19.2657 H   0  0  0  0  0  0  0  0  0  0  0  0
  1  2  1  0
  2  3  2  0
  3  4  1  0
  4  5  1  0
  4  6  2  0
  6  7  1  0
  7  8  1  0
  8  9  1  0
  9 10  1  0
  9 11  2  0
 11 12  1  0
 12 13  1  0
 12 14  1  0
 14 15  1  0
 15 16  1  0
 15 17  1  0
 15 18  1  0
 18 19  1  0
 19 20  1  0
 19 21  1  0
 19 22  1  0
 22 23  1  0
 22 24  1  0
 22 25  1  0
 25 26  1  0
 25 27  1  0
 25 28  1  0
 28 29  1  0
 28 30  1  0
  6 31  1  0
 31 32  1  0
 31 33  2  0
 33 34  1  0
 33  2  1  0
 14  8  2  0
 28 18  1  0
M  END
>  <cnnaffinity>  (1) 
-5.22898

>  <filename>  (1) 
c1cncc(Oc2cn[nH]c2CN2CCCC2)c1

$$$$
