
     RDKit          3D

 33 36  0  0  0  0  0  0  0  0999 V2000
    5.3153    1.8422   16.9154 H   0  0  0  0  0  0  0  0  0  0  0  0
    5.6320    1.2918   17.7994 C   0  0  0  0  0  0  0  0  0  0  0  0
    6.7716    0.5942   17.6782 N   0  0  0  0  0  0  0  0  0  0  0  0
    7.1915   -0.0779   18.7577 C   0  0  0  0  0  0  0  0  0  0  0  0
    8.1299   -0.6194   18.6582 H   0  0  0  0  0  0  0  0  0  0  0  0
    6.4944   -0.1267   19.9855 C   0  0  0  0  0  0  0  0  0  0  0  0
    6.9972   -0.9220   21.1255 C   0  0  0  0  0  0  0  0  0  0  0  0
    6.3224   -1.8458   21.8464 C   0  0  0  0  0  0  0  0  0  0  0  0
    5.3063   -2.1679   21.6835 H   0  0  0  0  0  0  0  0  0  0  0  0
    7.2760   -2.5842   23.1091 S   0  0  0  0  0  0  0  0  0  0  0  0
    8.6421   -1.6231   22.6173 C   0  0  0  0  0  0  0  0  0  0  0  0
    9.9265   -1.5283   22.8969 N   0  0  0  0  0  0  0  0  0  0  0  0
   10.3511   -0.6454   21.9438 C   0  0  0  0  0  0  0  0  0  0  0  0
   11.7906   -0.3095   21.7536 C   0  0  0  0  0  0  0  0  0  0  0  0
   11.7822    0.4096   20.9306 H   0  0  0  0  0  0  0  0  0  0  0  0
   12.5366    0.2784   22.9702 C   0  0  0  0  0  0  0  0  0  0  0  0
   12.1708   -0.2487   23.8620 H   0  0  0  0  0  0  0  0  0  0  0  0
   12.3458    1.3508   23.1051 H   0  0  0  0  0  0  0  0  0  0  0  0
   14.0336   -0.0258   22.7176 C   0  0  0  0  0  0  0  0  0  0  0  0
   14.5289   -0.3030   23.6539 H   0  0  0  0  0  0  0  0  0  0  0  0
   14.5596    0.8561   22.3345 H   0  0  0  0  0  0  0  0  0  0  0  0
   14.0766   -1.1554   21.6613 C   0  0  0  0  0  0  0  0  0  0  0  0
   14.5143   -0.7940   20.7222 H   0  0  0  0  0  0  0  0  0  0  0  0
   14.6622   -2.0184   21.9793 H   0  0  0  0  0  0  0  0  0  0  0  0
   12.6245   -1.5713   21.4503 C   0  0  0  0  0  0  0  0  0  0  0  0
   12.3418   -2.3370   22.1870 H   0  0  0  0  0  0  0  0  0  0  0  0
   12.4399   -1.9890   20.4583 H   0  0  0  0  0  0  0  0  0  0  0  0
    9.4229   -0.1897   21.1201 N   0  0  0  0  0  0  0  0  0  0  0  0
    8.3135   -0.8291   21.5799 N   0  0  0  0  0  0  0  0  0  0  0  0
    5.2910    0.5927   20.0779 C   0  0  0  0  0  0  0  0  0  0  0  0
    4.7188    0.6033   21.0089 H   0  0  0  0  0  0  0  0  0  0  0  0
    4.8644    1.3274   18.9688 C   0  0  0  0  0  0  0  0  0  0  0  0
    3.9634    1.9306   19.0008 H   0  0  0  0  0  0  0  0  0  0  0  0
  1  2  1  0
  2  3  2  0
  3  4  1  0
  4  5  1  0
  4  6  2  0
  6  7  1  0
  7  8  2  0
  8  9  1  0
  8 10  1  0
 10 11  1  0
 11 12  2  0
 12 13  1  0
 13 14  1  0
 14 15  1  0
 14 16  1  0
 16 17  1  0
 16 18  1  0
 16 19  1  0
 19 20  1  0
 19 21  1  0
 19 22  1  0
 22 23  1  0
 22 24  1  0
 22 25  1  0
 25 26  1  0
 25 27  1  0
 13 28  2  0
 28 29  1  0
  6 30  1  0
 30 31  1  0
 30 32  2  0
 32 33  1  0
 32  2  1  0
 29  7  1  0
 29 11  1  0
 25 14  1  0
M  END
>  <cnnaffinity>  (1) 
-5.84062

>  <filename>  (1) 
c1cncc(-c2csc3nc(C4CCCC4)nn23)c1

$$$$
