
     RDKit          3D

 29 31  0  0  0  0  0  0  0  0999 V2000
    5.0308    2.6185   15.8586 H   0  0  0  0  0  0  0  0  0  0  0  0
    5.3645    2.0431   16.7230 C   0  0  0  0  0  0  0  0  0  0  0  0
    6.4649    1.2916   16.5619 N   0  0  0  0  0  0  0  0  0  0  0  0
    6.8972    0.5834   17.6152 C   0  0  0  0  0  0  0  0  0  0  0  0
    7.7897   -0.0277   17.4574 H   0  0  0  0  0  0  0  0  0  0  0  0
    6.2688    0.5753   18.8694 C   0  0  0  0  0  0  0  0  0  0  0  0
    6.7966   -0.2065   20.0043 C   0  0  0  0  0  0  0  0  0  0  0  0
    5.7127   -0.7296   21.2444 S   0  0  0  0  0  0  0  0  0  0  0  0
    6.9996   -1.3172   22.2073 C   0  0  0  0  0  0  0  0  0  0  0  0
    6.8271   -1.7531   23.1762 H   0  0  0  0  0  0  0  0  0  0  0  0
    8.2118   -1.1836   21.6018 C   0  0  0  0  0  0  0  0  0  0  0  0
    9.4815   -1.6871   22.2527 C   0  0  2  0  0  0  0  0  0  0  0  0
   10.2935   -1.6213   21.5226 H   0  0  0  0  0  0  0  0  0  0  0  0
    9.3405   -3.1510   22.7307 C   0  0  0  0  0  0  0  0  0  0  0  0
   10.3086   -3.6611   22.6399 H   0  0  0  0  0  0  0  0  0  0  0  0
    8.5721   -3.7099   22.1961 H   0  0  0  0  0  0  0  0  0  0  0  0
    8.9590   -3.0798   24.0878 O   0  0  0  0  0  0  0  0  0  0  0  0
    9.8284   -2.1075   24.6281 C   0  0  0  0  0  0  0  0  0  0  0  0
    9.4672   -1.8330   25.6222 H   0  0  0  0  0  0  0  0  0  0  0  0
   10.8448   -2.5174   24.7351 H   0  0  0  0  0  0  0  0  0  0  0  0
    9.8243   -0.9714   23.5958 C   0  0  0  0  0  0  0  0  0  0  0  0
    9.0546   -0.2376   23.8459 H   0  0  0  0  0  0  0  0  0  0  0  0
   10.7710   -0.4300   23.5739 H   0  0  0  0  0  0  0  0  0  0  0  0
    8.0832   -0.5393   20.3308 C   0  0  0  0  0  0  0  0  0  0  0  0
    8.9342   -0.3101   19.7063 H   0  0  0  0  0  0  0  0  0  0  0  0
    5.1096    1.3640   19.0074 C   0  0  0  0  0  0  0  0  0  0  0  0
    4.5833    1.3976   19.9596 H   0  0  0  0  0  0  0  0  0  0  0  0
    4.6536    2.1029   17.9237 C   0  0  0  0  0  0  0  0  0  0  0  0
    3.7644    2.7172   17.9926 H   0  0  0  0  0  0  0  0  0  0  0  0
  1  2  1  0
  2  3  2  0
  3  4  1  0
  4  5  1  0
  4  6  2  0
  6  7  1  0
  7  8  1  0
  8  9  1  0
  9 10  1  0
  9 11  2  0
 11 12  1  0
 12 13  1  6
 12 14  1  0
 14 15  1  0
 14 16  1  0
 14 17  1  0
 17 18  1  0
 18 19  1  0
 18 20  1  0
 18 21  1  0
 21 22  1  0
 21 23  1  0
 11 24  1  0
 24 25  1  0
  6 26  1  0
 26 27  1  0
 26 28  2  0
 28 29  1  0
 28  2  1  0
 24  7  2  0
 21 12  1  0
M  END
>  <cnnaffinity>  (1) 
-4.80945

>  <filename>  (1) 
c1cncc(-c2cc([C@H]3CCOC3)cs2)c1

$$$$
