
     RDKit          3D

 40 42  0  0  0  0  0  0  0  0999 V2000
    4.9197    1.7778   17.0002 H   0  0  0  0  0  0  0  0  0  0  0  0
    5.4028    1.2937   17.8423 C   0  0  0  0  0  0  0  0  0  0  0  0
    6.5681    0.6775   17.5836 N   0  0  0  0  0  0  0  0  0  0  0  0
    7.1665    0.0518   18.5984 C   0  0  0  0  0  0  0  0  0  0  0  0
    8.1133   -0.4356   18.3779 H   0  0  0  0  0  0  0  0  0  0  0  0
    6.6508    0.0200   19.9011 C   0  0  0  0  0  0  0  0  0  0  0  0
    7.3994   -0.7185   20.9166 C   0  0  0  0  0  0  0  0  0  0  0  0
    7.8701   -1.9327   20.7504 N   0  0  0  0  0  0  0  0  0  0  0  0
    8.4628   -2.2617   21.9395 C   0  0  0  0  0  0  0  0  0  0  0  0
    8.9472   -3.2158   22.0887 H   0  0  0  0  0  0  0  0  0  0  0  0
    8.3761   -1.2243   22.8232 C   0  0  0  0  0  0  0  0  0  0  0  0
    8.7433   -1.1088   23.8307 H   0  0  0  0  0  0  0  0  0  0  0  0
    7.6914   -0.2254   22.1613 N   0  0  0  0  0  0  0  0  0  0  0  0
    7.4109    1.0919   22.7232 C   0  0  0  0  0  0  0  0  0  0  0  0
    7.1414    1.7745   21.9141 H   0  0  0  0  0  0  0  0  0  0  0  0
    8.3394    1.4854   23.1458 H   0  0  0  0  0  0  0  0  0  0  0  0
    6.3295    1.0512   23.8054 C   0  0  0  0  0  0  0  0  0  0  0  0
    5.5024    0.4265   23.4577 H   0  0  0  0  0  0  0  0  0  0  0  0
    6.7437    0.5355   24.6819 H   0  0  0  0  0  0  0  0  0  0  0  0
    5.7638    2.4141   24.2385 C   0  0  0  0  0  0  0  0  0  0  0  0
    5.1109    2.2191   25.1056 H   0  0  0  0  0  0  0  0  0  0  0  0
    4.8734    3.0675   23.1632 C   0  0  0  0  0  0  0  0  0  0  0  0
    5.4616    3.2633   22.2546 H   0  0  0  0  0  0  0  0  0  0  0  0
    4.0724    2.3786   22.8621 H   0  0  0  0  0  0  0  0  0  0  0  0
    4.2680    4.3891   23.6544 C   0  0  0  0  0  0  0  0  0  0  0  0
    3.5735    4.1798   24.4793 H   0  0  0  0  0  0  0  0  0  0  0  0
    3.6727    4.8541   22.8600 H   0  0  0  0  0  0  0  0  0  0  0  0
    5.3506    5.3579   24.1469 C   0  0  0  0  0  0  0  0  0  0  0  0
    4.8947    6.2753   24.5360 H   0  0  0  0  0  0  0  0  0  0  0  0
    5.9709    5.6593   23.2920 H   0  0  0  0  0  0  0  0  0  0  0  0
    6.2500    4.7151   25.2104 C   0  0  0  0  0  0  0  0  0  0  0  0
    5.6557    4.5197   26.1128 H   0  0  0  0  0  0  0  0  0  0  0  0
    7.0461    5.4072   25.5077 H   0  0  0  0  0  0  0  0  0  0  0  0
    6.8508    3.3941   24.7161 C   0  0  0  0  0  0  0  0  0  0  0  0
    7.5397    3.6116   23.8880 H   0  0  0  0  0  0  0  0  0  0  0  0
    7.4574    2.9285   25.5033 H   0  0  0  0  0  0  0  0  0  0  0  0
    5.4326    0.6663   20.1573 C   0  0  0  0  0  0  0  0  0  0  0  0
    4.9934    0.6370   21.1616 H   0  0  0  0  0  0  0  0  0  0  0  0
    4.7962    1.3146   19.1044 C   0  0  0  0  0  0  0  0  0  0  0  0
    3.8649    1.8489   19.2586 H   0  0  0  0  0  0  0  0  0  0  0  0
  1  2  1  0
  2  3  2  0
  3  4  1  0
  4  5  1  0
  4  6  2  0
  6  7  1  0
  7  8  2  0
  8  9  1  0
  9 10  1  0
  9 11  2  0
 11 12  1  0
 11 13  1  0
 13 14  1  0
 14 15  1  0
 14 16  1  0
 14 17  1  0
 17 18  1  0
 17 19  1  0
 17 20  1  0
 20 21  1  0
 20 22  1  0
 22 23  1  0
 22 24  1  0
 22 25  1  0
 25 26  1  0
 25 27  1  0
 25 28  1  0
 28 29  1  0
 28 30  1  0
 28 31  1  0
 31 32  1  0
 31 33  1  0
 31 34  1  0
 34 35  1  0
 34 36  1  0
  6 37  1  0
 37 38  1  0
 37 39  2  0
 39 40  1  0
 39  2  1  0
 13  7  1  0
 34 20  1  0
M  END
>  <cnnaffinity>  (1) 
-5.22475

>  <filename>  (1) 
c1cncc(-c2nccn2CCC2CCCCC2)c1

$$$$
