
     RDKit          3D

 38 40  0  0  0  0  0  0  0  0999 V2000
    4.9418    1.7974   16.9463 H   0  0  0  0  0  0  0  0  0  0  0  0
    5.3871    1.2996   17.8063 C   0  0  0  0  0  0  0  0  0  0  0  0
    6.5404    0.6563   17.5869 N   0  0  0  0  0  0  0  0  0  0  0  0
    7.1265    0.0642   18.6409 C   0  0  0  0  0  0  0  0  0  0  0  0
    8.0533   -0.4427   18.3829 H   0  0  0  0  0  0  0  0  0  0  0  0
    6.6349    0.0633   19.9732 C   0  0  0  0  0  0  0  0  0  0  0  0
    7.3895   -0.6442   21.1444 C   0  0  0  0  0  0  0  0  0  0  0  0
    8.4038    0.2742   21.8924 C   0  0  2  0  0  0  0  0  0  0  0  0
    8.8519   -0.3087   22.7132 H   0  0  0  0  0  0  0  0  0  0  0  0
    7.8290    1.5540   22.5138 C   0  0  0  0  0  0  0  0  0  0  0  0
    7.0645    2.0030   21.8570 H   0  0  0  0  0  0  0  0  0  0  0  0
    7.3916    1.4000   23.5083 H   0  0  0  0  0  0  0  0  0  0  0  0
    8.9203    2.4430   22.6602 O   0  0  0  0  0  0  0  0  0  0  0  0
    9.9786    2.0887   21.7853 C   0  0  0  0  0  0  0  0  0  0  0  0
   10.1754    2.9105   21.0951 H   0  0  0  0  0  0  0  0  0  0  0  0
   10.8824    1.9281   22.3828 H   0  0  0  0  0  0  0  0  0  0  0  0
    9.5339    0.8383   21.0341 C   0  0  0  0  0  0  0  0  0  0  0  0
    9.1244    1.1221   20.0637 H   0  0  0  0  0  0  0  0  0  0  0  0
   10.3493    0.1295   20.8683 H   0  0  0  0  0  0  0  0  0  0  0  0
    8.1013   -1.8625   20.5315 C   0  0  0  0  0  0  0  0  0  0  0  0
    8.8377   -1.5397   19.7928 H   0  0  0  0  0  0  0  0  0  0  0  0
    7.2847   -2.3828   20.0179 H   0  0  0  0  0  0  0  0  0  0  0  0
    8.7280   -2.8772   21.4795 C   0  0  0  0  0  0  0  0  0  0  0  0
    9.1143   -3.6891   20.8646 H   0  0  0  0  0  0  0  0  0  0  0  0
    9.5959   -2.4578   22.0041 H   0  0  0  0  0  0  0  0  0  0  0  0
    7.6818   -3.4060   22.4627 C   0  0  0  0  0  0  0  0  0  0  0  0
    6.9361   -3.9933   21.9052 H   0  0  0  0  0  0  0  0  0  0  0  0
    8.1334   -4.0911   23.1886 H   0  0  0  0  0  0  0  0  0  0  0  0
    6.9626   -2.2537   23.1767 C   0  0  0  0  0  0  0  0  0  0  0  0
    7.6456   -1.7682   23.8869 H   0  0  0  0  0  0  0  0  0  0  0  0
    6.1397   -2.6384   23.7910 H   0  0  0  0  0  0  0  0  0  0  0  0
    6.3900   -1.2243   22.1827 C   0  0  0  0  0  0  0  0  0  0  0  0
    5.9475   -0.3934   22.7350 H   0  0  0  0  0  0  0  0  0  0  0  0
    5.5771   -1.7086   21.6273 H   0  0  0  0  0  0  0  0  0  0  0  0
    5.3980    0.7068   20.1397 C   0  0  0  0  0  0  0  0  0  0  0  0
    4.9117    0.7170   21.1150 H   0  0  0  0  0  0  0  0  0  0  0  0
    4.7759    1.3359   19.0563 C   0  0  0  0  0  0  0  0  0  0  0  0
    3.8314    1.8555   19.1764 H   0  0  0  0  0  0  0  0  0  0  0  0
  1  2  1  0
  2  3  2  0
  3  4  1  0
  4  5  1  0
  4  6  2  0
  6  7  1  0
  7  8  1  0
  8  9  1  1
  8 10  1  0
 10 11  1  0
 10 12  1  0
 10 13  1  0
 13 14  1  0
 14 15  1  0
 14 16  1  0
 14 17  1  0
 17 18  1  0
 17 19  1  0
  7 20  1  0
 20 21  1  0
 20 22  1  0
 20 23  1  0
 23 24  1  0
 23 25  1  0
 23 26  1  0
 26 27  1  0
 26 28  1  0
 26 29  1  0
 29 30  1  0
 29 31  1  0
 29 32  1  0
 32 33  1  0
 32 34  1  0
  6 35  1  0
 35 36  1  0
 35 37  2  0
 37 38  1  0
 37  2  1  0
 32  7  1  0
 17  8  1  0
M  END
>  <cnnaffinity>  (1) 
-4.18565

>  <filename>  (1) 
c1cncc(C2([C@H]3CCOC3)CCCCC2)c1

$$$$
