
     RDKit          3D

 37 39  0  0  0  0  0  0  0  0999 V2000
    4.9245    1.7770   16.9965 H   0  0  0  0  0  0  0  0  0  0  0  0
    5.4035    1.2896   17.8439 C   0  0  0  0  0  0  0  0  0  0  0  0
    6.5677    0.6708   17.5942 N   0  0  0  0  0  0  0  0  0  0  0  0
    7.1643    0.0597   18.6233 C   0  0  0  0  0  0  0  0  0  0  0  0
    8.1078   -0.4180   18.3711 H   0  0  0  0  0  0  0  0  0  0  0  0
    6.6495    0.0055   19.9357 C   0  0  0  0  0  0  0  0  0  0  0  0
    7.3942   -0.7122   20.9693 C   0  0  0  0  0  0  0  0  0  0  0  0
    6.9034   -0.7797   22.2573 O   0  0  0  0  0  0  0  0  0  0  0  0
    7.7875   -1.4939   22.9808 C   0  0  0  0  0  0  0  0  0  0  0  0
    7.4862   -1.6362   24.2735 O   0  0  0  0  0  0  0  0  0  0  0  0
    8.3425   -2.4912   25.0559 C   0  0  0  0  0  0  0  0  0  0  0  0
    9.3968   -2.2262   24.8981 H   0  0  0  0  0  0  0  0  0  0  0  0
    8.1166   -2.2411   26.0940 H   0  0  0  0  0  0  0  0  0  0  0  0
    8.1161   -3.9900   24.7960 C   0  0  0  0  0  0  0  0  0  0  0  0
    8.2924   -4.1401   23.7223 H   0  0  0  0  0  0  0  0  0  0  0  0
    6.6696   -4.4301   25.1192 C   0  0  0  0  0  0  0  0  0  0  0  0
    5.9564   -3.7229   24.6854 H   0  0  0  0  0  0  0  0  0  0  0  0
    6.4852   -5.4062   24.6518 H   0  0  0  0  0  0  0  0  0  0  0  0
    6.4141   -4.5860   26.6272 C   0  0  0  0  0  0  0  0  0  0  0  0
    6.4524   -3.6104   27.1259 H   0  0  0  0  0  0  0  0  0  0  0  0
    5.4033   -4.9686   26.8094 H   0  0  0  0  0  0  0  0  0  0  0  0
    7.3778   -5.4646   27.2920 N   0  0  0  0  0  0  0  0  0  0  0  0
    7.2922   -6.3828   26.8590 H   0  0  0  0  0  0  0  0  0  0  0  0
    8.7554   -5.0187   27.0713 C   0  0  0  0  0  0  0  0  0  0  0  0
    8.8843   -4.0586   27.5835 H   0  0  0  0  0  0  0  0  0  0  0  0
    9.4356   -5.7142   27.5763 H   0  0  0  0  0  0  0  0  0  0  0  0
    9.1148   -4.8803   25.5811 C   0  0  0  0  0  0  0  0  0  0  0  0
    9.1076   -5.8922   25.1499 H   0  0  0  0  0  0  0  0  0  0  0  0
   10.1409   -4.5082   25.4729 H   0  0  0  0  0  0  0  0  0  0  0  0
    8.8354   -1.8983   22.2141 C   0  0  0  0  0  0  0  0  0  0  0  0
    9.6758   -2.4770   22.5538 H   0  0  0  0  0  0  0  0  0  0  0  0
    8.5756   -1.3850   20.9039 C   0  0  0  0  0  0  0  0  0  0  0  0
    9.1901   -1.4962   20.0203 H   0  0  0  0  0  0  0  0  0  0  0  0
    5.4218    0.6593   20.1713 C   0  0  0  0  0  0  0  0  0  0  0  0
    4.9865    0.6433   21.1720 H   0  0  0  0  0  0  0  0  0  0  0  0
    4.8003    1.3128   19.1071 C   0  0  0  0  0  0  0  0  0  0  0  0
    3.8685    1.8473   19.2538 H   0  0  0  0  0  0  0  0  0  0  0  0
  1  2  1  0
  2  3  2  0
  3  4  1  0
  4  5  1  0
  4  6  2  0
  6  7  1  0
  7  8  1  0
  8  9  1  0
  9 10  1  0
 10 11  1  0
 11 12  1  0
 11 13  1  0
 11 14  1  0
 14 15  1  0
 14 16  1  0
 16 17  1  0
 16 18  1  0
 16 19  1  0
 19 20  1  0
 19 21  1  0
 19 22  1  0
 22 23  1  0
 22 24  1  0
 24 25  1  0
 24 26  1  0
 24 27  1  0
 27 28  1  0
 27 29  1  0
  9 30  2  0
 30 31  1  0
 30 32  1  0
 32 33  1  0
  6 34  1  0
 34 35  1  0
 34 36  2  0
 36 37  1  0
 36  2  1  0
 32  7  2  0
 27 14  1  0
M  END
>  <cnnaffinity>  (1) 
-4.68518

>  <filename>  (1) 
c1cncc(-c2ccc(OCC3CCNCC3)o2)c1

$$$$
