
     RDKit          3D

 32 35  0  0  0  0  0  0  0  0999 V2000
    4.9150    1.7870   16.9987 H   0  0  0  0  0  0  0  0  0  0  0  0
    5.3972    1.2914   17.8398 C   0  0  0  0  0  0  0  0  0  0  0  0
    6.5522    0.6665   17.5720 N   0  0  0  0  0  0  0  0  0  0  0  0
    7.1881    0.0594   18.5807 C   0  0  0  0  0  0  0  0  0  0  0  0
    8.1362   -0.4192   18.3539 H   0  0  0  0  0  0  0  0  0  0  0  0
    6.6892    0.0290   19.8968 C   0  0  0  0  0  0  0  0  0  0  0  0
    7.2996   -0.6635   20.9519 O   0  0  0  0  0  0  0  0  0  0  0  0
    8.6322   -0.7604   21.0736 C   0  0  0  0  0  0  0  0  0  0  0  0
    9.5596   -0.0790   20.4538 N   0  0  0  0  0  0  0  0  0  0  0  0
   10.7322   -0.5529   20.9441 N   0  0  0  0  0  0  0  0  0  0  0  0
   10.5488   -1.4807   21.8000 N   0  0  0  0  0  0  0  0  0  0  0  0
    9.2012   -1.6541   21.9205 N   0  0  0  0  0  0  0  0  0  0  0  0
    8.6288   -2.5964   22.8391 C   0  0  0  0  0  0  0  0  0  0  0  0
    9.3512   -3.7825   23.2068 C   0  0  0  0  0  0  0  0  0  0  0  0
   10.3645   -3.8883   22.8406 H   0  0  0  0  0  0  0  0  0  0  0  0
    8.8751   -4.7290   23.9795 N   0  0  0  0  0  0  0  0  0  0  0  0
    7.6222   -4.5367   24.5180 C   0  0  0  0  0  0  0  0  0  0  0  0
    7.0777   -5.5242   25.3938 C   0  0  0  0  0  0  0  0  0  0  0  0
    7.6939   -6.3911   25.6029 H   0  0  0  0  0  0  0  0  0  0  0  0
    5.8222   -5.3518   25.9459 C   0  0  0  0  0  0  0  0  0  0  0  0
    5.4057   -6.1035   26.6163 H   0  0  0  0  0  0  0  0  0  0  0  0
    5.0541   -4.1875   25.6517 C   0  0  0  0  0  0  0  0  0  0  0  0
    4.0674   -4.0673   26.1006 H   0  0  0  0  0  0  0  0  0  0  0  0
    5.5516   -3.2179   24.8165 C   0  0  0  0  0  0  0  0  0  0  0  0
    4.9797   -2.3187   24.5866 H   0  0  0  0  0  0  0  0  0  0  0  0
    6.8437   -3.3662   24.2369 C   0  0  0  0  0  0  0  0  0  0  0  0
    7.3870   -2.3774   23.3716 C   0  0  0  0  0  0  0  0  0  0  0  0
    6.8154   -1.4794   23.1360 H   0  0  0  0  0  0  0  0  0  0  0  0
    5.4659    0.6430   20.1720 C   0  0  0  0  0  0  0  0  0  0  0  0
    5.0399    0.6092   21.1765 H   0  0  0  0  0  0  0  0  0  0  0  0
    4.8226    1.2993   19.1158 C   0  0  0  0  0  0  0  0  0  0  0  0
    3.8908    1.8274   19.2687 H   0  0  0  0  0  0  0  0  0  0  0  0
  1  2  1  0
  2  3  2  0
  3  4  1  0
  4  5  1  0
  4  6  2  0
  6  7  1  0
  7  8  1  0
  8  9  2  0
  9 10  1  0
 10 11  2  0
 11 12  1  0
 12 13  1  0
 13 14  2  0
 14 15  1  0
 14 16  1  0
 16 17  2  0
 17 18  1  0
 18 19  1  0
 18 20  2  0
 20 21  1  0
 20 22  1  0
 22 23  1  0
 22 24  2  0
 24 25  1  0
 24 26  1  0
 26 27  2  0
 27 28  1  0
  6 29  1  0
 29 30  1  0
 29 31  2  0
 31 32  1  0
 31  2  1  0
 12  8  1  0
 27 13  1  0
 26 17  1  0
M  END
>  <cnnaffinity>  (1) 
-5.61807

>  <filename>  (1) 
c1cncc(Oc2nnnn2-c2cnc3ccccc3c2)c1

$$$$
