
     RDKit          3D

 34 37  0  0  0  0  0  0  0  0999 V2000
    4.9164    1.7753   17.0021 H   0  0  0  0  0  0  0  0  0  0  0  0
    5.4077    1.2896   17.8433 C   0  0  0  0  0  0  0  0  0  0  0  0
    6.5743    0.6745   17.5823 N   0  0  0  0  0  0  0  0  0  0  0  0
    7.1736    0.0472   18.5988 C   0  0  0  0  0  0  0  0  0  0  0  0
    8.1221   -0.4361   18.3767 H   0  0  0  0  0  0  0  0  0  0  0  0
    6.6558   -0.0038   19.9035 C   0  0  0  0  0  0  0  0  0  0  0  0
    7.3916   -0.6992   20.9559 C   0  0  0  0  0  0  0  0  0  0  0  0
    8.1006   -1.8523   20.7439 N   0  0  0  0  0  0  0  0  0  0  0  0
    8.5748   -2.2059   21.9067 C   0  0  0  0  0  0  0  0  0  0  0  0
    9.1895   -3.0759   22.0988 H   0  0  0  0  0  0  0  0  0  0  0  0
    8.2183   -1.3255   22.8736 N   0  0  0  0  0  0  0  0  0  0  0  0
    8.5013   -1.3365   23.8371 H   0  0  0  0  0  0  0  0  0  0  0  0
    7.4704   -0.3344   22.2859 C   0  0  0  0  0  0  0  0  0  0  0  0
    7.0371    0.8870   22.9473 C   0  0  0  0  0  0  0  0  0  0  0  0
    7.4172    2.1082   22.4053 C   0  0  0  0  0  0  0  0  0  0  0  0
    8.0200    2.1181   21.5003 H   0  0  0  0  0  0  0  0  0  0  0  0
    7.0376    3.3247   23.0116 C   0  0  0  0  0  0  0  0  0  0  0  0
    7.3591    4.2609   22.5656 H   0  0  0  0  0  0  0  0  0  0  0  0
    6.2702    3.3159   24.1534 C   0  0  0  0  0  0  0  0  0  0  0  0
    5.9788    4.2466   24.6338 H   0  0  0  0  0  0  0  0  0  0  0  0
    5.8397    2.0849   24.7333 C   0  0  0  0  0  0  0  0  0  0  0  0
    5.0370    2.0675   25.9157 C   0  0  0  0  0  0  0  0  0  0  0  0
    4.7730    3.0192   26.3711 H   0  0  0  0  0  0  0  0  0  0  0  0
    4.6049    0.8818   26.4572 C   0  0  0  0  0  0  0  0  0  0  0  0
    3.9927    0.8786   27.3555 H   0  0  0  0  0  0  0  0  0  0  0  0
    4.9493   -0.3531   25.8505 C   0  0  0  0  0  0  0  0  0  0  0  0
    4.5912   -1.2868   26.2744 H   0  0  0  0  0  0  0  0  0  0  0  0
    5.7391   -0.3752   24.7229 C   0  0  0  0  0  0  0  0  0  0  0  0
    5.9653   -1.3180   24.2291 H   0  0  0  0  0  0  0  0  0  0  0  0
    6.2132    0.8413   24.1271 C   0  0  0  0  0  0  0  0  0  0  0  0
    5.4339    0.6462   20.1590 C   0  0  0  0  0  0  0  0  0  0  0  0
    5.0062    0.6367   21.1670 H   0  0  0  0  0  0  0  0  0  0  0  0
    4.8032    1.3069   19.1084 C   0  0  0  0  0  0  0  0  0  0  0  0
    3.8708    1.8452   19.2618 H   0  0  0  0  0  0  0  0  0  0  0  0
  1  2  1  0
  2  3  2  0
  3  4  1  0
  4  5  1  0
  4  6  2  0
  6  7  1  0
  7  8  1  0
  8  9  2  0
  9 10  1  0
  9 11  1  0
 11 12  1  0
 11 13  1  0
 13 14  1  0
 14 15  2  0
 15 16  1  0
 15 17  1  0
 17 18  1  0
 17 19  2  0
 19 20  1  0
 19 21  1  0
 21 22  2  0
 22 23  1  0
 22 24  1  0
 24 25  1  0
 24 26  2  0
 26 27  1  0
 26 28  1  0
 28 29  1  0
 28 30  2  0
  6 31  1  0
 31 32  1  0
 31 33  2  0
 33 34  1  0
 33  2  1  0
 13  7  2  0
 30 14  1  0
 30 21  1  0
M  END
>  <cnnaffinity>  (1) 
-4.79391

>  <filename>  (1) 
c1cncc(-c2nc[nH]c2-c2cccc3ccccc23)c1

$$$$
