
     RDKit          3D

 34 37  0  0  0  0  0  0  0  0999 V2000
    5.0144    1.8730   17.0261 H   0  0  0  0  0  0  0  0  0  0  0  0
    5.4688    1.4041   17.8972 C   0  0  0  0  0  0  0  0  0  0  0  0
    6.6852    0.8719   17.7129 N   0  0  0  0  0  0  0  0  0  0  0  0
    7.2377    0.2420   18.7509 C   0  0  0  0  0  0  0  0  0  0  0  0
    8.2050   -0.2265   18.5611 H   0  0  0  0  0  0  0  0  0  0  0  0
    6.6399    0.1085   20.0197 C   0  0  0  0  0  0  0  0  0  0  0  0
    7.3431   -0.6885   21.1005 C   0  0  0  0  0  0  0  0  0  0  0  0
    7.4996   -1.7344   20.8099 H   0  0  0  0  0  0  0  0  0  0  0  0
    6.7168   -0.7252   21.9976 H   0  0  0  0  0  0  0  0  0  0  0  0
    8.7018   -0.1359   21.4389 C   0  0  0  0  0  0  0  0  0  0  0  0
    9.8148   -0.7780   21.7017 N   0  0  0  0  0  0  0  0  0  0  0  0
   10.7397    0.1660   21.9487 N   0  0  0  0  0  0  0  0  0  0  0  0
   10.2454    1.3543   21.8502 N   0  0  0  0  0  0  0  0  0  0  0  0
    8.9836    1.1713   21.5106 N   0  0  0  0  0  0  0  0  0  0  0  0
    7.7986    2.1597   21.4187 C   0  0  0  0  0  0  0  0  0  0  0  0
    7.9680    2.4762   21.2199 C   0  0  0  0  0  0  0  0  0  0  0  0
    8.5693    3.3870   21.2362 H   0  0  0  0  0  0  0  0  0  0  0  0
    6.7244    5.0661   21.3816 N   0  0  0  0  0  0  0  0  0  0  0  0
    5.8186    4.5227   21.9943 C   0  0  0  0  0  0  0  0  0  0  0  0
    4.7550    4.9787   22.0459 H   0  0  0  0  0  0  0  0  0  0  0  0
    5.8477    3.2304   22.8622 C   0  0  0  0  0  0  0  0  0  0  0  0
    4.9201    3.0847   23.9043 C   0  0  0  0  0  0  0  0  0  0  0  0
    4.1062    3.8074   24.0186 H   0  0  0  0  0  0  0  0  0  0  0  0
    5.0626    2.0453   24.8173 C   0  0  0  0  0  0  0  0  0  0  0  0
    4.3577    1.9491   25.6434 H   0  0  0  0  0  0  0  0  0  0  0  0
    6.1202    1.1509   24.6990 C   0  0  0  0  0  0  0  0  0  0  0  0
    6.2615    0.3645   25.4448 H   0  0  0  0  0  0  0  0  0  0  0  0
    7.0132    1.2770   23.6214 C   0  0  0  0  0  0  0  0  0  0  0  0
    7.8500    0.5847   23.6111 H   0  0  0  0  0  0  0  0  0  0  0  0
    6.8760    2.2712   22.6464 C   0  0  0  0  0  0  0  0  0  0  0  0
    5.3945    0.7055   20.2054 C   0  0  0  0  0  0  0  0  0  0  0  0
    4.8411    0.6072   21.1460 H   0  0  0  0  0  0  0  0  0  0  0  0
    4.7807    1.3374   19.1117 C   0  0  0  0  0  0  0  0  0  0  0  0
    3.7868    1.7732   19.1734 H   0  0  0  0  0  0  0  0  0  0  0  0
  1  2  1  0
  2  3  2  0
  3  4  1  0
  4  5  1  0
  4  6  2  0
  6  7  1  0
  7  8  1  0
  7  9  1  0
  7 10  1  0
 10 11  2  0
 11 12  1  0
 12 13  2  0
 13 14  1  0
 14 15  1  0
 15 16  2  0
 16 17  1  0
 16 18  1  0
 18 19  2  0
 19 20  1  0
 19 21  1  0
 21 22  2  0
 22 23  1  0
 22 24  1  0
 24 25  1  0
 24 26  2  0
 26 27  1  0
 26 28  1  0
 28 29  1  0
 28 30  2  0
  6 31  1  0
 31 32  1  0
 31 33  2  0
 33 34  1  0
 33  2  1  0
 14 10  1  0
 30 15  1  0
 30 21  1  0
M  END
>  <cnnaffinity>  (1) 
-5.13124

>  <filename>  (1) 
c1cncc(Cc2nnnn2-c2cncc3ccccc23)c1

$$$$
