
     RDKit          3D

 26 28  0  0  0  0  0  0  0  0999 V2000
    8.5629   -3.1643   22.2682 H   0  0  0  0  0  0  0  0  0  0  0  0
    8.2343   -2.1574   22.0242 C   0  0  0  0  0  0  0  0  0  0  0  0
    8.3968   -1.0851   22.8443 N   0  0  0  0  0  0  0  0  0  0  0  0
    7.8412   -0.1192   22.1426 C   0  0  0  0  0  0  0  0  0  0  0  0
    7.7580    1.1757   22.5293 N   0  0  0  0  0  0  0  0  0  0  0  0
    8.3663    1.7948   23.6986 C   0  0  0  0  0  0  0  0  0  0  0  0
    7.8682    1.5401   24.6419 H   0  0  0  0  0  0  0  0  0  0  0  0
    9.4324    1.5742   23.8415 H   0  0  0  0  0  0  0  0  0  0  0  0
    8.0244    3.1787   23.0726 C   0  0  0  0  0  0  0  0  0  0  0  0
    7.2778    3.7514   23.6287 H   0  0  0  0  0  0  0  0  0  0  0  0
    8.8840    3.8130   22.8470 H   0  0  0  0  0  0  0  0  0  0  0  0
    7.4390    2.4267   21.8498 C   0  0  0  0  0  0  0  0  0  0  0  0
    6.3700    2.5863   21.6686 H   0  0  0  0  0  0  0  0  0  0  0  0
    7.9481    2.5756   20.8921 H   0  0  0  0  0  0  0  0  0  0  0  0
    7.3743   -0.6073   20.9424 N   0  0  0  0  0  0  0  0  0  0  0  0
    6.6548    0.0272   19.8933 C   0  0  0  0  0  0  0  0  0  0  0  0
    7.1673    0.0358   18.5854 C   0  0  0  0  0  0  0  0  0  0  0  0
    8.1123   -0.4528   18.3544 H   0  0  0  0  0  0  0  0  0  0  0  0
    6.5562    0.6637   17.5783 N   0  0  0  0  0  0  0  0  0  0  0  0
    5.3964    1.2944   17.8353 C   0  0  0  0  0  0  0  0  0  0  0  0
    4.9335    1.7982   16.9920 H   0  0  0  0  0  0  0  0  0  0  0  0
    4.7975    1.3094   19.0967 C   0  0  0  0  0  0  0  0  0  0  0  0
    3.8673    1.8425   19.2467 H   0  0  0  0  0  0  0  0  0  0  0  0
    5.4309    0.6455   20.1510 C   0  0  0  0  0  0  0  0  0  0  0  0
    5.0153    0.6263   21.1599 H   0  0  0  0  0  0  0  0  0  0  0  0
    7.6425   -1.9400   20.8712 N   0  0  0  0  0  0  0  0  0  0  0  0
  1  2  1  0
  2  3  1  0
  3  4  2  0
  4  5  1  0
  5  6  1  0
  6  7  1  0
  6  8  1  0
  6  9  1  0
  9 10  1  0
  9 11  1  0
  9 12  1  0
 12 13  1  0
 12 14  1  0
  4 15  1  0
 15 16  1  0
 16 17  2  0
 17 18  1  0
 17 19  1  0
 19 20  2  0
 20 21  1  0
 20 22  1  0
 22 23  1  0
 22 24  2  0
 24 25  1  0
 15 26  1  0
 26  2  2  0
 12  5  1  0
 24 16  1  0
M  END
>  <cnnaffinity>  (1) 
-4.52805

>  <filename>  (1) 
c1cncc(-n2ncnc2N2CCC2)c1

$$$$
