
     RDKit          3D

 36 38  0  0  0  0  0  0  0  0999 V2000
    4.9320    1.7823   16.9971 H   0  0  0  0  0  0  0  0  0  0  0  0
    5.4072    1.2895   17.8448 C   0  0  0  0  0  0  0  0  0  0  0  0
    6.5709    0.6638   17.5973 N   0  0  0  0  0  0  0  0  0  0  0  0
    7.1715    0.0336   18.6108 C   0  0  0  0  0  0  0  0  0  0  0  0
    8.1192   -0.4405   18.3749 H   0  0  0  0  0  0  0  0  0  0  0  0
    6.6538   -0.0024   19.9174 C   0  0  0  0  0  0  0  0  0  0  0  0
    7.3823   -0.6699   20.9470 N   0  0  0  0  0  0  0  0  0  0  0  0
    7.7105   -1.9709   20.8170 N   0  0  0  0  0  0  0  0  0  0  0  0
    8.3735   -2.2801   21.9194 C   0  0  0  0  0  0  0  0  0  0  0  0
    8.7386   -3.2886   22.0564 H   0  0  0  0  0  0  0  0  0  0  0  0
    8.5186   -1.1686   22.7713 C   0  0  0  0  0  0  0  0  0  0  0  0
    9.0112   -1.1068   23.7351 H   0  0  0  0  0  0  0  0  0  0  0  0
    7.8753   -0.1461   22.1150 C   0  0  0  0  0  0  0  0  0  0  0  0
    7.7147    1.2876   22.4987 C   0  0  0  0  0  0  0  0  0  0  0  0
    8.5538    1.5381   23.1747 H   0  0  0  0  0  0  0  0  0  0  0  0
    7.8559    1.9137   21.6072 H   0  0  0  0  0  0  0  0  0  0  0  0
    6.4136    1.5817   23.1097 N   0  0  0  0  0  0  0  0  0  0  0  0
    6.1207    3.0145   23.0760 C   0  0  0  0  0  0  0  0  0  0  0  0
    6.8632    3.5995   23.6591 H   0  0  0  0  0  0  0  0  0  0  0  0
    6.1995    3.3528   22.0360 H   0  0  0  0  0  0  0  0  0  0  0  0
    4.7193    3.2938   23.6110 C   0  0  0  0  0  0  0  0  0  0  0  0
    3.9939    2.8285   22.9337 H   0  0  0  0  0  0  0  0  0  0  0  0
    4.5312    4.3716   23.5810 H   0  0  0  0  0  0  0  0  0  0  0  0
    4.5438    2.7412   25.0300 C   0  0  0  0  0  0  0  0  0  0  0  0
    5.1758    3.3142   25.7238 H   0  0  0  0  0  0  0  0  0  0  0  0
    3.5125    2.8724   25.3737 H   0  0  0  0  0  0  0  0  0  0  0  0
    4.9500    1.2646   25.0767 C   0  0  0  0  0  0  0  0  0  0  0  0
    4.9293    0.8843   26.1038 H   0  0  0  0  0  0  0  0  0  0  0  0
    4.2370    0.6594   24.5085 H   0  0  0  0  0  0  0  0  0  0  0  0
    6.3392    1.0563   24.4804 C   0  0  0  0  0  0  0  0  0  0  0  0
    6.5956   -0.0068   24.4642 H   0  0  0  0  0  0  0  0  0  0  0  0
    7.0914    1.5376   25.1389 H   0  0  0  0  0  0  0  0  0  0  0  0
    5.4406    0.6497   20.1740 C   0  0  0  0  0  0  0  0  0  0  0  0
    5.0222    0.6452   21.1809 H   0  0  0  0  0  0  0  0  0  0  0  0
    4.8103    1.3048   19.1100 C   0  0  0  0  0  0  0  0  0  0  0  0
    3.8773    1.8393   19.2540 H   0  0  0  0  0  0  0  0  0  0  0  0
  1  2  1  0
  2  3  2  0
  3  4  1  0
  4  5  1  0
  4  6  2  0
  6  7  1  0
  7  8  1  0
  8  9  2  0
  9 10  1  0
  9 11  1  0
 11 12  1  0
 11 13  2  0
 13 14  1  0
 14 15  1  0
 14 16  1  0
 14 17  1  0
 17 18  1  0
 18 19  1  0
 18 20  1  0
 18 21  1  0
 21 22  1  0
 21 23  1  0
 21 24  1  0
 24 25  1  0
 24 26  1  0
 24 27  1  0
 27 28  1  0
 27 29  1  0
 27 30  1  0
 30 31  1  0
 30 32  1  0
  6 33  1  0
 33 34  1  0
 33 35  2  0
 35 36  1  0
 35  2  1  0
 13  7  1  0
 30 17  1  0
M  END
>  <cnnaffinity>  (1) 
-4.93631

>  <filename>  (1) 
c1cncc(-n2nccc2CN2CCCCC2)c1

$$$$
