
     RDKit          3D

 40 43  0  0  0  0  0  0  0  0999 V2000
    4.9228    1.8253   16.9572 H   0  0  0  0  0  0  0  0  0  0  0  0
    5.3795    1.3070   17.7988 C   0  0  0  0  0  0  0  0  0  0  0  0
    6.5354    0.6696   17.5456 N   0  0  0  0  0  0  0  0  0  0  0  0
    7.1514    0.0597   18.5714 C   0  0  0  0  0  0  0  0  0  0  0  0
    8.0990   -0.4186   18.3260 H   0  0  0  0  0  0  0  0  0  0  0  0
    6.6631    0.0375   19.9086 C   0  0  0  0  0  0  0  0  0  0  0  0
    7.3073   -0.6093   20.9782 N   0  0  0  0  0  0  0  0  0  0  0  0
    7.6621    0.0153   22.2490 C   0  0  0  0  0  0  0  0  0  0  0  0
    8.7596    0.1325   22.3200 H   0  0  0  0  0  0  0  0  0  0  0  0
    7.2146    1.0123   22.2997 H   0  0  0  0  0  0  0  0  0  0  0  0
    7.1914   -0.8535   23.4313 C   0  0  0  0  0  0  0  0  0  0  0  0
    7.5479   -0.4284   24.3817 H   0  0  0  0  0  0  0  0  0  0  0  0
    6.0962   -0.8322   23.4545 H   0  0  0  0  0  0  0  0  0  0  0  0
    7.6617   -2.2398   23.3151 N   0  0  0  0  0  0  0  0  0  0  0  0
    7.5362   -3.1055   24.4003 C   0  0  0  0  0  0  0  0  0  0  0  0
    8.5688   -4.0614   24.7637 C   0  0  0  0  0  0  0  0  0  0  0  0
    9.4665   -4.1094   24.1457 H   0  0  0  0  0  0  0  0  0  0  0  0
    8.5263   -4.8673   25.7984 N   0  0  0  0  0  0  0  0  0  0  0  0
    7.4054   -4.8144   26.5927 C   0  0  0  0  0  0  0  0  0  0  0  0
    7.3578   -5.6805   27.7131 C   0  0  0  0  0  0  0  0  0  0  0  0
    8.2257   -6.3195   27.8485 H   0  0  0  0  0  0  0  0  0  0  0  0
    6.2559   -5.6784   28.5396 C   0  0  0  0  0  0  0  0  0  0  0  0
    6.2076   -6.3430   29.3957 H   0  0  0  0  0  0  0  0  0  0  0  0
    5.1630   -4.8063   28.2724 C   0  0  0  0  0  0  0  0  0  0  0  0
    4.3024   -4.8177   28.9330 H   0  0  0  0  0  0  0  0  0  0  0  0
    5.1808   -3.9530   27.1951 C   0  0  0  0  0  0  0  0  0  0  0  0
    4.3516   -3.2800   26.9793 H   0  0  0  0  0  0  0  0  0  0  0  0
    6.3058   -3.9314   26.3241 C   0  0  0  0  0  0  0  0  0  0  0  0
    6.4061   -3.0673   25.1998 C   0  0  0  0  0  0  0  0  0  0  0  0
    5.6047   -2.3749   24.9478 H   0  0  0  0  0  0  0  0  0  0  0  0
    8.3211   -2.6378   22.0771 C   0  0  0  0  0  0  0  0  0  0  0  0
    9.3850   -2.3531   22.0886 H   0  0  0  0  0  0  0  0  0  0  0  0
    8.2665   -3.7303   21.9892 H   0  0  0  0  0  0  0  0  0  0  0  0
    7.6867   -2.0057   20.8202 C   0  0  0  0  0  0  0  0  0  0  0  0
    8.4412   -2.0550   20.0301 H   0  0  0  0  0  0  0  0  0  0  0  0
    6.7941   -2.5789   20.5231 H   0  0  0  0  0  0  0  0  0  0  0  0
    5.4385    0.6917   20.1291 C   0  0  0  0  0  0  0  0  0  0  0  0
    5.0327    0.6522   21.1377 H   0  0  0  0  0  0  0  0  0  0  0  0
    4.7881    1.3301   19.0686 C   0  0  0  0  0  0  0  0  0  0  0  0
    3.8521    1.8569   19.2246 H   0  0  0  0  0  0  0  0  0  0  0  0
  1  2  1  0
  2  3  2  0
  3  4  1  0
  4  5  1  0
  4  6  2  0
  6  7  1  0
  7  8  1  0
  8  9  1  0
  8 10  1  0
  8 11  1  0
 11 12  1  0
 11 13  1  0
 11 14  1  0
 14 15  1  0
 15 16  2  0
 16 17  1  0
 16 18  1  0
 18 19  2  0
 19 20  1  0
 20 21  1  0
 20 22  2  0
 22 23  1  0
 22 24  1  0
 24 25  1  0
 24 26  2  0
 26 27  1  0
 26 28  1  0
 28 29  2  0
 29 30  1  0
 14 31  1  0
 31 32  1  0
 31 33  1  0
 31 34  1  0
 34 35  1  0
 34 36  1  0
  6 37  1  0
 37 38  1  0
 37 39  2  0
 39 40  1  0
 39  2  1  0
 34  7  1  0
 29 15  1  0
 28 19  1  0
M  END
>  <cnnaffinity>  (1) 
-5.26261

>  <filename>  (1) 
c1cncc(N2CCN(c3cnc4ccccc4c3)CC2)c1

$$$$
