
     RDKit          3D

 28 30  0  0  0  0  0  0  0  0999 V2000
    5.2488    1.7149   16.8061 H   0  0  0  0  0  0  0  0  0  0  0  0
    5.6302    1.2110   17.6921 C   0  0  0  0  0  0  0  0  0  0  0  0
    6.7770    0.5305   17.5438 N   0  0  0  0  0  0  0  0  0  0  0  0
    7.2777   -0.0853   18.6194 C   0  0  0  0  0  0  0  0  0  0  0  0
    8.2047   -0.6392   18.4711 H   0  0  0  0  0  0  0  0  0  0  0  0
    6.6667   -0.0396   19.8779 C   0  0  0  0  0  0  0  0  0  0  0  0
    7.3099   -0.6705   21.0167 C   0  0  0  0  0  0  0  0  0  0  0  0
    6.8638   -0.4365   22.2823 N   0  0  0  0  0  0  0  0  0  0  0  0
    7.7149   -1.1154   23.0220 C   0  0  0  0  0  0  0  0  0  0  0  0
    7.7288   -1.2400   24.0976 H   0  0  0  0  0  0  0  0  0  0  0  0
    8.6019   -1.7372   22.2277 N   0  0  0  0  0  0  0  0  0  0  0  0
    9.7468   -2.4355   22.5344 N   0  0  0  0  0  0  0  0  0  0  0  0
   10.1505   -2.6885   21.6454 H   0  0  0  0  0  0  0  0  0  0  0  0
    9.7033   -3.5155   23.4360 C   0  0  0  0  0  0  0  0  0  0  0  0
   10.9241   -3.9560   23.9560 C   0  0  0  0  0  0  0  0  0  0  0  0
   11.8431   -3.5019   23.6097 H   0  0  0  0  0  0  0  0  0  0  0  0
   10.9192   -5.0421   24.8214 C   0  0  0  0  0  0  0  0  0  0  0  0
   11.8545   -5.4678   25.1841 H   0  0  0  0  0  0  0  0  0  0  0  0
    9.7975   -5.6686   25.2013 N   0  0  0  0  0  0  0  0  0  0  0  0
    8.6373   -5.2101   24.7140 C   0  0  0  0  0  0  0  0  0  0  0  0
    7.7514   -5.7371   25.0490 H   0  0  0  0  0  0  0  0  0  0  0  0
    8.5248   -4.1468   23.8209 C   0  0  0  0  0  0  0  0  0  0  0  0
    7.5620   -3.8470   23.4184 H   0  0  0  0  0  0  0  0  0  0  0  0
    8.3713   -1.4538   20.9303 N   0  0  0  0  0  0  0  0  0  0  0  0
    5.4579    0.6579   20.0214 C   0  0  0  0  0  0  0  0  0  0  0  0
    4.9708    0.7016   20.9987 H   0  0  0  0  0  0  0  0  0  0  0  0
    4.9310    1.2892   18.9026 C   0  0  0  0  0  0  0  0  0  0  0  0
    4.0066    1.8513   18.9618 H   0  0  0  0  0  0  0  0  0  0  0  0
  1  2  1  0
  2  3  2  0
  3  4  1  0
  4  5  1  0
  4  6  2  0
  6  7  1  0
  7  8  1  0
  8  9  2  0
  9 10  1  0
  9 11  1  0
 11 12  1  0
 12 13  1  0
 12 14  1  0
 14 15  2  0
 15 16  1  0
 15 17  1  0
 17 18  1  0
 17 19  2  0
 19 20  1  0
 20 21  1  0
 20 22  2  0
 22 23  1  0
 11 24  1  0
  6 25  1  0
 25 26  1  0
 25 27  2  0
 27 28  1  0
 27  2  1  0
 24  7  2  0
 22 14  1  0
M  END
>  <cnnaffinity>  (1) 
-5.21313

>  <filename>  (1) 
c1cncc(-c2ncn(Nc3ccncc3)n2)c1

$$$$
