
     RDKit          3D

 37 39  0  0  0  0  0  0  0  0999 V2000
    5.0418    1.7950   16.9854 H   0  0  0  0  0  0  0  0  0  0  0  0
    5.4848    1.2736   17.8311 C   0  0  0  0  0  0  0  0  0  0  0  0
    6.6251    0.6109   17.5865 N   0  0  0  0  0  0  0  0  0  0  0  0
    7.2019   -0.0426   18.6071 C   0  0  0  0  0  0  0  0  0  0  0  0
    8.1224   -0.5752   18.3706 H   0  0  0  0  0  0  0  0  0  0  0  0
    6.6732   -0.0614   19.9113 C   0  0  0  0  0  0  0  0  0  0  0  0
    7.2137   -0.7831   20.9522 O   0  0  0  0  0  0  0  0  0  0  0  0
    8.5873   -0.8331   21.1412 C   0  0  0  0  0  0  0  0  0  0  0  0
    9.6169    0.0577   20.7717 C   0  0  0  0  0  0  0  0  0  0  0  0
    9.5287    0.9841   20.2198 H   0  0  0  0  0  0  0  0  0  0  0  0
   10.8060   -0.3455   21.2071 N   0  0  0  0  0  0  0  0  0  0  0  0
   10.5355   -1.4929   21.8773 N   0  0  0  0  0  0  0  0  0  0  0  0
   11.2859   -2.0520   22.2535 H   0  0  0  0  0  0  0  0  0  0  0  0
    9.2182   -1.8150   21.8771 C   0  0  0  0  0  0  0  0  0  0  0  0
    8.6768   -2.9446   22.4652 N   0  0  0  0  0  0  0  0  0  0  0  0
    7.6958   -2.7844   22.6790 H   0  0  0  0  0  0  0  0  0  0  0  0
    9.3460   -3.7293   23.4876 C   0  0  0  0  0  0  0  0  0  0  0  0
   10.3537   -3.9897   23.1413 H   0  0  0  0  0  0  0  0  0  0  0  0
    9.4923   -2.9809   24.8167 C   0  0  0  0  0  0  0  0  0  0  0  0
   10.1693   -2.1326   24.6659 H   0  0  0  0  0  0  0  0  0  0  0  0
    8.5115   -2.5617   25.0798 H   0  0  0  0  0  0  0  0  0  0  0  0
   10.0109   -3.8839   25.9485 C   0  0  0  0  0  0  0  0  0  0  0  0
   11.0828   -4.0730   25.8007 H   0  0  0  0  0  0  0  0  0  0  0  0
    9.8943   -3.3553   26.9009 H   0  0  0  0  0  0  0  0  0  0  0  0
    9.2861   -5.2335   26.0729 C   0  0  0  0  0  0  0  0  0  0  0  0
    9.8803   -5.8921   26.7206 H   0  0  0  0  0  0  0  0  0  0  0  0
    8.3074   -5.0883   26.5540 H   0  0  0  0  0  0  0  0  0  0  0  0
    9.0608   -5.9476   24.7343 C   0  0  0  0  0  0  0  0  0  0  0  0
    8.3412   -6.7514   24.8891 H   0  0  0  0  0  0  0  0  0  0  0  0
    9.9863   -6.4302   24.3974 H   0  0  0  0  0  0  0  0  0  0  0  0
    8.5227   -5.0080   23.6502 C   0  0  0  0  0  0  0  0  0  0  0  0
    8.4699   -5.5173   22.6821 H   0  0  0  0  0  0  0  0  0  0  0  0
    7.4918   -4.7062   23.8942 H   0  0  0  0  0  0  0  0  0  0  0  0
    5.4735    0.6255   20.1530 C   0  0  0  0  0  0  0  0  0  0  0  0
    5.0288    0.6062   21.1455 H   0  0  0  0  0  0  0  0  0  0  0  0
    4.8729    1.3058   19.0876 C   0  0  0  0  0  0  0  0  0  0  0  0
    3.9458    1.8583   19.2198 H   0  0  0  0  0  0  0  0  0  0  0  0
  1  2  1  0
  2  3  2  0
  3  4  1  0
  4  5  1  0
  4  6  2  0
  6  7  1  0
  7  8  1  0
  8  9  1  0
  9 10  1  0
  9 11  2  0
 11 12  1  0
 12 13  1  0
 12 14  1  0
 14 15  1  0
 15 16  1  0
 15 17  1  0
 17 18  1  0
 17 19  1  0
 19 20  1  0
 19 21  1  0
 19 22  1  0
 22 23  1  0
 22 24  1  0
 22 25  1  0
 25 26  1  0
 25 27  1  0
 25 28  1  0
 28 29  1  0
 28 30  1  0
 28 31  1  0
 31 32  1  0
 31 33  1  0
  6 34  1  0
 34 35  1  0
 34 36  2  0
 36 37  1  0
 36  2  1  0
 14  8  2  0
 31 17  1  0
M  END
>  <cnnaffinity>  (1) 
-5.39836

>  <filename>  (1) 
c1cncc(Oc2cn[nH]c2NC2CCCCC2)c1

$$$$
