
     RDKit          3D

 44 46  0  0  0  0  0  0  0  0999 V2000
    4.9386    1.3661   16.8545 H   0  0  0  0  0  0  0  0  0  0  0  0
    5.4173    1.0031   17.7605 C   0  0  0  0  0  0  0  0  0  0  0  0
    6.6612    0.5350   17.6192 N   0  0  0  0  0  0  0  0  0  0  0  0
    7.2798    0.0833   18.7224 C   0  0  0  0  0  0  0  0  0  0  0  0
    8.2777   -0.3112   18.5372 H   0  0  0  0  0  0  0  0  0  0  0  0
    6.7185    0.0598   20.0186 C   0  0  0  0  0  0  0  0  0  0  0  0
    7.4453   -0.4837   21.2843 C   0  0  0  0  0  0  0  0  0  0  0  0
    7.6535    0.6522   22.3543 C   0  0  0  0  0  0  0  0  0  0  0  0
    8.0343    0.1727   23.2696 H   0  0  0  0  0  0  0  0  0  0  0  0
    6.6298    1.0230   22.5963 H   0  0  0  0  0  0  0  0  0  0  0  0
    8.5857    1.7449   21.9324 N   0  0  0  0  0  0  0  0  0  0  0  0
   10.1275    1.4311   22.0854 C   0  0  0  0  0  0  0  0  0  0  0  0
   10.2722    0.3814   22.3411 H   0  0  0  0  0  0  0  0  0  0  0  0
   10.6116    1.6598   21.1191 H   0  0  0  0  0  0  0  0  0  0  0  0
   10.7753    2.3634   23.2419 C   0  0  0  0  0  0  0  0  0  0  0  0
   10.4585    1.8421   24.1954 H   0  0  0  0  0  0  0  0  0  0  0  0
   11.8585    2.0591   23.1632 H   0  0  0  0  0  0  0  0  0  0  0  0
   10.5090    3.7195   23.1580 N   0  0  0  0  0  0  0  0  0  0  0  0
   11.3486    4.1535   23.5406 H   0  0  0  0  0  0  0  0  0  0  0  0
    8.4598    3.1730   22.0569 C   0  0  0  0  0  0  0  0  0  0  0  0
    8.4220    4.4314   22.1370 H   0  0  0  0  0  0  0  0  0  0  0  0
    8.8080    3.4883   20.9185 H   0  0  0  0  0  0  0  0  0  0  0  0
    8.2032    3.1393   21.9851 C   0  0  0  0  0  0  0  0  0  0  0  0
    6.6200    3.2034   21.5883 H   0  0  0  0  0  0  0  0  0  0  0  0
    8.1961    3.1023   23.2622 H   0  0  0  0  0  0  0  0  0  0  0  0
    8.7858   -1.1630   20.8777 C   0  0  0  0  0  0  0  0  0  0  0  0
    8.5176   -1.8420   20.0657 H   0  0  0  0  0  0  0  0  0  0  0  0
    9.4788   -0.4393   20.4333 H   0  0  0  0  0  0  0  0  0  0  0  0
    9.4959   -2.0363   21.9337 C   0  0  0  0  0  0  0  0  0  0  0  0
   10.1474   -2.7224   21.3812 H   0  0  0  0  0  0  0  0  0  0  0  0
   10.1696   -1.4554   22.5722 H   0  0  0  0  0  0  0  0  0  0  0  0
    8.5196   -2.8315   22.8288 C   0  0  0  0  0  0  0  0  0  0  0  0
    8.9421   -3.8099   23.0811 H   0  0  0  0  0  0  0  0  0  0  0  0
    8.3865   -2.2987   23.7815 H   0  0  0  0  0  0  0  0  0  0  0  0
    7.1549   -2.9776   22.1601 C   0  0  0  0  0  0  0  0  0  0  0  0
    6.4853   -3.6066   22.7564 H   0  0  0  0  0  0  0  0  0  0  0  0
    7.2654   -3.4733   21.1873 H   0  0  0  0  0  0  0  0  0  0  0  0
    6.5147   -1.5903   21.9636 C   0  0  0  0  0  0  0  0  0  0  0  0
    5.5794   -1.7202   21.4057 H   0  0  0  0  0  0  0  0  0  0  0  0
    6.2165   -1.2494   22.9655 H   0  0  0  0  0  0  0  0  0  0  0  0
    5.3895    0.5184   20.1142 C   0  0  0  0  0  0  0  0  0  0  0  0
    4.8667    0.4964   21.0738 H   0  0  0  0  0  0  0  0  0  0  0  0
    4.7360    1.0061   18.9812 C   0  0  0  0  0  0  0  0  0  0  0  0
    3.7177    1.3741   19.0294 H   0  0  0  0  0  0  0  0  0  0  0  0
  1  2  1  0
  2  3  2  0
  3  4  1  0
  4  5  1  0
  4  6  2  0
  6  7  1  0
  7  8  1  0
  8  9  1  0
  8 10  1  0
  8 11  1  0
 11 12  1  0
 12 13  1  0
 12 14  1  0
 12 15  1  0
 15 16  1  0
 15 17  1  0
 15 18  1  0
 18 19  1  0
 18 20  1  0
 20 21  1  0
 20 22  1  0
 20 23  1  0
 23 24  1  0
 23 25  1  0
  7 26  1  0
 26 27  1  0
 26 28  1  0
 26 29  1  0
 29 30  1  0
 29 31  1  0
 29 32  1  0
 32 33  1  0
 32 34  1  0
 32 35  1  0
 35 36  1  0
 35 37  1  0
 35 38  1  0
 38 39  1  0
 38 40  1  0
  6 41  1  0
 41 42  1  0
 41 43  2  0
 43 44  1  0
 43  2  1  0
 38  7  1  0
 23 11  1  0
M  END
>  <cnnaffinity>  (1) 
-4.94362

>  <filename>  (1) 
c1cncc(C2(CN3CCNCC3)CCCCC2)c1

$$$$
