
     RDKit          3D

 33 36  0  0  0  0  0  0  0  0999 V2000
    4.9373    1.7790   16.9878 H   0  0  0  0  0  0  0  0  0  0  0  0
    5.4134    1.2901   17.8409 C   0  0  0  0  0  0  0  0  0  0  0  0
    6.5847    0.6759   17.6103 N   0  0  0  0  0  0  0  0  0  0  0  0
    7.1914    0.0753   18.6424 C   0  0  0  0  0  0  0  0  0  0  0  0
    8.1437   -0.4126   18.4336 H   0  0  0  0  0  0  0  0  0  0  0  0
    6.6737    0.0573   19.9583 C   0  0  0  0  0  0  0  0  0  0  0  0
    7.3517   -0.6206   21.0311 N   0  0  0  0  0  0  0  0  0  0  0  0
    7.7569   -1.9364   21.0540 C   0  0  0  0  0  0  0  0  0  0  0  0
    7.5355   -2.6173   20.2528 H   0  0  0  0  0  0  0  0  0  0  0  0
    8.3045   -2.2489   22.1913 N   0  0  0  0  0  0  0  0  0  0  0  0
    8.2293   -1.1389   22.9918 N   0  0  0  0  0  0  0  0  0  0  0  0
    7.6276   -0.1908   22.3202 C   0  0  0  0  0  0  0  0  0  0  0  0
    7.2543    1.1232   22.8897 C   0  0  0  0  0  0  0  0  0  0  0  0
    7.6535    2.2876   22.2552 C   0  0  0  0  0  0  0  0  0  0  0  0
    8.2254    2.2297   21.3323 H   0  0  0  0  0  0  0  0  0  0  0  0
    7.3272    3.5549   22.7939 C   0  0  0  0  0  0  0  0  0  0  0  0
    7.6599    4.4458   22.2639 H   0  0  0  0  0  0  0  0  0  0  0  0
    6.6017    3.6574   23.9586 C   0  0  0  0  0  0  0  0  0  0  0  0
    6.3513    4.6369   24.3648 H   0  0  0  0  0  0  0  0  0  0  0  0
    6.1454    2.4875   24.6426 C   0  0  0  0  0  0  0  0  0  0  0  0
    5.3777    2.5643   25.8523 C   0  0  0  0  0  0  0  0  0  0  0  0
    5.1620    3.5447   26.2770 H   0  0  0  0  0  0  0  0  0  0  0  0
    4.9129    1.4233   26.4641 C   0  0  0  0  0  0  0  0  0  0  0  0
    4.3334    1.4880   27.3835 H   0  0  0  0  0  0  0  0  0  0  0  0
    5.1854    0.1474   25.9015 C   0  0  0  0  0  0  0  0  0  0  0  0
    4.7968   -0.7440   26.3863 H   0  0  0  0  0  0  0  0  0  0  0  0
    5.9371    0.0311   24.7546 C   0  0  0  0  0  0  0  0  0  0  0  0
    6.1571   -0.9474   24.3291 H   0  0  0  0  0  0  0  0  0  0  0  0
    6.4593    1.1930   24.0922 C   0  0  0  0  0  0  0  0  0  0  0  0
    5.4512    0.6971   20.1848 C   0  0  0  0  0  0  0  0  0  0  0  0
    5.0320    0.7121   21.1940 H   0  0  0  0  0  0  0  0  0  0  0  0
    4.8136    1.3128   19.1031 C   0  0  0  0  0  0  0  0  0  0  0  0
    3.8550    1.7959   19.2289 H   0  0  0  0  0  0  0  0  0  0  0  0
  1  2  1  0
  2  3  2  0
  3  4  1  0
  4  5  1  0
  4  6  2  0
  6  7  1  0
  7  8  1  0
  8  9  1  0
  8 10  2  0
 10 11  1  0
 11 12  2  0
 12 13  1  0
 13 14  2  0
 14 15  1  0
 14 16  1  0
 16 17  1  0
 16 18  2  0
 18 19  1  0
 18 20  1  0
 20 21  2  0
 21 22  1  0
 21 23  1  0
 23 24  1  0
 23 25  2  0
 25 26  1  0
 25 27  1  0
 27 28  1  0
 27 29  2  0
  6 30  1  0
 30 31  1  0
 30 32  2  0
 32 33  1  0
 32  2  1  0
 12  7  1  0
 29 13  1  0
 29 20  1  0
M  END
>  <cnnaffinity>  (1) 
-4.83332

>  <filename>  (1) 
c1cncc(-n2cnnc2-c2cccc3ccccc23)c1

$$$$
