
     RDKit          3D

 37 40  0  0  0  0  0  0  0  0999 V2000
    4.9610    1.7921   16.9974 H   0  0  0  0  0  0  0  0  0  0  0  0
    5.4129    1.2791   17.8426 C   0  0  0  0  0  0  0  0  0  0  0  0
    6.5741    0.6483   17.6018 N   0  0  0  0  0  0  0  0  0  0  0  0
    7.1782    0.0439   18.6304 C   0  0  0  0  0  0  0  0  0  0  0  0
    8.1275   -0.4410   18.3980 H   0  0  0  0  0  0  0  0  0  0  0  0
    6.6602    0.0364   19.9413 C   0  0  0  0  0  0  0  0  0  0  0  0
    7.3519   -0.6447   20.9903 N   0  0  0  0  0  0  0  0  0  0  0  0
    7.6807   -1.9805   20.9192 C   0  0  0  0  0  0  0  0  0  0  0  0
    7.2436   -2.5697   20.1299 H   0  0  0  0  0  0  0  0  0  0  0  0
    8.4256   -2.3156   22.0196 C   0  0  0  0  0  0  0  0  0  0  0  0
    8.8880   -3.2688   22.2369 H   0  0  0  0  0  0  0  0  0  0  0  0
    8.5154   -1.1480   22.8207 C   0  0  0  0  0  0  0  0  0  0  0  0
    8.9614   -1.0980   23.8053 H   0  0  0  0  0  0  0  0  0  0  0  0
    7.8517   -0.1266   22.1806 C   0  0  0  0  0  0  0  0  0  0  0  0
    7.5745    1.2676   22.6680 C   0  0  0  0  0  0  0  0  0  0  0  0
    7.4681    1.9260   21.7938 H   0  0  0  0  0  0  0  0  0  0  0  0
    8.4658    1.6230   23.2091 H   0  0  0  0  0  0  0  0  0  0  0  0
    6.3623    1.4354   23.5889 C   0  0  0  0  0  0  0  0  0  0  0  0
    5.6716    0.3729   24.1208 C   0  0  0  0  0  0  0  0  0  0  0  0
    5.9888   -0.6504   23.9215 H   0  0  0  0  0  0  0  0  0  0  0  0
    4.5517    0.4649   24.8946 N   0  0  0  0  0  0  0  0  0  0  0  0
    4.1122    1.6674   25.1867 C   0  0  0  0  0  0  0  0  0  0  0  0
    3.1880    1.7149   25.7598 H   0  0  0  0  0  0  0  0  0  0  0  0
    4.7710    2.8788   24.8041 C   0  0  0  0  0  0  0  0  0  0  0  0
    4.3574    4.1760   25.2474 C   0  0  0  0  0  0  0  0  0  0  0  0
    3.4773    4.2761   25.8782 H   0  0  0  0  0  0  0  0  0  0  0  0
    5.0866    5.2968   24.9123 C   0  0  0  0  0  0  0  0  0  0  0  0
    4.7866    6.2800   25.2712 H   0  0  0  0  0  0  0  0  0  0  0  0
    6.2460    5.1772   24.1035 C   0  0  0  0  0  0  0  0  0  0  0  0
    6.8191    6.0662   23.8449 H   0  0  0  0  0  0  0  0  0  0  0  0
    6.6521    3.9426   23.6461 C   0  0  0  0  0  0  0  0  0  0  0  0
    7.5442    3.8540   23.0336 H   0  0  0  0  0  0  0  0  0  0  0  0
    5.9364    2.7553   23.9838 C   0  0  0  0  0  0  0  0  0  0  0  0
    5.4339    0.6762   20.1732 C   0  0  0  0  0  0  0  0  0  0  0  0
    5.0075    0.6749   21.1787 H   0  0  0  0  0  0  0  0  0  0  0  0
    4.7998    1.3064   19.0989 C   0  0  0  0  0  0  0  0  0  0  0  0
    3.8617    1.8367   19.2356 H   0  0  0  0  0  0  0  0  0  0  0  0
  1  2  1  0
  2  3  2  0
  3  4  1  0
  4  5  1  0
  4  6  2  0
  6  7  1  0
  7  8  1  0
  8  9  1  0
  8 10  2  0
 10 11  1  0
 10 12  1  0
 12 13  1  0
 12 14  2  0
 14 15  1  0
 15 16  1  0
 15 17  1  0
 15 18  1  0
 18 19  2  0
 19 20  1  0
 19 21  1  0
 21 22  2  0
 22 23  1  0
 22 24  1  0
 24 25  2  0
 25 26  1  0
 25 27  1  0
 27 28  1  0
 27 29  2  0
 29 30  1  0
 29 31  1  0
 31 32  1  0
 31 33  2  0
  6 34  1  0
 34 35  1  0
 34 36  2  0
 36 37  1  0
 36  2  1  0
 14  7  1  0
 33 18  1  0
 33 24  1  0
M  END
>  <cnnaffinity>  (1) 
-5.55055

>  <filename>  (1) 
c1cncc(-n2cccc2Cc2cncc3ccccc23)c1

$$$$
