
     RDKit          3D

 28 30  0  0  0  0  0  0  0  0999 V2000
    5.2125    1.8490   17.0775 H   0  0  0  0  0  0  0  0  0  0  0  0
    5.5825    1.1832   17.8563 C   0  0  0  0  0  0  0  0  0  0  0  0
    6.6978    0.4923   17.5761 N   0  0  0  0  0  0  0  0  0  0  0  0
    7.1951   -0.3159   18.5295 C   0  0  0  0  0  0  0  0  0  0  0  0
    8.1279   -0.8288   18.2979 H   0  0  0  0  0  0  0  0  0  0  0  0
    6.5724   -0.4950   19.7802 C   0  0  0  0  0  0  0  0  0  0  0  0
    7.0469   -1.3036   20.7841 O   0  0  0  0  0  0  0  0  0  0  0  0
    8.4090   -1.3682   20.9836 C   0  0  0  0  0  0  0  0  0  0  0  0
    9.0938   -2.5406   21.3255 C   0  0  0  0  0  0  0  0  0  0  0  0
    8.6608   -3.5155   21.5026 H   0  0  0  0  0  0  0  0  0  0  0  0
   10.4026   -2.3384   21.3993 N   0  0  0  0  0  0  0  0  0  0  0  0
   10.5504   -1.0268   21.1446 N   0  0  0  0  0  0  0  0  0  0  0  0
   11.4629   -0.6363   20.9875 H   0  0  0  0  0  0  0  0  0  0  0  0
    9.3775   -0.3751   20.9316 C   0  0  0  0  0  0  0  0  0  0  0  0
    9.2866    0.9947   20.8307 N   0  0  0  0  0  0  0  0  0  0  0  0
    8.1325    1.6800   21.4345 C   0  0  0  0  0  0  0  0  0  0  0  0
    7.3898    2.0274   20.7021 H   0  0  0  0  0  0  0  0  0  0  0  0
    7.6281    1.0654   22.1937 H   0  0  0  0  0  0  0  0  0  0  0  0
    9.0804    2.7440   22.0142 C   0  0  0  0  0  0  0  0  0  0  0  0
    8.8996    3.7387   21.6045 H   0  0  0  0  0  0  0  0  0  0  0  0
    9.0969    2.8135   23.1052 H   0  0  0  0  0  0  0  0  0  0  0  0
   10.2514    1.9375   21.4166 C   0  0  0  0  0  0  0  0  0  0  0  0
   10.8363    2.4373   20.6415 H   0  0  0  0  0  0  0  0  0  0  0  0
   10.9178    1.4810   22.1661 H   0  0  0  0  0  0  0  0  0  0  0  0
    5.3898    0.1961   20.0467 C   0  0  0  0  0  0  0  0  0  0  0  0
    4.9160    0.0553   21.0178 H   0  0  0  0  0  0  0  0  0  0  0  0
    4.9060    1.0745   19.0788 C   0  0  0  0  0  0  0  0  0  0  0  0
    4.0341    1.6862   19.2685 H   0  0  0  0  0  0  0  0  0  0  0  0
  1  2  1  0
  2  3  2  0
  3  4  1  0
  4  5  1  0
  4  6  2  0
  6  7  1  0
  7  8  1  0
  8  9  1  0
  9 10  1  0
  9 11  2  0
 11 12  1  0
 12 13  1  0
 12 14  1  0
 14 15  1  0
 15 16  1  0
 16 17  1  0
 16 18  1  0
 16 19  1  0
 19 20  1  0
 19 21  1  0
 19 22  1  0
 22 23  1  0
 22 24  1  0
  6 25  1  0
 25 26  1  0
 25 27  2  0
 27 28  1  0
 27  2  1  0
 14  8  2  0
 22 15  1  0
M  END
>  <cnnaffinity>  (1) 
-4.95667

>  <filename>  (1) 
c1cncc(Oc2cn[nH]c2N2CCC2)c1

$$$$
