
     RDKit          3D

 36 39  0  0  0  0  0  0  0  0999 V2000
    4.9239    1.7776   17.0016 H   0  0  0  0  0  0  0  0  0  0  0  0
    5.4089    1.2879   17.8456 C   0  0  0  0  0  0  0  0  0  0  0  0
    6.5744    0.6735   17.5892 N   0  0  0  0  0  0  0  0  0  0  0  0
    7.1680    0.0333   18.6004 C   0  0  0  0  0  0  0  0  0  0  0  0
    8.1214   -0.4381   18.3703 H   0  0  0  0  0  0  0  0  0  0  0  0
    6.6476   -0.0241   19.8963 C   0  0  0  0  0  0  0  0  0  0  0  0
    7.4123   -0.7337   20.9513 C   0  0  0  0  0  0  0  0  0  0  0  0
    7.7654   -1.9995   20.6737 N   0  0  0  0  0  0  0  0  0  0  0  0
    8.3813   -2.7014   21.6292 C   0  0  0  0  0  0  0  0  0  0  0  0
    8.6369   -3.7235   21.3752 H   0  0  0  0  0  0  0  0  0  0  0  0
    8.7178   -2.1860   22.8834 C   0  0  0  0  0  0  0  0  0  0  0  0
    9.2389   -2.7978   23.6079 H   0  0  0  0  0  0  0  0  0  0  0  0
    8.3844   -0.8671   23.1684 C   0  0  0  0  0  0  0  0  0  0  0  0
    8.6210   -0.4047   24.1290 H   0  0  0  0  0  0  0  0  0  0  0  0
    7.7196   -0.1123   22.1909 C   0  0  0  0  0  0  0  0  0  0  0  0
    7.4442    1.3306   22.4590 C   0  0  0  0  0  0  0  0  0  0  0  0
    8.1111    2.2886   21.7137 C   0  0  0  0  0  0  0  0  0  0  0  0
    8.8098    1.9679   20.9443 H   0  0  0  0  0  0  0  0  0  0  0  0
    7.9090    3.6723   21.9554 C   0  0  0  0  0  0  0  0  0  0  0  0
    8.4499    4.4083   21.3673 H   0  0  0  0  0  0  0  0  0  0  0  0
    7.0202    4.0891   22.9173 C   0  0  0  0  0  0  0  0  0  0  0  0
    6.8542    5.1507   23.1009 H   0  0  0  0  0  0  0  0  0  0  0  0
    6.2906    3.1383   23.6912 C   0  0  0  0  0  0  0  0  0  0  0  0
    5.3564    3.5547   24.6884 C   0  0  0  0  0  0  0  0  0  0  0  0
    5.2253    4.6244   24.8510 H   0  0  0  0  0  0  0  0  0  0  0  0
    4.6415    2.6356   25.4172 C   0  0  0  0  0  0  0  0  0  0  0  0
    3.9344    2.9648   26.1755 H   0  0  0  0  0  0  0  0  0  0  0  0
    4.8178    1.2432   25.1848 C   0  0  0  0  0  0  0  0  0  0  0  0
    4.2449    0.5213   25.7616 H   0  0  0  0  0  0  0  0  0  0  0  0
    5.7141    0.8063   24.2353 C   0  0  0  0  0  0  0  0  0  0  0  0
    5.8435   -0.2597   24.0529 H   0  0  0  0  0  0  0  0  0  0  0  0
    6.4963    1.7339   23.4691 C   0  0  0  0  0  0  0  0  0  0  0  0
    5.4411    0.6432   20.1615 C   0  0  0  0  0  0  0  0  0  0  0  0
    5.0159    0.6496   21.1729 H   0  0  0  0  0  0  0  0  0  0  0  0
    4.8074    1.3016   19.1093 C   0  0  0  0  0  0  0  0  0  0  0  0
    3.8772    1.8405   19.2592 H   0  0  0  0  0  0  0  0  0  0  0  0
  1  2  1  0
  2  3  2  0
  3  4  1  0
  4  5  1  0
  4  6  2  0
  6  7  1  0
  7  8  2  0
  8  9  1  0
  9 10  1  0
  9 11  2  0
 11 12  1  0
 11 13  1  0
 13 14  1  0
 13 15  2  0
 15 16  1  0
 16 17  2  0
 17 18  1  0
 17 19  1  0
 19 20  1  0
 19 21  2  0
 21 22  1  0
 21 23  1  0
 23 24  2  0
 24 25  1  0
 24 26  1  0
 26 27  1  0
 26 28  2  0
 28 29  1  0
 28 30  1  0
 30 31  1  0
 30 32  2  0
  6 33  1  0
 33 34  1  0
 33 35  2  0
 35 36  1  0
 35  2  1  0
 15  7  1  0
 32 16  1  0
 32 23  1  0
M  END
>  <cnnaffinity>  (1) 
-4.93843

>  <filename>  (1) 
c1cncc(-c2ncccc2-c2cccc3ccccc23)c1

$$$$
