
     RDKit          3D

 41 45  0  0  0  0  0  0  0  0999 V2000
    4.9960    1.8308   17.0206 H   0  0  0  0  0  0  0  0  0  0  0  0
    5.4953    1.3053   17.8303 C   0  0  0  0  0  0  0  0  0  0  0  0
    6.6565    0.7057   17.5222 N   0  0  0  0  0  0  0  0  0  0  0  0
    7.2946    0.0420   18.4942 C   0  0  0  0  0  0  0  0  0  0  0  0
    8.2334   -0.4314   18.2054 H   0  0  0  0  0  0  0  0  0  0  0  0
    6.8018   -0.0847   19.8086 C   0  0  0  0  0  0  0  0  0  0  0  0
    7.4760   -0.8959   20.7675 N   0  0  0  0  0  0  0  0  0  0  0  0
    8.8324   -0.8535   21.0870 C   0  0  0  0  0  0  0  0  0  0  0  0
    9.4782   -0.1489   20.5895 H   0  0  0  0  0  0  0  0  0  0  0  0
    9.0974   -1.7564   22.0678 C   0  0  0  0  0  0  0  0  0  0  0  0
    9.9843   -1.9917   22.6246 H   0  0  0  0  0  0  0  0  0  0  0  0
    7.9047   -2.3913   22.3370 N   0  0  0  0  0  0  0  0  0  0  0  0
    7.5138   -3.3768   23.1912 N   0  0  0  0  0  0  0  0  0  0  0  0
    6.2041   -3.4505   22.9281 C   0  0  0  0  0  0  0  0  0  0  0  0
    5.3467   -4.3207   23.5593 N   0  0  0  0  0  0  0  0  0  0  0  0
    3.9287   -4.0300   23.4183 C   0  0  0  0  0  0  0  0  0  0  0  0
    3.6990   -3.9873   22.3447 H   0  0  0  0  0  0  0  0  0  0  0  0
    3.6873   -3.0393   23.8380 H   0  0  0  0  0  0  0  0  0  0  0  0
    2.9691   -5.0317   24.0155 C   0  0  0  0  0  0  0  0  0  0  0  0
    1.6055   -4.7096   24.0669 C   0  0  0  0  0  0  0  0  0  0  0  0
    1.2666   -3.7385   23.7075 H   0  0  0  0  0  0  0  0  0  0  0  0
    0.6792   -5.6299   24.5579 C   0  0  0  0  0  0  0  0  0  0  0  0
   -0.3795   -5.3729   24.5891 H   0  0  0  0  0  0  0  0  0  0  0  0
    1.1265   -6.8810   25.0054 C   0  0  0  0  0  0  0  0  0  0  0  0
    0.4171   -7.6058   25.3982 H   0  0  0  0  0  0  0  0  0  0  0  0
    2.4887   -7.2039   24.9483 C   0  0  0  0  0  0  0  0  0  0  0  0
    2.8466   -8.1681   25.3061 H   0  0  0  0  0  0  0  0  0  0  0  0
    3.4213   -6.2870   24.4473 C   0  0  0  0  0  0  0  0  0  0  0  0
    4.9054   -6.5834   24.3121 C   0  0  0  0  0  0  0  0  0  0  0  0
    5.2057   -7.3729   25.0059 H   0  0  0  0  0  0  0  0  0  0  0  0
    5.1022   -6.9162   23.2851 H   0  0  0  0  0  0  0  0  0  0  0  0
    5.7501   -5.3198   24.5369 C   0  0  0  0  0  0  0  0  0  0  0  0
    5.5710   -4.9397   25.5553 H   0  0  0  0  0  0  0  0  0  0  0  0
    6.8206   -5.5187   24.4363 H   0  0  0  0  0  0  0  0  0  0  0  0
    5.7716   -2.5713   21.9030 C   0  0  0  0  0  0  0  0  0  0  0  0
    4.7701   -2.4683   21.5647 H   0  0  0  0  0  0  0  0  0  0  0  0
    6.9142   -1.8787   21.5731 C   0  0  0  0  0  0  0  0  0  0  0  0
    5.6081    0.5867   20.1285 C   0  0  0  0  0  0  0  0  0  0  0  0
    5.2312    0.5871   21.1520 H   0  0  0  0  0  0  0  0  0  0  0  0
    4.9412    1.2805   19.1150 C   0  0  0  0  0  0  0  0  0  0  0  0
    4.0154    1.8127   19.3118 H   0  0  0  0  0  0  0  0  0  0  0  0
  1  2  1  0
  2  3  2  0
  3  4  1  0
  4  5  1  0
  4  6  2  0
  6  7  1  0
  7  8  1  0
  8  9  1  0
  8 10  2  0
 10 11  1  0
 10 12  1  0
 12 13  1  0
 13 14  2  0
 14 15  1  0
 15 16  1  0
 16 17  1  0
 16 18  1  0
 16 19  1  0
 19 20  2  0
 20 21  1  0
 20 22  1  0
 22 23  1  0
 22 24  2  0
 24 25  1  0
 24 26  1  0
 26 27  1  0
 26 28  2  0
 28 29  1  0
 29 30  1  0
 29 31  1  0
 29 32  1  0
 32 33  1  0
 32 34  1  0
 14 35  1  0
 35 36  1  0
 35 37  2  0
  6 38  1  0
 38 39  1  0
 38 40  2  0
 40 41  1  0
 40  2  1  0
 37  7  1  0
 37 12  1  0
 32 15  1  0
 28 19  1  0
M  END
>  <cnnaffinity>  (1) 
-5.56129

>  <filename>  (1) 
c1cncc(-n2ccn3nc(N4CCc5ccccc5C4)cc23)c1

$$$$
