
     RDKit          3D

 30 33  0  0  0  0  0  0  0  0999 V2000
    4.9498    1.7902   16.9385 H   0  0  0  0  0  0  0  0  0  0  0  0
    5.4024    1.2992   17.8019 C   0  0  0  0  0  0  0  0  0  0  0  0
    6.5648    0.6694   17.5777 N   0  0  0  0  0  0  0  0  0  0  0  0
    7.1501    0.0854   18.6297 C   0  0  0  0  0  0  0  0  0  0  0  0
    8.0942   -0.4057   18.4111 H   0  0  0  0  0  0  0  0  0  0  0  0
    6.6434    0.0905   19.9446 C   0  0  0  0  0  0  0  0  0  0  0  0
    7.4255   -0.5853   21.0071 C   0  0  0  0  0  0  0  0  0  0  0  0
    8.3024   -1.5980   20.8442 C   0  0  0  0  0  0  0  0  0  0  0  0
    8.7149   -1.9356   19.9128 H   0  0  0  0  0  0  0  0  0  0  0  0
    8.8715   -2.2812   22.3444 S   0  0  0  0  0  0  0  0  0  0  0  0
    8.0611   -1.0153   23.2092 C   0  0  0  0  0  0  0  0  0  0  0  0
    8.0894   -0.4998   24.4186 N   0  0  0  0  0  0  0  0  0  0  0  0
    7.3369    0.6281   24.2518 C   0  0  0  0  0  0  0  0  0  0  0  0
    7.1069    1.5895   25.3650 C   0  0  0  0  0  0  0  0  0  0  0  0
    6.4644    2.3862   24.9775 H   0  0  0  0  0  0  0  0  0  0  0  0
    6.6271    0.9364   26.7017 C   0  0  0  0  0  0  0  0  0  0  0  0
    6.5188   -0.1524   26.6353 H   0  0  0  0  0  0  0  0  0  0  0  0
    5.7019    1.3454   27.1158 H   0  0  0  0  0  0  0  0  0  0  0  0
    7.9232    1.4014   27.3989 C   0  0  0  0  0  0  0  0  0  0  0  0
    7.8022    2.0463   28.2769 H   0  0  0  0  0  0  0  0  0  0  0  0
    8.5639    0.5680   27.6928 H   0  0  0  0  0  0  0  0  0  0  0  0
    8.3956    2.0935   26.1014 C   0  0  0  0  0  0  0  0  0  0  0  0
    9.3259    1.6925   25.6815 H   0  0  0  0  0  0  0  0  0  0  0  0
    8.4961    3.1805   26.1725 H   0  0  0  0  0  0  0  0  0  0  0  0
    6.8471    0.8228   23.0394 N   0  0  0  0  0  0  0  0  0  0  0  0
    7.3139   -0.2669   22.3667 N   0  0  0  0  0  0  0  0  0  0  0  0
    5.4044    0.7281   20.1524 C   0  0  0  0  0  0  0  0  0  0  0  0
    4.9610    0.7588   21.1498 H   0  0  0  0  0  0  0  0  0  0  0  0
    4.7822    1.3338   19.0554 C   0  0  0  0  0  0  0  0  0  0  0  0
    3.8345    1.8479   19.1612 H   0  0  0  0  0  0  0  0  0  0  0  0
  1  2  1  0
  2  3  2  0
  3  4  1  0
  4  5  1  0
  4  6  2  0
  6  7  1  0
  7  8  2  0
  8  9  1  0
  8 10  1  0
 10 11  1  0
 11 12  2  0
 12 13  1  0
 13 14  1  0
 14 15  1  0
 14 16  1  0
 16 17  1  0
 16 18  1  0
 16 19  1  0
 19 20  1  0
 19 21  1  0
 19 22  1  0
 22 23  1  0
 22 24  1  0
 13 25  2  0
 25 26  1  0
  6 27  1  0
 27 28  1  0
 27 29  2  0
 29 30  1  0
 29  2  1  0
 26  7  1  0
 26 11  1  0
 22 14  1  0
M  END
>  <cnnaffinity>  (1) 
-5.17571

>  <filename>  (1) 
c1cncc(-c2csc3nc(C4CCC4)nn23)c1

$$$$
