
     RDKit          3D

 37 41  0  0  0  0  0  0  0  0999 V2000
    4.9802    1.8390   16.9994 H   0  0  0  0  0  0  0  0  0  0  0  0
    5.5001    1.3232   17.8021 C   0  0  0  0  0  0  0  0  0  0  0  0
    6.6630    0.7366   17.4754 N   0  0  0  0  0  0  0  0  0  0  0  0
    7.3284    0.0766   18.4328 C   0  0  0  0  0  0  0  0  0  0  0  0
    8.2651   -0.3854   18.1185 H   0  0  0  0  0  0  0  0  0  0  0  0
    6.8564   -0.0530   19.7554 C   0  0  0  0  0  0  0  0  0  0  0  0
    7.5187   -0.8771   20.7106 N   0  0  0  0  0  0  0  0  0  0  0  0
    8.8638   -0.8239   21.0733 C   0  0  0  0  0  0  0  0  0  0  0  0
    9.5155   -0.1063   20.6023 H   0  0  0  0  0  0  0  0  0  0  0  0
    9.1044   -1.7204   22.0644 C   0  0  0  0  0  0  0  0  0  0  0  0
    9.9889   -1.9513   22.6306 H   0  0  0  0  0  0  0  0  0  0  0  0
    7.8995   -2.3591   22.3065 N   0  0  0  0  0  0  0  0  0  0  0  0
    7.4831   -3.3299   23.1536 N   0  0  0  0  0  0  0  0  0  0  0  0
    6.1695   -3.4277   22.8557 C   0  0  0  0  0  0  0  0  0  0  0  0
    5.1619   -4.3670   23.4891 C   0  0  0  0  0  0  0  0  0  0  0  0
    3.9099   -4.2719   23.0489 N   0  0  0  0  0  0  0  0  0  0  0  0
    2.9577   -5.1150   23.5461 C   0  0  0  0  0  0  0  0  0  0  0  0
    1.6103   -4.9679   23.0867 C   0  0  0  0  0  0  0  0  0  0  0  0
    1.4116   -4.1977   22.3550 H   0  0  0  0  0  0  0  0  0  0  0  0
    0.6096   -5.7905   23.5484 C   0  0  0  0  0  0  0  0  0  0  0  0
   -0.4208   -5.6424   23.2188 H   0  0  0  0  0  0  0  0  0  0  0  0
    0.9209   -6.8369   24.4634 C   0  0  0  0  0  0  0  0  0  0  0  0
    0.1186   -7.4843   24.8038 H   0  0  0  0  0  0  0  0  0  0  0  0
    2.2078   -7.0177   24.9198 C   0  0  0  0  0  0  0  0  0  0  0  0
    2.4396   -7.8146   25.6257 H   0  0  0  0  0  0  0  0  0  0  0  0
    3.2548   -6.1415   24.4978 C   0  0  0  0  0  0  0  0  0  0  0  0
    4.5999   -6.2095   24.9753 C   0  0  0  0  0  0  0  0  0  0  0  0
    4.8674   -6.9687   25.7139 H   0  0  0  0  0  0  0  0  0  0  0  0
    5.5373   -5.3304   24.4927 C   0  0  0  0  0  0  0  0  0  0  0  0
    6.5594   -5.3227   24.8575 H   0  0  0  0  0  0  0  0  0  0  0  0
    5.7782   -2.5415   21.8297 C   0  0  0  0  0  0  0  0  0  0  0  0
    4.7573   -2.4774   21.5242 H   0  0  0  0  0  0  0  0  0  0  0  0
    6.9310   -1.8512   21.5098 C   0  0  0  0  0  0  0  0  0  0  0  0
    5.6701    0.6207   20.0952 C   0  0  0  0  0  0  0  0  0  0  0  0
    5.3224    0.6203   21.1273 H   0  0  0  0  0  0  0  0  0  0  0  0
    4.9715    1.3025   19.0965 C   0  0  0  0  0  0  0  0  0  0  0  0
    4.0422    1.8232   19.3115 H   0  0  0  0  0  0  0  0  0  0  0  0
  1  2  1  0
  2  3  2  0
  3  4  1  0
  4  5  1  0
  4  6  2  0
  6  7  1  0
  7  8  1  0
  8  9  1  0
  8 10  2  0
 10 11  1  0
 10 12  1  0
 12 13  1  0
 13 14  2  0
 14 15  1  0
 15 16  2  0
 16 17  1  0
 17 18  2  0
 18 19  1  0
 18 20  1  0
 20 21  1  0
 20 22  2  0
 22 23  1  0
 22 24  1  0
 24 25  1  0
 24 26  2  0
 26 27  1  0
 27 28  1  0
 27 29  2  0
 29 30  1  0
 14 31  1  0
 31 32  1  0
 31 33  2  0
  6 34  1  0
 34 35  1  0
 34 36  2  0
 36 37  1  0
 36  2  1  0
 33  7  1  0
 33 12  1  0
 29 15  1  0
 26 17  1  0
M  END
>  <cnnaffinity>  (1) 
-5.78937

>  <filename>  (1) 
c1cncc(-n2ccn3nc(-c4ccc5ccccc5n4)cc23)c1

$$$$
