
     RDKit          3D

 28 30  0  0  0  0  0  0  0  0999 V2000
    4.9396    1.7885   17.0122 H   0  0  0  0  0  0  0  0  0  0  0  0
    5.4197    1.2802   17.8419 C   0  0  0  0  0  0  0  0  0  0  0  0
    6.5815    0.6667   17.5598 N   0  0  0  0  0  0  0  0  0  0  0  0
    7.2122    0.0551   18.5657 C   0  0  0  0  0  0  0  0  0  0  0  0
    8.1570   -0.4428   18.3618 H   0  0  0  0  0  0  0  0  0  0  0  0
    6.7152    0.0200   19.8828 C   0  0  0  0  0  0  0  0  0  0  0  0
    7.3241   -0.6459   20.9851 N   0  0  0  0  0  0  0  0  0  0  0  0
    8.4055   -1.2258   20.7398 N   0  0  0  0  0  0  0  0  0  0  0  0
    9.0109   -1.9027   21.8354 C   0  0  0  0  0  0  0  0  0  0  0  0
   10.3855   -1.8437   21.8539 C   0  0  0  0  0  0  0  0  0  0  0  0
   10.8842   -1.2834   21.0721 H   0  0  0  0  0  0  0  0  0  0  0  0
   11.1379   -2.4832   22.8617 C   0  0  0  0  0  0  0  0  0  0  0  0
   12.2208   -2.4561   22.7629 H   0  0  0  0  0  0  0  0  0  0  0  0
   10.4974   -3.1386   23.8942 C   0  0  0  0  0  0  0  0  0  0  0  0
   11.0028   -3.5865   24.7440 H   0  0  0  0  0  0  0  0  0  0  0  0
    9.0847   -3.2741   23.8884 C   0  0  0  0  0  0  0  0  0  0  0  0
    8.5095   -3.9862   24.9096 N   0  0  0  0  0  0  0  0  0  0  0  0
    7.2159   -4.1993   24.8659 C   0  0  0  0  0  0  0  0  0  0  0  0
    6.7873   -4.7661   25.6952 H   0  0  0  0  0  0  0  0  0  0  0  0
    6.3776   -3.7386   23.8131 C   0  0  0  0  0  0  0  0  0  0  0  0
    5.3157   -3.9360   23.8506 H   0  0  0  0  0  0  0  0  0  0  0  0
    6.9290   -3.0008   22.7967 C   0  0  0  0  0  0  0  0  0  0  0  0
    6.3507   -2.5953   21.9735 H   0  0  0  0  0  0  0  0  0  0  0  0
    8.3241   -2.7029   22.8123 C   0  0  0  0  0  0  0  0  0  0  0  0
    5.4920    0.6434   20.1607 C   0  0  0  0  0  0  0  0  0  0  0  0
    5.0994    0.5950   21.1781 H   0  0  0  0  0  0  0  0  0  0  0  0
    4.8373    1.2910   19.1170 C   0  0  0  0  0  0  0  0  0  0  0  0
    3.8998    1.8123   19.2745 H   0  0  0  0  0  0  0  0  0  0  0  0
  1  2  1  0
  2  3  2  0
  3  4  1  0
  4  5  1  0
  4  6  2  0
  6  7  1  0
  7  8  2  3
  8  9  1  0
  9 10  2  0
 10 11  1  0
 10 12  1  0
 12 13  1  0
 12 14  2  0
 14 15  1  0
 14 16  1  0
 16 17  2  0
 17 18  1  0
 18 19  1  0
 18 20  2  0
 20 21  1  0
 20 22  1  0
 22 23  1  0
 22 24  2  0
  6 25  1  0
 25 26  1  0
 25 27  2  0
 27 28  1  0
 27  2  1  0
 24  9  1  0
 24 16  1  0
M  END
>  <cnnaffinity>  (1) 
-5.1191

>  <filename>  (1) 
c1cncc(N=Nc2cccc3ncccc23)c1

$$$$
