
     RDKit          3D

 31 34  0  0  0  0  0  0  0  0999 V2000
    4.9155    1.7764   17.0025 H   0  0  0  0  0  0  0  0  0  0  0  0
    5.4044    1.2907   17.8441 C   0  0  0  0  0  0  0  0  0  0  0  0
    6.5705    0.6794   17.5803 N   0  0  0  0  0  0  0  0  0  0  0  0
    7.1735    0.0513   18.5913 C   0  0  0  0  0  0  0  0  0  0  0  0
    8.1232   -0.4360   18.3775 H   0  0  0  0  0  0  0  0  0  0  0  0
    6.6513    0.0014   19.8936 C   0  0  0  0  0  0  0  0  0  0  0  0
    7.3881   -0.7006   20.9474 C   0  0  0  0  0  0  0  0  0  0  0  0
    8.0164   -1.8851   20.6889 N   0  0  0  0  0  0  0  0  0  0  0  0
    8.5933   -2.4169   21.6903 N   0  0  0  0  0  0  0  0  0  0  0  0
    8.4294   -1.4663   23.0789 S   0  0  0  0  0  0  0  0  0  0  0  0
    7.5123   -0.2690   22.2678 C   0  0  0  0  0  0  0  0  0  0  0  0
    7.1181    1.0238   22.8409 C   0  0  0  0  0  0  0  0  0  0  0  0
    7.5612    2.2157   22.2670 C   0  0  0  0  0  0  0  0  0  0  0  0
    8.1688    2.1690   21.3706 H   0  0  0  0  0  0  0  0  0  0  0  0
    7.3038    3.4608   22.7455 N   0  0  0  0  0  0  0  0  0  0  0  0
    6.5676    3.5498   23.8333 C   0  0  0  0  0  0  0  0  0  0  0  0
    6.3612    4.5463   24.2226 H   0  0  0  0  0  0  0  0  0  0  0  0
    6.0282    2.4315   24.5357 C   0  0  0  0  0  0  0  0  0  0  0  0
    5.2273    2.5777   25.7126 C   0  0  0  0  0  0  0  0  0  0  0  0
    5.0279    3.5761   26.1047 H   0  0  0  0  0  0  0  0  0  0  0  0
    4.7101    1.4685   26.3352 C   0  0  0  0  0  0  0  0  0  0  0  0
    4.0994    1.5732   27.2300 H   0  0  0  0  0  0  0  0  0  0  0  0
    4.9590    0.1699   25.8208 C   0  0  0  0  0  0  0  0  0  0  0  0
    4.5379   -0.7008   26.3118 H   0  0  0  0  0  0  0  0  0  0  0  0
    5.7371    0.0052   24.6916 C   0  0  0  0  0  0  0  0  0  0  0  0
    5.9094   -0.9843   24.2801 H   0  0  0  0  0  0  0  0  0  0  0  0
    6.3031    1.1254   24.0238 C   0  0  0  0  0  0  0  0  0  0  0  0
    5.4366    0.6488   20.1586 C   0  0  0  0  0  0  0  0  0  0  0  0
    5.0149    0.6346   21.1692 H   0  0  0  0  0  0  0  0  0  0  0  0
    4.8035    1.3076   19.1085 C   0  0  0  0  0  0  0  0  0  0  0  0
    3.8736    1.8444   19.2609 H   0  0  0  0  0  0  0  0  0  0  0  0
  1  2  1  0
  2  3  2  0
  3  4  1  0
  4  5  1  0
  4  6  2  0
  6  7  1  0
  7  8  1  0
  8  9  2  0
  9 10  1  0
 10 11  1  0
 11 12  1  0
 12 13  2  0
 13 14  1  0
 13 15  1  0
 15 16  2  0
 16 17  1  0
 16 18  1  0
 18 19  2  0
 19 20  1  0
 19 21  1  0
 21 22  1  0
 21 23  2  0
 23 24  1  0
 23 25  1  0
 25 26  1  0
 25 27  2  0
  6 28  1  0
 28 29  1  0
 28 30  2  0
 30 31  1  0
 30  2  1  0
 11  7  2  0
 27 12  1  0
 27 18  1  0
M  END
>  <cnnaffinity>  (1) 
-5.00584

>  <filename>  (1) 
c1cncc(-c2nnsc2-c2cncc3ccccc23)c1

$$$$
