
     RDKit          3D

 31 33  0  0  0  0  0  0  0  0999 V2000
    4.9187    1.7846   17.0017 H   0  0  0  0  0  0  0  0  0  0  0  0
    5.4109    1.2883   17.8394 C   0  0  0  0  0  0  0  0  0  0  0  0
    6.5741    0.6736   17.5714 N   0  0  0  0  0  0  0  0  0  0  0  0
    7.2038    0.0534   18.5837 C   0  0  0  0  0  0  0  0  0  0  0  0
    8.1439   -0.4384   18.3523 H   0  0  0  0  0  0  0  0  0  0  0  0
    6.6773   -0.0039   19.8829 C   0  0  0  0  0  0  0  0  0  0  0  0
    7.2566   -0.6790   20.9726 O   0  0  0  0  0  0  0  0  0  0  0  0
    8.5078   -1.2223   20.7381 N   0  0  0  0  0  0  0  0  0  0  0  0
    9.5556   -0.2037   21.1143 C   0  0  0  0  0  0  0  0  0  0  0  0
   10.5308   -0.6191   20.8006 H   0  0  0  0  0  0  0  0  0  0  0  0
    9.4093    0.7011   20.5104 H   0  0  0  0  0  0  0  0  0  0  0  0
    9.6085    0.1611   22.6030 C   0  0  0  0  0  0  0  0  0  0  0  0
   10.2130    1.3597   23.0137 C   0  0  0  0  0  0  0  0  0  0  0  0
   10.6209    2.0335   22.2601 H   0  0  0  0  0  0  0  0  0  0  0  0
   10.2787    1.6936   24.3704 C   0  0  0  0  0  0  0  0  0  0  0  0
   10.7462    2.6281   24.6726 H   0  0  0  0  0  0  0  0  0  0  0  0
    9.7453    0.8232   25.3306 C   0  0  0  0  0  0  0  0  0  0  0  0
    9.7859    1.0755   26.3878 H   0  0  0  0  0  0  0  0  0  0  0  0
    9.1468   -0.3754   24.9287 C   0  0  0  0  0  0  0  0  0  0  0  0
    8.7155   -1.0573   25.6618 H   0  0  0  0  0  0  0  0  0  0  0  0
    9.0667   -0.7140   23.5674 C   0  0  0  0  0  0  0  0  0  0  0  0
    8.3588   -1.9904   23.1317 C   0  0  0  0  0  0  0  0  0  0  0  0
    8.6449   -2.8182   23.7903 H   0  0  0  0  0  0  0  0  0  0  0  0
    7.2773   -1.8481   23.2432 H   0  0  0  0  0  0  0  0  0  0  0  0
    8.6241   -2.3902   21.6692 C   0  0  0  0  0  0  0  0  0  0  0  0
    7.9007   -3.1439   21.3345 H   0  0  0  0  0  0  0  0  0  0  0  0
    9.6401   -2.8016   21.5587 H   0  0  0  0  0  0  0  0  0  0  0  0
    5.4703    0.6188   20.1826 C   0  0  0  0  0  0  0  0  0  0  0  0
    5.0343    0.6108   21.1870 H   0  0  0  0  0  0  0  0  0  0  0  0
    4.8313    1.2877   19.1219 C   0  0  0  0  0  0  0  0  0  0  0  0
    3.8986    1.8212   19.2750 H   0  0  0  0  0  0  0  0  0  0  0  0
  1  2  1  0
  2  3  2  0
  3  4  1  0
  4  5  1  0
  4  6  2  0
  6  7  1  0
  7  8  1  0
  8  9  1  0
  9 10  1  0
  9 11  1  0
  9 12  1  0
 12 13  2  0
 13 14  1  0
 13 15  1  0
 15 16  1  0
 15 17  2  0
 17 18  1  0
 17 19  1  0
 19 20  1  0
 19 21  2  0
 21 22  1  0
 22 23  1  0
 22 24  1  0
 22 25  1  0
 25 26  1  0
 25 27  1  0
  6 28  1  0
 28 29  1  0
 28 30  2  0
 30 31  1  0
 30  2  1  0
 25  8  1  0
 21 12  1  0
M  END
>  <cnnaffinity>  (1) 
-4.69322

>  <filename>  (1) 
c1cncc(ON2CCc3ccccc3C2)c1

$$$$
