
     RDKit          3D

 30 32  0  0  0  0  0  0  0  0999 V2000
    4.9748    1.7884   16.9998 H   0  0  0  0  0  0  0  0  0  0  0  0
    5.4303    1.2814   17.8441 C   0  0  0  0  0  0  0  0  0  0  0  0
    6.5937    0.6550   17.6017 N   0  0  0  0  0  0  0  0  0  0  0  0
    7.1804    0.0063   18.6178 C   0  0  0  0  0  0  0  0  0  0  0  0
    8.1432   -0.4560   18.3893 H   0  0  0  0  0  0  0  0  0  0  0  0
    6.6311   -0.0684   19.9205 C   0  0  0  0  0  0  0  0  0  0  0  0
    7.1274   -0.8432   20.9825 N   0  0  0  0  0  0  0  0  0  0  0  0
    7.2174   -0.3035   21.8403 H   0  0  0  0  0  0  0  0  0  0  0  0
    8.2782   -1.6119   20.7291 N   0  0  0  0  0  0  0  0  0  0  0  0
    8.1305   -2.1955   19.9071 H   0  0  0  0  0  0  0  0  0  0  0  0
    8.8399   -2.3161   21.8381 C   0  0  0  0  0  0  0  0  0  0  0  0
   10.2158   -2.4313   21.8549 C   0  0  0  0  0  0  0  0  0  0  0  0
   10.7695   -2.0406   21.0013 H   0  0  0  0  0  0  0  0  0  0  0  0
   10.9486   -2.9795   22.8631 N   0  0  0  0  0  0  0  0  0  0  0  0
   10.2928   -3.4462   23.9039 C   0  0  0  0  0  0  0  0  0  0  0  0
   10.8799   -3.8811   24.7097 H   0  0  0  0  0  0  0  0  0  0  0  0
    8.8706   -3.4182   24.0378 C   0  0  0  0  0  0  0  0  0  0  0  0
    8.2069   -3.9026   25.2082 C   0  0  0  0  0  0  0  0  0  0  0  0
    8.7936   -4.3165   26.0235 H   0  0  0  0  0  0  0  0  0  0  0  0
    6.8384   -3.8458   25.3073 C   0  0  0  0  0  0  0  0  0  0  0  0
    6.3354   -4.1988   26.2037 H   0  0  0  0  0  0  0  0  0  0  0  0
    6.0667   -3.3236   24.2369 C   0  0  0  0  0  0  0  0  0  0  0  0
    4.9868   -3.2755   24.3360 H   0  0  0  0  0  0  0  0  0  0  0  0
    6.6697   -2.8594   23.0876 C   0  0  0  0  0  0  0  0  0  0  0  0
    6.0756   -2.4751   22.2679 H   0  0  0  0  0  0  0  0  0  0  0  0
    8.1009   -2.8634   22.9627 C   0  0  0  0  0  0  0  0  0  0  0  0
    5.4467    0.6479   20.1667 C   0  0  0  0  0  0  0  0  0  0  0  0
    5.0300    0.6501   21.1727 H   0  0  0  0  0  0  0  0  0  0  0  0
    4.8325    1.3082   19.1072 C   0  0  0  0  0  0  0  0  0  0  0  0
    3.9052    1.8458   19.2523 H   0  0  0  0  0  0  0  0  0  0  0  0
  1  2  1  0
  2  3  2  0
  3  4  1  0
  4  5  1  0
  4  6  2  0
  6  7  1  0
  7  8  1  0
  7  9  1  0
  9 10  1  0
  9 11  1  0
 11 12  2  0
 12 13  1  0
 12 14  1  0
 14 15  2  0
 15 16  1  0
 15 17  1  0
 17 18  2  0
 18 19  1  0
 18 20  1  0
 20 21  1  0
 20 22  2  0
 22 23  1  0
 22 24  1  0
 24 25  1  0
 24 26  2  0
  6 27  1  0
 27 28  1  0
 27 29  2  0
 29 30  1  0
 29  2  1  0
 26 11  1  0
 26 17  1  0
M  END
>  <cnnaffinity>  (1) 
-5.29874

>  <filename>  (1) 
c1cncc(NNc2cncc3ccccc23)c1

$$$$
