
     RDKit          3D

 35 38  0  0  0  0  0  0  0  0999 V2000
    5.3769    1.9652   16.8800 H   0  0  0  0  0  0  0  0  0  0  0  0
    5.5953    1.3590   17.7560 C   0  0  0  0  0  0  0  0  0  0  0  0
    6.6797    0.5757   17.6591 N   0  0  0  0  0  0  0  0  0  0  0  0
    6.9972   -0.1574   18.7301 C   0  0  0  0  0  0  0  0  0  0  0  0
    7.9064   -0.7502   18.6550 H   0  0  0  0  0  0  0  0  0  0  0  0
    6.2419   -0.2035   19.9289 C   0  0  0  0  0  0  0  0  0  0  0  0
    6.6760   -1.0709   21.0558 C   0  0  0  0  0  0  0  0  0  0  0  0
    5.9922   -2.0110   21.7424 C   0  0  0  0  0  0  0  0  0  0  0  0
    4.9530   -2.2881   21.6496 H   0  0  0  0  0  0  0  0  0  0  0  0
    6.9773   -2.9005   22.8814 S   0  0  0  0  0  0  0  0  0  0  0  0
    8.3637   -1.9765   22.4031 C   0  0  0  0  0  0  0  0  0  0  0  0
    9.6617   -1.9404   22.6371 N   0  0  0  0  0  0  0  0  0  0  0  0
   10.0625   -0.9266   21.8100 C   0  0  0  0  0  0  0  0  0  0  0  0
   11.4880   -0.4619   21.6497 C   0  0  0  0  0  0  0  0  0  0  0  0
   11.5151   -0.0129   20.6649 H   0  0  0  0  0  0  0  0  0  0  0  0
   11.9412    0.6687   22.6341 C   0  0  0  0  0  0  0  0  0  0  0  0
   11.9401    1.6204   22.0822 H   0  0  0  0  0  0  0  0  0  0  0  0
   11.2387    0.7780   23.4724 H   0  0  0  0  0  0  0  0  0  0  0  0
   13.3621    0.4241   23.1810 C   0  0  0  0  0  0  0  0  0  0  0  0
   13.7391    1.3341   23.6593 H   0  0  0  0  0  0  0  0  0  0  0  0
   13.3101   -0.3339   23.9653 H   0  0  0  0  0  0  0  0  0  0  0  0
   14.3164   -0.0397   22.1791 N   0  0  0  0  0  0  0  0  0  0  0  0
   14.4706    0.6929   21.4889 H   0  0  0  0  0  0  0  0  0  0  0  0
   13.9346   -1.2931   21.5103 C   0  0  0  0  0  0  0  0  0  0  0  0
   14.5055   -2.1399   21.9179 H   0  0  0  0  0  0  0  0  0  0  0  0
   14.2356   -1.2052   20.4608 H   0  0  0  0  0  0  0  0  0  0  0  0
   12.4437   -1.6685   21.6082 C   0  0  0  0  0  0  0  0  0  0  0  0
   12.1726   -2.2755   20.7417 H   0  0  0  0  0  0  0  0  0  0  0  0
   12.2694   -2.2902   22.4935 H   0  0  0  0  0  0  0  0  0  0  0  0
    9.1068   -0.3747   21.0800 N   0  0  0  0  0  0  0  0  0  0  0  0
    8.0107   -1.0680   21.4781 N   0  0  0  0  0  0  0  0  0  0  0  0
    5.0832    0.5898   19.9862 C   0  0  0  0  0  0  0  0  0  0  0  0
    4.4508    0.5990   20.8779 H   0  0  0  0  0  0  0  0  0  0  0  0
    4.7720    1.4004   18.8885 C   0  0  0  0  0  0  0  0  0  0  0  0
    3.9255    2.0785   18.8913 H   0  0  0  0  0  0  0  0  0  0  0  0
  1  2  1  0
  2  3  2  0
  3  4  1  0
  4  5  1  0
  4  6  2  0
  6  7  1  0
  7  8  2  0
  8  9  1  0
  8 10  1  0
 10 11  1  0
 11 12  2  0
 12 13  1  0
 13 14  1  0
 14 15  1  0
 14 16  1  0
 16 17  1  0
 16 18  1  0
 16 19  1  0
 19 20  1  0
 19 21  1  0
 19 22  1  0
 22 23  1  0
 22 24  1  0
 24 25  1  0
 24 26  1  0
 24 27  1  0
 27 28  1  0
 27 29  1  0
 13 30  2  0
 30 31  1  0
  6 32  1  0
 32 33  1  0
 32 34  2  0
 34 35  1  0
 34  2  1  0
 31  7  1  0
 31 11  1  0
 27 14  1  0
M  END
>  <cnnaffinity>  (1) 
-5.61196

>  <filename>  (1) 
c1cncc(-c2csc3nc(C4CCNCC4)nn23)c1

$$$$
