
     RDKit          3D

 28 30  0  0  0  0  0  0  0  0999 V2000
    4.9240    1.7806   16.9978 H   0  0  0  0  0  0  0  0  0  0  0  0
    5.4011    1.2902   17.8449 C   0  0  0  0  0  0  0  0  0  0  0  0
    6.5689    0.6725   17.5975 N   0  0  0  0  0  0  0  0  0  0  0  0
    7.1797    0.0535   18.6158 C   0  0  0  0  0  0  0  0  0  0  0  0
    8.1227   -0.4397   18.3966 H   0  0  0  0  0  0  0  0  0  0  0  0
    6.6583    0.0077   19.9224 C   0  0  0  0  0  0  0  0  0  0  0  0
    7.3735   -0.7093   20.8516 O   0  0  0  0  0  0  0  0  0  0  0  0
    7.2892   -0.3881   22.1914 C   0  0  0  0  0  0  0  0  0  0  0  0
    7.2794   -1.3286   23.2353 C   0  0  0  0  0  0  0  0  0  0  0  0
    7.3319   -2.4045   23.1554 H   0  0  0  0  0  0  0  0  0  0  0  0
    7.2375   -0.7488   24.4292 N   0  0  0  0  0  0  0  0  0  0  0  0
    7.2227    0.5709   24.1516 N   0  0  0  0  0  0  0  0  0  0  0  0
    7.2099    1.2564   24.8854 H   0  0  0  0  0  0  0  0  0  0  0  0
    7.2723    0.8437   22.8271 C   0  0  0  0  0  0  0  0  0  0  0  0
    7.3129    2.1179   22.3240 N   0  0  0  0  0  0  0  0  0  0  0  0
    7.4661    2.1962   21.3330 H   0  0  0  0  0  0  0  0  0  0  0  0
    7.1987    3.3113   23.0771 C   0  0  0  0  0  0  0  0  0  0  0  0
    6.2085    3.5116   23.4927 H   0  0  0  0  0  0  0  0  0  0  0  0
    8.4150    3.7471   23.8420 C   0  0  0  0  0  0  0  0  0  0  0  0
    8.2781    4.2347   24.8026 H   0  0  0  0  0  0  0  0  0  0  0  0
    9.2818    3.0947   23.7632 H   0  0  0  0  0  0  0  0  0  0  0  0
    7.9991    4.4785   22.5969 C   0  0  0  0  0  0  0  0  0  0  0  0
    7.5827    5.4779   22.6986 H   0  0  0  0  0  0  0  0  0  0  0  0
    8.5936    4.3528   21.6968 H   0  0  0  0  0  0  0  0  0  0  0  0
    5.4373    0.6409   20.1771 C   0  0  0  0  0  0  0  0  0  0  0  0
    5.0251    0.6319   21.1876 H   0  0  0  0  0  0  0  0  0  0  0  0
    4.8090    1.3020   19.1104 C   0  0  0  0  0  0  0  0  0  0  0  0
    3.8786    1.8372   19.2560 H   0  0  0  0  0  0  0  0  0  0  0  0
  1  2  1  0
  2  3  2  0
  3  4  1  0
  4  5  1  0
  4  6  2  0
  6  7  1  0
  7  8  1  0
  8  9  1  0
  9 10  1  0
  9 11  2  0
 11 12  1  0
 12 13  1  0
 12 14  1  0
 14 15  1  0
 15 16  1  0
 15 17  1  0
 17 18  1  0
 17 19  1  0
 19 20  1  0
 19 21  1  0
 19 22  1  0
 22 23  1  0
 22 24  1  0
  6 25  1  0
 25 26  1  0
 25 27  2  0
 27 28  1  0
 27  2  1  0
 14  8  2  0
 22 17  1  0
M  END
>  <cnnaffinity>  (1) 
-4.68344

>  <filename>  (1) 
c1cncc(Oc2cn[nH]c2NC2CC2)c1

$$$$
