
     RDKit          3D

 34 37  0  0  0  0  0  0  0  0999 V2000
    4.9431    2.0737   16.5350 H   0  0  0  0  0  0  0  0  0  0  0  0
    5.4563    1.5500   17.3387 C   0  0  0  0  0  0  0  0  0  0  0  0
    6.5782    0.8999   16.9959 N   0  0  0  0  0  0  0  0  0  0  0  0
    7.2291    0.2297   17.9569 C   0  0  0  0  0  0  0  0  0  0  0  0
    8.1532   -0.2648   17.6609 H   0  0  0  0  0  0  0  0  0  0  0  0
    6.7796    0.1400   19.2890 C   0  0  0  0  0  0  0  0  0  0  0  0
    7.4402   -0.7021   20.3064 C   0  0  0  0  0  0  0  0  0  0  0  0
    9.1188   -1.1330   20.2709 S   0  0  0  0  0  0  0  0  0  0  0  0
    8.9980   -1.9420   21.7857 C   0  0  0  0  0  0  0  0  0  0  0  0
    9.8566   -2.4446   22.2159 H   0  0  0  0  0  0  0  0  0  0  0  0
    7.7319   -1.8978   22.3035 C   0  0  0  0  0  0  0  0  0  0  0  0
    7.2848   -2.4842   23.5913 C   0  0  0  0  0  0  0  0  0  0  0  0
    6.2958   -3.4596   23.5913 C   0  0  0  0  0  0  0  0  0  0  0  0
    5.7859   -3.6907   22.6595 H   0  0  0  0  0  0  0  0  0  0  0  0
    5.9708   -4.1809   24.7686 C   0  0  0  0  0  0  0  0  0  0  0  0
    5.2324   -4.9789   24.7300 H   0  0  0  0  0  0  0  0  0  0  0  0
    6.6600   -3.9300   25.9311 C   0  0  0  0  0  0  0  0  0  0  0  0
    6.4712   -4.5086   26.8314 H   0  0  0  0  0  0  0  0  0  0  0  0
    7.6414   -2.8961   25.9874 C   0  0  0  0  0  0  0  0  0  0  0  0
    8.3625   -2.6341   27.1863 C   0  0  0  0  0  0  0  0  0  0  0  0
    8.2280   -3.3316   28.0052 H   0  0  0  0  0  0  0  0  0  0  0  0
    9.1797   -1.5370   27.3026 C   0  0  0  0  0  0  0  0  0  0  0  0
    9.7014   -1.3277   28.2338 H   0  0  0  0  0  0  0  0  0  0  0  0
    9.3497   -0.6584   26.2017 C   0  0  0  0  0  0  0  0  0  0  0  0
    9.9692    0.2286   26.3066 H   0  0  0  0  0  0  0  0  0  0  0  0
    8.7109   -0.9161   25.0071 C   0  0  0  0  0  0  0  0  0  0  0  0
    8.7781   -0.1984   24.1946 H   0  0  0  0  0  0  0  0  0  0  0  0
    7.8902   -2.0833   24.8379 C   0  0  0  0  0  0  0  0  0  0  0  0
    6.8403   -1.2320   21.4097 C   0  0  0  0  0  0  0  0  0  0  0  0
    5.7686   -1.1887   21.5724 H   0  0  0  0  0  0  0  0  0  0  0  0
    5.6300    0.8684   19.6324 C   0  0  0  0  0  0  0  0  0  0  0  0
    5.2959    0.9007   20.6696 H   0  0  0  0  0  0  0  0  0  0  0  0
    4.9510    1.5779   18.6417 C   0  0  0  0  0  0  0  0  0  0  0  0
    4.0581    2.1485   18.8658 H   0  0  0  0  0  0  0  0  0  0  0  0
  1  2  1  0
  2  3  2  0
  3  4  1  0
  4  5  1  0
  4  6  2  0
  6  7  1  0
  7  8  1  0
  8  9  1  0
  9 10  1  0
  9 11  2  0
 11 12  1  0
 12 13  2  0
 13 14  1  0
 13 15  1  0
 15 16  1  0
 15 17  2  0
 17 18  1  0
 17 19  1  0
 19 20  2  0
 20 21  1  0
 20 22  1  0
 22 23  1  0
 22 24  2  0
 24 25  1  0
 24 26  1  0
 26 27  1  0
 26 28  2  0
 11 29  1  0
 29 30  1  0
  6 31  1  0
 31 32  1  0
 31 33  2  0
 33 34  1  0
 33  2  1  0
 29  7  2  0
 28 12  1  0
 28 19  1  0
M  END
>  <cnnaffinity>  (1) 
-5.0419

>  <filename>  (1) 
c1cncc(-c2cc(-c3cccc4ccccc34)cs2)c1

$$$$
