
     RDKit          3D

 33 36  0  0  0  0  0  0  0  0999 V2000
    4.9177    1.7847   16.9934 H   0  0  0  0  0  0  0  0  0  0  0  0
    5.4003    1.2943   17.8370 C   0  0  0  0  0  0  0  0  0  0  0  0
    6.5644    0.6775   17.5717 N   0  0  0  0  0  0  0  0  0  0  0  0
    7.1672    0.0603   18.5904 C   0  0  0  0  0  0  0  0  0  0  0  0
    8.1133   -0.4264   18.3676 H   0  0  0  0  0  0  0  0  0  0  0  0
    6.6669    0.0028   19.9091 C   0  0  0  0  0  0  0  0  0  0  0  0
    7.4050   -0.6952   20.9823 C   0  0  0  0  0  0  0  0  0  0  0  0
    8.2523   -2.1772   20.7904 S   0  0  0  0  0  0  0  0  0  0  0  0
    8.7263   -2.3355   22.3658 N   0  0  0  0  0  0  0  0  0  0  0  0
    8.2793   -1.3061   23.0290 C   0  0  0  0  0  0  0  0  0  0  0  0
    8.5162   -1.2308   24.0866 H   0  0  0  0  0  0  0  0  0  0  0  0
    7.5159   -0.3340   22.3083 C   0  0  0  0  0  0  0  0  0  0  0  0
    7.0607    0.9268   22.8920 C   0  0  0  0  0  0  0  0  0  0  0  0
    7.5509    2.1198   22.3777 C   0  0  0  0  0  0  0  0  0  0  0  0
    8.2453    2.0809   21.5397 H   0  0  0  0  0  0  0  0  0  0  0  0
    7.1636    3.3628   22.9294 C   0  0  0  0  0  0  0  0  0  0  0  0
    7.5665    4.2800   22.5048 H   0  0  0  0  0  0  0  0  0  0  0  0
    6.2796    3.4048   23.9844 C   0  0  0  0  0  0  0  0  0  0  0  0
    5.9755    4.3538   24.4205 H   0  0  0  0  0  0  0  0  0  0  0  0
    5.7405    2.2046   24.5390 C   0  0  0  0  0  0  0  0  0  0  0  0
    4.8137    2.2340   25.6268 C   0  0  0  0  0  0  0  0  0  0  0  0
    4.5436    3.2045   26.0377 H   0  0  0  0  0  0  0  0  0  0  0  0
    4.2769    1.0759   26.1392 C   0  0  0  0  0  0  0  0  0  0  0  0
    3.5697    1.1113   26.9661 H   0  0  0  0  0  0  0  0  0  0  0  0
    4.6590   -0.1827   25.6047 C   0  0  0  0  0  0  0  0  0  0  0  0
    4.2046   -1.0976   25.9811 H   0  0  0  0  0  0  0  0  0  0  0  0
    5.5986   -0.2474   24.5995 C   0  0  0  0  0  0  0  0  0  0  0  0
    5.8443   -1.2062   24.1423 H   0  0  0  0  0  0  0  0  0  0  0  0
    6.1429    0.9379   24.0049 C   0  0  0  0  0  0  0  0  0  0  0  0
    5.4395    0.6451   20.1588 C   0  0  0  0  0  0  0  0  0  0  0  0
    5.0165    0.6350   21.1697 H   0  0  0  0  0  0  0  0  0  0  0  0
    4.8031    1.3044   19.1037 C   0  0  0  0  0  0  0  0  0  0  0  0
    3.8719    1.8433   19.2552 H   0  0  0  0  0  0  0  0  0  0  0  0
  1  2  1  0
  2  3  2  0
  3  4  1  0
  4  5  1  0
  4  6  2  0
  6  7  1  0
  7  8  1  0
  8  9  1  0
  9 10  2  0
 10 11  1  0
 10 12  1  0
 12 13  1  0
 13 14  2  0
 14 15  1  0
 14 16  1  0
 16 17  1  0
 16 18  2  0
 18 19  1  0
 18 20  1  0
 20 21  2  0
 21 22  1  0
 21 23  1  0
 23 24  1  0
 23 25  2  0
 25 26  1  0
 25 27  1  0
 27 28  1  0
 27 29  2  0
  6 30  1  0
 30 31  1  0
 30 32  2  0
 32 33  1  0
 32  2  1  0
 12  7  2  0
 29 13  1  0
 29 20  1  0
M  END
>  <cnnaffinity>  (1) 
-4.54523

>  <filename>  (1) 
c1cncc(-c2sncc2-c2cccc3ccccc23)c1

$$$$
