
     RDKit          3D

 33 36  0  0  0  0  0  0  0  0999 V2000
    9.0659   -3.0282   22.1861 H   0  0  0  0  0  0  0  0  0  0  0  0
    8.4865   -2.1358   21.9760 C   0  0  0  0  0  0  0  0  0  0  0  0
    8.0293   -1.8410   20.7325 N   0  0  0  0  0  0  0  0  0  0  0  0
    7.4006   -0.7025   20.9161 C   0  0  0  0  0  0  0  0  0  0  0  0
    6.6433    0.0140   19.8962 C   0  0  0  0  0  0  0  0  0  0  0  0
    7.1617    0.0458   18.5942 C   0  0  0  0  0  0  0  0  0  0  0  0
    8.1115   -0.4384   18.3768 H   0  0  0  0  0  0  0  0  0  0  0  0
    6.5655    0.6733   17.5783 N   0  0  0  0  0  0  0  0  0  0  0  0
    5.4028    1.2922   17.8366 C   0  0  0  0  0  0  0  0  0  0  0  0
    4.9277    1.7841   16.9920 H   0  0  0  0  0  0  0  0  0  0  0  0
    4.7959    1.3088   19.0976 C   0  0  0  0  0  0  0  0  0  0  0  0
    3.8682    1.8460   19.2480 H   0  0  0  0  0  0  0  0  0  0  0  0
    5.4194    0.6535   20.1545 C   0  0  0  0  0  0  0  0  0  0  0  0
    5.0037    0.6494   21.1705 H   0  0  0  0  0  0  0  0  0  0  0  0
    7.5078   -0.3119   22.2249 N   0  0  0  0  0  0  0  0  0  0  0  0
    7.1476    0.9440   22.8154 C   0  0  0  0  0  0  0  0  0  0  0  0
    7.6053    2.1182   22.2462 C   0  0  0  0  0  0  0  0  0  0  0  0
    8.2277    2.0875   21.3525 H   0  0  0  0  0  0  0  0  0  0  0  0
    7.2584    3.3725   22.8127 C   0  0  0  0  0  0  0  0  0  0  0  0
    7.6369    4.2846   22.3521 H   0  0  0  0  0  0  0  0  0  0  0  0
    6.4556    3.4415   23.9284 C   0  0  0  0  0  0  0  0  0  0  0  0
    6.1947    4.4003   24.3773 H   0  0  0  0  0  0  0  0  0  0  0  0
    5.9480    2.2473   24.5286 C   0  0  0  0  0  0  0  0  0  0  0  0
    5.1062    2.3044   25.6866 C   0  0  0  0  0  0  0  0  0  0  0  0
    4.8778    3.2803   26.1103 H   0  0  0  0  0  0  0  0  0  0  0  0
    4.5990    1.1557   26.2492 C   0  0  0  0  0  0  0  0  0  0  0  0
    3.9599    1.2067   27.1323 H   0  0  0  0  0  0  0  0  0  0  0  0
    4.9104   -0.1116   25.6839 C   0  0  0  0  0  0  0  0  0  0  0  0
    4.4932   -1.0181   26.1209 H   0  0  0  0  0  0  0  0  0  0  0  0
    5.7401   -0.2036   24.5878 C   0  0  0  0  0  0  0  0  0  0  0  0
    5.9742   -1.1611   24.1330 H   0  0  0  0  0  0  0  0  0  0  0  0
    6.2903    0.9703   23.9728 C   0  0  0  0  0  0  0  0  0  0  0  0
    8.2055   -1.2549   22.9118 N   0  0  0  0  0  0  0  0  0  0  0  0
  1  2  1  0
  2  3  1  0
  3  4  2  0
  4  5  1  0
  5  6  2  0
  6  7  1  0
  6  8  1  0
  8  9  2  0
  9 10  1  0
  9 11  1  0
 11 12  1  0
 11 13  2  0
 13 14  1  0
  4 15  1  0
 15 16  1  0
 16 17  2  0
 17 18  1  0
 17 19  1  0
 19 20  1  0
 19 21  2  0
 21 22  1  0
 21 23  1  0
 23 24  2  0
 24 25  1  0
 24 26  1  0
 26 27  1  0
 26 28  2  0
 28 29  1  0
 28 30  1  0
 30 31  1  0
 30 32  2  0
 15 33  1  0
 33  2  2  0
 13  5  1  0
 32 16  1  0
 32 23  1  0
M  END
>  <cnnaffinity>  (1) 
-4.68944

>  <filename>  (1) 
c1cncc(-c2ncnn2-c2cccc3ccccc23)c1

$$$$
