
     RDKit          3D

 29 31  0  0  0  0  0  0  0  0999 V2000
    5.0422    1.8372   17.0199 H   0  0  0  0  0  0  0  0  0  0  0  0
    5.4816    1.2940   17.8540 C   0  0  0  0  0  0  0  0  0  0  0  0
    6.6296    0.6417   17.6086 N   0  0  0  0  0  0  0  0  0  0  0  0
    7.1976   -0.0274   18.6212 C   0  0  0  0  0  0  0  0  0  0  0  0
    8.1164   -0.5690   18.3957 H   0  0  0  0  0  0  0  0  0  0  0  0
    6.6504   -0.0911   19.9187 C   0  0  0  0  0  0  0  0  0  0  0  0
    7.2219   -0.8614   20.9719 N   0  0  0  0  0  0  0  0  0  0  0  0
    6.5652   -1.8456   21.6772 C   0  0  0  0  0  0  0  0  0  0  0  0
    5.5240   -2.0876   21.4899 H   0  0  0  0  0  0  0  0  0  0  0  0
    7.3356   -2.4385   22.5485 N   0  0  0  0  0  0  0  0  0  0  0  0
    8.5426   -1.8028   22.4434 C   0  0  0  0  0  0  0  0  0  0  0  0
    9.3915   -2.0936   23.0513 H   0  0  0  0  0  0  0  0  0  0  0  0
    8.5109   -0.8042   21.5038 C   0  0  0  0  0  0  0  0  0  0  0  0
    9.5254    0.2275   21.1258 C   0  0  2  0  0  0  0  0  0  0  0  0
    9.7921    0.0705   20.0735 H   0  0  0  0  0  0  0  0  0  0  0  0
   10.8164    0.1369   21.9614 C   0  0  0  0  0  0  0  0  0  0  0  0
   11.4953   -0.6327   21.5849 H   0  0  0  0  0  0  0  0  0  0  0  0
   10.5732   -0.0839   23.0115 H   0  0  0  0  0  0  0  0  0  0  0  0
   11.4602    1.3923   21.8878 O   0  0  0  0  0  0  0  0  0  0  0  0
   10.5549    2.3725   21.4033 C   0  0  0  0  0  0  0  0  0  0  0  0
   10.5745    3.2531   22.0574 H   0  0  0  0  0  0  0  0  0  0  0  0
   10.9091    2.6937   20.4157 H   0  0  0  0  0  0  0  0  0  0  0  0
    9.1649    1.7142   21.3426 C   0  0  0  0  0  0  0  0  0  0  0  0
    8.6349    1.8273   22.2989 H   0  0  0  0  0  0  0  0  0  0  0  0
    8.5388    2.1407   20.5532 H   0  0  0  0  0  0  0  0  0  0  0  0
    5.4562    0.5991   20.1619 C   0  0  0  0  0  0  0  0  0  0  0  0
    5.0346    0.5915   21.1670 H   0  0  0  0  0  0  0  0  0  0  0  0
    4.8635    1.2979   19.1101 C   0  0  0  0  0  0  0  0  0  0  0  0
    3.9453    1.8505   19.2604 H   0  0  0  0  0  0  0  0  0  0  0  0
  1  2  1  0
  2  3  2  0
  3  4  1  0
  4  5  1  0
  4  6  2  0
  6  7  1  0
  7  8  1  0
  8  9  1  0
  8 10  2  0
 10 11  1  0
 11 12  1  0
 11 13  2  0
 13 14  1  0
 14 15  1  6
 14 16  1  0
 16 17  1  0
 16 18  1  0
 16 19  1  0
 19 20  1  0
 20 21  1  0
 20 22  1  0
 20 23  1  0
 23 24  1  0
 23 25  1  0
  6 26  1  0
 26 27  1  0
 26 28  2  0
 28 29  1  0
 28  2  1  0
 13  7  1  0
 23 14  1  0
M  END
>  <cnnaffinity>  (1) 
-4.89742

>  <filename>  (1) 
c1cncc(-n2cncc2[C@H]2CCOC2)c1

$$$$
