
     RDKit          3D

 30 32  0  0  0  0  0  0  0  0999 V2000
    4.9261    1.7823   17.0002 H   0  0  0  0  0  0  0  0  0  0  0  0
    5.4059    1.2876   17.8433 C   0  0  0  0  0  0  0  0  0  0  0  0
    6.5669    0.6634   17.5874 N   0  0  0  0  0  0  0  0  0  0  0  0
    7.1890    0.0503   18.6044 C   0  0  0  0  0  0  0  0  0  0  0  0
    8.1281   -0.4382   18.3621 H   0  0  0  0  0  0  0  0  0  0  0  0
    6.6859    0.0136   19.9180 C   0  0  0  0  0  0  0  0  0  0  0  0
    7.2807   -0.6760   20.9496 O   0  0  0  0  0  0  0  0  0  0  0  0
    8.6495   -0.7498   21.0681 C   0  0  0  0  0  0  0  0  0  0  0  0
    9.6684    0.1031   20.6103 C   0  0  0  0  0  0  0  0  0  0  0  0
    9.5849    0.9699   19.9784 H   0  0  0  0  0  0  0  0  0  0  0  0
   10.8629   -0.2998   21.0358 N   0  0  0  0  0  0  0  0  0  0  0  0
   10.6002   -1.3934   21.7550 N   0  0  0  0  0  0  0  0  0  0  0  0
   11.3744   -1.8994   22.1566 H   0  0  0  0  0  0  0  0  0  0  0  0
    9.2812   -1.7189   21.8167 C   0  0  0  0  0  0  0  0  0  0  0  0
    8.7224   -2.8815   22.5651 C   0  0  2  0  0  0  0  0  0  0  0  0
    8.5327   -3.6868   21.8438 H   0  0  0  0  0  0  0  0  0  0  0  0
    7.3886   -2.5659   23.2680 C   0  0  0  0  0  0  0  0  0  0  0  0
    6.5275   -2.6874   22.6044 H   0  0  0  0  0  0  0  0  0  0  0  0
    7.3721   -1.5286   23.6310 H   0  0  0  0  0  0  0  0  0  0  0  0
    7.2912   -3.4702   24.3539 O   0  0  0  0  0  0  0  0  0  0  0  0
    8.5428   -4.0793   24.6417 C   0  0  0  0  0  0  0  0  0  0  0  0
    8.4641   -5.1603   24.4534 H   0  0  0  0  0  0  0  0  0  0  0  0
    8.7721   -3.9449   25.7075 H   0  0  0  0  0  0  0  0  0  0  0  0
    9.5791   -3.4162   23.7291 C   0  0  0  0  0  0  0  0  0  0  0  0
   10.3532   -4.1153   23.4149 H   0  0  0  0  0  0  0  0  0  0  0  0
   10.0787   -2.5906   24.2492 H   0  0  0  0  0  0  0  0  0  0  0  0
    5.4609    0.6425   20.1763 C   0  0  0  0  0  0  0  0  0  0  0  0
    5.0346    0.6106   21.1784 H   0  0  0  0  0  0  0  0  0  0  0  0
    4.8261    1.2982   19.1159 C   0  0  0  0  0  0  0  0  0  0  0  0
    3.8924    1.8257   19.2661 H   0  0  0  0  0  0  0  0  0  0  0  0
  1  2  1  0
  2  3  2  0
  3  4  1  0
  4  5  1  0
  4  6  2  0
  6  7  1  0
  7  8  1  0
  8  9  1  0
  9 10  1  0
  9 11  2  0
 11 12  1  0
 12 13  1  0
 12 14  1  0
 14 15  1  0
 15 16  1  6
 15 17  1  0
 17 18  1  0
 17 19  1  0
 17 20  1  0
 20 21  1  0
 21 22  1  0
 21 23  1  0
 21 24  1  0
 24 25  1  0
 24 26  1  0
  6 27  1  0
 27 28  1  0
 27 29  2  0
 29 30  1  0
 29  2  1  0
 14  8  2  0
 24 15  1  0
M  END
>  <cnnaffinity>  (1) 
-5.06386

>  <filename>  (1) 
c1cncc(Oc2cn[nH]c2[C@H]2CCOC2)c1

$$$$
