
     RDKit          3D

 32 35  0  0  0  0  0  0  0  0999 V2000
    4.9471    1.8349   17.0469 H   0  0  0  0  0  0  0  0  0  0  0  0
    5.4479    1.2895   17.8481 C   0  0  0  0  0  0  0  0  0  0  0  0
    6.6041    0.6893   17.5288 N   0  0  0  0  0  0  0  0  0  0  0  0
    7.2243    0.0020   18.4957 C   0  0  0  0  0  0  0  0  0  0  0  0
    8.1728   -0.4552   18.2194 H   0  0  0  0  0  0  0  0  0  0  0  0
    6.7381   -0.1541   19.8059 C   0  0  0  0  0  0  0  0  0  0  0  0
    7.5762   -0.8746   20.7952 C   0  0  0  0  0  0  0  0  0  0  0  0
    8.9005   -0.7095   20.9774 C   0  0  0  0  0  0  0  0  0  0  0  0
    9.5758   -0.1544   20.3376 H   0  0  0  0  0  0  0  0  0  0  0  0
    9.4809   -1.4065   22.4717 S   0  0  0  0  0  0  0  0  0  0  0  0
    7.8744   -1.9552   22.8440 C   0  0  0  0  0  0  0  0  0  0  0  0
    7.2417   -2.5960   23.8135 N   0  0  0  0  0  0  0  0  0  0  0  0
    5.9849   -2.7416   23.2739 C   0  0  0  0  0  0  0  0  0  0  0  0
    4.7263   -3.3099   23.9695 C   0  0  1  0  0  0  0  0  0  0  0  0
    3.9454   -3.1108   23.2334 H   0  0  0  0  0  0  0  0  0  0  0  0
    4.5611   -4.7186   24.3974 N   0  0  0  0  0  0  0  0  0  0  0  0
    4.8454   -5.4178   23.7246 H   0  0  0  0  0  0  0  0  0  0  0  0
    5.0912   -4.9175   25.7490 C   0  0  0  0  0  0  0  0  0  0  0  0
    4.4180   -5.5767   26.3151 H   0  0  0  0  0  0  0  0  0  0  0  0
    6.0957   -5.3746   25.7597 H   0  0  0  0  0  0  0  0  0  0  0  0
    5.1370   -3.4993   26.3492 C   0  0  0  0  0  0  0  0  0  0  0  0
    4.6574   -3.4381   27.3325 H   0  0  0  0  0  0  0  0  0  0  0  0
    6.1790   -3.1737   26.4379 H   0  0  0  0  0  0  0  0  0  0  0  0
    4.4269   -2.6107   25.3202 C   0  0  0  0  0  0  0  0  0  0  0  0
    4.7654   -1.5695   25.3663 H   0  0  0  0  0  0  0  0  0  0  0  0
    3.3416   -2.6145   25.4775 H   0  0  0  0  0  0  0  0  0  0  0  0
    5.8352   -2.2087   22.0612 N   0  0  0  0  0  0  0  0  0  0  0  0
    7.0486   -1.6701   21.8204 N   0  0  0  0  0  0  0  0  0  0  0  0
    5.5352    0.5022   20.1259 C   0  0  0  0  0  0  0  0  0  0  0  0
    5.1451    0.4752   21.1430 H   0  0  0  0  0  0  0  0  0  0  0  0
    4.8844    1.2295   19.1257 C   0  0  0  0  0  0  0  0  0  0  0  0
    3.9680    1.7695   19.3274 H   0  0  0  0  0  0  0  0  0  0  0  0
  1  2  1  0
  2  3  2  0
  3  4  1  0
  4  5  1  0
  4  6  2  0
  6  7  1  0
  7  8  2  0
  8  9  1  0
  8 10  1  0
 10 11  1  0
 11 12  2  0
 12 13  1  0
 13 14  1  0
 14 15  1  6
 14 16  1  0
 16 17  1  0
 16 18  1  0
 18 19  1  0
 18 20  1  0
 18 21  1  0
 21 22  1  0
 21 23  1  0
 21 24  1  0
 24 25  1  0
 24 26  1  0
 13 27  2  0
 27 28  1  0
  6 29  1  0
 29 30  1  0
 29 31  2  0
 31 32  1  0
 31  2  1  0
 28  7  1  0
 28 11  1  0
 24 14  1  0
M  END
>  <cnnaffinity>  (1) 
-5.11893

>  <filename>  (1) 
c1cncc(-c2csc3nc([C@@H]4CCCN4)nn23)c1

$$$$
