
     RDKit          3D

 32 35  0  0  0  0  0  0  0  0999 V2000
    4.9288    1.7958   16.9946 H   0  0  0  0  0  0  0  0  0  0  0  0
    5.4195    1.2894   17.8238 C   0  0  0  0  0  0  0  0  0  0  0  0
    6.5802    0.6765   17.5510 N   0  0  0  0  0  0  0  0  0  0  0  0
    7.2193    0.0553   18.5528 C   0  0  0  0  0  0  0  0  0  0  0  0
    8.1700   -0.4163   18.3154 H   0  0  0  0  0  0  0  0  0  0  0  0
    6.7140    0.0122   19.8675 C   0  0  0  0  0  0  0  0  0  0  0  0
    7.2863   -0.6686   20.9438 O   0  0  0  0  0  0  0  0  0  0  0  0
    8.6071   -0.7796   21.1134 C   0  0  0  0  0  0  0  0  0  0  0  0
    9.5725   -0.1502   20.5000 N   0  0  0  0  0  0  0  0  0  0  0  0
   10.7121   -0.6094   21.0755 N   0  0  0  0  0  0  0  0  0  0  0  0
   10.4732   -1.4724   21.9860 N   0  0  0  0  0  0  0  0  0  0  0  0
    9.1188   -1.6262   22.0364 N   0  0  0  0  0  0  0  0  0  0  0  0
    8.5181   -2.5554   22.9409 C   0  0  0  0  0  0  0  0  0  0  0  0
    8.9166   -2.5718   24.2613 C   0  0  0  0  0  0  0  0  0  0  0  0
    9.7031   -1.9009   24.6060 H   0  0  0  0  0  0  0  0  0  0  0  0
    8.3611   -3.3881   25.1937 N   0  0  0  0  0  0  0  0  0  0  0  0
    7.4309   -4.2434   24.8114 C   0  0  0  0  0  0  0  0  0  0  0  0
    6.9906   -4.8808   25.5809 H   0  0  0  0  0  0  0  0  0  0  0  0
    6.9870   -4.3913   23.4569 C   0  0  0  0  0  0  0  0  0  0  0  0
    6.0596   -5.4036   23.0344 C   0  0  0  0  0  0  0  0  0  0  0  0
    5.6133   -6.0589   23.7838 H   0  0  0  0  0  0  0  0  0  0  0  0
    5.7504   -5.5562   21.7027 C   0  0  0  0  0  0  0  0  0  0  0  0
    5.0785   -6.3490   21.3795 H   0  0  0  0  0  0  0  0  0  0  0  0
    6.2923   -4.6638   20.7351 C   0  0  0  0  0  0  0  0  0  0  0  0
    6.0602   -4.7891   19.6799 H   0  0  0  0  0  0  0  0  0  0  0  0
    7.1036   -3.6256   21.1278 C   0  0  0  0  0  0  0  0  0  0  0  0
    7.3917   -2.8586   20.4267 H   0  0  0  0  0  0  0  0  0  0  0  0
    7.5290   -3.4981   22.4871 C   0  0  0  0  0  0  0  0  0  0  0  0
    5.4987    0.6359   20.1433 C   0  0  0  0  0  0  0  0  0  0  0  0
    5.1115    0.6088   21.1615 H   0  0  0  0  0  0  0  0  0  0  0  0
    4.8451    1.2941   19.1010 C   0  0  0  0  0  0  0  0  0  0  0  0
    3.9119    1.8164   19.2746 H   0  0  0  0  0  0  0  0  0  0  0  0
  1  2  1  0
  2  3  2  0
  3  4  1  0
  4  5  1  0
  4  6  2  0
  6  7  1  0
  7  8  1  0
  8  9  2  0
  9 10  1  0
 10 11  2  0
 11 12  1  0
 12 13  1  0
 13 14  2  0
 14 15  1  0
 14 16  1  0
 16 17  2  0
 17 18  1  0
 17 19  1  0
 19 20  2  0
 20 21  1  0
 20 22  1  0
 22 23  1  0
 22 24  2  0
 24 25  1  0
 24 26  1  0
 26 27  1  0
 26 28  2  0
  6 29  1  0
 29 30  1  0
 29 31  2  0
 31 32  1  0
 31  2  1  0
 12  8  1  0
 28 13  1  0
 28 19  1  0
M  END
>  <cnnaffinity>  (1) 
-5.14022

>  <filename>  (1) 
c1cncc(Oc2nnnn2-c2cncc3ccccc23)c1

$$$$
