
     RDKit          3D

 32 34  0  0  0  0  0  0  0  0999 V2000
    4.8183    1.3079   19.0687 C   0  0  0  0  0  0  0  0  0  0  0  0
    5.4343    1.3136   17.8123 C   0  0  0  0  0  0  0  0  0  0  0  0
    6.6007    0.7042   17.5557 N   0  0  0  0  0  0  0  0  0  0  0  0
    7.1843    0.0650   18.5773 C   0  0  0  0  0  0  0  0  0  0  0  0
    6.6434   -0.0323   19.8626 C   0  0  0  0  0  0  0  0  0  0  0  0
    7.4099   -0.7636   20.9343 C   0  0  0  0  0  0  0  0  0  0  0  0
    8.2046    0.1976   21.6743 N   0  0  0  0  0  0  0  0  0  0  0  0
    8.5168    0.0735   23.0227 C   0  0  0  0  0  0  0  0  0  0  0  0
    8.7391   -1.1871   23.5560 C   0  0  0  0  0  0  0  0  0  0  0  0
    9.0973   -1.3613   24.9203 C   0  0  0  0  0  0  0  0  0  0  0  0
    9.1684   -0.2841   25.7770 C   0  0  0  0  0  0  0  0  0  0  0  0
    8.8681    1.0289   25.2915 C   0  0  0  0  0  0  0  0  0  0  0  0
    8.8265    2.1453   26.1805 C   0  0  0  0  0  0  0  0  0  0  0  0
    8.7346    3.4313   25.7053 C   0  0  0  0  0  0  0  0  0  0  0  0
    8.5359    3.6479   24.3181 C   0  0  0  0  0  0  0  0  0  0  0  0
    8.4189    2.5862   23.4461 C   0  0  0  0  0  0  0  0  0  0  0  0
    8.6116    1.2372   23.8925 C   0  0  0  0  0  0  0  0  0  0  0  0
    8.1525    2.7909   22.4116 H   0  0  0  0  0  0  0  0  0  0  0  0
    8.4478    4.6626   23.9434 H   0  0  0  0  0  0  0  0  0  0  0  0
    8.8120    4.2845   26.3766 H   0  0  0  0  0  0  0  0  0  0  0  0
    8.8241    1.9446   27.2457 H   0  0  0  0  0  0  0  0  0  0  0  0
    9.4739   -0.4011   26.8159 H   0  0  0  0  0  0  0  0  0  0  0  0
    9.2965   -2.3664   25.2812 H   0  0  0  0  0  0  0  0  0  0  0  0
    8.6164   -2.0506   22.9036 H   0  0  0  0  0  0  0  0  0  0  0  0
    8.3275    1.1018   21.2518 H   0  0  0  0  0  0  0  0  0  0  0  0
    6.7097   -1.2704   21.6169 H   0  0  0  0  0  0  0  0  0  0  0  0
    8.0507   -1.5457   20.4896 H   0  0  0  0  0  0  0  0  0  0  0  0
    5.4394    0.6376   20.1233 C   0  0  0  0  0  0  0  0  0  0  0  0
    5.0119    0.6537   21.1307 H   0  0  0  0  0  0  0  0  0  0  0  0
    8.1347   -0.4224   18.3587 H   0  0  0  0  0  0  0  0  0  0  0  0
    4.9736    1.8311   16.9741 H   0  0  0  0  0  0  0  0  0  0  0  0
    3.8840    1.8373   19.2102 H   0  0  0  0  0  0  0  0  0  0  0  0
  1  2  2  0
  2  3  1  0
  3  4  2  0
  4  5  1  0
  5  6  1  0
  6  7  1  0
  7  8  1  0
  8  9  2  0
  9 10  1  0
 10 11  2  0
 11 12  1  0
 12 13  2  0
 13 14  1  0
 14 15  2  0
 15 16  1  0
 16 17  2  0
 16 18  1  0
 15 19  1  0
 14 20  1  0
 13 21  1  0
 11 22  1  0
 10 23  1  0
  9 24  1  0
  7 25  1  0
  6 26  1  0
  6 27  1  0
  5 28  2  0
 28 29  1  0
  4 30  1  0
  2 31  1  0
  1 32  1  0
 28  1  1  0
 17  8  1  0
 17 12  1  0
M  END
>  <cnnaffinity>  (1) 
-4.35551

>  <filename>  (1) 
c1cncc(CNc2cccc3ccccc23)c1

$$$$
