
     RDKit          3D

 35 38  0  0  0  0  0  0  0  0999 V2000
    4.9512    1.8119   16.9813 H   0  0  0  0  0  0  0  0  0  0  0  0
    5.4056    1.3004   17.8289 C   0  0  0  0  0  0  0  0  0  0  0  0
    6.5584    0.6577   17.5861 N   0  0  0  0  0  0  0  0  0  0  0  0
    7.1478    0.0334   18.6089 C   0  0  0  0  0  0  0  0  0  0  0  0
    8.0743   -0.4905   18.3756 H   0  0  0  0  0  0  0  0  0  0  0  0
    6.6380    0.0390   19.9201 C   0  0  0  0  0  0  0  0  0  0  0  0
    7.3932   -0.6661   20.9578 C   0  0  0  0  0  0  0  0  0  0  0  0
    8.0213   -1.8100   20.7856 N   0  0  0  0  0  0  0  0  0  0  0  0
    8.5856   -2.1195   21.9661 N   0  0  0  0  0  0  0  0  0  0  0  0
    8.3530   -1.2042   22.8388 N   0  0  0  0  0  0  0  0  0  0  0  0
    7.5949   -0.2651   22.2397 N   0  0  0  0  0  0  0  0  0  0  0  0
    7.3068    0.9757   22.9714 C   0  0  0  0  0  0  0  0  0  0  0  0
    8.2496    1.3042   23.4191 H   0  0  0  0  0  0  0  0  0  0  0  0
    7.0325    1.7310   22.2304 H   0  0  0  0  0  0  0  0  0  0  0  0
    6.2223    0.8976   24.0480 C   0  0  0  0  0  0  0  0  0  0  0  0
    5.7898   -0.3041   24.5686 C   0  0  0  0  0  0  0  0  0  0  0  0
    6.3590   -1.2069   24.3574 H   0  0  0  0  0  0  0  0  0  0  0  0
    4.5698   -0.3877   25.3058 C   0  0  0  0  0  0  0  0  0  0  0  0
    4.2276   -1.3674   25.6303 H   0  0  0  0  0  0  0  0  0  0  0  0
    3.8449    0.7448   25.5847 C   0  0  0  0  0  0  0  0  0  0  0  0
    2.8663    0.6940   26.0628 H   0  0  0  0  0  0  0  0  0  0  0  0
    4.4019    2.0320   25.3016 C   0  0  0  0  0  0  0  0  0  0  0  0
    3.8351    3.2152   25.8622 C   0  0  0  0  0  0  0  0  0  0  0  0
    2.9124    3.1271   26.4323 H   0  0  0  0  0  0  0  0  0  0  0  0
    4.4683    4.4274   25.7480 C   0  0  0  0  0  0  0  0  0  0  0  0
    4.0599    5.3101   26.2333 H   0  0  0  0  0  0  0  0  0  0  0  0
    5.6527    4.5385   24.9775 C   0  0  0  0  0  0  0  0  0  0  0  0
    6.1220    5.5126   24.8727 H   0  0  0  0  0  0  0  0  0  0  0  0
    6.1896    3.4263   24.3573 C   0  0  0  0  0  0  0  0  0  0  0  0
    7.0654    3.5576   23.7319 H   0  0  0  0  0  0  0  0  0  0  0  0
    5.6217    2.1216   24.5440 C   0  0  0  0  0  0  0  0  0  0  0  0
    5.4221    0.6945   20.1552 C   0  0  0  0  0  0  0  0  0  0  0  0
    4.9777    0.6960   21.1534 H   0  0  0  0  0  0  0  0  0  0  0  0
    4.7934    1.3306   19.0856 C   0  0  0  0  0  0  0  0  0  0  0  0
    3.8557    1.8571   19.2141 H   0  0  0  0  0  0  0  0  0  0  0  0
  1  2  1  0
  2  3  2  0
  3  4  1  0
  4  5  1  0
  4  6  2  0
  6  7  1  0
  7  8  2  0
  8  9  1  0
  9 10  2  0
 10 11  1  0
 11 12  1  0
 12 13  1  0
 12 14  1  0
 12 15  1  0
 15 16  2  0
 16 17  1  0
 16 18  1  0
 18 19  1  0
 18 20  2  0
 20 21  1  0
 20 22  1  0
 22 23  2  0
 23 24  1  0
 23 25  1  0
 25 26  1  0
 25 27  2  0
 27 28  1  0
 27 29  1  0
 29 30  1  0
 29 31  2  0
  6 32  1  0
 32 33  1  0
 32 34  2  0
 34 35  1  0
 34  2  1  0
 11  7  1  0
 31 15  1  0
 31 22  1  0
M  END
>  <cnnaffinity>  (1) 
-4.65006

>  <filename>  (1) 
c1cncc(-c2nnnn2Cc2cccc3ccccc23)c1

$$$$
