
     RDKit          3D

 37 40  0  0  0  0  0  0  0  0999 V2000
    5.2062    1.6652   17.0002 H   0  0  0  0  0  0  0  0  0  0  0  0
    5.7384    1.2122   17.8332 C   0  0  0  0  0  0  0  0  0  0  0  0
    6.9276    0.6539   17.5559 N   0  0  0  0  0  0  0  0  0  0  0  0
    7.5955    0.0993   18.5715 C   0  0  0  0  0  0  0  0  0  0  0  0
    8.5753   -0.3131   18.3305 H   0  0  0  0  0  0  0  0  0  0  0  0
    7.1055    0.0208   19.8862 C   0  0  0  0  0  0  0  0  0  0  0  0
    7.8815   -0.7252   20.8874 C   0  0  0  0  0  0  0  0  0  0  0  0
    9.2157   -0.6267   20.9413 N   0  0  0  0  0  0  0  0  0  0  0  0
    9.5436   -1.4692   21.9248 N   0  0  0  0  0  0  0  0  0  0  0  0
    8.5066   -2.1072   22.4750 C   0  0  0  0  0  0  0  0  0  0  0  0
    7.3761   -1.6663   21.8306 C   0  0  0  0  0  0  0  0  0  0  0  0
    5.9928   -2.2168   22.0082 C   0  0  0  0  0  0  0  0  0  0  0  0
    5.7769   -2.2938   23.0796 H   0  0  0  0  0  0  0  0  0  0  0  0
    5.2906   -1.5025   21.5677 H   0  0  0  0  0  0  0  0  0  0  0  0
    5.8022   -3.5574   21.3412 C   0  0  0  0  0  0  0  0  0  0  0  0
    5.9204   -3.6162   19.9454 C   0  0  0  0  0  0  0  0  0  0  0  0
    6.0874   -2.6862   19.3944 H   0  0  0  0  0  0  0  0  0  0  0  0
    5.8172   -4.7388   19.2287 N   0  0  0  0  0  0  0  0  0  0  0  0
    5.5944   -5.8736   19.8991 C   0  0  0  0  0  0  0  0  0  0  0  0
    5.5003   -6.7723   19.2964 H   0  0  0  0  0  0  0  0  0  0  0  0
    5.4424   -5.9327   21.2840 C   0  0  0  0  0  0  0  0  0  0  0  0
    5.2400   -6.8901   21.7498 H   0  0  0  0  0  0  0  0  0  0  0  0
    5.5367   -4.7519   22.0242 C   0  0  0  0  0  0  0  0  0  0  0  0
    5.3949   -4.7685   23.1075 H   0  0  0  0  0  0  0  0  0  0  0  0
    8.9566   -3.0159   23.5672 C   0  0  0  0  0  0  0  0  0  0  0  0
    8.3836   -2.8457   24.4812 H   0  0  0  0  0  0  0  0  0  0  0  0
    8.8093   -4.0598   23.2832 H   0  0  0  0  0  0  0  0  0  0  0  0
   10.4498   -2.6387   23.7239 C   0  0  0  0  0  0  0  0  0  0  0  0
   10.5675   -2.0357   24.6221 H   0  0  0  0  0  0  0  0  0  0  0  0
   11.0861   -3.5148   23.8258 H   0  0  0  0  0  0  0  0  0  0  0  0
   10.8422   -1.7936   22.4772 C   0  0  0  0  0  0  0  0  0  0  0  0
   11.3678   -0.8756   22.7468 H   0  0  0  0  0  0  0  0  0  0  0  0
   11.4411   -2.3545   21.7511 H   0  0  0  0  0  0  0  0  0  0  0  0
    5.8775    0.6480   20.1636 C   0  0  0  0  0  0  0  0  0  0  0  0
    5.4686    0.6690   21.1749 H   0  0  0  0  0  0  0  0  0  0  0  0
    5.1862    1.2494   19.1154 C   0  0  0  0  0  0  0  0  0  0  0  0
    4.2360    1.7421   19.2896 H   0  0  0  0  0  0  0  0  0  0  0  0
  1  2  1  0
  2  3  2  0
  3  4  1  0
  4  5  1  0
  4  6  2  0
  6  7  1  0
  7  8  2  0
  8  9  1  0
  9 10  1  0
 10 11  2  0
 11 12  1  0
 12 13  1  0
 12 14  1  0
 12 15  1  0
 15 16  2  0
 16 17  1  0
 16 18  1  0
 18 19  2  0
 19 20  1  0
 19 21  1  0
 21 22  1  0
 21 23  2  0
 23 24  1  0
 10 25  1  0
 25 26  1  0
 25 27  1  0
 25 28  1  0
 28 29  1  0
 28 30  1  0
 28 31  1  0
 31 32  1  0
 31 33  1  0
  6 34  1  0
 34 35  1  0
 34 36  2  0
 36 37  1  0
 36  2  1  0
 11  7  1  0
 23 15  1  0
 31  9  1  0
M  END
>  <cnnaffinity>  (1) 
-5.71485

>  <filename>  (1) 
c1cncc(Cc2c(-c3cccnc3)nn3c2CCC3)c1

$$$$
