
     RDKit          3D

 28 30  0  0  0  0  0  0  0  0999 V2000
    4.9250    1.7774   16.9990 H   0  0  0  0  0  0  0  0  0  0  0  0
    5.4055    1.2885   17.8441 C   0  0  0  0  0  0  0  0  0  0  0  0
    6.5701    0.6705   17.5928 N   0  0  0  0  0  0  0  0  0  0  0  0
    7.1775    0.0504   18.6108 C   0  0  0  0  0  0  0  0  0  0  0  0
    8.1238   -0.4339   18.3806 H   0  0  0  0  0  0  0  0  0  0  0  0
    6.6634    0.0042   19.9177 C   0  0  0  0  0  0  0  0  0  0  0  0
    7.4237   -0.7271   20.9463 C   0  0  0  0  0  0  0  0  0  0  0  0
    8.4239   -1.5576   20.7530 N   0  0  0  0  0  0  0  0  0  0  0  0
    8.7457   -1.9532   22.0096 C   0  0  0  0  0  0  0  0  0  0  0  0
    9.7514   -2.8132   22.1664 O   0  0  0  0  0  0  0  0  0  0  0  0
   10.0658   -3.2859   23.4769 C   0  0  0  0  0  0  0  0  0  0  0  0
   11.0455   -3.7539   23.3749 H   0  0  0  0  0  0  0  0  0  0  0  0
   10.1887   -2.4551   24.1811 H   0  0  0  0  0  0  0  0  0  0  0  0
    9.0730   -4.2823   24.0152 C   0  0  0  0  0  0  0  0  0  0  0  0
    8.7661   -5.0527   23.3108 H   0  0  0  0  0  0  0  0  0  0  0  0
    9.2234   -4.7240   25.4498 C   0  0  0  0  0  0  0  0  0  0  0  0
   10.0286   -4.2935   26.0448 H   0  0  0  0  0  0  0  0  0  0  0  0
    9.0027   -5.7593   25.7069 H   0  0  0  0  0  0  0  0  0  0  0  0
    8.0771   -3.8422   25.0490 C   0  0  0  0  0  0  0  0  0  0  0  0
    8.1211   -2.7959   25.3501 H   0  0  0  0  0  0  0  0  0  0  0  0
    7.0770   -4.2649   25.0280 H   0  0  0  0  0  0  0  0  0  0  0  0
    8.0250   -1.4235   22.9835 N   0  0  0  0  0  0  0  0  0  0  0  0
    7.1706   -0.6323   22.2637 N   0  0  0  0  0  0  0  0  0  0  0  0
    6.4901   -0.0427   22.7124 H   0  0  0  0  0  0  0  0  0  0  0  0
    5.4390    0.6545   20.1629 C   0  0  0  0  0  0  0  0  0  0  0  0
    4.9759    0.6457   21.1535 H   0  0  0  0  0  0  0  0  0  0  0  0
    4.8077    1.3088   19.1087 C   0  0  0  0  0  0  0  0  0  0  0  0
    3.8753    1.8423   19.2576 H   0  0  0  0  0  0  0  0  0  0  0  0
  1  2  1  0
  2  3  2  0
  3  4  1  0
  4  5  1  0
  4  6  2  0
  6  7  1  0
  7  8  2  0
  8  9  1  0
  9 10  1  0
 10 11  1  0
 11 12  1  0
 11 13  1  0
 11 14  1  0
 14 15  1  0
 14 16  1  0
 16 17  1  0
 16 18  1  0
 16 19  1  0
 19 20  1  0
 19 21  1  0
  9 22  2  0
 22 23  1  0
 23 24  1  0
  6 25  1  0
 25 26  1  0
 25 27  2  0
 27 28  1  0
 27  2  1  0
 23  7  1  0
 19 14  1  0
M  END
>  <cnnaffinity>  (1) 
-4.89828

>  <filename>  (1) 
c1cncc(-c2nc(OCC3CC3)n[nH]2)c1

$$$$
