
     RDKit          3D

 29 31  0  0  0  0  0  0  0  0999 V2000
    8.5281   -3.2690   22.1818 H   0  0  0  0  0  0  0  0  0  0  0  0
    8.1562   -2.2678   21.9889 C   0  0  0  0  0  0  0  0  0  0  0  0
    8.1176   -1.2785   22.9201 N   0  0  0  0  0  0  0  0  0  0  0  0
    7.6294   -0.2679   22.2286 C   0  0  0  0  0  0  0  0  0  0  0  0
    7.4618    1.0029   22.6854 N   0  0  0  0  0  0  0  0  0  0  0  0
    7.3606    1.2462   24.1210 C   0  0  0  0  0  0  0  0  0  0  0  0
    6.4186    0.8454   24.5163 H   0  0  0  0  0  0  0  0  0  0  0  0
    8.1693    0.7412   24.6664 H   0  0  0  0  0  0  0  0  0  0  0  0
    7.4170    2.7755   24.2439 C   0  0  0  0  0  0  0  0  0  0  0  0
    7.9661    3.0835   25.1359 H   0  0  0  0  0  0  0  0  0  0  0  0
    6.4108    3.1964   24.3406 H   0  0  0  0  0  0  0  0  0  0  0  0
    8.0963    3.2656   22.9601 C   0  0  0  0  0  0  0  0  0  0  0  0
    9.1743    3.3857   23.1042 H   0  0  0  0  0  0  0  0  0  0  0  0
    7.7189    4.2418   22.6470 H   0  0  0  0  0  0  0  0  0  0  0  0
    7.8059    2.1907   21.9044 C   0  0  0  0  0  0  0  0  0  0  0  0
    6.9785    2.4841   21.2480 H   0  0  0  0  0  0  0  0  0  0  0  0
    8.6707    2.0121   21.2540 H   0  0  0  0  0  0  0  0  0  0  0  0
    7.3512   -0.6684   20.9368 N   0  0  0  0  0  0  0  0  0  0  0  0
    6.6464    0.0029   19.9000 C   0  0  0  0  0  0  0  0  0  0  0  0
    7.1719    0.0352   18.5933 C   0  0  0  0  0  0  0  0  0  0  0  0
    8.1209   -0.4428   18.3651 H   0  0  0  0  0  0  0  0  0  0  0  0
    6.5691    0.6722   17.5860 N   0  0  0  0  0  0  0  0  0  0  0  0
    5.4057    1.2954   17.8398 C   0  0  0  0  0  0  0  0  0  0  0  0
    4.9287    1.7866   16.9949 H   0  0  0  0  0  0  0  0  0  0  0  0
    4.8087    1.3093   19.1052 C   0  0  0  0  0  0  0  0  0  0  0  0
    3.8794    1.8404   19.2552 H   0  0  0  0  0  0  0  0  0  0  0  0
    5.4329    0.6446   20.1649 C   0  0  0  0  0  0  0  0  0  0  0  0
    5.0133    0.6346   21.1750 H   0  0  0  0  0  0  0  0  0  0  0  0
    7.7169   -1.9713   20.7885 N   0  0  0  0  0  0  0  0  0  0  0  0
  1  2  1  0
  2  3  1  0
  3  4  2  0
  4  5  1  0
  5  6  1  0
  6  7  1  0
  6  8  1  0
  6  9  1  0
  9 10  1  0
  9 11  1  0
  9 12  1  0
 12 13  1  0
 12 14  1  0
 12 15  1  0
 15 16  1  0
 15 17  1  0
  4 18  1  0
 18 19  1  0
 19 20  2  0
 20 21  1  0
 20 22  1  0
 22 23  2  0
 23 24  1  0
 23 25  1  0
 25 26  1  0
 25 27  2  0
 27 28  1  0
 18 29  1  0
 29  2  2  0
 15  5  1  0
 27 19  1  0
M  END
>  <cnnaffinity>  (1) 
-4.64287

>  <filename>  (1) 
c1cncc(-n2ncnc2N2CCCC2)c1

$$$$
