
     RDKit          3D

 33 36  0  0  0  0  0  0  0  0999 V2000
    4.9232    1.8172   16.9764 H   0  0  0  0  0  0  0  0  0  0  0  0
    5.3847    1.3025   17.8121 C   0  0  0  0  0  0  0  0  0  0  0  0
    6.5418    0.6808   17.5428 N   0  0  0  0  0  0  0  0  0  0  0  0
    7.1583    0.0777   18.5682 C   0  0  0  0  0  0  0  0  0  0  0  0
    8.1024   -0.4072   18.3206 H   0  0  0  0  0  0  0  0  0  0  0  0
    6.6806    0.0505   19.9049 C   0  0  0  0  0  0  0  0  0  0  0  0
    7.4385   -0.6393   21.0078 C   0  0  0  0  0  0  0  0  0  0  0  0
    7.4987   -0.2932   22.4131 C   0  0  0  0  0  0  0  0  0  0  0  0
    7.0476    0.9382   23.0578 C   0  0  0  0  0  0  0  0  0  0  0  0
    7.3996    2.1512   22.4920 C   0  0  0  0  0  0  0  0  0  0  0  0
    7.9702    2.1610   21.5645 H   0  0  0  0  0  0  0  0  0  0  0  0
    7.0078    3.3657   23.0927 C   0  0  0  0  0  0  0  0  0  0  0  0
    7.2830    4.2992   22.6080 H   0  0  0  0  0  0  0  0  0  0  0  0
    6.2705    3.3582   24.2568 C   0  0  0  0  0  0  0  0  0  0  0  0
    5.9533    4.2941   24.7122 H   0  0  0  0  0  0  0  0  0  0  0  0
    5.8858    2.1219   24.8693 C   0  0  0  0  0  0  0  0  0  0  0  0
    5.1023    2.0745   26.0655 C   0  0  0  0  0  0  0  0  0  0  0  0
    4.8186    3.0087   26.5404 H   0  0  0  0  0  0  0  0  0  0  0  0
    4.7027    0.8772   26.6111 C   0  0  0  0  0  0  0  0  0  0  0  0
    4.1178    0.8489   27.5278 H   0  0  0  0  0  0  0  0  0  0  0  0
    5.0603   -0.3498   25.9960 C   0  0  0  0  0  0  0  0  0  0  0  0
    4.7308   -1.2947   26.4218 H   0  0  0  0  0  0  0  0  0  0  0  0
    5.8295   -0.3520   24.8590 C   0  0  0  0  0  0  0  0  0  0  0  0
    6.1026   -1.2904   24.3802 H   0  0  0  0  0  0  0  0  0  0  0  0
    6.2716    0.8810   24.2613 C   0  0  0  0  0  0  0  0  0  0  0  0
    8.1527   -1.1860   23.1217 N   0  0  0  0  0  0  0  0  0  0  0  0
    8.5719   -2.1277   22.2334 O   0  0  0  0  0  0  0  0  0  0  0  0
    8.1734   -1.7832   21.0072 C   0  0  0  0  0  0  0  0  0  0  0  0
    8.5633   -2.4566   20.2754 H   0  0  0  0  0  0  0  0  0  0  0  0
    5.4407    0.6872   20.1367 C   0  0  0  0  0  0  0  0  0  0  0  0
    4.9970    0.6940   21.1354 H   0  0  0  0  0  0  0  0  0  0  0  0
    4.7872    1.3218   19.0748 C   0  0  0  0  0  0  0  0  0  0  0  0
    3.8407    1.8391   19.2035 H   0  0  0  0  0  0  0  0  0  0  0  0
  1  2  1  0
  2  3  2  0
  3  4  1  0
  4  5  1  0
  4  6  2  0
  6  7  1  0
  7  8  1  0
  8  9  1  0
  9 10  2  0
 10 11  1  0
 10 12  1  0
 12 13  1  0
 12 14  2  0
 14 15  1  0
 14 16  1  0
 16 17  2  0
 17 18  1  0
 17 19  1  0
 19 20  1  0
 19 21  2  0
 21 22  1  0
 21 23  1  0
 23 24  1  0
 23 25  2  0
  8 26  2  0
 26 27  1  0
 27 28  1  0
 28 29  1  0
  6 30  1  0
 30 31  1  0
 30 32  2  0
 32 33  1  0
 32  2  1  0
 28  7  2  0
 25  9  1  0
 25 16  1  0
M  END
>  <cnnaffinity>  (1) 
-4.54581

>  <filename>  (1) 
c1cncc(-c2conc2-c2cccc3ccccc23)c1

$$$$
