
     RDKit          3D

 38 41  0  0  0  0  0  0  0  0999 V2000
    5.1268    1.7866   16.9905 H   0  0  0  0  0  0  0  0  0  0  0  0
    5.4688    1.2338   17.8658 C   0  0  0  0  0  0  0  0  0  0  0  0
    6.5836    0.5011   17.7204 N   0  0  0  0  0  0  0  0  0  0  0  0
    7.0354   -0.1750   18.7964 C   0  0  0  0  0  0  0  0  0  0  0  0
    7.9434   -0.7525   18.6339 H   0  0  0  0  0  0  0  0  0  0  0  0
    6.4225   -0.1620   20.0809 C   0  0  0  0  0  0  0  0  0  0  0  0
    6.9416   -0.7962   21.2571 N   0  0  0  0  0  0  0  0  0  0  0  0
    6.2249   -0.8351   21.9721 H   0  0  0  0  0  0  0  0  0  0  0  0
    8.1870   -0.3105   21.8831 C   0  0  0  0  0  0  0  0  0  0  0  0
    8.2247   -0.7241   23.3376 C   0  0  0  0  0  0  0  0  0  0  0  0
    8.0390    0.2024   24.3382 C   0  0  0  0  0  0  0  0  0  0  0  0
    7.7156    1.2114   24.0962 H   0  0  0  0  0  0  0  0  0  0  0  0
    8.2577   -0.0139   25.6635 N   0  0  0  0  0  0  0  0  0  0  0  0
    8.6336   -1.2178   26.0314 C   0  0  0  0  0  0  0  0  0  0  0  0
    8.8608   -1.3679   27.0876 H   0  0  0  0  0  0  0  0  0  0  0  0
    8.7393   -2.3239   25.1408 C   0  0  0  0  0  0  0  0  0  0  0  0
    9.0529   -3.6424   25.6050 C   0  0  0  0  0  0  0  0  0  0  0  0
    9.2310   -3.8079   26.6671 H   0  0  0  0  0  0  0  0  0  0  0  0
    9.1075   -4.6879   24.7167 C   0  0  0  0  0  0  0  0  0  0  0  0
    9.3354   -5.6900   25.0700 H   0  0  0  0  0  0  0  0  0  0  0  0
    8.8478   -4.4682   23.3366 C   0  0  0  0  0  0  0  0  0  0  0  0
    8.8932   -5.3059   22.6499 H   0  0  0  0  0  0  0  0  0  0  0  0
    8.5482   -3.2032   22.8700 C   0  0  0  0  0  0  0  0  0  0  0  0
    8.3255   -3.0430   21.8212 H   0  0  0  0  0  0  0  0  0  0  0  0
    8.5007   -2.0825   23.7532 C   0  0  0  0  0  0  0  0  0  0  0  0
    8.5081    1.1917   21.5669 C   0  0  0  0  0  0  0  0  0  0  0  0
    7.7044    1.7328   21.0587 H   0  0  0  0  0  0  0  0  0  0  0  0
    8.8407    1.7649   22.4299 H   0  0  0  0  0  0  0  0  0  0  0  0
    9.6656    0.7507   20.6495 C   0  0  0  0  0  0  0  0  0  0  0  0
    9.4679    0.8661   19.5842 H   0  0  0  0  0  0  0  0  0  0  0  0
   10.6232    1.2212   20.8784 H   0  0  0  0  0  0  0  0  0  0  0  0
    9.4630   -0.7086   21.0884 C   0  0  0  0  0  0  0  0  0  0  0  0
   10.2576   -1.1047   21.7233 H   0  0  0  0  0  0  0  0  0  0  0  0
    9.3026   -1.4297   20.2839 H   0  0  0  0  0  0  0  0  0  0  0  0
    5.2225    0.5588   20.1732 C   0  0  0  0  0  0  0  0  0  0  0  0
    4.6876    0.5701   21.1242 H   0  0  0  0  0  0  0  0  0  0  0  0
    4.7530    1.2834   19.0692 C   0  0  0  0  0  0  0  0  0  0  0  0
    3.8612    1.8952   19.1386 H   0  0  0  0  0  0  0  0  0  0  0  0
  1  2  1  0
  2  3  2  0
  3  4  1  0
  4  5  1  0
  4  6  2  0
  6  7  1  0
  7  8  1  0
  7  9  1  0
  9 10  1  0
 10 11  2  0
 11 12  1  0
 11 13  1  0
 13 14  2  0
 14 15  1  0
 14 16  1  0
 16 17  2  0
 17 18  1  0
 17 19  1  0
 19 20  1  0
 19 21  2  0
 21 22  1  0
 21 23  1  0
 23 24  1  0
 23 25  2  0
  9 26  1  0
 26 27  1  0
 26 28  1  0
 26 29  1  0
 29 30  1  0
 29 31  1  0
 29 32  1  0
 32 33  1  0
 32 34  1  0
  6 35  1  0
 35 36  1  0
 35 37  2  0
 37 38  1  0
 37  2  1  0
 32  9  1  0
 25 10  1  0
 25 16  1  0
M  END
>  <cnnaffinity>  (1) 
-5.29474

>  <filename>  (1) 
c1cncc(NC2(c3cncc4ccccc34)CCC2)c1

$$$$
