
     RDKit          3D

 32 34  0  0  0  0  0  0  0  0999 V2000
    8.7146   -3.2117   22.1738 H   0  0  0  0  0  0  0  0  0  0  0  0
    8.3180   -2.2370   21.9344 C   0  0  0  0  0  0  0  0  0  0  0  0
    8.4595   -1.1735   22.7620 N   0  0  0  0  0  0  0  0  0  0  0  0
    7.8458   -0.2013   22.1143 C   0  0  0  0  0  0  0  0  0  0  0  0
    7.8120    1.2605   22.4930 C   0  0  0  0  0  0  0  0  0  0  0  0
    6.8168    1.6447   22.2377 H   0  0  0  0  0  0  0  0  0  0  0  0
    8.8529    2.0720   21.6785 C   0  0  0  0  0  0  0  0  0  0  0  0
    8.6138    3.1397   21.7705 H   0  0  0  0  0  0  0  0  0  0  0  0
    8.7974    1.8154   20.6138 H   0  0  0  0  0  0  0  0  0  0  0  0
   10.2737    1.8512   22.2088 C   0  0  0  0  0  0  0  0  0  0  0  0
   10.5755    0.8043   22.0505 H   0  0  0  0  0  0  0  0  0  0  0  0
   10.9827    2.4722   21.6471 H   0  0  0  0  0  0  0  0  0  0  0  0
   10.3900    2.1610   23.6401 N   0  0  0  0  0  0  0  0  0  0  0  0
   10.1101    3.1362   23.7666 H   0  0  0  0  0  0  0  0  0  0  0  0
    9.4865    1.3288   24.4444 C   0  0  0  0  0  0  0  0  0  0  0  0
    9.5836    1.6108   25.5003 H   0  0  0  0  0  0  0  0  0  0  0  0
    9.8155    0.2855   24.3666 H   0  0  0  0  0  0  0  0  0  0  0  0
    8.0171    1.4580   24.0109 C   0  0  0  0  0  0  0  0  0  0  0  0
    7.3946    0.7483   24.5686 H   0  0  0  0  0  0  0  0  0  0  0  0
    7.6755    2.4676   24.2719 H   0  0  0  0  0  0  0  0  0  0  0  0
    7.3606   -0.6882   20.9299 N   0  0  0  0  0  0  0  0  0  0  0  0
    6.6579    0.0051   19.9036 C   0  0  0  0  0  0  0  0  0  0  0  0
    7.1801    0.0501   18.5989 C   0  0  0  0  0  0  0  0  0  0  0  0
    8.1307   -0.4387   18.3813 H   0  0  0  0  0  0  0  0  0  0  0  0
    6.5716    0.6809   17.5895 N   0  0  0  0  0  0  0  0  0  0  0  0
    5.4010    1.2925   17.8442 C   0  0  0  0  0  0  0  0  0  0  0  0
    4.9069    1.7736   17.0037 H   0  0  0  0  0  0  0  0  0  0  0  0
    4.8052    1.3102   19.1088 C   0  0  0  0  0  0  0  0  0  0  0  0
    3.8717    1.8451   19.2684 H   0  0  0  0  0  0  0  0  0  0  0  0
    5.4450    0.6536   20.1638 C   0  0  0  0  0  0  0  0  0  0  0  0
    5.0104    0.6253   21.1620 H   0  0  0  0  0  0  0  0  0  0  0  0
    7.6742   -1.9996   20.8113 N   0  0  0  0  0  0  0  0  0  0  0  0
  1  2  1  0
  2  3  1  0
  3  4  2  0
  4  5  1  0
  5  6  1  0
  5  7  1  0
  7  8  1  0
  7  9  1  0
  7 10  1  0
 10 11  1  0
 10 12  1  0
 10 13  1  0
 13 14  1  0
 13 15  1  0
 15 16  1  0
 15 17  1  0
 15 18  1  0
 18 19  1  0
 18 20  1  0
  4 21  1  0
 21 22  1  0
 22 23  2  0
 23 24  1  0
 23 25  1  0
 25 26  2  0
 26 27  1  0
 26 28  1  0
 28 29  1  0
 28 30  2  0
 30 31  1  0
 21 32  1  0
 32  2  2  0
 18  5  1  0
 30 22  1  0
M  END
>  <cnnaffinity>  (1) 
-4.86533

>  <filename>  (1) 
c1cncc(-n2ncnc2C2CCNCC2)c1

$$$$
