
     RDKit          3D

 36 38  0  0  0  0  0  0  0  0999 V2000
    4.9525    1.7538   17.0354 H   0  0  0  0  0  0  0  0  0  0  0  0
    5.4563    1.2406   17.8541 C   0  0  0  0  0  0  0  0  0  0  0  0
    6.6154    0.6280   17.5537 N   0  0  0  0  0  0  0  0  0  0  0  0
    7.2485   -0.0159   18.5433 C   0  0  0  0  0  0  0  0  0  0  0  0
    8.1877   -0.4949   18.2632 H   0  0  0  0  0  0  0  0  0  0  0  0
    6.7861   -0.1111   19.8856 C   0  0  0  0  0  0  0  0  0  0  0  0
    7.5515   -0.7691   20.8570 N   0  0  0  0  0  0  0  0  0  0  0  0
    8.2714   -1.3627   20.4722 H   0  0  0  0  0  0  0  0  0  0  0  0
    7.0684   -1.2119   22.1400 C   0  0  0  0  0  0  0  0  0  0  0  0
    6.1196   -2.4272   22.1718 C   0  0  0  0  0  0  0  0  0  0  0  0
    5.2152   -2.0402   21.6770 H   0  0  0  0  0  0  0  0  0  0  0  0
    6.5565   -3.6439   21.3112 C   0  0  0  0  0  0  0  0  0  0  0  0
    6.5173   -3.3994   20.2450 H   0  0  0  0  0  0  0  0  0  0  0  0
    7.5985   -3.9158   21.5367 H   0  0  0  0  0  0  0  0  0  0  0  0
    5.6309   -4.8371   21.6208 C   0  0  0  0  0  0  0  0  0  0  0  0
    5.7185   -5.6316   20.8737 H   0  0  0  0  0  0  0  0  0  0  0  0
    4.5869   -4.4927   21.5682 H   0  0  0  0  0  0  0  0  0  0  0  0
    5.8917   -5.3822   23.0472 C   0  0  0  0  0  0  0  0  0  0  0  0
    4.9821   -5.8680   23.4198 H   0  0  0  0  0  0  0  0  0  0  0  0
    6.6637   -6.1599   23.0231 H   0  0  0  0  0  0  0  0  0  0  0  0
    6.3308   -4.2567   24.0132 C   0  0  0  0  0  0  0  0  0  0  0  0
    6.0802   -4.4983   25.0529 H   0  0  0  0  0  0  0  0  0  0  0  0
    7.4210   -4.1496   23.9804 H   0  0  0  0  0  0  0  0  0  0  0  0
    5.7105   -2.9125   23.6104 C   0  0  0  0  0  0  0  0  0  0  0  0
    4.6213   -3.0359   23.6571 H   0  0  0  0  0  0  0  0  0  0  0  0
    5.9352   -2.1574   24.3665 H   0  0  0  0  0  0  0  0  0  0  0  0
    8.0155   -0.9024   23.2688 C   0  0  0  0  0  0  0  0  0  0  0  0
    8.0827   -1.5897   24.1105 H   0  0  0  0  0  0  0  0  0  0  0  0
    8.9499   -0.4100   23.0175 H   0  0  0  0  0  0  0  0  0  0  0  0
    6.7624   -0.0818   23.0802 C   0  0  0  0  0  0  0  0  0  0  0  0
    5.9524   -0.1983   23.7932 H   0  0  0  0  0  0  0  0  0  0  0  0
    6.8867    0.9323   22.7103 H   0  0  0  0  0  0  0  0  0  0  0  0
    5.5746    0.5384   20.1674 C   0  0  0  0  0  0  0  0  0  0  0  0
    5.1804    0.5067   21.1788 H   0  0  0  0  0  0  0  0  0  0  0  0
    4.9072    1.2213   19.1392 C   0  0  0  0  0  0  0  0  0  0  0  0
    3.9740    1.7440   19.3269 H   0  0  0  0  0  0  0  0  0  0  0  0
  1  2  1  0
  2  3  2  0
  3  4  1  0
  4  5  1  0
  4  6  2  0
  6  7  1  0
  7  8  1  0
  7  9  1  0
  9 10  1  0
 10 11  1  0
 10 12  1  0
 12 13  1  0
 12 14  1  0
 12 15  1  0
 15 16  1  0
 15 17  1  0
 15 18  1  0
 18 19  1  0
 18 20  1  0
 18 21  1  0
 21 22  1  0
 21 23  1  0
 21 24  1  0
 24 25  1  0
 24 26  1  0
  9 27  1  0
 27 28  1  0
 27 29  1  0
 27 30  1  0
 30 31  1  0
 30 32  1  0
  6 33  1  0
 33 34  1  0
 33 35  2  0
 35 36  1  0
 35  2  1  0
 30  9  1  0
 24 10  1  0
M  END
>  <cnnaffinity>  (1) 
-4.79276

>  <filename>  (1) 
c1cncc(NC2(C3CCCCC3)CC2)c1

$$$$
