
     RDKit          3D

 34 37  0  0  0  0  0  0  0  0999 V2000
    5.1627    1.5293   16.5277 H   0  0  0  0  0  0  0  0  0  0  0  0
    5.5015    1.0566   17.4466 C   0  0  0  0  0  0  0  0  0  0  0  0
    6.6837    0.4301   17.3902 N   0  0  0  0  0  0  0  0  0  0  0  0
    7.1340   -0.1463   18.5125 C   0  0  0  0  0  0  0  0  0  0  0  0
    8.1174   -0.6061   18.4581 H   0  0  0  0  0  0  0  0  0  0  0  0
    6.4093   -0.1787   19.7245 C   0  0  0  0  0  0  0  0  0  0  0  0
    6.8922   -0.9100   20.9200 C   0  0  0  0  0  0  0  0  0  0  0  0
    6.1695   -1.7059   21.7312 C   0  0  0  0  0  0  0  0  0  0  0  0
    5.1502   -2.0260   21.5683 H   0  0  0  0  0  0  0  0  0  0  0  0
    7.0338   -2.2262   23.1577 S   0  0  0  0  0  0  0  0  0  0  0  0
    8.4319   -1.3492   22.6109 C   0  0  0  0  0  0  0  0  0  0  0  0
    9.6762   -1.1379   22.9945 N   0  0  0  0  0  0  0  0  0  0  0  0
   10.1834   -0.4626   21.9193 C   0  0  0  0  0  0  0  0  0  0  0  0
   11.6235   -0.0454   21.8442 C   0  0  0  0  0  0  0  0  0  0  0  0
   11.6933    0.5339   20.9211 H   0  0  0  0  0  0  0  0  0  0  0  0
   12.5740   -1.2666   21.7328 C   0  0  0  0  0  0  0  0  0  0  0  0
   12.3962   -1.7983   20.7906 H   0  0  0  0  0  0  0  0  0  0  0  0
   12.3467   -1.9708   22.5393 H   0  0  0  0  0  0  0  0  0  0  0  0
   14.0613   -0.8587   21.8317 C   0  0  0  0  0  0  0  0  0  0  0  0
   14.5733   -1.4925   22.5671 H   0  0  0  0  0  0  0  0  0  0  0  0
   14.5687   -0.9762   20.8737 H   0  0  0  0  0  0  0  0  0  0  0  0
   14.2769    0.4904   22.1960 O   0  0  0  0  0  0  0  0  0  0  0  0
   13.5267    0.8586   23.3297 C   0  0  0  0  0  0  0  0  0  0  0  0
   13.8760    1.8461   23.6442 H   0  0  0  0  0  0  0  0  0  0  0  0
   13.7477    0.1651   24.1554 H   0  0  0  0  0  0  0  0  0  0  0  0
   12.0137    0.8747   23.0368 C   0  0  0  0  0  0  0  0  0  0  0  0
   11.4811    0.5715   23.9451 H   0  0  0  0  0  0  0  0  0  0  0  0
   11.6997    1.8975   22.7989 H   0  0  0  0  0  0  0  0  0  0  0  0
    9.3372   -0.2285   20.9309 N   0  0  0  0  0  0  0  0  0  0  0  0
    8.1968   -0.7959   21.4045 N   0  0  0  0  0  0  0  0  0  0  0  0
    5.1744    0.4920   19.7579 C   0  0  0  0  0  0  0  0  0  0  0  0
    4.6060    0.5565   20.6874 H   0  0  0  0  0  0  0  0  0  0  0  0
    4.7171    1.1235   18.6018 C   0  0  0  0  0  0  0  0  0  0  0  0
    3.7841    1.6739   18.5867 H   0  0  0  0  0  0  0  0  0  0  0  0
  1  2  1  0
  2  3  2  0
  3  4  1  0
  4  5  1  0
  4  6  2  0
  6  7  1  0
  7  8  2  0
  8  9  1  0
  8 10  1  0
 10 11  1  0
 11 12  2  0
 12 13  1  0
 13 14  1  0
 14 15  1  0
 14 16  1  0
 16 17  1  0
 16 18  1  0
 16 19  1  0
 19 20  1  0
 19 21  1  0
 19 22  1  0
 22 23  1  0
 23 24  1  0
 23 25  1  0
 23 26  1  0
 26 27  1  0
 26 28  1  0
 13 29  2  0
 29 30  1  0
  6 31  1  0
 31 32  1  0
 31 33  2  0
 33 34  1  0
 33  2  1  0
 30  7  1  0
 30 11  1  0
 26 14  1  0
M  END
>  <cnnaffinity>  (1) 
-5.5512

>  <filename>  (1) 
c1cncc(-c2csc3nc(C4CCOCC4)nn23)c1

$$$$
