
     RDKit          3D

 30 32  0  0  0  0  0  0  0  0999 V2000
    4.9385    1.8024   17.0047 H   0  0  0  0  0  0  0  0  0  0  0  0
    5.4004    1.2863   17.8397 C   0  0  0  0  0  0  0  0  0  0  0  0
    6.5592    0.6563   17.5765 N   0  0  0  0  0  0  0  0  0  0  0  0
    7.1710    0.0390   18.5949 C   0  0  0  0  0  0  0  0  0  0  0  0
    8.1217   -0.4456   18.3646 H   0  0  0  0  0  0  0  0  0  0  0  0
    6.6539    0.0182   19.9040 C   0  0  0  0  0  0  0  0  0  0  0  0
    7.3178   -0.7034   20.9399 N   0  0  0  0  0  0  0  0  0  0  0  0
    7.7673   -0.2335   22.1615 C   0  0  0  0  0  0  0  0  0  0  0  0
    7.4568    1.1460   22.7171 C   0  0  1  0  0  0  0  0  0  0  0  0
    7.2538    1.8103   21.8663 H   0  0  0  0  0  0  0  0  0  0  0  0
    6.2769    1.2074   23.6238 N   0  0  0  0  0  0  0  0  0  0  0  0
    6.3153    0.3890   24.2271 H   0  0  0  0  0  0  0  0  0  0  0  0
    6.4621    2.3819   24.4906 C   0  0  0  0  0  0  0  0  0  0  0  0
    6.0942    2.1403   25.4942 H   0  0  0  0  0  0  0  0  0  0  0  0
    5.8488    3.2160   24.1325 H   0  0  0  0  0  0  0  0  0  0  0  0
    7.9634    2.7502   24.4674 C   0  0  0  0  0  0  0  0  0  0  0  0
    8.0916    3.7668   24.0848 H   0  0  0  0  0  0  0  0  0  0  0  0
    8.4075    2.7271   25.4666 H   0  0  0  0  0  0  0  0  0  0  0  0
    8.6198    1.7221   23.5372 C   0  0  0  0  0  0  0  0  0  0  0  0
    9.3808    2.1507   22.8761 H   0  0  0  0  0  0  0  0  0  0  0  0
    9.0820    0.9146   24.1128 H   0  0  0  0  0  0  0  0  0  0  0  0
    8.4268   -1.1774   22.8063 N   0  0  0  0  0  0  0  0  0  0  0  0
    8.3325   -2.3066   22.0405 C   0  0  0  0  0  0  0  0  0  0  0  0
    8.7760   -3.2303   22.3805 H   0  0  0  0  0  0  0  0  0  0  0  0
    7.6391   -2.0413   20.8954 C   0  0  0  0  0  0  0  0  0  0  0  0
    7.2286   -2.6567   20.1102 H   0  0  0  0  0  0  0  0  0  0  0  0
    5.4529    0.6848   20.1690 C   0  0  0  0  0  0  0  0  0  0  0  0
    5.0583    0.7027   21.1894 H   0  0  0  0  0  0  0  0  0  0  0  0
    4.7991    1.3141   19.1036 C   0  0  0  0  0  0  0  0  0  0  0  0
    3.8620    1.8459   19.2494 H   0  0  0  0  0  0  0  0  0  0  0  0
  1  2  1  0
  2  3  2  0
  3  4  1  0
  4  5  1  0
  4  6  2  0
  6  7  1  0
  7  8  1  0
  8  9  1  0
  9 10  1  6
  9 11  1  0
 11 12  1  0
 11 13  1  0
 13 14  1  0
 13 15  1  0
 13 16  1  0
 16 17  1  0
 16 18  1  0
 16 19  1  0
 19 20  1  0
 19 21  1  0
  8 22  2  0
 22 23  1  0
 23 24  1  0
 23 25  2  0
 25 26  1  0
  6 27  1  0
 27 28  1  0
 27 29  2  0
 29 30  1  0
 29  2  1  0
 25  7  1  0
 19  9  1  0
M  END
>  <cnnaffinity>  (1) 
-4.67621

>  <filename>  (1) 
c1cncc(-n2ccnc2[C@@H]2CCCN2)c1

$$$$
