
     RDKit          3D

 33 35  0  0  0  0  0  0  0  0999 V2000
    4.9157    1.7788   16.9984 H   0  0  0  0  0  0  0  0  0  0  0  0
    5.4046    1.2920   17.8421 C   0  0  0  0  0  0  0  0  0  0  0  0
    6.5705    0.6725   17.5959 N   0  0  0  0  0  0  0  0  0  0  0  0
    7.1796    0.0601   18.6170 C   0  0  0  0  0  0  0  0  0  0  0  0
    8.1236   -0.4383   18.3923 H   0  0  0  0  0  0  0  0  0  0  0  0
    6.6648    0.0183   19.9291 C   0  0  0  0  0  0  0  0  0  0  0  0
    7.3842   -0.6743   20.8778 O   0  0  0  0  0  0  0  0  0  0  0  0
    7.2985   -0.3496   22.2084 C   0  0  0  0  0  0  0  0  0  0  0  0
    7.1207   -1.2663   23.2551 C   0  0  0  0  0  0  0  0  0  0  0  0
    6.9812   -2.3330   23.1705 H   0  0  0  0  0  0  0  0  0  0  0  0
    7.1541   -0.6619   24.4383 N   0  0  0  0  0  0  0  0  0  0  0  0
    7.3621    0.6220   24.1427 N   0  0  0  0  0  0  0  0  0  0  0  0
    7.4084    1.2888   24.8913 H   0  0  0  0  0  0  0  0  0  0  0  0
    7.4761    0.8851   22.8111 C   0  0  0  0  0  0  0  0  0  0  0  0
    7.8066    2.1970   22.1644 C   0  0  0  0  0  0  0  0  0  0  0  0
    6.9946    2.3762   21.4428 H   0  0  0  0  0  0  0  0  0  0  0  0
    7.8567    3.3971   23.1338 C   0  0  0  0  0  0  0  0  0  0  0  0
    7.0022    3.3792   23.8198 H   0  0  0  0  0  0  0  0  0  0  0  0
    7.7679    4.3156   22.5420 H   0  0  0  0  0  0  0  0  0  0  0  0
    9.1739    3.4676   23.9111 C   0  0  0  0  0  0  0  0  0  0  0  0
    9.2601    2.6430   24.6377 H   0  0  0  0  0  0  0  0  0  0  0  0
    9.2367    4.4066   24.4712 H   0  0  0  0  0  0  0  0  0  0  0  0
   10.2899    3.4303   23.0380 O   0  0  0  0  0  0  0  0  0  0  0  0
   10.3395    2.2220   22.2974 C   0  0  0  0  0  0  0  0  0  0  0  0
   11.2708    2.2366   21.7198 H   0  0  0  0  0  0  0  0  0  0  0  0
   10.3905    1.3659   22.9924 H   0  0  0  0  0  0  0  0  0  0  0  0
    9.1306    2.0980   21.3711 C   0  0  0  0  0  0  0  0  0  0  0  0
    9.1618    2.9234   20.6574 H   0  0  0  0  0  0  0  0  0  0  0  0
    9.1861    1.1609   20.8059 H   0  0  0  0  0  0  0  0  0  0  0  0
    5.4344    0.6421   20.1735 C   0  0  0  0  0  0  0  0  0  0  0  0
    5.0054    0.6250   21.1755 H   0  0  0  0  0  0  0  0  0  0  0  0
    4.8103    1.3068   19.1093 C   0  0  0  0  0  0  0  0  0  0  0  0
    3.8774    1.8416   19.2608 H   0  0  0  0  0  0  0  0  0  0  0  0
  1  2  1  0
  2  3  2  0
  3  4  1  0
  4  5  1  0
  4  6  2  0
  6  7  1  0
  7  8  1  0
  8  9  1  0
  9 10  1  0
  9 11  2  0
 11 12  1  0
 12 13  1  0
 12 14  1  0
 14 15  1  0
 15 16  1  0
 15 17  1  0
 17 18  1  0
 17 19  1  0
 17 20  1  0
 20 21  1  0
 20 22  1  0
 20 23  1  0
 23 24  1  0
 24 25  1  0
 24 26  1  0
 24 27  1  0
 27 28  1  0
 27 29  1  0
  6 30  1  0
 30 31  1  0
 30 32  2  0
 32 33  1  0
 32  2  1  0
 14  8  2  0
 27 15  1  0
M  END
>  <cnnaffinity>  (1) 
-4.75769

>  <filename>  (1) 
c1cncc(Oc2cn[nH]c2C2CCOCC2)c1

$$$$
