
     RDKit          3D

 39 42  0  0  0  0  0  0  0  0999 V2000
    4.9322    1.8041   16.9735 H   0  0  0  0  0  0  0  0  0  0  0  0
    5.3952    1.3010   17.8214 C   0  0  0  0  0  0  0  0  0  0  0  0
    6.5566    0.6771   17.5696 N   0  0  0  0  0  0  0  0  0  0  0  0
    7.1590    0.0616   18.5968 C   0  0  0  0  0  0  0  0  0  0  0  0
    8.1039   -0.4260   18.3616 H   0  0  0  0  0  0  0  0  0  0  0  0
    6.6422   -0.0005   19.9017 C   0  0  0  0  0  0  0  0  0  0  0  0
    7.3622   -0.7377   20.9749 C   0  0  0  0  0  0  0  0  0  0  0  0
    8.7474   -0.6010   21.1504 C   0  0  0  0  0  0  0  0  0  0  0  0
    9.3255    0.0536   20.5120 H   0  0  0  0  0  0  0  0  0  0  0  0
    9.3536   -1.2694   22.2072 C   0  0  0  0  0  0  0  0  0  0  0  0
   10.4258   -1.1761   22.3723 H   0  0  0  0  0  0  0  0  0  0  0  0
    8.6995   -2.0396   23.0781 N   0  0  0  0  0  0  0  0  0  0  0  0
    7.3886   -2.2257   22.8758 C   0  0  0  0  0  0  0  0  0  0  0  0
    6.7601   -3.0898   23.7429 N   0  0  0  0  0  0  0  0  0  0  0  0
    5.4903   -3.7188   23.3994 C   0  0  0  0  0  0  0  0  0  0  0  0
    4.6411   -3.0307   23.5704 H   0  0  0  0  0  0  0  0  0  0  0  0
    5.4924   -3.9558   22.3254 H   0  0  0  0  0  0  0  0  0  0  0  0
    5.1976   -5.0104   24.1678 C   0  0  0  0  0  0  0  0  0  0  0  0
    4.0335   -5.7395   23.8744 C   0  0  0  0  0  0  0  0  0  0  0  0
    3.3603   -5.3922   23.0910 H   0  0  0  0  0  0  0  0  0  0  0  0
    3.6993   -6.8796   24.6103 C   0  0  0  0  0  0  0  0  0  0  0  0
    2.8095   -7.4488   24.3572 H   0  0  0  0  0  0  0  0  0  0  0  0
    4.5124   -7.2890   25.6710 C   0  0  0  0  0  0  0  0  0  0  0  0
    4.1883   -8.1125   26.3056 H   0  0  0  0  0  0  0  0  0  0  0  0
    5.7027   -6.6040   25.9311 C   0  0  0  0  0  0  0  0  0  0  0  0
    6.3853   -6.9630   26.7002 H   0  0  0  0  0  0  0  0  0  0  0  0
    6.0500   -5.4581   25.1982 C   0  0  0  0  0  0  0  0  0  0  0  0
    7.3200   -4.6768   25.5033 C   0  0  0  0  0  0  0  0  0  0  0  0
    8.1548   -5.0930   24.9219 H   0  0  0  0  0  0  0  0  0  0  0  0
    7.5795   -4.7602   26.5660 H   0  0  0  0  0  0  0  0  0  0  0  0
    7.1771   -3.1977   25.1362 C   0  0  0  0  0  0  0  0  0  0  0  0
    6.4199   -2.7155   25.7810 H   0  0  0  0  0  0  0  0  0  0  0  0
    8.1223   -2.6653   25.2800 H   0  0  0  0  0  0  0  0  0  0  0  0
    6.6796   -1.5819   21.8427 C   0  0  0  0  0  0  0  0  0  0  0  0
    5.6128   -1.7308   21.7671 H   0  0  0  0  0  0  0  0  0  0  0  0
    5.4231    0.6573   20.1387 C   0  0  0  0  0  0  0  0  0  0  0  0
    4.9976    0.6542   21.1437 H   0  0  0  0  0  0  0  0  0  0  0  0
    4.7921    1.3224   19.0848 C   0  0  0  0  0  0  0  0  0  0  0  0
    3.8585    1.8574   19.2276 H   0  0  0  0  0  0  0  0  0  0  0  0
  1  2  1  0
  2  3  2  0
  3  4  1  0
  4  5  1  0
  4  6  2  0
  6  7  1  0
  7  8  2  0
  8  9  1  0
  8 10  1  0
 10 11  1  0
 10 12  2  0
 12 13  1  0
 13 14  1  0
 14 15  1  0
 15 16  1  0
 15 17  1  0
 15 18  1  0
 18 19  2  0
 19 20  1  0
 19 21  1  0
 21 22  1  0
 21 23  2  0
 23 24  1  0
 23 25  1  0
 25 26  1  0
 25 27  2  0
 27 28  1  0
 28 29  1  0
 28 30  1  0
 28 31  1  0
 31 32  1  0
 31 33  1  0
 13 34  2  0
 34 35  1  0
  6 36  1  0
 36 37  1  0
 36 38  2  0
 38 39  1  0
 38  2  1  0
 34  7  1  0
 31 14  1  0
 27 18  1  0
M  END
>  <cnnaffinity>  (1) 
-5.25541

>  <filename>  (1) 
c1cncc(-c2ccnc(N3CCc4ccccc4C3)c2)c1

$$$$
