
     RDKit          3D

 29 32  0  0  0  0  0  0  0  0999 V2000
    4.9617    1.8320   16.8646 H   0  0  0  0  0  0  0  0  0  0  0  0
    5.4024    1.3296   17.7223 C   0  0  0  0  0  0  0  0  0  0  0  0
    6.5755    0.7075   17.5102 N   0  0  0  0  0  0  0  0  0  0  0  0
    7.1534    0.0972   18.5484 C   0  0  0  0  0  0  0  0  0  0  0  0
    8.0943   -0.4251   18.3705 H   0  0  0  0  0  0  0  0  0  0  0  0
    6.5979    0.1009   19.8414 C   0  0  0  0  0  0  0  0  0  0  0  0
    7.3161   -0.5881   20.8106 O   0  0  0  0  0  0  0  0  0  0  0  0
    7.4434   -0.2206   22.0917 C   0  0  0  0  0  0  0  0  0  0  0  0
    7.7581   -1.1382   22.9341 N   0  0  0  0  0  0  0  0  0  0  0  0
    7.8541   -0.5681   24.1714 N   0  0  0  0  0  0  0  0  0  0  0  0
    8.1988   -0.9833   25.4398 C   0  0  0  0  0  0  0  0  0  0  0  0
    8.5216   -2.3730   25.7533 C   0  0  0  0  0  0  0  0  0  0  0  0
    9.2611   -2.6307   26.9119 C   0  0  0  0  0  0  0  0  0  0  0  0
    9.5309   -1.8143   27.5831 H   0  0  0  0  0  0  0  0  0  0  0  0
    9.6729   -3.8524   27.2511 N   0  0  0  0  0  0  0  0  0  0  0  0
    9.3562   -4.8722   26.4492 C   0  0  0  0  0  0  0  0  0  0  0  0
    9.7104   -5.8496   26.7644 H   0  0  0  0  0  0  0  0  0  0  0  0
    8.6040   -4.7178   25.2799 C   0  0  0  0  0  0  0  0  0  0  0  0
    8.3784   -5.5788   24.6673 H   0  0  0  0  0  0  0  0  0  0  0  0
    8.1694   -3.4486   24.9208 C   0  0  0  0  0  0  0  0  0  0  0  0
    7.5878   -3.2811   24.0116 H   0  0  0  0  0  0  0  0  0  0  0  0
    8.2249    0.0611   26.2349 N   0  0  0  0  0  0  0  0  0  0  0  0
    7.8763    1.1821   25.5076 N   0  0  0  0  0  0  0  0  0  0  0  0
    7.6823    0.7726   24.2836 C   0  0  0  0  0  0  0  0  0  0  0  0
    7.3316    1.4391   22.7037 S   0  0  0  0  0  0  0  0  0  0  0  0
    5.3477    0.6817   20.0520 C   0  0  0  0  0  0  0  0  0  0  0  0
    4.8518    0.6279   21.0230 H   0  0  0  0  0  0  0  0  0  0  0  0
    4.7505    1.3249   18.9574 C   0  0  0  0  0  0  0  0  0  0  0  0
    3.7982    1.8348   19.0565 H   0  0  0  0  0  0  0  0  0  0  0  0
  1  2  1  0
  2  3  2  0
  3  4  1  0
  4  5  1  0
  4  6  2  0
  6  7  1  0
  7  8  1  0
  8  9  2  0
  9 10  1  0
 10 11  1  0
 11 12  1  0
 12 13  2  0
 13 14  1  0
 13 15  1  0
 15 16  2  0
 16 17  1  0
 16 18  1  0
 18 19  1  0
 18 20  2  0
 20 21  1  0
 11 22  2  0
 22 23  1  0
 23 24  2  0
 24 25  1  0
  6 26  1  0
 26 27  1  0
 26 28  2  0
 28 29  1  0
 28  2  1  0
 25  8  1  0
 24 10  1  0
 20 12  1  0
M  END
>  <cnnaffinity>  (1) 
-4.88316

>  <filename>  (1) 
c1cncc(Oc2nn3c(-c4cccnc4)nnc3s2)c1

$$$$
