
     RDKit          3D

 39 42  0  0  0  0  0  0  0  0999 V2000
    4.9370    1.8582   16.9884 H   0  0  0  0  0  0  0  0  0  0  0  0
    5.3951    1.3194   17.8129 C   0  0  0  0  0  0  0  0  0  0  0  0
    6.5506    0.6879   17.5409 N   0  0  0  0  0  0  0  0  0  0  0  0
    7.1569    0.0320   18.5436 C   0  0  0  0  0  0  0  0  0  0  0  0
    8.1008   -0.4636   18.3069 H   0  0  0  0  0  0  0  0  0  0  0  0
    6.6481   -0.0382   19.8642 C   0  0  0  0  0  0  0  0  0  0  0  0
    7.2833   -0.7382   20.9010 N   0  0  0  0  0  0  0  0  0  0  0  0
    6.7013   -0.9374   21.7117 H   0  0  0  0  0  0  0  0  0  0  0  0
    8.6776   -0.7461   21.1644 C   0  0  0  0  0  0  0  0  0  0  0  0
    9.6998    0.1362   20.7208 C   0  0  0  0  0  0  0  0  0  0  0  0
    9.5836    0.9992   20.0834 H   0  0  0  0  0  0  0  0  0  0  0  0
   10.9042   -0.1901   21.1703 N   0  0  0  0  0  0  0  0  0  0  0  0
   10.6692   -1.2763   21.9428 N   0  0  0  0  0  0  0  0  0  0  0  0
   11.4170   -1.8735   22.2540 H   0  0  0  0  0  0  0  0  0  0  0  0
    9.3655   -1.6644   21.9540 C   0  0  0  0  0  0  0  0  0  0  0  0
    8.9494   -2.8013   22.6273 N   0  0  0  0  0  0  0  0  0  0  0  0
    8.0303   -3.7067   21.9481 C   0  0  0  0  0  0  0  0  0  0  0  0
    7.3798   -3.1314   21.2814 H   0  0  0  0  0  0  0  0  0  0  0  0
    8.5757   -4.3748   21.2689 H   0  0  0  0  0  0  0  0  0  0  0  0
    7.1761   -4.5577   22.8742 C   0  0  0  0  0  0  0  0  0  0  0  0
    6.2848   -5.4814   22.3057 C   0  0  0  0  0  0  0  0  0  0  0  0
    6.2308   -5.5918   21.2247 H   0  0  0  0  0  0  0  0  0  0  0  0
    5.4823   -6.2898   23.1086 C   0  0  0  0  0  0  0  0  0  0  0  0
    4.8134   -7.0149   22.6552 H   0  0  0  0  0  0  0  0  0  0  0  0
    5.5726   -6.1910   24.4997 C   0  0  0  0  0  0  0  0  0  0  0  0
    4.9572   -6.8261   25.1306 H   0  0  0  0  0  0  0  0  0  0  0  0
    6.4824   -5.3009   25.0732 C   0  0  0  0  0  0  0  0  0  0  0  0
    6.5748   -5.2574   26.1564 H   0  0  0  0  0  0  0  0  0  0  0  0
    7.2970   -4.4815   24.2745 C   0  0  0  0  0  0  0  0  0  0  0  0
    8.2860   -3.4947   24.8747 C   0  0  0  0  0  0  0  0  0  0  0  0
    8.6671   -3.8673   25.8300 H   0  0  0  0  0  0  0  0  0  0  0  0
    7.7762   -2.5465   25.0870 H   0  0  0  0  0  0  0  0  0  0  0  0
    9.4592   -3.1788   23.9395 C   0  0  0  0  0  0  0  0  0  0  0  0
   10.1448   -4.0393   23.8582 H   0  0  0  0  0  0  0  0  0  0  0  0
   10.0303   -2.3375   24.3504 H   0  0  0  0  0  0  0  0  0  0  0  0
    5.4279    0.6074   20.1150 C   0  0  0  0  0  0  0  0  0  0  0  0
    5.0128    0.5954   21.1204 H   0  0  0  0  0  0  0  0  0  0  0  0
    4.7989    1.3010   19.0779 C   0  0  0  0  0  0  0  0  0  0  0  0
    3.8700    1.8364   19.2374 H   0  0  0  0  0  0  0  0  0  0  0  0
  1  2  1  0
  2  3  2  0
  3  4  1  0
  4  5  1  0
  4  6  2  0
  6  7  1  0
  7  8  1  0
  7  9  1  0
  9 10  1  0
 10 11  1  0
 10 12  2  0
 12 13  1  0
 13 14  1  0
 13 15  1  0
 15 16  1  0
 16 17  1  0
 17 18  1  0
 17 19  1  0
 17 20  1  0
 20 21  2  0
 21 22  1  0
 21 23  1  0
 23 24  1  0
 23 25  2  0
 25 26  1  0
 25 27  1  0
 27 28  1  0
 27 29  2  0
 29 30  1  0
 30 31  1  0
 30 32  1  0
 30 33  1  0
 33 34  1  0
 33 35  1  0
  6 36  1  0
 36 37  1  0
 36 38  2  0
 38 39  1  0
 38  2  1  0
 15  9  2  0
 33 16  1  0
 29 20  1  0
M  END
>  <cnnaffinity>  (1) 
-5.96462

>  <filename>  (1) 
c1cncc(Nc2cn[nH]c2N2CCc3ccccc3C2)c1

$$$$
