
     RDKit          3D

 46 49  0  0  0  0  0  0  0  0999 V2000
    4.9915    1.8722   17.1555 H   0  0  0  0  0  0  0  0  0  0  0  0
    5.4472    1.3826   18.0132 C   0  0  0  0  0  0  0  0  0  0  0  0
    6.7124    0.9690   17.8552 N   0  0  0  0  0  0  0  0  0  0  0  0
    7.2945    0.3740   18.9026 C   0  0  0  0  0  0  0  0  0  0  0  0
    8.3401    0.1047   18.7485 H   0  0  0  0  0  0  0  0  0  0  0  0
    6.6495    0.0868   20.1243 C   0  0  0  0  0  0  0  0  0  0  0  0
    7.5074   -0.5454   21.2083 C   0  0  2  0  0  0  0  0  0  0  0  0
    8.4034    0.4850   21.7192 N   0  0  0  0  0  0  0  0  0  0  0  0
    8.8880    0.1446   22.5353 H   0  0  0  0  0  0  0  0  0  0  0  0
    8.1371    1.9092   21.8427 C   0  0  0  0  0  0  0  0  0  0  0  0
    7.6275    2.2510   20.9310 H   0  0  0  0  0  0  0  0  0  0  0  0
    7.2605    2.3034   23.0508 C   0  0  0  0  0  0  0  0  0  0  0  0
    6.3362    1.7098   23.0226 H   0  0  0  0  0  0  0  0  0  0  0  0
    6.9612    3.3496   22.9026 H   0  0  0  0  0  0  0  0  0  0  0  0
    7.9772    2.1592   24.4102 C   0  0  0  0  0  0  0  0  0  0  0  0
    8.0981    1.0910   24.6402 H   0  0  0  0  0  0  0  0  0  0  0  0
    7.3485    2.5677   25.2103 H   0  0  0  0  0  0  0  0  0  0  0  0
    9.3725    2.8138   24.4303 C   0  0  0  0  0  0  0  0  0  0  0  0
    9.8716    2.5993   25.3830 H   0  0  0  0  0  0  0  0  0  0  0  0
    9.2699    3.9072   24.3656 H   0  0  0  0  0  0  0  0  0  0  0  0
   10.2331    2.3286   23.2525 C   0  0  0  0  0  0  0  0  0  0  0  0
   11.2100    2.8203   23.2326 H   0  0  0  0  0  0  0  0  0  0  0  0
   10.4515    1.2566   23.3705 H   0  0  0  0  0  0  0  0  0  0  0  0
    9.5078    2.5974   21.9238 C   0  0  0  0  0  0  0  0  0  0  0  0
   10.1096    2.2985   21.0579 H   0  0  0  0  0  0  0  0  0  0  0  0
    9.3554    3.6819   21.8714 H   0  0  0  0  0  0  0  0  0  0  0  0
    8.4121   -1.6821   20.6109 C   0  0  0  0  0  0  0  0  0  0  0  0
    9.4593   -1.3710   20.5231 H   0  0  0  0  0  0  0  0  0  0  0  0
    8.0165   -1.8372   19.6128 H   0  0  0  0  0  0  0  0  0  0  0  0
    8.2490   -2.9160   21.5170 C   0  0  2  0  0  0  0  0  0  0  0  0
    9.0897   -3.6026   21.4435 H   0  0  0  0  0  0  0  0  0  0  0  0
    6.8993   -3.6001   21.2713 C   0  0  0  0  0  0  0  0  0  0  0  0
    6.7654   -3.9330   20.2394 H   0  0  0  0  0  0  0  0  0  0  0  0
    6.8144   -4.4919   21.9097 H   0  0  0  0  0  0  0  0  0  0  0  0
    5.8963   -2.5019   21.7304 C   0  0  0  0  0  0  0  0  0  0  0  0
    5.3007   -2.1170   20.9007 H   0  0  0  0  0  0  0  0  0  0  0  0
    5.2147   -2.9148   22.4786 H   0  0  0  0  0  0  0  0  0  0  0  0
    6.8084   -1.3965   22.3398 C   0  0  1  0  0  0  0  0  0  0  0  0
    6.3178   -0.7577   23.0814 H   0  0  0  0  0  0  0  0  0  0  0  0
    7.9724   -2.2692   22.8802 C   0  0  0  0  0  0  0  0  0  0  0  0
    7.6656   -2.9953   23.6467 H   0  0  0  0  0  0  0  0  0  0  0  0
    8.8283   -1.7054   23.2684 H   0  0  0  0  0  0  0  0  0  0  0  0
    5.3391    0.5418   20.2749 C   0  0  0  0  0  0  0  0  0  0  0  0
    4.8135    0.4026   21.2223 H   0  0  0  0  0  0  0  0  0  0  0  0
    4.7287    1.2007   19.1990 C   0  0  0  0  0  0  0  0  0  0  0  0
    3.7287    1.6049   19.2849 H   0  0  0  0  0  0  0  0  0  0  0  0
  1  2  1  0
  2  3  2  0
  3  4  1  0
  4  5  1  0
  4  6  2  0
  6  7  1  0
  7  8  1  1
  8  9  1  0
  8 10  1  0
 10 11  1  0
 10 12  1  0
 12 13  1  0
 12 14  1  0
 12 15  1  0
 15 16  1  0
 15 17  1  0
 15 18  1  0
 18 19  1  0
 18 20  1  0
 18 21  1  0
 21 22  1  0
 21 23  1  0
 21 24  1  0
 24 25  1  0
 24 26  1  0
  7 27  1  0
 27 28  1  0
 27 29  1  0
 27 30  1  0
 30 31  1  1
 30 32  1  0
 32 33  1  0
 32 34  1  0
 32 35  1  0
 35 36  1  0
 35 37  1  0
 35 38  1  0
 38 39  1  1
 38 40  1  0
 40 41  1  0
 40 42  1  0
  6 43  1  0
 43 44  1  0
 43 45  2  0
 45 46  1  0
 45  2  1  0
 38  7  1  0
 24 10  1  0
 40 30  1  0
M  END
>  <cnnaffinity>  (1) 
-5.22081

>  <filename>  (1) 
c1cncc([C@]2(NC3CCCCC3)C[C@@H]3CC[C@H]2C3)c1

$$$$
