
     RDKit          3D

 35 37  0  0  0  0  0  0  0  0999 V2000
    4.9400    1.8018   16.9862 H   0  0  0  0  0  0  0  0  0  0  0  0
    5.3974    1.2970   17.8305 C   0  0  0  0  0  0  0  0  0  0  0  0
    6.5632    0.6809   17.5803 N   0  0  0  0  0  0  0  0  0  0  0  0
    7.1844    0.0865   18.6048 C   0  0  0  0  0  0  0  0  0  0  0  0
    8.1334   -0.4000   18.3730 H   0  0  0  0  0  0  0  0  0  0  0  0
    6.6680    0.0707   19.9208 C   0  0  0  0  0  0  0  0  0  0  0  0
    7.3472   -0.6022   20.9979 N   0  0  0  0  0  0  0  0  0  0  0  0
    7.8276   -1.8884   20.9928 C   0  0  0  0  0  0  0  0  0  0  0  0
    7.5826   -2.5621   20.1990 H   0  0  0  0  0  0  0  0  0  0  0  0
    8.4054   -2.2080   22.1072 N   0  0  0  0  0  0  0  0  0  0  0  0
    8.2700   -1.1202   22.9498 N   0  0  0  0  0  0  0  0  0  0  0  0
    7.5993   -0.2097   22.2949 C   0  0  0  0  0  0  0  0  0  0  0  0
    7.0633    0.9326   22.8144 N   0  0  0  0  0  0  0  0  0  0  0  0
    7.1342    1.6899   22.1588 H   0  0  0  0  0  0  0  0  0  0  0  0
    7.3993    1.2818   24.1819 C   0  0  0  0  0  0  0  0  0  0  0  0
    7.3426    0.3786   24.8061 H   0  0  0  0  0  0  0  0  0  0  0  0
    6.3601    2.2687   24.6893 C   0  0  0  0  0  0  0  0  0  0  0  0
    6.3936    3.1513   24.0368 H   0  0  0  0  0  0  0  0  0  0  0  0
    5.3712    1.8145   24.5664 H   0  0  0  0  0  0  0  0  0  0  0  0
    6.6343    2.6727   26.1423 C   0  0  0  0  0  0  0  0  0  0  0  0
    6.5043    1.7898   26.7853 H   0  0  0  0  0  0  0  0  0  0  0  0
    5.8915    3.4023   26.4816 H   0  0  0  0  0  0  0  0  0  0  0  0
    8.0695    3.2092   26.3051 C   0  0  0  0  0  0  0  0  0  0  0  0
    8.1658    4.1491   25.7427 H   0  0  0  0  0  0  0  0  0  0  0  0
    8.2644    3.4536   27.3557 H   0  0  0  0  0  0  0  0  0  0  0  0
    9.1024    2.1977   25.7708 C   0  0  0  0  0  0  0  0  0  0  0  0
    9.0806    1.2983   26.3993 H   0  0  0  0  0  0  0  0  0  0  0  0
   10.1230    2.5566   25.8349 H   0  0  0  0  0  0  0  0  0  0  0  0
    8.8241    1.8134   24.3163 C   0  0  0  0  0  0  0  0  0  0  0  0
    8.9605    2.6938   23.6706 H   0  0  0  0  0  0  0  0  0  0  0  0
    9.5119    1.0368   23.9605 H   0  0  0  0  0  0  0  0  0  0  0  0
    5.4370    0.6941   20.1608 C   0  0  0  0  0  0  0  0  0  0  0  0
    4.9938    0.6595   21.1574 H   0  0  0  0  0  0  0  0  0  0  0  0
    4.7917    1.3188   19.0905 C   0  0  0  0  0  0  0  0  0  0  0  0
    3.8480    1.8364   19.2257 H   0  0  0  0  0  0  0  0  0  0  0  0
  1  2  1  0
  2  3  2  0
  3  4  1  0
  4  5  1  0
  4  6  2  0
  6  7  1  0
  7  8  1  0
  8  9  1  0
  8 10  2  0
 10 11  1  0
 11 12  2  0
 12 13  1  0
 13 14  1  0
 13 15  1  0
 15 16  1  0
 15 17  1  0
 17 18  1  0
 17 19  1  0
 17 20  1  0
 20 21  1  0
 20 22  1  0
 20 23  1  0
 23 24  1  0
 23 25  1  0
 23 26  1  0
 26 27  1  0
 26 28  1  0
 26 29  1  0
 29 30  1  0
 29 31  1  0
  6 32  1  0
 32 33  1  0
 32 34  2  0
 34 35  1  0
 34  2  1  0
 12  7  1  0
 29 15  1  0
M  END
>  <cnnaffinity>  (1) 
-4.96653

>  <filename>  (1) 
c1cncc(-n2cnnc2NC2CCCCC2)c1

$$$$
