
     RDKit          3D

 31 34  0  0  0  0  0  0  0  0999 V2000
    4.9998    1.8328   17.2572 H   0  0  0  0  0  0  0  0  0  0  0  0
    5.4876    1.1924   17.9923 C   0  0  0  0  0  0  0  0  0  0  0  0
    6.5925    0.5495   17.5829 N   0  0  0  0  0  0  0  0  0  0  0  0
    7.2435   -0.1960   18.4811 C   0  0  0  0  0  0  0  0  0  0  0  0
    8.1378   -0.6961   18.1090 H   0  0  0  0  0  0  0  0  0  0  0  0
    6.8360   -0.3514   19.8228 C   0  0  0  0  0  0  0  0  0  0  0  0
    7.7068   -1.0121   20.8018 C   0  0  0  0  0  0  0  0  0  0  0  0
    9.0545   -0.8685   21.0313 C   0  0  0  0  0  0  0  0  0  0  0  0
    9.7236   -0.2615   20.4298 H   0  0  0  0  0  0  0  0  0  0  0  0
    9.4786   -1.5259   22.1577 N   0  0  0  0  0  0  0  0  0  0  0  0
    8.3741   -2.0487   22.6275 C   0  0  0  0  0  0  0  0  0  0  0  0
    7.9048   -2.8941   24.0789 S   0  0  0  0  0  0  0  0  0  0  0  0
    6.2624   -2.7600   23.4915 C   0  0  0  0  0  0  0  0  0  0  0  0
    5.1411   -3.0948   24.1733 N   0  0  0  0  0  0  0  0  0  0  0  0
    4.4033   -2.4993   23.8285 H   0  0  0  0  0  0  0  0  0  0  0  0
    4.8923   -3.9010   25.2638 C   0  0  0  0  0  0  0  0  0  0  0  0
    4.0219   -3.4249   26.2424 C   0  0  0  0  0  0  0  0  0  0  0  0
    3.6247   -2.4200   26.1700 H   0  0  0  0  0  0  0  0  0  0  0  0
    3.6908   -4.2701   27.2932 C   0  0  0  0  0  0  0  0  0  0  0  0
    3.0162   -3.9276   28.0797 H   0  0  0  0  0  0  0  0  0  0  0  0
    4.1440   -5.5258   27.4117 N   0  0  0  0  0  0  0  0  0  0  0  0
    4.9844   -5.9573   26.4615 C   0  0  0  0  0  0  0  0  0  0  0  0
    5.3379   -6.9830   26.5743 H   0  0  0  0  0  0  0  0  0  0  0  0
    5.4020   -5.1908   25.3773 C   0  0  0  0  0  0  0  0  0  0  0  0
    6.0608   -5.6000   24.6231 H   0  0  0  0  0  0  0  0  0  0  0  0
    6.0704   -2.1754   22.3411 N   0  0  0  0  0  0  0  0  0  0  0  0
    7.2825   -1.7977   21.8581 N   0  0  0  0  0  0  0  0  0  0  0  0
    5.6232    0.2475   20.2004 C   0  0  0  0  0  0  0  0  0  0  0  0
    5.2319    0.0721   21.2004 H   0  0  0  0  0  0  0  0  0  0  0  0
    4.9611    1.0550   19.2790 C   0  0  0  0  0  0  0  0  0  0  0  0
    4.0610    1.5915   19.5484 H   0  0  0  0  0  0  0  0  0  0  0  0
  1  2  1  0
  2  3  2  0
  3  4  1  0
  4  5  1  0
  4  6  2  0
  6  7  1  0
  7  8  2  0
  8  9  1  0
  8 10  1  0
 10 11  2  0
 11 12  1  0
 12 13  1  0
 13 14  1  0
 14 15  1  0
 14 16  1  0
 16 17  2  0
 17 18  1  0
 17 19  1  0
 19 20  1  0
 19 21  2  0
 21 22  1  0
 22 23  1  0
 22 24  2  0
 24 25  1  0
 13 26  2  0
 26 27  1  0
  6 28  1  0
 28 29  1  0
 28 30  2  0
 30 31  1  0
 30  2  1  0
 27  7  1  0
 27 11  1  0
 24 16  1  0
M  END
>  <cnnaffinity>  (1) 
-5.08479

>  <filename>  (1) 
c1cncc(-c2cnc3sc(Nc4ccncc4)nn23)c1

$$$$
