
     RDKit          3D

 29 31  0  0  0  0  0  0  0  0999 V2000
    9.3827    2.4027   25.0500 H   0  0  0  0  0  0  0  0  0  0  0  0
    8.8466    1.4729   24.8721 C   0  0  0  0  0  0  0  0  0  0  0  0
    8.1634    1.4801   24.0212 H   0  0  0  0  0  0  0  0  0  0  0  0
    9.0192    0.3851   25.6214 C   0  0  0  0  0  0  0  0  0  0  0  0
    9.7193    0.4181   26.4562 H   0  0  0  0  0  0  0  0  0  0  0  0
    8.2997   -0.9336   25.3677 C   0  0  0  0  0  0  0  0  0  0  0  0
    8.4108   -1.6304   26.2097 H   0  0  0  0  0  0  0  0  0  0  0  0
    7.2245   -0.7514   25.2355 H   0  0  0  0  0  0  0  0  0  0  0  0
    8.7160   -1.5781   24.1310 N   0  0  0  0  0  0  0  0  0  0  0  0
    9.9515   -2.1445   23.8289 C   0  0  0  0  0  0  0  0  0  0  0  0
   10.6635   -2.3025   24.6213 H   0  0  0  0  0  0  0  0  0  0  0  0
   10.0673   -2.2784   22.4822 C   0  0  0  0  0  0  0  0  0  0  0  0
   10.8416   -2.6328   21.8248 H   0  0  0  0  0  0  0  0  0  0  0  0
    8.8867   -1.7783   21.9492 N   0  0  0  0  0  0  0  0  0  0  0  0
    8.4730   -1.4220   20.7117 N   0  0  0  0  0  0  0  0  0  0  0  0
    7.3667   -0.7065   20.9619 C   0  0  0  0  0  0  0  0  0  0  0  0
    6.6406   -0.0220   19.8778 C   0  0  0  0  0  0  0  0  0  0  0  0
    7.1657    0.0394   18.5737 C   0  0  0  0  0  0  0  0  0  0  0  0
    8.1176   -0.4314   18.3310 H   0  0  0  0  0  0  0  0  0  0  0  0
    6.5609    0.6725   17.5618 N   0  0  0  0  0  0  0  0  0  0  0  0
    5.4000    1.2967   17.8126 C   0  0  0  0  0  0  0  0  0  0  0  0
    4.9318    1.8094   16.9710 H   0  0  0  0  0  0  0  0  0  0  0  0
    4.7999    1.3113   19.0752 C   0  0  0  0  0  0  0  0  0  0  0  0
    3.8699    1.8468   19.2313 H   0  0  0  0  0  0  0  0  0  0  0  0
    5.4307    0.6446   20.1212 C   0  0  0  0  0  0  0  0  0  0  0  0
    4.9891    0.6479   21.1172 H   0  0  0  0  0  0  0  0  0  0  0  0
    7.0727   -0.5999   22.3454 C   0  0  0  0  0  0  0  0  0  0  0  0
    6.2881   -0.0173   22.7902 H   0  0  0  0  0  0  0  0  0  0  0  0
    8.0937   -1.3169   22.9358 C   0  0  0  0  0  0  0  0  0  0  0  0
  1  2  1  0
  2  3  1  0
  2  4  2  3
  4  5  1  0
  4  6  1  0
  6  7  1  0
  6  8  1  0
  6  9  1  0
  9 10  1  0
 10 11  1  0
 10 12  2  0
 12 13  1  0
 12 14  1  0
 14 15  1  0
 15 16  2  0
 16 17  1  0
 17 18  2  0
 18 19  1  0
 18 20  1  0
 20 21  2  0
 21 22  1  0
 21 23  1  0
 23 24  1  0
 23 25  2  0
 25 26  1  0
 16 27  1  0
 27 28  1  0
 27 29  2  0
 29  9  1  0
 29 14  1  0
 25 17  1  0
M  END
>  <cnnaffinity>  (1) 
-5.07601

>  <filename>  (1) 
C=CCn1ccn2nc(-c3cccnc3)cc12

$$$$
