
     RDKit          3D

 35 36  0  0  0  0  0  0  0  0999 V2000
    3.5583   -4.1546   23.6420 H   0  0  0  0  0  0  0  0  0  0  0  0
    4.3679   -3.9345   22.9469 C   0  0  0  0  0  0  0  0  0  0  0  0
    4.0866   -3.7308   21.9152 H   0  0  0  0  0  0  0  0  0  0  0  0
    5.6361   -3.8813   23.3389 C   0  0  0  0  0  0  0  0  0  0  0  0
    5.9077   -4.0177   24.3851 H   0  0  0  0  0  0  0  0  0  0  0  0
    6.7920   -3.5363   22.4330 C   0  0  0  0  0  0  0  0  0  0  0  0
    6.4530   -3.5205   21.3849 H   0  0  0  0  0  0  0  0  0  0  0  0
    7.5975   -4.2800   22.5117 H   0  0  0  0  0  0  0  0  0  0  0  0
    7.3712   -2.2940   22.8049 O   0  0  0  0  0  0  0  0  0  0  0  0
    6.7279   -1.1386   22.2419 C   0  0  1  0  0  0  0  0  0  0  0  0
    5.7107   -1.4073   21.9319 H   0  0  0  0  0  0  0  0  0  0  0  0
    6.6604   -0.0574   23.3329 C   0  0  0  0  0  0  0  0  0  0  0  0
    6.2692   -0.5147   24.2509 H   0  0  0  0  0  0  0  0  0  0  0  0
    5.9343    0.7133   23.0459 H   0  0  0  0  0  0  0  0  0  0  0  0
    8.0159    0.6081   23.5941 C   0  0  0  0  0  0  0  0  0  0  0  0
    7.9042    1.4087   24.3336 H   0  0  0  0  0  0  0  0  0  0  0  0
    8.6918   -0.1385   24.0255 H   0  0  0  0  0  0  0  0  0  0  0  0
    8.6165    1.1402   22.2907 C   0  0  0  0  0  0  0  0  0  0  0  0
    9.5732    1.6374   22.4823 H   0  0  0  0  0  0  0  0  0  0  0  0
    7.9493    1.8989   21.8605 H   0  0  0  0  0  0  0  0  0  0  0  0
    8.8112    0.0015   21.2854 C   0  0  0  0  0  0  0  0  0  0  0  0
    9.2553    0.3823   20.3606 H   0  0  0  0  0  0  0  0  0  0  0  0
    9.5099   -0.7342   21.6978 H   0  0  0  0  0  0  0  0  0  0  0  0
    7.4912   -0.7356   20.9527 C   0  0  2  0  0  0  0  0  0  0  0  0
    7.7656   -1.6879   20.4716 H   0  0  0  0  0  0  0  0  0  0  0  0
    6.6601    0.0105   19.9128 C   0  0  0  0  0  0  0  0  0  0  0  0
    7.1563    0.0689   18.5940 C   0  0  0  0  0  0  0  0  0  0  0  0
    8.1040   -0.4160   18.3607 H   0  0  0  0  0  0  0  0  0  0  0  0
    6.5582    0.6764   17.5666 N   0  0  0  0  0  0  0  0  0  0  0  0
    5.3991    1.2976   17.8346 C   0  0  0  0  0  0  0  0  0  0  0  0
    4.9146    1.7854   16.9929 H   0  0  0  0  0  0  0  0  0  0  0  0
    4.8110    1.3135   19.1034 C   0  0  0  0  0  0  0  0  0  0  0  0
    3.8749    1.8414   19.2582 H   0  0  0  0  0  0  0  0  0  0  0  0
    5.4442    0.6532   20.1609 C   0  0  0  0  0  0  0  0  0  0  0  0
    4.9935    0.6390   21.1574 H   0  0  0  0  0  0  0  0  0  0  0  0
  1  2  1  0
  2  3  1  0
  2  4  2  3
  4  5  1  0
  4  6  1  0
  6  7  1  0
  6  8  1  0
  6  9  1  0
  9 10  1  0
 10 11  1  6
 10 12  1  0
 12 13  1  0
 12 14  1  0
 12 15  1  0
 15 16  1  0
 15 17  1  0
 15 18  1  0
 18 19  1  0
 18 20  1  0
 18 21  1  0
 21 22  1  0
 21 23  1  0
 21 24  1  0
 24 25  1  6
 24 26  1  0
 26 27  2  0
 27 28  1  0
 27 29  1  0
 29 30  2  0
 30 31  1  0
 30 32  1  0
 32 33  1  0
 32 34  2  0
 34 35  1  0
 24 10  1  0
 34 26  1  0
M  END
>  <cnnaffinity>  (1) 
-4.51469

>  <filename>  (1) 
C=CCO[C@H]1CCCC[C@@H]1c1cccnc1

$$$$
