
     RDKit          3D

 26 27  0  0  0  0  0  0  0  0999 V2000
    8.9092   -5.9883   25.4454 H   0  0  0  0  0  0  0  0  0  0  0  0
    9.6135   -5.2127   25.1505 C   0  0  0  0  0  0  0  0  0  0  0  0
   10.5077   -5.1137   25.7683 H   0  0  0  0  0  0  0  0  0  0  0  0
    9.3651   -4.4352   24.0998 C   0  0  0  0  0  0  0  0  0  0  0  0
    8.4392   -4.5727   23.5338 H   0  0  0  0  0  0  0  0  0  0  0  0
   10.2607   -3.3108   23.6249 C   0  0  0  0  0  0  0  0  0  0  0  0
   11.2971   -3.6461   23.5363 H   0  0  0  0  0  0  0  0  0  0  0  0
   10.2697   -2.4675   24.3310 H   0  0  0  0  0  0  0  0  0  0  0  0
    9.9010   -2.8427   22.3254 O   0  0  0  0  0  0  0  0  0  0  0  0
    8.8717   -1.9620   22.2266 C   0  0  0  0  0  0  0  0  0  0  0  0
    8.1091   -1.4655   23.2405 C   0  0  0  0  0  0  0  0  0  0  0  0
    8.1980   -1.6822   24.2884 H   0  0  0  0  0  0  0  0  0  0  0  0
    6.8697   -0.4274   22.6696 S   0  0  0  0  0  0  0  0  0  0  0  0
    7.3865   -0.6219   21.0239 C   0  0  0  0  0  0  0  0  0  0  0  0
    6.6394    0.0368   19.9314 C   0  0  0  0  0  0  0  0  0  0  0  0
    7.1603    0.0565   18.6254 C   0  0  0  0  0  0  0  0  0  0  0  0
    8.1061   -0.4403   18.4218 H   0  0  0  0  0  0  0  0  0  0  0  0
    6.5835    0.6651   17.5818 N   0  0  0  0  0  0  0  0  0  0  0  0
    5.4215    1.2992   17.8043 C   0  0  0  0  0  0  0  0  0  0  0  0
    4.9766    1.8054   16.9488 H   0  0  0  0  0  0  0  0  0  0  0  0
    4.7946    1.3225   19.0554 C   0  0  0  0  0  0  0  0  0  0  0  0
    3.8584    1.8537   19.1761 H   0  0  0  0  0  0  0  0  0  0  0  0
    5.4016    0.6841   20.1349 C   0  0  0  0  0  0  0  0  0  0  0  0
    4.9324    0.6979   21.1200 H   0  0  0  0  0  0  0  0  0  0  0  0
    8.4722   -1.4528   20.9573 C   0  0  0  0  0  0  0  0  0  0  0  0
    8.9982   -1.7320   20.0546 H   0  0  0  0  0  0  0  0  0  0  0  0
  1  2  1  0
  2  3  1  0
  2  4  2  3
  4  5  1  0
  4  6  1  0
  6  7  1  0
  6  8  1  0
  6  9  1  0
  9 10  1  0
 10 11  2  0
 11 12  1  0
 11 13  1  0
 13 14  1  0
 14 15  1  0
 15 16  2  0
 16 17  1  0
 16 18  1  0
 18 19  2  0
 19 20  1  0
 19 21  1  0
 21 22  1  0
 21 23  2  0
 23 24  1  0
 14 25  2  0
 25 26  1  0
 25 10  1  0
 23 15  1  0
M  END
>  <cnnaffinity>  (1) 
-4.82946

>  <filename>  (1) 
C=CCOc1csc(-c2cccnc2)c1

$$$$
