
     RDKit          3D

 32 34  0  0  0  0  0  0  0  0999 V2000
    5.5203   -4.3980   18.7465 H   0  0  0  0  0  0  0  0  0  0  0  0
    5.5348   -3.5407   19.4067 C   0  0  0  0  0  0  0  0  0  0  0  0
    5.5224   -2.5550   18.9356 H   0  0  0  0  0  0  0  0  0  0  0  0
    5.6209   -3.6604   20.7283 C   0  0  0  0  0  0  0  0  0  0  0  0
    5.7271   -4.6497   21.1805 H   0  0  0  0  0  0  0  0  0  0  0  0
    5.6253   -2.4751   21.6690 C   0  0  0  0  0  0  0  0  0  0  0  0
    5.2765   -2.7861   22.6633 H   0  0  0  0  0  0  0  0  0  0  0  0
    4.9544   -1.7007   21.3015 H   0  0  0  0  0  0  0  0  0  0  0  0
    6.9567   -1.7876   21.7574 C   0  0  0  0  0  0  0  0  0  0  0  0
    7.4842   -0.7692   20.8988 C   0  0  0  0  0  0  0  0  0  0  0  0
    6.7384    0.0152   19.8828 C   0  0  0  0  0  0  0  0  0  0  0  0
    7.2517    0.0986   18.5781 C   0  0  0  0  0  0  0  0  0  0  0  0
    8.2090   -0.3586   18.3429 H   0  0  0  0  0  0  0  0  0  0  0  0
    6.6396    0.7053   17.5547 N   0  0  0  0  0  0  0  0  0  0  0  0
    5.4622    1.2989   17.8041 C   0  0  0  0  0  0  0  0  0  0  0  0
    4.9727    1.7832   16.9572 H   0  0  0  0  0  0  0  0  0  0  0  0
    4.8720    1.3101   19.0692 C   0  0  0  0  0  0  0  0  0  0  0  0
    3.9231    1.8163   19.2063 H   0  0  0  0  0  0  0  0  0  0  0  0
    5.5163    0.6712   20.1335 C   0  0  0  0  0  0  0  0  0  0  0  0
    5.0849    0.7167   21.1355 H   0  0  0  0  0  0  0  0  0  0  0  0
    8.8102   -0.6564   21.0377 N   0  0  0  0  0  0  0  0  0  0  0  0
    9.0943   -1.5160   22.0319 N   0  0  0  0  0  0  0  0  0  0  0  0
    8.0431   -2.2010   22.4938 C   0  0  0  0  0  0  0  0  0  0  0  0
    8.4614   -3.2320   23.5067 C   0  0  0  0  0  0  0  0  0  0  0  0
    8.2030   -4.2385   23.1518 H   0  0  0  0  0  0  0  0  0  0  0  0
    7.9657   -3.0894   24.4726 H   0  0  0  0  0  0  0  0  0  0  0  0
    9.9978   -3.0044   23.6243 C   0  0  0  0  0  0  0  0  0  0  0  0
   10.2678   -2.6107   24.6077 H   0  0  0  0  0  0  0  0  0  0  0  0
   10.5505   -3.9362   23.5123 H   0  0  0  0  0  0  0  0  0  0  0  0
   10.3819   -1.9759   22.5134 C   0  0  0  0  0  0  0  0  0  0  0  0
   10.9660   -1.1425   22.9040 H   0  0  0  0  0  0  0  0  0  0  0  0
   10.9410   -2.4387   21.6963 H   0  0  0  0  0  0  0  0  0  0  0  0
  1  2  1  0
  2  3  1  0
  2  4  2  3
  4  5  1  0
  4  6  1  0
  6  7  1  0
  6  8  1  0
  6  9  1  0
  9 10  1  0
 10 11  1  0
 11 12  2  0
 12 13  1  0
 12 14  1  0
 14 15  2  0
 15 16  1  0
 15 17  1  0
 17 18  1  0
 17 19  2  0
 19 20  1  0
 10 21  2  0
 21 22  1  0
 22 23  1  0
 23 24  1  0
 24 25  1  0
 24 26  1  0
 24 27  1  0
 27 28  1  0
 27 29  1  0
 27 30  1  0
 30 31  1  0
 30 32  1  0
 23  9  2  0
 19 11  1  0
 30 22  1  0
M  END
>  <cnnaffinity>  (1) 
-5.00127

>  <filename>  (1) 
C=CCc1c(-c2cccnc2)nn2c1CCC2

$$$$
