
     RDKit          3D

 37 38  0  0  0  0  0  0  0  0999 V2000
    4.8407    1.7128   16.9722 H   0  0  0  0  0  0  0  0  0  0  0  0
    5.3603    1.2809   17.8258 C   0  0  0  0  0  0  0  0  0  0  0  0
    6.5400    0.6940   17.5628 N   0  0  0  0  0  0  0  0  0  0  0  0
    7.2118    0.1485   18.5920 C   0  0  0  0  0  0  0  0  0  0  0  0
    8.1539   -0.3434   18.3566 H   0  0  0  0  0  0  0  0  0  0  0  0
    6.7498    0.1592   19.9364 C   0  0  0  0  0  0  0  0  0  0  0  0
    7.3903   -0.4199   21.1427 N   0  0  0  0  0  0  0  0  0  0  0  0
    7.2215   -1.4244   21.1870 H   0  0  0  0  0  0  0  0  0  0  0  0
    9.0744   -0.6747   21.2187 S   0  0  0  0  0  0  0  0  0  0  0  0
    9.1229   -2.0643   20.7721 O   0  0  0  0  0  0  0  0  0  0  0  0
    9.8139    0.3814   20.5707 O   0  0  0  0  0  0  0  0  0  0  0  0
    9.4880   -0.7260   22.9228 C   0  0  0  0  0  0  0  0  0  0  0  0
    9.2906   -1.7432   23.2493 H   0  0  0  0  0  0  0  0  0  0  0  0
   10.5636   -0.5743   22.8681 H   0  0  0  0  0  0  0  0  0  0  0  0
    8.7647    0.3442   23.6963 C   0  0  0  0  0  0  0  0  0  0  0  0
    9.1390    0.3736   24.7351 H   0  0  0  0  0  0  0  0  0  0  0  0
    7.7026    0.0786   23.7420 H   0  0  0  0  0  0  0  0  0  0  0  0
    8.9271    1.5921   22.9735 N   0  0  0  0  0  0  0  0  0  0  0  0
    7.7690    2.4910   23.0319 C   0  0  0  0  0  0  0  0  0  0  0  0
    7.8236    3.1796   22.1736 H   0  0  0  0  0  0  0  0  0  0  0  0
    6.8285    1.9361   22.9130 H   0  0  0  0  0  0  0  0  0  0  0  0
    7.8972    3.2698   24.3602 C   0  0  0  0  0  0  0  0  0  0  0  0
    7.3218    2.7750   25.1524 H   0  0  0  0  0  0  0  0  0  0  0  0
    7.5097    4.2886   24.2654 H   0  0  0  0  0  0  0  0  0  0  0  0
    9.4192    3.2286   24.6537 C   0  0  0  0  0  0  0  0  0  0  0  0
    9.6350    2.6789   25.5786 H   0  0  0  0  0  0  0  0  0  0  0  0
    9.8711    4.2200   24.7615 H   0  0  0  0  0  0  0  0  0  0  0  0
   10.0129    2.4784   23.4420 C   0  0  1  0  0  0  0  0  0  0  0  0
   10.1527    3.2108   22.6288 H   0  0  0  0  0  0  0  0  0  0  0  0
   11.3660    1.8172   23.6691 C   0  0  0  0  0  0  0  0  0  0  0  0
   11.7332    1.3712   22.7373 H   0  0  0  0  0  0  0  0  0  0  0  0
   11.3288    1.0397   24.4390 H   0  0  0  0  0  0  0  0  0  0  0  0
   12.0938    2.5671   23.9947 H   0  0  0  0  0  0  0  0  0  0  0  0
    5.5034    0.7403   20.1680 C   0  0  0  0  0  0  0  0  0  0  0  0
    5.1257    0.7027   21.1862 H   0  0  0  0  0  0  0  0  0  0  0  0
    4.7966    1.3205   19.1039 C   0  0  0  0  0  0  0  0  0  0  0  0
    3.8228    1.7842   19.2530 H   0  0  0  0  0  0  0  0  0  0  0  0
  1  2  1  0
  2  3  2  0
  3  4  1  0
  4  5  1  0
  4  6  2  0
  6  7  1  0
  7  8  1  0
  7  9  1  0
  9 10  2  0
  9 11  2  0
  9 12  1  0
 12 13  1  0
 12 14  1  0
 12 15  1  0
 15 16  1  0
 15 17  1  0
 15 18  1  0
 18 19  1  0
 19 20  1  0
 19 21  1  0
 19 22  1  0
 22 23  1  0
 22 24  1  0
 22 25  1  0
 25 26  1  0
 25 27  1  0
 25 28  1  0
 28 29  1  6
 28 30  1  0
 30 31  1  0
 30 32  1  0
 30 33  1  0
  6 34  1  0
 34 35  1  0
 34 36  2  0
 36 37  1  0
 36  2  1  0
 28 18  1  0
M  END
>  <cnnaffinity>  (1) 
-5.04908

>  <filename>  (1) 
C[C@@H]1CCCN1CCS(=O)(=O)Nc1cccnc1

$$$$
