
     RDKit          3D

 44 46  0  0  0  0  0  0  0  0999 V2000
    7.3227   -3.5316   21.1201 H   0  0  0  0  0  0  0  0  0  0  0  0
    7.3580   -2.4685   21.3140 C   0  0  0  0  0  0  0  0  0  0  0  0
    8.0809   -1.9344   22.3059 C   0  0  0  0  0  0  0  0  0  0  0  0
    8.9603   -2.7873   23.2029 C   0  0  0  0  0  0  0  0  0  0  0  0
    9.7862   -3.2001   22.6054 H   0  0  0  0  0  0  0  0  0  0  0  0
    9.4250   -2.1589   23.9743 H   0  0  0  0  0  0  0  0  0  0  0  0
    8.2241   -3.9787   23.8903 C   0  0  0  0  0  0  0  0  0  0  0  0
    8.0678   -4.7808   23.1496 H   0  0  0  0  0  0  0  0  0  0  0  0
    7.2184   -3.6570   24.1933 H   0  0  0  0  0  0  0  0  0  0  0  0
    8.8569   -4.5573   25.0577 N   0  0  0  0  0  0  0  0  0  0  0  0
   10.2513   -4.9305   25.0298 C   0  0  0  0  0  0  0  0  0  0  0  0
   10.9134   -4.1265   24.6626 H   0  0  0  0  0  0  0  0  0  0  0  0
   10.3981   -5.7985   24.3877 H   0  0  0  0  0  0  0  0  0  0  0  0
   10.5971   -5.3507   26.4676 C   0  0  0  0  0  0  0  0  0  0  0  0
   11.4675   -4.8082   26.8444 H   0  0  0  0  0  0  0  0  0  0  0  0
   10.8505   -6.4150   26.4872 H   0  0  0  0  0  0  0  0  0  0  0  0
    9.3371   -5.0725   27.3053 C   0  0  0  0  0  0  0  0  0  0  0  0
    9.5799   -4.5704   28.2473 H   0  0  0  0  0  0  0  0  0  0  0  0
    8.8267   -6.0049   27.5662 H   0  0  0  0  0  0  0  0  0  0  0  0
    8.4148   -4.2212   26.4053 C   0  0  1  0  0  0  0  0  0  0  0  0
    7.3695   -4.5558   26.5161 H   0  0  0  0  0  0  0  0  0  0  0  0
    8.4878   -2.7195   26.6920 C   0  0  0  0  0  0  0  0  0  0  0  0
    9.5292   -2.3806   26.6964 H   0  0  0  0  0  0  0  0  0  0  0  0
    7.9507   -2.1662   25.9158 H   0  0  0  0  0  0  0  0  0  0  0  0
    8.0422   -2.4670   27.6571 H   0  0  0  0  0  0  0  0  0  0  0  0
    7.9415   -0.4487   22.5704 C   0  0  0  0  0  0  0  0  0  0  0  0
    7.1403   -0.3146   23.3067 H   0  0  0  0  0  0  0  0  0  0  0  0
    8.8549   -0.0484   23.0170 H   0  0  0  0  0  0  0  0  0  0  0  0
    7.6265    0.3610   21.3051 C   0  0  0  0  0  0  0  0  0  0  0  0
    7.2299    1.3488   21.5749 H   0  0  0  0  0  0  0  0  0  0  0  0
    8.5540    0.5440   20.7413 H   0  0  0  0  0  0  0  0  0  0  0  0
    6.6311   -0.2962   20.4470 N   0  0  0  0  0  0  0  0  0  0  0  0
    6.1086    0.5052   19.3666 C   0  0  0  0  0  0  0  0  0  0  0  0
    6.7868    0.5832   18.1294 C   0  0  0  0  0  0  0  0  0  0  0  0
    7.7022    0.0136   17.9942 H   0  0  0  0  0  0  0  0  0  0  0  0
    6.3764    1.3064   17.0794 N   0  0  0  0  0  0  0  0  0  0  0  0
    5.2445    2.0161   17.2256 C   0  0  0  0  0  0  0  0  0  0  0  0
    4.9255    2.6048   16.3652 H   0  0  0  0  0  0  0  0  0  0  0  0
    4.4949    2.0242   18.4061 C   0  0  0  0  0  0  0  0  0  0  0  0
    3.5849    2.6197   18.4545 H   0  0  0  0  0  0  0  0  0  0  0  0
    4.9359    1.2639   19.5008 C   0  0  0  0  0  0  0  0  0  0  0  0
    4.3890    1.2671   20.4433 H   0  0  0  0  0  0  0  0  0  0  0  0
    6.4654   -1.6962   20.4163 C   0  0  0  0  0  0  0  0  0  0  0  0
    5.6726   -2.2480   19.6778 O   0  0  0  0  0  0  0  0  0  0  0  0
  1  2  1  0
  2  3  2  0
  3  4  1  0
  4  5  1  0
  4  6  1  0
  4  7  1  0
  7  8  1  0
  7  9  1  0
  7 10  1  0
 10 11  1  0
 11 12  1  0
 11 13  1  0
 11 14  1  0
 14 15  1  0
 14 16  1  0
 14 17  1  0
 17 18  1  0
 17 19  1  0
 17 20  1  0
 20 21  1  6
 20 22  1  0
 22 23  1  0
 22 24  1  0
 22 25  1  0
  3 26  1  0
 26 27  1  0
 26 28  1  0
 26 29  1  0
 29 30  1  0
 29 31  1  0
 29 32  1  0
 32 33  1  0
 33 34  2  0
 34 35  1  0
 34 36  1  0
 36 37  2  0
 37 38  1  0
 37 39  1  0
 39 40  1  0
 39 41  2  0
 41 42  1  0
 32 43  1  0
 43 44  2  0
 43  2  1  0
 20 10  1  0
 41 33  1  0
M  END
>  <cnnaffinity>  (1) 
-5.25411

>  <filename>  (1) 
C[C@@H]1CCCN1CCC1=CC(=O)N(c2cccnc2)CC1

$$$$
