
     RDKit          3D

 35 37  0  0  0  0  0  0  0  0999 V2000
    4.9514    1.7794   16.9161 H   0  0  0  0  0  0  0  0  0  0  0  0
    5.3981    1.3403   17.8071 C   0  0  0  0  0  0  0  0  0  0  0  0
    6.5812    0.7288   17.6372 N   0  0  0  0  0  0  0  0  0  0  0  0
    7.1454    0.1821   18.7215 C   0  0  0  0  0  0  0  0  0  0  0  0
    8.0883   -0.3346   18.5488 H   0  0  0  0  0  0  0  0  0  0  0  0
    6.6001    0.2134   20.0296 C   0  0  0  0  0  0  0  0  0  0  0  0
    7.2751   -0.4549   21.1938 C   0  0  0  0  0  0  0  0  0  0  0  0
    7.7185   -1.7750   21.1048 C   0  0  0  0  0  0  0  0  0  0  0  0
    7.4720   -2.3477   20.2156 H   0  0  0  0  0  0  0  0  0  0  0  0
    8.3784   -2.4160   22.0551 N   0  0  0  0  0  0  0  0  0  0  0  0
    8.5864   -1.7460   23.1990 C   0  0  0  0  0  0  0  0  0  0  0  0
    9.3019   -2.5220   24.2959 C   0  0  1  0  0  0  0  0  0  0  0  0
    9.6434   -1.7930   25.0401 H   0  0  0  0  0  0  0  0  0  0  0  0
    8.3255   -3.5084   24.9478 C   0  0  0  0  0  0  0  0  0  0  0  0
    8.0465   -3.4431   26.3159 C   0  0  0  0  0  0  0  0  0  0  0  0
    8.5247   -2.6698   26.9130 H   0  0  0  0  0  0  0  0  0  0  0  0
    7.1738   -4.3606   26.9164 C   0  0  0  0  0  0  0  0  0  0  0  0
    6.9884   -4.3061   27.9868 H   0  0  0  0  0  0  0  0  0  0  0  0
    6.5664   -5.3542   26.1426 C   0  0  0  0  0  0  0  0  0  0  0  0
    5.8860   -6.0654   26.6080 H   0  0  0  0  0  0  0  0  0  0  0  0
    6.8354   -5.4288   24.7700 C   0  0  0  0  0  0  0  0  0  0  0  0
    6.3548   -6.1942   24.1632 H   0  0  0  0  0  0  0  0  0  0  0  0
    7.7248   -4.5261   24.1814 C   0  0  0  0  0  0  0  0  0  0  0  0
    7.9428   -4.6010   23.1200 H   0  0  0  0  0  0  0  0  0  0  0  0
   10.5258   -3.3025   23.7670 C   0  0  0  0  0  0  0  0  0  0  0  0
   11.0390   -3.8101   24.5891 H   0  0  0  0  0  0  0  0  0  0  0  0
   11.2416   -2.6504   23.2617 H   0  0  0  0  0  0  0  0  0  0  0  0
   10.1939   -4.0542   23.0479 H   0  0  0  0  0  0  0  0  0  0  0  0
    8.1622   -0.4983   23.4341 N   0  0  0  0  0  0  0  0  0  0  0  0
    7.5033    0.1234   22.4497 C   0  0  0  0  0  0  0  0  0  0  0  0
    7.1474    1.1318   22.6721 H   0  0  0  0  0  0  0  0  0  0  0  0
    5.3599    0.8526   20.1664 C   0  0  0  0  0  0  0  0  0  0  0  0
    4.8709    0.8753   21.1402 H   0  0  0  0  0  0  0  0  0  0  0  0
    4.7451    1.4095   19.0408 C   0  0  0  0  0  0  0  0  0  0  0  0
    3.7763    1.8914   19.1021 H   0  0  0  0  0  0  0  0  0  0  0  0
  1  2  1  0
  2  3  2  0
  3  4  1  0
  4  5  1  0
  4  6  2  0
  6  7  1  0
  7  8  2  0
  8  9  1  0
  8 10  1  0
 10 11  2  0
 11 12  1  0
 12 13  1  1
 12 14  1  0
 14 15  2  0
 15 16  1  0
 15 17  1  0
 17 18  1  0
 17 19  2  0
 19 20  1  0
 19 21  1  0
 21 22  1  0
 21 23  2  0
 23 24  1  0
 12 25  1  0
 25 26  1  0
 25 27  1  0
 25 28  1  0
 11 29  1  0
 29 30  2  0
 30 31  1  0
  6 32  1  0
 32 33  1  0
 32 34  2  0
 34 35  1  0
 34  2  1  0
 30  7  1  0
 23 14  1  0
M  END
>  <cnnaffinity>  (1) 
-5.27455

>  <filename>  (1) 
C[C@H](c1ccccc1)c1ncc(-c2cccnc2)cn1

$$$$
