
     RDKit          3D

 43 46  0  0  0  0  0  0  0  0999 V2000
    4.9778    1.8384   16.9377 H   0  0  0  0  0  0  0  0  0  0  0  0
    5.4156    1.2999   17.7727 C   0  0  0  0  0  0  0  0  0  0  0  0
    6.5649    0.6585   17.5181 N   0  0  0  0  0  0  0  0  0  0  0  0
    7.1415   -0.0002   18.5290 C   0  0  0  0  0  0  0  0  0  0  0  0
    8.0934   -0.4812   18.3077 H   0  0  0  0  0  0  0  0  0  0  0  0
    6.6100   -0.0513   19.8328 C   0  0  0  0  0  0  0  0  0  0  0  0
    7.3811   -0.6717   20.9289 C   0  0  0  0  0  0  0  0  0  0  0  0
    8.4987   -1.3774   20.6891 N   0  0  0  0  0  0  0  0  0  0  0  0
    8.9460   -1.6625   21.9325 N   0  0  0  0  0  0  0  0  0  0  0  0
   10.0743   -2.2743   22.4601 C   0  0  0  0  0  0  0  0  0  0  0  0
   10.7959   -2.7192   21.8003 H   0  0  0  0  0  0  0  0  0  0  0  0
    9.9804   -2.1244   23.8076 C   0  0  0  0  0  0  0  0  0  0  0  0
   10.6547   -2.4560   24.5864 H   0  0  0  0  0  0  0  0  0  0  0  0
    8.8054   -1.4352   24.1083 N   0  0  0  0  0  0  0  0  0  0  0  0
    8.2831   -0.9944   25.3859 C   0  0  0  0  0  0  0  0  0  0  0  0
    9.0503   -1.0699   26.1650 H   0  0  0  0  0  0  0  0  0  0  0  0
    8.0339    0.0679   25.2907 H   0  0  0  0  0  0  0  0  0  0  0  0
    7.0163   -1.7350   25.8283 C   0  0  0  0  0  0  0  0  0  0  0  0
    6.6492   -1.2275   26.7426 H   0  0  0  0  0  0  0  0  0  0  0  0
    6.2645   -1.5870   25.0411 H   0  0  0  0  0  0  0  0  0  0  0  0
    7.2084   -3.1576   26.0361 N   0  0  0  0  0  0  0  0  0  0  0  0
    8.1831   -3.5302   27.0480 C   0  0  0  0  0  0  0  0  0  0  0  0
    9.1966   -3.4678   26.6320 H   0  0  0  0  0  0  0  0  0  0  0  0
    8.1614   -2.8388   27.9008 H   0  0  0  0  0  0  0  0  0  0  0  0
    7.8135   -4.9587   27.4744 C   0  0  0  0  0  0  0  0  0  0  0  0
    8.6576   -5.6346   27.3184 H   0  0  0  0  0  0  0  0  0  0  0  0
    7.5564   -4.9876   28.5377 H   0  0  0  0  0  0  0  0  0  0  0  0
    6.6160   -5.3372   26.5901 C   0  0  0  0  0  0  0  0  0  0  0  0
    5.8867   -5.9673   27.1084 H   0  0  0  0  0  0  0  0  0  0  0  0
    6.9575   -5.8865   25.7090 H   0  0  0  0  0  0  0  0  0  0  0  0
    6.0162   -4.0003   26.1290 C   0  0  1  0  0  0  0  0  0  0  0  0
    5.5881   -4.1113   25.1211 H   0  0  0  0  0  0  0  0  0  0  0  0
    4.9092   -3.4653   27.0501 C   0  0  0  0  0  0  0  0  0  0  0  0
    4.0991   -4.1951   27.1489 H   0  0  0  0  0  0  0  0  0  0  0  0
    5.2916   -3.2391   28.0534 H   0  0  0  0  0  0  0  0  0  0  0  0
    4.4684   -2.5543   26.6298 H   0  0  0  0  0  0  0  0  0  0  0  0
    8.1747   -1.1615   22.9175 C   0  0  0  0  0  0  0  0  0  0  0  0
    7.1034   -0.5243   22.3115 C   0  0  0  0  0  0  0  0  0  0  0  0
    6.2419   -0.0462   22.7440 H   0  0  0  0  0  0  0  0  0  0  0  0
    5.3924    0.6152   20.0709 C   0  0  0  0  0  0  0  0  0  0  0  0
    4.9403    0.6471   21.0641 H   0  0  0  0  0  0  0  0  0  0  0  0
    4.7899    1.3014   19.0216 C   0  0  0  0  0  0  0  0  0  0  0  0
    3.8716    1.8584   19.1671 H   0  0  0  0  0  0  0  0  0  0  0  0
  1  2  1  0
  2  3  2  0
  3  4  1  0
  4  5  1  0
  4  6  2  0
  6  7  1  0
  7  8  2  0
  8  9  1  0
  9 10  1  0
 10 11  1  0
 10 12  2  0
 12 13  1  0
 12 14  1  0
 14 15  1  0
 15 16  1  0
 15 17  1  0
 15 18  1  0
 18 19  1  0
 18 20  1  0
 18 21  1  0
 21 22  1  0
 22 23  1  0
 22 24  1  0
 22 25  1  0
 25 26  1  0
 25 27  1  0
 25 28  1  0
 28 29  1  0
 28 30  1  0
 28 31  1  0
 31 32  1  6
 31 33  1  0
 33 34  1  0
 33 35  1  0
 33 36  1  0
 14 37  1  0
 37 38  2  0
 38 39  1  0
  6 40  1  0
 40 41  1  0
 40 42  2  0
 42 43  1  0
 42  2  1  0
 38  7  1  0
 37  9  1  0
 31 21  1  0
M  END
>  <cnnaffinity>  (1) 
-5.49284

>  <filename>  (1) 
C[C@@H]1CCCN1CCn1ccn2nc(-c3cccnc3)cc12

$$$$
