
     RDKit          3D

 33 34  0  0  0  0  0  0  0  0999 V2000
    4.9563    1.7999   17.0261 H   0  0  0  0  0  0  0  0  0  0  0  0
    5.4257    1.2768   17.8560 C   0  0  0  0  0  0  0  0  0  0  0  0
    6.5907    0.6542   17.5909 N   0  0  0  0  0  0  0  0  0  0  0  0
    7.2001    0.0325   18.6019 C   0  0  0  0  0  0  0  0  0  0  0  0
    8.1552   -0.4561   18.4054 H   0  0  0  0  0  0  0  0  0  0  0  0
    6.6867   -0.0237   19.9200 C   0  0  0  0  0  0  0  0  0  0  0  0
    7.4839   -0.6759   20.8215 O   0  0  0  0  0  0  0  0  0  0  0  0
    7.0200   -0.9106   22.1585 C   0  0  2  0  0  0  0  0  0  0  0  0
    6.4964   -0.0225   22.5299 H   0  0  0  0  0  0  0  0  0  0  0  0
    8.1605   -1.1992   22.9923 N   0  0  0  0  0  0  0  0  0  0  0  0
    8.6839   -1.9004   22.4775 H   0  0  0  0  0  0  0  0  0  0  0  0
    9.0765   -0.1141   23.2841 C   0  0  0  0  0  0  0  0  0  0  0  0
    8.4970    0.7279   23.6876 H   0  0  0  0  0  0  0  0  0  0  0  0
   10.1159   -0.5462   24.3156 C   0  0  0  0  0  0  0  0  0  0  0  0
   10.4299   -1.5676   24.0688 H   0  0  0  0  0  0  0  0  0  0  0  0
    9.6987   -0.5668   25.3276 H   0  0  0  0  0  0  0  0  0  0  0  0
   11.2916    0.4347   24.1562 C   0  0  0  0  0  0  0  0  0  0  0  0
   11.1744    1.2831   24.8389 H   0  0  0  0  0  0  0  0  0  0  0  0
   12.2515   -0.0310   24.3980 H   0  0  0  0  0  0  0  0  0  0  0  0
   11.2313    0.9271   22.6861 C   0  0  0  0  0  0  0  0  0  0  0  0
   12.0888    0.5823   22.0989 H   0  0  0  0  0  0  0  0  0  0  0  0
   11.2413    2.0204   22.6477 H   0  0  0  0  0  0  0  0  0  0  0  0
    9.9271    0.3594   22.0945 C   0  0  0  0  0  0  0  0  0  0  0  0
   10.1521   -0.5202   21.4822 H   0  0  0  0  0  0  0  0  0  0  0  0
    9.3706    1.0554   21.4629 H   0  0  0  0  0  0  0  0  0  0  0  0
    6.1372   -2.1390   22.1552 C   0  0  0  0  0  0  0  0  0  0  0  0
    5.2597   -2.0116   21.5136 H   0  0  0  0  0  0  0  0  0  0  0  0
    5.8082   -2.3886   23.1692 H   0  0  0  0  0  0  0  0  0  0  0  0
    6.7380   -2.9653   21.7705 H   0  0  0  0  0  0  0  0  0  0  0  0
    5.4596    0.6029   20.1786 C   0  0  0  0  0  0  0  0  0  0  0  0
    5.0122    0.5928   21.1725 H   0  0  0  0  0  0  0  0  0  0  0  0
    4.8315    1.2717   19.1190 C   0  0  0  0  0  0  0  0  0  0  0  0
    3.8970    1.8064   19.2742 H   0  0  0  0  0  0  0  0  0  0  0  0
  1  2  1  0
  2  3  2  0
  3  4  1  0
  4  5  1  0
  4  6  2  0
  6  7  1  0
  7  8  1  0
  8  9  1  1
  8 10  1  0
 10 11  1  0
 10 12  1  0
 12 13  1  0
 12 14  1  0
 14 15  1  0
 14 16  1  0
 14 17  1  0
 17 18  1  0
 17 19  1  0
 17 20  1  0
 20 21  1  0
 20 22  1  0
 20 23  1  0
 23 24  1  0
 23 25  1  0
  8 26  1  0
 26 27  1  0
 26 28  1  0
 26 29  1  0
  6 30  1  0
 30 31  1  0
 30 32  2  0
 32 33  1  0
 32  2  1  0
 23 12  1  0
M  END
>  <cnnaffinity>  (1) 
-4.6325

>  <filename>  (1) 
C[C@@H](NC1CCCC1)Oc1cccnc1

$$$$
