
     RDKit          3D

 39 40  0  0  0  0  0  0  0  0999 V2000
    5.3673    1.5839   17.0200 H   0  0  0  0  0  0  0  0  0  0  0  0
    5.8007    1.1143   17.9014 C   0  0  0  0  0  0  0  0  0  0  0  0
    6.7568    0.2041   17.6674 N   0  0  0  0  0  0  0  0  0  0  0  0
    7.3089   -0.4134   18.7071 C   0  0  0  0  0  0  0  0  0  0  0  0
    8.1048   -1.1216   18.4869 H   0  0  0  0  0  0  0  0  0  0  0  0
    6.9095   -0.1332   20.0013 C   0  0  0  0  0  0  0  0  0  0  0  0
    7.5655   -1.1283   21.2256 S   0  0  0  0  0  0  0  0  0  0  0  0
    7.0065   -2.4609   21.1877 O   0  0  0  0  0  0  0  0  0  0  0  0
    7.6371   -0.3641   22.4537 O   0  0  0  0  0  0  0  0  0  0  0  0
    9.1188   -1.3997   20.7055 N   0  0  0  0  0  0  0  0  0  0  0  0
    9.4193   -2.0995   21.3608 H   0  0  0  0  0  0  0  0  0  0  0  0
    9.8697   -0.2418   20.7333 C   0  0  0  0  0  0  0  0  0  0  0  0
    9.3883    0.8170   20.4030 O   0  0  0  0  0  0  0  0  0  0  0  0
   11.2988   -0.4525   21.1437 C   0  0  0  0  0  0  0  0  0  0  0  0
   11.7981   -1.2527   20.5995 H   0  0  0  0  0  0  0  0  0  0  0  0
   11.7961    0.4810   20.9002 H   0  0  0  0  0  0  0  0  0  0  0  0
   11.4374   -0.6380   22.6437 C   0  0  0  0  0  0  0  0  0  0  0  0
   11.0546   -1.6208   22.9524 H   0  0  0  0  0  0  0  0  0  0  0  0
   12.5125   -0.5931   22.9224 H   0  0  0  0  0  0  0  0  0  0  0  0
   10.6683    0.3975   23.2927 N   0  0  0  0  0  0  0  0  0  0  0  0
   11.0349    1.7700   22.9365 C   0  0  0  0  0  0  0  0  0  0  0  0
   10.7884    1.9976   21.8935 H   0  0  0  0  0  0  0  0  0  0  0  0
   12.1260    1.9263   23.0818 H   0  0  0  0  0  0  0  0  0  0  0  0
   10.2473    2.5778   23.9493 C   0  0  0  0  0  0  0  0  0  0  0  0
   10.5584    3.6284   23.9610 H   0  0  0  0  0  0  0  0  0  0  0  0
    9.1777    2.5335   23.6961 H   0  0  0  0  0  0  0  0  0  0  0  0
   10.5780    1.7765   25.2143 C   0  0  0  0  0  0  0  0  0  0  0  0
   11.6125    2.0097   25.4847 H   0  0  0  0  0  0  0  0  0  0  0  0
    9.9233    1.9816   26.0678 H   0  0  0  0  0  0  0  0  0  0  0  0
   10.5319    0.3020   24.7488 C   0  0  1  0  0  0  0  0  0  0  0  0
   11.3742   -0.2643   25.1921 H   0  0  0  0  0  0  0  0  0  0  0  0
    9.2373   -0.4124   25.1099 C   0  0  0  0  0  0  0  0  0  0  0  0
    9.2612   -1.4537   24.7728 H   0  0  0  0  0  0  0  0  0  0  0  0
    8.3855    0.0765   24.6291 H   0  0  0  0  0  0  0  0  0  0  0  0
    9.0867   -0.4154   26.1926 H   0  0  0  0  0  0  0  0  0  0  0  0
    5.9441    0.8382   20.2832 C   0  0  0  0  0  0  0  0  0  0  0  0
    5.6661    1.1036   21.3078 H   0  0  0  0  0  0  0  0  0  0  0  0
    5.3684    1.4688   19.1851 C   0  0  0  0  0  0  0  0  0  0  0  0
    4.6157    2.2422   19.2986 H   0  0  0  0  0  0  0  0  0  0  0  0
  1  2  1  0
  2  3  2  0
  3  4  1  0
  4  5  1  0
  4  6  2  0
  6  7  1  0
  7  8  2  0
  7  9  2  0
  7 10  1  0
 10 11  1  0
 10 12  1  0
 12 13  2  0
 12 14  1  0
 14 15  1  0
 14 16  1  0
 14 17  1  0
 17 18  1  0
 17 19  1  0
 17 20  1  0
 20 21  1  0
 21 22  1  0
 21 23  1  0
 21 24  1  0
 24 25  1  0
 24 26  1  0
 24 27  1  0
 27 28  1  0
 27 29  1  0
 27 30  1  0
 30 31  1  1
 30 32  1  0
 32 33  1  0
 32 34  1  0
 32 35  1  0
  6 36  1  0
 36 37  1  0
 36 38  2  0
 38 39  1  0
 38  2  1  0
 30 20  1  0
M  END
>  <cnnaffinity>  (1) 
-5.16685

>  <filename>  (1) 
C[C@@H]1CCCN1CCC(=O)NS(=O)(=O)c1cccnc1

$$$$
