
     RDKit          3D

 42 44  0  0  0  0  0  0  0  0999 V2000
    4.9287    1.8144   16.9678 H   0  0  0  0  0  0  0  0  0  0  0  0
    5.3876    1.2937   17.8037 C   0  0  0  0  0  0  0  0  0  0  0  0
    6.5468    0.6660   17.5428 N   0  0  0  0  0  0  0  0  0  0  0  0
    7.1651    0.0530   18.5608 C   0  0  0  0  0  0  0  0  0  0  0  0
    8.1135   -0.4350   18.3318 H   0  0  0  0  0  0  0  0  0  0  0  0
    6.6583    0.0351   19.8772 C   0  0  0  0  0  0  0  0  0  0  0  0
    7.3312   -0.6587   20.9507 N   0  0  0  0  0  0  0  0  0  0  0  0
    7.5177   -2.0260   20.8409 C   0  0  0  0  0  0  0  0  0  0  0  0
    7.0611   -2.4831   19.9707 H   0  0  0  0  0  0  0  0  0  0  0  0
    8.1916   -2.7326   21.7892 C   0  0  0  0  0  0  0  0  0  0  0  0
    8.3673   -3.7896   21.6353 H   0  0  0  0  0  0  0  0  0  0  0  0
    8.6710   -2.0961   22.9723 C   0  0  0  0  0  0  0  0  0  0  0  0
    9.3185   -2.9088   24.0702 C   0  0  0  0  0  0  0  0  0  0  0  0
    9.7997   -2.2405   24.7908 H   0  0  0  0  0  0  0  0  0  0  0  0
   10.1056   -3.5491   23.6530 H   0  0  0  0  0  0  0  0  0  0  0  0
    8.3146   -3.7838   24.8341 C   0  0  0  0  0  0  0  0  0  0  0  0
    7.8130   -4.4813   24.1375 H   0  0  0  0  0  0  0  0  0  0  0  0
    8.8884   -4.4193   25.5183 H   0  0  0  0  0  0  0  0  0  0  0  0
    7.3810   -2.9682   25.6091 N   0  0  0  0  0  0  0  0  0  0  0  0
    6.9998   -3.5188   26.9132 C   0  0  0  0  0  0  0  0  0  0  0  0
    7.8363   -4.0472   27.3871 H   0  0  0  0  0  0  0  0  0  0  0  0
    6.7457   -2.6847   27.5779 H   0  0  0  0  0  0  0  0  0  0  0  0
    5.7647   -4.4018   26.6745 C   0  0  0  0  0  0  0  0  0  0  0  0
    5.1004   -4.4056   27.5431 H   0  0  0  0  0  0  0  0  0  0  0  0
    6.0708   -5.4370   26.4944 H   0  0  0  0  0  0  0  0  0  0  0  0
    5.1119   -3.7914   25.4139 C   0  0  0  0  0  0  0  0  0  0  0  0
    4.1125   -3.3843   25.6081 H   0  0  0  0  0  0  0  0  0  0  0  0
    4.9980   -4.5361   24.6222 H   0  0  0  0  0  0  0  0  0  0  0  0
    6.0856   -2.6651   24.9639 C   0  0  1  0  0  0  0  0  0  0  0  0
    6.1922   -2.6406   23.8717 H   0  0  0  0  0  0  0  0  0  0  0  0
    5.6062   -1.2843   25.4116 C   0  0  0  0  0  0  0  0  0  0  0  0
    5.6129   -1.1978   26.5001 H   0  0  0  0  0  0  0  0  0  0  0  0
    4.5873   -1.0841   25.0640 H   0  0  0  0  0  0  0  0  0  0  0  0
    6.2534   -0.4971   25.0181 H   0  0  0  0  0  0  0  0  0  0  0  0
    8.4439   -0.7584   23.1189 C   0  0  0  0  0  0  0  0  0  0  0  0
    8.7556   -0.2079   23.9924 H   0  0  0  0  0  0  0  0  0  0  0  0
    7.7374    0.0440   22.1382 C   0  0  0  0  0  0  0  0  0  0  0  0
    7.5183    1.2352   22.2916 O   0  0  0  0  0  0  0  0  0  0  0  0
    5.4437    0.6808   20.1290 C   0  0  0  0  0  0  0  0  0  0  0  0
    5.0433    0.6786   21.1410 H   0  0  0  0  0  0  0  0  0  0  0  0
    4.7907    1.3153   19.0689 C   0  0  0  0  0  0  0  0  0  0  0  0
    3.8566    1.8484   19.2179 H   0  0  0  0  0  0  0  0  0  0  0  0
  1  2  1  0
  2  3  2  0
  3  4  1  0
  4  5  1  0
  4  6  2  0
  6  7  1  0
  7  8  1  0
  8  9  1  0
  8 10  2  0
 10 11  1  0
 10 12  1  0
 12 13  1  0
 13 14  1  0
 13 15  1  0
 13 16  1  0
 16 17  1  0
 16 18  1  0
 16 19  1  0
 19 20  1  0
 20 21  1  0
 20 22  1  0
 20 23  1  0
 23 24  1  0
 23 25  1  0
 23 26  1  0
 26 27  1  0
 26 28  1  0
 26 29  1  0
 29 30  1  6
 29 31  1  0
 31 32  1  0
 31 33  1  0
 31 34  1  0
 12 35  2  0
 35 36  1  0
 35 37  1  0
 37 38  2  0
  6 39  1  0
 39 40  1  0
 39 41  2  0
 41 42  1  0
 41  2  1  0
 37  7  1  0
 29 19  1  0
M  END
>  <cnnaffinity>  (1) 
-5.13971

>  <filename>  (1) 
C[C@@H]1CCCN1CCc1ccn(-c2cccnc2)c(=O)c1

$$$$
