
     RDKit          3D

 34 35  0  0  0  0  0  0  0  0999 V2000
    5.6190   -1.7029   21.5721 H   0  0  0  0  0  0  0  0  0  0  0  0
    6.6800   -1.5516   21.7945 C   0  0  0  0  0  0  0  0  0  0  0  0
    7.3868   -0.7353   20.9973 C   0  0  0  0  0  0  0  0  0  0  0  0
    6.6491   -0.0125   19.9088 C   0  0  0  0  0  0  0  0  0  0  0  0
    7.1646    0.0624   18.5986 C   0  0  0  0  0  0  0  0  0  0  0  0
    8.1145   -0.4188   18.3698 H   0  0  0  0  0  0  0  0  0  0  0  0
    6.5602    0.6766   17.5727 N   0  0  0  0  0  0  0  0  0  0  0  0
    5.3974    1.2963   17.8284 C   0  0  0  0  0  0  0  0  0  0  0  0
    4.9270    1.7989   16.9854 H   0  0  0  0  0  0  0  0  0  0  0  0
    4.7965    1.3136   19.0930 C   0  0  0  0  0  0  0  0  0  0  0  0
    3.8635    1.8510   19.2385 H   0  0  0  0  0  0  0  0  0  0  0  0
    5.4244    0.6424   20.1430 C   0  0  0  0  0  0  0  0  0  0  0  0
    5.0042    0.6352   21.1496 H   0  0  0  0  0  0  0  0  0  0  0  0
    8.8772   -0.4794   21.1464 C   0  0  0  0  0  0  0  0  0  0  0  0
    9.1459   -0.2401   22.1839 H   0  0  0  0  0  0  0  0  0  0  0  0
    9.1802    0.3777   20.5347 H   0  0  0  0  0  0  0  0  0  0  0  0
    9.4984   -1.3324   20.8412 H   0  0  0  0  0  0  0  0  0  0  0  0
    7.2027   -2.2556   22.8939 N   0  0  0  0  0  0  0  0  0  0  0  0
    8.1920   -2.4549   22.9228 H   0  0  0  0  0  0  0  0  0  0  0  0
    6.6006   -3.1388   23.7570 C   0  0  0  0  0  0  0  0  0  0  0  0
    7.5569   -4.1962   24.5880 S   0  0  0  0  0  0  0  0  0  0  0  0
    5.2602   -2.9677   23.8807 N   0  0  0  0  0  0  0  0  0  0  0  0
    5.0009   -1.9985   23.8331 H   0  0  0  0  0  0  0  0  0  0  0  0
    4.2741   -3.8988   24.2709 C   0  0  0  0  0  0  0  0  0  0  0  0
    3.1579   -3.4796   25.0070 C   0  0  0  0  0  0  0  0  0  0  0  0
    3.0641   -2.4353   25.2915 H   0  0  0  0  0  0  0  0  0  0  0  0
    2.1816   -4.4177   25.3735 C   0  0  0  0  0  0  0  0  0  0  0  0
    1.3172   -4.0970   25.9536 H   0  0  0  0  0  0  0  0  0  0  0  0
    2.3147   -5.7580   24.9915 C   0  0  0  0  0  0  0  0  0  0  0  0
    1.5615   -6.4845   25.2815 H   0  0  0  0  0  0  0  0  0  0  0  0
    3.4244   -6.1636   24.2401 C   0  0  0  0  0  0  0  0  0  0  0  0
    3.5381   -7.2016   23.9358 H   0  0  0  0  0  0  0  0  0  0  0  0
    4.4010   -5.2338   23.8804 C   0  0  0  0  0  0  0  0  0  0  0  0
    5.2687   -5.5173   23.2954 H   0  0  0  0  0  0  0  0  0  0  0  0
  1  2  1  0
  2  3  2  3
  3  4  1  0
  4  5  2  0
  5  6  1  0
  5  7  1  0
  7  8  2  0
  8  9  1  0
  8 10  1  0
 10 11  1  0
 10 12  2  0
 12 13  1  0
  3 14  1  0
 14 15  1  0
 14 16  1  0
 14 17  1  0
  2 18  1  0
 18 19  1  0
 18 20  1  0
 20 21  2  0
 20 22  1  0
 22 23  1  0
 22 24  1  0
 24 25  2  0
 25 26  1  0
 25 27  1  0
 27 28  1  0
 27 29  2  0
 29 30  1  0
 29 31  1  0
 31 32  1  0
 31 33  2  0
 33 34  1  0
 12  4  1  0
 33 24  1  0
M  END
>  <cnnaffinity>  (1) 
-5.12876

>  <filename>  (1) 
CC(=CNC(=S)Nc1ccccc1)c1cccnc1

$$$$
