
     RDKit          3D

 24 24  0  0  0  0  0  0  0  0999 V2000
    7.2457   -2.3977   20.0597 H   0  0  0  0  0  0  0  0  0  0  0  0
    7.5850   -1.9014   20.9626 C   0  0  0  0  0  0  0  0  0  0  0  0
    7.3311   -0.5960   21.1091 C   0  0  0  0  0  0  0  0  0  0  0  0
    6.6637    0.0831   19.9536 C   0  0  0  0  0  0  0  0  0  0  0  0
    7.1729    0.0763   18.6314 C   0  0  0  0  0  0  0  0  0  0  0  0
    8.1119   -0.4279   18.4061 H   0  0  0  0  0  0  0  0  0  0  0  0
    6.5818    0.6714   17.5845 N   0  0  0  0  0  0  0  0  0  0  0  0
    5.4148    1.2996   17.8118 C   0  0  0  0  0  0  0  0  0  0  0  0
    4.9468    1.7823   16.9538 H   0  0  0  0  0  0  0  0  0  0  0  0
    4.7992    1.3412   19.0670 C   0  0  0  0  0  0  0  0  0  0  0  0
    3.8485    1.8503   19.1885 H   0  0  0  0  0  0  0  0  0  0  0  0
    5.4363    0.7358   20.1500 C   0  0  0  0  0  0  0  0  0  0  0  0
    4.9919    0.7341   21.1458 H   0  0  0  0  0  0  0  0  0  0  0  0
    7.5698    0.1383   22.4143 C   0  0  0  0  0  0  0  0  0  0  0  0
    8.6333    0.1317   22.6967 H   0  0  0  0  0  0  0  0  0  0  0  0
    7.2528    1.1843   22.3360 H   0  0  0  0  0  0  0  0  0  0  0  0
    7.0140   -0.3375   23.2384 H   0  0  0  0  0  0  0  0  0  0  0  0
    8.2269   -2.7079   21.8960 N   0  0  0  0  0  0  0  0  0  0  0  0
    8.4914   -2.3168   22.7789 H   0  0  0  0  0  0  0  0  0  0  0  0
    8.2355   -4.0776   21.8957 C   0  0  0  0  0  0  0  0  0  0  0  0
    7.7856   -4.7946   21.0324 O   0  0  0  0  0  0  0  0  0  0  0  0
    8.8482   -4.5432   23.0403 N   0  0  0  0  0  0  0  0  0  0  0  0
    9.0294   -5.5280   22.9293 H   0  0  0  0  0  0  0  0  0  0  0  0
    9.6803   -4.0152   23.2601 H   0  0  0  0  0  0  0  0  0  0  0  0
  1  2  1  0
  2  3  2  3
  3  4  1  0
  4  5  2  0
  5  6  1  0
  5  7  1  0
  7  8  2  0
  8  9  1  0
  8 10  1  0
 10 11  1  0
 10 12  2  0
 12 13  1  0
  3 14  1  0
 14 15  1  0
 14 16  1  0
 14 17  1  0
  2 18  1  0
 18 19  1  0
 18 20  1  0
 20 21  2  0
 20 22  1  0
 22 23  1  0
 22 24  1  0
 12  4  1  0
M  END
>  <cnnaffinity>  (1) 
-4.19468

>  <filename>  (1) 
CC(=CNC(N)=O)c1cccnc1

$$$$
