
     RDKit          3D

 18 18  0  0  0  0  0  0  0  0999 V2000
    4.9233    1.7880   16.9889 H   0  0  0  0  0  0  0  0  0  0  0  0
    5.3983    1.2949   17.8339 C   0  0  0  0  0  0  0  0  0  0  0  0
    6.5606    0.6766   17.5680 N   0  0  0  0  0  0  0  0  0  0  0  0
    7.1764    0.0749   18.5863 C   0  0  0  0  0  0  0  0  0  0  0  0
    8.1215   -0.4105   18.3631 H   0  0  0  0  0  0  0  0  0  0  0  0
    6.6625    0.0221   19.8997 C   0  0  0  0  0  0  0  0  0  0  0  0
    7.4192   -0.6723   20.9706 C   0  0  0  0  0  0  0  0  0  0  0  0
    9.0314   -0.4532   21.1520 S   0  0  0  0  0  0  0  0  0  0  0  0
    6.6210   -1.6663   21.8720 C   0  0  0  0  0  0  0  0  0  0  0  0
    5.5354   -2.0659   21.5107 O   0  0  0  0  0  0  0  0  0  0  0  0
    7.2790   -2.1739   23.1279 C   0  0  0  0  0  0  0  0  0  0  0  0
    6.5497   -2.7456   23.7063 H   0  0  0  0  0  0  0  0  0  0  0  0
    8.1181   -2.8134   22.8391 H   0  0  0  0  0  0  0  0  0  0  0  0
    7.7106   -1.3601   23.7151 H   0  0  0  0  0  0  0  0  0  0  0  0
    5.4314    0.6471   20.1582 C   0  0  0  0  0  0  0  0  0  0  0  0
    4.9934    0.6223   21.1563 H   0  0  0  0  0  0  0  0  0  0  0  0
    4.8047    1.3116   19.1012 C   0  0  0  0  0  0  0  0  0  0  0  0
    3.8724    1.8460   19.2489 H   0  0  0  0  0  0  0  0  0  0  0  0
  1  2  1  0
  2  3  2  0
  3  4  1  0
  4  5  1  0
  4  6  2  0
  6  7  1  0
  7  8  2  0
  7  9  1  0
  9 10  2  0
  9 11  1  0
 11 12  1  0
 11 13  1  0
 11 14  1  0
  6 15  1  0
 15 16  1  0
 15 17  2  0
 17 18  1  0
 17  2  1  0
M  END
>  <cnnaffinity>  (1) 
-3.64361

>  <filename>  (1) 
CC(=O)C(=S)c1cccnc1

$$$$
