
     RDKit          3D

 31 32  0  0  0  0  0  0  0  0999 V2000
    5.6609   -1.7776   21.6134 H   0  0  0  0  0  0  0  0  0  0  0  0
    6.7299   -1.6118   21.7691 C   0  0  0  0  0  0  0  0  0  0  0  0
    7.4017   -0.7438   20.9978 C   0  0  0  0  0  0  0  0  0  0  0  0
    6.6474   -0.0184   19.9182 C   0  0  0  0  0  0  0  0  0  0  0  0
    7.1595    0.0579   18.6057 C   0  0  0  0  0  0  0  0  0  0  0  0
    8.1119   -0.4186   18.3744 H   0  0  0  0  0  0  0  0  0  0  0  0
    6.5597    0.6735   17.5772 N   0  0  0  0  0  0  0  0  0  0  0  0
    5.3965    1.2945   17.8319 C   0  0  0  0  0  0  0  0  0  0  0  0
    4.9310    1.7971   16.9856 H   0  0  0  0  0  0  0  0  0  0  0  0
    4.7972    1.3094   19.0961 C   0  0  0  0  0  0  0  0  0  0  0  0
    3.8684    1.8491   19.2383 H   0  0  0  0  0  0  0  0  0  0  0  0
    5.4219    0.6371   20.1495 C   0  0  0  0  0  0  0  0  0  0  0  0
    4.9980    0.6416   21.1535 H   0  0  0  0  0  0  0  0  0  0  0  0
    8.8875   -0.4569   21.1640 C   0  0  0  0  0  0  0  0  0  0  0  0
    9.5246   -1.3164   20.9080 H   0  0  0  0  0  0  0  0  0  0  0  0
    9.1825    0.3760   20.5183 H   0  0  0  0  0  0  0  0  0  0  0  0
    9.1396   -0.1656   22.1956 H   0  0  0  0  0  0  0  0  0  0  0  0
    7.2766   -2.3765   22.8055 N   0  0  0  0  0  0  0  0  0  0  0  0
    8.2653   -2.3176   22.9848 H   0  0  0  0  0  0  0  0  0  0  0  0
    6.5686   -3.2830   23.5613 C   0  0  0  0  0  0  0  0  0  0  0  0
    5.4371   -3.6515   23.2897 O   0  0  0  0  0  0  0  0  0  0  0  0
    7.2854   -3.8241   24.7544 C   0  0  0  0  0  0  0  0  0  0  0  0
    6.7880   -5.0345   25.2583 C   0  0  0  0  0  0  0  0  0  0  0  0
    5.9479   -5.5386   24.7784 H   0  0  0  0  0  0  0  0  0  0  0  0
    7.2773   -5.6417   26.3381 N   0  0  0  0  0  0  0  0  0  0  0  0
    8.2839   -5.0502   26.9884 C   0  0  0  0  0  0  0  0  0  0  0  0
    8.6503   -5.5846   27.8672 H   0  0  0  0  0  0  0  0  0  0  0  0
    8.8371   -3.8282   26.5900 C   0  0  0  0  0  0  0  0  0  0  0  0
    9.6475   -3.3999   27.1677 H   0  0  0  0  0  0  0  0  0  0  0  0
    8.3312   -3.1967   25.4531 C   0  0  0  0  0  0  0  0  0  0  0  0
    8.7251   -2.2170   25.1614 H   0  0  0  0  0  0  0  0  0  0  0  0
  1  2  1  0
  2  3  2  3
  3  4  1  0
  4  5  2  0
  5  6  1  0
  5  7  1  0
  7  8  2  0
  8  9  1  0
  8 10  1  0
 10 11  1  0
 10 12  2  0
 12 13  1  0
  3 14  1  0
 14 15  1  0
 14 16  1  0
 14 17  1  0
  2 18  1  0
 18 19  1  0
 18 20  1  0
 20 21  2  0
 20 22  1  0
 22 23  2  0
 23 24  1  0
 23 25  1  0
 25 26  2  0
 26 27  1  0
 26 28  1  0
 28 29  1  0
 28 30  2  0
 30 31  1  0
 12  4  1  0
 30 22  1  0
M  END
>  <cnnaffinity>  (1) 
-5.0466

>  <filename>  (1) 
CC(=CNC(=O)c1cccnc1)c1cccnc1

$$$$
