
     RDKit          3D

 40 41  0  0  0  0  0  0  0  0999 V2000
    4.9519    1.7970   16.9319 H   0  0  0  0  0  0  0  0  0  0  0  0
    5.3976    1.2921   17.7872 C   0  0  0  0  0  0  0  0  0  0  0  0
    6.5685    0.6764   17.5663 N   0  0  0  0  0  0  0  0  0  0  0  0
    7.1592    0.0731   18.6086 C   0  0  0  0  0  0  0  0  0  0  0  0
    8.1143   -0.4120   18.4090 H   0  0  0  0  0  0  0  0  0  0  0  0
    6.6206    0.0213   19.9229 C   0  0  0  0  0  0  0  0  0  0  0  0
    7.3029   -0.5580   21.0214 N   0  0  0  0  0  0  0  0  0  0  0  0
    6.7088   -1.6304   21.8087 C   0  0  0  0  0  0  0  0  0  0  0  0
    6.8833   -1.4478   22.8810 H   0  0  0  0  0  0  0  0  0  0  0  0
    5.6283   -1.6161   21.6377 H   0  0  0  0  0  0  0  0  0  0  0  0
    7.1932   -3.0639   21.4718 C   0  0  0  0  0  0  0  0  0  0  0  0
    7.1662   -3.1716   20.3832 H   0  0  0  0  0  0  0  0  0  0  0  0
    6.4302   -3.7489   21.8549 H   0  0  0  0  0  0  0  0  0  0  0  0
    8.4990   -3.4897   22.0163 N   0  0  0  0  0  0  0  0  0  0  0  0
    8.5276   -4.5820   22.8808 C   0  0  0  0  0  0  0  0  0  0  0  0
    9.2444   -4.4932   23.9458 N   0  0  0  0  0  0  0  0  0  0  0  0
    9.0996   -5.5225   24.9207 N   0  0  0  0  0  0  0  0  0  0  0  0
    9.9402   -5.5666   25.4914 H   0  0  0  0  0  0  0  0  0  0  0  0
    8.0250   -5.6384   25.7676 C   0  0  0  0  0  0  0  0  0  0  0  0
    6.4974   -5.0157   25.6132 S   0  0  0  0  0  0  0  0  0  0  0  0
    8.3602   -6.3854   26.8554 N   0  0  0  0  0  0  0  0  0  0  0  0
    7.5471   -6.6342   27.3989 H   0  0  0  0  0  0  0  0  0  0  0  0
    9.0298   -7.1212   26.7021 H   0  0  0  0  0  0  0  0  0  0  0  0
    7.7088   -5.7844   22.4548 C   0  0  0  0  0  0  0  0  0  0  0  0
    6.7332   -5.7135   22.9392 H   0  0  0  0  0  0  0  0  0  0  0  0
    7.5847   -5.8056   21.3692 H   0  0  0  0  0  0  0  0  0  0  0  0
    8.1836   -6.7070   22.7939 H   0  0  0  0  0  0  0  0  0  0  0  0
    9.5697   -2.4960   22.1795 C   0  0  0  0  0  0  0  0  0  0  0  0
    9.4945   -2.0027   23.1620 H   0  0  0  0  0  0  0  0  0  0  0  0
   10.5269   -3.0178   22.2262 H   0  0  0  0  0  0  0  0  0  0  0  0
    9.6326   -1.4734   21.0531 C   0  0  0  0  0  0  0  0  0  0  0  0
   10.6653   -1.1131   20.9537 H   0  0  0  0  0  0  0  0  0  0  0  0
    9.3722   -1.9784   20.1191 H   0  0  0  0  0  0  0  0  0  0  0  0
    8.7064   -0.2744   21.2601 C   0  0  0  0  0  0  0  0  0  0  0  0
    8.8332    0.1015   22.2913 H   0  0  0  0  0  0  0  0  0  0  0  0
    9.0038    0.5538   20.6086 H   0  0  0  0  0  0  0  0  0  0  0  0
    5.3714    0.6424   20.1088 C   0  0  0  0  0  0  0  0  0  0  0  0
    4.9267    0.6282   21.1018 H   0  0  0  0  0  0  0  0  0  0  0  0
    4.7619    1.2999   19.0340 C   0  0  0  0  0  0  0  0  0  0  0  0
    3.8180    1.8220   19.1540 H   0  0  0  0  0  0  0  0  0  0  0  0
  1  2  1  0
  2  3  2  0
  3  4  1  0
  4  5  1  0
  4  6  2  0
  6  7  1  0
  7  8  1  0
  8  9  1  0
  8 10  1  0
  8 11  1  0
 11 12  1  0
 11 13  1  0
 11 14  1  0
 14 15  1  0
 15 16  2  3
 16 17  1  0
 17 18  1  0
 17 19  1  0
 19 20  2  0
 19 21  1  0
 21 22  1  0
 21 23  1  0
 15 24  1  0
 24 25  1  0
 24 26  1  0
 24 27  1  0
 14 28  1  0
 28 29  1  0
 28 30  1  0
 28 31  1  0
 31 32  1  0
 31 33  1  0
 31 34  1  0
 34 35  1  0
 34 36  1  0
  6 37  1  0
 37 38  1  0
 37 39  2  0
 39 40  1  0
 39  2  1  0
 34  7  1  0
M  END
>  <cnnaffinity>  (1) 
-5.59219

>  <filename>  (1) 
CC(=NNC(N)=S)N1CCCN(c2cccnc2)CC1

$$$$
