
     RDKit          3D

 31 31  0  0  0  0  0  0  0  0999 V2000
    5.6670   -1.7664   21.6065 H   0  0  0  0  0  0  0  0  0  0  0  0
    6.7312   -1.5947   21.7548 C   0  0  0  0  0  0  0  0  0  0  0  0
    7.3981   -0.7285   20.9874 C   0  0  0  0  0  0  0  0  0  0  0  0
    6.6477   -0.0066   19.9126 C   0  0  0  0  0  0  0  0  0  0  0  0
    7.1626    0.0658   18.6023 C   0  0  0  0  0  0  0  0  0  0  0  0
    8.1107   -0.4180   18.3767 H   0  0  0  0  0  0  0  0  0  0  0  0
    6.5583    0.6773   17.5757 N   0  0  0  0  0  0  0  0  0  0  0  0
    5.3975    1.2957   17.8315 C   0  0  0  0  0  0  0  0  0  0  0  0
    4.9209    1.7900   16.9858 H   0  0  0  0  0  0  0  0  0  0  0  0
    4.8021    1.3135   19.0982 C   0  0  0  0  0  0  0  0  0  0  0  0
    3.8723    1.8462   19.2466 H   0  0  0  0  0  0  0  0  0  0  0  0
    5.4237    0.6417   20.1508 C   0  0  0  0  0  0  0  0  0  0  0  0
    5.0058    0.6388   21.1575 H   0  0  0  0  0  0  0  0  0  0  0  0
    8.8821   -0.4477   21.1590 C   0  0  0  0  0  0  0  0  0  0  0  0
    9.1215   -0.1555   22.1943 H   0  0  0  0  0  0  0  0  0  0  0  0
    9.4991   -1.3238   20.9085 H   0  0  0  0  0  0  0  0  0  0  0  0
    9.1848    0.3800   20.5084 H   0  0  0  0  0  0  0  0  0  0  0  0
    7.2894   -2.3711   22.7766 N   0  0  0  0  0  0  0  0  0  0  0  0
    8.2786   -2.2719   22.9434 H   0  0  0  0  0  0  0  0  0  0  0  0
    6.5517   -3.2303   23.5694 C   0  0  0  0  0  0  0  0  0  0  0  0
    5.3532   -3.3832   23.4101 O   0  0  0  0  0  0  0  0  0  0  0  0
    7.3249   -4.0096   24.6521 C   0  0  0  0  0  0  0  0  0  0  0  0
    6.5306   -4.5997   25.1194 H   0  0  0  0  0  0  0  0  0  0  0  0
    8.3616   -4.9905   24.0654 C   0  0  0  0  0  0  0  0  0  0  0  0
    8.7882   -5.6241   24.8544 H   0  0  0  0  0  0  0  0  0  0  0  0
    9.1940   -4.4610   23.5859 H   0  0  0  0  0  0  0  0  0  0  0  0
    7.9064   -5.6509   23.3185 H   0  0  0  0  0  0  0  0  0  0  0  0
    7.9451   -3.1059   25.7372 C   0  0  0  0  0  0  0  0  0  0  0  0
    8.7578   -2.4892   25.3345 H   0  0  0  0  0  0  0  0  0  0  0  0
    8.3652   -3.7090   26.5535 H   0  0  0  0  0  0  0  0  0  0  0  0
    7.1955   -2.4345   26.1718 H   0  0  0  0  0  0  0  0  0  0  0  0
  1  2  1  0
  2  3  2  3
  3  4  1  0
  4  5  2  0
  5  6  1  0
  5  7  1  0
  7  8  2  0
  8  9  1  0
  8 10  1  0
 10 11  1  0
 10 12  2  0
 12 13  1  0
  3 14  1  0
 14 15  1  0
 14 16  1  0
 14 17  1  0
  2 18  1  0
 18 19  1  0
 18 20  1  0
 20 21  2  0
 20 22  1  0
 22 23  1  0
 22 24  1  0
 24 25  1  0
 24 26  1  0
 24 27  1  0
 22 28  1  0
 28 29  1  0
 28 30  1  0
 28 31  1  0
 12  4  1  0
M  END
>  <cnnaffinity>  (1) 
-4.85674

>  <filename>  (1) 
CC(=CNC(=O)C(C)C)c1cccnc1

$$$$
