
     RDKit          3D

 34 35  0  0  0  0  0  0  0  0999 V2000
    9.2085    0.0884   20.3771 H   0  0  0  0  0  0  0  0  0  0  0  0
    8.6497   -0.4888   21.1156 C   0  0  0  0  0  0  0  0  0  0  0  0
    7.3299   -0.6784   20.9547 C   0  0  0  0  0  0  0  0  0  0  0  0
    6.6145    0.0318   19.8632 C   0  0  0  0  0  0  0  0  0  0  0  0
    7.1442    0.0921   18.5587 C   0  0  0  0  0  0  0  0  0  0  0  0
    8.0830   -0.4158   18.3379 H   0  0  0  0  0  0  0  0  0  0  0  0
    6.5531    0.7057   17.5285 N   0  0  0  0  0  0  0  0  0  0  0  0
    5.3879    1.3296   17.7760 C   0  0  0  0  0  0  0  0  0  0  0  0
    4.9325    1.8425   16.9322 H   0  0  0  0  0  0  0  0  0  0  0  0
    4.7699    1.3363   19.0323 C   0  0  0  0  0  0  0  0  0  0  0  0
    3.8366    1.8715   19.1678 H   0  0  0  0  0  0  0  0  0  0  0  0
    5.3857    0.6692   20.0893 C   0  0  0  0  0  0  0  0  0  0  0  0
    4.9444    0.6495   21.0878 H   0  0  0  0  0  0  0  0  0  0  0  0
    6.5376   -1.6191   21.8384 C   0  0  0  0  0  0  0  0  0  0  0  0
    6.2327   -1.1335   22.7729 H   0  0  0  0  0  0  0  0  0  0  0  0
    7.1658   -2.4683   22.1241 H   0  0  0  0  0  0  0  0  0  0  0  0
    5.6445   -1.9914   21.3307 H   0  0  0  0  0  0  0  0  0  0  0  0
    9.4382   -1.0519   22.2331 C   0  0  0  0  0  0  0  0  0  0  0  0
   10.6059   -1.7834   21.9619 C   0  0  0  0  0  0  0  0  0  0  0  0
   11.0676   -1.7043   20.9817 H   0  0  0  0  0  0  0  0  0  0  0  0
   11.1411   -2.6140   22.9475 C   0  0  0  0  0  0  0  0  0  0  0  0
   11.9971   -3.2366   22.7251 H   0  0  0  0  0  0  0  0  0  0  0  0
   10.5759   -2.6659   24.2298 C   0  0  0  0  0  0  0  0  0  0  0  0
   10.9681   -3.3672   24.9641 H   0  0  0  0  0  0  0  0  0  0  0  0
    9.5460   -1.7734   24.5480 C   0  0  0  0  0  0  0  0  0  0  0  0
    8.9412   -1.5844   26.2235 S   0  0  0  0  0  0  0  0  0  0  0  0
    7.5512   -1.1485   26.1789 O   0  0  0  0  0  0  0  0  0  0  0  0
    9.3451   -2.7537   26.9915 O   0  0  0  0  0  0  0  0  0  0  0  0
    9.8704   -0.2107   26.8300 C   0  0  0  0  0  0  0  0  0  0  0  0
    9.5378    0.6931   26.3252 H   0  0  0  0  0  0  0  0  0  0  0  0
   10.9297   -0.3851   26.6638 H   0  0  0  0  0  0  0  0  0  0  0  0
    9.6347   -0.1592   27.8909 H   0  0  0  0  0  0  0  0  0  0  0  0
    8.9667   -0.9804   23.5541 C   0  0  0  0  0  0  0  0  0  0  0  0
    8.1125   -0.3493   23.7869 H   0  0  0  0  0  0  0  0  0  0  0  0
  1  2  1  0
  2  3  2  3
  3  4  1  0
  4  5  2  0
  5  6  1  0
  5  7  1  0
  7  8  2  0
  8  9  1  0
  8 10  1  0
 10 11  1  0
 10 12  2  0
 12 13  1  0
  3 14  1  0
 14 15  1  0
 14 16  1  0
 14 17  1  0
  2 18  1  0
 18 19  2  0
 19 20  1  0
 19 21  1  0
 21 22  1  0
 21 23  2  0
 23 24  1  0
 23 25  1  0
 25 26  1  0
 26 27  2  0
 26 28  2  0
 26 29  1  0
 29 30  1  0
 29 31  1  0
 29 32  1  0
 25 33  2  0
 33 34  1  0
 12  4  1  0
 33 18  1  0
M  END
>  <cnnaffinity>  (1) 
-5.07375

>  <filename>  (1) 
CC(=Cc1cccc(S(C)(=O)=O)c1)c1cccnc1

$$$$
