
     RDKit          3D

 25 25  0  0  0  0  0  0  0  0999 V2000
    7.2739   -2.3567   20.0122 H   0  0  0  0  0  0  0  0  0  0  0  0
    7.5874   -1.8743   20.9303 C   0  0  0  0  0  0  0  0  0  0  0  0
    7.3178   -0.5718   21.0807 C   0  0  0  0  0  0  0  0  0  0  0  0
    6.6428    0.1203   19.9332 C   0  0  0  0  0  0  0  0  0  0  0  0
    7.1565    0.1172   18.6118 C   0  0  0  0  0  0  0  0  0  0  0  0
    8.0979   -0.3832   18.3888 H   0  0  0  0  0  0  0  0  0  0  0  0
    6.5625    0.7095   17.5641 N   0  0  0  0  0  0  0  0  0  0  0  0
    5.3925    1.3272   17.7904 C   0  0  0  0  0  0  0  0  0  0  0  0
    4.9150    1.7931   16.9298 H   0  0  0  0  0  0  0  0  0  0  0  0
    4.7769    1.3754   19.0455 C   0  0  0  0  0  0  0  0  0  0  0  0
    3.8231    1.8749   19.1618 H   0  0  0  0  0  0  0  0  0  0  0  0
    5.4183    0.7774   20.1317 C   0  0  0  0  0  0  0  0  0  0  0  0
    4.9695    0.7858   21.1263 H   0  0  0  0  0  0  0  0  0  0  0  0
    7.5575    0.1552   22.3889 C   0  0  0  0  0  0  0  0  0  0  0  0
    7.0039   -0.3253   23.2103 H   0  0  0  0  0  0  0  0  0  0  0  0
    8.6185    0.1575   22.6814 H   0  0  0  0  0  0  0  0  0  0  0  0
    7.2371    1.1983   22.3107 H   0  0  0  0  0  0  0  0  0  0  0  0
    8.1907   -2.6893   21.8866 N   0  0  0  0  0  0  0  0  0  0  0  0
    8.6066   -2.2500   22.6854 H   0  0  0  0  0  0  0  0  0  0  0  0
    8.1610   -4.0606   21.9303 C   0  0  0  0  0  0  0  0  0  0  0  0
    7.6854   -4.7457   21.0482 O   0  0  0  0  0  0  0  0  0  0  0  0
    8.7761   -4.6189   23.1896 C   0  0  0  0  0  0  0  0  0  0  0  0
    8.9360   -5.6832   23.0283 H   0  0  0  0  0  0  0  0  0  0  0  0
    8.0855   -4.4622   24.0231 H   0  0  0  0  0  0  0  0  0  0  0  0
    9.7230   -4.1362   23.4556 H   0  0  0  0  0  0  0  0  0  0  0  0
  1  2  1  0
  2  3  2  3
  3  4  1  0
  4  5  2  0
  5  6  1  0
  5  7  1  0
  7  8  2  0
  8  9  1  0
  8 10  1  0
 10 11  1  0
 10 12  2  0
 12 13  1  0
  3 14  1  0
 14 15  1  0
 14 16  1  0
 14 17  1  0
  2 18  1  0
 18 19  1  0
 18 20  1  0
 20 21  2  0
 20 22  1  0
 22 23  1  0
 22 24  1  0
 22 25  1  0
 12  4  1  0
M  END
>  <cnnaffinity>  (1) 
-4.2515

>  <filename>  (1) 
CC(=O)NC=C(C)c1cccnc1

$$$$
