
     RDKit          3D

 41 43  0  0  0  0  0  0  0  0999 V2000
   10.5037    0.8969   22.5036 C   0  0  0  0  0  0  0  0  0  0  0  0
    9.2476    0.0784   22.7823 C   0  0  0  0  0  0  0  0  0  0  0  0
    8.5228    0.0732   21.4134 N   0  0  0  0  0  4  0  0  0  0  0  0
    7.1358   -0.4503   21.2958 C   0  0  2  0  0  0  0  0  0  0  0  0
    7.1589   -1.9742   21.1795 C   0  0  0  0  0  0  0  0  0  0  0  0
    7.4855   -2.4411   22.1093 H   0  0  0  0  0  0  0  0  0  0  0  0
    6.1829   -2.3748   20.9037 H   0  0  0  0  0  0  0  0  0  0  0  0
    7.8798   -2.2528   20.4069 H   0  0  0  0  0  0  0  0  0  0  0  0
    6.5359    0.2354   20.0833 C   0  0  0  0  0  0  0  0  0  0  0  0
    5.2825    0.8699   20.1246 C   0  0  0  0  0  0  0  0  0  0  0  0
    4.7598    1.4328   18.9562 C   0  0  0  0  0  0  0  0  0  0  0  0
    5.4954    1.3364   17.7732 C   0  0  0  0  0  0  0  0  0  0  0  0
    6.6917    0.7390   17.7093 N   0  0  0  0  0  0  0  0  0  0  0  0
    7.1896    0.2194   18.8394 C   0  0  0  0  0  0  0  0  0  0  0  0
    8.1760   -0.2278   18.7203 H   0  0  0  0  0  0  0  0  0  0  0  0
    5.1093    1.7560   16.8420 H   0  0  0  0  0  0  0  0  0  0  0  0
    3.8038    1.9453   18.9504 H   0  0  0  0  0  0  0  0  0  0  0  0
    4.7305    0.9379   21.0630 H   0  0  0  0  0  0  0  0  0  0  0  0
    6.5667   -0.1591   22.1897 H   0  0  0  0  0  0  0  0  0  0  0  0
    8.4706    1.0385   21.0163 H   0  0  0  0  0  0  0  0  0  0  0  0
    9.1278   -0.5136   20.7849 H   0  0  0  0  0  0  0  0  0  0  0  0
    9.5189   -1.3095   23.4524 C   0  0  0  0  0  0  0  0  0  0  0  0
   10.6449   -1.9371   23.1294 N   0  0  0  0  0  0  0  0  0  0  0  0
   10.8753   -3.1829   23.6114 C   0  0  0  0  0  0  0  0  0  0  0  0
   10.0110   -3.8538   24.4341 C   0  0  0  0  0  0  0  0  0  0  0  0
    8.8132   -3.2101   24.8660 C   0  0  0  0  0  0  0  0  0  0  0  0
    7.8955   -3.8591   25.7414 C   0  0  0  0  0  0  0  0  0  0  0  0
    6.7618   -3.2090   26.1771 C   0  0  0  0  0  0  0  0  0  0  0  0
    6.4858   -1.9017   25.7175 C   0  0  0  0  0  0  0  0  0  0  0  0
    7.3344   -1.2612   24.8294 C   0  0  0  0  0  0  0  0  0  0  0  0
    8.5469   -1.8865   24.3851 C   0  0  0  0  0  0  0  0  0  0  0  0
    7.0566   -0.2817   24.4521 H   0  0  0  0  0  0  0  0  0  0  0  0
    5.5866   -1.3934   26.0589 H   0  0  0  0  0  0  0  0  0  0  0  0
    6.0797   -3.7033   26.8689 H   0  0  0  0  0  0  0  0  0  0  0  0
    8.1098   -4.8836   26.0427 H   0  0  0  0  0  0  0  0  0  0  0  0
   10.2317   -4.8647   24.7632 H   0  0  0  0  0  0  0  0  0  0  0  0
   11.8237   -3.6159   23.3066 H   0  0  0  0  0  0  0  0  0  0  0  0
    8.6128    0.6080   23.4921 H   0  0  0  0  0  0  0  0  0  0  0  0
   10.2203    1.8675   22.0803 H   0  0  0  0  0  0  0  0  0  0  0  0
   11.1464    0.3655   21.7946 H   0  0  0  0  0  0  0  0  0  0  0  0
   11.0887    1.0840   23.4086 H   0  0  0  0  0  0  0  0  0  0  0  0
  1  2  1  0
  2  3  1  0
  3  4  1  0
  4  5  1  0
  5  6  1  0
  5  7  1  0
  5  8  1  0
  4  9  1  0
  9 10  2  0
 10 11  1  0
 11 12  2  0
 12 13  1  0
 13 14  2  0
 14 15  1  0
 12 16  1  0
 11 17  1  0
 10 18  1  0
  4 19  1  1
  3 20  1  0
  3 21  1  0
  2 22  1  0
 22 23  2  0
 23 24  1  0
 24 25  2  0
 25 26  1  0
 26 27  2  0
 27 28  1  0
 28 29  2  0
 29 30  1  0
 30 31  2  0
 30 32  1  0
 29 33  1  0
 28 34  1  0
 27 35  1  0
 25 36  1  0
 24 37  1  0
  2 38  1  0
  1 39  1  0
  1 40  1  0
  1 41  1  0
 14  9  1  0
 31 22  1  0
 31 26  1  0
M  CHG  1   3   1
M  END
>  <cnnaffinity>  (1) 
-5.33666

>  <filename>  (1) 
CC([NH2+][C@H](C)c1cccnc1)c1nccc2ccccc12

$$$$
