
     RDKit          3D

 41 43  0  0  0  0  0  0  0  0999 V2000
    9.1795   -1.5448   23.2565 C   0  0  0  0  0  0  0  0  0  0  0  0
    9.1105   -0.1485   22.6344 C   0  0  0  0  0  0  0  0  0  0  0  0
    7.6989   -0.0297   21.9323 N   0  0  0  0  0  4  0  0  0  0  0  0
    7.3226   -0.9484   20.8084 C   0  0  1  0  0  0  0  0  0  0  0  0
    6.4487   -2.1145   21.2617 C   0  0  0  0  0  0  0  0  0  0  0  0
    6.2986   -2.8023   20.4277 H   0  0  0  0  0  0  0  0  0  0  0  0
    5.4664   -1.7550   21.5798 H   0  0  0  0  0  0  0  0  0  0  0  0
    6.9004   -2.6653   22.0910 H   0  0  0  0  0  0  0  0  0  0  0  0
    6.6139   -0.1045   19.7670 C   0  0  0  0  0  0  0  0  0  0  0  0
    5.4003    0.5630   20.0050 C   0  0  0  0  0  0  0  0  0  0  0  0
    4.8361    1.3230   18.9794 C   0  0  0  0  0  0  0  0  0  0  0  0
    5.4883    1.3796   17.7440 C   0  0  0  0  0  0  0  0  0  0  0  0
    6.6310    0.7296   17.4888 N   0  0  0  0  0  0  0  0  0  0  0  0
    7.1661    0.0156   18.4878 C   0  0  0  0  0  0  0  0  0  0  0  0
    8.0978   -0.5005   18.2547 H   0  0  0  0  0  0  0  0  0  0  0  0
    5.0732    1.9683   16.9257 H   0  0  0  0  0  0  0  0  0  0  0  0
    3.9210    1.8849   19.1290 H   0  0  0  0  0  0  0  0  0  0  0  0
    4.8962    0.4991   20.9739 H   0  0  0  0  0  0  0  0  0  0  0  0
    8.2474   -1.3400   20.3699 H   0  0  0  0  0  0  0  0  0  0  0  0
    7.5407    0.9387   21.5602 H   0  0  0  0  0  0  0  0  0  0  0  0
    7.0027   -0.1467   22.7204 H   0  0  0  0  0  0  0  0  0  0  0  0
    9.2858    1.0420   23.5994 C   0  0  0  0  0  0  0  0  0  0  0  0
    8.1990    1.4209   24.2815 N   0  0  0  0  0  0  0  0  0  0  0  0
    8.2312    2.5998   24.9802 C   0  0  0  0  0  0  0  0  0  0  0  0
    9.2893    3.4568   25.0239 C   0  0  0  0  0  0  0  0  0  0  0  0
   10.5339    3.0694   24.3329 C   0  0  0  0  0  0  0  0  0  0  0  0
   11.7219    3.7208   24.2323 C   0  0  0  0  0  0  0  0  0  0  0  0
   13.2015    2.3601   23.0951 C   0  0  0  0  0  0  0  0  0  0  0  0
   12.8489    2.3591   23.3608 C   0  0  0  0  0  0  0  0  0  0  0  0
   11.8436    1.4014   23.1010 C   0  0  0  0  0  0  0  0  0  0  0  0
   10.5386    1.7480   23.6679 C   0  0  0  0  0  0  0  0  0  0  0  0
   12.2036    0.4112   23.1922 H   0  0  0  0  0  0  0  0  0  0  0  0
   14.0876    1.9345   22.5781 H   0  0  0  0  0  0  0  0  0  0  0  0
   13.1918    3.4239   22.6061 H   0  0  0  0  0  0  0  0  0  0  0  0
   12.0566    4.6648   24.6440 H   0  0  0  0  0  0  0  0  0  0  0  0
    9.1678    4.3890   25.5732 H   0  0  0  0  0  0  0  0  0  0  0  0
    7.3088    2.8446   25.5031 H   0  0  0  0  0  0  0  0  0  0  0  0
    9.8855   -0.0349   21.8665 H   0  0  0  0  0  0  0  0  0  0  0  0
    9.0434   -2.2966   22.4720 H   0  0  0  0  0  0  0  0  0  0  0  0
   10.1338   -1.7549   23.7390 H   0  0  0  0  0  0  0  0  0  0  0  0
    8.3930   -1.6731   24.0093 H   0  0  0  0  0  0  0  0  0  0  0  0
  1  2  1  0
  2  3  1  0
  3  4  1  0
  4  5  1  0
  5  6  1  0
  5  7  1  0
  5  8  1  0
  4  9  1  0
  9 10  2  0
 10 11  1  0
 11 12  2  0
 12 13  1  0
 13 14  2  0
 14 15  1  0
 12 16  1  0
 11 17  1  0
 10 18  1  0
  4 19  1  6
  3 20  1  0
  3 21  1  0
  2 22  1  0
 22 23  2  0
 23 24  1  0
 24 25  2  0
 25 26  1  0
 26 27  2  0
 27 28  1  0
 28 29  2  0
 29 30  1  0
 30 31  2  0
 30 32  1  0
 29 33  1  0
 28 34  1  0
 27 35  1  0
 25 36  1  0
 24 37  1  0
  2 38  1  0
  1 39  1  0
  1 40  1  0
  1 41  1  0
 14  9  1  0
 31 22  1  0
 31 26  1  0
M  CHG  1   3   1
M  END
>  <cnnaffinity>  (1) 
-5.38458

>  <filename>  (1) 
CC([NH2+][C@@H](C)c1cccnc1)c1nccc2ccccc12

$$$$
