
     RDKit          3D

 41 43  0  0  0  0  0  0  0  0999 V2000
    7.5146   -2.0880   20.9787 C   0  0  0  0  0  0  0  0  0  0  0  0
    7.2947   -0.6015   21.1602 C   0  0  0  0  0  0  0  0  0  0  0  0
    8.6602   -0.0307   21.2754 N   0  0  0  0  0  4  0  0  0  0  0  0
    8.7661    1.4236   21.6404 C   0  0  0  0  0  0  0  0  0  0  0  0
   10.2550    1.7373   21.7126 C   0  0  0  0  0  0  0  0  0  0  0  0
   10.7636    1.1259   22.4660 H   0  0  0  0  0  0  0  0  0  0  0  0
   10.4379    2.7905   21.9401 H   0  0  0  0  0  0  0  0  0  0  0  0
   10.7093    1.5229   20.7397 H   0  0  0  0  0  0  0  0  0  0  0  0
    7.8698    1.8592   22.8246 C   0  0  0  0  0  0  0  0  0  0  0  0
    6.9372    2.7439   22.4915 N   0  0  0  0  0  0  0  0  0  0  0  0
    5.9798    3.0673   23.3925 C   0  0  0  0  0  0  0  0  0  0  0  0
    5.9494    2.5692   24.6714 C   0  0  0  0  0  0  0  0  0  0  0  0
    6.9806    1.6772   25.1081 C   0  0  0  0  0  0  0  0  0  0  0  0
    7.0621    1.1680   26.4408 C   0  0  0  0  0  0  0  0  0  0  0  0
    8.0766    0.3104   26.8109 C   0  0  0  0  0  0  0  0  0  0  0  0
    9.0285   -0.1154   25.8488 C   0  0  0  0  0  0  0  0  0  0  0  0
    8.9637    0.3316   24.5458 C   0  0  0  0  0  0  0  0  0  0  0  0
    7.9691    1.2840   24.1464 C   0  0  0  0  0  0  0  0  0  0  0  0
    9.6630   -0.0520   23.8119 H   0  0  0  0  0  0  0  0  0  0  0  0
    9.8178   -0.7973   26.1456 H   0  0  0  0  0  0  0  0  0  0  0  0
    8.1574   -0.0458   27.8370 H   0  0  0  0  0  0  0  0  0  0  0  0
    6.3114    1.4756   27.1667 H   0  0  0  0  0  0  0  0  0  0  0  0
    5.1458    2.8602   25.3356 H   0  0  0  0  0  0  0  0  0  0  0  0
    5.2140    3.7448   23.0145 H   0  0  0  0  0  0  0  0  0  0  0  0
    8.2991    1.9919   20.8317 H   0  0  0  0  0  0  0  0  0  0  0  0
    9.2275   -0.6302   21.9082 H   0  0  0  0  0  0  0  0  0  0  0  0
    9.0812   -0.1277   20.3267 H   0  0  0  0  0  0  0  0  0  0  0  0
    6.5854    0.0715   20.0109 C   0  0  0  0  0  0  0  0  0  0  0  0
    5.3549    0.7239   20.1629 C   0  0  0  0  0  0  0  0  0  0  0  0
    4.7722    1.3366   19.0506 C   0  0  0  0  0  0  0  0  0  0  0  0
    5.4472    1.2921   17.8273 C   0  0  0  0  0  0  0  0  0  0  0  0
    6.6183    0.6631   17.6624 N   0  0  0  0  0  0  0  0  0  0  0  0
    7.1650    0.0794   18.7359 C   0  0  0  0  0  0  0  0  0  0  0  0
    8.1127   -0.4288   18.5486 H   0  0  0  0  0  0  0  0  0  0  0  0
    5.0330    1.7851   16.9465 H   0  0  0  0  0  0  0  0  0  0  0  0
    3.8182    1.8449   19.1132 H   0  0  0  0  0  0  0  0  0  0  0  0
    4.8730    0.7602   21.1428 H   0  0  0  0  0  0  0  0  0  0  0  0
    6.7330   -0.3873   22.0796 H   0  0  0  0  0  0  0  0  0  0  0  0
    8.3401   -2.2228   20.2844 H   0  0  0  0  0  0  0  0  0  0  0  0
    7.8091   -2.5431   21.9260 H   0  0  0  0  0  0  0  0  0  0  0  0
    6.6307   -2.5986   20.5960 H   0  0  0  0  0  0  0  0  0  0  0  0
  1  2  1  0
  2  3  1  0
  3  4  1  0
  4  5  1  0
  5  6  1  0
  5  7  1  0
  5  8  1  0
  4  9  1  0
  9 10  2  0
 10 11  1  0
 11 12  2  0
 12 13  1  0
 13 14  2  0
 14 15  1  0
 15 16  2  0
 16 17  1  0
 17 18  2  0
 17 19  1  0
 16 20  1  0
 15 21  1  0
 14 22  1  0
 12 23  1  0
 11 24  1  0
  4 25  1  0
  3 26  1  0
  3 27  1  0
  2 28  1  0
 28 29  2  0
 29 30  1  0
 30 31  2  0
 31 32  1  0
 32 33  2  0
 33 34  1  0
 31 35  1  0
 30 36  1  0
 29 37  1  0
  2 38  1  0
  1 39  1  0
  1 40  1  0
  1 41  1  0
 18  9  1  0
 33 28  1  0
 18 13  1  0
M  CHG  1   3   1
M  END
>  <cnnaffinity>  (1) 
-5.03482

>  <filename>  (1) 
CC([NH2+]C(C)c1nccc2ccccc12)c1cccnc1

$$$$
