
     RDKit          3D

 33 34  0  0  0  0  0  0  0  0999 V2000
    4.9618    1.8092   16.9948 H   0  0  0  0  0  0  0  0  0  0  0  0
    5.4050    1.2975   17.8485 C   0  0  0  0  0  0  0  0  0  0  0  0
    6.5629    0.6658   17.6010 N   0  0  0  0  0  0  0  0  0  0  0  0
    7.1480    0.0279   18.6150 C   0  0  0  0  0  0  0  0  0  0  0  0
    8.0911   -0.4591   18.3749 H   0  0  0  0  0  0  0  0  0  0  0  0
    6.6286   -0.0071   19.9225 C   0  0  0  0  0  0  0  0  0  0  0  0
    7.4293   -0.7476   20.9563 C   0  0  0  0  0  0  0  0  0  0  0  0
    8.0172   -1.7639   20.6180 O   0  0  0  0  0  0  0  0  0  0  0  0
    7.5551   -0.1991   22.4371 C   0  0  0  0  0  0  0  0  0  0  0  0
    6.2364   -0.4112   22.9949 O   0  0  0  0  0  0  0  0  0  0  0  0
    5.9512   -0.0723   24.2963 C   0  0  0  0  0  0  0  0  0  0  0  0
    6.0900   -1.0058   25.3316 C   0  0  0  0  0  0  0  0  0  0  0  0
    6.4656   -1.9909   25.0740 H   0  0  0  0  0  0  0  0  0  0  0  0
    5.6636   -0.6764   26.6257 C   0  0  0  0  0  0  0  0  0  0  0  0
    5.7649   -1.3990   27.4354 H   0  0  0  0  0  0  0  0  0  0  0  0
    5.0874    0.5762   26.8811 C   0  0  0  0  0  0  0  0  0  0  0  0
    4.7777    0.8768   27.8758 H   0  0  0  0  0  0  0  0  0  0  0  0
    4.9234    1.4773   25.8263 C   0  0  0  0  0  0  0  0  0  0  0  0
    4.1809    3.0231   26.1265 Cl  0  0  0  0  0  0  0  0  0  0  0  0
    5.3367    1.1603   24.5356 C   0  0  0  0  0  0  0  0  0  0  0  0
    5.1487    1.8154   23.6951 H   0  0  0  0  0  0  0  0  0  0  0  0
    8.5782   -1.0314   23.2163 C   0  0  0  0  0  0  0  0  0  0  0  0
    8.2703   -2.0809   23.2126 H   0  0  0  0  0  0  0  0  0  0  0  0
    8.6519   -0.6912   24.2527 H   0  0  0  0  0  0  0  0  0  0  0  0
    9.5614   -0.9552   22.7448 H   0  0  0  0  0  0  0  0  0  0  0  0
    7.8748    1.3006   22.4599 C   0  0  0  0  0  0  0  0  0  0  0  0
    7.9771    1.6488   23.4924 H   0  0  0  0  0  0  0  0  0  0  0  0
    8.8012    1.5196   21.9192 H   0  0  0  0  0  0  0  0  0  0  0  0
    7.0542    1.8653   22.0075 H   0  0  0  0  0  0  0  0  0  0  0  0
    5.4100    0.6455   20.1648 C   0  0  0  0  0  0  0  0  0  0  0  0
    4.9635    0.6340   21.1597 H   0  0  0  0  0  0  0  0  0  0  0  0
    4.7904    1.3099   19.1039 C   0  0  0  0  0  0  0  0  0  0  0  0
    3.8582    1.8495   19.2273 H   0  0  0  0  0  0  0  0  0  0  0  0
  1  2  1  0
  2  3  2  0
  3  4  1  0
  4  5  1  0
  4  6  2  0
  6  7  1  0
  7  8  2  0
  7  9  1  0
  9 10  1  0
 10 11  1  0
 11 12  2  0
 12 13  1  0
 12 14  1  0
 14 15  1  0
 14 16  2  0
 16 17  1  0
 16 18  1  0
 18 19  1  0
 18 20  2  0
 20 21  1  0
  9 22  1  0
 22 23  1  0
 22 24  1  0
 22 25  1  0
  9 26  1  0
 26 27  1  0
 26 28  1  0
 26 29  1  0
  6 30  1  0
 30 31  1  0
 30 32  2  0
 32 33  1  0
 32  2  1  0
 20 11  1  0
M  END
>  <cnnaffinity>  (1) 
-4.50328

>  <filename>  (1) 
CC(C)(Oc1cccc(Cl)c1)C(=O)c1cccnc1

$$$$
