
     RDKit          3D

 33 34  0  0  0  0  0  0  0  0999 V2000
    4.9393    1.7650   17.0134 H   0  0  0  0  0  0  0  0  0  0  0  0
    5.4205    1.2781   17.8639 C   0  0  0  0  0  0  0  0  0  0  0  0
    6.5825    0.6571   17.6257 N   0  0  0  0  0  0  0  0  0  0  0  0
    7.1903    0.0362   18.6380 C   0  0  0  0  0  0  0  0  0  0  0  0
    8.1325   -0.4529   18.3894 H   0  0  0  0  0  0  0  0  0  0  0  0
    6.6490    0.0172   19.9173 C   0  0  0  0  0  0  0  0  0  0  0  0
    7.4948   -0.8708   21.1683 S   0  0  0  0  0  0  0  0  0  0  0  0
    6.4773   -1.3480   22.0935 O   0  0  0  0  0  0  0  0  0  0  0  0
    8.3901   -1.8118   20.5052 O   0  0  0  0  0  0  0  0  0  0  0  0
    8.5818    0.3803   22.0638 C   0  0  0  0  0  0  0  0  0  0  0  0
    7.7027    1.5706   22.4874 C   0  0  0  0  0  0  0  0  0  0  0  0
    7.8286    2.8445   21.9040 C   0  0  0  0  0  0  0  0  0  0  0  0
    8.5812    3.0263   21.1436 H   0  0  0  0  0  0  0  0  0  0  0  0
    7.0095    3.9081   22.3003 C   0  0  0  0  0  0  0  0  0  0  0  0
    7.1294    4.8819   21.8300 H   0  0  0  0  0  0  0  0  0  0  0  0
    6.0349    3.7292   23.2823 C   0  0  0  0  0  0  0  0  0  0  0  0
    5.3853    4.5442   23.5907 H   0  0  0  0  0  0  0  0  0  0  0  0
    5.9013    2.4629   23.8578 C   0  0  0  0  0  0  0  0  0  0  0  0
    4.6710    2.2158   25.0656 Cl  0  0  0  0  0  0  0  0  0  0  0  0
    6.7159    1.3945   23.4776 C   0  0  0  0  0  0  0  0  0  0  0  0
    6.5521    0.4254   23.9376 H   0  0  0  0  0  0  0  0  0  0  0  0
    9.7410    0.7655   21.1249 C   0  0  0  0  0  0  0  0  0  0  0  0
   10.3546   -0.1087   20.8898 H   0  0  0  0  0  0  0  0  0  0  0  0
    9.3593    1.1649   20.1860 H   0  0  0  0  0  0  0  0  0  0  0  0
   10.3788    1.5219   21.5997 H   0  0  0  0  0  0  0  0  0  0  0  0
    9.1863   -0.3389   23.2947 C   0  0  0  0  0  0  0  0  0  0  0  0
    9.7708    0.3772   23.8858 H   0  0  0  0  0  0  0  0  0  0  0  0
    9.8569   -1.1448   22.9746 H   0  0  0  0  0  0  0  0  0  0  0  0
    8.4220   -0.7752   23.9429 H   0  0  0  0  0  0  0  0  0  0  0  0
    5.4346    0.6530   20.1822 C   0  0  0  0  0  0  0  0  0  0  0  0
    4.9900    0.6356   21.1815 H   0  0  0  0  0  0  0  0  0  0  0  0
    4.8165    1.3057   19.1229 C   0  0  0  0  0  0  0  0  0  0  0  0
    3.8842    1.8368   19.2612 H   0  0  0  0  0  0  0  0  0  0  0  0
  1  2  1  0
  2  3  2  0
  3  4  1  0
  4  5  1  0
  4  6  2  0
  6  7  1  0
  7  8  2  0
  7  9  2  0
  7 10  1  0
 10 11  1  0
 11 12  2  0
 12 13  1  0
 12 14  1  0
 14 15  1  0
 14 16  2  0
 16 17  1  0
 16 18  1  0
 18 19  1  0
 18 20  2  0
 20 21  1  0
 10 22  1  0
 22 23  1  0
 22 24  1  0
 22 25  1  0
 10 26  1  0
 26 27  1  0
 26 28  1  0
 26 29  1  0
  6 30  1  0
 30 31  1  0
 30 32  2  0
 32 33  1  0
 32  2  1  0
 20 11  1  0
M  END
>  <cnnaffinity>  (1) 
-4.74501

>  <filename>  (1) 
CC(C)(c1cccc(Cl)c1)S(=O)(=O)c1cccnc1

$$$$
