
     RDKit          3D

 46 47  0  0  0  0  0  0  0  0999 V2000
    6.6043   -1.9547   21.3405 C   0  0  0  0  0  0  0  0  0  0  0  0
    7.3780   -0.6429   21.0555 C   0  0  0  0  0  0  0  0  0  0  0  0
    8.8545   -1.0234   20.7501 C   0  0  0  0  0  0  0  0  0  0  0  0
    8.9449   -1.6423   19.8564 H   0  0  0  0  0  0  0  0  0  0  0  0
    9.2679   -1.6120   21.5749 H   0  0  0  0  0  0  0  0  0  0  0  0
    9.4851   -0.1389   20.6214 H   0  0  0  0  0  0  0  0  0  0  0  0
    7.4345    0.3479   22.2836 C   0  0  0  0  0  0  0  0  0  0  0  0
    8.1877    1.3105   22.2708 O   0  0  0  0  0  0  0  0  0  0  0  0
    6.6563    0.0878   23.3830 N   0  0  0  0  0  0  0  0  0  0  0  0
    6.9713    0.6938   24.6779 C   0  0  0  0  0  0  0  0  0  0  0  0
    8.3811    0.3578   25.1858 C   0  0  0  0  0  0  0  0  0  0  0  0
    8.6760   -1.1423   25.2701 C   0  0  0  0  0  0  0  0  0  0  0  0
    7.6878   -2.0088   26.0780 C   0  0  0  0  0  0  0  0  0  0  0  0
    8.1054   -3.4558   25.9756 C   0  0  0  0  0  0  0  0  0  0  0  0
    9.1903   -3.9187   26.7373 C   0  0  0  0  0  0  0  0  0  0  0  0
    9.6282   -5.2415   26.6272 C   0  0  0  0  0  0  0  0  0  0  0  0
    9.0116   -6.1112   25.7227 C   0  0  0  0  0  0  0  0  0  0  0  0
    7.9693   -5.6391   24.9162 C   0  0  0  0  0  0  0  0  0  0  0  0
    7.5171   -4.3220   25.0445 C   0  0  0  0  0  0  0  0  0  0  0  0
    6.6962   -3.9757   24.4159 H   0  0  0  0  0  0  0  0  0  0  0  0
    7.4903   -6.2738   24.1815 H   0  0  0  0  0  0  0  0  0  0  0  0
    9.3363   -7.1497   25.6889 H   0  0  0  0  0  0  0  0  0  0  0  0
   10.4517   -5.6070   27.2352 H   0  0  0  0  0  0  0  0  0  0  0  0
    9.7002   -3.2151   27.3916 H   0  0  0  0  0  0  0  0  0  0  0  0
    7.6765   -1.7032   27.1342 H   0  0  0  0  0  0  0  0  0  0  0  0
    6.6522   -1.8988   25.7198 H   0  0  0  0  0  0  0  0  0  0  0  0
    9.6764   -1.2780   25.7004 H   0  0  0  0  0  0  0  0  0  0  0  0
    8.7364   -1.5563   24.2499 H   0  0  0  0  0  0  0  0  0  0  0  0
    9.1080    0.8114   24.5051 H   0  0  0  0  0  0  0  0  0  0  0  0
    8.5343    0.8445   26.1589 H   0  0  0  0  0  0  0  0  0  0  0  0
    6.2204    0.3431   25.3939 H   0  0  0  0  0  0  0  0  0  0  0  0
    6.8627    1.7807   24.6068 H   0  0  0  0  0  0  0  0  0  0  0  0
    6.1767   -0.7964   23.3999 H   0  0  0  0  0  0  0  0  0  0  0  0
    6.6815    0.0629   19.8632 C   0  0  0  0  0  0  0  0  0  0  0  0
    5.4597    0.7330   20.0523 C   0  0  0  0  0  0  0  0  0  0  0  0
    4.8379    1.3448   18.9584 C   0  0  0  0  0  0  0  0  0  0  0  0
    5.4520    1.2614   17.7024 C   0  0  0  0  0  0  0  0  0  0  0  0
    6.5902    0.5909   17.4835 N   0  0  0  0  0  0  0  0  0  0  0  0
    7.1696    0.0101   18.5435 C   0  0  0  0  0  0  0  0  0  0  0  0
    8.0780   -0.5392   18.3178 H   0  0  0  0  0  0  0  0  0  0  0  0
    5.0110    1.7482   16.8338 H   0  0  0  0  0  0  0  0  0  0  0  0
    3.9043    1.8900   19.0630 H   0  0  0  0  0  0  0  0  0  0  0  0
    4.9999    0.7728   21.0450 H   0  0  0  0  0  0  0  0  0  0  0  0
    7.0305   -2.4922   22.1980 H   0  0  0  0  0  0  0  0  0  0  0  0
    6.6716   -2.6182   20.4705 H   0  0  0  0  0  0  0  0  0  0  0  0
    5.5397   -1.7702   21.5253 H   0  0  0  0  0  0  0  0  0  0  0  0
  1  2  1  0
  2  3  1  0
  3  4  1  0
  3  5  1  0
  3  6  1  0
  2  7  1  0
  7  8  2  0
  7  9  1  0
  9 10  1  0
 10 11  1  0
 11 12  1  0
 12 13  1  0
 13 14  1  0
 14 15  2  0
 15 16  1  0
 16 17  2  0
 17 18  1  0
 18 19  2  0
 19 20  1  0
 18 21  1  0
 17 22  1  0
 16 23  1  0
 15 24  1  0
 13 25  1  0
 13 26  1  0
 12 27  1  0
 12 28  1  0
 11 29  1  0
 11 30  1  0
 10 31  1  0
 10 32  1  0
  9 33  1  0
  2 34  1  0
 34 35  2  0
 35 36  1  0
 36 37  2  0
 37 38  1  0
 38 39  2  0
 39 40  1  0
 37 41  1  0
 36 42  1  0
 35 43  1  0
  1 44  1  0
  1 45  1  0
  1 46  1  0
 19 14  1  0
 39 34  1  0
M  END
>  <cnnaffinity>  (1) 
-5.15332

>  <filename>  (1) 
CC(C)(C(=O)NCCCCc1ccccc1)c1cccnc1

$$$$
