
     RDKit          3D

 44 45  0  0  0  0  0  0  0  0999 V2000
    4.9889    1.7680   16.9065 H   0  0  0  0  0  0  0  0  0  0  0  0
    5.4367    1.2675   17.7613 C   0  0  0  0  0  0  0  0  0  0  0  0
    6.5886    0.6253   17.5322 N   0  0  0  0  0  0  0  0  0  0  0  0
    7.1759    0.0174   18.5741 C   0  0  0  0  0  0  0  0  0  0  0  0
    8.1101   -0.4926   18.3405 H   0  0  0  0  0  0  0  0  0  0  0  0
    6.6684    0.0243   19.8866 C   0  0  0  0  0  0  0  0  0  0  0  0
    7.3411   -0.6895   21.0857 C   0  0  0  0  0  0  0  0  0  0  0  0
    7.3100    0.2541   22.3468 C   0  0  0  0  0  0  0  0  0  0  0  0
    7.4705    1.4602   22.2428 O   0  0  0  0  0  0  0  0  0  0  0  0
    7.1039   -0.3020   23.5874 N   0  0  0  0  0  0  0  0  0  0  0  0
    7.5508   -1.1649   23.8407 H   0  0  0  0  0  0  0  0  0  0  0  0
    7.0750    0.4527   24.7596 C   0  0  0  0  0  0  0  0  0  0  0  0
    7.5945   -0.0222   25.7459 O   0  0  0  0  0  0  0  0  0  0  0  0
    6.3584    1.5958   24.6604 N   0  0  0  0  0  0  0  0  0  0  0  0
    6.5293    2.0341   23.7665 H   0  0  0  0  0  0  0  0  0  0  0  0
    6.1726    2.4564   25.8143 C   0  0  0  0  0  0  0  0  0  0  0  0
    7.1251    2.8667   26.1903 H   0  0  0  0  0  0  0  0  0  0  0  0
    5.7372    1.8843   26.6443 H   0  0  0  0  0  0  0  0  0  0  0  0
    5.2224    3.5813   25.4038 C   0  0  0  0  0  0  0  0  0  0  0  0
    4.2887    3.1314   25.0460 H   0  0  0  0  0  0  0  0  0  0  0  0
    5.6637    4.1178   24.5529 H   0  0  0  0  0  0  0  0  0  0  0  0
    4.9587    4.5393   26.5354 C   0  0  0  0  0  0  0  0  0  0  0  0
    3.9139    4.3059   27.4411 C   0  0  0  0  0  0  0  0  0  0  0  0
    3.2462    3.4639   27.2721 H   0  0  0  0  0  0  0  0  0  0  0  0
    3.7385    5.1324   28.5558 C   0  0  0  0  0  0  0  0  0  0  0  0
    2.9276    4.9335   29.2549 H   0  0  0  0  0  0  0  0  0  0  0  0
    4.6061    6.2114   28.7681 C   0  0  0  0  0  0  0  0  0  0  0  0
    4.4759    6.8518   29.6385 H   0  0  0  0  0  0  0  0  0  0  0  0
    5.6499    6.4564   27.8667 C   0  0  0  0  0  0  0  0  0  0  0  0
    6.3297    7.2919   28.0270 H   0  0  0  0  0  0  0  0  0  0  0  0
    5.8189    5.6246   26.7553 C   0  0  0  0  0  0  0  0  0  0  0  0
    6.6305    5.8040   26.0535 H   0  0  0  0  0  0  0  0  0  0  0  0
    6.5794   -2.0149   21.3274 C   0  0  0  0  0  0  0  0  0  0  0  0
    6.5840   -2.6243   20.4181 H   0  0  0  0  0  0  0  0  0  0  0  0
    5.5347   -1.8285   21.5967 H   0  0  0  0  0  0  0  0  0  0  0  0
    7.0491   -2.6084   22.1177 H   0  0  0  0  0  0  0  0  0  0  0  0
    8.8325   -1.0036   20.8283 C   0  0  0  0  0  0  0  0  0  0  0  0
    8.9569   -1.6565   19.9618 H   0  0  0  0  0  0  0  0  0  0  0  0
    9.4069   -0.0853   20.6638 H   0  0  0  0  0  0  0  0  0  0  0  0
    9.2621   -1.5361   21.6851 H   0  0  0  0  0  0  0  0  0  0  0  0
    5.4394    0.6719   20.0868 C   0  0  0  0  0  0  0  0  0  0  0  0
    5.0001    0.6986   21.0864 H   0  0  0  0  0  0  0  0  0  0  0  0
    4.8159    1.3059   19.0134 C   0  0  0  0  0  0  0  0  0  0  0  0
    3.8804    1.8345   19.1349 H   0  0  0  0  0  0  0  0  0  0  0  0
  1  2  1  0
  2  3  2  0
  3  4  1  0
  4  5  1  0
  4  6  2  0
  6  7  1  0
  7  8  1  0
  8  9  2  0
  8 10  1  0
 10 11  1  0
 10 12  1  0
 12 13  2  0
 12 14  1  0
 14 15  1  0
 14 16  1  0
 16 17  1  0
 16 18  1  0
 16 19  1  0
 19 20  1  0
 19 21  1  0
 19 22  1  0
 22 23  2  0
 23 24  1  0
 23 25  1  0
 25 26  1  0
 25 27  2  0
 27 28  1  0
 27 29  1  0
 29 30  1  0
 29 31  2  0
 31 32  1  0
  7 33  1  0
 33 34  1  0
 33 35  1  0
 33 36  1  0
  7 37  1  0
 37 38  1  0
 37 39  1  0
 37 40  1  0
  6 41  1  0
 41 42  1  0
 41 43  2  0
 43 44  1  0
 43  2  1  0
 31 22  1  0
M  END
>  <cnnaffinity>  (1) 
-4.91252

>  <filename>  (1) 
CC(C)(C(=O)NC(=O)NCCc1ccccc1)c1cccnc1

$$$$
