
     RDKit          3D

 36 37  0  0  0  0  0  0  0  0999 V2000
    5.0469    1.7392   16.9082 H   0  0  0  0  0  0  0  0  0  0  0  0
    5.4902    1.2348   17.7633 C   0  0  0  0  0  0  0  0  0  0  0  0
    6.5673    0.4764   17.5080 N   0  0  0  0  0  0  0  0  0  0  0  0
    7.1395   -0.1468   18.5386 C   0  0  0  0  0  0  0  0  0  0  0  0
    8.0029   -0.7661   18.3001 H   0  0  0  0  0  0  0  0  0  0  0  0
    6.7034   -0.0163   19.8666 C   0  0  0  0  0  0  0  0  0  0  0  0
    7.5749   -0.6426   20.8959 C   0  0  0  0  0  0  0  0  0  0  0  0
    8.0739   -1.7280   20.6634 O   0  0  0  0  0  0  0  0  0  0  0  0
    7.8624    0.0847   22.2351 C   0  0  0  0  0  0  0  0  0  0  0  0
    9.2267   -0.4857   22.6876 C   0  0  0  0  0  0  0  0  0  0  0  0
    9.3717   -1.1146   23.7116 O   0  0  0  0  0  0  0  0  0  0  0  0
   10.2726   -0.1829   21.8151 N   0  0  0  0  0  0  0  0  0  0  0  0
   10.0659   -0.5091   20.8855 H   0  0  0  0  0  0  0  0  0  0  0  0
   11.6251   -0.3740   22.1822 C   0  0  0  0  0  0  0  0  0  0  0  0
   12.4147   -1.2607   21.4465 C   0  0  0  0  0  0  0  0  0  0  0  0
   11.9554   -1.8610   20.6740 H   0  0  0  0  0  0  0  0  0  0  0  0
   13.7482   -1.4744   21.7880 C   0  0  0  0  0  0  0  0  0  0  0  0
   14.3540   -2.1964   21.2394 H   0  0  0  0  0  0  0  0  0  0  0  0
   14.2656   -0.8021   22.8911 C   0  0  0  0  0  0  0  0  0  0  0  0
   15.1957   -1.1136   23.3168 H   0  0  0  0  0  0  0  0  0  0  0  0
   13.4945    0.1000   23.6280 C   0  0  0  0  0  0  0  0  0  0  0  0
   13.9277    0.5751   24.5055 H   0  0  0  0  0  0  0  0  0  0  0  0
   12.1632    0.3156   23.2739 C   0  0  0  0  0  0  0  0  0  0  0  0
   11.5398    0.9974   23.8377 H   0  0  0  0  0  0  0  0  0  0  0  0
    7.9313    1.6354   22.1040 C   0  0  0  0  0  0  0  0  0  0  0  0
    6.9380    2.0457   21.8979 H   0  0  0  0  0  0  0  0  0  0  0  0
    8.6040    1.9607   21.3013 H   0  0  0  0  0  0  0  0  0  0  0  0
    8.2808    2.0799   23.0443 H   0  0  0  0  0  0  0  0  0  0  0  0
    6.7737   -0.2963   23.2663 C   0  0  0  0  0  0  0  0  0  0  0  0
    5.8320    0.2085   23.0310 H   0  0  0  0  0  0  0  0  0  0  0  0
    6.6016   -1.3789   23.2849 H   0  0  0  0  0  0  0  0  0  0  0  0
    7.0891    0.0114   24.2693 H   0  0  0  0  0  0  0  0  0  0  0  0
    5.5211    0.7059   20.1062 C   0  0  0  0  0  0  0  0  0  0  0  0
    5.0750    0.7644   21.1016 H   0  0  0  0  0  0  0  0  0  0  0  0
    4.9164    1.3560   19.0309 C   0  0  0  0  0  0  0  0  0  0  0  0
    4.0320    1.9669   19.1673 H   0  0  0  0  0  0  0  0  0  0  0  0
  1  2  1  0
  2  3  2  0
  3  4  1  0
  4  5  1  0
  4  6  2  0
  6  7  1  0
  7  8  2  0
  7  9  1  0
  9 10  1  0
 10 11  2  0
 10 12  1  0
 12 13  1  0
 12 14  1  0
 14 15  2  0
 15 16  1  0
 15 17  1  0
 17 18  1  0
 17 19  2  0
 19 20  1  0
 19 21  1  0
 21 22  1  0
 21 23  2  0
 23 24  1  0
  9 25  1  0
 25 26  1  0
 25 27  1  0
 25 28  1  0
  9 29  1  0
 29 30  1  0
 29 31  1  0
 29 32  1  0
  6 33  1  0
 33 34  1  0
 33 35  2  0
 35 36  1  0
 35  2  1  0
 23 14  1  0
M  END
>  <cnnaffinity>  (1) 
-5.26569

>  <filename>  (1) 
CC(C)(C(=O)Nc1ccccc1)C(=O)c1cccnc1

$$$$
