
     RDKit          3D

 33 34  0  0  0  0  0  0  0  0999 V2000
    7.4842    0.8893   25.9227 H   0  0  0  0  0  0  0  0  0  0  0  0
    7.2989    0.5030   25.0581 O   0  0  0  0  0  0  0  0  0  0  0  0
    7.7754    1.3997   24.1375 C   0  0  0  0  0  0  0  0  0  0  0  0
    8.3150    2.6046   24.5800 C   0  0  0  0  0  0  0  0  0  0  0  0
    8.3600    2.7885   25.6558 H   0  0  0  0  0  0  0  0  0  0  0  0
    8.7531    3.5573   23.6554 C   0  0  0  0  0  0  0  0  0  0  0  0
    9.1766    4.4944   23.9951 H   0  0  0  0  0  0  0  0  0  0  0  0
    8.6269    3.3014   22.2901 C   0  0  0  0  0  0  0  0  0  0  0  0
    8.8782    4.0737   21.5773 H   0  0  0  0  0  0  0  0  0  0  0  0
    8.1313    2.0731   21.8410 C   0  0  0  0  0  0  0  0  0  0  0  0
    8.0397    1.8693   20.7798 H   0  0  0  0  0  0  0  0  0  0  0  0
    7.7025    1.0894   22.7482 C   0  0  0  0  0  0  0  0  0  0  0  0
    7.1753   -0.1310   22.3269 N   0  0  0  0  0  0  0  0  0  0  0  0
    6.6485   -0.6408   23.0207 H   0  0  0  0  0  0  0  0  0  0  0  0
    7.3702   -0.7599   21.0364 C   0  0  0  0  0  0  0  0  0  0  0  0
    6.6696    0.0375   19.9226 C   0  0  0  0  0  0  0  0  0  0  0  0
    7.1706    0.0678   18.6158 C   0  0  0  0  0  0  0  0  0  0  0  0
    8.1205   -0.4107   18.3685 H   0  0  0  0  0  0  0  0  0  0  0  0
    6.5659    0.6684   17.5765 N   0  0  0  0  0  0  0  0  0  0  0  0
    5.4024    1.2893   17.8173 C   0  0  0  0  0  0  0  0  0  0  0  0
    4.9456    1.7905   16.9659 H   0  0  0  0  0  0  0  0  0  0  0  0
    4.7974    1.3203   19.0778 C   0  0  0  0  0  0  0  0  0  0  0  0
    3.8576    1.8464   19.2153 H   0  0  0  0  0  0  0  0  0  0  0  0
    5.4334    0.6805   20.1411 C   0  0  0  0  0  0  0  0  0  0  0  0
    4.9809    0.6822   21.1343 H   0  0  0  0  0  0  0  0  0  0  0  0
    6.6935   -2.1328   21.1149 C   0  0  0  0  0  0  0  0  0  0  0  0
    6.8044   -2.6538   20.1584 H   0  0  0  0  0  0  0  0  0  0  0  0
    7.1460   -2.7463   21.9015 H   0  0  0  0  0  0  0  0  0  0  0  0
    5.6224   -2.0216   21.3237 H   0  0  0  0  0  0  0  0  0  0  0  0
    8.8870   -0.9496   20.7987 C   0  0  0  0  0  0  0  0  0  0  0  0
    9.3380   -1.3584   21.7094 H   0  0  0  0  0  0  0  0  0  0  0  0
    9.3941   -0.0043   20.5725 H   0  0  0  0  0  0  0  0  0  0  0  0
    9.0799   -1.6539   19.9847 H   0  0  0  0  0  0  0  0  0  0  0  0
  1  2  1  0
  2  3  1  0
  3  4  2  0
  4  5  1  0
  4  6  1  0
  6  7  1  0
  6  8  2  0
  8  9  1  0
  8 10  1  0
 10 11  1  0
 10 12  2  0
 12 13  1  0
 13 14  1  0
 13 15  1  0
 15 16  1  0
 16 17  2  0
 17 18  1  0
 17 19  1  0
 19 20  2  0
 20 21  1  0
 20 22  1  0
 22 23  1  0
 22 24  2  0
 24 25  1  0
 15 26  1  0
 26 27  1  0
 26 28  1  0
 26 29  1  0
 15 30  1  0
 30 31  1  0
 30 32  1  0
 30 33  1  0
 12  3  1  0
 24 16  1  0
M  END
>  <cnnaffinity>  (1) 
-4.93229

>  <filename>  (1) 
CC(C)(Nc1ccccc1O)c1cccnc1

$$$$
