
     RDKit          3D

 34 35  0  0  0  0  0  0  0  0999 V2000
    4.9264    1.6666   16.9828 H   0  0  0  0  0  0  0  0  0  0  0  0
    5.4875    1.2379   17.8094 C   0  0  0  0  0  0  0  0  0  0  0  0
    6.6488    0.6476   17.4923 N   0  0  0  0  0  0  0  0  0  0  0  0
    7.3773    0.1546   18.4916 C   0  0  0  0  0  0  0  0  0  0  0  0
    8.3195   -0.3142   18.2148 H   0  0  0  0  0  0  0  0  0  0  0  0
    7.0174    0.2265   19.8547 C   0  0  0  0  0  0  0  0  0  0  0  0
    8.0582   -0.3244   20.8123 C   0  0  0  0  0  0  0  0  0  0  0  0
    8.9716   -0.9725   20.3414 O   0  0  0  0  0  0  0  0  0  0  0  0
    8.0344   -0.1042   22.3723 C   0  0  0  0  0  0  0  0  0  0  0  0
    7.6999    1.3714   22.5810 C   0  0  0  0  0  0  0  0  0  0  0  0
    8.4467    2.1775   21.8157 N   0  0  0  0  0  0  0  0  0  0  0  0
    8.2090    3.4788   21.8583 C   0  0  0  0  0  0  0  0  0  0  0  0
    8.7566    4.0891   21.1775 H   0  0  0  0  0  0  0  0  0  0  0  0
    7.2533    4.0741   22.6683 C   0  0  0  0  0  0  0  0  0  0  0  0
    7.1983    5.5647   22.6355 C   0  0  0  0  0  0  0  0  0  0  0  0
    7.4502    6.0392   21.3976 F   0  0  0  0  0  0  0  0  0  0  0  0
    6.0039    6.0438   23.0222 F   0  0  0  0  0  0  0  0  0  0  0  0
    8.1290    6.1073   23.4474 F   0  0  0  0  0  0  0  0  0  0  0  0
    6.4619    3.2544   23.4779 C   0  0  0  0  0  0  0  0  0  0  0  0
    5.6549    3.6722   24.0779 H   0  0  0  0  0  0  0  0  0  0  0  0
    6.7193    1.8831   23.4537 C   0  0  0  0  0  0  0  0  0  0  0  0
    6.1612    1.2251   24.1070 H   0  0  0  0  0  0  0  0  0  0  0  0
    7.0249   -1.0687   23.0189 C   0  0  0  0  0  0  0  0  0  0  0  0
    6.9974   -0.9212   24.1082 H   0  0  0  0  0  0  0  0  0  0  0  0
    6.0305   -0.9064   22.6064 H   0  0  0  0  0  0  0  0  0  0  0  0
    7.3114   -2.1094   22.8236 H   0  0  0  0  0  0  0  0  0  0  0  0
    9.4369   -0.4307   22.9679 C   0  0  0  0  0  0  0  0  0  0  0  0
   10.2272    0.1977   22.5410 H   0  0  0  0  0  0  0  0  0  0  0  0
    9.4466   -0.3011   24.0563 H   0  0  0  0  0  0  0  0  0  0  0  0
    9.6816   -1.4728   22.7435 H   0  0  0  0  0  0  0  0  0  0  0  0
    5.7756    0.8124   20.1610 C   0  0  0  0  0  0  0  0  0  0  0  0
    5.4118    0.9042   21.1863 H   0  0  0  0  0  0  0  0  0  0  0  0
    5.0059    1.3267   19.1188 C   0  0  0  0  0  0  0  0  0  0  0  0
    4.0583    1.8131   19.3130 H   0  0  0  0  0  0  0  0  0  0  0  0
  1  2  1  0
  2  3  2  0
  3  4  1  0
  4  5  1  0
  4  6  2  0
  6  7  1  0
  7  8  2  0
  7  9  1  0
  9 10  1  0
 10 11  2  0
 11 12  1  0
 12 13  1  0
 12 14  2  0
 14 15  1  0
 15 16  1  0
 15 17  1  0
 15 18  1  0
 14 19  1  0
 19 20  1  0
 19 21  2  0
 21 22  1  0
  9 23  1  0
 23 24  1  0
 23 25  1  0
 23 26  1  0
  9 27  1  0
 27 28  1  0
 27 29  1  0
 27 30  1  0
  6 31  1  0
 31 32  1  0
 31 33  2  0
 33 34  1  0
 33  2  1  0
 21 10  1  0
M  END
>  <cnnaffinity>  (1) 
-4.91383

>  <filename>  (1) 
CC(C)(C(=O)c1cccnc1)c1ccc(C(F)(F)F)cn1

$$$$
