
     RDKit          3D

 29 29  0  0  0  0  0  0  0  0999 V2000
    4.9364    1.7041   16.8950 H   0  0  0  0  0  0  0  0  0  0  0  0
    5.4592    1.2512   17.7364 C   0  0  0  0  0  0  0  0  0  0  0  0
    6.5795    0.5734   17.4422 N   0  0  0  0  0  0  0  0  0  0  0  0
    7.2466    0.0242   18.4577 C   0  0  0  0  0  0  0  0  0  0  0  0
    8.1291   -0.5518   18.1910 H   0  0  0  0  0  0  0  0  0  0  0  0
    6.8766    0.1569   19.8135 C   0  0  0  0  0  0  0  0  0  0  0  0
    7.8404   -0.4454   20.8165 C   0  0  0  0  0  0  0  0  0  0  0  0
    8.6285   -1.2835   20.4199 O   0  0  0  0  0  0  0  0  0  0  0  0
    7.9025   -0.0320   22.3911 C   0  0  0  0  0  0  0  0  0  0  0  0
    7.5646    1.4087   22.6245 N   0  0  0  0  0  0  0  0  0  0  0  0
    8.3698    2.0314   22.6129 H   0  0  0  0  0  0  0  0  0  0  0  0
    7.0010    2.0004   24.0975 S   0  0  0  0  0  0  0  0  0  0  0  0
    7.8301    1.6898   25.2347 O   0  0  0  0  0  0  0  0  0  0  0  0
    5.5619    2.0128   24.1513 O   0  0  0  0  0  0  0  0  0  0  0  0
    7.4285    3.4828   23.5055 N   0  0  0  0  0  0  0  0  0  0  0  0
    6.8877    4.0770   24.1255 H   0  0  0  0  0  0  0  0  0  0  0  0
    6.8779    3.3745   22.6495 H   0  0  0  0  0  0  0  0  0  0  0  0
    6.9403   -0.9022   23.2147 C   0  0  0  0  0  0  0  0  0  0  0  0
    7.2313   -0.9386   24.2739 H   0  0  0  0  0  0  0  0  0  0  0  0
    6.9022   -1.9352   22.8445 H   0  0  0  0  0  0  0  0  0  0  0  0
    5.9531   -0.4405   23.1861 H   0  0  0  0  0  0  0  0  0  0  0  0
    9.3486   -0.2374   22.8767 C   0  0  0  0  0  0  0  0  0  0  0  0
    9.6391   -1.2858   22.7531 H   0  0  0  0  0  0  0  0  0  0  0  0
   10.0453    0.3718   22.2905 H   0  0  0  0  0  0  0  0  0  0  0  0
    9.4380    0.0376   23.9327 H   0  0  0  0  0  0  0  0  0  0  0  0
    5.6754    0.8301   20.1006 C   0  0  0  0  0  0  0  0  0  0  0  0
    5.3137    0.9378   21.1281 H   0  0  0  0  0  0  0  0  0  0  0  0
    4.9590    1.3807   19.0357 C   0  0  0  0  0  0  0  0  0  0  0  0
    4.0352    1.9226   19.2036 H   0  0  0  0  0  0  0  0  0  0  0  0
  1  2  1  0
  2  3  2  0
  3  4  1  0
  4  5  1  0
  4  6  2  0
  6  7  1  0
  7  8  2  0
  7  9  1  0
  9 10  1  0
 10 11  1  0
 10 12  1  0
 12 13  2  0
 12 14  2  0
 12 15  1  0
 15 16  1  0
 15 17  1  0
  9 18  1  0
 18 19  1  0
 18 20  1  0
 18 21  1  0
  9 22  1  0
 22 23  1  0
 22 24  1  0
 22 25  1  0
  6 26  1  0
 26 27  1  0
 26 28  2  0
 28 29  1  0
 28  2  1  0
M  END
>  <cnnaffinity>  (1) 
-3.78239

>  <filename>  (1) 
CC(C)(NS(N)(=O)=O)C(=O)c1cccnc1

$$$$
