
     RDKit          3D

 30 31  0  0  0  0  0  0  0  0999 V2000
    4.9424    1.8030   16.9875 H   0  0  0  0  0  0  0  0  0  0  0  0
    5.4085    1.2911   17.8310 C   0  0  0  0  0  0  0  0  0  0  0  0
    6.5620    0.6516   17.5852 N   0  0  0  0  0  0  0  0  0  0  0  0
    7.1797    0.0283   18.5984 C   0  0  0  0  0  0  0  0  0  0  0  0
    8.1249   -0.4637   18.3734 H   0  0  0  0  0  0  0  0  0  0  0  0
    6.6642   -0.0038   19.9106 C   0  0  0  0  0  0  0  0  0  0  0  0
    7.3162   -0.6887   20.9806 N   0  0  0  0  0  0  0  0  0  0  0  0
    6.6743   -1.6483   21.7801 C   0  0  0  0  0  0  0  0  0  0  0  0
    5.6245   -1.8518   21.7021 H   0  0  0  0  0  0  0  0  0  0  0  0
    7.5948   -2.1300   22.6361 C   0  0  0  0  0  0  0  0  0  0  0  0
    7.6258   -3.1294   23.5813 N   0  0  0  0  0  0  0  0  0  0  0  0
    8.3687   -2.9812   24.2480 H   0  0  0  0  0  0  0  0  0  0  0  0
    6.3523   -3.5863   24.1352 C   0  0  0  0  0  0  0  0  0  0  0  0
    5.7161   -3.8158   23.2710 H   0  0  0  0  0  0  0  0  0  0  0  0
    6.5960   -4.8723   24.9195 C   0  0  0  0  0  0  0  0  0  0  0  0
    5.6457   -5.3539   25.1843 H   0  0  0  0  0  0  0  0  0  0  0  0
    7.1921   -5.5692   24.3195 H   0  0  0  0  0  0  0  0  0  0  0  0
    7.1400   -4.6571   25.8511 H   0  0  0  0  0  0  0  0  0  0  0  0
    5.6210   -2.5307   24.9771 C   0  0  0  0  0  0  0  0  0  0  0  0
    6.0535   -2.4543   25.9821 H   0  0  0  0  0  0  0  0  0  0  0  0
    4.5604   -2.8008   25.0714 H   0  0  0  0  0  0  0  0  0  0  0  0
    5.6836   -1.5375   24.5184 H   0  0  0  0  0  0  0  0  0  0  0  0
    8.7611   -1.4514   22.3933 N   0  0  0  0  0  0  0  0  0  0  0  0
    9.6276   -1.5534   22.8822 H   0  0  0  0  0  0  0  0  0  0  0  0
    8.6170   -0.5243   21.4110 C   0  0  0  0  0  0  0  0  0  0  0  0
    9.7872    0.5435   20.9140 S   0  0  0  0  0  0  0  0  0  0  0  0
    5.4546    0.6480   20.1512 C   0  0  0  0  0  0  0  0  0  0  0  0
    5.0454    0.6465   21.1613 H   0  0  0  0  0  0  0  0  0  0  0  0
    4.8187    1.3106   19.0986 C   0  0  0  0  0  0  0  0  0  0  0  0
    3.8923    1.8470   19.2462 H   0  0  0  0  0  0  0  0  0  0  0  0
  1  2  1  0
  2  3  2  0
  3  4  1  0
  4  5  1  0
  4  6  2  0
  6  7  1  0
  7  8  1  0
  8  9  1  0
  8 10  2  0
 10 11  1  0
 11 12  1  0
 11 13  1  0
 13 14  1  0
 13 15  1  0
 15 16  1  0
 15 17  1  0
 15 18  1  0
 13 19  1  0
 19 20  1  0
 19 21  1  0
 19 22  1  0
 10 23  1  0
 23 24  1  0
 23 25  1  0
 25 26  2  0
  6 27  1  0
 27 28  1  0
 27 29  2  0
 29 30  1  0
 29  2  1  0
 25  7  1  0
M  END
>  <cnnaffinity>  (1) 
-4.88243

>  <filename>  (1) 
CC(C)Nc1cn(-c2cccnc2)c(=S)[nH]1

$$$$
