
     RDKit          3D

 34 35  0  0  0  0  0  0  0  0999 V2000
    5.1673    1.7730   16.9813 H   0  0  0  0  0  0  0  0  0  0  0  0
    5.5550    1.2605   17.8604 C   0  0  0  0  0  0  0  0  0  0  0  0
    6.6838    0.5585   17.6833 N   0  0  0  0  0  0  0  0  0  0  0  0
    7.1906   -0.0743   18.7390 C   0  0  0  0  0  0  0  0  0  0  0  0
    8.0853   -0.6734   18.5844 H   0  0  0  0  0  0  0  0  0  0  0  0
    6.6119    0.0040   19.9959 C   0  0  0  0  0  0  0  0  0  0  0  0
    7.4387   -0.9473   21.2372 S   0  0  0  0  0  0  0  0  0  0  0  0
    6.4128   -1.2674   22.2276 O   0  0  0  0  0  0  0  0  0  0  0  0
    8.1382   -2.0162   20.5349 O   0  0  0  0  0  0  0  0  0  0  0  0
    8.7811    0.1334   22.0920 C   0  0  0  0  0  0  0  0  0  0  0  0
    9.8343    0.3075   21.1336 O   0  0  0  0  0  0  0  0  0  0  0  0
   10.9336    1.0349   21.5475 C   0  0  0  0  0  0  0  0  0  0  0  0
   10.9897    2.3897   21.2228 C   0  0  0  0  0  0  0  0  0  0  0  0
   10.2027    2.7720   20.5961 H   0  0  0  0  0  0  0  0  0  0  0  0
   11.9945    3.1996   21.7502 C   0  0  0  0  0  0  0  0  0  0  0  0
   11.9834    4.2689   21.5528 H   0  0  0  0  0  0  0  0  0  0  0  0
   12.9999    2.6489   22.5510 C   0  0  0  0  0  0  0  0  0  0  0  0
   13.7957    3.2676   22.9534 H   0  0  0  0  0  0  0  0  0  0  0  0
   12.9769    1.2721   22.7862 C   0  0  0  0  0  0  0  0  0  0  0  0
   14.1818    0.5316   23.7859 Cl  0  0  0  0  0  0  0  0  0  0  0  0
   11.9667    0.4528   22.2811 C   0  0  0  0  0  0  0  0  0  0  0  0
   11.9877   -0.6099   22.4818 H   0  0  0  0  0  0  0  0  0  0  0  0
    9.2902   -0.6765   23.2964 C   0  0  0  0  0  0  0  0  0  0  0  0
   10.0010   -0.0929   23.8954 H   0  0  0  0  0  0  0  0  0  0  0  0
    9.7878   -1.5902   22.9512 H   0  0  0  0  0  0  0  0  0  0  0  0
    8.4516   -0.9571   23.9385 H   0  0  0  0  0  0  0  0  0  0  0  0
    8.1465    1.4662   22.5065 C   0  0  0  0  0  0  0  0  0  0  0  0
    8.8957    2.1226   22.9646 H   0  0  0  0  0  0  0  0  0  0  0  0
    7.7169    1.9899   21.6439 H   0  0  0  0  0  0  0  0  0  0  0  0
    7.3550    1.2840   23.2394 H   0  0  0  0  0  0  0  0  0  0  0  0
    5.4118    0.6963   20.1982 C   0  0  0  0  0  0  0  0  0  0  0  0
    4.8999    0.7309   21.1632 H   0  0  0  0  0  0  0  0  0  0  0  0
    4.8811    1.3416   19.0831 C   0  0  0  0  0  0  0  0  0  0  0  0
    3.9648    1.9187   19.1452 H   0  0  0  0  0  0  0  0  0  0  0  0
  1  2  1  0
  2  3  2  0
  3  4  1  0
  4  5  1  0
  4  6  2  0
  6  7  1  0
  7  8  2  0
  7  9  2  0
  7 10  1  0
 10 11  1  0
 11 12  1  0
 12 13  2  0
 13 14  1  0
 13 15  1  0
 15 16  1  0
 15 17  2  0
 17 18  1  0
 17 19  1  0
 19 20  1  0
 19 21  2  0
 21 22  1  0
 10 23  1  0
 23 24  1  0
 23 25  1  0
 23 26  1  0
 10 27  1  0
 27 28  1  0
 27 29  1  0
 27 30  1  0
  6 31  1  0
 31 32  1  0
 31 33  2  0
 33 34  1  0
 33  2  1  0
 21 12  1  0
M  END
>  <cnnaffinity>  (1) 
-5.12936

>  <filename>  (1) 
CC(C)(Oc1cccc(Cl)c1)S(=O)(=O)c1cccnc1

$$$$
