
     RDKit          3D

 32 34  0  0  0  0  0  0  0  0999 V2000
    5.0073    1.8277   16.9640 H   0  0  0  0  0  0  0  0  0  0  0  0
    5.4602    1.3187   17.8103 C   0  0  0  0  0  0  0  0  0  0  0  0
    6.6458    0.7263   17.5725 N   0  0  0  0  0  0  0  0  0  0  0  0
    7.2287    0.0933   18.5941 C   0  0  0  0  0  0  0  0  0  0  0  0
    8.2122   -0.3421   18.4250 H   0  0  0  0  0  0  0  0  0  0  0  0
    6.6328   -0.0372   19.8624 C   0  0  0  0  0  0  0  0  0  0  0  0
    7.3180   -0.7711   20.8830 N   0  0  0  0  0  0  0  0  0  0  0  0
    8.6472   -0.4663   20.9749 N   0  0  0  0  0  0  0  0  0  0  0  0
    9.3599   -1.0026   21.9348 C   0  0  0  0  0  0  0  0  0  0  0  0
   10.7916   -0.5115   22.0311 C   0  0  0  0  0  0  0  0  0  0  0  0
   11.8873   -1.3488   22.3241 C   0  0  0  0  0  0  0  0  0  0  0  0
   11.7791   -2.4208   22.4742 H   0  0  0  0  0  0  0  0  0  0  0  0
   13.1543   -0.7654   22.4564 C   0  0  0  0  0  0  0  0  0  0  0  0
   14.0111   -1.3747   22.7429 H   0  0  0  0  0  0  0  0  0  0  0  0
   13.3932    0.5455   22.3215 N   0  0  0  0  0  0  0  0  0  0  0  0
   12.3585    1.3481   22.0425 C   0  0  0  0  0  0  0  0  0  0  0  0
   12.6028    2.8365   21.9748 C   0  0  0  0  0  0  0  0  0  0  0  0
   13.6098    3.0622   22.3331 H   0  0  0  0  0  0  0  0  0  0  0  0
   12.5211    3.2081   20.9426 H   0  0  0  0  0  0  0  0  0  0  0  0
   11.8705    3.3656   22.6028 H   0  0  0  0  0  0  0  0  0  0  0  0
   11.0587    0.8547   21.8539 C   0  0  0  0  0  0  0  0  0  0  0  0
   10.2711    1.5533   21.5820 H   0  0  0  0  0  0  0  0  0  0  0  0
    8.7811   -1.9336   22.8768 C   0  0  0  0  0  0  0  0  0  0  0  0
    9.3834   -2.3116   23.7005 H   0  0  0  0  0  0  0  0  0  0  0  0
    7.4735   -2.2972   22.7390 C   0  0  0  0  0  0  0  0  0  0  0  0
    6.9555   -2.9980   23.3844 H   0  0  0  0  0  0  0  0  0  0  0  0
    6.6422   -1.7870   21.6502 C   0  0  0  0  0  0  0  0  0  0  0  0
    5.5213   -2.1815   21.3861 O   0  0  0  0  0  0  0  0  0  0  0  0
    5.4071    0.5868   20.1088 C   0  0  0  0  0  0  0  0  0  0  0  0
    4.9471    0.5332   21.0957 H   0  0  0  0  0  0  0  0  0  0  0  0
    4.8190    1.2930   19.0536 C   0  0  0  0  0  0  0  0  0  0  0  0
    3.8791    1.8216   19.1815 H   0  0  0  0  0  0  0  0  0  0  0  0
  1  2  1  0
  2  3  2  0
  3  4  1  0
  4  5  1  0
  4  6  2  0
  6  7  1  0
  7  8  1  0
  8  9  2  0
  9 10  1  0
 10 11  2  0
 11 12  1  0
 11 13  1  0
 13 14  1  0
 13 15  2  0
 15 16  1  0
 16 17  1  0
 17 18  1  0
 17 19  1  0
 17 20  1  0
 16 21  2  0
 21 22  1  0
  9 23  1  0
 23 24  1  0
 23 25  2  0
 25 26  1  0
 25 27  1  0
 27 28  2  0
  6 29  1  0
 29 30  1  0
 29 31  2  0
 31 32  1  0
 31  2  1  0
 27  7  1  0
 21 10  1  0
M  END
>  <cnnaffinity>  (1) 
-5.38815

>  <filename>  (1) 
Cc1cc(-c2ccc(=O)n(-c3cccnc3)n2)ccn1

$$$$
