
     RDKit          3D

 33 35  0  0  0  0  0  0  0  0999 V2000
    4.9301    1.8630   16.5267 H   0  0  0  0  0  0  0  0  0  0  0  0
    5.3168    1.4242   17.4429 C   0  0  0  0  0  0  0  0  0  0  0  0
    6.4890    0.7817   17.3320 N   0  0  0  0  0  0  0  0  0  0  0  0
    7.0132    0.2695   18.4483 C   0  0  0  0  0  0  0  0  0  0  0  0
    7.9624   -0.2432   18.3127 H   0  0  0  0  0  0  0  0  0  0  0  0
    6.4304    0.3601   19.7253 C   0  0  0  0  0  0  0  0  0  0  0  0
    7.1741   -0.1605   20.8880 C   0  0  0  0  0  0  0  0  0  0  0  0
    6.6424    0.1099   22.5156 S   0  0  0  0  0  0  0  0  0  0  0  0
    7.9715   -0.7697   23.1535 C   0  0  0  0  0  0  0  0  0  0  0  0
    8.0930   -0.9339   24.2119 H   0  0  0  0  0  0  0  0  0  0  0  0
    8.7835   -1.2584   22.1703 C   0  0  0  0  0  0  0  0  0  0  0  0
    9.8852   -2.0902   22.3836 N   0  0  0  0  0  0  0  0  0  0  0  0
   10.6126   -2.0616   21.6876 H   0  0  0  0  0  0  0  0  0  0  0  0
    9.8388   -3.2306   23.2003 C   0  0  0  0  0  0  0  0  0  0  0  0
    8.6454   -3.9391   23.4178 C   0  0  0  0  0  0  0  0  0  0  0  0
    7.7592   -3.6931   22.8381 H   0  0  0  0  0  0  0  0  0  0  0  0
    8.6100   -4.9553   24.3733 C   0  0  0  0  0  0  0  0  0  0  0  0
    7.6753   -5.4591   24.6086 H   0  0  0  0  0  0  0  0  0  0  0  0
    9.7558   -5.3152   25.0940 C   0  0  0  0  0  0  0  0  0  0  0  0
    9.6832   -6.2938   26.2307 C   0  0  0  0  0  0  0  0  0  0  0  0
    8.8417   -6.9865   26.1234 H   0  0  0  0  0  0  0  0  0  0  0  0
    9.5559   -5.7716   27.1887 H   0  0  0  0  0  0  0  0  0  0  0  0
   10.6100   -6.8744   26.2987 H   0  0  0  0  0  0  0  0  0  0  0  0
   10.9821   -4.7349   24.7254 C   0  0  0  0  0  0  0  0  0  0  0  0
   11.9007   -5.0968   25.1820 H   0  0  0  0  0  0  0  0  0  0  0  0
   11.0206   -3.6995   23.7863 C   0  0  0  0  0  0  0  0  0  0  0  0
   11.9470   -3.2600   23.4434 H   0  0  0  0  0  0  0  0  0  0  0  0
    8.3481   -0.8626   20.8767 C   0  0  0  0  0  0  0  0  0  0  0  0
    8.8997   -1.1122   19.9798 H   0  0  0  0  0  0  0  0  0  0  0  0
    5.1703    0.9880   19.8083 C   0  0  0  0  0  0  0  0  0  0  0  0
    4.6392    1.0582   20.7575 H   0  0  0  0  0  0  0  0  0  0  0  0
    4.6153    1.5312   18.6484 C   0  0  0  0  0  0  0  0  0  0  0  0
    3.6669    2.0564   18.6640 H   0  0  0  0  0  0  0  0  0  0  0  0
  1  2  1  0
  2  3  2  0
  3  4  1  0
  4  5  1  0
  4  6  2  0
  6  7  1  0
  7  8  1  0
  8  9  1  0
  9 10  1  0
  9 11  2  0
 11 12  1  0
 12 13  1  0
 12 14  1  0
 14 15  2  0
 15 16  1  0
 15 17  1  0
 17 18  1  0
 17 19  2  0
 19 20  1  0
 20 21  1  0
 20 22  1  0
 20 23  1  0
 19 24  1  0
 24 25  1  0
 24 26  2  0
 26 27  1  0
 11 28  1  0
 28 29  1  0
  6 30  1  0
 30 31  1  0
 30 32  2  0
 32 33  1  0
 32  2  1  0
 28  7  2  0
 26 14  1  0
M  END
>  <cnnaffinity>  (1) 
-5.38997

>  <filename>  (1) 
Cc1ccc(Nc2csc(-c3cccnc3)c2)cc1

$$$$
