
     RDKit          3D

 32 34  0  0  0  0  0  0  0  0999 V2000
    4.9205    1.7771   17.0015 H   0  0  0  0  0  0  0  0  0  0  0  0
    5.4067    1.2884   17.8435 C   0  0  0  0  0  0  0  0  0  0  0  0
    6.5686    0.6733   17.5800 N   0  0  0  0  0  0  0  0  0  0  0  0
    7.1809    0.0593   18.5984 C   0  0  0  0  0  0  0  0  0  0  0  0
    8.1238   -0.4252   18.3670 H   0  0  0  0  0  0  0  0  0  0  0  0
    6.6726    0.0042   19.9046 C   0  0  0  0  0  0  0  0  0  0  0  0
    7.4162   -0.7215   20.9583 C   0  0  0  0  0  0  0  0  0  0  0  0
    8.5971   -1.2604   20.7558 N   0  0  0  0  0  0  0  0  0  0  0  0
    8.9410   -1.8552   21.9835 O   0  0  0  0  0  0  0  0  0  0  0  0
    7.9587   -1.6265   22.8590 C   0  0  0  0  0  0  0  0  0  0  0  0
    8.0774   -2.0988   24.1342 N   0  0  0  0  0  0  0  0  0  0  0  0
    8.7064   -2.8669   24.2622 H   0  0  0  0  0  0  0  0  0  0  0  0
    7.2716   -1.7082   25.2179 C   0  0  0  0  0  0  0  0  0  0  0  0
    6.9066   -0.3668   25.3749 C   0  0  0  0  0  0  0  0  0  0  0  0
    7.2593    0.3571   24.6475 H   0  0  0  0  0  0  0  0  0  0  0  0
    6.1138    0.0256   26.4527 C   0  0  0  0  0  0  0  0  0  0  0  0
    5.8291    1.0685   26.5557 H   0  0  0  0  0  0  0  0  0  0  0  0
    5.6652   -0.9013   27.4030 C   0  0  0  0  0  0  0  0  0  0  0  0
    4.7846   -0.4691   28.5482 C   0  0  0  0  0  0  0  0  0  0  0  0
    4.9778    0.5670   28.8455 H   0  0  0  0  0  0  0  0  0  0  0  0
    3.7263   -0.5322   28.2728 H   0  0  0  0  0  0  0  0  0  0  0  0
    4.9263   -1.0975   29.4333 H   0  0  0  0  0  0  0  0  0  0  0  0
    6.0443   -2.2415   27.2387 C   0  0  0  0  0  0  0  0  0  0  0  0
    5.7047   -2.9692   27.9731 H   0  0  0  0  0  0  0  0  0  0  0  0
    6.8442   -2.6460   26.1630 C   0  0  0  0  0  0  0  0  0  0  0  0
    7.1240   -3.6902   26.0586 H   0  0  0  0  0  0  0  0  0  0  0  0
    6.9623   -0.9291   22.2750 C   0  0  0  0  0  0  0  0  0  0  0  0
    6.0500   -0.6280   22.7431 H   0  0  0  0  0  0  0  0  0  0  0  0
    5.4487    0.6473   20.1622 C   0  0  0  0  0  0  0  0  0  0  0  0
    5.0041    0.6378   21.1601 H   0  0  0  0  0  0  0  0  0  0  0  0
    4.8114    1.3051   19.1114 C   0  0  0  0  0  0  0  0  0  0  0  0
    3.8768    1.8399   19.2628 H   0  0  0  0  0  0  0  0  0  0  0  0
  1  2  1  0
  2  3  2  0
  3  4  1  0
  4  5  1  0
  4  6  2  0
  6  7  1  0
  7  8  2  0
  8  9  1  0
  9 10  1  0
 10 11  1  0
 11 12  1  0
 11 13  1  0
 13 14  2  0
 14 15  1  0
 14 16  1  0
 16 17  1  0
 16 18  2  0
 18 19  1  0
 19 20  1  0
 19 21  1  0
 19 22  1  0
 18 23  1  0
 23 24  1  0
 23 25  2  0
 25 26  1  0
 10 27  2  0
 27 28  1  0
  6 29  1  0
 29 30  1  0
 29 31  2  0
 31 32  1  0
 31  2  1  0
 27  7  1  0
 25 13  1  0
M  END
>  <cnnaffinity>  (1) 
-4.96837

>  <filename>  (1) 
Cc1ccc(Nc2cc(-c3cccnc3)no2)cc1

$$$$
