
     RDKit          3D

 39 41  0  0  0  0  0  0  0  0999 V2000
    5.0129    1.7777   16.9992 H   0  0  0  0  0  0  0  0  0  0  0  0
    5.4402    1.2857   17.8691 C   0  0  0  0  0  0  0  0  0  0  0  0
    6.5569    0.5743   17.6447 N   0  0  0  0  0  0  0  0  0  0  0  0
    7.0987   -0.0522   18.6890 C   0  0  0  0  0  0  0  0  0  0  0  0
    7.9967   -0.6364   18.4946 H   0  0  0  0  0  0  0  0  0  0  0  0
    6.6020    0.0329   19.9976 C   0  0  0  0  0  0  0  0  0  0  0  0
    7.3657   -0.6975   21.0197 C   0  0  0  0  0  0  0  0  0  0  0  0
    7.8931   -1.8815   20.8136 N   0  0  0  0  0  0  0  0  0  0  0  0
    8.5206   -2.2222   21.9837 C   0  0  0  0  0  0  0  0  0  0  0  0
    9.0498   -3.1599   22.0921 H   0  0  0  0  0  0  0  0  0  0  0  0
    8.4049   -1.2176   22.8976 C   0  0  0  0  0  0  0  0  0  0  0  0
    8.6790   -1.1833   23.9455 H   0  0  0  0  0  0  0  0  0  0  0  0
    7.6827   -0.2200   22.2576 N   0  0  0  0  0  0  0  0  0  0  0  0
    7.4806    1.1469   22.6501 C   0  0  0  0  0  0  0  0  0  0  0  0
    7.5238    1.7927   21.7664 H   0  0  0  0  0  0  0  0  0  0  0  0
    8.3004    1.4570   23.3131 H   0  0  0  0  0  0  0  0  0  0  0  0
    6.1747    1.1850   23.2463 N   0  0  0  0  0  0  0  0  0  0  0  0
    5.8761    0.4360   23.8522 H   0  0  0  0  0  0  0  0  0  0  0  0
    5.4905    2.5036   23.9202 S   0  0  0  0  0  0  0  0  0  0  0  0
    4.6306    1.8779   24.9080 O   0  0  0  0  0  0  0  0  0  0  0  0
    5.0148    3.3236   22.8266 O   0  0  0  0  0  0  0  0  0  0  0  0
    6.8157    3.3583   24.7467 C   0  0  0  0  0  0  0  0  0  0  0  0
    7.0600    3.1576   26.1141 C   0  0  0  0  0  0  0  0  0  0  0  0
    6.5253    2.4021   26.6925 H   0  0  0  0  0  0  0  0  0  0  0  0
    7.9908    3.9767   26.7613 C   0  0  0  0  0  0  0  0  0  0  0  0
    8.1189    3.8433   27.8288 H   0  0  0  0  0  0  0  0  0  0  0  0
    8.7141    4.9623   26.0724 C   0  0  0  0  0  0  0  0  0  0  0  0
    9.6320    5.9480   26.7569 C   0  0  0  0  0  0  0  0  0  0  0  0
    9.0894    6.8762   26.9720 H   0  0  0  0  0  0  0  0  0  0  0  0
   10.4692    6.2151   26.1034 H   0  0  0  0  0  0  0  0  0  0  0  0
   10.0394    5.5710   27.6991 H   0  0  0  0  0  0  0  0  0  0  0  0
    8.5182    5.0627   24.6863 C   0  0  0  0  0  0  0  0  0  0  0  0
    9.1083    5.7801   24.1280 H   0  0  0  0  0  0  0  0  0  0  0  0
    7.5732    4.2872   24.0172 C   0  0  0  0  0  0  0  0  0  0  0  0
    7.4078    4.4531   22.9505 H   0  0  0  0  0  0  0  0  0  0  0  0
    5.4334    0.7822   20.2223 C   0  0  0  0  0  0  0  0  0  0  0  0
    5.0187    0.8981   21.2261 H   0  0  0  0  0  0  0  0  0  0  0  0
    4.8323    1.3991   19.1246 C   0  0  0  0  0  0  0  0  0  0  0  0
    3.9200    1.9785   19.2326 H   0  0  0  0  0  0  0  0  0  0  0  0
  1  2  1  0
  2  3  2  0
  3  4  1  0
  4  5  1  0
  4  6  2  0
  6  7  1  0
  7  8  2  0
  8  9  1  0
  9 10  1  0
  9 11  2  0
 11 12  1  0
 11 13  1  0
 13 14  1  0
 14 15  1  0
 14 16  1  0
 14 17  1  0
 17 18  1  0
 17 19  1  0
 19 20  2  0
 19 21  2  0
 19 22  1  0
 22 23  2  0
 23 24  1  0
 23 25  1  0
 25 26  1  0
 25 27  2  0
 27 28  1  0
 28 29  1  0
 28 30  1  0
 28 31  1  0
 27 32  1  0
 32 33  1  0
 32 34  2  0
 34 35  1  0
  6 36  1  0
 36 37  1  0
 36 38  2  0
 38 39  1  0
 38  2  1  0
 13  7  1  0
 34 22  1  0
M  END
>  <cnnaffinity>  (1) 
-5.11054

>  <filename>  (1) 
Cc1ccc(S(=O)(=O)NCn2ccnc2-c2cccnc2)cc1

$$$$
