
     RDKit          3D

 31 33  0  0  0  0  0  0  0  0999 V2000
    4.9351    1.7916   16.9976 H   0  0  0  0  0  0  0  0  0  0  0  0
    5.4001    1.2879   17.8424 C   0  0  0  0  0  0  0  0  0  0  0  0
    6.5548    0.6580   17.5822 N   0  0  0  0  0  0  0  0  0  0  0  0
    7.1707    0.0375   18.5933 C   0  0  0  0  0  0  0  0  0  0  0  0
    8.1249   -0.4311   18.3610 H   0  0  0  0  0  0  0  0  0  0  0  0
    6.6518   -0.0106   19.9041 C   0  0  0  0  0  0  0  0  0  0  0  0
    7.3376   -0.6943   20.9570 N   0  0  0  0  0  0  0  0  0  0  0  0
    6.7466   -1.6135   21.8092 C   0  0  0  0  0  0  0  0  0  0  0  0
    5.6926   -1.8202   21.7055 H   0  0  0  0  0  0  0  0  0  0  0  0
    7.6923   -2.0728   22.6781 C   0  0  0  0  0  0  0  0  0  0  0  0
    7.5851   -3.0312   23.8071 C   0  0  0  0  0  0  0  0  0  0  0  0
    8.6918   -3.3098   24.5321 N   0  0  0  0  0  0  0  0  0  0  0  0
    8.5802   -4.1784   25.5417 C   0  0  0  0  0  0  0  0  0  0  0  0
    9.8292   -4.4785   26.3336 C   0  0  0  0  0  0  0  0  0  0  0  0
    9.6838   -4.2287   27.3921 H   0  0  0  0  0  0  0  0  0  0  0  0
   10.0686   -5.5476   26.2863 H   0  0  0  0  0  0  0  0  0  0  0  0
   10.6780   -3.9159   25.9390 H   0  0  0  0  0  0  0  0  0  0  0  0
    7.3639   -4.8085   25.8742 C   0  0  0  0  0  0  0  0  0  0  0  0
    7.3605   -5.5030   26.7086 H   0  0  0  0  0  0  0  0  0  0  0  0
    6.2178   -4.5239   25.1312 C   0  0  0  0  0  0  0  0  0  0  0  0
    5.2573   -4.9925   25.3618 H   0  0  0  0  0  0  0  0  0  0  0  0
    6.3420   -3.6140   24.0802 C   0  0  0  0  0  0  0  0  0  0  0  0
    5.5023   -3.3302   23.4618 H   0  0  0  0  0  0  0  0  0  0  0  0
    8.8572   -1.3998   22.3143 N   0  0  0  0  0  0  0  0  0  0  0  0
    9.7738   -1.4452   22.7409 H   0  0  0  0  0  0  0  0  0  0  0  0
    8.6618   -0.5190   21.3101 C   0  0  0  0  0  0  0  0  0  0  0  0
    9.8081    0.5384   20.7520 S   0  0  0  0  0  0  0  0  0  0  0  0
    5.4424    0.6400   20.1646 C   0  0  0  0  0  0  0  0  0  0  0  0
    5.0341    0.6295   21.1765 H   0  0  0  0  0  0  0  0  0  0  0  0
    4.8121    1.3069   19.1109 C   0  0  0  0  0  0  0  0  0  0  0  0
    3.8831    1.8396   19.2588 H   0  0  0  0  0  0  0  0  0  0  0  0
  1  2  1  0
  2  3  2  0
  3  4  1  0
  4  5  1  0
  4  6  2  0
  6  7  1  0
  7  8  1  0
  8  9  1  0
  8 10  2  0
 10 11  1  0
 11 12  2  0
 12 13  1  0
 13 14  1  0
 14 15  1  0
 14 16  1  0
 14 17  1  0
 13 18  2  0
 18 19  1  0
 18 20  1  0
 20 21  1  0
 20 22  2  0
 22 23  1  0
 10 24  1  0
 24 25  1  0
 24 26  1  0
 26 27  2  0
  6 28  1  0
 28 29  1  0
 28 30  2  0
 30 31  1  0
 30  2  1  0
 26  7  1  0
 22 11  1  0
M  END
>  <cnnaffinity>  (1) 
-5.41201

>  <filename>  (1) 
Cc1cccc(-c2cn(-c3cccnc3)c(=S)[nH]2)n1

$$$$
