
     RDKit          3D

 31 33  0  0  0  0  0  0  0  0999 V2000
    4.9216    1.7887   16.9952 H   0  0  0  0  0  0  0  0  0  0  0  0
    5.3958    1.2910   17.8392 C   0  0  0  0  0  0  0  0  0  0  0  0
    6.5536    0.6654   17.5769 N   0  0  0  0  0  0  0  0  0  0  0  0
    7.1721    0.0504   18.5899 C   0  0  0  0  0  0  0  0  0  0  0  0
    8.1266   -0.4193   18.3685 H   0  0  0  0  0  0  0  0  0  0  0  0
    6.6649   -0.0001   19.9062 C   0  0  0  0  0  0  0  0  0  0  0  0
    7.3636   -0.6758   20.9482 N   0  0  0  0  0  0  0  0  0  0  0  0
    6.7780   -1.4529   21.9402 C   0  0  0  0  0  0  0  0  0  0  0  0
    5.7060   -1.5838   21.9504 H   0  0  0  0  0  0  0  0  0  0  0  0
    7.7476   -1.9468   22.7552 C   0  0  0  0  0  0  0  0  0  0  0  0
    7.6415   -2.8116   23.9619 C   0  0  0  0  0  0  0  0  0  0  0  0
    8.7786   -3.1761   24.5967 N   0  0  0  0  0  0  0  0  0  0  0  0
    8.6787   -3.9553   25.6755 C   0  0  0  0  0  0  0  0  0  0  0  0
    9.9584   -4.3512   26.3644 C   0  0  0  0  0  0  0  0  0  0  0  0
    9.9483   -4.0079   27.4043 H   0  0  0  0  0  0  0  0  0  0  0  0
   10.8247   -3.9365   25.8465 H   0  0  0  0  0  0  0  0  0  0  0  0
   10.0635   -5.4403   26.3934 H   0  0  0  0  0  0  0  0  0  0  0  0
    7.4411   -4.4053   26.1730 C   0  0  0  0  0  0  0  0  0  0  0  0
    7.4379   -5.0350   27.0546 H   0  0  0  0  0  0  0  0  0  0  0  0
    6.2645   -4.0369   25.5250 C   0  0  0  0  0  0  0  0  0  0  0  0
    5.2875   -4.3706   25.8854 H   0  0  0  0  0  0  0  0  0  0  0  0
    6.3726   -3.2230   24.3968 C   0  0  0  0  0  0  0  0  0  0  0  0
    5.4968   -2.8958   23.8521 H   0  0  0  0  0  0  0  0  0  0  0  0
    8.9470   -1.4546   22.2270 N   0  0  0  0  0  0  0  0  0  0  0  0
    9.8834   -1.5962   22.5604 H   0  0  0  0  0  0  0  0  0  0  0  0
    8.7606   -0.6663   21.1295 C   0  0  0  0  0  0  0  0  0  0  0  0
    9.6241   -0.1095   20.4862 O   0  0  0  0  0  0  0  0  0  0  0  0
    5.4473    0.6415   20.1639 C   0  0  0  0  0  0  0  0  0  0  0  0
    5.0270    0.6354   21.1714 H   0  0  0  0  0  0  0  0  0  0  0  0
    4.8125    1.3060   19.1100 C   0  0  0  0  0  0  0  0  0  0  0  0
    3.8822    1.8375   19.2611 H   0  0  0  0  0  0  0  0  0  0  0  0
  1  2  1  0
  2  3  2  0
  3  4  1  0
  4  5  1  0
  4  6  2  0
  6  7  1  0
  7  8  1  0
  8  9  1  0
  8 10  2  0
 10 11  1  0
 11 12  2  0
 12 13  1  0
 13 14  1  0
 14 15  1  0
 14 16  1  0
 14 17  1  0
 13 18  2  0
 18 19  1  0
 18 20  1  0
 20 21  1  0
 20 22  2  0
 22 23  1  0
 10 24  1  0
 24 25  1  0
 24 26  1  0
 26 27  2  0
  6 28  1  0
 28 29  1  0
 28 30  2  0
 30 31  1  0
 30  2  1  0
 26  7  1  0
 22 11  1  0
M  END
>  <cnnaffinity>  (1) 
-5.31216

>  <filename>  (1) 
Cc1cccc(-c2cn(-c3cccnc3)c(=O)[nH]2)n1

$$$$
