
     RDKit          3D

 36 38  0  0  0  0  0  0  0  0999 V2000
    5.1150    1.7880   16.8461 H   0  0  0  0  0  0  0  0  0  0  0  0
    5.4949    1.1987   17.6782 C   0  0  0  0  0  0  0  0  0  0  0  0
    6.6030    0.4793   17.4448 N   0  0  0  0  0  0  0  0  0  0  0  0
    7.1119   -0.2225   18.4646 C   0  0  0  0  0  0  0  0  0  0  0  0
    8.0144   -0.7933   18.2474 H   0  0  0  0  0  0  0  0  0  0  0  0
    6.5539   -0.2380   19.7520 C   0  0  0  0  0  0  0  0  0  0  0  0
    7.2826   -0.8922   20.8364 C   0  0  0  0  0  0  0  0  0  0  0  0
    7.9602   -2.0029   20.7449 N   0  0  0  0  0  0  0  0  0  0  0  0
    8.4682   -2.1878   22.0030 N   0  0  0  0  0  0  0  0  0  0  0  0
    9.0564   -2.9690   22.2579 H   0  0  0  0  0  0  0  0  0  0  0  0
    8.1642   -1.2182   22.8807 C   0  0  0  0  0  0  0  0  0  0  0  0
    8.6769   -1.0898   24.4626 S   0  0  0  0  0  0  0  0  0  0  0  0
    7.3830   -0.3547   22.1153 N   0  0  0  0  0  0  0  0  0  0  0  0
    6.7393    0.9259   22.5411 N   0  0  0  0  0  0  0  0  0  0  0  0
    7.0306    1.1566   23.4907 H   0  0  0  0  0  0  0  0  0  0  0  0
    7.0831    2.4932   21.7903 S   0  0  0  0  0  0  0  0  0  0  0  0
    8.0495    2.2367   20.7475 O   0  0  0  0  0  0  0  0  0  0  0  0
    5.8078    3.1428   21.5721 O   0  0  0  0  0  0  0  0  0  0  0  0
    7.8746    3.2637   23.1759 C   0  0  0  0  0  0  0  0  0  0  0  0
    8.9850    2.6554   23.7808 C   0  0  0  0  0  0  0  0  0  0  0  0
    9.2911    1.6215   23.5923 H   0  0  0  0  0  0  0  0  0  0  0  0
    9.7648    3.4043   24.6529 C   0  0  0  0  0  0  0  0  0  0  0  0
   10.6426    2.9083   25.0451 H   0  0  0  0  0  0  0  0  0  0  0  0
    9.4454    4.7315   24.9990 C   0  0  0  0  0  0  0  0  0  0  0  0
   10.3129    5.4894   25.9792 C   0  0  0  0  0  0  0  0  0  0  0  0
   11.3717    5.3119   25.7673 H   0  0  0  0  0  0  0  0  0  0  0  0
   10.1512    6.5705   25.9619 H   0  0  0  0  0  0  0  0  0  0  0  0
   10.1426    5.1519   27.0087 H   0  0  0  0  0  0  0  0  0  0  0  0
    8.3069    5.2985   24.4072 C   0  0  0  0  0  0  0  0  0  0  0  0
    8.0328    6.3207   24.6522 H   0  0  0  0  0  0  0  0  0  0  0  0
    7.5246    4.5818   23.4992 C   0  0  0  0  0  0  0  0  0  0  0  0
    6.6638    5.0700   23.0441 H   0  0  0  0  0  0  0  0  0  0  0  0
    5.3563    0.4612   19.9628 C   0  0  0  0  0  0  0  0  0  0  0  0
    4.8799    0.4798   20.9446 H   0  0  0  0  0  0  0  0  0  0  0  0
    4.8309    1.2052   18.9088 C   0  0  0  0  0  0  0  0  0  0  0  0
    3.9470    1.8158   19.0492 H   0  0  0  0  0  0  0  0  0  0  0  0
  1  2  1  0
  2  3  2  0
  3  4  1  0
  4  5  1  0
  4  6  2  0
  6  7  1  0
  7  8  2  0
  8  9  1  0
  9 10  1  0
  9 11  1  0
 11 12  2  0
 11 13  1  0
 13 14  1  0
 14 15  1  0
 14 16  1  0
 16 17  2  0
 16 18  2  0
 16 19  1  0
 19 20  2  0
 20 21  1  0
 20 22  1  0
 22 23  1  0
 22 24  2  0
 24 25  1  0
 25 26  1  0
 25 27  1  0
 25 28  1  0
 24 29  1  0
 29 30  1  0
 29 31  2  0
 31 32  1  0
  6 33  1  0
 33 34  1  0
 33 35  2  0
 35 36  1  0
 35  2  1  0
 13  7  1  0
 31 19  1  0
M  END
>  <cnnaffinity>  (1) 
-5.18131

>  <filename>  (1) 
Cc1ccc(S(=O)(=O)Nn2c(-c3cccnc3)n[nH]c2=S)cc1

$$$$
