
     RDKit          3D

 44 46  0  0  0  0  0  0  0  0999 V2000
    4.7941    1.8692   16.7366 H   0  0  0  0  0  0  0  0  0  0  0  0
    5.3256    1.4207   17.5693 C   0  0  0  0  0  0  0  0  0  0  0  0
    6.4602    0.7727   17.2569 N   0  0  0  0  0  0  0  0  0  0  0  0
    7.1555    0.2287   18.2651 C   0  0  0  0  0  0  0  0  0  0  0  0
    8.0940   -0.2512   17.9858 H   0  0  0  0  0  0  0  0  0  0  0  0
    6.7687    0.2766   19.6325 C   0  0  0  0  0  0  0  0  0  0  0  0
    7.5345   -0.3413   20.6477 N   0  0  0  0  0  0  0  0  0  0  0  0
    7.7671    0.3284   21.9223 C   0  0  0  0  0  0  0  0  0  0  0  0
    7.5664    1.3939   21.7847 H   0  0  0  0  0  0  0  0  0  0  0  0
    8.8306    0.2422   22.1906 H   0  0  0  0  0  0  0  0  0  0  0  0
    6.9025   -0.2025   23.0900 C   0  0  0  0  0  0  0  0  0  0  0  0
    5.9386   -0.4680   22.6435 H   0  0  0  0  0  0  0  0  0  0  0  0
    6.6933    0.5996   23.8058 H   0  0  0  0  0  0  0  0  0  0  0  0
    7.4250   -1.3527   23.8317 N   0  0  0  0  0  0  0  0  0  0  0  0
    8.2515   -1.0529   25.0069 C   0  0  0  0  0  0  0  0  0  0  0  0
    7.8103   -0.2056   25.5514 H   0  0  0  0  0  0  0  0  0  0  0  0
    9.2822   -0.7558   24.7170 H   0  0  0  0  0  0  0  0  0  0  0  0
    8.3169   -2.2506   25.9453 C   0  0  0  0  0  0  0  0  0  0  0  0
    7.2565   -2.5289   26.8184 C   0  0  0  0  0  0  0  0  0  0  0  0
    6.4696   -1.7890   26.9685 H   0  0  0  0  0  0  0  0  0  0  0  0
    7.1779   -3.7635   27.4670 C   0  0  0  0  0  0  0  0  0  0  0  0
    6.3177   -3.9983   28.0951 H   0  0  0  0  0  0  0  0  0  0  0  0
    8.1753   -4.7321   27.3010 C   0  0  0  0  0  0  0  0  0  0  0  0
    8.0200   -6.0724   27.9667 C   0  0  0  0  0  0  0  0  0  0  0  0
    6.9863   -6.2378   28.2852 H   0  0  0  0  0  0  0  0  0  0  0  0
    8.6568   -6.1666   28.8493 H   0  0  0  0  0  0  0  0  0  0  0  0
    8.2821   -6.8731   27.2752 H   0  0  0  0  0  0  0  0  0  0  0  0
    9.2789   -4.4281   26.4830 C   0  0  0  0  0  0  0  0  0  0  0  0
   10.0664   -5.1696   26.3501 H   0  0  0  0  0  0  0  0  0  0  0  0
    9.3591   -3.1891   25.8356 C   0  0  0  0  0  0  0  0  0  0  0  0
   10.1889   -2.9780   25.1571 H   0  0  0  0  0  0  0  0  0  0  0  0
    8.0240   -2.4187   23.0278 C   0  0  0  0  0  0  0  0  0  0  0  0
    9.0986   -2.2085   22.8275 H   0  0  0  0  0  0  0  0  0  0  0  0
    7.9976   -3.3464   23.6198 H   0  0  0  0  0  0  0  0  0  0  0  0
    7.3435   -2.6695   21.6891 C   0  0  0  0  0  0  0  0  0  0  0  0
    6.2548   -2.6089   21.7851 H   0  0  0  0  0  0  0  0  0  0  0  0
    7.5698   -3.6990   21.3944 H   0  0  0  0  0  0  0  0  0  0  0  0
    7.8331   -1.7628   20.5511 C   0  0  0  0  0  0  0  0  0  0  0  0
    8.9233   -1.9197   20.4399 H   0  0  0  0  0  0  0  0  0  0  0  0
    7.3278   -2.0973   19.6424 H   0  0  0  0  0  0  0  0  0  0  0  0
    5.5822    0.9720   19.9246 C   0  0  0  0  0  0  0  0  0  0  0  0
    5.2564    1.0464   20.9609 H   0  0  0  0  0  0  0  0  0  0  0  0
    4.8505    1.5452   18.8785 C   0  0  0  0  0  0  0  0  0  0  0  0
    3.9477    2.1130   19.0759 H   0  0  0  0  0  0  0  0  0  0  0  0
  1  2  1  0
  2  3  2  0
  3  4  1  0
  4  5  1  0
  4  6  2  0
  6  7  1  0
  7  8  1  0
  8  9  1  0
  8 10  1  0
  8 11  1  0
 11 12  1  0
 11 13  1  0
 11 14  1  0
 14 15  1  0
 15 16  1  0
 15 17  1  0
 15 18  1  0
 18 19  2  0
 19 20  1  0
 19 21  1  0
 21 22  1  0
 21 23  2  0
 23 24  1  0
 24 25  1  0
 24 26  1  0
 24 27  1  0
 23 28  1  0
 28 29  1  0
 28 30  2  0
 30 31  1  0
 14 32  1  0
 32 33  1  0
 32 34  1  0
 32 35  1  0
 35 36  1  0
 35 37  1  0
 35 38  1  0
 38 39  1  0
 38 40  1  0
  6 41  1  0
 41 42  1  0
 41 43  2  0
 43 44  1  0
 43  2  1  0
 38  7  1  0
 30 18  1  0
M  END
>  <cnnaffinity>  (1) 
-4.75145

>  <filename>  (1) 
Cc1ccc(CN2CCCN(c3cccnc3)CC2)cc1

$$$$
