
     RDKit          3D

 35 38  0  0  0  0  0  0  0  0999 V2000
    4.9945    1.8411   17.2522 H   0  0  0  0  0  0  0  0  0  0  0  0
    5.4864    1.1990   17.9834 C   0  0  0  0  0  0  0  0  0  0  0  0
    6.5900    0.5589   17.5669 N   0  0  0  0  0  0  0  0  0  0  0  0
    7.2487   -0.1907   18.4581 C   0  0  0  0  0  0  0  0  0  0  0  0
    8.1418   -0.6894   18.0773 H   0  0  0  0  0  0  0  0  0  0  0  0
    6.8466   -0.3500   19.8032 C   0  0  0  0  0  0  0  0  0  0  0  0
    7.7172   -1.0075   20.7892 C   0  0  0  0  0  0  0  0  0  0  0  0
    9.0629   -0.8647   21.0254 C   0  0  0  0  0  0  0  0  0  0  0  0
    9.7345   -0.2599   20.4299 H   0  0  0  0  0  0  0  0  0  0  0  0
    9.4761   -1.5211   22.1584 N   0  0  0  0  0  0  0  0  0  0  0  0
    8.3656   -2.0424   22.6199 C   0  0  0  0  0  0  0  0  0  0  0  0
    7.8863   -2.8741   24.0751 S   0  0  0  0  0  0  0  0  0  0  0  0
    6.2456   -2.7484   23.4730 C   0  0  0  0  0  0  0  0  0  0  0  0
    5.1244   -3.1030   24.1443 N   0  0  0  0  0  0  0  0  0  0  0  0
    4.3686   -2.5708   23.7316 H   0  0  0  0  0  0  0  0  0  0  0  0
    4.8895   -3.9598   25.2310 C   0  0  0  0  0  0  0  0  0  0  0  0
    5.4154   -5.2550   25.2654 C   0  0  0  0  0  0  0  0  0  0  0  0
    6.0434   -5.5879   24.4470 H   0  0  0  0  0  0  0  0  0  0  0  0
    5.1022   -6.1130   26.3253 C   0  0  0  0  0  0  0  0  0  0  0  0
    5.5004   -7.1272   26.3320 H   0  0  0  0  0  0  0  0  0  0  0  0
    4.2809   -5.6969   27.3872 C   0  0  0  0  0  0  0  0  0  0  0  0
    4.0026   -6.6214   28.5537 C   0  0  0  0  0  0  0  0  0  0  0  0
    4.8551   -7.2852   28.7387 H   0  0  0  0  0  0  0  0  0  0  0  0
    3.1276   -7.2588   28.3704 H   0  0  0  0  0  0  0  0  0  0  0  0
    3.8178   -6.0662   29.4813 H   0  0  0  0  0  0  0  0  0  0  0  0
    3.7448   -4.3998   27.3284 C   0  0  0  0  0  0  0  0  0  0  0  0
    3.0815   -4.0623   28.1244 H   0  0  0  0  0  0  0  0  0  0  0  0
    4.0428   -3.5395   26.2635 C   0  0  0  0  0  0  0  0  0  0  0  0
    3.6283   -2.5378   26.2213 H   0  0  0  0  0  0  0  0  0  0  0  0
    6.0633   -2.1701   22.3178 N   0  0  0  0  0  0  0  0  0  0  0  0
    7.2792   -1.7958   21.8407 N   0  0  0  0  0  0  0  0  0  0  0  0
    5.6325    0.2451   20.1860 C   0  0  0  0  0  0  0  0  0  0  0  0
    5.2412    0.0621   21.1840 H   0  0  0  0  0  0  0  0  0  0  0  0
    4.9648    1.0568   19.2725 C   0  0  0  0  0  0  0  0  0  0  0  0
    4.0615    1.5883   19.5467 H   0  0  0  0  0  0  0  0  0  0  0  0
  1  2  1  0
  2  3  2  0
  3  4  1  0
  4  5  1  0
  4  6  2  0
  6  7  1  0
  7  8  2  0
  8  9  1  0
  8 10  1  0
 10 11  2  0
 11 12  1  0
 12 13  1  0
 13 14  1  0
 14 15  1  0
 14 16  1  0
 16 17  2  0
 17 18  1  0
 17 19  1  0
 19 20  1  0
 19 21  2  0
 21 22  1  0
 22 23  1  0
 22 24  1  0
 22 25  1  0
 21 26  1  0
 26 27  1  0
 26 28  2  0
 28 29  1  0
 13 30  2  0
 30 31  1  0
  6 32  1  0
 32 33  1  0
 32 34  2  0
 34 35  1  0
 34  2  1  0
 31  7  1  0
 31 11  1  0
 28 16  1  0
M  END
>  <cnnaffinity>  (1) 
-5.30418

>  <filename>  (1) 
Cc1ccc(Nc2nn3c(-c4cccnc4)cnc3s2)cc1

$$$$
