
     RDKit          3D

 38 41  0  0  0  0  0  0  0  0999 V2000
    6.4629   -5.4086   26.0688 H   0  0  0  0  0  0  0  0  0  0  0  0
    5.8567   -4.6469   26.0502 O   0  0  0  0  0  0  0  0  0  0  0  0
    6.7854   -3.6787   25.9284 C   0  0  0  0  0  0  0  0  0  0  0  0
    7.9545   -3.9853   25.8682 O   0  0  0  0  0  0  0  0  0  0  0  0
    6.2328   -2.3099   25.8979 C   0  0  0  0  0  0  0  0  0  0  0  0
    6.8887   -1.0900   25.7243 C   0  0  0  0  0  0  0  0  0  0  0  0
    8.3610   -0.8809   25.4272 C   0  0  0  0  0  0  0  0  0  0  0  0
    8.6142    0.1909   25.4716 H   0  0  0  0  0  0  0  0  0  0  0  0
    8.9682   -1.3642   26.1998 H   0  0  0  0  0  0  0  0  0  0  0  0
    8.7809   -1.4231   24.1319 N   0  0  0  0  0  0  0  0  0  0  0  0
    9.9590   -2.1063   23.8280 C   0  0  0  0  0  0  0  0  0  0  0  0
   10.6279   -2.4471   24.6052 H   0  0  0  0  0  0  0  0  0  0  0  0
   10.0697   -2.2375   22.4791 C   0  0  0  0  0  0  0  0  0  0  0  0
   10.8100   -2.6745   21.8364 H   0  0  0  0  0  0  0  0  0  0  0  0
    8.9437   -1.6275   21.9468 N   0  0  0  0  0  0  0  0  0  0  0  0
    8.5170   -1.3307   20.7012 N   0  0  0  0  0  0  0  0  0  0  0  0
    7.3748   -0.6631   20.9327 C   0  0  0  0  0  0  0  0  0  0  0  0
    6.6212   -0.0408   19.8259 C   0  0  0  0  0  0  0  0  0  0  0  0
    7.1439   -0.0026   18.5186 C   0  0  0  0  0  0  0  0  0  0  0  0
    8.0804   -0.5041   18.2825 H   0  0  0  0  0  0  0  0  0  0  0  0
    6.5614    0.6456   17.5017 N   0  0  0  0  0  0  0  0  0  0  0  0
    5.4157    1.2974   17.7527 C   0  0  0  0  0  0  0  0  0  0  0  0
    4.9784    1.8495   16.9201 H   0  0  0  0  0  0  0  0  0  0  0  0
    4.7954    1.2991   19.0056 C   0  0  0  0  0  0  0  0  0  0  0  0
    3.8778    1.8552   19.1546 H   0  0  0  0  0  0  0  0  0  0  0  0
    5.4038    0.6204   20.0594 C   0  0  0  0  0  0  0  0  0  0  0  0
    4.9530    0.6311   21.0534 H   0  0  0  0  0  0  0  0  0  0  0  0
    7.0708   -0.5465   22.3125 C   0  0  0  0  0  0  0  0  0  0  0  0
    6.1788   -0.1329   22.7496 H   0  0  0  0  0  0  0  0  0  0  0  0
    8.1567   -1.1502   22.9313 C   0  0  0  0  0  0  0  0  0  0  0  0
    5.8577   -0.1249   25.7876 C   0  0  0  0  0  0  0  0  0  0  0  0
    5.9572    1.3655   25.6378 C   0  0  0  0  0  0  0  0  0  0  0  0
    6.4161    1.6399   24.6788 H   0  0  0  0  0  0  0  0  0  0  0  0
    4.9513    1.7947   25.6832 H   0  0  0  0  0  0  0  0  0  0  0  0
    6.5688    1.8081   26.4335 H   0  0  0  0  0  0  0  0  0  0  0  0
    4.6800   -0.6993   25.9969 N   0  0  0  0  0  0  0  0  0  0  0  0
    4.9134   -2.0104   26.0541 N   0  0  0  0  0  0  0  0  0  0  0  0
    4.1265   -2.6327   26.2070 H   0  0  0  0  0  0  0  0  0  0  0  0
  1  2  1  0
  2  3  1  0
  3  4  2  0
  3  5  1  0
  5  6  2  0
  6  7  1  0
  7  8  1  0
  7  9  1  0
  7 10  1  0
 10 11  1  0
 11 12  1  0
 11 13  2  0
 13 14  1  0
 13 15  1  0
 15 16  1  0
 16 17  2  0
 17 18  1  0
 18 19  2  0
 19 20  1  0
 19 21  1  0
 21 22  2  0
 22 23  1  0
 22 24  1  0
 24 25  1  0
 24 26  2  0
 26 27  1  0
 17 28  1  0
 28 29  1  0
 28 30  2  0
  6 31  1  0
 31 32  1  0
 32 33  1  0
 32 34  1  0
 32 35  1  0
 31 36  2  0
 36 37  1  0
 37 38  1  0
 37  5  1  0
 30 10  1  0
 30 15  1  0
 26 18  1  0
M  END
>  <cnnaffinity>  (1) 
-5.50112

>  <filename>  (1) 
Cc1n[nH]c(C(=O)O)c1Cn1ccn2nc(-c3cccnc3)cc12

$$$$
