
     RDKit          3D

 34 35  0  0  0  0  0  0  0  0999 V2000
    5.6157   -4.3423   26.6695 H   0  0  0  0  0  0  0  0  0  0  0  0
    6.5771   -4.5006   26.6278 O   0  0  0  0  0  0  0  0  0  0  0  0
    6.7874   -3.9416   25.4265 C   0  0  0  0  0  0  0  0  0  0  0  0
    5.8392   -3.4892   24.8236 O   0  0  0  0  0  0  0  0  0  0  0  0
    8.1953   -3.9091   24.9712 C   0  0  0  0  0  0  0  0  0  0  0  0
    8.6973   -3.3019   23.8287 C   0  0  0  0  0  0  0  0  0  0  0  0
    8.0007   -2.5957   22.7213 C   0  0  0  0  0  0  0  0  0  0  0  0
    6.9608   -2.9482   22.6404 H   0  0  0  0  0  0  0  0  0  0  0  0
    8.4787   -2.8130   21.7548 H   0  0  0  0  0  0  0  0  0  0  0  0
    8.1015   -1.1454   22.9356 N   0  0  0  0  0  0  0  0  0  0  0  0
    7.6516   -0.7989   23.7684 H   0  0  0  0  0  0  0  0  0  0  0  0
    7.5679   -0.3284   21.9843 C   0  0  0  0  0  0  0  0  0  0  0  0
    7.3964   -0.7063   20.7933 N   0  0  0  0  0  0  0  0  0  0  0  0
    6.7014    0.0381   19.8314 C   0  0  0  0  0  0  0  0  0  0  0  0
    7.2058    0.0770   18.5080 C   0  0  0  0  0  0  0  0  0  0  0  0
    8.1353   -0.4527   18.2973 H   0  0  0  0  0  0  0  0  0  0  0  0
    6.6152    0.7223   17.4968 N   0  0  0  0  0  0  0  0  0  0  0  0
    5.4536    1.3523   17.7610 C   0  0  0  0  0  0  0  0  0  0  0  0
    4.9950    1.8797   16.9306 H   0  0  0  0  0  0  0  0  0  0  0  0
    4.8400    1.3336   19.0160 C   0  0  0  0  0  0  0  0  0  0  0  0
    3.9104    1.8647   19.1787 H   0  0  0  0  0  0  0  0  0  0  0  0
    5.4658    0.6552   20.0687 C   0  0  0  0  0  0  0  0  0  0  0  0
    5.0226    0.5830   21.0625 H   0  0  0  0  0  0  0  0  0  0  0  0
    7.3096    0.8760   22.6084 N   0  0  0  0  0  0  0  0  0  0  0  0
    7.1503    1.5869   21.9103 H   0  0  0  0  0  0  0  0  0  0  0  0
    8.1643    1.0646   23.1092 H   0  0  0  0  0  0  0  0  0  0  0  0
   10.0952   -3.3528   23.9635 C   0  0  0  0  0  0  0  0  0  0  0  0
   11.0891   -2.7583   23.0276 C   0  0  0  0  0  0  0  0  0  0  0  0
   10.7649   -2.8580   21.9939 H   0  0  0  0  0  0  0  0  0  0  0  0
   11.1660   -1.6856   23.2124 H   0  0  0  0  0  0  0  0  0  0  0  0
   12.0658   -3.2212   23.1306 H   0  0  0  0  0  0  0  0  0  0  0  0
   10.4378   -3.9916   25.0743 N   0  0  0  0  0  0  0  0  0  0  0  0
    9.2909   -4.3150   25.6794 N   0  0  0  0  0  0  0  0  0  0  0  0
    9.3329   -4.8216   26.5572 H   0  0  0  0  0  0  0  0  0  0  0  0
  1  2  1  0
  2  3  1  0
  3  4  2  0
  3  5  1  0
  5  6  2  0
  6  7  1  0
  7  8  1  0
  7  9  1  0
  7 10  1  0
 10 11  1  0
 10 12  1  0
 12 13  2  3
 13 14  1  0
 14 15  2  0
 15 16  1  0
 15 17  1  0
 17 18  2  0
 18 19  1  0
 18 20  1  0
 20 21  1  0
 20 22  2  0
 22 23  1  0
 12 24  1  0
 24 25  1  0
 24 26  1  0
  6 27  1  0
 27 28  1  0
 28 29  1  0
 28 30  1  0
 28 31  1  0
 27 32  2  0
 32 33  1  0
 33 34  1  0
 33  5  1  0
 22 14  1  0
M  END
>  <cnnaffinity>  (1) 
-4.94028

>  <filename>  (1) 
Cc1n[nH]c(C(=O)O)c1CNC(N)=Nc1cccnc1

$$$$
