
     RDKit          3D

 36 38  0  0  0  0  0  0  0  0999 V2000
    4.8559    1.8888   17.0341 H   0  0  0  0  0  0  0  0  0  0  0  0
    5.1577    1.1644   17.7890 C   0  0  0  0  0  0  0  0  0  0  0  0
    6.3592    0.5900   17.6055 N   0  0  0  0  0  0  0  0  0  0  0  0
    6.7823   -0.2700   18.5353 C   0  0  0  0  0  0  0  0  0  0  0  0
    7.7755   -0.6924   18.4032 H   0  0  0  0  0  0  0  0  0  0  0  0
    6.0121   -0.6428   19.6617 C   0  0  0  0  0  0  0  0  0  0  0  0
    6.6200   -1.4260   20.7014 N   0  0  0  0  0  0  0  0  0  0  0  0
    7.9085   -1.0336   20.9525 N   0  0  0  0  0  0  0  0  0  0  0  0
    8.4991   -1.4620   22.0366 C   0  0  0  0  0  0  0  0  0  0  0  0
    9.9366   -1.1057   22.1647 C   0  0  0  0  0  0  0  0  0  0  0  0
   10.3516    0.2188   21.9657 C   0  0  0  0  0  0  0  0  0  0  0  0
    9.6052    0.9953   21.7856 H   0  0  0  0  0  0  0  0  0  0  0  0
   11.7042    0.5328   21.9946 C   0  0  0  0  0  0  0  0  0  0  0  0
   12.0152    1.5652   21.8590 H   0  0  0  0  0  0  0  0  0  0  0  0
   12.6758   -0.4718   22.1730 C   0  0  0  0  0  0  0  0  0  0  0  0
   14.1474   -0.1386   22.1945 C   0  0  0  0  0  0  0  0  0  0  0  0
   14.5169   -0.0638   21.1668 H   0  0  0  0  0  0  0  0  0  0  0  0
   14.6967   -0.9829   22.6314 H   0  0  0  0  0  0  0  0  0  0  0  0
   14.4807    1.1435   22.9481 C   0  0  0  0  0  0  0  0  0  0  0  0
   14.4049    0.9695   24.0236 H   0  0  0  0  0  0  0  0  0  0  0  0
   13.8057    1.9685   22.7064 H   0  0  0  0  0  0  0  0  0  0  0  0
   15.4776    1.4930   22.6806 H   0  0  0  0  0  0  0  0  0  0  0  0
   12.2515   -1.8022   22.2861 C   0  0  0  0  0  0  0  0  0  0  0  0
   12.9900   -2.5984   22.3343 H   0  0  0  0  0  0  0  0  0  0  0  0
   10.8958   -2.1168   22.3496 C   0  0  0  0  0  0  0  0  0  0  0  0
   10.5876   -3.1427   22.5409 H   0  0  0  0  0  0  0  0  0  0  0  0
    7.8046   -2.2515   23.0261 C   0  0  0  0  0  0  0  0  0  0  0  0
    8.2969   -2.4542   23.9767 H   0  0  0  0  0  0  0  0  0  0  0  0
    6.5654   -2.7278   22.7352 C   0  0  0  0  0  0  0  0  0  0  0  0
    5.9946   -3.3860   23.3819 H   0  0  0  0  0  0  0  0  0  0  0  0
    5.9473   -2.4919   21.4300 C   0  0  0  0  0  0  0  0  0  0  0  0
    5.0208   -3.1448   20.9985 O   0  0  0  0  0  0  0  0  0  0  0  0
    4.7476   -0.0795   19.8183 C   0  0  0  0  0  0  0  0  0  0  0  0
    4.1332   -0.3395   20.6761 H   0  0  0  0  0  0  0  0  0  0  0  0
    4.3217    0.8575   18.8659 C   0  0  0  0  0  0  0  0  0  0  0  0
    3.3744    1.3712   18.9669 H   0  0  0  0  0  0  0  0  0  0  0  0
  1  2  1  0
  2  3  2  0
  3  4  1  0
  4  5  1  0
  4  6  2  0
  6  7  1  0
  7  8  1  0
  8  9  2  0
  9 10  1  0
 10 11  2  0
 11 12  1  0
 11 13  1  0
 13 14  1  0
 13 15  2  0
 15 16  1  0
 16 17  1  0
 16 18  1  0
 16 19  1  0
 19 20  1  0
 19 21  1  0
 19 22  1  0
 15 23  1  0
 23 24  1  0
 23 25  2  0
 25 26  1  0
  9 27  1  0
 27 28  1  0
 27 29  2  0
 29 30  1  0
 29 31  1  0
 31 32  2  0
  6 33  1  0
 33 34  1  0
 33 35  2  0
 35 36  1  0
 35  2  1  0
 31  7  1  0
 25 10  1  0
M  END
>  <cnnaffinity>  (1) 
-5.68136

>  <filename>  (1) 
CCc1ccc(-c2ccc(=O)n(-c3cccnc3)n2)cc1

$$$$
