
     RDKit          3D

 31 32  0  0  0  0  0  0  0  0999 V2000
    5.7132   -1.0476   21.8808 H   0  0  0  0  0  0  0  0  0  0  0  0
    6.7719   -1.2636   21.8432 C   0  0  0  0  0  0  0  0  0  0  0  0
    7.4616   -0.7708   20.7588 C   0  0  0  0  0  0  0  0  0  0  0  0
    9.3456   -1.0548   20.5602 Br  0  0  0  0  0  0  0  0  0  0  0  0
    6.7373   -0.0015   19.7437 C   0  0  0  0  0  0  0  0  0  0  0  0
    7.2821    0.1594   18.4614 C   0  0  0  0  0  0  0  0  0  0  0  0
    8.2398   -0.3029   18.2600 H   0  0  0  0  0  0  0  0  0  0  0  0
    6.6672    0.8175   17.4610 N   0  0  0  0  0  0  0  0  0  0  0  0
    5.4689    1.3639   17.7242 C   0  0  0  0  0  0  0  0  0  0  0  0
    4.9536    1.9005   16.9335 H   0  0  0  0  0  0  0  0  0  0  0  0
    4.8605    1.2617   18.9802 C   0  0  0  0  0  0  0  0  0  0  0  0
    3.9002    1.7299   19.1443 H   0  0  0  0  0  0  0  0  0  0  0  0
    5.4906    0.5705   20.0111 C   0  0  0  0  0  0  0  0  0  0  0  0
    5.0291    0.4870   20.9951 H   0  0  0  0  0  0  0  0  0  0  0  0
    7.3014   -2.1189   22.8983 C   0  0  0  0  0  0  0  0  0  0  0  0
    8.3947   -2.9627   22.6745 C   0  0  0  0  0  0  0  0  0  0  0  0
    8.9465   -2.9088   21.7458 H   0  0  0  0  0  0  0  0  0  0  0  0
    8.7561   -3.9147   23.6334 C   0  0  0  0  0  0  0  0  0  0  0  0
    9.5622   -4.6093   23.4328 H   0  0  0  0  0  0  0  0  0  0  0  0
    8.0667   -3.9934   24.8518 C   0  0  0  0  0  0  0  0  0  0  0  0
    8.4340   -5.0277   25.8904 C   0  0  0  0  0  0  0  0  0  0  0  0
    7.6072   -5.1395   26.5952 H   0  0  0  0  0  0  0  0  0  0  0  0
    8.5881   -6.0037   25.4258 H   0  0  0  0  0  0  0  0  0  0  0  0
    9.6902   -4.6110   26.6546 C   0  0  0  0  0  0  0  0  0  0  0  0
    9.5692   -3.5887   27.0269 H   0  0  0  0  0  0  0  0  0  0  0  0
   10.5687   -4.6657   26.0082 H   0  0  0  0  0  0  0  0  0  0  0  0
    9.8711   -5.2789   27.5021 H   0  0  0  0  0  0  0  0  0  0  0  0
    7.0294   -3.0927   25.1107 C   0  0  0  0  0  0  0  0  0  0  0  0
    6.5085   -3.1385   26.0648 H   0  0  0  0  0  0  0  0  0  0  0  0
    6.6528   -2.1618   24.1380 C   0  0  0  0  0  0  0  0  0  0  0  0
    5.8519   -1.4651   24.3533 H   0  0  0  0  0  0  0  0  0  0  0  0
  1  2  1  0
  2  3  2  3
  3  4  1  0
  3  5  1  0
  5  6  2  0
  6  7  1  0
  6  8  1  0
  8  9  2  0
  9 10  1  0
  9 11  1  0
 11 12  1  0
 11 13  2  0
 13 14  1  0
  2 15  1  0
 15 16  2  0
 16 17  1  0
 16 18  1  0
 18 19  1  0
 18 20  2  0
 20 21  1  0
 21 22  1  0
 21 23  1  0
 21 24  1  0
 24 25  1  0
 24 26  1  0
 24 27  1  0
 20 28  1  0
 28 29  1  0
 28 30  2  0
 30 31  1  0
 13  5  1  0
 30 15  1  0
M  END
>  <cnnaffinity>  (1) 
-4.27846

>  <filename>  (1) 
CCc1ccc(C=C(Br)c2cccnc2)cc1

$$$$
