
     RDKit          3D

 35 37  0  0  0  0  0  0  0  0999 V2000
    4.9651    1.8271   16.9347 H   0  0  0  0  0  0  0  0  0  0  0  0
    5.4388    1.3185   17.7752 C   0  0  0  0  0  0  0  0  0  0  0  0
    6.5980    0.6890   17.5193 N   0  0  0  0  0  0  0  0  0  0  0  0
    7.1991    0.0617   18.5398 C   0  0  0  0  0  0  0  0  0  0  0  0
    8.1248   -0.4538   18.2896 H   0  0  0  0  0  0  0  0  0  0  0  0
    6.6985    0.0129   19.8561 C   0  0  0  0  0  0  0  0  0  0  0  0
    7.3757   -0.7335   20.9317 C   0  0  0  0  0  0  0  0  0  0  0  0
    6.8657   -1.2788   22.0569 C   0  0  0  0  0  0  0  0  0  0  0  0
    5.8605   -1.3180   22.4189 H   0  0  0  0  0  0  0  0  0  0  0  0
    7.8881   -1.8598   22.7939 N   0  0  0  0  0  0  0  0  0  0  0  0
    7.6853   -2.5243   24.0502 C   0  0  0  0  0  0  0  0  0  0  0  0
    6.6185   -3.4245   24.1879 C   0  0  0  0  0  0  0  0  0  0  0  0
    5.9374   -3.5728   23.3555 H   0  0  0  0  0  0  0  0  0  0  0  0
    6.4338   -4.1150   25.3872 C   0  0  0  0  0  0  0  0  0  0  0  0
    5.5788   -4.7770   25.4883 H   0  0  0  0  0  0  0  0  0  0  0  0
    7.3013   -3.9366   26.4754 C   0  0  0  0  0  0  0  0  0  0  0  0
    7.1955   -4.7819   27.7336 C   0  0  0  0  0  0  0  0  0  0  0  0
    7.6259   -4.2304   28.5667 H   0  0  0  0  0  0  0  0  0  0  0  0
    6.1383   -4.9572   27.9762 H   0  0  0  0  0  0  0  0  0  0  0  0
    7.9041   -6.1417   27.6741 C   0  0  0  0  0  0  0  0  0  0  0  0
    7.5159   -6.7358   26.8437 H   0  0  0  0  0  0  0  0  0  0  0  0
    7.7540   -6.7050   28.6035 H   0  0  0  0  0  0  0  0  0  0  0  0
    8.9831   -6.0300   27.5377 H   0  0  0  0  0  0  0  0  0  0  0  0
    8.2976   -2.9546   26.3495 C   0  0  0  0  0  0  0  0  0  0  0  0
    8.8979   -2.7094   27.2191 H   0  0  0  0  0  0  0  0  0  0  0  0
    8.5088   -2.2613   25.1520 C   0  0  0  0  0  0  0  0  0  0  0  0
    9.3063   -1.5279   25.0762 H   0  0  0  0  0  0  0  0  0  0  0  0
    9.0793   -1.6822   22.1229 C   0  0  0  0  0  0  0  0  0  0  0  0
   10.6331   -2.1190   22.5131 S   0  0  0  0  0  0  0  0  0  0  0  0
    8.7330   -1.0235   20.9808 N   0  0  0  0  0  0  0  0  0  0  0  0
    9.4752   -0.7120   20.3744 H   0  0  0  0  0  0  0  0  0  0  0  0
    5.4812    0.6818   20.0968 C   0  0  0  0  0  0  0  0  0  0  0  0
    5.0490    0.7060   21.0997 H   0  0  0  0  0  0  0  0  0  0  0  0
    4.8425    1.3345   19.0409 C   0  0  0  0  0  0  0  0  0  0  0  0
    3.8996    1.8556   19.1757 H   0  0  0  0  0  0  0  0  0  0  0  0
  1  2  1  0
  2  3  2  0
  3  4  1  0
  4  5  1  0
  4  6  2  0
  6  7  1  0
  7  8  2  0
  8  9  1  0
  8 10  1  0
 10 11  1  0
 11 12  2  0
 12 13  1  0
 12 14  1  0
 14 15  1  0
 14 16  2  0
 16 17  1  0
 17 18  1  0
 17 19  1  0
 17 20  1  0
 20 21  1  0
 20 22  1  0
 20 23  1  0
 16 24  1  0
 24 25  1  0
 24 26  2  0
 26 27  1  0
 10 28  1  0
 28 29  2  0
 28 30  1  0
 30 31  1  0
  6 32  1  0
 32 33  1  0
 32 34  2  0
 34 35  1  0
 34  2  1  0
 30  7  1  0
 26 11  1  0
M  END
>  <cnnaffinity>  (1) 
-5.43193

>  <filename>  (1) 
CCc1ccc(-n2cc(-c3cccnc3)[nH]c2=S)cc1

$$$$
