
     RDKit          3D

 36 38  0  0  0  0  0  0  0  0999 V2000
    4.9134    1.7743   17.0013 H   0  0  0  0  0  0  0  0  0  0  0  0
    5.4044    1.2901   17.8433 C   0  0  0  0  0  0  0  0  0  0  0  0
    6.5695    0.6765   17.5825 N   0  0  0  0  0  0  0  0  0  0  0  0
    7.1796    0.0652   18.6078 C   0  0  0  0  0  0  0  0  0  0  0  0
    8.1204   -0.4310   18.3696 H   0  0  0  0  0  0  0  0  0  0  0  0
    6.6610    0.0018   19.9148 C   0  0  0  0  0  0  0  0  0  0  0  0
    7.4026   -0.7180   20.9887 C   0  0  0  0  0  0  0  0  0  0  0  0
    6.3954   -1.6402   22.0943 S   0  0  0  0  0  0  0  0  0  0  0  0
    7.5469   -2.3434   23.2243 C   0  0  0  0  0  0  0  0  0  0  0  0
    6.9512   -3.2001   24.3017 C   0  0  0  0  0  0  0  0  0  0  0  0
    5.7079   -2.8901   24.8902 C   0  0  0  0  0  0  0  0  0  0  0  0
    5.1629   -2.0113   24.5671 H   0  0  0  0  0  0  0  0  0  0  0  0
    5.1707   -3.6963   25.8924 C   0  0  0  0  0  0  0  0  0  0  0  0
    4.2125   -3.4308   26.3333 H   0  0  0  0  0  0  0  0  0  0  0  0
    5.8474   -4.8409   26.3383 C   0  0  0  0  0  0  0  0  0  0  0  0
    5.2857   -5.6777   27.4585 C   0  0  0  0  0  0  0  0  0  0  0  0
    4.1900   -5.6695   27.4149 H   0  0  0  0  0  0  0  0  0  0  0  0
    5.5947   -6.7221   27.3320 H   0  0  0  0  0  0  0  0  0  0  0  0
    5.7476   -5.1679   28.8266 C   0  0  0  0  0  0  0  0  0  0  0  0
    5.4252   -4.1321   28.9781 H   0  0  0  0  0  0  0  0  0  0  0  0
    5.3347   -5.7822   29.6307 H   0  0  0  0  0  0  0  0  0  0  0  0
    6.8404   -5.1918   28.8946 H   0  0  0  0  0  0  0  0  0  0  0  0
    7.0952   -5.1421   25.7725 C   0  0  0  0  0  0  0  0  0  0  0  0
    7.6481   -6.0099   26.1263 H   0  0  0  0  0  0  0  0  0  0  0  0
    7.6385   -4.3383   24.7686 C   0  0  0  0  0  0  0  0  0  0  0  0
    8.5948   -4.6216   24.3370 H   0  0  0  0  0  0  0  0  0  0  0  0
    8.8766   -2.1346   23.1261 C   0  0  0  0  0  0  0  0  0  0  0  0
    9.5673   -2.5609   23.8453 H   0  0  0  0  0  0  0  0  0  0  0  0
    9.5522   -1.3149   22.1083 C   0  0  0  0  0  0  0  0  0  0  0  0
   10.7674   -1.1934   22.1162 O   0  0  0  0  0  0  0  0  0  0  0  0
    8.7433   -0.6526   21.0776 C   0  0  0  0  0  0  0  0  0  0  0  0
    9.3321   -0.0559   20.3894 H   0  0  0  0  0  0  0  0  0  0  0  0
    5.4391    0.6517   20.1593 C   0  0  0  0  0  0  0  0  0  0  0  0
    5.0099    0.6320   21.1627 H   0  0  0  0  0  0  0  0  0  0  0  0
    4.8054    1.3132   19.1081 C   0  0  0  0  0  0  0  0  0  0  0  0
    3.8737    1.8446   19.2635 H   0  0  0  0  0  0  0  0  0  0  0  0
  1  2  1  0
  2  3  2  0
  3  4  1  0
  4  5  1  0
  4  6  2  0
  6  7  1  0
  7  8  1  0
  8  9  1  0
  9 10  1  0
 10 11  2  0
 11 12  1  0
 11 13  1  0
 13 14  1  0
 13 15  2  0
 15 16  1  0
 16 17  1  0
 16 18  1  0
 16 19  1  0
 19 20  1  0
 19 21  1  0
 19 22  1  0
 15 23  1  0
 23 24  1  0
 23 25  2  0
 25 26  1  0
  9 27  2  0
 27 28  1  0
 27 29  1  0
 29 30  2  0
 29 31  1  0
 31 32  1  0
  6 33  1  0
 33 34  1  0
 33 35  2  0
 35 36  1  0
 35  2  1  0
 31  7  2  0
 25 10  1  0
M  END
>  <cnnaffinity>  (1) 
-5.39683

>  <filename>  (1) 
CCc1ccc(-c2cc(=O)cc(-c3cccnc3)s2)cc1

$$$$
