
     RDKit          3D

 41 42  0  0  0  0  0  0  0  0999 V2000
    4.9547    1.8201   16.9651 H   0  0  0  0  0  0  0  0  0  0  0  0
    5.4041    1.2996   17.8052 C   0  0  0  0  0  0  0  0  0  0  0  0
    6.5650    0.6746   17.5598 N   0  0  0  0  0  0  0  0  0  0  0  0
    7.1611    0.0601   18.5839 C   0  0  0  0  0  0  0  0  0  0  0  0
    8.1193   -0.4008   18.3402 H   0  0  0  0  0  0  0  0  0  0  0  0
    6.6374    0.0152   19.8854 C   0  0  0  0  0  0  0  0  0  0  0  0
    7.3592   -0.6768   20.9692 C   0  0  0  0  0  0  0  0  0  0  0  0
    7.0921   -0.5645   22.2557 N   0  0  0  0  0  0  0  0  0  0  0  0
    7.9836   -1.3973   22.8579 C   0  0  0  0  0  0  0  0  0  0  0  0
    8.0184   -1.6336   24.3408 C   0  0  0  0  0  0  0  0  0  0  0  0
    7.6019   -0.7391   24.8134 H   0  0  0  0  0  0  0  0  0  0  0  0
    9.0627   -1.7102   24.6587 H   0  0  0  0  0  0  0  0  0  0  0  0
    7.2242   -2.8781   24.7975 C   0  0  0  0  0  0  0  0  0  0  0  0
    7.6130   -3.7753   24.2982 H   0  0  0  0  0  0  0  0  0  0  0  0
    7.3903   -3.0448   25.8715 H   0  0  0  0  0  0  0  0  0  0  0  0
    5.7246   -2.7515   24.5193 C   0  0  0  0  0  0  0  0  0  0  0  0
    5.5741   -2.6142   23.4404 H   0  0  0  0  0  0  0  0  0  0  0  0
    5.3466   -1.8351   24.9931 H   0  0  0  0  0  0  0  0  0  0  0  0
    4.8993   -3.9537   24.9820 C   0  0  0  0  0  0  0  0  0  0  0  0
    3.8299   -3.7070   24.9217 H   0  0  0  0  0  0  0  0  0  0  0  0
    5.1019   -4.1441   26.0452 H   0  0  0  0  0  0  0  0  0  0  0  0
    5.1674   -5.2254   24.1669 C   0  0  0  0  0  0  0  0  0  0  0  0
    6.2095   -5.5398   24.3175 H   0  0  0  0  0  0  0  0  0  0  0  0
    5.0871   -4.9825   23.0993 H   0  0  0  0  0  0  0  0  0  0  0  0
    4.2302   -6.3887   24.5093 C   0  0  0  0  0  0  0  0  0  0  0  0
    4.3845   -7.2114   23.7982 H   0  0  0  0  0  0  0  0  0  0  0  0
    3.1905   -6.0577   24.3678 H   0  0  0  0  0  0  0  0  0  0  0  0
    4.4087   -6.8923   25.9450 C   0  0  0  0  0  0  0  0  0  0  0  0
    4.2846   -6.0435   26.6286 H   0  0  0  0  0  0  0  0  0  0  0  0
    5.4421   -7.2415   26.0744 H   0  0  0  0  0  0  0  0  0  0  0  0
    3.4350   -7.9923   26.3599 C   0  0  0  0  0  0  0  0  0  0  0  0
    2.4007   -7.6844   26.1785 H   0  0  0  0  0  0  0  0  0  0  0  0
    3.6049   -8.9299   25.8193 H   0  0  0  0  0  0  0  0  0  0  0  0
    3.5138   -8.2062   27.4308 H   0  0  0  0  0  0  0  0  0  0  0  0
    8.7904   -2.0216   22.0218 N   0  0  0  0  0  0  0  0  0  0  0  0
    8.3870   -1.5390   20.8184 N   0  0  0  0  0  0  0  0  0  0  0  0
    8.7710   -1.9204   19.9719 H   0  0  0  0  0  0  0  0  0  0  0  0
    5.4127    0.6680   20.1224 C   0  0  0  0  0  0  0  0  0  0  0  0
    4.9724    0.6793   21.1233 H   0  0  0  0  0  0  0  0  0  0  0  0
    4.7853    1.3160   19.0616 C   0  0  0  0  0  0  0  0  0  0  0  0
    3.8509    1.8529   19.1929 H   0  0  0  0  0  0  0  0  0  0  0  0
  1  2  1  0
  2  3  2  0
  3  4  1  0
  4  5  1  0
  4  6  2  0
  6  7  1  0
  7  8  2  0
  8  9  1  0
  9 10  1  0
 10 11  1  0
 10 12  1  0
 10 13  1  0
 13 14  1  0
 13 15  1  0
 13 16  1  0
 16 17  1  0
 16 18  1  0
 16 19  1  0
 19 20  1  0
 19 21  1  0
 19 22  1  0
 22 23  1  0
 22 24  1  0
 22 25  1  0
 25 26  1  0
 25 27  1  0
 25 28  1  0
 28 29  1  0
 28 30  1  0
 28 31  1  0
 31 32  1  0
 31 33  1  0
 31 34  1  0
  9 35  2  0
 35 36  1  0
 36 37  1  0
  6 38  1  0
 38 39  1  0
 38 40  2  0
 40 41  1  0
 40  2  1  0
 36  7  1  0
M  END
>  <cnnaffinity>  (1) 
-5.21572

>  <filename>  (1) 
CCCCCCCCc1n[nH]c(-c2cccnc2)n1

$$$$
