
     RDKit          3D

 42 43  0  0  0  0  0  0  0  0999 V2000
    4.9059    1.7758   17.0016 H   0  0  0  0  0  0  0  0  0  0  0  0
    5.3989    1.2943   17.8418 C   0  0  0  0  0  0  0  0  0  0  0  0
    6.5656    0.6825   17.5773 N   0  0  0  0  0  0  0  0  0  0  0  0
    7.1836    0.0652   18.5934 C   0  0  0  0  0  0  0  0  0  0  0  0
    8.1272   -0.4369   18.3793 H   0  0  0  0  0  0  0  0  0  0  0  0
    6.6743    0.0126   19.9079 C   0  0  0  0  0  0  0  0  0  0  0  0
    7.3656   -0.6711   20.9603 N   0  0  0  0  0  0  0  0  0  0  0  0
    8.6369   -0.4338   21.4697 C   0  0  0  0  0  0  0  0  0  0  0  0
    9.5201    0.6635   20.9754 C   0  0  0  0  0  0  0  0  0  0  0  0
    9.6254    0.6018   19.8902 H   0  0  0  0  0  0  0  0  0  0  0  0
   10.5072    0.4858   21.4108 H   0  0  0  0  0  0  0  0  0  0  0  0
    9.0283    2.0676   21.3628 C   0  0  0  0  0  0  0  0  0  0  0  0
    9.7554    2.7866   20.9797 H   0  0  0  0  0  0  0  0  0  0  0  0
    8.0781    2.2827   20.8502 H   0  0  0  0  0  0  0  0  0  0  0  0
    8.8740    2.2658   22.8789 C   0  0  0  0  0  0  0  0  0  0  0  0
    9.1928    3.2817   23.1487 H   0  0  0  0  0  0  0  0  0  0  0  0
    9.5617    1.5897   23.4127 H   0  0  0  0  0  0  0  0  0  0  0  0
    7.4374    2.0731   23.3775 C   0  0  0  0  0  0  0  0  0  0  0  0
    6.8202    2.8783   22.9559 H   0  0  0  0  0  0  0  0  0  0  0  0
    7.0133    1.1355   22.9829 H   0  0  0  0  0  0  0  0  0  0  0  0
    7.3099    2.0824   24.8994 C   0  0  0  0  0  0  0  0  0  0  0  0
    7.9283    2.8938   25.3169 H   0  0  0  0  0  0  0  0  0  0  0  0
    6.2711    2.3194   25.1652 H   0  0  0  0  0  0  0  0  0  0  0  0
    7.7116    0.7527   25.5466 C   0  0  0  0  0  0  0  0  0  0  0  0
    8.7266    0.4749   25.2295 H   0  0  0  0  0  0  0  0  0  0  0  0
    7.0476   -0.0411   25.1658 H   0  0  0  0  0  0  0  0  0  0  0  0
    7.6549    0.7688   27.0744 C   0  0  0  0  0  0  0  0  0  0  0  0
    8.1381   -0.1372   27.4588 H   0  0  0  0  0  0  0  0  0  0  0  0
    8.2429    1.6187   27.4489 H   0  0  0  0  0  0  0  0  0  0  0  0
    6.2367    0.8469   27.6299 C   0  0  0  0  0  0  0  0  0  0  0  0
    6.2443    0.7476   28.7189 H   0  0  0  0  0  0  0  0  0  0  0  0
    5.7579    1.8006   27.3820 H   0  0  0  0  0  0  0  0  0  0  0  0
    5.6177    0.0397   27.2195 H   0  0  0  0  0  0  0  0  0  0  0  0
    8.9127   -1.1989   22.4833 N   0  0  0  0  0  0  0  0  0  0  0  0
    7.7713   -1.9468   22.6423 N   0  0  0  0  0  0  0  0  0  0  0  0
    7.6575   -2.6355   23.3598 H   0  0  0  0  0  0  0  0  0  0  0  0
    6.7775   -1.6712   21.7543 C   0  0  0  0  0  0  0  0  0  0  0  0
    5.6753   -2.1790   21.6457 O   0  0  0  0  0  0  0  0  0  0  0  0
    5.4521    0.6478   20.1627 C   0  0  0  0  0  0  0  0  0  0  0  0
    5.0168    0.6131   21.1630 H   0  0  0  0  0  0  0  0  0  0  0  0
    4.8093    1.3121   19.1115 C   0  0  0  0  0  0  0  0  0  0  0  0
    3.8731    1.8440   19.2668 H   0  0  0  0  0  0  0  0  0  0  0  0
  1  2  1  0
  2  3  2  0
  3  4  1  0
  4  5  1  0
  4  6  2  0
  6  7  1  0
  7  8  1  0
  8  9  1  0
  9 10  1  0
  9 11  1  0
  9 12  1  0
 12 13  1  0
 12 14  1  0
 12 15  1  0
 15 16  1  0
 15 17  1  0
 15 18  1  0
 18 19  1  0
 18 20  1  0
 18 21  1  0
 21 22  1  0
 21 23  1  0
 21 24  1  0
 24 25  1  0
 24 26  1  0
 24 27  1  0
 27 28  1  0
 27 29  1  0
 27 30  1  0
 30 31  1  0
 30 32  1  0
 30 33  1  0
  8 34  2  0
 34 35  1  0
 35 36  1  0
 35 37  1  0
 37 38  2  0
  6 39  1  0
 39 40  1  0
 39 41  2  0
 41 42  1  0
 41  2  1  0
 37  7  1  0
M  END
>  <cnnaffinity>  (1) 
-5.15171

>  <filename>  (1) 
CCCCCCCCc1n[nH]c(=O)n1-c1cccnc1

$$$$
