
     RDKit          3D

 49 51  0  0  0  0  0  0  0  0999 V2000
    5.0570    1.8046   16.8460 H   0  0  0  0  0  0  0  0  0  0  0  0
    5.4384    1.2946   17.7294 C   0  0  0  0  0  0  0  0  0  0  0  0
    6.5819    0.6130   17.5701 N   0  0  0  0  0  0  0  0  0  0  0  0
    7.0870   -0.0025   18.6447 C   0  0  0  0  0  0  0  0  0  0  0  0
    8.0199   -0.5399   18.4834 H   0  0  0  0  0  0  0  0  0  0  0  0
    6.4993    0.0363   19.9238 C   0  0  0  0  0  0  0  0  0  0  0  0
    7.2042   -0.5956   21.0534 C   0  0  0  0  0  0  0  0  0  0  0  0
    7.8340   -1.7546   20.8697 N   0  0  0  0  0  0  0  0  0  0  0  0
    8.4307   -1.9720   22.0383 N   0  0  0  0  0  0  0  0  0  0  0  0
    8.2795   -1.0008   22.9502 C   0  0  0  0  0  0  0  0  0  0  0  0
    7.4404   -0.0638   22.3673 C   0  0  0  0  0  0  0  0  0  0  0  0
    7.1206    1.3470   22.7949 C   0  0  0  0  0  0  0  0  0  0  0  0
    6.0418    1.5279   22.7303 H   0  0  0  0  0  0  0  0  0  0  0  0
    7.3775    1.4894   23.8533 H   0  0  0  0  0  0  0  0  0  0  0  0
    7.8670    2.3692   21.9148 C   0  0  0  0  0  0  0  0  0  0  0  0
    7.5377    2.2363   20.8753 H   0  0  0  0  0  0  0  0  0  0  0  0
    7.5801    3.3914   22.1990 H   0  0  0  0  0  0  0  0  0  0  0  0
    9.3883    2.1998   21.9788 C   0  0  0  0  0  0  0  0  0  0  0  0
    9.6345    1.1688   21.6749 H   0  0  0  0  0  0  0  0  0  0  0  0
    9.8542    2.8405   21.2268 H   0  0  0  0  0  0  0  0  0  0  0  0
    9.9874    2.5050   23.3534 C   0  0  0  0  0  0  0  0  0  0  0  0
    9.8258    3.5673   23.5860 H   0  0  0  0  0  0  0  0  0  0  0  0
    9.4564    1.9415   24.1295 H   0  0  0  0  0  0  0  0  0  0  0  0
   11.4730    2.1956   23.4773 C   0  0  0  0  0  0  0  0  0  0  0  0
   11.6370    1.1112   23.3847 H   0  0  0  0  0  0  0  0  0  0  0  0
   11.8060    2.4590   24.4916 H   0  0  0  0  0  0  0  0  0  0  0  0
   12.3673    2.9089   22.4631 C   0  0  0  0  0  0  0  0  0  0  0  0
   12.0959    3.9692   22.3857 H   0  0  0  0  0  0  0  0  0  0  0  0
   12.2271    2.4709   21.4651 H   0  0  0  0  0  0  0  0  0  0  0  0
   13.8337    2.7932   22.8486 C   0  0  0  0  0  0  0  0  0  0  0  0
   14.4698    3.3604   22.1582 H   0  0  0  0  0  0  0  0  0  0  0  0
   13.9616    3.2862   23.8154 H   0  0  0  0  0  0  0  0  0  0  0  0
   14.2937    1.3282   22.9208 C   0  0  0  0  0  0  0  0  0  0  0  0
   15.3587    1.2485   22.7276 H   0  0  0  0  0  0  0  0  0  0  0  0
   14.0908    0.8603   23.8915 H   0  0  0  0  0  0  0  0  0  0  0  0
   13.8135    0.7191   22.1463 H   0  0  0  0  0  0  0  0  0  0  0  0
    9.2201   -1.2625   24.1019 C   0  0  0  0  0  0  0  0  0  0  0  0
    8.6939   -1.2902   25.0583 H   0  0  0  0  0  0  0  0  0  0  0  0
    9.9743   -0.4705   24.1718 H   0  0  0  0  0  0  0  0  0  0  0  0
    9.8687   -2.6373   23.7478 C   0  0  0  0  0  0  0  0  0  0  0  0
    9.5220   -3.4193   24.4248 H   0  0  0  0  0  0  0  0  0  0  0  0
   10.9545   -2.6110   23.8126 H   0  0  0  0  0  0  0  0  0  0  0  0
    9.4413   -2.9611   22.2987 C   0  0  0  0  0  0  0  0  0  0  0  0
    9.0089   -3.9542   22.1730 H   0  0  0  0  0  0  0  0  0  0  0  0
   10.2545   -2.8260   21.5787 H   0  0  0  0  0  0  0  0  0  0  0  0
    5.2869    0.7281   20.0624 C   0  0  0  0  0  0  0  0  0  0  0  0
    4.7825    0.7758   21.0273 H   0  0  0  0  0  0  0  0  0  0  0  0
    4.7514    1.3707   18.9447 C   0  0  0  0  0  0  0  0  0  0  0  0
    3.8351    1.9418   19.0126 H   0  0  0  0  0  0  0  0  0  0  0  0
  1  2  1  0
  2  3  2  0
  3  4  1  0
  4  5  1  0
  4  6  2  0
  6  7  1  0
  7  8  2  0
  8  9  1  0
  9 10  1  0
 10 11  2  0
 11 12  1  0
 12 13  1  0
 12 14  1  0
 12 15  1  0
 15 16  1  0
 15 17  1  0
 15 18  1  0
 18 19  1  0
 18 20  1  0
 18 21  1  0
 21 22  1  0
 21 23  1  0
 21 24  1  0
 24 25  1  0
 24 26  1  0
 24 27  1  0
 27 28  1  0
 27 29  1  0
 27 30  1  0
 30 31  1  0
 30 32  1  0
 30 33  1  0
 33 34  1  0
 33 35  1  0
 33 36  1  0
 10 37  1  0
 37 38  1  0
 37 39  1  0
 37 40  1  0
 40 41  1  0
 40 42  1  0
 40 43  1  0
 43 44  1  0
 43 45  1  0
  6 46  1  0
 46 47  1  0
 46 48  2  0
 48 49  1  0
 48  2  1  0
 11  7  1  0
 43  9  1  0
M  END
>  <cnnaffinity>  (1) 
-6.07215

>  <filename>  (1) 
CCCCCCCCc1c(-c2cccnc2)nn2c1CCC2

$$$$
