
     RDKit          3D

 35 37  0  0  0  0  0  0  0  0999 V2000
    5.1865    1.7701   16.8675 H   0  0  0  0  0  0  0  0  0  0  0  0
    5.5890    1.2885   17.7562 C   0  0  0  0  0  0  0  0  0  0  0  0
    6.7613    0.6511   17.6110 N   0  0  0  0  0  0  0  0  0  0  0  0
    7.2618    0.0317   18.6892 C   0  0  0  0  0  0  0  0  0  0  0  0
    8.2124   -0.4785   18.5670 H   0  0  0  0  0  0  0  0  0  0  0  0
    6.6145   -0.0249   19.9426 C   0  0  0  0  0  0  0  0  0  0  0  0
    7.0717   -0.8963   21.0354 C   0  0  0  0  0  0  0  0  0  0  0  0
    6.3529   -1.7528   21.8362 C   0  0  0  0  0  0  0  0  0  0  0  0
    5.2943   -1.9442   21.7303 H   0  0  0  0  0  0  0  0  0  0  0  0
    7.1262   -2.4336   22.7421 N   0  0  0  0  0  0  0  0  0  0  0  0
    8.3247   -1.9734   22.4951 C   0  0  0  0  0  0  0  0  0  0  0  0
    9.9204   -2.1713   23.1326 S   0  0  0  0  0  0  0  0  0  0  0  0
   10.4845   -1.1045   21.8422 C   0  0  0  0  0  0  0  0  0  0  0  0
   11.9396   -0.7764   21.7290 C   0  0  0  0  0  0  0  0  0  0  0  0
   12.5193   -1.5330   22.2670 H   0  0  0  0  0  0  0  0  0  0  0  0
   12.2054   -0.8769   20.6728 H   0  0  0  0  0  0  0  0  0  0  0  0
   12.3149    0.6207   22.2659 C   0  0  0  0  0  0  0  0  0  0  0  0
   13.4011    0.7508   22.1626 H   0  0  0  0  0  0  0  0  0  0  0  0
   12.0916    0.6471   23.3406 H   0  0  0  0  0  0  0  0  0  0  0  0
   11.6328    1.7962   21.5649 C   0  0  0  0  0  0  0  0  0  0  0  0
   10.5451    1.7419   21.6853 H   0  0  0  0  0  0  0  0  0  0  0  0
   11.8082    1.6946   20.4883 H   0  0  0  0  0  0  0  0  0  0  0  0
   12.1616    3.1743   21.9920 C   0  0  0  0  0  0  0  0  0  0  0  0
   11.5707    3.9523   21.5067 H   0  0  0  0  0  0  0  0  0  0  0  0
   13.1695    3.2968   21.5851 H   0  0  0  0  0  0  0  0  0  0  0  0
   12.2545    3.4761   23.4896 C   0  0  0  0  0  0  0  0  0  0  0  0
   12.6496    4.4864   23.6540 H   0  0  0  0  0  0  0  0  0  0  0  0
   11.3042    3.4117   24.0321 H   0  0  0  0  0  0  0  0  0  0  0  0
   12.9480    2.7792   23.9652 H   0  0  0  0  0  0  0  0  0  0  0  0
    9.5787   -0.6352   21.0472 N   0  0  0  0  0  0  0  0  0  0  0  0
    8.3698   -1.0912   21.4579 N   0  0  0  0  0  0  0  0  0  0  0  0
    5.4105    0.6862   20.0752 C   0  0  0  0  0  0  0  0  0  0  0  0
    4.9045    0.7123   21.0412 H   0  0  0  0  0  0  0  0  0  0  0  0
    4.8902    1.3511   18.9676 C   0  0  0  0  0  0  0  0  0  0  0  0
    3.9607    1.9026   19.0291 H   0  0  0  0  0  0  0  0  0  0  0  0
  1  2  1  0
  2  3  2  0
  3  4  1  0
  4  5  1  0
  4  6  2  0
  6  7  1  0
  7  8  2  0
  8  9  1  0
  8 10  1  0
 10 11  2  0
 11 12  1  0
 12 13  1  0
 13 14  1  0
 14 15  1  0
 14 16  1  0
 14 17  1  0
 17 18  1  0
 17 19  1  0
 17 20  1  0
 20 21  1  0
 20 22  1  0
 20 23  1  0
 23 24  1  0
 23 25  1  0
 23 26  1  0
 26 27  1  0
 26 28  1  0
 26 29  1  0
 13 30  2  0
 30 31  1  0
  6 32  1  0
 32 33  1  0
 32 34  2  0
 34 35  1  0
 34  2  1  0
 31  7  1  0
 31 11  1  0
M  END
>  <cnnaffinity>  (1) 
-5.29575

>  <filename>  (1) 
CCCCCc1nn2c(-c3cccnc3)cnc2s1

$$$$
