
     RDKit          3D

 33 34  0  0  0  0  0  0  0  0999 V2000
    4.9308    1.7852   16.9881 H   0  0  0  0  0  0  0  0  0  0  0  0
    5.3996    1.2921   17.8330 C   0  0  0  0  0  0  0  0  0  0  0  0
    6.5614    0.6735   17.5800 N   0  0  0  0  0  0  0  0  0  0  0  0
    7.1676    0.0653   18.5990 C   0  0  0  0  0  0  0  0  0  0  0  0
    8.1178   -0.4155   18.3824 H   0  0  0  0  0  0  0  0  0  0  0  0
    6.6399    0.0125   19.8986 C   0  0  0  0  0  0  0  0  0  0  0  0
    7.4080   -0.7021   20.9093 C   0  0  0  0  0  0  0  0  0  0  0  0
    8.6647   -1.0668   20.8055 N   0  0  0  0  0  0  0  0  0  0  0  0
    8.9685   -1.6721   21.9887 C   0  0  0  0  0  0  0  0  0  0  0  0
    9.9465   -2.0973   22.1690 H   0  0  0  0  0  0  0  0  0  0  0  0
    7.8886   -1.6966   22.8296 C   0  0  0  0  0  0  0  0  0  0  0  0
    7.6734   -2.3757   24.1306 C   0  0  0  0  0  0  0  0  0  0  0  0
    6.9613   -1.8153   24.7554 H   0  0  0  0  0  0  0  0  0  0  0  0
    8.6268   -2.3612   24.6727 H   0  0  0  0  0  0  0  0  0  0  0  0
    7.1859   -3.8228   23.9482 C   0  0  0  0  0  0  0  0  0  0  0  0
    6.2794   -3.8184   23.3300 H   0  0  0  0  0  0  0  0  0  0  0  0
    7.9328   -4.3852   23.3724 H   0  0  0  0  0  0  0  0  0  0  0  0
    6.9161   -4.5397   25.2657 C   0  0  0  0  0  0  0  0  0  0  0  0
    6.3795   -5.4769   25.0633 H   0  0  0  0  0  0  0  0  0  0  0  0
    6.2363   -3.9237   25.8715 H   0  0  0  0  0  0  0  0  0  0  0  0
    8.1807   -4.8401   26.0715 C   0  0  0  0  0  0  0  0  0  0  0  0
    8.6931   -3.9063   26.3377 H   0  0  0  0  0  0  0  0  0  0  0  0
    8.8886   -5.3867   25.4340 H   0  0  0  0  0  0  0  0  0  0  0  0
    7.8803   -5.6455   27.3314 C   0  0  0  0  0  0  0  0  0  0  0  0
    7.1888   -5.1046   27.9891 H   0  0  0  0  0  0  0  0  0  0  0  0
    8.7873   -5.8656   27.9037 H   0  0  0  0  0  0  0  0  0  0  0  0
    7.4000   -6.5979   27.0771 H   0  0  0  0  0  0  0  0  0  0  0  0
    6.8898   -1.0688   22.1135 N   0  0  0  0  0  0  0  0  0  0  0  0
    5.9267   -0.9569   22.3809 H   0  0  0  0  0  0  0  0  0  0  0  0
    5.4169    0.6600   20.1562 C   0  0  0  0  0  0  0  0  0  0  0  0
    4.9775    0.6683   21.1597 H   0  0  0  0  0  0  0  0  0  0  0  0
    4.7982    1.3154   19.0958 C   0  0  0  0  0  0  0  0  0  0  0  0
    3.8685    1.8469   19.2473 H   0  0  0  0  0  0  0  0  0  0  0  0
  1  2  1  0
  2  3  2  0
  3  4  1  0
  4  5  1  0
  4  6  2  0
  6  7  1  0
  7  8  2  0
  8  9  1  0
  9 10  1  0
  9 11  2  0
 11 12  1  0
 12 13  1  0
 12 14  1  0
 12 15  1  0
 15 16  1  0
 15 17  1  0
 15 18  1  0
 18 19  1  0
 18 20  1  0
 18 21  1  0
 21 22  1  0
 21 23  1  0
 21 24  1  0
 24 25  1  0
 24 26  1  0
 24 27  1  0
 11 28  1  0
 28 29  1  0
  6 30  1  0
 30 31  1  0
 30 32  2  0
 32 33  1  0
 32  2  1  0
 28  7  1  0
M  END
>  <cnnaffinity>  (1) 
-5.0334

>  <filename>  (1) 
CCCCCc1cnc(-c2cccnc2)[nH]1

$$$$
