
     RDKit          3D

 44 46  0  0  0  0  0  0  0  0999 V2000
    4.9207    1.7913   16.9450 H   0  0  0  0  0  0  0  0  0  0  0  0
    5.4102    1.3391   17.8044 C   0  0  0  0  0  0  0  0  0  0  0  0
    6.5394    0.6570   17.5583 N   0  0  0  0  0  0  0  0  0  0  0  0
    7.1612    0.1050   18.6084 C   0  0  0  0  0  0  0  0  0  0  0  0
    8.0909   -0.4101   18.3671 H   0  0  0  0  0  0  0  0  0  0  0  0
    6.7168    0.1752   19.9478 C   0  0  0  0  0  0  0  0  0  0  0  0
    7.5211   -0.3945   21.1475 C   0  0  2  0  0  0  0  0  0  0  0  0
    8.2297    0.8055   21.8870 C   0  0  0  0  0  0  0  0  0  0  0  0
    7.9210    1.2231   22.9915 O   0  0  0  0  0  0  0  0  0  0  0  0
    9.2760    1.3348   21.1835 N   0  0  0  0  0  0  0  0  0  0  0  0
    9.3410    1.0611   20.2217 H   0  0  0  0  0  0  0  0  0  0  0  0
   10.1448    2.3887   21.6890 C   0  0  0  0  0  0  0  0  0  0  0  0
   10.7518    2.7448   20.8489 H   0  0  0  0  0  0  0  0  0  0  0  0
    9.5423    3.2385   22.0329 H   0  0  0  0  0  0  0  0  0  0  0  0
   11.0769    1.9229   22.8120 C   0  0  0  0  0  0  0  0  0  0  0  0
   11.5806    2.8065   23.2270 H   0  0  0  0  0  0  0  0  0  0  0  0
   10.4603    1.5124   23.6191 H   0  0  0  0  0  0  0  0  0  0  0  0
   12.1386    0.9148   22.3581 C   0  0  0  0  0  0  0  0  0  0  0  0
   11.6400    0.0146   21.9679 H   0  0  0  0  0  0  0  0  0  0  0  0
   12.7021    1.3615   21.5269 H   0  0  0  0  0  0  0  0  0  0  0  0
   13.1327    0.5324   23.4570 C   0  0  0  0  0  0  0  0  0  0  0  0
   12.6264    0.1329   24.3435 H   0  0  0  0  0  0  0  0  0  0  0  0
   13.7013    1.4104   23.7867 H   0  0  0  0  0  0  0  0  0  0  0  0
   13.8509   -0.2220   23.1078 H   0  0  0  0  0  0  0  0  0  0  0  0
    8.5861   -1.5235   20.8046 C   0  0  0  0  0  0  0  0  0  0  0  0
    8.6102   -1.7404   19.7397 H   0  0  0  0  0  0  0  0  0  0  0  0
    9.5989   -1.2184   21.0934 H   0  0  0  0  0  0  0  0  0  0  0  0
    8.2050   -2.7317   21.6874 C   0  0  2  0  0  0  0  0  0  0  0  0
    9.0372   -3.4244   21.8384 H   0  0  0  0  0  0  0  0  0  0  0  0
    6.9189   -3.4048   21.1829 C   0  0  0  0  0  0  0  0  0  0  0  0
    6.9276   -3.6919   20.1323 H   0  0  0  0  0  0  0  0  0  0  0  0
    6.7273   -4.3184   21.7585 H   0  0  0  0  0  0  0  0  0  0  0  0
    5.8455   -2.3189   21.4599 C   0  0  0  0  0  0  0  0  0  0  0  0
    5.3904   -1.9643   20.5294 H   0  0  0  0  0  0  0  0  0  0  0  0
    5.0536   -2.7147   22.1015 H   0  0  0  0  0  0  0  0  0  0  0  0
    6.6417   -1.1979   22.1730 C   0  0  1  0  0  0  0  0  0  0  0  0
    6.0501   -0.5337   22.8025 H   0  0  0  0  0  0  0  0  0  0  0  0
    7.6866   -2.0174   22.9432 C   0  0  0  0  0  0  0  0  0  0  0  0
    8.4368   -1.4005   23.4504 H   0  0  0  0  0  0  0  0  0  0  0  0
    7.2334   -2.6890   23.6852 H   0  0  0  0  0  0  0  0  0  0  0  0
    5.5264    0.8966   20.1702 C   0  0  0  0  0  0  0  0  0  0  0  0
    5.1205    1.0073   21.1790 H   0  0  0  0  0  0  0  0  0  0  0  0
    4.8642    1.4782   19.0851 C   0  0  0  0  0  0  0  0  0  0  0  0
    3.9592    2.0640   19.2211 H   0  0  0  0  0  0  0  0  0  0  0  0
  1  2  1  0
  2  3  2  0
  3  4  1  0
  4  5  1  0
  4  6  2  0
  6  7  1  0
  7  8  1  1
  8  9  2  0
  8 10  1  0
 10 11  1  0
 10 12  1  0
 12 13  1  0
 12 14  1  0
 12 15  1  0
 15 16  1  0
 15 17  1  0
 15 18  1  0
 18 19  1  0
 18 20  1  0
 18 21  1  0
 21 22  1  0
 21 23  1  0
 21 24  1  0
  7 25  1  0
 25 26  1  0
 25 27  1  0
 25 28  1  0
 28 29  1  1
 28 30  1  0
 30 31  1  0
 30 32  1  0
 30 33  1  0
 33 34  1  0
 33 35  1  0
 33 36  1  0
 36 37  1  1
 36 38  1  0
 38 39  1  0
 38 40  1  0
  6 41  1  0
 41 42  1  0
 41 43  2  0
 43 44  1  0
 43  2  1  0
 36  7  1  0
 38 28  1  0
M  END
>  <cnnaffinity>  (1) 
-4.6455

>  <filename>  (1) 
CCCCNC(=O)[C@@]1(c2cccnc2)C[C@@H]2CC[C@H]1C2

$$$$
