
     RDKit          3D

 38 40  0  0  0  0  0  0  0  0999 V2000
    4.9110    1.7918   16.9855 H   0  0  0  0  0  0  0  0  0  0  0  0
    5.4010    1.3037   17.8269 C   0  0  0  0  0  0  0  0  0  0  0  0
    6.5699    0.6971   17.5644 N   0  0  0  0  0  0  0  0  0  0  0  0
    7.1919    0.0961   18.5822 C   0  0  0  0  0  0  0  0  0  0  0  0
    8.1291   -0.4021   18.3399 H   0  0  0  0  0  0  0  0  0  0  0  0
    6.7167    0.0644   19.9132 C   0  0  0  0  0  0  0  0  0  0  0  0
    7.4928   -0.6026   20.9632 C   0  0  0  0  0  0  0  0  0  0  0  0
    8.4832   -1.5633   20.9003 C   0  0  0  0  0  0  0  0  0  0  0  0
    8.9343   -1.9711   20.0057 H   0  0  0  0  0  0  0  0  0  0  0  0
    8.9066   -1.9866   22.1289 N   0  0  0  0  0  0  0  0  0  0  0  0
    8.1892   -1.2626   22.9497 C   0  0  0  0  0  0  0  0  0  0  0  0
    8.1498   -0.9966   24.6544 S   0  0  0  0  0  0  0  0  0  0  0  0
    7.1000    0.3903   24.3301 C   0  0  0  0  0  0  0  0  0  0  0  0
    6.7469    1.3549   25.4221 C   0  0  0  0  0  0  0  0  0  0  0  0
    6.5996    0.7961   26.3521 H   0  0  0  0  0  0  0  0  0  0  0  0
    5.7866    1.8227   25.1642 H   0  0  0  0  0  0  0  0  0  0  0  0
    7.8198    2.4421   25.6753 C   0  0  0  0  0  0  0  0  0  0  0  0
    7.5291    2.9734   26.5913 H   0  0  0  0  0  0  0  0  0  0  0  0
    8.7904    1.9694   25.8969 H   0  0  0  0  0  0  0  0  0  0  0  0
    7.9787    3.4594   24.5403 C   0  0  0  0  0  0  0  0  0  0  0  0
    8.3569    2.9524   23.6403 H   0  0  0  0  0  0  0  0  0  0  0  0
    6.9903    3.8596   24.2613 H   0  0  0  0  0  0  0  0  0  0  0  0
    8.8921    4.6309   24.9332 C   0  0  0  0  0  0  0  0  0  0  0  0
    8.5953    5.0076   25.9223 H   0  0  0  0  0  0  0  0  0  0  0  0
    9.9241    4.2590   25.0287 H   0  0  0  0  0  0  0  0  0  0  0  0
    8.8843    5.8054   23.9514 C   0  0  0  0  0  0  0  0  0  0  0  0
    9.4966    6.6202   24.3597 H   0  0  0  0  0  0  0  0  0  0  0  0
    7.8633    6.2069   23.8748 H   0  0  0  0  0  0  0  0  0  0  0  0
    9.4139    5.4167   22.5769 C   0  0  0  0  0  0  0  0  0  0  0  0
    8.7771    4.6567   22.1075 H   0  0  0  0  0  0  0  0  0  0  0  0
    9.4648    6.2841   21.9104 H   0  0  0  0  0  0  0  0  0  0  0  0
   10.4240    4.9962   22.6664 H   0  0  0  0  0  0  0  0  0  0  0  0
    6.7388    0.5510   23.1010 N   0  0  0  0  0  0  0  0  0  0  0  0
    7.3283   -0.4098   22.3331 N   0  0  0  0  0  0  0  0  0  0  0  0
    5.4809    0.6903   20.1557 C   0  0  0  0  0  0  0  0  0  0  0  0
    5.0654    0.6853   21.1602 H   0  0  0  0  0  0  0  0  0  0  0  0
    4.8203    1.3131   19.0983 C   0  0  0  0  0  0  0  0  0  0  0  0
    3.8720    1.8143   19.2471 H   0  0  0  0  0  0  0  0  0  0  0  0
  1  2  1  0
  2  3  2  0
  3  4  1  0
  4  5  1  0
  4  6  2  0
  6  7  1  0
  7  8  2  0
  8  9  1  0
  8 10  1  0
 10 11  2  0
 11 12  1  0
 12 13  1  0
 13 14  1  0
 14 15  1  0
 14 16  1  0
 14 17  1  0
 17 18  1  0
 17 19  1  0
 17 20  1  0
 20 21  1  0
 20 22  1  0
 20 23  1  0
 23 24  1  0
 23 25  1  0
 23 26  1  0
 26 27  1  0
 26 28  1  0
 26 29  1  0
 29 30  1  0
 29 31  1  0
 29 32  1  0
 13 33  2  0
 33 34  1  0
  6 35  1  0
 35 36  1  0
 35 37  2  0
 37 38  1  0
 37  2  1  0
 34  7  1  0
 34 11  1  0
M  END
>  <cnnaffinity>  (1) 
-5.24226

>  <filename>  (1) 
CCCCCCc1nn2c(-c3cccnc3)cnc2s1

$$$$
