
     RDKit          3D

 36 37  0  0  0  0  0  0  0  0999 V2000
    4.9701    1.8099   16.9815 H   0  0  0  0  0  0  0  0  0  0  0  0
    5.4177    1.2880   17.8254 C   0  0  0  0  0  0  0  0  0  0  0  0
    6.5715    0.6451   17.5783 N   0  0  0  0  0  0  0  0  0  0  0  0
    7.1586    0.0135   18.6000 C   0  0  0  0  0  0  0  0  0  0  0  0
    8.1002   -0.4843   18.3746 H   0  0  0  0  0  0  0  0  0  0  0  0
    6.6497   -0.0081   19.9089 C   0  0  0  0  0  0  0  0  0  0  0  0
    7.4249   -0.6710   20.9663 C   0  0  0  0  0  0  0  0  0  0  0  0
    7.9924   -1.9092   20.7868 N   0  0  0  0  0  0  0  0  0  0  0  0
    8.5773   -2.1963   21.9143 C   0  0  0  0  0  0  0  0  0  0  0  0
    9.0962   -3.1219   22.1431 H   0  0  0  0  0  0  0  0  0  0  0  0
    8.4493   -1.1929   22.8170 N   0  0  0  0  0  0  0  0  0  0  0  0
    8.9142   -1.1510   23.7086 H   0  0  0  0  0  0  0  0  0  0  0  0
    7.7242   -0.1841   22.2218 C   0  0  0  0  0  0  0  0  0  0  0  0
    7.5792    1.2009   22.7530 C   0  0  0  0  0  0  0  0  0  0  0  0
    7.7864    1.2293   23.8302 H   0  0  0  0  0  0  0  0  0  0  0  0
    6.5350    1.5105   22.6390 H   0  0  0  0  0  0  0  0  0  0  0  0
    8.4616    2.2101   21.9980 C   0  0  0  0  0  0  0  0  0  0  0  0
    8.2608    2.0993   20.9203 H   0  0  0  0  0  0  0  0  0  0  0  0
    9.5176    1.9386   22.1441 H   0  0  0  0  0  0  0  0  0  0  0  0
    8.2484    3.6606   22.4626 C   0  0  0  0  0  0  0  0  0  0  0  0
    9.0468    4.2917   22.0514 H   0  0  0  0  0  0  0  0  0  0  0  0
    8.3667    3.7009   23.5546 H   0  0  0  0  0  0  0  0  0  0  0  0
    6.8884    4.2984   22.1407 C   0  0  0  0  0  0  0  0  0  0  0  0
    6.1012    3.8102   22.7309 H   0  0  0  0  0  0  0  0  0  0  0  0
    6.6052    4.1094   21.0979 H   0  0  0  0  0  0  0  0  0  0  0  0
    6.8471    5.8136   22.3971 C   0  0  0  0  0  0  0  0  0  0  0  0
    7.7455    6.2704   21.9557 H   0  0  0  0  0  0  0  0  0  0  0  0
    6.9148    6.0005   23.4760 H   0  0  0  0  0  0  0  0  0  0  0  0
    5.5969    6.4665   21.8035 C   0  0  0  0  0  0  0  0  0  0  0  0
    4.6806    5.9574   22.1265 H   0  0  0  0  0  0  0  0  0  0  0  0
    5.6445    6.4011   20.7122 H   0  0  0  0  0  0  0  0  0  0  0  0
    5.4896    7.5244   22.0652 H   0  0  0  0  0  0  0  0  0  0  0  0
    5.4306    0.6570   20.1414 C   0  0  0  0  0  0  0  0  0  0  0  0
    4.9753    0.6638   21.1331 H   0  0  0  0  0  0  0  0  0  0  0  0
    4.8014    1.3080   19.0807 C   0  0  0  0  0  0  0  0  0  0  0  0
    3.8630    1.8429   19.2159 H   0  0  0  0  0  0  0  0  0  0  0  0
  1  2  1  0
  2  3  2  0
  3  4  1  0
  4  5  1  0
  4  6  2  0
  6  7  1  0
  7  8  1  0
  8  9  2  0
  9 10  1  0
  9 11  1  0
 11 12  1  0
 11 13  1  0
 13 14  1  0
 14 15  1  0
 14 16  1  0
 14 17  1  0
 17 18  1  0
 17 19  1  0
 17 20  1  0
 20 21  1  0
 20 22  1  0
 20 23  1  0
 23 24  1  0
 23 25  1  0
 23 26  1  0
 26 27  1  0
 26 28  1  0
 26 29  1  0
 29 30  1  0
 29 31  1  0
 29 32  1  0
  6 33  1  0
 33 34  1  0
 33 35  2  0
 35 36  1  0
 35  2  1  0
 13  7  2  0
M  END
>  <cnnaffinity>  (1) 
-4.90263

>  <filename>  (1) 
CCCCCCc1[nH]cnc1-c1cccnc1

$$$$
