
     RDKit          3D

 41 42  0  0  0  0  0  0  0  0999 V2000
    6.8721   -5.6282   28.6439 C   0  0  0  0  0  0  0  0  0  0  0  0
    5.8349   -4.9011   27.7955 C   0  0  0  0  0  0  0  0  0  0  0  0
    6.4442   -3.7627   26.9713 C   0  0  0  0  0  0  0  0  0  0  0  0
    5.4431   -3.0719   26.0322 C   0  0  0  0  0  0  0  0  0  0  0  0
    4.4683   -2.1794   26.7858 C   0  0  0  0  0  0  0  0  0  0  0  0
    4.9905   -1.3944   27.3481 H   0  0  0  0  0  0  0  0  0  0  0  0
    3.8904   -2.7668   27.5081 H   0  0  0  0  0  0  0  0  0  0  0  0
    3.7537   -1.7132   26.0995 H   0  0  0  0  0  0  0  0  0  0  0  0
    6.1363   -2.2847   24.9878 N   0  0  0  0  0  4  0  0  0  0  0  0
    6.6232   -3.0724   23.8550 C   0  0  0  0  0  0  0  0  0  0  0  0
    7.3496   -2.1693   22.9076 C   0  0  0  0  0  0  0  0  0  0  0  0
    8.7360   -1.9738   22.9923 C   0  0  0  0  0  0  0  0  0  0  0  0
    9.4426   -1.2048   22.1560 N   0  0  0  0  0  0  0  0  0  0  0  0
    8.7652   -0.5929   21.1814 C   0  0  0  0  0  0  0  0  0  0  0  0
    7.3783   -0.7082   20.9785 C   0  0  0  0  0  0  0  0  0  0  0  0
    6.6615    0.0140   19.8958 C   0  0  0  0  0  0  0  0  0  0  0  0
    5.4365    0.6510   20.1457 C   0  0  0  0  0  0  0  0  0  0  0  0
    4.8026    1.3184   19.0974 C   0  0  0  0  0  0  0  0  0  0  0  0
    5.3928    1.3006   17.8293 C   0  0  0  0  0  0  0  0  0  0  0  0
    6.5533    0.6817   17.5624 N   0  0  0  0  0  0  0  0  0  0  0  0
    7.1659    0.0724   18.5833 C   0  0  0  0  0  0  0  0  0  0  0  0
    8.1071   -0.4232   18.3542 H   0  0  0  0  0  0  0  0  0  0  0  0
    4.9130    1.7919   16.9861 H   0  0  0  0  0  0  0  0  0  0  0  0
    3.8724    1.8471   19.2504 H   0  0  0  0  0  0  0  0  0  0  0  0
    5.0155    0.6380   21.1556 H   0  0  0  0  0  0  0  0  0  0  0  0
    6.6725   -1.5240   21.8668 C   0  0  0  0  0  0  0  0  0  0  0  0
    5.5983   -1.6595   21.7182 H   0  0  0  0  0  0  0  0  0  0  0  0
    9.3406    0.0491   20.5145 H   0  0  0  0  0  0  0  0  0  0  0  0
    9.3246   -2.4791   23.7562 H   0  0  0  0  0  0  0  0  0  0  0  0
    5.7806   -3.5544   23.3415 H   0  0  0  0  0  0  0  0  0  0  0  0
    7.2800   -3.8833   24.1911 H   0  0  0  0  0  0  0  0  0  0  0  0
    5.5143   -1.5340   24.5957 H   0  0  0  0  0  0  0  0  0  0  0  0
    6.9620   -1.7921   25.4193 H   0  0  0  0  0  0  0  0  0  0  0  0
    4.8730   -3.8659   25.5287 H   0  0  0  0  0  0  0  0  0  0  0  0
    6.8833   -3.0007   27.6268 H   0  0  0  0  0  0  0  0  0  0  0  0
    7.2839   -4.1632   26.3879 H   0  0  0  0  0  0  0  0  0  0  0  0
    5.0379   -4.5186   28.4470 H   0  0  0  0  0  0  0  0  0  0  0  0
    5.3514   -5.6188   27.1195 H   0  0  0  0  0  0  0  0  0  0  0  0
    6.4235   -6.4358   29.2315 H   0  0  0  0  0  0  0  0  0  0  0  0
    7.6658   -6.0638   28.0243 H   0  0  0  0  0  0  0  0  0  0  0  0
    7.3405   -4.9316   29.3422 H   0  0  0  0  0  0  0  0  0  0  0  0
  1  2  1  0
  2  3  1  0
  3  4  1  0
  4  5  1  0
  5  6  1  0
  5  7  1  0
  5  8  1  0
  4  9  1  0
  9 10  1  0
 10 11  1  0
 11 12  2  0
 12 13  1  0
 13 14  2  0
 14 15  1  0
 15 16  1  0
 16 17  2  0
 17 18  1  0
 18 19  2  0
 19 20  1  0
 20 21  2  0
 21 22  1  0
 19 23  1  0
 18 24  1  0
 17 25  1  0
 15 26  2  0
 26 27  1  0
 14 28  1  0
 12 29  1  0
 10 30  1  0
 10 31  1  0
  9 32  1  0
  9 33  1  0
  4 34  1  0
  3 35  1  0
  3 36  1  0
  2 37  1  0
  2 38  1  0
  1 39  1  0
  1 40  1  0
  1 41  1  0
 26 11  1  0
 21 16  1  0
M  CHG  1   9   1
M  END
>  <cnnaffinity>  (1) 
-4.89122

>  <filename>  (1) 
CCCC(C)[NH2+]Cc1cncc(-c2cccnc2)c1

$$$$
