
     RDKit          3D

 37 38  0  0  0  0  0  0  0  0999 V2000
    4.9301    1.7939   16.9971 H   0  0  0  0  0  0  0  0  0  0  0  0
    5.3966    1.2899   17.8379 C   0  0  0  0  0  0  0  0  0  0  0  0
    6.5522    0.6613   17.5713 N   0  0  0  0  0  0  0  0  0  0  0  0
    7.1719    0.0448   18.5834 C   0  0  0  0  0  0  0  0  0  0  0  0
    8.1259   -0.4310   18.3593 H   0  0  0  0  0  0  0  0  0  0  0  0
    6.6513    0.0009   19.8944 C   0  0  0  0  0  0  0  0  0  0  0  0
    7.3300   -0.6762   20.9476 N   0  0  0  0  0  0  0  0  0  0  0  0
    6.7332   -1.6051   21.7964 C   0  0  0  0  0  0  0  0  0  0  0  0
    5.6797   -1.8197   21.7236 H   0  0  0  0  0  0  0  0  0  0  0  0
    7.6737   -2.0614   22.6574 C   0  0  0  0  0  0  0  0  0  0  0  0
    7.5596   -2.9280   23.8664 C   0  0  0  0  0  0  0  0  0  0  0  0
    8.4058   -3.6222   23.9288 H   0  0  0  0  0  0  0  0  0  0  0  0
    6.6657   -3.5512   23.7511 H   0  0  0  0  0  0  0  0  0  0  0  0
    7.4344   -2.1221   25.1761 C   0  0  0  0  0  0  0  0  0  0  0  0
    8.3235   -1.4889   25.3072 H   0  0  0  0  0  0  0  0  0  0  0  0
    7.4322   -2.8137   26.0315 H   0  0  0  0  0  0  0  0  0  0  0  0
    6.1730   -1.2477   25.2286 C   0  0  0  0  0  0  0  0  0  0  0  0
    6.2150   -0.4850   24.4323 H   0  0  0  0  0  0  0  0  0  0  0  0
    5.2922   -1.8667   25.0018 H   0  0  0  0  0  0  0  0  0  0  0  0
    5.9656   -0.5611   26.5844 C   0  0  0  0  0  0  0  0  0  0  0  0
    6.0027   -1.3196   27.3841 H   0  0  0  0  0  0  0  0  0  0  0  0
    4.9531   -0.1323   26.6230 H   0  0  0  0  0  0  0  0  0  0  0  0
    6.9858    0.5441   26.8894 C   0  0  0  0  0  0  0  0  0  0  0  0
    6.9893    1.2635   26.0560 H   0  0  0  0  0  0  0  0  0  0  0  0
    7.9993    0.1180   26.9189 H   0  0  0  0  0  0  0  0  0  0  0  0
    6.6907    1.2686   28.2041 C   0  0  0  0  0  0  0  0  0  0  0  0
    6.7034    0.5711   29.0510 H   0  0  0  0  0  0  0  0  0  0  0  0
    7.4252    2.0546   28.4076 H   0  0  0  0  0  0  0  0  0  0  0  0
    5.6977    1.7346   28.1813 H   0  0  0  0  0  0  0  0  0  0  0  0
    8.8370   -1.3919   22.3136 N   0  0  0  0  0  0  0  0  0  0  0  0
    9.7484   -1.3957   22.7442 H   0  0  0  0  0  0  0  0  0  0  0  0
    8.6495   -0.5054   21.3092 C   0  0  0  0  0  0  0  0  0  0  0  0
    9.8207    0.5405   20.7686 S   0  0  0  0  0  0  0  0  0  0  0  0
    5.4410    0.6460   20.1593 C   0  0  0  0  0  0  0  0  0  0  0  0
    5.0416    0.6268   21.1752 H   0  0  0  0  0  0  0  0  0  0  0  0
    4.8073    1.3103   19.1068 C   0  0  0  0  0  0  0  0  0  0  0  0
    3.8778    1.8424   19.2591 H   0  0  0  0  0  0  0  0  0  0  0  0
  1  2  1  0
  2  3  2  0
  3  4  1  0
  4  5  1  0
  4  6  2  0
  6  7  1  0
  7  8  1  0
  8  9  1  0
  8 10  2  0
 10 11  1  0
 11 12  1  0
 11 13  1  0
 11 14  1  0
 14 15  1  0
 14 16  1  0
 14 17  1  0
 17 18  1  0
 17 19  1  0
 17 20  1  0
 20 21  1  0
 20 22  1  0
 20 23  1  0
 23 24  1  0
 23 25  1  0
 23 26  1  0
 26 27  1  0
 26 28  1  0
 26 29  1  0
 10 30  1  0
 30 31  1  0
 30 32  1  0
 32 33  2  0
  6 34  1  0
 34 35  1  0
 34 36  2  0
 36 37  1  0
 36  2  1  0
 32  7  1  0
M  END
>  <cnnaffinity>  (1) 
-5.40045

>  <filename>  (1) 
CCCCCCc1cn(-c2cccnc2)c(=S)[nH]1

$$$$
