
     RDKit          3D

 34 35  0  0  0  0  0  0  0  0999 V2000
    4.9520    1.8618   16.9937 H   0  0  0  0  0  0  0  0  0  0  0  0
    5.4231    1.3180   17.8098 C   0  0  0  0  0  0  0  0  0  0  0  0
    6.5829    0.7025   17.5209 N   0  0  0  0  0  0  0  0  0  0  0  0
    7.1827    0.0296   18.5076 C   0  0  0  0  0  0  0  0  0  0  0  0
    8.1272   -0.4601   18.2775 H   0  0  0  0  0  0  0  0  0  0  0  0
    6.6629   -0.0934   19.8103 C   0  0  0  0  0  0  0  0  0  0  0  0
    7.4025   -0.8218   20.7926 N   0  0  0  0  0  0  0  0  0  0  0  0
    8.7117   -0.5036   21.1546 C   0  0  0  0  0  0  0  0  0  0  0  0
    9.2401    0.2751   20.6263 H   0  0  0  0  0  0  0  0  0  0  0  0
    9.0733   -1.2876   22.1960 C   0  0  0  0  0  0  0  0  0  0  0  0
   10.3123   -1.2559   23.0429 C   0  0  0  0  0  0  0  0  0  0  0  0
   11.1682   -1.1954   22.3599 H   0  0  0  0  0  0  0  0  0  0  0  0
   10.4163   -2.2093   23.5744 H   0  0  0  0  0  0  0  0  0  0  0  0
   10.3173   -0.0708   24.0336 C   0  0  0  0  0  0  0  0  0  0  0  0
    9.4833   -0.2329   24.7304 H   0  0  0  0  0  0  0  0  0  0  0  0
   10.0922    0.8469   23.4751 H   0  0  0  0  0  0  0  0  0  0  0  0
   11.5821    0.1852   24.8724 C   0  0  0  0  0  0  0  0  0  0  0  0
   11.7160   -0.6361   25.5857 H   0  0  0  0  0  0  0  0  0  0  0  0
   11.3887    1.0770   25.4887 H   0  0  0  0  0  0  0  0  0  0  0  0
   12.9135    0.3798   24.1324 C   0  0  0  0  0  0  0  0  0  0  0  0
   13.7071    0.3402   24.8896 H   0  0  0  0  0  0  0  0  0  0  0  0
   13.1078   -0.4637   23.4540 H   0  0  0  0  0  0  0  0  0  0  0  0
   13.0581    1.6807   23.3458 C   0  0  0  0  0  0  0  0  0  0  0  0
   12.8945    2.5635   23.9761 H   0  0  0  0  0  0  0  0  0  0  0  0
   14.0708    1.7512   22.9404 H   0  0  0  0  0  0  0  0  0  0  0  0
   12.3734    1.7329   22.4909 H   0  0  0  0  0  0  0  0  0  0  0  0
    7.9754   -2.1042   22.4298 N   0  0  0  0  0  0  0  0  0  0  0  0
    7.8250   -2.7486   23.1846 H   0  0  0  0  0  0  0  0  0  0  0  0
    6.9438   -1.8717   21.5643 C   0  0  0  0  0  0  0  0  0  0  0  0
    5.5390   -2.7615   21.4631 S   0  0  0  0  0  0  0  0  0  0  0  0
    5.4496    0.5510   20.1056 C   0  0  0  0  0  0  0  0  0  0  0  0
    5.0240    0.5116   21.1092 H   0  0  0  0  0  0  0  0  0  0  0  0
    4.8290    1.2724   19.0772 C   0  0  0  0  0  0  0  0  0  0  0  0
    3.9026    1.8139   19.2486 H   0  0  0  0  0  0  0  0  0  0  0  0
  1  2  1  0
  2  3  2  0
  3  4  1  0
  4  5  1  0
  4  6  2  0
  6  7  1  0
  7  8  1  0
  8  9  1  0
  8 10  2  0
 10 11  1  0
 11 12  1  0
 11 13  1  0
 11 14  1  0
 14 15  1  0
 14 16  1  0
 14 17  1  0
 17 18  1  0
 17 19  1  0
 17 20  1  0
 20 21  1  0
 20 22  1  0
 20 23  1  0
 23 24  1  0
 23 25  1  0
 23 26  1  0
 10 27  1  0
 27 28  1  0
 27 29  1  0
 29 30  2  0
  6 31  1  0
 31 32  1  0
 31 33  2  0
 33 34  1  0
 33  2  1  0
 29  7  1  0
M  END
>  <cnnaffinity>  (1) 
-5.08637

>  <filename>  (1) 
CCCCCc1cn(-c2cccnc2)c(=S)[nH]1

$$$$
