
     RDKit          3D

 39 40  0  0  0  0  0  0  0  0999 V2000
    4.9590    1.8075   16.9863 H   0  0  0  0  0  0  0  0  0  0  0  0
    5.4077    1.2857   17.8289 C   0  0  0  0  0  0  0  0  0  0  0  0
    6.5617    0.6509   17.5705 N   0  0  0  0  0  0  0  0  0  0  0  0
    7.1544    0.0135   18.5841 C   0  0  0  0  0  0  0  0  0  0  0  0
    8.1035   -0.4685   18.3625 H   0  0  0  0  0  0  0  0  0  0  0  0
    6.6473   -0.0239   19.8927 C   0  0  0  0  0  0  0  0  0  0  0  0
    7.4398   -0.6907   20.9310 C   0  0  0  0  0  0  0  0  0  0  0  0
    8.0703   -1.8900   20.7088 N   0  0  0  0  0  0  0  0  0  0  0  0
    8.6343   -2.2030   21.8427 C   0  0  0  0  0  0  0  0  0  0  0  0
    9.2025   -3.1038   22.0443 H   0  0  0  0  0  0  0  0  0  0  0  0
    8.4372   -1.2421   22.7816 N   0  0  0  0  0  0  0  0  0  0  0  0
    8.7843   -1.2447   23.7259 H   0  0  0  0  0  0  0  0  0  0  0  0
    7.6878   -0.2335   22.2099 C   0  0  0  0  0  0  0  0  0  0  0  0
    7.3209    1.0386   22.9250 C   0  0  0  0  0  0  0  0  0  0  0  0
    7.0688    1.7904   22.1672 H   0  0  0  0  0  0  0  0  0  0  0  0
    8.2013    1.4429   23.4502 H   0  0  0  0  0  0  0  0  0  0  0  0
    6.1442    0.9127   23.9143 C   0  0  0  0  0  0  0  0  0  0  0  0
    5.8000    1.9153   24.1999 H   0  0  0  0  0  0  0  0  0  0  0  0
    5.2958    0.4687   23.3804 H   0  0  0  0  0  0  0  0  0  0  0  0
    6.4761    0.1135   25.1835 C   0  0  0  0  0  0  0  0  0  0  0  0
    6.7569   -0.9108   24.9122 H   0  0  0  0  0  0  0  0  0  0  0  0
    7.3728    0.5515   25.6578 H   0  0  0  0  0  0  0  0  0  0  0  0
    5.3339    0.0598   26.2110 C   0  0  0  0  0  0  0  0  0  0  0  0
    4.4006   -0.2556   25.7126 H   0  0  0  0  0  0  0  0  0  0  0  0
    5.5488   -0.7216   26.9557 H   0  0  0  0  0  0  0  0  0  0  0  0
    5.1016    1.3931   26.9386 C   0  0  0  0  0  0  0  0  0  0  0  0
    4.9287    2.1852   26.1949 H   0  0  0  0  0  0  0  0  0  0  0  0
    6.0289    1.6787   27.4646 H   0  0  0  0  0  0  0  0  0  0  0  0
    3.9358    1.3631   27.9413 C   0  0  0  0  0  0  0  0  0  0  0  0
    3.0248    1.0203   27.4242 H   0  0  0  0  0  0  0  0  0  0  0  0
    3.7217    2.3916   28.2642 H   0  0  0  0  0  0  0  0  0  0  0  0
    4.2069    0.4818   29.1705 C   0  0  0  0  0  0  0  0  0  0  0  0
    4.3120   -0.5764   28.9019 H   0  0  0  0  0  0  0  0  0  0  0  0
    5.1352    0.7781   29.6768 H   0  0  0  0  0  0  0  0  0  0  0  0
    3.3972    0.5479   29.9055 H   0  0  0  0  0  0  0  0  0  0  0  0
    5.4296    0.6353   20.1431 C   0  0  0  0  0  0  0  0  0  0  0  0
    4.9812    0.6494   21.1387 H   0  0  0  0  0  0  0  0  0  0  0  0
    4.7992    1.2975   19.0901 C   0  0  0  0  0  0  0  0  0  0  0  0
    3.8690    1.8396   19.2331 H   0  0  0  0  0  0  0  0  0  0  0  0
  1  2  1  0
  2  3  2  0
  3  4  1  0
  4  5  1  0
  4  6  2  0
  6  7  1  0
  7  8  1  0
  8  9  2  0
  9 10  1  0
  9 11  1  0
 11 12  1  0
 11 13  1  0
 13 14  1  0
 14 15  1  0
 14 16  1  0
 14 17  1  0
 17 18  1  0
 17 19  1  0
 17 20  1  0
 20 21  1  0
 20 22  1  0
 20 23  1  0
 23 24  1  0
 23 25  1  0
 23 26  1  0
 26 27  1  0
 26 28  1  0
 26 29  1  0
 29 30  1  0
 29 31  1  0
 29 32  1  0
 32 33  1  0
 32 34  1  0
 32 35  1  0
  6 36  1  0
 36 37  1  0
 36 38  2  0
 38 39  1  0
 38  2  1  0
 13  7  2  0
M  END
>  <cnnaffinity>  (1) 
-5.02577

>  <filename>  (1) 
CCCCCCCc1[nH]cnc1-c1cccnc1

$$$$
