
     RDKit          3D

 43 44  0  0  0  0  0  0  0  0999 V2000
    5.0174    1.7719   16.9917 H   0  0  0  0  0  0  0  0  0  0  0  0
    5.4879    1.2860   17.8446 C   0  0  0  0  0  0  0  0  0  0  0  0
    6.6740    0.6937   17.6133 N   0  0  0  0  0  0  0  0  0  0  0  0
    7.2640    0.0804   18.6424 C   0  0  0  0  0  0  0  0  0  0  0  0
    8.2297   -0.3903   18.4807 H   0  0  0  0  0  0  0  0  0  0  0  0
    6.6936   -0.0095   19.9220 C   0  0  0  0  0  0  0  0  0  0  0  0
    7.3816   -0.7177   20.9389 N   0  0  0  0  0  0  0  0  0  0  0  0
    8.7583   -0.4704   20.9654 N   0  0  0  0  0  0  0  0  0  0  0  0
    9.4173   -0.8391   22.0080 C   0  0  0  0  0  0  0  0  0  0  0  0
   10.9149   -0.6126   21.9927 C   0  0  0  0  0  0  0  0  0  0  0  0
   11.3162   -1.1103   21.1015 H   0  0  0  0  0  0  0  0  0  0  0  0
   11.3695   -1.1130   22.8577 H   0  0  0  0  0  0  0  0  0  0  0  0
   11.3330    0.8750   21.9799 C   0  0  0  0  0  0  0  0  0  0  0  0
   12.4298    0.9218   21.8768 H   0  0  0  0  0  0  0  0  0  0  0  0
   10.8997    1.3438   21.0835 H   0  0  0  0  0  0  0  0  0  0  0  0
   10.8760    1.6274   23.2347 C   0  0  0  0  0  0  0  0  0  0  0  0
   11.3876    1.1961   24.1107 H   0  0  0  0  0  0  0  0  0  0  0  0
    9.8006    1.4486   23.3867 H   0  0  0  0  0  0  0  0  0  0  0  0
   11.0921    3.1475   23.2384 C   0  0  0  0  0  0  0  0  0  0  0  0
   10.5119    3.6032   22.4185 H   0  0  0  0  0  0  0  0  0  0  0  0
   10.6484    3.5383   24.1628 H   0  0  0  0  0  0  0  0  0  0  0  0
   12.5557    3.6128   23.1490 C   0  0  0  0  0  0  0  0  0  0  0  0
   13.2346    2.8025   23.4694 H   0  0  0  0  0  0  0  0  0  0  0  0
   12.7246    4.4309   23.8661 H   0  0  0  0  0  0  0  0  0  0  0  0
   12.9804    4.0917   21.7534 C   0  0  0  0  0  0  0  0  0  0  0  0
   12.3360    4.9233   21.4298 H   0  0  0  0  0  0  0  0  0  0  0  0
   12.8128    3.2842   21.0245 H   0  0  0  0  0  0  0  0  0  0  0  0
   14.4432    4.5193   21.7564 C   0  0  0  0  0  0  0  0  0  0  0  0
   14.8314    4.6911   20.7448 H   0  0  0  0  0  0  0  0  0  0  0  0
   15.0374    3.7234   22.2259 H   0  0  0  0  0  0  0  0  0  0  0  0
   14.5900    5.4274   22.3550 H   0  0  0  0  0  0  0  0  0  0  0  0
    8.7200   -1.4567   23.2134 C   0  0  0  0  0  0  0  0  0  0  0  0
    8.3761   -0.6353   23.8623 H   0  0  0  0  0  0  0  0  0  0  0  0
    9.4239   -2.0646   23.7965 H   0  0  0  0  0  0  0  0  0  0  0  0
    7.5368   -2.3328   22.7820 C   0  0  0  0  0  0  0  0  0  0  0  0
    6.8278   -2.4879   23.5977 H   0  0  0  0  0  0  0  0  0  0  0  0
    7.8812   -3.3232   22.4632 H   0  0  0  0  0  0  0  0  0  0  0  0
    6.7407   -1.7776   21.6169 C   0  0  0  0  0  0  0  0  0  0  0  0
    5.6669   -2.2443   21.2831 O   0  0  0  0  0  0  0  0  0  0  0  0
    5.4638    0.6049   20.1649 C   0  0  0  0  0  0  0  0  0  0  0  0
    5.0150    0.5643   21.1573 H   0  0  0  0  0  0  0  0  0  0  0  0
    4.8635    1.2808   19.0980 C   0  0  0  0  0  0  0  0  0  0  0  0
    3.9244    1.8009   19.2261 H   0  0  0  0  0  0  0  0  0  0  0  0
  1  2  1  0
  2  3  2  0
  3  4  1  0
  4  5  1  0
  4  6  2  0
  6  7  1  0
  7  8  1  0
  8  9  2  0
  9 10  1  0
 10 11  1  0
 10 12  1  0
 10 13  1  0
 13 14  1  0
 13 15  1  0
 13 16  1  0
 16 17  1  0
 16 18  1  0
 16 19  1  0
 19 20  1  0
 19 21  1  0
 19 22  1  0
 22 23  1  0
 22 24  1  0
 22 25  1  0
 25 26  1  0
 25 27  1  0
 25 28  1  0
 28 29  1  0
 28 30  1  0
 28 31  1  0
  9 32  1  0
 32 33  1  0
 32 34  1  0
 32 35  1  0
 35 36  1  0
 35 37  1  0
 35 38  1  0
 38 39  2  0
  6 40  1  0
 40 41  1  0
 40 42  2  0
 42 43  1  0
 42  2  1  0
 38  7  1  0
M  END
>  <cnnaffinity>  (1) 
-5.64991

>  <filename>  (1) 
CCCCCCCC1=NN(c2cccnc2)C(=O)CC1

$$$$
