
     RDKit          3D

 33 35  0  0  0  0  0  0  0  0999 V2000
    4.9997    1.8489   16.8924 H   0  0  0  0  0  0  0  0  0  0  0  0
    5.4305    1.2946   17.7268 C   0  0  0  0  0  0  0  0  0  0  0  0
    6.5750    0.6372   17.4845 N   0  0  0  0  0  0  0  0  0  0  0  0
    7.1505   -0.0039   18.5073 C   0  0  0  0  0  0  0  0  0  0  0  0
    8.0796   -0.5230   18.2842 H   0  0  0  0  0  0  0  0  0  0  0  0
    6.6242   -0.0342   19.8126 C   0  0  0  0  0  0  0  0  0  0  0  0
    7.3718   -0.6524   20.9237 C   0  0  0  0  0  0  0  0  0  0  0  0
    8.4933   -1.3622   20.7263 N   0  0  0  0  0  0  0  0  0  0  0  0
    8.8957   -1.6315   21.9859 N   0  0  0  0  0  0  0  0  0  0  0  0
    9.9705   -2.3165   22.5335 C   0  0  0  0  0  0  0  0  0  0  0  0
   10.7066   -2.7803   21.9059 H   0  0  0  0  0  0  0  0  0  0  0  0
    9.8564   -2.1745   23.8791 C   0  0  0  0  0  0  0  0  0  0  0  0
   10.4767   -2.5289   24.6909 H   0  0  0  0  0  0  0  0  0  0  0  0
    8.7310   -1.4136   24.1512 N   0  0  0  0  0  0  0  0  0  0  0  0
    8.4620   -0.9086   25.4308 N   0  0  0  0  0  0  0  0  0  0  0  0
    8.8191   -1.5970   26.0888 H   0  0  0  0  0  0  0  0  0  0  0  0
    7.0410   -0.6672   25.7102 C   0  0  0  0  0  0  0  0  0  0  0  0
    6.9889   -0.2818   26.7335 H   0  0  0  0  0  0  0  0  0  0  0  0
    6.7003    0.1542   25.0641 H   0  0  0  0  0  0  0  0  0  0  0  0
    6.1254   -1.8776   25.5532 C   0  0  0  0  0  0  0  0  0  0  0  0
    5.1127   -1.5139   25.7567 H   0  0  0  0  0  0  0  0  0  0  0  0
    6.1493   -2.1950   24.5026 H   0  0  0  0  0  0  0  0  0  0  0  0
    6.4303   -3.0538   26.4818 C   0  0  0  0  0  0  0  0  0  0  0  0
    7.4226   -3.4851   26.2963 H   0  0  0  0  0  0  0  0  0  0  0  0
    6.3903   -2.7538   27.5364 H   0  0  0  0  0  0  0  0  0  0  0  0
    5.6932   -3.8525   26.3358 H   0  0  0  0  0  0  0  0  0  0  0  0
    8.1217   -1.1012   22.9543 C   0  0  0  0  0  0  0  0  0  0  0  0
    7.0539   -0.4925   22.2949 C   0  0  0  0  0  0  0  0  0  0  0  0
    6.1694   -0.0484   22.6996 H   0  0  0  0  0  0  0  0  0  0  0  0
    5.4016    0.6240   20.0358 C   0  0  0  0  0  0  0  0  0  0  0  0
    4.9296    0.6217   21.0210 H   0  0  0  0  0  0  0  0  0  0  0  0
    4.8010    1.2982   18.9771 C   0  0  0  0  0  0  0  0  0  0  0  0
    3.8809    1.8552   19.1199 H   0  0  0  0  0  0  0  0  0  0  0  0
  1  2  1  0
  2  3  2  0
  3  4  1  0
  4  5  1  0
  4  6  2  0
  6  7  1  0
  7  8  2  0
  8  9  1  0
  9 10  1  0
 10 11  1  0
 10 12  2  0
 12 13  1  0
 12 14  1  0
 14 15  1  0
 15 16  1  0
 15 17  1  0
 17 18  1  0
 17 19  1  0
 17 20  1  0
 20 21  1  0
 20 22  1  0
 20 23  1  0
 23 24  1  0
 23 25  1  0
 23 26  1  0
 14 27  1  0
 27 28  2  0
 28 29  1  0
  6 30  1  0
 30 31  1  0
 30 32  2  0
 32 33  1  0
 32  2  1  0
 28  7  1  0
 27  9  1  0
M  END
>  <cnnaffinity>  (1) 
-5.11004

>  <filename>  (1) 
CCCNn1ccn2nc(-c3cccnc3)cc12

$$$$
