
     RDKit          3D

 26 26  0  0  0  0  0  0  0  0999 V2000
    5.5537   -1.3340   21.7033 H   0  0  0  0  0  0  0  0  0  0  0  0
    6.6371   -1.3748   21.7792 C   0  0  0  0  0  0  0  0  0  0  0  0
    7.2684   -0.7043   20.8023 C   0  0  0  0  0  0  0  0  0  0  0  0
    8.6277   -0.7580   20.6600 F   0  0  0  0  0  0  0  0  0  0  0  0
    6.6064    0.0925   19.7551 C   0  0  0  0  0  0  0  0  0  0  0  0
    7.1775    0.1676   18.4666 C   0  0  0  0  0  0  0  0  0  0  0  0
    8.1236   -0.3293   18.2646 H   0  0  0  0  0  0  0  0  0  0  0  0
    6.5997    0.7801   17.4291 N   0  0  0  0  0  0  0  0  0  0  0  0
    5.4173    1.3794   17.6422 C   0  0  0  0  0  0  0  0  0  0  0  0
    4.9656    1.8648   16.7809 H   0  0  0  0  0  0  0  0  0  0  0  0
    4.7705    1.3879   18.8835 C   0  0  0  0  0  0  0  0  0  0  0  0
    3.8151    1.8864   18.9919 H   0  0  0  0  0  0  0  0  0  0  0  0
    5.3736    0.7409   19.9594 C   0  0  0  0  0  0  0  0  0  0  0  0
    4.9157    0.7536   20.9501 H   0  0  0  0  0  0  0  0  0  0  0  0
    7.1329   -2.1771   22.7950 N   0  0  0  0  0  0  0  0  0  0  0  0
    6.5203   -2.2571   23.5977 H   0  0  0  0  0  0  0  0  0  0  0  0
    8.5687   -2.2102   23.0561 C   0  0  0  0  0  0  0  0  0  0  0  0
    9.0823   -2.5476   22.1495 H   0  0  0  0  0  0  0  0  0  0  0  0
    8.9660   -1.1982   23.2576 H   0  0  0  0  0  0  0  0  0  0  0  0
    8.9366   -3.1521   24.1964 C   0  0  0  0  0  0  0  0  0  0  0  0
    8.5093   -2.7690   25.1306 H   0  0  0  0  0  0  0  0  0  0  0  0
    8.5053   -4.1439   24.0297 H   0  0  0  0  0  0  0  0  0  0  0  0
   10.4521   -3.2879   24.3082 C   0  0  0  0  0  0  0  0  0  0  0  0
   10.8897   -2.3188   24.5469 H   0  0  0  0  0  0  0  0  0  0  0  0
   10.8808   -3.6162   23.3549 H   0  0  0  0  0  0  0  0  0  0  0  0
   10.7719   -3.9981   25.0749 H   0  0  0  0  0  0  0  0  0  0  0  0
  1  2  1  0
  2  3  2  3
  3  4  1  0
  3  5  1  0
  5  6  2  0
  6  7  1  0
  6  8  1  0
  8  9  2  0
  9 10  1  0
  9 11  1  0
 11 12  1  0
 11 13  2  0
 13 14  1  0
  2 15  1  0
 15 16  1  0
 15 17  1  0
 17 18  1  0
 17 19  1  0
 17 20  1  0
 20 21  1  0
 20 22  1  0
 20 23  1  0
 23 24  1  0
 23 25  1  0
 23 26  1  0
 13  5  1  0
M  END
>  <cnnaffinity>  (1) 
-4.15877

>  <filename>  (1) 
CCCNC=C(F)c1cccnc1

$$$$
