
     RDKit          3D

 38 39  0  0  0  0  0  0  0  0999 V2000
   10.6327   -0.8970   22.4512 H   0  0  0  0  0  0  0  0  0  0  0  0
    9.5928   -0.8991   22.1354 C   0  0  0  0  0  0  0  0  0  0  0  0
    8.6273   -1.5705   22.8264 N   0  0  0  0  0  0  0  0  0  0  0  0
    7.5600   -1.2864   22.1260 C   0  0  0  0  0  0  0  0  0  0  0  0
    6.3194   -1.7100   22.3342 O   0  0  0  0  0  0  0  0  0  0  0  0
    6.1191   -2.8519   23.1957 C   0  0  0  0  0  0  0  0  0  0  0  0
    7.0663   -3.3513   23.4235 H   0  0  0  0  0  0  0  0  0  0  0  0
    5.6576   -2.4813   24.1119 H   0  0  0  0  0  0  0  0  0  0  0  0
    5.1561   -3.8362   22.4899 C   0  0  0  0  0  0  0  0  0  0  0  0
    4.6502   -4.3816   23.2935 H   0  0  0  0  0  0  0  0  0  0  0  0
    4.3651   -3.2177   22.0246 H   0  0  0  0  0  0  0  0  0  0  0  0
    5.6925   -4.8658   21.5976 N   0  0  0  0  0  0  0  0  0  0  0  0
    6.1973   -4.4865   20.3088 C   0  0  0  0  0  0  0  0  0  0  0  0
    5.1632   -5.9547   19.5367 H   0  0  0  0  0  0  0  0  0  0  0  0
    5.2070   -3.8041   20.1002 H   0  0  0  0  0  0  0  0  0  0  0  0
    6.0145   -4.7294   20.2121 C   0  0  0  0  0  0  0  0  0  0  0  0
    7.2409   -3.2826   20.5592 H   0  0  0  0  0  0  0  0  0  0  0  0
    6.4834   -4.4088   19.0499 H   0  0  0  0  0  0  0  0  0  0  0  0
    7.1202   -5.2945   20.2044 H   0  0  0  0  0  0  0  0  0  0  0  0
    6.1081   -6.1263   22.2479 C   0  0  0  0  0  0  0  0  0  0  0  0
    5.3500   -6.3827   23.0009 H   0  0  0  0  0  0  0  0  0  0  0  0
    6.0348   -6.9633   21.5158 H   0  0  0  0  0  0  0  0  0  0  0  0
    7.5047   -6.1106   22.9216 C   0  0  0  0  0  0  0  0  0  0  0  0
    7.4792   -5.6201   23.9014 H   0  0  0  0  0  0  0  0  0  0  0  0
    7.8893   -7.1239   23.0526 H   0  0  0  0  0  0  0  0  0  0  0  0
    8.2438   -5.5698   22.3178 H   0  0  0  0  0  0  0  0  0  0  0  0
    7.8506   -0.4901   21.0587 N   0  0  0  0  0  0  0  0  0  0  0  0
    7.0183    0.0028   20.0083 C   0  0  0  0  0  0  0  0  0  0  0  0
    7.5031    0.0332   18.6895 C   0  0  0  0  0  0  0  0  0  0  0  0
    8.4994   -0.3464   18.4712 H   0  0  0  0  0  0  0  0  0  0  0  0
    6.7898    0.4959   17.6593 N   0  0  0  0  0  0  0  0  0  0  0  0
    5.5584    0.9738   17.9112 C   0  0  0  0  0  0  0  0  0  0  0  0
    5.0014    1.3506   17.0559 H   0  0  0  0  0  0  0  0  0  0  0  0
    4.9923    0.9821   19.1893 C   0  0  0  0  0  0  0  0  0  0  0  0
    3.9963    1.3853   19.3341 H   0  0  0  0  0  0  0  0  0  0  0  0
    5.7251    0.4711   20.2632 C   0  0  0  0  0  0  0  0  0  0  0  0
    5.3144    0.4352   21.2702 H   0  0  0  0  0  0  0  0  0  0  0  0
    9.2010   -0.2546   21.0617 N   0  0  0  0  0  0  0  0  0  0  0  0
  1  2  1  0
  2  3  1  0
  3  4  2  0
  4  5  1  0
  5  6  1  0
  6  7  1  0
  6  8  1  0
  6  9  1  0
  9 10  1  0
  9 11  1  0
  9 12  1  0
 12 13  1  0
 13 14  1  0
 13 15  1  0
 13 16  1  0
 16 17  1  0
 16 18  1  0
 16 19  1  0
 12 20  1  0
 20 21  1  0
 20 22  1  0
 20 23  1  0
 23 24  1  0
 23 25  1  0
 23 26  1  0
  4 27  1  0
 27 28  1  0
 28 29  2  0
 29 30  1  0
 29 31  1  0
 31 32  2  0
 32 33  1  0
 32 34  1  0
 34 35  1  0
 34 36  2  0
 36 37  1  0
 27 38  1  0
 38  2  2  0
 36 28  1  0
M  END
>  <cnnaffinity>  (1) 
-3.96821

>  <filename>  (1) 
CCN(CC)CCOc1ncnn1-c1cccnc1

$$$$
