
     RDKit          3D

 27 28  0  0  0  0  0  0  0  0999 V2000
    4.9741    1.8257   17.0253 H   0  0  0  0  0  0  0  0  0  0  0  0
    5.4521    1.2855   17.8356 C   0  0  0  0  0  0  0  0  0  0  0  0
    6.6135    0.6766   17.5408 N   0  0  0  0  0  0  0  0  0  0  0  0
    7.2231    0.0177   18.5310 C   0  0  0  0  0  0  0  0  0  0  0  0
    8.1647   -0.4720   18.2893 H   0  0  0  0  0  0  0  0  0  0  0  0
    6.7067   -0.0913   19.8344 C   0  0  0  0  0  0  0  0  0  0  0  0
    7.4539   -0.7803   20.8388 N   0  0  0  0  0  0  0  0  0  0  0  0
    8.7183   -0.3519   21.2643 C   0  0  0  0  0  0  0  0  0  0  0  0
    9.2882    0.3767   20.7165 H   0  0  0  0  0  0  0  0  0  0  0  0
    9.0526   -1.1027   22.3294 C   0  0  0  0  0  0  0  0  0  0  0  0
   10.1189   -1.1469   23.2008 N   0  0  0  0  0  0  0  0  0  0  0  0
   10.2364   -2.1065   23.5027 H   0  0  0  0  0  0  0  0  0  0  0  0
   11.3783   -0.5994   22.7152 C   0  0  0  0  0  0  0  0  0  0  0  0
   12.1016   -0.5736   23.5348 H   0  0  0  0  0  0  0  0  0  0  0  0
   11.2251    0.4438   22.4192 H   0  0  0  0  0  0  0  0  0  0  0  0
   11.9159   -1.3922   21.5398 C   0  0  0  0  0  0  0  0  0  0  0  0
   11.1936   -1.3348   20.7224 H   0  0  0  0  0  0  0  0  0  0  0  0
   12.0641   -2.4436   21.7947 H   0  0  0  0  0  0  0  0  0  0  0  0
   12.8772   -1.0053   21.2120 H   0  0  0  0  0  0  0  0  0  0  0  0
    8.0461   -2.0145   22.5091 N   0  0  0  0  0  0  0  0  0  0  0  0
    8.0204   -2.7148   23.2257 H   0  0  0  0  0  0  0  0  0  0  0  0
    7.0488   -1.8577   21.5971 C   0  0  0  0  0  0  0  0  0  0  0  0
    5.7073   -2.8282   21.4416 S   0  0  0  0  0  0  0  0  0  0  0  0
    5.4899    0.5400   20.1333 C   0  0  0  0  0  0  0  0  0  0  0  0
    5.0792    0.5011   21.1457 H   0  0  0  0  0  0  0  0  0  0  0  0
    4.8604    1.2472   19.1046 C   0  0  0  0  0  0  0  0  0  0  0  0
    3.9317    1.7820   19.2829 H   0  0  0  0  0  0  0  0  0  0  0  0
  1  2  1  0
  2  3  2  0
  3  4  1  0
  4  5  1  0
  4  6  2  0
  6  7  1  0
  7  8  1  0
  8  9  1  0
  8 10  2  0
 10 11  1  0
 11 12  1  0
 11 13  1  0
 13 14  1  0
 13 15  1  0
 13 16  1  0
 16 17  1  0
 16 18  1  0
 16 19  1  0
 10 20  1  0
 20 21  1  0
 20 22  1  0
 22 23  2  0
  6 24  1  0
 24 25  1  0
 24 26  2  0
 26 27  1  0
 26  2  1  0
 22  7  1  0
M  END
>  <cnnaffinity>  (1) 
-4.54729

>  <filename>  (1) 
CCNc1cn(-c2cccnc2)c(=S)[nH]1

$$$$
