
     RDKit          3D

 45 46  0  0  0  0  0  0  0  0999 V2000
   13.9825    5.9950   21.7338 C   0  0  0  0  0  0  0  0  0  0  0  0
   13.8521    4.9151   22.7987 C   0  0  0  0  0  0  0  0  0  0  0  0
   12.1138    4.4956   23.1978 S   0  0  0  0  0  0  0  0  0  0  0  0
   12.1068    2.7099   22.7973 C   0  0  0  0  0  0  0  0  0  0  0  0
   12.9600    1.9297   23.7882 C   0  0  0  0  0  0  0  0  0  0  0  0
   13.0715    0.4997   23.4056 C   0  0  0  0  0  0  0  0  0  0  0  0
   13.4212    0.3475   23.3987 C   0  0  0  0  0  0  0  0  0  0  0  0
   13.0675   -0.1974   24.4342 H   0  0  0  0  0  0  0  0  0  0  0  0
   14.2563   -0.6765   23.1508 H   0  0  0  0  0  0  0  0  0  0  0  0
   14.7156    0.3783   23.5671 H   0  0  0  0  0  0  0  0  0  0  0  0
   11.0704   -0.3536   22.7940 N   0  0  0  0  0  4  0  0  0  0  0  0
   10.5908   -1.4991   22.0274 C   0  0  0  0  0  0  0  0  0  0  0  0
    9.0886   -1.5314   21.8670 C   0  0  0  0  0  0  0  0  0  0  0  0
    8.2706   -2.2193   22.7791 C   0  0  0  0  0  0  0  0  0  0  0  0
    6.9375   -2.2902   22.6737 N   0  0  0  0  0  0  0  0  0  0  0  0
    6.3563   -1.6293   21.6640 C   0  0  0  0  0  0  0  0  0  0  0  0
    7.0601   -0.8672   20.7092 C   0  0  0  0  0  0  0  0  0  0  0  0
    6.3889   -0.0980   19.6194 C   0  0  0  0  0  0  0  0  0  0  0  0
    5.2234    0.6507   19.8416 C   0  0  0  0  0  0  0  0  0  0  0  0
    4.7056    1.4232   18.7981 C   0  0  0  0  0  0  0  0  0  0  0  0
    5.3549    1.4056   17.5576 C   0  0  0  0  0  0  0  0  0  0  0  0
    6.4479    0.6670   17.3061 N   0  0  0  0  0  0  0  0  0  0  0  0
    6.9396   -0.0552   18.3193 C   0  0  0  0  0  0  0  0  0  0  0  0
    7.8148   -0.6602   18.0908 H   0  0  0  0  0  0  0  0  0  0  0  0
    4.9866    2.0093   16.7280 H   0  0  0  0  0  0  0  0  0  0  0  0
    3.8243    2.0439   18.9272 H   0  0  0  0  0  0  0  0  0  0  0  0
    4.7437    0.6520   20.8218 H   0  0  0  0  0  0  0  0  0  0  0  0
    8.4554   -0.8560   20.8181 C   0  0  0  0  0  0  0  0  0  0  0  0
    9.0431   -0.2899   20.0899 H   0  0  0  0  0  0  0  0  0  0  0  0
    5.2786   -1.7409   21.5761 H   0  0  0  0  0  0  0  0  0  0  0  0
    8.7053   -2.7707   23.6163 H   0  0  0  0  0  0  0  0  0  0  0  0
   10.9370   -2.4354   22.4888 H   0  0  0  0  0  0  0  0  0  0  0  0
   11.0583   -1.4843   21.0299 H   0  0  0  0  0  0  0  0  0  0  0  0
   10.7282    0.5042   22.3666 H   0  0  0  0  0  0  0  0  0  0  0  0
   10.6299   -0.3444   23.7142 H   0  0  0  0  0  0  0  0  0  0  0  0
   13.3655    0.5600   22.1911 H   0  0  0  0  0  0  0  0  0  0  0  0
   13.8425    2.6063   23.9806 H   0  0  0  0  0  0  0  0  0  0  0  0
   12.3805    2.0387   24.7265 H   0  0  0  0  0  0  0  0  0  0  0  0
   11.0545    2.4132   22.8684 H   0  0  0  0  0  0  0  0  0  0  0  0
   12.3780    2.6314   21.7325 H   0  0  0  0  0  0  0  0  0  0  0  0
   14.3411    5.2285   23.7260 H   0  0  0  0  0  0  0  0  0  0  0  0
   14.3515    4.0014   22.4546 H   0  0  0  0  0  0  0  0  0  0  0  0
   15.0254    6.0937   21.4175 H   0  0  0  0  0  0  0  0  0  0  0  0
   13.6507    6.9651   22.1101 H   0  0  0  0  0  0  0  0  0  0  0  0
   13.3826    5.7364   20.8575 H   0  0  0  0  0  0  0  0  0  0  0  0
  1  2  1  0
  2  3  1  0
  3  4  1  0
  4  5  1  0
  5  6  1  0
  6  7  1  0
  7  8  1  0
  7  9  1  0
  7 10  1  0
  6 11  1  0
 11 12  1  0
 12 13  1  0
 13 14  2  0
 14 15  1  0
 15 16  2  0
 16 17  1  0
 17 18  1  0
 18 19  2  0
 19 20  1  0
 20 21  2  0
 21 22  1  0
 22 23  2  0
 23 24  1  0
 21 25  1  0
 20 26  1  0
 19 27  1  0
 17 28  2  0
 28 29  1  0
 16 30  1  0
 14 31  1  0
 12 32  1  0
 12 33  1  0
 11 34  1  0
 11 35  1  0
  6 36  1  0
  5 37  1  0
  5 38  1  0
  4 39  1  0
  4 40  1  0
  2 41  1  0
  2 42  1  0
  1 43  1  0
  1 44  1  0
  1 45  1  0
 28 13  1  0
 23 18  1  0
M  CHG  1  11   1
M  END
>  <cnnaffinity>  (1) 
-5.29651

>  <filename>  (1) 
CCSCCC(C)[NH2+]Cc1cncc(-c2cccnc2)c1

$$$$
