
     RDKit          3D

 32 34  0  0  0  0  0  0  0  0999 V2000
    6.7490   -3.3704   22.8010 H   0  0  0  0  0  0  0  0  0  0  0  0
    7.2856   -2.5140   22.4072 C   0  0  0  0  0  0  0  0  0  0  0  0
    8.4904   -2.2716   22.9203 N   0  0  0  0  0  0  0  0  0  0  0  0
    9.1269   -1.2110   22.4270 C   0  0  0  0  0  0  0  0  0  0  0  0
   10.1060   -0.9933   22.8512 H   0  0  0  0  0  0  0  0  0  0  0  0
    8.6194   -0.3986   21.4163 C   0  0  0  0  0  0  0  0  0  0  0  0
    9.3721    0.8621   21.0174 C   0  0  0  0  0  0  0  0  0  0  0  0
   10.4373    0.6385   20.8997 H   0  0  0  0  0  0  0  0  0  0  0  0
    9.0075    1.1973   20.0469 H   0  0  0  0  0  0  0  0  0  0  0  0
    9.1821    1.9904   22.0146 C   0  0  0  0  0  0  0  0  0  0  0  0
    7.9877    2.7365   21.9900 C   0  0  0  0  0  0  0  0  0  0  0  0
    7.2412    2.5143   21.2274 H   0  0  0  0  0  0  0  0  0  0  0  0
    7.7404    3.7470   22.9180 C   0  0  0  0  0  0  0  0  0  0  0  0
    6.8146    4.3161   22.8729 H   0  0  0  0  0  0  0  0  0  0  0  0
    8.6921    4.0337   23.8996 C   0  0  0  0  0  0  0  0  0  0  0  0
    8.5114    4.8228   24.6223 H   0  0  0  0  0  0  0  0  0  0  0  0
    9.8829    3.3097   23.9524 C   0  0  0  0  0  0  0  0  0  0  0  0
   10.6367    3.5257   24.7000 H   0  0  0  0  0  0  0  0  0  0  0  0
   10.1183    2.3016   23.0151 C   0  0  0  0  0  0  0  0  0  0  0  0
   11.6410    1.4454   23.1288 Cl  0  0  0  0  0  0  0  0  0  0  0  0
    7.3414   -0.7665   20.9631 C   0  0  0  0  0  0  0  0  0  0  0  0
    6.6469   -0.0034   19.9124 C   0  0  0  0  0  0  0  0  0  0  0  0
    7.1706    0.0450   18.6197 C   0  0  0  0  0  0  0  0  0  0  0  0
    8.1220   -0.4332   18.3804 H   0  0  0  0  0  0  0  0  0  0  0  0
    6.5711    0.6662   17.5953 N   0  0  0  0  0  0  0  0  0  0  0  0
    5.4094    1.2882   17.8463 C   0  0  0  0  0  0  0  0  0  0  0  0
    4.9208    1.7739   17.0031 H   0  0  0  0  0  0  0  0  0  0  0  0
    4.8102    1.3135   19.1111 C   0  0  0  0  0  0  0  0  0  0  0  0
    3.8758    1.8440   19.2628 H   0  0  0  0  0  0  0  0  0  0  0  0
    5.4344    0.6471   20.1634 C   0  0  0  0  0  0  0  0  0  0  0  0
    4.9988    0.6269   21.1663 H   0  0  0  0  0  0  0  0  0  0  0  0
    6.6720   -1.8115   21.4595 N   0  0  0  0  0  0  0  0  0  0  0  0
  1  2  1  0
  2  3  2  0
  3  4  1  0
  4  5  1  0
  4  6  2  0
  6  7  1  0
  7  8  1  0
  7  9  1  0
  7 10  1  0
 10 11  2  0
 11 12  1  0
 11 13  1  0
 13 14  1  0
 13 15  2  0
 15 16  1  0
 15 17  1  0
 17 18  1  0
 17 19  2  0
 19 20  1  0
  6 21  1  0
 21 22  1  0
 22 23  2  0
 23 24  1  0
 23 25  1  0
 25 26  2  0
 26 27  1  0
 26 28  1  0
 28 29  1  0
 28 30  2  0
 30 31  1  0
 21 32  2  0
 32  2  1  0
 19 10  1  0
 30 22  1  0
M  END
>  <cnnaffinity>  (1) 
-5.58801

>  <filename>  (1) 
Clc1ccccc1Cc1cncnc1-c1cccnc1

$$$$
