
     RDKit          3D

 20 21  0  0  0  0  0  0  0  0999 V2000
    4.9096    1.7818   16.9967 H   0  0  0  0  0  0  0  0  0  0  0  0
    5.3973    1.2969   17.8381 C   0  0  0  0  0  0  0  0  0  0  0  0
    6.5630    0.6826   17.5739 N   0  0  0  0  0  0  0  0  0  0  0  0
    7.1750    0.0618   18.5909 C   0  0  0  0  0  0  0  0  0  0  0  0
    8.1222   -0.4315   18.3761 H   0  0  0  0  0  0  0  0  0  0  0  0
    6.6621   -0.0093   19.9116 C   0  0  0  0  0  0  0  0  0  0  0  0
    7.3173   -0.7050   20.9371 N   0  0  0  0  0  0  0  0  0  0  0  0
    6.7458   -1.1501   21.6523 H   0  0  0  0  0  0  0  0  0  0  0  0
    8.6953   -0.7064   21.1488 C   0  0  0  0  0  0  0  0  0  0  0  0
    9.6930    0.1693   20.6596 C   0  0  0  0  0  0  0  0  0  0  0  0
    9.5217    0.9956   19.9941 H   0  0  0  0  0  0  0  0  0  0  0  0
   10.9041   -0.1171   21.1234 N   0  0  0  0  0  0  0  0  0  0  0  0
   10.7061   -1.1846   21.9079 N   0  0  0  0  0  0  0  0  0  0  0  0
   11.4845   -1.5960   22.3977 H   0  0  0  0  0  0  0  0  0  0  0  0
    9.4061   -1.5625   21.9539 C   0  0  0  0  0  0  0  0  0  0  0  0
    8.8327   -2.8641   22.9018 Cl  0  0  0  0  0  0  0  0  0  0  0  0
    5.4429    0.6357   20.1599 C   0  0  0  0  0  0  0  0  0  0  0  0
    5.0187    0.6206   21.1679 H   0  0  0  0  0  0  0  0  0  0  0  0
    4.8108    1.3077   19.1108 C   0  0  0  0  0  0  0  0  0  0  0  0
    3.8779    1.8407   19.2653 H   0  0  0  0  0  0  0  0  0  0  0  0
  1  2  1  0
  2  3  2  0
  3  4  1  0
  4  5  1  0
  4  6  2  0
  6  7  1  0
  7  8  1  0
  7  9  1  0
  9 10  1  0
 10 11  1  0
 10 12  2  0
 12 13  1  0
 13 14  1  0
 13 15  1  0
 15 16  1  0
  6 17  1  0
 17 18  1  0
 17 19  2  0
 19 20  1  0
 19  2  1  0
 15  9  2  0
M  END
>  <cnnaffinity>  (1) 
-4.57029

>  <filename>  (1) 
Clc1[nH]ncc1Nc1cccnc1

$$$$
