
     RDKit          3D

 34 36  0  0  0  0  0  0  0  0999 V2000
    4.9159    1.7865   16.9895 H   0  0  0  0  0  0  0  0  0  0  0  0
    5.4018    1.2971   17.8290 C   0  0  0  0  0  0  0  0  0  0  0  0
    6.5628    0.6813   17.5591 N   0  0  0  0  0  0  0  0  0  0  0  0
    7.1621    0.0631   18.5841 C   0  0  0  0  0  0  0  0  0  0  0  0
    8.1105   -0.4239   18.3583 H   0  0  0  0  0  0  0  0  0  0  0  0
    6.6496   -0.0001   19.8878 C   0  0  0  0  0  0  0  0  0  0  0  0
    7.3843   -0.6987   21.0110 C   0  0  0  0  0  0  0  0  0  0  0  0
    6.7307   -1.4493   21.4664 H   0  0  0  0  0  0  0  0  0  0  0  0
    8.2523   -1.2424   20.6236 H   0  0  0  0  0  0  0  0  0  0  0  0
    7.8119    0.2114   22.0670 N   0  0  0  0  0  0  0  0  0  0  0  0
    7.1319    0.4916   23.2221 C   0  0  0  0  0  0  0  0  0  0  0  0
    6.2211   -0.0401   23.4898 H   0  0  0  0  0  0  0  0  0  0  0  0
    7.7054    1.4378   23.9216 N   0  0  0  0  0  0  0  0  0  0  0  0
    8.7876    1.8162   23.1781 C   0  0  0  0  0  0  0  0  0  0  0  0
    9.4866    2.5709   23.5077 H   0  0  0  0  0  0  0  0  0  0  0  0
    8.8600    1.1041   22.0106 C   0  0  0  0  0  0  0  0  0  0  0  0
    9.9084    1.1872   20.9509 C   0  0  0  0  0  0  0  0  0  0  0  0
    9.5765    0.6687   20.0412 H   0  0  0  0  0  0  0  0  0  0  0  0
   10.0461    2.2443   20.7052 H   0  0  0  0  0  0  0  0  0  0  0  0
   11.2290    0.6198   21.4326 C   0  0  0  0  0  0  0  0  0  0  0  0
   11.4211   -0.7668   21.4026 C   0  0  0  0  0  0  0  0  0  0  0  0
   10.6374   -1.3966   20.9900 H   0  0  0  0  0  0  0  0  0  0  0  0
   12.5926   -1.3515   21.8782 C   0  0  0  0  0  0  0  0  0  0  0  0
   12.7210   -2.4270   21.8311 H   0  0  0  0  0  0  0  0  0  0  0  0
   13.5991   -0.5449   22.4156 C   0  0  0  0  0  0  0  0  0  0  0  0
   14.5171   -0.9904   22.7820 H   0  0  0  0  0  0  0  0  0  0  0  0
   13.4263    0.8371   22.4911 C   0  0  0  0  0  0  0  0  0  0  0  0
   14.1962    1.4876   22.8971 H   0  0  0  0  0  0  0  0  0  0  0  0
   12.2475    1.4040   22.0007 C   0  0  0  0  0  0  0  0  0  0  0  0
   12.0859    3.1375   22.1105 Cl  0  0  0  0  0  0  0  0  0  0  0  0
    5.4356    0.6468   20.1459 C   0  0  0  0  0  0  0  0  0  0  0  0
    5.0105    0.6362   21.1562 H   0  0  0  0  0  0  0  0  0  0  0  0
    4.8041    1.3113   19.0952 C   0  0  0  0  0  0  0  0  0  0  0  0
    3.8721    1.8451   19.2556 H   0  0  0  0  0  0  0  0  0  0  0  0
  1  2  1  0
  2  3  2  0
  3  4  1  0
  4  5  1  0
  4  6  2  0
  6  7  1  0
  7  8  1  0
  7  9  1  0
  7 10  1  0
 10 11  1  0
 11 12  1  0
 11 13  2  0
 13 14  1  0
 14 15  1  0
 14 16  2  0
 16 17  1  0
 17 18  1  0
 17 19  1  0
 17 20  1  0
 20 21  2  0
 21 22  1  0
 21 23  1  0
 23 24  1  0
 23 25  2  0
 25 26  1  0
 25 27  1  0
 27 28  1  0
 27 29  2  0
 29 30  1  0
  6 31  1  0
 31 32  1  0
 31 33  2  0
 33 34  1  0
 33  2  1  0
 16 10  1  0
 29 20  1  0
M  END
>  <cnnaffinity>  (1) 
-5.8312

>  <filename>  (1) 
Clc1ccccc1Cc1cncn1Cc1cccnc1

$$$$
