
     RDKit          3D

 32 34  0  0  0  0  0  0  0  0999 V2000
    4.9152    1.7980   16.9806 H   0  0  0  0  0  0  0  0  0  0  0  0
    5.3886    1.3043   17.8255 C   0  0  0  0  0  0  0  0  0  0  0  0
    6.5492    0.6844   17.5626 N   0  0  0  0  0  0  0  0  0  0  0  0
    7.1480    0.0619   18.5845 C   0  0  0  0  0  0  0  0  0  0  0  0
    8.1043   -0.4121   18.3724 H   0  0  0  0  0  0  0  0  0  0  0  0
    6.6315   -0.0048   19.8937 C   0  0  0  0  0  0  0  0  0  0  0  0
    7.4013   -0.7274   20.9875 C   0  0  0  0  0  0  0  0  0  0  0  0
    6.7825   -0.8416   21.8879 H   0  0  0  0  0  0  0  0  0  0  0  0
    7.6872   -1.7369   20.6723 H   0  0  0  0  0  0  0  0  0  0  0  0
    8.6686   -0.0167   21.3435 C   0  0  0  0  0  0  0  0  0  0  0  0
    9.8671   -0.2803   20.8716 N   0  0  0  0  0  0  0  0  0  0  0  0
   10.6925    0.6493   21.3997 N   0  0  0  0  0  0  0  0  0  0  0  0
   10.0462    1.4598   22.1547 N   0  0  0  0  0  0  0  0  0  0  0  0
    8.7588    1.0775   22.1222 N   0  0  0  0  0  0  0  0  0  0  0  0
    7.7551    1.7158   22.9615 C   0  0  0  0  0  0  0  0  0  0  0  0
    6.8561    1.8486   22.3579 H   0  0  0  0  0  0  0  0  0  0  0  0
    8.1441    2.7068   23.2008 H   0  0  0  0  0  0  0  0  0  0  0  0
    7.4539    0.9288   24.2128 C   0  0  0  0  0  0  0  0  0  0  0  0
    8.4583    0.7520   25.1710 C   0  0  0  0  0  0  0  0  0  0  0  0
    9.4362    1.1926   24.9999 H   0  0  0  0  0  0  0  0  0  0  0  0
    8.2118    0.0021   26.3194 C   0  0  0  0  0  0  0  0  0  0  0  0
    8.9774   -0.1432   27.0768 H   0  0  0  0  0  0  0  0  0  0  0  0
    6.9499   -0.5749   26.5082 C   0  0  0  0  0  0  0  0  0  0  0  0
    6.6242   -1.4911   27.9238 Cl  0  0  0  0  0  0  0  0  0  0  0  0
    5.9372   -0.4015   25.5573 C   0  0  0  0  0  0  0  0  0  0  0  0
    4.3667   -1.1043   25.7728 Cl  0  0  0  0  0  0  0  0  0  0  0  0
    6.1958    0.3578   24.4174 C   0  0  0  0  0  0  0  0  0  0  0  0
    5.3854    0.4777   23.7070 H   0  0  0  0  0  0  0  0  0  0  0  0
    5.4250    0.6528   20.1420 C   0  0  0  0  0  0  0  0  0  0  0  0
    4.9922    0.6366   21.1455 H   0  0  0  0  0  0  0  0  0  0  0  0
    4.7936    1.3222   19.0906 C   0  0  0  0  0  0  0  0  0  0  0  0
    3.8637    1.8524   19.2440 H   0  0  0  0  0  0  0  0  0  0  0  0
  1  2  1  0
  2  3  2  0
  3  4  1  0
  4  5  1  0
  4  6  2  0
  6  7  1  0
  7  8  1  0
  7  9  1  0
  7 10  1  0
 10 11  2  0
 11 12  1  0
 12 13  2  0
 13 14  1  0
 14 15  1  0
 15 16  1  0
 15 17  1  0
 15 18  1  0
 18 19  2  0
 19 20  1  0
 19 21  1  0
 21 22  1  0
 21 23  2  0
 23 24  1  0
 23 25  1  0
 25 26  1  0
 25 27  2  0
 27 28  1  0
  6 29  1  0
 29 30  1  0
 29 31  2  0
 31 32  1  0
 31  2  1  0
 14 10  1  0
 27 18  1  0
M  END
>  <cnnaffinity>  (1) 
-5.35011

>  <filename>  (1) 
Clc1ccc(Cn2nnnc2Cc2cccnc2)cc1Cl

$$$$
