
     RDKit          3D

 38 40  0  0  0  0  0  0  0  0999 V2000
    4.9078    1.7880   16.9868 H   0  0  0  0  0  0  0  0  0  0  0  0
    5.3935    1.3012   17.8267 C   0  0  0  0  0  0  0  0  0  0  0  0
    6.5583    0.6874   17.5572 N   0  0  0  0  0  0  0  0  0  0  0  0
    7.1723    0.0824   18.5781 C   0  0  0  0  0  0  0  0  0  0  0  0
    8.1139   -0.4232   18.3703 H   0  0  0  0  0  0  0  0  0  0  0  0
    6.6636    0.0114   19.8976 C   0  0  0  0  0  0  0  0  0  0  0  0
    7.3620   -0.7145   20.8742 N   0  0  0  0  0  0  0  0  0  0  0  0
    6.6415   -1.5385   21.8405 C   0  0  0  0  0  0  0  0  0  0  0  0
    5.7439   -1.9308   21.3493 H   0  0  0  0  0  0  0  0  0  0  0  0
    6.2934   -0.9767   22.7295 H   0  0  0  0  0  0  0  0  0  0  0  0
    7.5376   -2.7138   22.2819 C   0  0  0  0  0  0  0  0  0  0  0  0
    7.6616   -3.3910   21.4293 H   0  0  0  0  0  0  0  0  0  0  0  0
    7.0347   -3.2843   23.0656 H   0  0  0  0  0  0  0  0  0  0  0  0
    8.8806   -2.3120   22.7458 N   0  0  0  0  0  0  0  0  0  0  0  0
    8.8471   -1.6540   24.0609 C   0  0  0  0  0  0  0  0  0  0  0  0
    8.1045   -0.8390   24.1173 H   0  0  0  0  0  0  0  0  0  0  0  0
    9.8225   -1.1818   24.2289 H   0  0  0  0  0  0  0  0  0  0  0  0
    8.5854   -2.6475   25.1625 C   0  0  0  0  0  0  0  0  0  0  0  0
    7.3814   -2.6595   25.8762 C   0  0  0  0  0  0  0  0  0  0  0  0
    6.6157   -1.9241   25.6459 H   0  0  0  0  0  0  0  0  0  0  0  0
    7.1449   -3.6115   26.8653 C   0  0  0  0  0  0  0  0  0  0  0  0
    6.2123   -3.6210   27.4159 H   0  0  0  0  0  0  0  0  0  0  0  0
    8.1177   -4.5720   27.1538 C   0  0  0  0  0  0  0  0  0  0  0  0
    7.7964   -5.7417   28.3879 Cl  0  0  0  0  0  0  0  0  0  0  0  0
    9.3224   -4.5647   26.4351 C   0  0  0  0  0  0  0  0  0  0  0  0
   10.5627   -5.7173   26.7205 Cl  0  0  0  0  0  0  0  0  0  0  0  0
    9.5548   -3.6134   25.4452 C   0  0  0  0  0  0  0  0  0  0  0  0
   10.4939   -3.6459   24.8972 H   0  0  0  0  0  0  0  0  0  0  0  0
    9.5269   -1.4870   21.7149 C   0  0  0  0  0  0  0  0  0  0  0  0
   10.5121   -1.1693   22.0718 H   0  0  0  0  0  0  0  0  0  0  0  0
    9.6981   -2.1156   20.8328 H   0  0  0  0  0  0  0  0  0  0  0  0
    8.6923   -0.2678   21.2963 C   0  0  0  0  0  0  0  0  0  0  0  0
    9.1759    0.2449   20.4604 H   0  0  0  0  0  0  0  0  0  0  0  0
    8.6571    0.4649   22.1247 H   0  0  0  0  0  0  0  0  0  0  0  0
    5.4359    0.6485   20.1544 C   0  0  0  0  0  0  0  0  0  0  0  0
    5.0209    0.6179   21.1665 H   0  0  0  0  0  0  0  0  0  0  0  0
    4.8050    1.3143   19.0996 C   0  0  0  0  0  0  0  0  0  0  0  0
    3.8704    1.8441   19.2580 H   0  0  0  0  0  0  0  0  0  0  0  0
  1  2  1  0
  2  3  2  0
  3  4  1  0
  4  5  1  0
  4  6  2  0
  6  7  1  0
  7  8  1  0
  8  9  1  0
  8 10  1  0
  8 11  1  0
 11 12  1  0
 11 13  1  0
 11 14  1  0
 14 15  1  0
 15 16  1  0
 15 17  1  0
 15 18  1  0
 18 19  2  0
 19 20  1  0
 19 21  1  0
 21 22  1  0
 21 23  2  0
 23 24  1  0
 23 25  1  0
 25 26  1  0
 25 27  2  0
 27 28  1  0
 14 29  1  0
 29 30  1  0
 29 31  1  0
 29 32  1  0
 32 33  1  0
 32 34  1  0
  6 35  1  0
 35 36  1  0
 35 37  2  0
 37 38  1  0
 37  2  1  0
 32  7  1  0
 27 18  1  0
M  END
>  <cnnaffinity>  (1) 
-4.83677

>  <filename>  (1) 
Clc1ccc(CN2CCN(c3cccnc3)CC2)cc1Cl

$$$$
