
     RDKit          3D

 34 36  0  0  0  0  0  0  0  0999 V2000
    4.9206    1.7785   16.9989 H   0  0  0  0  0  0  0  0  0  0  0  0
    5.4039    1.2937   17.8410 C   0  0  0  0  0  0  0  0  0  0  0  0
    6.5691    0.6770   17.5806 N   0  0  0  0  0  0  0  0  0  0  0  0
    7.1654    0.0514   18.5979 C   0  0  0  0  0  0  0  0  0  0  0  0
    8.1124   -0.4358   18.3773 H   0  0  0  0  0  0  0  0  0  0  0  0
    6.6498    0.0187   19.9006 C   0  0  0  0  0  0  0  0  0  0  0  0
    7.3991   -0.7251   20.9125 C   0  0  0  0  0  0  0  0  0  0  0  0
    7.8668   -1.9399   20.7436 N   0  0  0  0  0  0  0  0  0  0  0  0
    8.4586   -2.2721   21.9322 C   0  0  0  0  0  0  0  0  0  0  0  0
    8.9403   -3.2279   22.0776 H   0  0  0  0  0  0  0  0  0  0  0  0
    8.3778   -1.2363   22.8186 C   0  0  0  0  0  0  0  0  0  0  0  0
    8.7492   -1.1193   23.8263 H   0  0  0  0  0  0  0  0  0  0  0  0
    7.6964   -0.2346   22.1571 N   0  0  0  0  0  0  0  0  0  0  0  0
    7.4251    1.0840   22.7182 C   0  0  0  0  0  0  0  0  0  0  0  0
    8.3589    1.4828   23.1222 H   0  0  0  0  0  0  0  0  0  0  0  0
    7.1318    1.7687   21.9212 H   0  0  0  0  0  0  0  0  0  0  0  0
    6.3640    1.0564   23.8226 C   0  0  0  0  0  0  0  0  0  0  0  0
    6.7457    0.4652   24.6621 H   0  0  0  0  0  0  0  0  0  0  0  0
    5.4807    0.5297   23.4552 H   0  0  0  0  0  0  0  0  0  0  0  0
    5.9831    2.4403   24.2773 C   0  0  0  0  0  0  0  0  0  0  0  0
    6.6801    3.0685   25.3169 C   0  0  0  0  0  0  0  0  0  0  0  0
    7.4776    2.5328   25.8246 H   0  0  0  0  0  0  0  0  0  0  0  0
    6.3660    4.3695   25.7023 C   0  0  0  0  0  0  0  0  0  0  0  0
    6.8997    4.8486   26.5154 H   0  0  0  0  0  0  0  0  0  0  0  0
    5.3503    5.0696   25.0432 C   0  0  0  0  0  0  0  0  0  0  0  0
    4.9859    6.6791   25.5603 Cl  0  0  0  0  0  0  0  0  0  0  0  0
    4.6578    4.4596   23.9851 C   0  0  0  0  0  0  0  0  0  0  0  0
    3.3996    5.2840   23.1295 Cl  0  0  0  0  0  0  0  0  0  0  0  0
    4.9827    3.1541   23.6074 C   0  0  0  0  0  0  0  0  0  0  0  0
    4.4470    2.7049   22.7749 H   0  0  0  0  0  0  0  0  0  0  0  0
    5.4320    0.6649   20.1573 C   0  0  0  0  0  0  0  0  0  0  0  0
    4.9906    0.6352   21.1592 H   0  0  0  0  0  0  0  0  0  0  0  0
    4.7971    1.3142   19.1041 C   0  0  0  0  0  0  0  0  0  0  0  0
    3.8654    1.8485   19.2597 H   0  0  0  0  0  0  0  0  0  0  0  0
  1  2  1  0
  2  3  2  0
  3  4  1  0
  4  5  1  0
  4  6  2  0
  6  7  1  0
  7  8  2  0
  8  9  1  0
  9 10  1  0
  9 11  2  0
 11 12  1  0
 11 13  1  0
 13 14  1  0
 14 15  1  0
 14 16  1  0
 14 17  1  0
 17 18  1  0
 17 19  1  0
 17 20  1  0
 20 21  2  0
 21 22  1  0
 21 23  1  0
 23 24  1  0
 23 25  2  0
 25 26  1  0
 25 27  1  0
 27 28  1  0
 27 29  2  0
 29 30  1  0
  6 31  1  0
 31 32  1  0
 31 33  2  0
 33 34  1  0
 33  2  1  0
 13  7  1  0
 29 20  1  0
M  END
>  <cnnaffinity>  (1) 
-5.22206

>  <filename>  (1) 
Clc1ccc(CCn2ccnc2-c2cccnc2)cc1Cl

$$$$
