
     RDKit          3D

 37 39  0  0  0  0  0  0  0  0999 V2000
    5.1269    1.7980   16.9321 H   0  0  0  0  0  0  0  0  0  0  0  0
    5.5502    1.2927   17.7982 C   0  0  0  0  0  0  0  0  0  0  0  0
    6.7001    0.6380   17.5964 N   0  0  0  0  0  0  0  0  0  0  0  0
    7.2378    0.0058   18.6521 C   0  0  0  0  0  0  0  0  0  0  0  0
    8.1847   -0.4847   18.4366 H   0  0  0  0  0  0  0  0  0  0  0  0
    6.6910   -0.0188   19.9543 C   0  0  0  0  0  0  0  0  0  0  0  0
    7.3484   -0.7537   21.1541 C   0  0  0  0  0  0  0  0  0  0  0  0
    6.5550   -2.0659   21.4605 C   0  0  0  0  0  0  0  0  0  0  0  0
    6.1756   -2.4733   22.7541 C   0  0  0  0  0  0  0  0  0  0  0  0
    6.2866   -1.8052   23.6054 H   0  0  0  0  0  0  0  0  0  0  0  0
    5.6076   -3.7329   22.9822 C   0  0  0  0  0  0  0  0  0  0  0  0
    5.3067   -4.0073   23.9895 H   0  0  0  0  0  0  0  0  0  0  0  0
    5.4057   -4.6392   21.9381 C   0  0  0  0  0  0  0  0  0  0  0  0
    4.9364   -5.6095   22.1033 H   0  0  0  0  0  0  0  0  0  0  0  0
    5.7822   -4.2431   20.6568 C   0  0  0  0  0  0  0  0  0  0  0  0
    5.6365   -5.3520   19.3255 Cl  0  0  0  0  0  0  0  0  0  0  0  0
    6.3054   -2.9745   20.4091 C   0  0  0  0  0  0  0  0  0  0  0  0
    6.4920   -2.6986   19.3756 H   0  0  0  0  0  0  0  0  0  0  0  0
    7.4304    0.1962   22.4020 C   0  0  0  0  0  0  0  0  0  0  0  0
    7.8129   -0.3956   23.2476 H   0  0  0  0  0  0  0  0  0  0  0  0
    6.4262    0.5429   22.6739 H   0  0  0  0  0  0  0  0  0  0  0  0
    8.3847    1.3911   22.2236 C   0  0  0  0  0  0  0  0  0  0  0  0
    8.0435    2.0231   21.3892 H   0  0  0  0  0  0  0  0  0  0  0  0
    8.3608    2.0259   23.1174 H   0  0  0  0  0  0  0  0  0  0  0  0
    9.8154    0.9009   21.9640 C   0  0  0  0  0  0  0  0  0  0  0  0
   10.5081    1.7407   21.8167 H   0  0  0  0  0  0  0  0  0  0  0  0
   10.1878    0.3618   22.8500 H   0  0  0  0  0  0  0  0  0  0  0  0
    9.8337   -0.0280   20.7476 C   0  0  0  0  0  0  0  0  0  0  0  0
   10.8357   -0.4525   20.6143 H   0  0  0  0  0  0  0  0  0  0  0  0
    9.5991    0.5631   19.8511 H   0  0  0  0  0  0  0  0  0  0  0  0
    8.8258   -1.1794   20.8625 C   0  0  0  0  0  0  0  0  0  0  0  0
    9.1383   -1.8520   21.6713 H   0  0  0  0  0  0  0  0  0  0  0  0
    8.8585   -1.7875   19.9556 H   0  0  0  0  0  0  0  0  0  0  0  0
    5.4680    0.6537   20.1205 C   0  0  0  0  0  0  0  0  0  0  0  0
    4.9718    0.6693   21.0936 H   0  0  0  0  0  0  0  0  0  0  0  0
    4.8962    1.3233   19.0344 C   0  0  0  0  0  0  0  0  0  0  0  0
    3.9623    1.8659   19.1353 H   0  0  0  0  0  0  0  0  0  0  0  0
  1  2  1  0
  2  3  2  0
  3  4  1  0
  4  5  1  0
  4  6  2  0
  6  7  1  0
  7  8  1  0
  8  9  2  0
  9 10  1  0
  9 11  1  0
 11 12  1  0
 11 13  2  0
 13 14  1  0
 13 15  1  0
 15 16  1  0
 15 17  2  0
 17 18  1  0
  7 19  1  0
 19 20  1  0
 19 21  1  0
 19 22  1  0
 22 23  1  0
 22 24  1  0
 22 25  1  0
 25 26  1  0
 25 27  1  0
 25 28  1  0
 28 29  1  0
 28 30  1  0
 28 31  1  0
 31 32  1  0
 31 33  1  0
  6 34  1  0
 34 35  1  0
 34 36  2  0
 36 37  1  0
 36  2  1  0
 31  7  1  0
 17  8  1  0
M  END
>  <cnnaffinity>  (1) 
-4.3024

>  <filename>  (1) 
Clc1cccc(C2(c3cccnc3)CCCCC2)c1

$$$$
