
     RDKit          3D

 28 29  0  0  0  0  0  0  0  0999 V2000
    6.9423   -0.3327   22.0431 H   0  0  0  0  0  0  0  0  0  0  0  0
    7.2843   -0.6370   21.0490 C   0  0  0  0  0  0  0  0  0  0  0  0
    8.2108   -1.5901   20.9108 C   0  0  0  0  0  0  0  0  0  0  0  0
    8.6137   -1.7908   19.9193 H   0  0  0  0  0  0  0  0  0  0  0  0
    8.8710   -2.3309   22.0525 C   0  0  0  0  0  0  0  0  0  0  0  0
    9.2878   -3.2674   21.6771 H   0  0  0  0  0  0  0  0  0  0  0  0
    8.1421   -2.6360   22.8170 H   0  0  0  0  0  0  0  0  0  0  0  0
    9.9482   -1.4656   22.6730 C   0  0  0  0  0  0  0  0  0  0  0  0
    9.6376   -0.6720   23.7826 C   0  0  0  0  0  0  0  0  0  0  0  0
    8.6504   -0.7520   24.2340 H   0  0  0  0  0  0  0  0  0  0  0  0
   10.5882    0.2040   24.3115 C   0  0  0  0  0  0  0  0  0  0  0  0
   10.3288    0.8167   25.1686 H   0  0  0  0  0  0  0  0  0  0  0  0
   11.8656    0.2788   23.7491 C   0  0  0  0  0  0  0  0  0  0  0  0
   12.6055    0.9725   24.1337 H   0  0  0  0  0  0  0  0  0  0  0  0
   12.1843   -0.5435   22.6636 C   0  0  0  0  0  0  0  0  0  0  0  0
   13.8139   -0.5496   22.0377 Cl  0  0  0  0  0  0  0  0  0  0  0  0
   11.2232   -1.3810   22.0957 C   0  0  0  0  0  0  0  0  0  0  0  0
   11.4690   -1.9294   21.1878 H   0  0  0  0  0  0  0  0  0  0  0  0
    6.6145    0.0498   19.9266 C   0  0  0  0  0  0  0  0  0  0  0  0
    7.1367    0.0629   18.6172 C   0  0  0  0  0  0  0  0  0  0  0  0
    8.0895   -0.4214   18.3912 H   0  0  0  0  0  0  0  0  0  0  0  0
    6.5500    0.6729   17.5838 N   0  0  0  0  0  0  0  0  0  0  0  0
    5.3902    1.3095   17.8174 C   0  0  0  0  0  0  0  0  0  0  0  0
    4.9422    1.8064   16.9637 H   0  0  0  0  0  0  0  0  0  0  0  0
    4.7654    1.3534   19.0662 C   0  0  0  0  0  0  0  0  0  0  0  0
    3.8233    1.8846   19.1861 H   0  0  0  0  0  0  0  0  0  0  0  0
    5.3943    0.7209   20.1391 C   0  0  0  0  0  0  0  0  0  0  0  0
    4.9518    0.7412   21.1348 H   0  0  0  0  0  0  0  0  0  0  0  0
  1  2  1  0
  2  3  2  3
  3  4  1  0
  3  5  1  0
  5  6  1  0
  5  7  1  0
  5  8  1  0
  8  9  2  0
  9 10  1  0
  9 11  1  0
 11 12  1  0
 11 13  2  0
 13 14  1  0
 13 15  1  0
 15 16  1  0
 15 17  2  0
 17 18  1  0
  2 19  1  0
 19 20  2  0
 20 21  1  0
 20 22  1  0
 22 23  2  0
 23 24  1  0
 23 25  1  0
 25 26  1  0
 25 27  2  0
 27 28  1  0
 17  8  1  0
 27 19  1  0
M  END
>  <cnnaffinity>  (1) 
-4.85363

>  <filename>  (1) 
Clc1cccc(CC=Cc2cccnc2)c1

$$$$
