
     RDKit          3D

 37 40  0  0  0  0  0  0  0  0999 V2000
    4.9978    1.7904   16.9339 H   0  0  0  0  0  0  0  0  0  0  0  0
    5.4581    1.2884   17.7824 C   0  0  0  0  0  0  0  0  0  0  0  0
    6.6391    0.6944   17.5485 N   0  0  0  0  0  0  0  0  0  0  0  0
    7.2341    0.0702   18.5720 C   0  0  0  0  0  0  0  0  0  0  0  0
    8.2002   -0.3798   18.3537 H   0  0  0  0  0  0  0  0  0  0  0  0
    6.6719   -0.0277   19.8570 C   0  0  0  0  0  0  0  0  0  0  0  0
    7.3692   -0.7273   20.9487 C   0  0  0  0  0  0  0  0  0  0  0  0
    8.6082   -0.3773   21.2971 N   0  0  0  0  0  0  0  0  0  0  0  0
    8.8269   -1.0777   22.4141 N   0  0  0  0  0  0  0  0  0  0  0  0
    7.8233   -1.8655   22.8035 C   0  0  0  0  0  0  0  0  0  0  0  0
    6.8323   -1.7153   21.8541 C   0  0  0  0  0  0  0  0  0  0  0  0
    5.5984   -2.4076   21.7924 N   0  0  0  0  0  0  0  0  0  0  0  0
    4.8128   -1.8032   22.0016 H   0  0  0  0  0  0  0  0  0  0  0  0
    5.4161   -3.6362   22.4623 C   0  0  0  0  0  0  0  0  0  0  0  0
    6.2077   -4.7693   22.2057 C   0  0  0  0  0  0  0  0  0  0  0  0
    7.0997   -4.6684   21.5957 H   0  0  0  0  0  0  0  0  0  0  0  0
    5.8602   -6.0127   22.7492 C   0  0  0  0  0  0  0  0  0  0  0  0
    6.4930   -6.8824   22.5952 H   0  0  0  0  0  0  0  0  0  0  0  0
    4.7208   -6.1208   23.5488 C   0  0  0  0  0  0  0  0  0  0  0  0
    4.2429   -7.6814   24.1534 Cl  0  0  0  0  0  0  0  0  0  0  0  0
    3.9763   -4.9872   23.8871 C   0  0  0  0  0  0  0  0  0  0  0  0
    3.1198   -5.0765   24.5488 H   0  0  0  0  0  0  0  0  0  0  0  0
    4.3395   -3.7513   23.3540 C   0  0  0  0  0  0  0  0  0  0  0  0
    3.7509   -2.8827   23.6299 H   0  0  0  0  0  0  0  0  0  0  0  0
    8.1384   -2.5237   24.1157 C   0  0  0  0  0  0  0  0  0  0  0  0
    8.1823   -3.6091   23.9995 H   0  0  0  0  0  0  0  0  0  0  0  0
    7.3693   -2.3119   24.8630 H   0  0  0  0  0  0  0  0  0  0  0  0
    9.5209   -1.9159   24.4872 C   0  0  0  0  0  0  0  0  0  0  0  0
    9.4568   -1.3394   25.4094 H   0  0  0  0  0  0  0  0  0  0  0  0
   10.2595   -2.7031   24.6351 H   0  0  0  0  0  0  0  0  0  0  0  0
    9.9487   -0.9839   23.3170 C   0  0  0  0  0  0  0  0  0  0  0  0
   10.0755    0.0570   23.6288 H   0  0  0  0  0  0  0  0  0  0  0  0
   10.8584   -1.3214   22.8165 H   0  0  0  0  0  0  0  0  0  0  0  0
    5.4419    0.6128   20.0871 C   0  0  0  0  0  0  0  0  0  0  0  0
    5.0051    0.6123   21.0871 H   0  0  0  0  0  0  0  0  0  0  0  0
    4.8274    1.2838   19.0317 C   0  0  0  0  0  0  0  0  0  0  0  0
    3.8940    1.8183   19.1662 H   0  0  0  0  0  0  0  0  0  0  0  0
  1  2  1  0
  2  3  2  0
  3  4  1  0
  4  5  1  0
  4  6  2  0
  6  7  1  0
  7  8  2  0
  8  9  1  0
  9 10  1  0
 10 11  2  0
 11 12  1  0
 12 13  1  0
 12 14  1  0
 14 15  2  0
 15 16  1  0
 15 17  1  0
 17 18  1  0
 17 19  2  0
 19 20  1  0
 19 21  1  0
 21 22  1  0
 21 23  2  0
 23 24  1  0
 10 25  1  0
 25 26  1  0
 25 27  1  0
 25 28  1  0
 28 29  1  0
 28 30  1  0
 28 31  1  0
 31 32  1  0
 31 33  1  0
  6 34  1  0
 34 35  1  0
 34 36  2  0
 36 37  1  0
 36  2  1  0
 11  7  1  0
 23 14  1  0
 31  9  1  0
M  END
>  <cnnaffinity>  (1) 
-5.90619

>  <filename>  (1) 
Clc1ccc(Nc2c(-c3cccnc3)nn3c2CCC3)cc1

$$$$
