
     RDKit          3D

 28 30  0  0  0  0  0  0  0  0999 V2000
    5.1021    1.7734   16.9528 H   0  0  0  0  0  0  0  0  0  0  0  0
    5.5193    1.2514   17.8122 C   0  0  0  0  0  0  0  0  0  0  0  0
    6.6701    0.5933   17.6046 N   0  0  0  0  0  0  0  0  0  0  0  0
    7.2162   -0.0403   18.6454 C   0  0  0  0  0  0  0  0  0  0  0  0
    8.1461   -0.5754   18.4726 H   0  0  0  0  0  0  0  0  0  0  0  0
    6.6593   -0.0404   19.9300 C   0  0  0  0  0  0  0  0  0  0  0  0
    7.3981   -0.7013   20.9951 C   0  0  0  0  0  0  0  0  0  0  0  0
    8.4260   -1.5165   20.8609 N   0  0  0  0  0  0  0  0  0  0  0  0
    8.7011   -1.8449   22.1361 C   0  0  0  0  0  0  0  0  0  0  0  0
    9.6786   -2.7215   22.3864 O   0  0  0  0  0  0  0  0  0  0  0  0
    9.7246   -3.4130   23.5854 C   0  0  0  0  0  0  0  0  0  0  0  0
   11.0034   -3.8339   23.9554 C   0  0  0  0  0  0  0  0  0  0  0  0
   11.8544   -3.5366   23.3526 H   0  0  0  0  0  0  0  0  0  0  0  0
   11.1482   -4.6858   25.0465 C   0  0  0  0  0  0  0  0  0  0  0  0
   12.1299   -5.0810   25.2848 H   0  0  0  0  0  0  0  0  0  0  0  0
   10.0438   -5.0584   25.8154 C   0  0  0  0  0  0  0  0  0  0  0  0
   10.1534   -5.7175   26.6686 H   0  0  0  0  0  0  0  0  0  0  0  0
    8.7907   -4.5502   25.4772 C   0  0  0  0  0  0  0  0  0  0  0  0
    7.4388   -4.8501   26.5293 Cl  0  0  0  0  0  0  0  0  0  0  0  0
    8.5992   -3.7480   24.3540 C   0  0  0  0  0  0  0  0  0  0  0  0
    7.6030   -3.3828   24.1289 H   0  0  0  0  0  0  0  0  0  0  0  0
    7.9638   -1.2603   23.0659 N   0  0  0  0  0  0  0  0  0  0  0  0
    7.1081   -0.5425   22.2973 N   0  0  0  0  0  0  0  0  0  0  0  0
    6.4096    0.0532   22.7094 H   0  0  0  0  0  0  0  0  0  0  0  0
    5.4423    0.6226   20.1305 C   0  0  0  0  0  0  0  0  0  0  0  0
    4.9575    0.6239   21.1096 H   0  0  0  0  0  0  0  0  0  0  0  0
    4.8653    1.2787   19.0505 C   0  0  0  0  0  0  0  0  0  0  0  0
    3.9362    1.8238   19.1577 H   0  0  0  0  0  0  0  0  0  0  0  0
  1  2  1  0
  2  3  2  0
  3  4  1  0
  4  5  1  0
  4  6  2  0
  6  7  1  0
  7  8  2  0
  8  9  1  0
  9 10  1  0
 10 11  1  0
 11 12  2  0
 12 13  1  0
 12 14  1  0
 14 15  1  0
 14 16  2  0
 16 17  1  0
 16 18  1  0
 18 19  1  0
 18 20  2  0
 20 21  1  0
  9 22  2  0
 22 23  1  0
 23 24  1  0
  6 25  1  0
 25 26  1  0
 25 27  2  0
 27 28  1  0
 27  2  1  0
 23  7  1  0
 20 11  1  0
M  END
>  <cnnaffinity>  (1) 
-5.27434

>  <filename>  (1) 
Clc1cccc(Oc2n[nH]c(-c3cccnc3)n2)c1

$$$$
