
     RDKit          3D

 29 31  0  0  0  0  0  0  0  0999 V2000
    4.9158    1.7768   17.0016 H   0  0  0  0  0  0  0  0  0  0  0  0
    5.4056    1.2914   17.8429 C   0  0  0  0  0  0  0  0  0  0  0  0
    6.5712    0.6782   17.5789 N   0  0  0  0  0  0  0  0  0  0  0  0
    7.1702    0.0495   18.5947 C   0  0  0  0  0  0  0  0  0  0  0  0
    8.1194   -0.4362   18.3795 H   0  0  0  0  0  0  0  0  0  0  0  0
    6.6477    0.0058   19.8947 C   0  0  0  0  0  0  0  0  0  0  0  0
    7.3859   -0.6886   20.9559 C   0  0  0  0  0  0  0  0  0  0  0  0
    7.6049   -2.0357   20.8665 N   0  0  0  0  0  0  0  0  0  0  0  0
    8.2363   -2.5342   21.8526 N   0  0  0  0  0  0  0  0  0  0  0  0
    8.6515   -1.3426   22.9868 S   0  0  0  0  0  0  0  0  0  0  0  0
    7.9365   -0.0969   22.0697 C   0  0  0  0  0  0  0  0  0  0  0  0
    7.9334    1.3594   22.4494 C   0  0  0  0  0  0  0  0  0  0  0  0
    8.8179    1.5788   23.0582 H   0  0  0  0  0  0  0  0  0  0  0  0
    8.0278    1.9656   21.5396 H   0  0  0  0  0  0  0  0  0  0  0  0
    6.6915    1.7992   23.2150 C   0  0  0  0  0  0  0  0  0  0  0  0
    5.8462    2.8039   22.7181 C   0  0  0  0  0  0  0  0  0  0  0  0
    6.0692    3.2638   21.7572 H   0  0  0  0  0  0  0  0  0  0  0  0
    4.7013    3.1836   23.4271 C   0  0  0  0  0  0  0  0  0  0  0  0
    4.0544    3.9568   23.0247 H   0  0  0  0  0  0  0  0  0  0  0  0
    4.3959    2.5823   24.6511 C   0  0  0  0  0  0  0  0  0  0  0  0
    3.5164    2.8766   25.2138 H   0  0  0  0  0  0  0  0  0  0  0  0
    5.2513    1.5973   25.1486 C   0  0  0  0  0  0  0  0  0  0  0  0
    4.8886    0.8508   26.6769 Cl  0  0  0  0  0  0  0  0  0  0  0  0
    6.3903    1.2026   24.4486 C   0  0  0  0  0  0  0  0  0  0  0  0
    7.0363    0.4393   24.8733 H   0  0  0  0  0  0  0  0  0  0  0  0
    5.4376    0.6564   20.1565 C   0  0  0  0  0  0  0  0  0  0  0  0
    5.0075    0.6306   21.1615 H   0  0  0  0  0  0  0  0  0  0  0  0
    4.8014    1.3135   19.1063 C   0  0  0  0  0  0  0  0  0  0  0  0
    3.8682    1.8464   19.2601 H   0  0  0  0  0  0  0  0  0  0  0  0
  1  2  1  0
  2  3  2  0
  3  4  1  0
  4  5  1  0
  4  6  2  0
  6  7  1  0
  7  8  1  0
  8  9  2  0
  9 10  1  0
 10 11  1  0
 11 12  1  0
 12 13  1  0
 12 14  1  0
 12 15  1  0
 15 16  2  0
 16 17  1  0
 16 18  1  0
 18 19  1  0
 18 20  2  0
 20 21  1  0
 20 22  1  0
 22 23  1  0
 22 24  2  0
 24 25  1  0
  6 26  1  0
 26 27  1  0
 26 28  2  0
 28 29  1  0
 28  2  1  0
 11  7  2  0
 24 15  1  0
M  END
>  <cnnaffinity>  (1) 
-5.18193

>  <filename>  (1) 
Clc1cccc(Cc2snnc2-c2cccnc2)c1

$$$$
