
     RDKit          3D

 31 33  0  0  0  0  0  0  0  0999 V2000
    4.9204    1.8154   16.9757 H   0  0  0  0  0  0  0  0  0  0  0  0
    5.3880    1.3070   17.8172 C   0  0  0  0  0  0  0  0  0  0  0  0
    6.5467    0.6820   17.5549 N   0  0  0  0  0  0  0  0  0  0  0  0
    7.1586    0.0646   18.5715 C   0  0  0  0  0  0  0  0  0  0  0  0
    8.1002   -0.4292   18.3305 H   0  0  0  0  0  0  0  0  0  0  0  0
    6.6600    0.0110   19.8858 C   0  0  0  0  0  0  0  0  0  0  0  0
    7.3631   -0.7264   20.9720 C   0  0  0  0  0  0  0  0  0  0  0  0
    8.7604   -0.6345   21.2178 C   0  0  0  0  0  0  0  0  0  0  0  0
    9.4212   -0.0235   20.6094 H   0  0  0  0  0  0  0  0  0  0  0  0
    9.3482   -1.2605   22.2350 N   0  0  0  0  0  0  0  0  0  0  0  0
    8.6365   -2.0277   23.0749 N   0  0  0  0  0  0  0  0  0  0  0  0
    7.3236   -2.1958   22.8625 C   0  0  0  0  0  0  0  0  0  0  0  0
    6.6825   -2.9761   23.7894 N   0  0  0  0  0  0  0  0  0  0  0  0
    7.2600   -3.1002   24.6074 H   0  0  0  0  0  0  0  0  0  0  0  0
    5.5454   -3.7543   23.5656 C   0  0  0  0  0  0  0  0  0  0  0  0
    5.3034   -4.3439   22.3129 C   0  0  0  0  0  0  0  0  0  0  0  0
    6.0073   -4.1716   21.5054 H   0  0  0  0  0  0  0  0  0  0  0  0
    4.1899   -5.1627   22.1252 C   0  0  0  0  0  0  0  0  0  0  0  0
    4.0641   -5.7307   21.2122 H   0  0  0  0  0  0  0  0  0  0  0  0
    3.2526   -5.2941   23.1517 C   0  0  0  0  0  0  0  0  0  0  0  0
    1.7911   -6.1876   22.8459 Cl  0  0  0  0  0  0  0  0  0  0  0  0
    3.4806   -4.7183   24.4079 C   0  0  0  0  0  0  0  0  0  0  0  0
    2.7723   -4.8841   25.2162 H   0  0  0  0  0  0  0  0  0  0  0  0
    4.6470   -3.9715   24.6156 C   0  0  0  0  0  0  0  0  0  0  0  0
    4.9011   -3.5537   25.5881 H   0  0  0  0  0  0  0  0  0  0  0  0
    6.6453   -1.5547   21.8259 C   0  0  0  0  0  0  0  0  0  0  0  0
    5.5761   -1.7041   21.7377 H   0  0  0  0  0  0  0  0  0  0  0  0
    5.4370    0.6604   20.1286 C   0  0  0  0  0  0  0  0  0  0  0  0
    5.0149    0.6510   21.1352 H   0  0  0  0  0  0  0  0  0  0  0  0
    4.7927    1.3244   19.0834 C   0  0  0  0  0  0  0  0  0  0  0  0
    3.8573    1.8590   19.2315 H   0  0  0  0  0  0  0  0  0  0  0  0
  1  2  1  0
  2  3  2  0
  3  4  1  0
  4  5  1  0
  4  6  2  0
  6  7  1  0
  7  8  2  0
  8  9  1  0
  8 10  1  0
 10 11  2  0
 11 12  1  0
 12 13  1  0
 13 14  1  0
 13 15  1  0
 15 16  2  0
 16 17  1  0
 16 18  1  0
 18 19  1  0
 18 20  2  0
 20 21  1  0
 20 22  1  0
 22 23  1  0
 22 24  2  0
 24 25  1  0
 12 26  2  0
 26 27  1  0
  6 28  1  0
 28 29  1  0
 28 30  2  0
 30 31  1  0
 30  2  1  0
 26  7  1  0
 24 15  1  0
M  END
>  <cnnaffinity>  (1) 
-5.21017

>  <filename>  (1) 
Clc1ccc(Nc2cc(-c3cccnc3)cnn2)cc1

$$$$
