
     RDKit          3D

 32 34  0  0  0  0  0  0  0  0999 V2000
    7.1808    1.7660   22.0752 H   0  0  0  0  0  0  0  0  0  0  0  0
    7.3904    0.9525   22.7698 C   0  0  0  0  0  0  0  0  0  0  0  0
    7.5665   -0.3025   22.3114 C   0  0  0  0  0  0  0  0  0  0  0  0
    7.3742   -0.7729   20.9293 C   0  0  0  0  0  0  0  0  0  0  0  0
    6.6234   -0.0140   19.9037 C   0  0  0  0  0  0  0  0  0  0  0  0
    7.1449    0.0112   18.6011 C   0  0  0  0  0  0  0  0  0  0  0  0
    8.0792   -0.4999   18.3803 H   0  0  0  0  0  0  0  0  0  0  0  0
    6.5717    0.6586   17.5846 N   0  0  0  0  0  0  0  0  0  0  0  0
    5.4211    1.3023   17.8272 C   0  0  0  0  0  0  0  0  0  0  0  0
    4.9755    1.8288   16.9844 H   0  0  0  0  0  0  0  0  0  0  0  0
    4.7953    1.3186   19.0787 C   0  0  0  0  0  0  0  0  0  0  0  0
    3.8619    1.8535   19.2071 H   0  0  0  0  0  0  0  0  0  0  0  0
    5.4160    0.6651   20.1450 C   0  0  0  0  0  0  0  0  0  0  0  0
    4.9831    0.6944   21.1452 H   0  0  0  0  0  0  0  0  0  0  0  0
    7.9403   -1.8957   20.6828 N   0  0  0  0  0  0  0  0  0  0  0  0
    8.5504   -2.4267   21.9050 C   0  0  0  0  0  0  0  0  0  0  0  0
    9.6277   -2.5311   21.7456 H   0  0  0  0  0  0  0  0  0  0  0  0
    8.1585   -3.4319   22.0833 H   0  0  0  0  0  0  0  0  0  0  0  0
    8.2156   -1.4465   23.0591 C   0  0  0  0  0  0  0  0  0  0  0  0
    7.5133   -1.9061   23.7621 H   0  0  0  0  0  0  0  0  0  0  0  0
    9.0866   -1.1041   23.6287 H   0  0  0  0  0  0  0  0  0  0  0  0
    7.5323    1.3405   24.1790 C   0  0  0  0  0  0  0  0  0  0  0  0
    6.9662    0.5435   25.1953 C   0  0  0  0  0  0  0  0  0  0  0  0
    6.4010   -0.3299   24.8983 H   0  0  0  0  0  0  0  0  0  0  0  0
    7.0721    0.8670   26.5437 C   0  0  0  0  0  0  0  0  0  0  0  0
    6.6600    0.2254   27.3178 H   0  0  0  0  0  0  0  0  0  0  0  0
    7.7413    2.0426   26.8926 C   0  0  0  0  0  0  0  0  0  0  0  0
    7.6989    2.5914   28.5395 Cl  0  0  0  0  0  0  0  0  0  0  0  0
    8.3915    2.8239   25.9292 C   0  0  0  0  0  0  0  0  0  0  0  0
    9.0042    3.6728   26.2118 H   0  0  0  0  0  0  0  0  0  0  0  0
    8.2492    2.4828   24.5820 C   0  0  0  0  0  0  0  0  0  0  0  0
    8.9971    3.5134   23.3964 Cl  0  0  0  0  0  0  0  0  0  0  0  0
  1  2  1  0
  2  3  2  3
  3  4  1  0
  4  5  1  0
  5  6  2  0
  6  7  1  0
  6  8  1  0
  8  9  2  0
  9 10  1  0
  9 11  1  0
 11 12  1  0
 11 13  2  0
 13 14  1  0
  4 15  2  0
 15 16  1  0
 16 17  1  0
 16 18  1  0
 16 19  1  0
 19 20  1  0
 19 21  1  0
  2 22  1  0
 22 23  2  0
 23 24  1  0
 23 25  1  0
 25 26  1  0
 25 27  2  0
 27 28  1  0
 27 29  1  0
 29 30  1  0
 29 31  2  0
 31 32  1  0
 19  3  1  0
 31 22  1  0
 13  5  1  0
M  END
>  <cnnaffinity>  (1) 
-5.31968

>  <filename>  (1) 
Clc1ccc(C=C2CCN=C2c2cccnc2)c(Cl)c1

$$$$
