
     RDKit          3D

 38 41  0  0  0  0  0  0  0  0999 V2000
    5.0477    2.0001   17.0319 H   0  0  0  0  0  0  0  0  0  0  0  0
    5.3077    1.2940   17.8188 C   0  0  0  0  0  0  0  0  0  0  0  0
    6.2883    0.4244   17.5388 N   0  0  0  0  0  0  0  0  0  0  0  0
    6.6438   -0.4136   18.5153 C   0  0  0  0  0  0  0  0  0  0  0  0
    7.4476   -1.1070   18.2701 H   0  0  0  0  0  0  0  0  0  0  0  0
    6.0974   -0.4127   19.8126 C   0  0  0  0  0  0  0  0  0  0  0  0
    6.8247   -1.1830   20.8301 C   0  0  0  0  0  0  0  0  0  0  0  0
    6.2631   -1.9779   21.7398 N   0  0  0  0  0  0  0  0  0  0  0  0
    7.3161   -2.4359   22.4301 N   0  0  0  0  0  0  0  0  0  0  0  0
    8.4979   -1.9647   22.0208 C   0  0  0  0  0  0  0  0  0  0  0  0
    8.2399   -1.1155   20.9746 C   0  0  0  0  0  0  0  0  0  0  0  0
    9.1998   -0.1815   20.2825 C   0  0  0  0  0  0  0  0  0  0  0  0
    8.6341    0.6800   19.9051 H   0  0  0  0  0  0  0  0  0  0  0  0
    9.6241   -0.6865   19.4061 H   0  0  0  0  0  0  0  0  0  0  0  0
   10.2987    0.3377   21.1782 C   0  0  0  0  0  0  0  0  0  0  0  0
   11.5329   -0.3172   21.3170 C   0  0  0  0  0  0  0  0  0  0  0  0
   11.7501   -1.2092   20.7355 H   0  0  0  0  0  0  0  0  0  0  0  0
   12.5234    0.1789   22.1690 C   0  0  0  0  0  0  0  0  0  0  0  0
   13.4923   -0.3031   22.2479 H   0  0  0  0  0  0  0  0  0  0  0  0
   12.2827    1.3569   22.8708 C   0  0  0  0  0  0  0  0  0  0  0  0
   13.5102    1.9835   23.9121 Cl  0  0  0  0  0  0  0  0  0  0  0  0
   11.0738    2.0399   22.7423 C   0  0  0  0  0  0  0  0  0  0  0  0
   10.9303    2.9917   23.2402 H   0  0  0  0  0  0  0  0  0  0  0  0
   10.0873    1.5114   21.9081 C   0  0  0  0  0  0  0  0  0  0  0  0
    9.1390    2.0381   21.8186 H   0  0  0  0  0  0  0  0  0  0  0  0
    9.5817   -2.3707   22.9631 C   0  0  0  0  0  0  0  0  0  0  0  0
    9.9686   -1.4714   23.4471 H   0  0  0  0  0  0  0  0  0  0  0  0
   10.4179   -2.8345   22.4384 H   0  0  0  0  0  0  0  0  0  0  0  0
    8.8654   -3.3157   23.9536 C   0  0  0  0  0  0  0  0  0  0  0  0
    9.1998   -4.3423   23.8116 H   0  0  0  0  0  0  0  0  0  0  0  0
    9.0847   -3.0357   24.9831 H   0  0  0  0  0  0  0  0  0  0  0  0
    7.3422   -3.2073   23.6552 C   0  0  0  0  0  0  0  0  0  0  0  0
    6.8706   -4.1786   23.4986 H   0  0  0  0  0  0  0  0  0  0  0  0
    6.7946   -2.6794   24.4409 H   0  0  0  0  0  0  0  0  0  0  0  0
    5.0136    0.4475   20.0616 C   0  0  0  0  0  0  0  0  0  0  0  0
    4.5202    0.4648   21.0353 H   0  0  0  0  0  0  0  0  0  0  0  0
    4.6265    1.3206   19.0414 C   0  0  0  0  0  0  0  0  0  0  0  0
    3.8384    2.0513   19.1936 H   0  0  0  0  0  0  0  0  0  0  0  0
  1  2  1  0
  2  3  2  0
  3  4  1  0
  4  5  1  0
  4  6  2  0
  6  7  1  0
  7  8  2  0
  8  9  1  0
  9 10  1  0
 10 11  2  0
 11 12  1  0
 12 13  1  0
 12 14  1  0
 12 15  1  0
 15 16  2  0
 16 17  1  0
 16 18  1  0
 18 19  1  0
 18 20  2  0
 20 21  1  0
 20 22  1  0
 22 23  1  0
 22 24  2  0
 24 25  1  0
 10 26  1  0
 26 27  1  0
 26 28  1  0
 26 29  1  0
 29 30  1  0
 29 31  1  0
 29 32  1  0
 32 33  1  0
 32 34  1  0
  6 35  1  0
 35 36  1  0
 35 37  2  0
 37 38  1  0
 37  2  1  0
 11  7  1  0
 24 15  1  0
 32  9  1  0
M  END
>  <cnnaffinity>  (1) 
-5.94526

>  <filename>  (1) 
Clc1ccc(Cc2c(-c3cccnc3)nn3c2CCC3)cc1

$$$$
