
     RDKit          3D

 31 33  0  0  0  0  0  0  0  0999 V2000
    4.9264    1.8231   16.9570 H   0  0  0  0  0  0  0  0  0  0  0  0
    5.3812    1.3132   17.8068 C   0  0  0  0  0  0  0  0  0  0  0  0
    6.5375    0.6790   17.5594 N   0  0  0  0  0  0  0  0  0  0  0  0
    7.1309    0.0608   18.5877 C   0  0  0  0  0  0  0  0  0  0  0  0
    8.0833   -0.4190   18.3680 H   0  0  0  0  0  0  0  0  0  0  0  0
    6.6104    0.0021   19.8942 C   0  0  0  0  0  0  0  0  0  0  0  0
    7.3412   -0.7045   20.9669 C   0  0  0  0  0  0  0  0  0  0  0  0
    8.6751   -0.6493   21.3262 C   0  0  0  0  0  0  0  0  0  0  0  0
    9.7777    0.2210   20.7857 C   0  0  0  0  0  0  0  0  0  0  0  0
    9.4082    0.8002   19.9356 H   0  0  0  0  0  0  0  0  0  0  0  0
   10.5683   -0.4442   20.4219 H   0  0  0  0  0  0  0  0  0  0  0  0
   10.3561    1.1517   21.8311 C   0  0  0  0  0  0  0  0  0  0  0  0
   11.5385    0.8108   22.5034 C   0  0  0  0  0  0  0  0  0  0  0  0
   12.0536   -0.1015   22.2033 H   0  0  0  0  0  0  0  0  0  0  0  0
   12.0508    1.6022   23.5348 C   0  0  0  0  0  0  0  0  0  0  0  0
   12.9626    1.2967   24.0440 H   0  0  0  0  0  0  0  0  0  0  0  0
   11.3821    2.7751   23.9048 C   0  0  0  0  0  0  0  0  0  0  0  0
   11.7832    3.4104   24.6908 H   0  0  0  0  0  0  0  0  0  0  0  0
   10.1997    3.1407   23.2516 C   0  0  0  0  0  0  0  0  0  0  0  0
    9.6511    4.0402   23.5177 H   0  0  0  0  0  0  0  0  0  0  0  0
    9.6941    2.3216   22.2364 C   0  0  0  0  0  0  0  0  0  0  0  0
    8.1804    2.7642   21.5008 Cl  0  0  0  0  0  0  0  0  0  0  0  0
    8.7916   -1.5544   22.4080 C   0  0  0  0  0  0  0  0  0  0  0  0
    9.6776   -1.7973   22.9875 H   0  0  0  0  0  0  0  0  0  0  0  0
    7.6301   -2.1200   22.7046 N   0  0  0  0  0  0  0  0  0  0  0  0
    6.7666   -1.5773   21.8332 N   0  0  0  0  0  0  0  0  0  0  0  0
    5.7915   -1.8501   21.8642 H   0  0  0  0  0  0  0  0  0  0  0  0
    5.3946    0.6617   20.1288 C   0  0  0  0  0  0  0  0  0  0  0  0
    4.9704    0.6669   21.1319 H   0  0  0  0  0  0  0  0  0  0  0  0
    4.7768    1.3303   19.0714 C   0  0  0  0  0  0  0  0  0  0  0  0
    3.8479    1.8751   19.2085 H   0  0  0  0  0  0  0  0  0  0  0  0
  1  2  1  0
  2  3  2  0
  3  4  1  0
  4  5  1  0
  4  6  2  0
  6  7  1  0
  7  8  2  0
  8  9  1  0
  9 10  1  0
  9 11  1  0
  9 12  1  0
 12 13  2  0
 13 14  1  0
 13 15  1  0
 15 16  1  0
 15 17  2  0
 17 18  1  0
 17 19  1  0
 19 20  1  0
 19 21  2  0
 21 22  1  0
  8 23  1  0
 23 24  1  0
 23 25  2  0
 25 26  1  0
 26 27  1  0
  6 28  1  0
 28 29  1  0
 28 30  2  0
 30 31  1  0
 30  2  1  0
 26  7  1  0
 21 12  1  0
M  END
>  <cnnaffinity>  (1) 
-5.47263

>  <filename>  (1) 
Clc1ccccc1Cc1cn[nH]c1-c1cccnc1

$$$$
