
     RDKit          3D

 29 31  0  0  0  0  0  0  0  0999 V2000
    5.9412    1.8659   17.0095 H   0  0  0  0  0  0  0  0  0  0  0  0
    6.0973    1.3734   17.9692 C   0  0  0  0  0  0  0  0  0  0  0  0
    7.2401    0.6832   18.1004 N   0  0  0  0  0  0  0  0  0  0  0  0
    7.4545    0.0670   19.2683 C   0  0  0  0  0  0  0  0  0  0  0  0
    8.4074   -0.4600   19.3500 H   0  0  0  0  0  0  0  0  0  0  0  0
    6.5492    0.0843   20.3371 C   0  0  0  0  0  0  0  0  0  0  0  0
    6.8414   -0.7046   21.5514 C   0  0  0  0  0  0  0  0  0  0  0  0
    6.2853   -1.9472   21.7237 N   0  0  0  0  0  0  0  0  0  0  0  0
    6.5876   -2.5086   22.8301 N   0  0  0  0  0  0  0  0  0  0  0  0
    7.5811   -1.5203   23.7736 S   0  0  0  0  0  0  0  0  0  0  0  0
    7.6795   -0.3163   22.5739 C   0  0  0  0  0  0  0  0  0  0  0  0
    8.7005    0.7824   22.5966 C   0  0  0  0  0  0  0  0  0  0  0  0
    8.4079    1.5379   21.8580 H   0  0  0  0  0  0  0  0  0  0  0  0
    8.6832    1.2880   23.5695 H   0  0  0  0  0  0  0  0  0  0  0  0
   10.1214    0.2744   22.3378 C   0  0  0  0  0  0  0  0  0  0  0  0
   10.3971   -0.8511   21.5431 C   0  0  0  0  0  0  0  0  0  0  0  0
    9.5955   -1.3617   21.0049 H   0  0  0  0  0  0  0  0  0  0  0  0
   11.6861   -1.3794   21.4955 C   0  0  0  0  0  0  0  0  0  0  0  0
   11.9029   -2.2580   20.9052 H   0  0  0  0  0  0  0  0  0  0  0  0
   12.7321   -0.7758   22.2016 C   0  0  0  0  0  0  0  0  0  0  0  0
   14.3003   -1.5066   22.1461 Cl  0  0  0  0  0  0  0  0  0  0  0  0
   12.4812    0.4028   22.9204 C   0  0  0  0  0  0  0  0  0  0  0  0
   13.7341    1.2371   23.7666 Cl  0  0  0  0  0  0  0  0  0  0  0  0
   11.1833    0.9228   22.9757 C   0  0  0  0  0  0  0  0  0  0  0  0
   11.0176    1.8570   23.5093 H   0  0  0  0  0  0  0  0  0  0  0  0
    5.3765    0.8415   20.1984 C   0  0  0  0  0  0  0  0  0  0  0  0
    4.6729    0.9217   21.0294 H   0  0  0  0  0  0  0  0  0  0  0  0
    5.1469    1.4905   18.9862 C   0  0  0  0  0  0  0  0  0  0  0  0
    4.2522    2.0873   18.8266 H   0  0  0  0  0  0  0  0  0  0  0  0
  1  2  1  0
  2  3  2  0
  3  4  1  0
  4  5  1  0
  4  6  2  0
  6  7  1  0
  7  8  1  0
  8  9  2  0
  9 10  1  0
 10 11  1  0
 11 12  1  0
 12 13  1  0
 12 14  1  0
 12 15  1  0
 15 16  2  0
 16 17  1  0
 16 18  1  0
 18 19  1  0
 18 20  2  0
 20 21  1  0
 20 22  1  0
 22 23  1  0
 22 24  2  0
 24 25  1  0
  6 26  1  0
 26 27  1  0
 26 28  2  0
 28 29  1  0
 28  2  1  0
 11  7  2  0
 24 15  1  0
M  END
>  <cnnaffinity>  (1) 
-5.46746

>  <filename>  (1) 
Clc1ccc(Cc2snnc2-c2cccnc2)cc1Cl

$$$$
