
     RDKit          3D

 41 43  0  0  0  0  0  0  0  0999 V2000
    4.9755    1.8702   16.9848 H   0  0  0  0  0  0  0  0  0  0  0  0
    5.4383    1.3218   17.8037 C   0  0  0  0  0  0  0  0  0  0  0  0
    6.6113    0.7209   17.5344 N   0  0  0  0  0  0  0  0  0  0  0  0
    7.2229    0.0707   18.5345 C   0  0  0  0  0  0  0  0  0  0  0  0
    8.1764   -0.3914   18.2813 H   0  0  0  0  0  0  0  0  0  0  0  0
    6.7175   -0.0492   19.8623 C   0  0  0  0  0  0  0  0  0  0  0  0
    7.3916   -0.7174   20.9002 N   0  0  0  0  0  0  0  0  0  0  0  0
    6.6762   -1.5052   21.9072 C   0  0  0  0  0  0  0  0  0  0  0  0
    5.6421   -1.6329   21.5595 H   0  0  0  0  0  0  0  0  0  0  0  0
    7.1233   -2.5140   21.9721 H   0  0  0  0  0  0  0  0  0  0  0  0
    6.6385   -0.9132   23.3438 C   0  0  0  0  0  0  0  0  0  0  0  0
    6.3257    0.1442   23.2977 H   0  0  0  0  0  0  0  0  0  0  0  0
    5.8690   -1.4418   23.9108 H   0  0  0  0  0  0  0  0  0  0  0  0
    7.8551   -1.0098   24.1459 N   0  0  0  0  0  0  0  0  0  0  0  0
    8.0471   -2.2963   24.8300 C   0  0  0  0  0  0  0  0  0  0  0  0
    9.0213   -2.2734   25.3371 H   0  0  0  0  0  0  0  0  0  0  0  0
    8.0689   -3.1552   24.1385 H   0  0  0  0  0  0  0  0  0  0  0  0
    6.9628   -2.5166   25.8806 C   0  0  0  0  0  0  0  0  0  0  0  0
    6.9092   -1.6378   26.9814 C   0  0  0  0  0  0  0  0  0  0  0  0
    7.6428   -0.8362   27.0464 H   0  0  0  0  0  0  0  0  0  0  0  0
    5.9335   -1.7667   27.9728 C   0  0  0  0  0  0  0  0  0  0  0  0
    5.9372   -1.1002   28.8307 H   0  0  0  0  0  0  0  0  0  0  0  0
    4.9749   -2.7817   27.8756 C   0  0  0  0  0  0  0  0  0  0  0  0
    4.2024   -2.8711   28.6350 H   0  0  0  0  0  0  0  0  0  0  0  0
    4.9752   -3.6428   26.7760 C   0  0  0  0  0  0  0  0  0  0  0  0
    4.2240   -4.4231   26.6742 H   0  0  0  0  0  0  0  0  0  0  0  0
    5.9423   -3.4829   25.7754 C   0  0  0  0  0  0  0  0  0  0  0  0
    5.7665   -4.4596   24.3293 Cl  0  0  0  0  0  0  0  0  0  0  0  0
    9.0143   -0.3640   23.5539 C   0  0  0  0  0  0  0  0  0  0  0  0
    9.8088   -0.3429   24.3103 H   0  0  0  0  0  0  0  0  0  0  0  0
    8.7433    0.6871   23.3871 H   0  0  0  0  0  0  0  0  0  0  0  0
    9.5422   -0.9874   22.2571 C   0  0  0  0  0  0  0  0  0  0  0  0
    9.5286   -2.0787   22.3655 H   0  0  0  0  0  0  0  0  0  0  0  0
   10.5856   -0.6761   22.1362 H   0  0  0  0  0  0  0  0  0  0  0  0
    8.8427   -0.5921   20.9520 C   0  0  0  0  0  0  0  0  0  0  0  0
    9.0859    0.4602   20.7272 H   0  0  0  0  0  0  0  0  0  0  0  0
    9.2938   -1.1845   20.1357 H   0  0  0  0  0  0  0  0  0  0  0  0
    5.4689    0.5674   20.0949 C   0  0  0  0  0  0  0  0  0  0  0  0
    5.0388    0.5053   21.0922 H   0  0  0  0  0  0  0  0  0  0  0  0
    4.8358    1.2656   19.0638 C   0  0  0  0  0  0  0  0  0  0  0  0
    3.8955    1.7849   19.2356 H   0  0  0  0  0  0  0  0  0  0  0  0
  1  2  1  0
  2  3  2  0
  3  4  1  0
  4  5  1  0
  4  6  2  0
  6  7  1  0
  7  8  1  0
  8  9  1  0
  8 10  1  0
  8 11  1  0
 11 12  1  0
 11 13  1  0
 11 14  1  0
 14 15  1  0
 15 16  1  0
 15 17  1  0
 15 18  1  0
 18 19  2  0
 19 20  1  0
 19 21  1  0
 21 22  1  0
 21 23  2  0
 23 24  1  0
 23 25  1  0
 25 26  1  0
 25 27  2  0
 27 28  1  0
 14 29  1  0
 29 30  1  0
 29 31  1  0
 29 32  1  0
 32 33  1  0
 32 34  1  0
 32 35  1  0
 35 36  1  0
 35 37  1  0
  6 38  1  0
 38 39  1  0
 38 40  2  0
 40 41  1  0
 40  2  1  0
 35  7  1  0
 27 18  1  0
M  END
>  <cnnaffinity>  (1) 
-5.40231

>  <filename>  (1) 
Clc1ccccc1CN1CCCN(c2cccnc2)CC1

$$$$
