
     RDKit          3D

 35 37  0  0  0  0  0  0  0  0999 V2000
    4.9447    1.8499   16.9645 H   0  0  0  0  0  0  0  0  0  0  0  0
    5.3813    1.3199   17.8049 C   0  0  0  0  0  0  0  0  0  0  0  0
    6.5361    0.6807   17.5649 N   0  0  0  0  0  0  0  0  0  0  0  0
    7.1150    0.0568   18.5980 C   0  0  0  0  0  0  0  0  0  0  0  0
    8.0550   -0.4474   18.3703 H   0  0  0  0  0  0  0  0  0  0  0  0
    6.5931    0.0165   19.9069 C   0  0  0  0  0  0  0  0  0  0  0  0
    7.3798   -0.6845   21.0169 C   0  0  0  0  0  0  0  0  0  0  0  0
    7.6277   -1.7110   20.7093 H   0  0  0  0  0  0  0  0  0  0  0  0
    6.7689   -0.7849   21.9232 H   0  0  0  0  0  0  0  0  0  0  0  0
    8.6913   -0.0333   21.3588 C   0  0  0  0  0  0  0  0  0  0  0  0
    9.9535   -0.3440   20.9029 C   0  0  0  0  0  0  0  0  0  0  0  0
   10.1766   -1.2040   20.2903 H   0  0  0  0  0  0  0  0  0  0  0  0
   10.8589    0.6219   21.4124 C   0  0  0  0  0  0  0  0  0  0  0  0
   11.9267    0.6923   21.2581 H   0  0  0  0  0  0  0  0  0  0  0  0
   10.1199    1.4861   22.1721 C   0  0  0  0  0  0  0  0  0  0  0  0
   10.4081    2.3736   22.7151 H   0  0  0  0  0  0  0  0  0  0  0  0
    8.8053    1.0964   22.1375 N   0  0  0  0  0  0  0  0  0  0  0  0
    7.7581    1.7013   22.9409 C   0  0  0  0  0  0  0  0  0  0  0  0
    6.8863    1.8082   22.2925 H   0  0  0  0  0  0  0  0  0  0  0  0
    8.0960    2.7139   23.1859 H   0  0  0  0  0  0  0  0  0  0  0  0
    7.4254    0.9201   24.2031 C   0  0  0  0  0  0  0  0  0  0  0  0
    6.1520    0.3781   24.4008 C   0  0  0  0  0  0  0  0  0  0  0  0
    5.3694    0.5543   23.6680 H   0  0  0  0  0  0  0  0  0  0  0  0
    5.8671   -0.3866   25.5290 C   0  0  0  0  0  0  0  0  0  0  0  0
    4.8854   -0.8223   25.6716 H   0  0  0  0  0  0  0  0  0  0  0  0
    6.8548   -0.6207   26.4893 C   0  0  0  0  0  0  0  0  0  0  0  0
    6.4087   -1.5377   27.8814 Cl  0  0  0  0  0  0  0  0  0  0  0  0
    8.1510   -0.1196   26.2911 C   0  0  0  0  0  0  0  0  0  0  0  0
    9.4441   -0.4845   27.3876 Cl  0  0  0  0  0  0  0  0  0  0  0  0
    8.4161    0.6638   25.1637 C   0  0  0  0  0  0  0  0  0  0  0  0
    9.4155    1.0686   25.0470 H   0  0  0  0  0  0  0  0  0  0  0  0
    5.3653    0.6676   20.1158 C   0  0  0  0  0  0  0  0  0  0  0  0
    4.8913    0.6780   21.0987 H   0  0  0  0  0  0  0  0  0  0  0  0
    4.7489    1.3338   19.0503 C   0  0  0  0  0  0  0  0  0  0  0  0
    3.8199    1.8815   19.1775 H   0  0  0  0  0  0  0  0  0  0  0  0
  1  2  1  0
  2  3  2  0
  3  4  1  0
  4  5  1  0
  4  6  2  0
  6  7  1  0
  7  8  1  0
  7  9  1  0
  7 10  1  0
 10 11  2  0
 11 12  1  0
 11 13  1  0
 13 14  1  0
 13 15  2  0
 15 16  1  0
 15 17  1  0
 17 18  1  0
 18 19  1  0
 18 20  1  0
 18 21  1  0
 21 22  2  0
 22 23  1  0
 22 24  1  0
 24 25  1  0
 24 26  2  0
 26 27  1  0
 26 28  1  0
 28 29  1  0
 28 30  2  0
 30 31  1  0
  6 32  1  0
 32 33  1  0
 32 34  2  0
 34 35  1  0
 34  2  1  0
 17 10  1  0
 30 21  1  0
M  END
>  <cnnaffinity>  (1) 
-5.25134

>  <filename>  (1) 
Clc1ccc(Cn2cccc2Cc2cccnc2)cc1Cl

$$$$
