
     RDKit          3D

 31 33  0  0  0  0  0  0  0  0999 V2000
    5.0055    1.8428   16.9589 H   0  0  0  0  0  0  0  0  0  0  0  0
    5.4347    1.2960   17.7963 C   0  0  0  0  0  0  0  0  0  0  0  0
    6.5843    0.6449   17.5604 N   0  0  0  0  0  0  0  0  0  0  0  0
    7.1528   -0.0073   18.5803 C   0  0  0  0  0  0  0  0  0  0  0  0
    8.0938   -0.5138   18.3655 H   0  0  0  0  0  0  0  0  0  0  0  0
    6.6208   -0.0272   19.8812 C   0  0  0  0  0  0  0  0  0  0  0  0
    7.3515   -0.7023   20.9532 C   0  0  0  0  0  0  0  0  0  0  0  0
    7.9670   -1.9149   20.7621 N   0  0  0  0  0  0  0  0  0  0  0  0
    8.4661   -2.2529   21.9165 C   0  0  0  0  0  0  0  0  0  0  0  0
    8.9699   -3.1906   22.1411 H   0  0  0  0  0  0  0  0  0  0  0  0
    8.2308   -1.3040   22.8606 N   0  0  0  0  0  0  0  0  0  0  0  0
    8.6797   -1.2574   23.7637 H   0  0  0  0  0  0  0  0  0  0  0  0
    7.5426   -0.2748   22.2579 C   0  0  0  0  0  0  0  0  0  0  0  0
    7.2863    1.0188   22.9724 C   0  0  0  0  0  0  0  0  0  0  0  0
    6.5830    0.8643   23.8010 H   0  0  0  0  0  0  0  0  0  0  0  0
    6.8248    1.7170   22.2697 H   0  0  0  0  0  0  0  0  0  0  0  0
    8.5634    1.6542   23.4934 C   0  0  0  0  0  0  0  0  0  0  0  0
    8.9536    1.5466   24.8360 C   0  0  0  0  0  0  0  0  0  0  0  0
    8.2812    1.1057   25.5647 H   0  0  0  0  0  0  0  0  0  0  0  0
   10.1814    2.0383   25.2768 C   0  0  0  0  0  0  0  0  0  0  0  0
   10.4777    1.8970   26.3086 H   0  0  0  0  0  0  0  0  0  0  0  0
   11.0211    2.6927   24.3784 C   0  0  0  0  0  0  0  0  0  0  0  0
   11.9647    3.0999   24.7110 H   0  0  0  0  0  0  0  0  0  0  0  0
   10.6558    2.8379   23.0427 C   0  0  0  0  0  0  0  0  0  0  0  0
   11.3128    3.3265   22.3330 H   0  0  0  0  0  0  0  0  0  0  0  0
    9.4311    2.3228   22.6157 C   0  0  0  0  0  0  0  0  0  0  0  0
    8.9820    2.5541   20.9532 Cl  0  0  0  0  0  0  0  0  0  0  0  0
    5.4012    0.6357   20.1011 C   0  0  0  0  0  0  0  0  0  0  0  0
    4.9513    0.6415   21.0951 H   0  0  0  0  0  0  0  0  0  0  0  0
    4.7948    1.3014   19.0393 C   0  0  0  0  0  0  0  0  0  0  0  0
    3.8695    1.8447   19.1765 H   0  0  0  0  0  0  0  0  0  0  0  0
  1  2  1  0
  2  3  2  0
  3  4  1  0
  4  5  1  0
  4  6  2  0
  6  7  1  0
  7  8  1  0
  8  9  2  0
  9 10  1  0
  9 11  1  0
 11 12  1  0
 11 13  1  0
 13 14  1  0
 14 15  1  0
 14 16  1  0
 14 17  1  0
 17 18  2  0
 18 19  1  0
 18 20  1  0
 20 21  1  0
 20 22  2  0
 22 23  1  0
 22 24  1  0
 24 25  1  0
 24 26  2  0
 26 27  1  0
  6 28  1  0
 28 29  1  0
 28 30  2  0
 30 31  1  0
 30  2  1  0
 13  7  2  0
 26 17  1  0
M  END
>  <cnnaffinity>  (1) 
-5.6967

>  <filename>  (1) 
Clc1ccccc1Cc1[nH]cnc1-c1cccnc1

$$$$
