
     RDKit          3D

 31 33  0  0  0  0  0  0  0  0999 V2000
    5.7358   -1.5998   21.9209 H   0  0  0  0  0  0  0  0  0  0  0  0
    6.8073   -1.4769   21.9501 C   0  0  0  0  0  0  0  0  0  0  0  0
    7.4503   -2.1309   22.9068 N   0  0  0  0  0  0  0  0  0  0  0  0
    8.7841   -2.0111   22.9507 N   0  0  0  0  0  0  0  0  0  0  0  0
    9.4249   -1.2662   22.0405 C   0  0  0  0  0  0  0  0  0  0  0  0
   10.9216   -1.1647   22.1912 C   0  0  0  0  0  0  0  0  0  0  0  0
   11.2619   -1.9784   22.8419 H   0  0  0  0  0  0  0  0  0  0  0  0
   11.3604   -1.3249   21.1988 H   0  0  0  0  0  0  0  0  0  0  0  0
   11.3925    0.1867   22.7103 C   0  0  0  0  0  0  0  0  0  0  0  0
   11.7558    1.1635   21.7730 C   0  0  0  0  0  0  0  0  0  0  0  0
   11.6038    0.9313   20.7334 H   0  0  0  0  0  0  0  0  0  0  0  0
   12.2918    2.3922   22.1375 C   0  0  0  0  0  0  0  0  0  0  0  0
   12.6092    3.0908   21.3681 H   0  0  0  0  0  0  0  0  0  0  0  0
   12.4343    2.7028   23.4883 C   0  0  0  0  0  0  0  0  0  0  0  0
   12.8613    3.6540   23.7931 H   0  0  0  0  0  0  0  0  0  0  0  0
   11.9810    1.7999   24.4488 C   0  0  0  0  0  0  0  0  0  0  0  0
   12.0061    2.0442   25.4976 H   0  0  0  0  0  0  0  0  0  0  0  0
   11.4623    0.5606   24.0644 C   0  0  0  0  0  0  0  0  0  0  0  0
   10.8512   -0.4759   25.3172 Cl  0  0  0  0  0  0  0  0  0  0  0  0
    8.8335   -0.6210   20.9996 N   0  0  0  0  0  0  0  0  0  0  0  0
    7.5006   -0.7009   20.9736 C   0  0  0  0  0  0  0  0  0  0  0  0
    6.7640    0.0155   19.9006 C   0  0  0  0  0  0  0  0  0  0  0  0
    7.2922    0.0597   18.5995 C   0  0  0  0  0  0  0  0  0  0  0  0
    8.2423   -0.4238   18.3703 H   0  0  0  0  0  0  0  0  0  0  0  0
    6.6764    0.6525   17.5695 N   0  0  0  0  0  0  0  0  0  0  0  0
    5.5045    1.2621   17.8094 C   0  0  0  0  0  0  0  0  0  0  0  0
    5.0335    1.7491   16.9576 H   0  0  0  0  0  0  0  0  0  0  0  0
    4.8932    1.2871   19.0650 C   0  0  0  0  0  0  0  0  0  0  0  0
    3.9478    1.8058   19.1940 H   0  0  0  0  0  0  0  0  0  0  0  0
    5.5290    0.6518   20.1291 C   0  0  0  0  0  0  0  0  0  0  0  0
    5.0829    0.6775   21.1251 H   0  0  0  0  0  0  0  0  0  0  0  0
  1  2  1  0
  2  3  2  0
  3  4  1  0
  4  5  2  0
  5  6  1  0
  6  7  1  0
  6  8  1  0
  6  9  1  0
  9 10  2  0
 10 11  1  0
 10 12  1  0
 12 13  1  0
 12 14  2  0
 14 15  1  0
 14 16  1  0
 16 17  1  0
 16 18  2  0
 18 19  1  0
  5 20  1  0
 20 21  2  0
 21 22  1  0
 22 23  2  0
 23 24  1  0
 23 25  1  0
 25 26  2  0
 26 27  1  0
 26 28  1  0
 28 29  1  0
 28 30  2  0
 30 31  1  0
 21  2  1  0
 30 22  1  0
 18  9  1  0
M  END
>  <cnnaffinity>  (1) 
-5.23276

>  <filename>  (1) 
Clc1ccccc1Cc1nncc(-c2cccnc2)n1

$$$$
