
     RDKit          3D

 33 35  0  0  0  0  0  0  0  0999 V2000
    4.9253    1.7882   16.9304 H   0  0  0  0  0  0  0  0  0  0  0  0
    5.3867    1.3523   17.8215 C   0  0  0  0  0  0  0  0  0  0  0  0
    6.5664    0.7351   17.6484 N   0  0  0  0  0  0  0  0  0  0  0  0
    7.1318    0.1742   18.7244 C   0  0  0  0  0  0  0  0  0  0  0  0
    8.0737   -0.3390   18.5347 H   0  0  0  0  0  0  0  0  0  0  0  0
    6.5994    0.1982   20.0328 C   0  0  0  0  0  0  0  0  0  0  0  0
    7.2888   -0.5202   21.1506 C   0  0  0  0  0  0  0  0  0  0  0  0
    7.6141    0.0228   22.4087 C   0  0  0  0  0  0  0  0  0  0  0  0
    7.2856    1.0253   22.6799 H   0  0  0  0  0  0  0  0  0  0  0  0
    8.3199   -0.6304   23.3466 N   0  0  0  0  0  0  0  0  0  0  0  0
    8.7234   -1.8866   23.0882 C   0  0  0  0  0  0  0  0  0  0  0  0
    9.4332   -2.6372   24.1945 C   0  0  0  0  0  0  0  0  0  0  0  0
   10.0556   -3.4353   23.7729 H   0  0  0  0  0  0  0  0  0  0  0  0
   10.0934   -1.9329   24.7162 H   0  0  0  0  0  0  0  0  0  0  0  0
    8.4283   -3.2198   25.1851 C   0  0  0  0  0  0  0  0  0  0  0  0
    7.9590   -2.3905   26.2180 C   0  0  0  0  0  0  0  0  0  0  0  0
    8.3887   -1.3939   26.3126 H   0  0  0  0  0  0  0  0  0  0  0  0
    6.9519   -2.8046   27.0916 C   0  0  0  0  0  0  0  0  0  0  0  0
    6.5751   -2.1192   27.8472 H   0  0  0  0  0  0  0  0  0  0  0  0
    6.4164   -4.0904   26.9707 C   0  0  0  0  0  0  0  0  0  0  0  0
    5.6470   -4.4260   27.6633 H   0  0  0  0  0  0  0  0  0  0  0  0
    6.8546   -4.9415   25.9522 C   0  0  0  0  0  0  0  0  0  0  0  0
    6.4398   -5.9418   25.8444 H   0  0  0  0  0  0  0  0  0  0  0  0
    7.8366   -4.4918   25.0567 C   0  0  0  0  0  0  0  0  0  0  0  0
    8.2930   -5.5725   23.7577 Cl  0  0  0  0  0  0  0  0  0  0  0  0
    8.4350   -2.5198   21.8689 C   0  0  0  0  0  0  0  0  0  0  0  0
    8.7942   -3.5153   21.6529 H   0  0  0  0  0  0  0  0  0  0  0  0
    7.6822   -1.8427   20.9246 C   0  0  0  0  0  0  0  0  0  0  0  0
    7.3219   -2.3430   20.0319 H   0  0  0  0  0  0  0  0  0  0  0  0
    5.3708    0.8500   20.1842 C   0  0  0  0  0  0  0  0  0  0  0  0
    4.8956    0.8770   21.1608 H   0  0  0  0  0  0  0  0  0  0  0  0
    4.7503    1.4178   19.0623 C   0  0  0  0  0  0  0  0  0  0  0  0
    3.7847    1.8994   19.1315 H   0  0  0  0  0  0  0  0  0  0  0  0
  1  2  1  0
  2  3  2  0
  3  4  1  0
  4  5  1  0
  4  6  2  0
  6  7  1  0
  7  8  2  0
  8  9  1  0
  8 10  1  0
 10 11  2  0
 11 12  1  0
 12 13  1  0
 12 14  1  0
 12 15  1  0
 15 16  2  0
 16 17  1  0
 16 18  1  0
 18 19  1  0
 18 20  2  0
 20 21  1  0
 20 22  1  0
 22 23  1  0
 22 24  2  0
 24 25  1  0
 11 26  1  0
 26 27  1  0
 26 28  2  0
 28 29  1  0
  6 30  1  0
 30 31  1  0
 30 32  2  0
 32 33  1  0
 32  2  1  0
 28  7  1  0
 24 15  1  0
M  END
>  <cnnaffinity>  (1) 
-5.3124

>  <filename>  (1) 
Clc1ccccc1Cc1ccc(-c2cccnc2)cn1

$$$$
