
     RDKit          3D

 31 33  0  0  0  0  0  0  0  0999 V2000
    4.9229    1.7802   16.9956 H   0  0  0  0  0  0  0  0  0  0  0  0
    5.4048    1.2944   17.8378 C   0  0  0  0  0  0  0  0  0  0  0  0
    6.5702    0.6781   17.5763 N   0  0  0  0  0  0  0  0  0  0  0  0
    7.1616    0.0519   18.5957 C   0  0  0  0  0  0  0  0  0  0  0  0
    8.1096   -0.4332   18.3757 H   0  0  0  0  0  0  0  0  0  0  0  0
    6.6421    0.0166   19.8969 C   0  0  0  0  0  0  0  0  0  0  0  0
    7.3800   -0.7370   20.9084 C   0  0  0  0  0  0  0  0  0  0  0  0
    7.7648   -1.9816   20.7677 N   0  0  0  0  0  0  0  0  0  0  0  0
    8.3958   -2.3031   21.9395 C   0  0  0  0  0  0  0  0  0  0  0  0
    8.8288   -3.2804   22.0952 H   0  0  0  0  0  0  0  0  0  0  0  0
    8.4257   -1.2303   22.7828 C   0  0  0  0  0  0  0  0  0  0  0  0
    8.8629   -1.0874   23.7617 H   0  0  0  0  0  0  0  0  0  0  0  0
    7.7586   -0.2191   22.1212 N   0  0  0  0  0  0  0  0  0  0  0  0
    7.6973    1.1700   22.5909 C   0  0  0  0  0  0  0  0  0  0  0  0
    8.6928    1.6177   22.4949 H   0  0  0  0  0  0  0  0  0  0  0  0
    7.0436    1.7448   21.9331 H   0  0  0  0  0  0  0  0  0  0  0  0
    7.2119    1.2764   24.0203 C   0  0  0  0  0  0  0  0  0  0  0  0
    8.1203    1.4496   25.0744 C   0  0  0  0  0  0  0  0  0  0  0  0
    9.1814    1.5444   24.8565 H   0  0  0  0  0  0  0  0  0  0  0  0
    7.6833    1.4918   26.3969 C   0  0  0  0  0  0  0  0  0  0  0  0
    8.3887    1.6265   27.2105 H   0  0  0  0  0  0  0  0  0  0  0  0
    6.3221    1.3575   26.6864 C   0  0  0  0  0  0  0  0  0  0  0  0
    5.8215    1.4230   28.3393 Cl  0  0  0  0  0  0  0  0  0  0  0  0
    5.4033    1.1734   25.6420 C   0  0  0  0  0  0  0  0  0  0  0  0
    3.7095    0.9961   25.9437 Cl  0  0  0  0  0  0  0  0  0  0  0  0
    5.8527    1.1337   24.3197 C   0  0  0  0  0  0  0  0  0  0  0  0
    5.1243    0.9715   23.5298 H   0  0  0  0  0  0  0  0  0  0  0  0
    5.4287    0.6675   20.1578 C   0  0  0  0  0  0  0  0  0  0  0  0
    4.9878    0.6342   21.1608 H   0  0  0  0  0  0  0  0  0  0  0  0
    4.7956    1.3138   19.1005 C   0  0  0  0  0  0  0  0  0  0  0  0
    3.8641    1.8488   19.2574 H   0  0  0  0  0  0  0  0  0  0  0  0
  1  2  1  0
  2  3  2  0
  3  4  1  0
  4  5  1  0
  4  6  2  0
  6  7  1  0
  7  8  2  0
  8  9  1  0
  9 10  1  0
  9 11  2  0
 11 12  1  0
 11 13  1  0
 13 14  1  0
 14 15  1  0
 14 16  1  0
 14 17  1  0
 17 18  2  0
 18 19  1  0
 18 20  1  0
 20 21  1  0
 20 22  2  0
 22 23  1  0
 22 24  1  0
 24 25  1  0
 24 26  2  0
 26 27  1  0
  6 28  1  0
 28 29  1  0
 28 30  2  0
 30 31  1  0
 30  2  1  0
 13  7  1  0
 26 17  1  0
M  END
>  <cnnaffinity>  (1) 
-5.44131

>  <filename>  (1) 
Clc1ccc(Cn2ccnc2-c2cccnc2)cc1Cl

$$$$
