
     RDKit          3D

 35 37  0  0  0  0  0  0  0  0999 V2000
    4.9740    1.7651   16.9592 H   0  0  0  0  0  0  0  0  0  0  0  0
    5.4287    1.2907   17.8234 C   0  0  0  0  0  0  0  0  0  0  0  0
    6.6104    0.6948   17.6137 N   0  0  0  0  0  0  0  0  0  0  0  0
    7.1974    0.1177   18.6687 C   0  0  0  0  0  0  0  0  0  0  0  0
    8.1591   -0.3534   18.4680 H   0  0  0  0  0  0  0  0  0  0  0  0
    6.6634    0.0847   19.9668 C   0  0  0  0  0  0  0  0  0  0  0  0
    7.5161   -0.6182   21.0254 C   0  0  0  0  0  0  0  0  0  0  0  0
    8.8597   -0.0633   20.9929 O   0  0  0  0  0  0  0  0  0  0  0  0
    9.1813    1.1722   21.4477 C   0  0  0  0  0  0  0  0  0  0  0  0
    8.2600    2.1797   21.7638 C   0  0  0  0  0  0  0  0  0  0  0  0
    7.2002    2.0480   21.5632 H   0  0  0  0  0  0  0  0  0  0  0  0
    8.7284    3.3501   22.3658 C   0  0  0  0  0  0  0  0  0  0  0  0
    8.0106    4.1096   22.6689 H   0  0  0  0  0  0  0  0  0  0  0  0
   10.0924    3.5535   22.5842 C   0  0  0  0  0  0  0  0  0  0  0  0
   10.4602    4.4683   23.0267 H   0  0  0  0  0  0  0  0  0  0  0  0
   10.9991    2.5599   22.2005 C   0  0  0  0  0  0  0  0  0  0  0  0
   12.7043    2.7837   22.4777 Cl  0  0  0  0  0  0  0  0  0  0  0  0
   10.5630    1.3799   21.6191 C   0  0  0  0  0  0  0  0  0  0  0  0
   11.2793    0.6128   21.3379 H   0  0  0  0  0  0  0  0  0  0  0  0
    6.9011   -0.6963   22.4295 C   0  0  0  0  0  0  0  0  0  0  0  0
    5.8619   -0.9411   22.2265 H   0  0  0  0  0  0  0  0  0  0  0  0
    6.9367    0.2500   22.9738 H   0  0  0  0  0  0  0  0  0  0  0  0
    7.5698   -1.8728   23.1566 C   0  0  0  0  0  0  0  0  0  0  0  0
    8.4919   -1.5365   23.6422 H   0  0  0  0  0  0  0  0  0  0  0  0
    6.9332   -2.2834   23.9520 H   0  0  0  0  0  0  0  0  0  0  0  0
    7.8681   -2.9013   22.0426 C   0  0  0  0  0  0  0  0  0  0  0  0
    8.8613   -3.3487   22.1628 H   0  0  0  0  0  0  0  0  0  0  0  0
    7.1531   -3.7328   22.0665 H   0  0  0  0  0  0  0  0  0  0  0  0
    7.7661   -2.1109   20.7078 C   0  0  0  0  0  0  0  0  0  0  0  0
    8.7128   -2.1484   20.1710 H   0  0  0  0  0  0  0  0  0  0  0  0
    6.9637   -2.5140   20.0795 H   0  0  0  0  0  0  0  0  0  0  0  0
    5.4240    0.7149   20.1586 C   0  0  0  0  0  0  0  0  0  0  0  0
    4.9630    0.7706   21.1502 H   0  0  0  0  0  0  0  0  0  0  0  0
    4.7885    1.3202   19.0668 C   0  0  0  0  0  0  0  0  0  0  0  0
    3.8381    1.8347   19.1698 H   0  0  0  0  0  0  0  0  0  0  0  0
  1  2  1  0
  2  3  2  0
  3  4  1  0
  4  5  1  0
  4  6  2  0
  6  7  1  0
  7  8  1  0
  8  9  1  0
  9 10  2  0
 10 11  1  0
 10 12  1  0
 12 13  1  0
 12 14  2  0
 14 15  1  0
 14 16  1  0
 16 17  1  0
 16 18  2  0
 18 19  1  0
  7 20  1  0
 20 21  1  0
 20 22  1  0
 20 23  1  0
 23 24  1  0
 23 25  1  0
 23 26  1  0
 26 27  1  0
 26 28  1  0
 26 29  1  0
 29 30  1  0
 29 31  1  0
  6 32  1  0
 32 33  1  0
 32 34  2  0
 34 35  1  0
 34  2  1  0
 29  7  1  0
 18  9  1  0
M  END
>  <cnnaffinity>  (1) 
-5.01808

>  <filename>  (1) 
Clc1cccc(OC2(c3cccnc3)CCCC2)c1

$$$$
