
     RDKit          3D

 36 39  0  0  0  0  0  0  0  0999 V2000
    5.3068    1.8186   16.9983 H   0  0  0  0  0  0  0  0  0  0  0  0
    5.6674    1.3295   17.9003 C   0  0  0  0  0  0  0  0  0  0  0  0
    6.7407    0.5358   17.7533 N   0  0  0  0  0  0  0  0  0  0  0  0
    7.1673   -0.1126   18.8450 C   0  0  0  0  0  0  0  0  0  0  0  0
    8.0478   -0.7448   18.7167 H   0  0  0  0  0  0  0  0  0  0  0  0
    6.5587   -0.0275   20.1108 C   0  0  0  0  0  0  0  0  0  0  0  0
    6.9959   -0.8726   21.2791 C   0  0  0  0  0  0  0  0  0  0  0  0
    7.8200   -0.1771   22.3100 C   0  0  0  0  0  0  0  0  0  0  0  0
    7.3314    0.5836   23.2416 N   0  0  0  0  0  0  0  0  0  0  0  0
    8.3022    1.1329   24.0322 N   0  0  0  0  0  0  0  0  0  0  0  0
    9.5010    0.7786   23.6718 C   0  0  0  0  0  0  0  0  0  0  0  0
   10.7571    1.3228   24.2870 C   0  0  0  0  0  0  0  0  0  0  0  0
   10.6825    1.1809   25.3730 H   0  0  0  0  0  0  0  0  0  0  0  0
   11.6206    0.7447   23.9344 H   0  0  0  0  0  0  0  0  0  0  0  0
   10.8939    2.7936   23.9235 C   0  0  0  0  0  0  0  0  0  0  0  0
   10.2331    3.7673   24.6889 C   0  0  0  0  0  0  0  0  0  0  0  0
    9.6285    3.4447   25.5336 H   0  0  0  0  0  0  0  0  0  0  0  0
   10.3394    5.1237   24.3944 C   0  0  0  0  0  0  0  0  0  0  0  0
    9.8444    5.8617   25.0231 H   0  0  0  0  0  0  0  0  0  0  0  0
   11.0699    5.5304   23.2778 C   0  0  0  0  0  0  0  0  0  0  0  0
   11.1329    6.5832   23.0423 H   0  0  0  0  0  0  0  0  0  0  0  0
   11.6790    4.5790   22.4521 C   0  0  0  0  0  0  0  0  0  0  0  0
   12.2222    4.8509   21.5544 H   0  0  0  0  0  0  0  0  0  0  0  0
   11.5873    3.2243   22.7833 C   0  0  0  0  0  0  0  0  0  0  0  0
   12.3098    2.0639   21.7108 Cl  0  0  0  0  0  0  0  0  0  0  0  0
    9.5422   -0.3299   22.3468 S   0  0  0  0  0  0  0  0  0  0  0  0
    7.2141   -2.3474   21.0354 C   0  0  0  0  0  0  0  0  0  0  0  0
    6.9980   -2.6764   20.0290 H   0  0  0  0  0  0  0  0  0  0  0  0
    8.0308   -2.8517   21.5436 H   0  0  0  0  0  0  0  0  0  0  0  0
    6.0284   -1.9090   21.8170 C   0  0  0  0  0  0  0  0  0  0  0  0
    5.0599   -1.9303   21.3402 H   0  0  0  0  0  0  0  0  0  0  0  0
    6.0113   -2.0765   22.8894 H   0  0  0  0  0  0  0  0  0  0  0  0
    5.4927    0.8701   20.2564 C   0  0  0  0  0  0  0  0  0  0  0  0
    5.0437    1.0239   21.2410 H   0  0  0  0  0  0  0  0  0  0  0  0
    5.0210    1.5354   19.1241 C   0  0  0  0  0  0  0  0  0  0  0  0
    4.1679    2.2029   19.1738 H   0  0  0  0  0  0  0  0  0  0  0  0
  1  2  1  0
  2  3  2  0
  3  4  1  0
  4  5  1  0
  4  6  2  0
  6  7  1  0
  7  8  1  0
  8  9  2  0
  9 10  1  0
 10 11  2  0
 11 12  1  0
 12 13  1  0
 12 14  1  0
 12 15  1  0
 15 16  2  0
 16 17  1  0
 16 18  1  0
 18 19  1  0
 18 20  2  0
 20 21  1  0
 20 22  1  0
 22 23  1  0
 22 24  2  0
 24 25  1  0
 11 26  1  0
  7 27  1  0
 27 28  1  0
 27 29  1  0
 27 30  1  0
 30 31  1  0
 30 32  1  0
  6 33  1  0
 33 34  1  0
 33 35  2  0
 35 36  1  0
 35  2  1  0
 30  7  1  0
 26  8  1  0
 24 15  1  0
M  END
>  <cnnaffinity>  (1) 
-5.72532

>  <filename>  (1) 
Clc1ccccc1Cc1nnc(C2(c3cccnc3)CC2)s1

$$$$
