
     RDKit          3D

 35 38  0  0  0  0  0  0  0  0999 V2000
    5.0301    1.8652   17.0143 H   0  0  0  0  0  0  0  0  0  0  0  0
    5.5375    1.3215   17.8102 C   0  0  0  0  0  0  0  0  0  0  0  0
    6.6834    0.7095   17.4734 N   0  0  0  0  0  0  0  0  0  0  0  0
    7.3453    0.0403   18.4273 C   0  0  0  0  0  0  0  0  0  0  0  0
    8.2881   -0.4137   18.1220 H   0  0  0  0  0  0  0  0  0  0  0  0
    6.8661   -0.0965   19.7461 C   0  0  0  0  0  0  0  0  0  0  0  0
    7.5246   -0.9116   20.6966 N   0  0  0  0  0  0  0  0  0  0  0  0
    8.8664   -0.8555   21.0727 C   0  0  0  0  0  0  0  0  0  0  0  0
    9.5126   -0.1307   20.5983 H   0  0  0  0  0  0  0  0  0  0  0  0
    9.0803   -1.7356   22.0908 C   0  0  0  0  0  0  0  0  0  0  0  0
    9.9329   -2.0226   22.6781 H   0  0  0  0  0  0  0  0  0  0  0  0
    7.8538   -2.3245   22.3557 N   0  0  0  0  0  0  0  0  0  0  0  0
    7.3798   -3.2145   23.2697 N   0  0  0  0  0  0  0  0  0  0  0  0
    6.0678   -3.2361   23.0033 C   0  0  0  0  0  0  0  0  0  0  0  0
    5.0614   -4.1164   23.7210 C   0  0  0  0  0  0  0  0  0  0  0  0
    5.3690   -5.1625   23.5920 H   0  0  0  0  0  0  0  0  0  0  0  0
    4.1155   -4.0217   23.1760 H   0  0  0  0  0  0  0  0  0  0  0  0
    4.8084   -3.8487   25.2014 C   0  0  0  0  0  0  0  0  0  0  0  0
    5.6478   -4.4487   26.1558 C   0  0  0  0  0  0  0  0  0  0  0  0
    6.4073   -5.1485   25.8071 H   0  0  0  0  0  0  0  0  0  0  0  0
    5.5055   -4.2046   27.5254 C   0  0  0  0  0  0  0  0  0  0  0  0
    6.1547   -4.7070   28.2358 H   0  0  0  0  0  0  0  0  0  0  0  0
    4.4944   -3.3507   27.9806 C   0  0  0  0  0  0  0  0  0  0  0  0
    4.3812   -3.1328   29.0413 H   0  0  0  0  0  0  0  0  0  0  0  0
    3.6060   -2.7859   27.0665 C   0  0  0  0  0  0  0  0  0  0  0  0
    2.7772   -2.1610   27.3943 H   0  0  0  0  0  0  0  0  0  0  0  0
    3.7553   -3.0507   25.7008 C   0  0  0  0  0  0  0  0  0  0  0  0
    2.5203   -2.3765   24.6691 Cl  0  0  0  0  0  0  0  0  0  0  0  0
    5.7200   -2.4171   21.9107 C   0  0  0  0  0  0  0  0  0  0  0  0
    4.7288   -2.2229   21.5853 H   0  0  0  0  0  0  0  0  0  0  0  0
    6.9146   -1.8371   21.5250 C   0  0  0  0  0  0  0  0  0  0  0  0
    5.6804    0.5664   20.0960 C   0  0  0  0  0  0  0  0  0  0  0  0
    5.3197    0.5112   21.1261 H   0  0  0  0  0  0  0  0  0  0  0  0
    5.0094    1.2891   19.1072 C   0  0  0  0  0  0  0  0  0  0  0  0
    4.0933    1.8226   19.3300 H   0  0  0  0  0  0  0  0  0  0  0  0
  1  2  1  0
  2  3  2  0
  3  4  1  0
  4  5  1  0
  4  6  2  0
  6  7  1  0
  7  8  1  0
  8  9  1  0
  8 10  2  0
 10 11  1  0
 10 12  1  0
 12 13  1  0
 13 14  2  0
 14 15  1  0
 15 16  1  0
 15 17  1  0
 15 18  1  0
 18 19  2  0
 19 20  1  0
 19 21  1  0
 21 22  1  0
 21 23  2  0
 23 24  1  0
 23 25  1  0
 25 26  1  0
 25 27  2  0
 27 28  1  0
 14 29  1  0
 29 30  1  0
 29 31  2  0
  6 32  1  0
 32 33  1  0
 32 34  2  0
 34 35  1  0
 34  2  1  0
 31  7  1  0
 31 12  1  0
 27 18  1  0
M  END
>  <cnnaffinity>  (1) 
-5.77417

>  <filename>  (1) 
Clc1ccccc1Cc1cc2n(-c3cccnc3)ccn2n1

$$$$
