
     RDKit          3D

 38 40  0  0  0  0  0  0  0  0999 V2000
    4.9442    1.8188   16.9716 H   0  0  0  0  0  0  0  0  0  0  0  0
    5.3937    1.3294   17.8343 C   0  0  0  0  0  0  0  0  0  0  0  0
    6.5735    0.7293   17.6236 N   0  0  0  0  0  0  0  0  0  0  0  0
    7.1435    0.1253   18.6743 C   0  0  0  0  0  0  0  0  0  0  0  0
    8.0972   -0.3582   18.4756 H   0  0  0  0  0  0  0  0  0  0  0  0
    6.5919    0.0734   19.9744 C   0  0  0  0  0  0  0  0  0  0  0  0
    7.3381   -0.7364   21.0387 C   0  0  0  0  0  0  0  0  0  0  0  0
    8.7749   -0.6187   20.7748 O   0  0  0  0  0  0  0  0  0  0  0  0
    9.4416    0.5280   21.0848 C   0  0  0  0  0  0  0  0  0  0  0  0
   10.8395    0.4560   21.2160 C   0  0  0  0  0  0  0  0  0  0  0  0
   11.3349   -0.4964   21.0623 H   0  0  0  0  0  0  0  0  0  0  0  0
   11.5650    1.6012   21.5481 C   0  0  0  0  0  0  0  0  0  0  0  0
   12.6516    1.5635   21.5798 H   0  0  0  0  0  0  0  0  0  0  0  0
   10.9059    2.7897   21.8764 C   0  0  0  0  0  0  0  0  0  0  0  0
   11.4393    3.6884   22.1588 H   0  0  0  0  0  0  0  0  0  0  0  0
    9.5157    2.8184   21.7988 C   0  0  0  0  0  0  0  0  0  0  0  0
    8.6419    4.2097   22.3676 Cl  0  0  0  0  0  0  0  0  0  0  0  0
    8.7843    1.7431   21.3138 C   0  0  0  0  0  0  0  0  0  0  0  0
    7.7188    1.8549   21.1791 H   0  0  0  0  0  0  0  0  0  0  0  0
    7.0439   -0.4116   22.5332 C   0  0  0  0  0  0  0  0  0  0  0  0
    7.2169    0.6340   22.7906 H   0  0  0  0  0  0  0  0  0  0  0  0
    5.9813   -0.5776   22.6985 H   0  0  0  0  0  0  0  0  0  0  0  0
    7.8345   -1.3130   23.5012 C   0  0  0  0  0  0  0  0  0  0  0  0
    8.9013   -1.0582   23.4411 H   0  0  0  0  0  0  0  0  0  0  0  0
    7.5120   -1.0983   24.5275 H   0  0  0  0  0  0  0  0  0  0  0  0
    7.6186   -2.8054   23.1915 C   0  0  0  0  0  0  0  0  0  0  0  0
    8.2545   -3.4269   23.8343 H   0  0  0  0  0  0  0  0  0  0  0  0
    6.5755   -3.0579   23.4372 H   0  0  0  0  0  0  0  0  0  0  0  0
    7.8499   -3.1304   21.7071 C   0  0  0  0  0  0  0  0  0  0  0  0
    7.6417   -4.1858   21.4991 H   0  0  0  0  0  0  0  0  0  0  0  0
    8.9002   -2.9408   21.4480 H   0  0  0  0  0  0  0  0  0  0  0  0
    6.9673   -2.2216   20.8432 C   0  0  0  0  0  0  0  0  0  0  0  0
    5.9128   -2.3410   21.1365 H   0  0  0  0  0  0  0  0  0  0  0  0
    6.9765   -2.4794   19.7845 H   0  0  0  0  0  0  0  0  0  0  0  0
    5.3555    0.6963   20.1625 C   0  0  0  0  0  0  0  0  0  0  0  0
    4.8716    0.7065   21.1411 H   0  0  0  0  0  0  0  0  0  0  0  0
    4.7479    1.3363   19.0735 C   0  0  0  0  0  0  0  0  0  0  0  0
    3.7974    1.8464   19.1733 H   0  0  0  0  0  0  0  0  0  0  0  0
  1  2  1  0
  2  3  2  0
  3  4  1  0
  4  5  1  0
  4  6  2  0
  6  7  1  0
  7  8  1  0
  8  9  1  0
  9 10  2  0
 10 11  1  0
 10 12  1  0
 12 13  1  0
 12 14  2  0
 14 15  1  0
 14 16  1  0
 16 17  1  0
 16 18  2  0
 18 19  1  0
  7 20  1  0
 20 21  1  0
 20 22  1  0
 20 23  1  0
 23 24  1  0
 23 25  1  0
 23 26  1  0
 26 27  1  0
 26 28  1  0
 26 29  1  0
 29 30  1  0
 29 31  1  0
 29 32  1  0
 32 33  1  0
 32 34  1  0
  6 35  1  0
 35 36  1  0
 35 37  2  0
 37 38  1  0
 37  2  1  0
 32  7  1  0
 18  9  1  0
M  END
>  <cnnaffinity>  (1) 
-5.52665

>  <filename>  (1) 
Clc1cccc(OC2(c3cccnc3)CCCCC2)c1

$$$$
