
     RDKit          3D

 31 33  0  0  0  0  0  0  0  0999 V2000
    4.9267    1.8019   16.9820 H   0  0  0  0  0  0  0  0  0  0  0  0
    5.3935    1.3044   17.8313 C   0  0  0  0  0  0  0  0  0  0  0  0
    6.5552    0.6858   17.5791 N   0  0  0  0  0  0  0  0  0  0  0  0
    7.1533    0.0627   18.6008 C   0  0  0  0  0  0  0  0  0  0  0  0
    8.1028   -0.4165   18.3640 H   0  0  0  0  0  0  0  0  0  0  0  0
    6.6354   -0.0078   19.9040 C   0  0  0  0  0  0  0  0  0  0  0  0
    7.4143   -0.7060   21.0032 C   0  0  0  0  0  0  0  0  0  0  0  0
    7.7613   -1.6927   20.6730 H   0  0  0  0  0  0  0  0  0  0  0  0
    6.7605   -0.8860   21.8649 H   0  0  0  0  0  0  0  0  0  0  0  0
    8.6091    0.1111   21.4278 C   0  0  0  0  0  0  0  0  0  0  0  0
    9.9768   -0.0881   21.1392 C   0  0  0  0  0  0  0  0  0  0  0  0
   10.4464   -0.9331   20.6442 H   0  0  0  0  0  0  0  0  0  0  0  0
   10.7189    0.9455   21.5128 N   0  0  0  0  0  0  0  0  0  0  0  0
    9.8382    1.8147   22.0345 N   0  0  0  0  0  0  0  0  0  0  0  0
   10.1733    2.6871   22.4287 H   0  0  0  0  0  0  0  0  0  0  0  0
    8.5575    1.3566   22.0348 C   0  0  0  0  0  0  0  0  0  0  0  0
    7.4079    2.1618   22.5106 C   0  0  0  0  0  0  0  0  0  0  0  0
    7.1407    3.3925   21.8912 C   0  0  0  0  0  0  0  0  0  0  0  0
    7.9420    3.7941   21.2857 H   0  0  0  0  0  0  0  0  0  0  0  0
    5.9576    4.0946   22.1080 C   0  0  0  0  0  0  0  0  0  0  0  0
    5.7035    4.9792   21.5290 H   0  0  0  0  0  0  0  0  0  0  0  0
    5.0881    3.6391   23.1071 C   0  0  0  0  0  0  0  0  0  0  0  0
    3.6758    4.5752   23.5054 Cl  0  0  0  0  0  0  0  0  0  0  0  0
    5.3731    2.4902   23.8467 C   0  0  0  0  0  0  0  0  0  0  0  0
    4.7295    2.1853   24.6741 H   0  0  0  0  0  0  0  0  0  0  0  0
    6.5177    1.7556   23.5251 C   0  0  0  0  0  0  0  0  0  0  0  0
    6.8677    0.3460   24.4896 Cl  0  0  0  0  0  0  0  0  0  0  0  0
    5.4241    0.6493   20.1456 C   0  0  0  0  0  0  0  0  0  0  0  0
    5.0078    0.6453   21.1553 H   0  0  0  0  0  0  0  0  0  0  0  0
    4.7929    1.3190   19.0937 C   0  0  0  0  0  0  0  0  0  0  0  0
    3.8620    1.8543   19.2337 H   0  0  0  0  0  0  0  0  0  0  0  0
  1  2  1  0
  2  3  2  0
  3  4  1  0
  4  5  1  0
  4  6  2  0
  6  7  1  0
  7  8  1  0
  7  9  1  0
  7 10  1  0
 10 11  1  0
 11 12  1  0
 11 13  2  0
 13 14  1  0
 14 15  1  0
 14 16  1  0
 16 17  1  0
 17 18  2  0
 18 19  1  0
 18 20  1  0
 20 21  1  0
 20 22  2  0
 22 23  1  0
 22 24  1  0
 24 25  1  0
 24 26  2  0
 26 27  1  0
  6 28  1  0
 28 29  1  0
 28 30  2  0
 30 31  1  0
 30  2  1  0
 16 10  2  0
 26 17  1  0
M  END
>  <cnnaffinity>  (1) 
-5.20913

>  <filename>  (1) 
Clc1ccc(-c2[nH]ncc2Cc2cccnc2)c(Cl)c1

$$$$
