
     RDKit          3D

 38 41  0  0  0  0  0  0  0  0999 V2000
    5.2180    1.7487   16.8988 H   0  0  0  0  0  0  0  0  0  0  0  0
    5.6369    1.2074   17.7457 C   0  0  0  0  0  0  0  0  0  0  0  0
    6.8003    0.5763   17.5261 N   0  0  0  0  0  0  0  0  0  0  0  0
    7.3456   -0.0788   18.5625 C   0  0  0  0  0  0  0  0  0  0  0  0
    8.2911   -0.5827   18.3542 H   0  0  0  0  0  0  0  0  0  0  0  0
    6.7819   -0.1534   19.8534 C   0  0  0  0  0  0  0  0  0  0  0  0
    7.4462   -0.8683   20.9793 C   0  0  0  0  0  0  0  0  0  0  0  0
    8.6609   -0.5198   21.6573 C   0  0  0  0  0  0  0  0  0  0  0  0
    9.5511    0.6377   21.3463 C   0  0  0  0  0  0  0  0  0  0  0  0
   10.5605    0.4398   21.7104 H   0  0  0  0  0  0  0  0  0  0  0  0
    9.6138    0.7700   20.2587 H   0  0  0  0  0  0  0  0  0  0  0  0
    8.9908    1.9523   22.0144 C   0  0  0  0  0  0  0  0  0  0  0  0
    9.5414    2.3969   23.2536 C   0  0  0  0  0  0  0  0  0  0  0  0
   10.3684    1.8897   23.7485 H   0  0  0  0  0  0  0  0  0  0  0  0
    8.8934    3.6348   23.8273 C   0  0  0  0  0  0  0  0  0  0  0  0
    9.4102    3.9242   24.7859 H   0  0  0  0  0  0  0  0  0  0  0  0
    7.7007    4.3348   23.2489 C   0  0  0  0  0  0  0  0  0  0  0  0
    7.6713    5.5306   23.5745 H   0  0  0  0  0  0  0  0  0  0  0  0
    7.7503    4.3099   23.4309 C   0  0  0  0  0  0  0  0  0  0  0  0
    6.5937    4.9116   21.6501 Cl  0  0  0  0  0  0  0  0  0  0  0  0
    7.9445    2.6839   21.5671 C   0  0  0  0  0  0  0  0  0  0  0  0
    7.3110    2.4501   20.7003 H   0  0  0  0  0  0  0  0  0  0  0  0
    8.8667   -1.2718   22.7343 N   0  0  0  0  0  0  0  0  0  0  0  0
    7.8156   -2.0907   22.7442 N   0  0  0  0  0  0  0  0  0  0  0  0
    6.9487   -1.9185   21.7368 C   0  0  0  0  0  0  0  0  0  0  0  0
    5.8515   -2.9423   21.8472 C   0  0  0  0  0  0  0  0  0  0  0  0
    6.0408   -3.7500   21.1296 H   0  0  0  0  0  0  0  0  0  0  0  0
    4.8672   -2.5235   21.6378 H   0  0  0  0  0  0  0  0  0  0  0  0
    5.9919   -3.4102   23.3192 C   0  0  0  0  0  0  0  0  0  0  0  0
    5.7665   -4.4687   23.4461 H   0  0  0  0  0  0  0  0  0  0  0  0
    5.2915   -2.8454   23.9404 H   0  0  0  0  0  0  0  0  0  0  0  0
    7.4422   -3.0599   23.7455 C   0  0  0  0  0  0  0  0  0  0  0  0
    7.4924   -2.6224   24.7454 H   0  0  0  0  0  0  0  0  0  0  0  0
    8.1282   -3.9080   23.7148 H   0  0  0  0  0  0  0  0  0  0  0  0
    5.5528    0.5014   20.0436 C   0  0  0  0  0  0  0  0  0  0  0  0
    5.0793    0.4984   21.0284 H   0  0  0  0  0  0  0  0  0  0  0  0
    4.9760    1.1961   18.9787 C   0  0  0  0  0  0  0  0  0  0  0  0
    4.0436    1.7391   19.0969 H   0  0  0  0  0  0  0  0  0  0  0  0
  1  2  1  0
  2  3  2  0
  3  4  1  0
  4  5  1  0
  4  6  2  0
  6  7  1  0
  7  8  1  0
  8  9  1  0
  9 10  1  0
  9 11  1  0
  9 12  1  0
 12 13  2  0
 13 14  1  0
 13 15  1  0
 15 16  1  0
 15 17  2  0
 17 18  1  0
 17 19  1  0
 19 20  1  0
 19 21  2  0
 21 22  1  0
  8 23  2  0
 23 24  1  0
 24 25  1  0
 25 26  1  0
 26 27  1  0
 26 28  1  0
 26 29  1  0
 29 30  1  0
 29 31  1  0
 29 32  1  0
 32 33  1  0
 32 34  1  0
  6 35  1  0
 35 36  1  0
 35 37  2  0
 37 38  1  0
 37  2  1  0
 25  7  2  0
 21 12  1  0
 32 24  1  0
M  END
>  <cnnaffinity>  (1) 
-5.49173

>  <filename>  (1) 
Clc1cccc(Cc2nn3c(c2-c2cccnc2)CCC3)c1

$$$$
