
     RDKit          3D

 30 32  0  0  0  0  0  0  0  0999 V2000
    4.9258    1.7846   16.9944 H   0  0  0  0  0  0  0  0  0  0  0  0
    5.4049    1.2922   17.8369 C   0  0  0  0  0  0  0  0  0  0  0  0
    6.5710    0.6748   17.5819 N   0  0  0  0  0  0  0  0  0  0  0  0
    7.1790    0.0472   18.5914 C   0  0  0  0  0  0  0  0  0  0  0  0
    8.1270   -0.4382   18.3752 H   0  0  0  0  0  0  0  0  0  0  0  0
    6.6514    0.0029   19.8970 C   0  0  0  0  0  0  0  0  0  0  0  0
    7.3652   -0.6651   20.9390 N   0  0  0  0  0  0  0  0  0  0  0  0
    7.9991   -1.8394   20.7321 N   0  0  0  0  0  0  0  0  0  0  0  0
    8.5274   -2.1779   21.8453 N   0  0  0  0  0  0  0  0  0  0  0  0
    8.2737   -1.2674   22.8121 N   0  0  0  0  0  0  0  0  0  0  0  0
    7.5652   -0.3197   22.2377 C   0  0  0  0  0  0  0  0  0  0  0  0
    7.1393    1.2438   22.9445 S   0  0  0  0  0  0  0  0  0  0  0  0
    8.5191    2.2284   22.2012 C   0  0  0  0  0  0  0  0  0  0  0  0
    8.4690    2.1167   21.1167 H   0  0  0  0  0  0  0  0  0  0  0  0
    8.2853    3.2716   22.4401 H   0  0  0  0  0  0  0  0  0  0  0  0
    9.8623    1.8096   22.7428 C   0  0  0  0  0  0  0  0  0  0  0  0
   10.1963    2.1545   24.0575 C   0  0  0  0  0  0  0  0  0  0  0  0
    9.5182    2.7529   24.6587 H   0  0  0  0  0  0  0  0  0  0  0  0
   11.3927    1.7276   24.6135 C   0  0  0  0  0  0  0  0  0  0  0  0
   11.6703    2.0018   25.6148 H   0  0  0  0  0  0  0  0  0  0  0  0
   12.2619    0.9237   23.8796 C   0  0  0  0  0  0  0  0  0  0  0  0
   13.7537    0.4445   24.5925 Cl  0  0  0  0  0  0  0  0  0  0  0  0
   11.9104    0.5018   22.5936 C   0  0  0  0  0  0  0  0  0  0  0  0
   12.8901   -0.7000   21.8193 Cl  0  0  0  0  0  0  0  0  0  0  0  0
   10.7306    0.9817   22.0109 C   0  0  0  0  0  0  0  0  0  0  0  0
   10.4457    0.6321   21.0228 H   0  0  0  0  0  0  0  0  0  0  0  0
    5.4349    0.6373   20.1638 C   0  0  0  0  0  0  0  0  0  0  0  0
    4.9998    0.6276   21.1661 H   0  0  0  0  0  0  0  0  0  0  0  0
    4.8111    1.3009   19.1044 C   0  0  0  0  0  0  0  0  0  0  0  0
    3.8825    1.8353   19.2587 H   0  0  0  0  0  0  0  0  0  0  0  0
  1  2  1  0
  2  3  2  0
  3  4  1  0
  4  5  1  0
  4  6  2  0
  6  7  1  0
  7  8  1  0
  8  9  2  0
  9 10  1  0
 10 11  2  0
 11 12  1  0
 12 13  1  0
 13 14  1  0
 13 15  1  0
 13 16  1  0
 16 17  2  0
 17 18  1  0
 17 19  1  0
 19 20  1  0
 19 21  2  0
 21 22  1  0
 21 23  1  0
 23 24  1  0
 23 25  2  0
 25 26  1  0
  6 27  1  0
 27 28  1  0
 27 29  2  0
 29 30  1  0
 29  2  1  0
 11  7  1  0
 25 16  1  0
M  END
>  <cnnaffinity>  (1) 
-5.95456

>  <filename>  (1) 
Clc1ccc(CSc2nnnn2-c2cccnc2)cc1Cl

$$$$
