
     RDKit          3D

 31 33  0  0  0  0  0  0  0  0999 V2000
    4.9224    1.7792   16.9980 H   0  0  0  0  0  0  0  0  0  0  0  0
    5.4059    1.2910   17.8408 C   0  0  0  0  0  0  0  0  0  0  0  0
    6.5711    0.6752   17.5852 N   0  0  0  0  0  0  0  0  0  0  0  0
    7.1662    0.0420   18.5992 C   0  0  0  0  0  0  0  0  0  0  0  0
    8.1170   -0.4347   18.3773 H   0  0  0  0  0  0  0  0  0  0  0  0
    6.6452   -0.0106   19.8986 C   0  0  0  0  0  0  0  0  0  0  0  0
    7.3829   -0.7215   20.9373 C   0  0  0  0  0  0  0  0  0  0  0  0
    7.8884   -1.9842   20.7801 N   0  0  0  0  0  0  0  0  0  0  0  0
    8.4636   -2.2840   21.9125 C   0  0  0  0  0  0  0  0  0  0  0  0
    8.9713   -3.2193   22.1299 H   0  0  0  0  0  0  0  0  0  0  0  0
    8.3826   -1.2513   22.7916 N   0  0  0  0  0  0  0  0  0  0  0  0
    8.7745   -1.2289   23.7130 H   0  0  0  0  0  0  0  0  0  0  0  0
    7.7069   -0.2258   22.1787 C   0  0  0  0  0  0  0  0  0  0  0  0
    7.5493    1.1304   22.7937 C   0  0  0  0  0  0  0  0  0  0  0  0
    8.5281    1.6291   22.7862 H   0  0  0  0  0  0  0  0  0  0  0  0
    6.9091    1.7318   22.1431 H   0  0  0  0  0  0  0  0  0  0  0  0
    6.9884    1.0805   24.1923 C   0  0  0  0  0  0  0  0  0  0  0  0
    7.8436    1.1238   25.2976 C   0  0  0  0  0  0  0  0  0  0  0  0
    8.9124    1.2356   25.1382 H   0  0  0  0  0  0  0  0  0  0  0  0
    7.3365    1.0434   26.5917 C   0  0  0  0  0  0  0  0  0  0  0  0
    8.0005    1.0961   27.4468 H   0  0  0  0  0  0  0  0  0  0  0  0
    5.9602    0.8987   26.7933 C   0  0  0  0  0  0  0  0  0  0  0  0
    5.3711    0.8085   28.4165 Cl  0  0  0  0  0  0  0  0  0  0  0  0
    5.0940    0.8269   25.6901 C   0  0  0  0  0  0  0  0  0  0  0  0
    3.3841    0.6400   25.8823 Cl  0  0  0  0  0  0  0  0  0  0  0  0
    5.6152    0.9138   24.3979 C   0  0  0  0  0  0  0  0  0  0  0  0
    4.9335    0.8475   23.5550 H   0  0  0  0  0  0  0  0  0  0  0  0
    5.4344    0.6531   20.1541 C   0  0  0  0  0  0  0  0  0  0  0  0
    4.9922    0.6344   21.1549 H   0  0  0  0  0  0  0  0  0  0  0  0
    4.8012    1.3087   19.1031 C   0  0  0  0  0  0  0  0  0  0  0  0
    3.8705    1.8446   19.2595 H   0  0  0  0  0  0  0  0  0  0  0  0
  1  2  1  0
  2  3  2  0
  3  4  1  0
  4  5  1  0
  4  6  2  0
  6  7  1  0
  7  8  1  0
  8  9  2  0
  9 10  1  0
  9 11  1  0
 11 12  1  0
 11 13  1  0
 13 14  1  0
 14 15  1  0
 14 16  1  0
 14 17  1  0
 17 18  2  0
 18 19  1  0
 18 20  1  0
 20 21  1  0
 20 22  2  0
 22 23  1  0
 22 24  1  0
 24 25  1  0
 24 26  2  0
 26 27  1  0
  6 28  1  0
 28 29  1  0
 28 30  2  0
 30 31  1  0
 30  2  1  0
 13  7  2  0
 26 17  1  0
M  END
>  <cnnaffinity>  (1) 
-5.45833

>  <filename>  (1) 
Clc1ccc(Cc2[nH]cnc2-c2cccnc2)cc1Cl

$$$$
