
     RDKit          3D

 30 32  0  0  0  0  0  0  0  0999 V2000
    4.9859    1.8093   16.9418 H   0  0  0  0  0  0  0  0  0  0  0  0
    5.4239    1.2987   17.7955 C   0  0  0  0  0  0  0  0  0  0  0  0
    6.5867    0.6646   17.5756 N   0  0  0  0  0  0  0  0  0  0  0  0
    7.1516    0.0470   18.6178 C   0  0  0  0  0  0  0  0  0  0  0  0
    8.1080   -0.4430   18.4359 H   0  0  0  0  0  0  0  0  0  0  0  0
    6.5783    0.0099   19.9001 C   0  0  0  0  0  0  0  0  0  0  0  0
    7.3085   -0.7227   20.9284 C   0  0  0  0  0  0  0  0  0  0  0  0
    8.5626   -1.1195   20.8186 N   0  0  0  0  0  0  0  0  0  0  0  0
    8.8157   -1.6951   22.0226 C   0  0  0  0  0  0  0  0  0  0  0  0
   10.1728   -2.1955   22.3959 C   0  0  0  0  0  0  0  0  0  0  0  0
   10.5977   -2.6907   21.5228 H   0  0  0  0  0  0  0  0  0  0  0  0
   10.0749   -2.9412   23.1876 H   0  0  0  0  0  0  0  0  0  0  0  0
   11.0895   -1.0744   22.8403 C   0  0  0  0  0  0  0  0  0  0  0  0
   12.0840   -0.6042   21.9743 C   0  0  0  0  0  0  0  0  0  0  0  0
   12.1403   -1.0085   20.9673 H   0  0  0  0  0  0  0  0  0  0  0  0
   13.0029    0.3670   22.3688 C   0  0  0  0  0  0  0  0  0  0  0  0
   13.7975    0.6385   21.6869 H   0  0  0  0  0  0  0  0  0  0  0  0
   12.9325    0.9123   23.6512 C   0  0  0  0  0  0  0  0  0  0  0  0
   13.6413    1.6695   23.9741 H   0  0  0  0  0  0  0  0  0  0  0  0
   11.9328    0.4789   24.5229 C   0  0  0  0  0  0  0  0  0  0  0  0
   11.8603    0.8418   25.5381 H   0  0  0  0  0  0  0  0  0  0  0  0
   11.0034   -0.4759   24.1088 C   0  0  0  0  0  0  0  0  0  0  0  0
    9.7550   -0.8875   25.2469 Cl  0  0  0  0  0  0  0  0  0  0  0  0
    7.7939   -1.7180   22.8471 N   0  0  0  0  0  0  0  0  0  0  0  0
    6.8265   -1.0868   22.1342 N   0  0  0  0  0  0  0  0  0  0  0  0
    5.9096   -0.9291   22.5322 H   0  0  0  0  0  0  0  0  0  0  0  0
    5.3712    0.6909   20.1207 C   0  0  0  0  0  0  0  0  0  0  0  0
    4.9171    0.7463   21.1131 H   0  0  0  0  0  0  0  0  0  0  0  0
    4.7817    1.3376   19.0387 C   0  0  0  0  0  0  0  0  0  0  0  0
    3.8464    1.8721   19.1555 H   0  0  0  0  0  0  0  0  0  0  0  0
  1  2  1  0
  2  3  2  0
  3  4  1  0
  4  5  1  0
  4  6  2  0
  6  7  1  0
  7  8  2  0
  8  9  1  0
  9 10  1  0
 10 11  1  0
 10 12  1  0
 10 13  1  0
 13 14  2  0
 14 15  1  0
 14 16  1  0
 16 17  1  0
 16 18  2  0
 18 19  1  0
 18 20  1  0
 20 21  1  0
 20 22  2  0
 22 23  1  0
  9 24  2  0
 24 25  1  0
 25 26  1  0
  6 27  1  0
 27 28  1  0
 27 29  2  0
 29 30  1  0
 29  2  1  0
 25  7  1  0
 22 13  1  0
M  END
>  <cnnaffinity>  (1) 
-5.56231

>  <filename>  (1) 
Clc1ccccc1Cc1n[nH]c(-c2cccnc2)n1

$$$$
