
     RDKit          3D

 32 34  0  0  0  0  0  0  0  0999 V2000
    4.9182    1.7805   16.9991 H   0  0  0  0  0  0  0  0  0  0  0  0
    5.4061    1.2889   17.8425 C   0  0  0  0  0  0  0  0  0  0  0  0
    6.5658    0.6681   17.5874 N   0  0  0  0  0  0  0  0  0  0  0  0
    7.1881    0.0556   18.6025 C   0  0  0  0  0  0  0  0  0  0  0  0
    8.1289   -0.4379   18.3688 H   0  0  0  0  0  0  0  0  0  0  0  0
    6.6870    0.0152   19.9167 C   0  0  0  0  0  0  0  0  0  0  0  0
    7.2838   -0.6839   20.9460 O   0  0  0  0  0  0  0  0  0  0  0  0
    8.6489   -0.7431   21.0935 C   0  0  0  0  0  0  0  0  0  0  0  0
    9.6770    0.0956   20.6218 C   0  0  0  0  0  0  0  0  0  0  0  0
    9.5848    0.9360   19.9567 H   0  0  0  0  0  0  0  0  0  0  0  0
   10.8591   -0.2746   21.1005 N   0  0  0  0  0  0  0  0  0  0  0  0
   10.5845   -1.3327   21.8636 N   0  0  0  0  0  0  0  0  0  0  0  0
   11.3379   -1.7769   22.3626 H   0  0  0  0  0  0  0  0  0  0  0  0
    9.2711   -1.6715   21.9012 C   0  0  0  0  0  0  0  0  0  0  0  0
    8.6948   -2.7114   22.7980 C   0  0  0  0  0  0  0  0  0  0  0  0
    9.4287   -3.5090   22.9808 H   0  0  0  0  0  0  0  0  0  0  0  0
    7.8513   -3.1666   22.2685 H   0  0  0  0  0  0  0  0  0  0  0  0
    8.2229   -2.0996   24.1013 C   0  0  0  0  0  0  0  0  0  0  0  0
    6.9221   -1.5979   24.2239 C   0  0  0  0  0  0  0  0  0  0  0  0
    6.2364   -1.6828   23.3885 H   0  0  0  0  0  0  0  0  0  0  0  0
    6.5044   -0.9906   25.4063 C   0  0  0  0  0  0  0  0  0  0  0  0
    5.4905   -0.6234   25.5167 H   0  0  0  0  0  0  0  0  0  0  0  0
    7.3943   -0.8558   26.4750 C   0  0  0  0  0  0  0  0  0  0  0  0
    6.8378   -0.1031   27.9311 Cl  0  0  0  0  0  0  0  0  0  0  0  0
    8.7119   -1.3207   26.3483 C   0  0  0  0  0  0  0  0  0  0  0  0
    9.8403   -1.1498   27.6435 Cl  0  0  0  0  0  0  0  0  0  0  0  0
    9.1187   -1.9329   25.1600 C   0  0  0  0  0  0  0  0  0  0  0  0
   10.1419   -2.2777   25.0624 H   0  0  0  0  0  0  0  0  0  0  0  0
    5.4610    0.6426   20.1737 C   0  0  0  0  0  0  0  0  0  0  0  0
    5.0312    0.6125   21.1751 H   0  0  0  0  0  0  0  0  0  0  0  0
    4.8225    1.3002   19.1152 C   0  0  0  0  0  0  0  0  0  0  0  0
    3.8879    1.8307   19.2667 H   0  0  0  0  0  0  0  0  0  0  0  0
  1  2  1  0
  2  3  2  0
  3  4  1  0
  4  5  1  0
  4  6  2  0
  6  7  1  0
  7  8  1  0
  8  9  1  0
  9 10  1  0
  9 11  2  0
 11 12  1  0
 12 13  1  0
 12 14  1  0
 14 15  1  0
 15 16  1  0
 15 17  1  0
 15 18  1  0
 18 19  2  0
 19 20  1  0
 19 21  1  0
 21 22  1  0
 21 23  2  0
 23 24  1  0
 23 25  1  0
 25 26  1  0
 25 27  2  0
 27 28  1  0
  6 29  1  0
 29 30  1  0
 29 31  2  0
 31 32  1  0
 31  2  1  0
 14  8  2  0
 27 18  1  0
M  END
>  <cnnaffinity>  (1) 
-5.52584

>  <filename>  (1) 
Clc1ccc(Cc2[nH]ncc2Oc2cccnc2)cc1Cl

$$$$
