
     RDKit          3D

 32 35  0  0  0  0  0  0  0  0999 V2000
    4.9972    1.8339   17.2512 H   0  0  0  0  0  0  0  0  0  0  0  0
    5.4841    1.1958   17.9875 C   0  0  0  0  0  0  0  0  0  0  0  0
    6.5911    0.5571   17.5755 N   0  0  0  0  0  0  0  0  0  0  0  0
    7.2459   -0.1875   18.4736 C   0  0  0  0  0  0  0  0  0  0  0  0
    8.1475   -0.6846   18.1079 H   0  0  0  0  0  0  0  0  0  0  0  0
    6.8336   -0.3442   19.8170 C   0  0  0  0  0  0  0  0  0  0  0  0
    7.7019   -1.0048   20.8026 C   0  0  0  0  0  0  0  0  0  0  0  0
    9.0504   -0.8707   21.0299 C   0  0  0  0  0  0  0  0  0  0  0  0
    9.7188   -0.2692   20.4239 H   0  0  0  0  0  0  0  0  0  0  0  0
    9.4701   -1.5197   22.1634 N   0  0  0  0  0  0  0  0  0  0  0  0
    8.3616   -2.0301   22.6376 C   0  0  0  0  0  0  0  0  0  0  0  0
    7.8858   -2.8473   24.1026 S   0  0  0  0  0  0  0  0  0  0  0  0
    6.2449   -2.7226   23.5067 C   0  0  0  0  0  0  0  0  0  0  0  0
    5.1263   -3.0837   24.1799 N   0  0  0  0  0  0  0  0  0  0  0  0
    4.3673   -2.5459   23.7849 H   0  0  0  0  0  0  0  0  0  0  0  0
    4.8974   -3.9161   25.2846 C   0  0  0  0  0  0  0  0  0  0  0  0
    5.4055   -5.2187   25.3560 C   0  0  0  0  0  0  0  0  0  0  0  0
    6.0319   -5.5816   24.5486 H   0  0  0  0  0  0  0  0  0  0  0  0
    5.0688   -6.0537   26.4298 C   0  0  0  0  0  0  0  0  0  0  0  0
    5.4513   -7.0693   26.4887 H   0  0  0  0  0  0  0  0  0  0  0  0
    4.2336   -5.5746   27.4426 C   0  0  0  0  0  0  0  0  0  0  0  0
    3.8623   -6.5904   28.8097 Cl  0  0  0  0  0  0  0  0  0  0  0  0
    3.7127   -4.2790   27.3807 C   0  0  0  0  0  0  0  0  0  0  0  0
    3.0592   -3.9276   28.1732 H   0  0  0  0  0  0  0  0  0  0  0  0
    4.0445   -3.4567   26.2969 C   0  0  0  0  0  0  0  0  0  0  0  0
    3.6448   -2.4516   26.2185 H   0  0  0  0  0  0  0  0  0  0  0  0
    6.0575   -2.1569   22.3450 N   0  0  0  0  0  0  0  0  0  0  0  0
    7.2714   -1.7803   21.8653 N   0  0  0  0  0  0  0  0  0  0  0  0
    5.6219    0.2590   20.1977 C   0  0  0  0  0  0  0  0  0  0  0  0
    5.2320    0.0874   21.2017 H   0  0  0  0  0  0  0  0  0  0  0  0
    4.9562    1.0652   19.2771 C   0  0  0  0  0  0  0  0  0  0  0  0
    4.0527    1.6031   19.5439 H   0  0  0  0  0  0  0  0  0  0  0  0
  1  2  1  0
  2  3  2  0
  3  4  1  0
  4  5  1  0
  4  6  2  0
  6  7  1  0
  7  8  2  0
  8  9  1  0
  8 10  1  0
 10 11  2  0
 11 12  1  0
 12 13  1  0
 13 14  1  0
 14 15  1  0
 14 16  1  0
 16 17  2  0
 17 18  1  0
 17 19  1  0
 19 20  1  0
 19 21  2  0
 21 22  1  0
 21 23  1  0
 23 24  1  0
 23 25  2  0
 25 26  1  0
 13 27  2  0
 27 28  1  0
  6 29  1  0
 29 30  1  0
 29 31  2  0
 31 32  1  0
 31  2  1  0
 28  7  1  0
 28 11  1  0
 25 16  1  0
M  END
>  <cnnaffinity>  (1) 
-5.37545

>  <filename>  (1) 
Clc1ccc(Nc2nn3c(-c4cccnc4)cnc3s2)cc1

$$$$
