
     RDKit          3D

 20 21  0  0  0  0  0  0  0  0999 V2000
    9.0617   -3.0952   22.1562 H   0  0  0  0  0  0  0  0  0  0  0  0
    8.4973   -2.2164   21.8793 C   0  0  0  0  0  0  0  0  0  0  0  0
    8.0059   -1.9271   20.7270 N   0  0  0  0  0  0  0  0  0  0  0  0
    7.3810   -0.7039   20.9359 C   0  0  0  0  0  0  0  0  0  0  0  0
    6.6505    0.0031   19.8985 C   0  0  0  0  0  0  0  0  0  0  0  0
    7.1676    0.0462   18.5936 C   0  0  0  0  0  0  0  0  0  0  0  0
    8.1197   -0.4336   18.3752 H   0  0  0  0  0  0  0  0  0  0  0  0
    6.5734    0.6757   17.5742 N   0  0  0  0  0  0  0  0  0  0  0  0
    5.4073    1.2917   17.8416 C   0  0  0  0  0  0  0  0  0  0  0  0
    4.9198    1.7778   16.9988 H   0  0  0  0  0  0  0  0  0  0  0  0
    4.8013    1.3096   19.1062 C   0  0  0  0  0  0  0  0  0  0  0  0
    3.8684    1.8459   19.2609 H   0  0  0  0  0  0  0  0  0  0  0  0
    5.4374    0.6583   20.1606 C   0  0  0  0  0  0  0  0  0  0  0  0
    4.9960    0.6309   21.1647 H   0  0  0  0  0  0  0  0  0  0  0  0
    7.5896   -0.3061   22.2195 C   0  0  0  0  0  0  0  0  0  0  0  0
    7.2051    0.9166   22.9572 C   0  0  0  0  0  0  0  0  0  0  0  0
    7.9966    1.2683   23.6185 H   0  0  0  0  0  0  0  0  0  0  0  0
    6.9534    1.7024   22.2474 H   0  0  0  0  0  0  0  0  0  0  0  0
    5.7461    0.6646   23.9719 Cl  0  0  0  0  0  0  0  0  0  0  0  0
    8.3037   -1.2857   22.8375 O   0  0  0  0  0  0  0  0  0  0  0  0
  1  2  1  0
  2  3  2  0
  3  4  1  0
  4  5  1  0
  5  6  2  0
  6  7  1  0
  6  8  1  0
  8  9  2  0
  9 10  1  0
  9 11  1  0
 11 12  1  0
 11 13  2  0
 13 14  1  0
  4 15  2  0
 15 16  1  0
 16 17  1  0
 16 18  1  0
 16 19  1  0
 15 20  1  0
 20  2  1  0
 13  5  1  0
M  END
>  <cnnaffinity>  (1) 
-4.21445

>  <filename>  (1) 
ClCc1ocnc1-c1cccnc1

$$$$
