
     RDKit          3D

 32 33  0  0  0  0  0  0  0  0999 V2000
    8.7241   -0.7264   21.0510 C   0  0  0  0  0  0  0  0  0  0  0  0
    7.2616   -0.7169   20.9552 N   0  0  0  0  0  0  0  0  0  0  0  0
    6.4843   -1.5732   21.7908 C   0  0  0  0  0  0  0  0  0  0  0  0
    5.6744   -2.3573   21.3411 O   0  0  0  0  0  0  0  0  0  0  0  0
    6.7255   -1.4581   23.2784 C   0  0  0  0  0  0  0  0  0  0  0  0
    7.2116   -0.2682   23.8400 C   0  0  0  0  0  0  0  0  0  0  0  0
    7.3544   -0.1488   25.2262 C   0  0  0  0  0  0  0  0  0  0  0  0
    8.1933    1.2792   25.8604 S   0  0  0  0  0  0  0  0  0  0  0  0
    9.9142    0.6789   25.5827 C   0  0  0  0  0  0  0  0  0  0  0  0
   10.2337   -0.2606   26.4684 F   0  0  0  0  0  0  0  0  0  0  0  0
   10.7295    1.7205   25.7230 F   0  0  0  0  0  0  0  0  0  0  0  0
   10.0886    0.1722   24.3585 F   0  0  0  0  0  0  0  0  0  0  0  0
    6.9918   -1.2042   26.0737 C   0  0  0  0  0  0  0  0  0  0  0  0
    6.5232   -2.3986   25.5141 C   0  0  0  0  0  0  0  0  0  0  0  0
    6.3840   -2.5266   24.1310 C   0  0  0  0  0  0  0  0  0  0  0  0
    6.0313   -3.4638   23.7069 H   0  0  0  0  0  0  0  0  0  0  0  0
    6.2783   -3.2357   26.1608 H   0  0  0  0  0  0  0  0  0  0  0  0
    7.0872   -1.0919   27.1529 H   0  0  0  0  0  0  0  0  0  0  0  0
    7.5265    0.5646   23.2146 H   0  0  0  0  0  0  0  0  0  0  0  0
    6.6336   -0.0389   19.8683 C   0  0  0  0  0  0  0  0  0  0  0  0
    5.4111    0.6224   20.0815 C   0  0  0  0  0  0  0  0  0  0  0  0
    4.8178    1.3110   19.0249 C   0  0  0  0  0  0  0  0  0  0  0  0
    5.4484    1.3174   17.7777 C   0  0  0  0  0  0  0  0  0  0  0  0
    6.6173    0.7011   17.5501 N   0  0  0  0  0  0  0  0  0  0  0  0
    7.2006    0.0597   18.5742 C   0  0  0  0  0  0  0  0  0  0  0  0
    8.1635   -0.4040   18.3641 H   0  0  0  0  0  0  0  0  0  0  0  0
    4.9962    1.8403   16.9369 H   0  0  0  0  0  0  0  0  0  0  0  0
    3.8829    1.8418   19.1629 H   0  0  0  0  0  0  0  0  0  0  0  0
    4.9628    0.6151   21.0737 H   0  0  0  0  0  0  0  0  0  0  0  0
    9.1768   -1.5098   20.4218 H   0  0  0  0  0  0  0  0  0  0  0  0
    9.0499   -0.8955   22.0815 H   0  0  0  0  0  0  0  0  0  0  0  0
    9.1245    0.2422   20.7295 H   0  0  0  0  0  0  0  0  0  0  0  0
  1  2  1  0
  2  3  1  0
  3  4  2  0
  3  5  1  0
  5  6  2  0
  6  7  1  0
  7  8  1  0
  8  9  1  0
  9 10  1  0
  9 11  1  0
  9 12  1  0
  7 13  2  0
 13 14  1  0
 14 15  2  0
 15 16  1  0
 14 17  1  0
 13 18  1  0
  6 19  1  0
  2 20  1  0
 20 21  2  0
 21 22  1  0
 22 23  2  0
 23 24  1  0
 24 25  2  0
 25 26  1  0
 23 27  1  0
 22 28  1  0
 21 29  1  0
  1 30  1  0
  1 31  1  0
  1 32  1  0
 15  5  1  0
 25 20  1  0
M  END
>  <cnnaffinity>  (1) 
-5.09718

>  <filename>  (1) 
CN(C(=O)c1cccc(SC(F)(F)F)c1)c1cccnc1

$$$$
