
     RDKit          3D

 35 36  0  0  0  0  0  0  0  0999 V2000
    4.9250    1.7431   16.9862 H   0  0  0  0  0  0  0  0  0  0  0  0
    5.4179    1.3082   17.8546 C   0  0  0  0  0  0  0  0  0  0  0  0
    6.5983    0.7123   17.6236 N   0  0  0  0  0  0  0  0  0  0  0  0
    7.2086    0.1343   18.6649 C   0  0  0  0  0  0  0  0  0  0  0  0
    8.1464   -0.3771   18.4612 H   0  0  0  0  0  0  0  0  0  0  0  0
    6.7183    0.1393   19.9891 C   0  0  0  0  0  0  0  0  0  0  0  0
    7.4112   -0.5662   21.0300 N   0  0  0  0  0  0  0  0  0  0  0  0
    7.8856   -0.0179   22.2168 C   0  0  0  0  0  0  0  0  0  0  0  0
    8.6393   -0.5912   22.9586 O   0  0  0  0  0  0  0  0  0  0  0  0
    7.3491    1.2430   22.4394 O   0  0  0  0  0  0  0  0  0  0  0  0
    7.6054    1.7823   23.7325 N   0  0  0  0  0  0  0  0  0  0  0  0
    7.5511    2.7870   23.6191 H   0  0  0  0  0  0  0  0  0  0  0  0
    6.6066    1.4632   24.7012 C   0  0  0  0  0  0  0  0  0  0  0  0
    5.7385    0.6409   24.5671 O   0  0  0  0  0  0  0  0  0  0  0  0
    6.8584    2.2183   25.8289 N   0  0  0  0  0  0  0  0  0  0  0  0
    7.8122    2.5325   25.8880 H   0  0  0  0  0  0  0  0  0  0  0  0
    6.2224    1.9860   27.0640 C   0  0  0  0  0  0  0  0  0  0  0  0
    4.8736    1.6119   27.0821 C   0  0  0  0  0  0  0  0  0  0  0  0
    4.3562    1.4909   26.1395 H   0  0  0  0  0  0  0  0  0  0  0  0
    4.2383    1.3504   28.2911 C   0  0  0  0  0  0  0  0  0  0  0  0
    3.2051    1.0182   28.2922 H   0  0  0  0  0  0  0  0  0  0  0  0
    4.9512    1.4774   29.4875 C   0  0  0  0  0  0  0  0  0  0  0  0
    4.1407    1.1400   30.9891 Cl  0  0  0  0  0  0  0  0  0  0  0  0
    6.2996    1.8510   29.4828 C   0  0  0  0  0  0  0  0  0  0  0  0
    6.8432    1.9165   30.4217 H   0  0  0  0  0  0  0  0  0  0  0  0
    6.9364    2.1148   28.2631 C   0  0  0  0  0  0  0  0  0  0  0  0
    7.9893    2.3878   28.2400 H   0  0  0  0  0  0  0  0  0  0  0  0
    7.7565   -1.9740   20.7852 C   0  0  0  0  0  0  0  0  0  0  0  0
    7.7018   -2.5500   21.7135 H   0  0  0  0  0  0  0  0  0  0  0  0
    7.0424   -2.3909   20.0676 H   0  0  0  0  0  0  0  0  0  0  0  0
    8.7829   -2.0732   20.4056 H   0  0  0  0  0  0  0  0  0  0  0  0
    5.4901    0.7812   20.2129 C   0  0  0  0  0  0  0  0  0  0  0  0
    5.0674    0.8192   21.2153 H   0  0  0  0  0  0  0  0  0  0  0  0
    4.8228    1.3557   19.1207 C   0  0  0  0  0  0  0  0  0  0  0  0
    3.8557    1.8407   19.2328 H   0  0  0  0  0  0  0  0  0  0  0  0
  1  2  1  0
  2  3  2  0
  3  4  1  0
  4  5  1  0
  4  6  2  0
  6  7  1  0
  7  8  1  0
  8  9  2  0
  8 10  1  0
 10 11  1  0
 11 12  1  0
 11 13  1  0
 13 14  2  0
 13 15  1  0
 15 16  1  0
 15 17  1  0
 17 18  2  0
 18 19  1  0
 18 20  1  0
 20 21  1  0
 20 22  2  0
 22 23  1  0
 22 24  1  0
 24 25  1  0
 24 26  2  0
 26 27  1  0
  7 28  1  0
 28 29  1  0
 28 30  1  0
 28 31  1  0
  6 32  1  0
 32 33  1  0
 32 34  2  0
 34 35  1  0
 34  2  1  0
 26 17  1  0
M  END
>  <cnnaffinity>  (1) 
-4.59414

>  <filename>  (1) 
CN(C(=O)ONC(=O)Nc1ccc(Cl)cc1)c1cccnc1

$$$$
