
     RDKit          3D

 40 42  0  0  0  0  0  0  0  0999 V2000
    4.9088    1.7623   16.9564 H   0  0  0  0  0  0  0  0  0  0  0  0
    5.3741    1.3314   17.8408 C   0  0  0  0  0  0  0  0  0  0  0  0
    6.5574    0.7271   17.6542 N   0  0  0  0  0  0  0  0  0  0  0  0
    7.1323    0.1801   18.7250 C   0  0  0  0  0  0  0  0  0  0  0  0
    8.0903   -0.2993   18.5405 H   0  0  0  0  0  0  0  0  0  0  0  0
    6.6008    0.2052   20.0276 C   0  0  0  0  0  0  0  0  0  0  0  0
    7.3682   -0.4819   21.0823 C   0  0  0  0  0  0  0  0  0  0  0  0
    7.1237   -0.0425   22.3541 O   0  0  0  0  0  0  0  0  0  0  0  0
    7.7552   -0.6575   23.3991 C   0  0  0  0  0  0  0  0  0  0  0  0
    7.5069   -0.0952   24.5952 N   0  0  0  0  0  0  0  0  0  0  0  0
    8.1744   -0.5582   25.8086 C   0  0  0  0  0  0  0  0  0  0  0  0
    9.2617   -0.6291   25.6647 H   0  0  0  0  0  0  0  0  0  0  0  0
    7.8133   -1.5616   26.0855 H   0  0  0  0  0  0  0  0  0  0  0  0
    7.8231    0.5029   26.8427 C   0  0  0  0  0  0  0  0  0  0  0  0
    7.7255    0.0661   27.8415 H   0  0  0  0  0  0  0  0  0  0  0  0
    8.6041    1.2721   26.8781 H   0  0  0  0  0  0  0  0  0  0  0  0
    6.5171    1.1445   26.3452 C   0  0  1  0  0  0  0  0  0  0  0  0
    5.6713    0.5022   26.6661 H   0  0  0  0  0  0  0  0  0  0  0  0
    6.3326    2.5192   26.8097 N   0  0  0  0  0  0  0  0  0  0  0  0
    6.3511    2.6198   28.2628 C   0  0  0  0  0  0  0  0  0  0  0  0
    7.3123    2.2669   28.6571 H   0  0  0  0  0  0  0  0  0  0  0  0
    5.5452    2.0376   28.7501 H   0  0  0  0  0  0  0  0  0  0  0  0
    6.2469    3.6672   28.5667 H   0  0  0  0  0  0  0  0  0  0  0  0
    5.1580    3.1498   26.2166 C   0  0  0  0  0  0  0  0  0  0  0  0
    5.2498    3.1725   25.1243 H   0  0  0  0  0  0  0  0  0  0  0  0
    5.0812    4.1894   26.5510 H   0  0  0  0  0  0  0  0  0  0  0  0
    4.2139    2.6298   26.4655 H   0  0  0  0  0  0  0  0  0  0  0  0
    6.6346    1.0446   24.8153 C   0  0  0  0  0  0  0  0  0  0  0  0
    5.6504    0.9052   24.3512 H   0  0  0  0  0  0  0  0  0  0  0  0
    7.0797    1.9674   24.4194 H   0  0  0  0  0  0  0  0  0  0  0  0
    8.5180   -1.7634   23.2581 C   0  0  0  0  0  0  0  0  0  0  0  0
    8.9541   -2.2751   24.0981 H   0  0  0  0  0  0  0  0  0  0  0  0
    8.6373   -2.3612   21.9628 C   0  0  0  0  0  0  0  0  0  0  0  0
    9.0387   -3.4955   21.7773 O   0  0  0  0  0  0  0  0  0  0  0  0
    8.1924   -1.5187   20.8603 C   0  0  0  0  0  0  0  0  0  0  0  0
    8.5011   -1.8343   19.8850 H   0  0  0  0  0  0  0  0  0  0  0  0
    5.3551    0.8394   20.2048 C   0  0  0  0  0  0  0  0  0  0  0  0
    4.8815    0.8948   21.1870 H   0  0  0  0  0  0  0  0  0  0  0  0
    4.7357    1.3994   19.0865 C   0  0  0  0  0  0  0  0  0  0  0  0
    3.7709    1.8940   19.1590 H   0  0  0  0  0  0  0  0  0  0  0  0
  1  2  1  0
  2  3  2  0
  3  4  1  0
  4  5  1  0
  4  6  2  0
  6  7  1  0
  7  8  1  0
  8  9  1  0
  9 10  1  0
 10 11  1  0
 11 12  1  0
 11 13  1  0
 11 14  1  0
 14 15  1  0
 14 16  1  0
 14 17  1  0
 17 18  1  1
 17 19  1  0
 19 20  1  0
 20 21  1  0
 20 22  1  0
 20 23  1  0
 19 24  1  0
 24 25  1  0
 24 26  1  0
 24 27  1  0
 17 28  1  0
 28 29  1  0
 28 30  1  0
  9 31  2  0
 31 32  1  0
 31 33  1  0
 33 34  2  0
 33 35  1  0
 35 36  1  0
  6 37  1  0
 37 38  1  0
 37 39  2  0
 39 40  1  0
 39  2  1  0
 35  7  2  0
 28 10  1  0
M  END
>  <cnnaffinity>  (1) 
-5.04831

>  <filename>  (1) 
CN(C)[C@@H]1CCN(c2cc(=O)cc(-c3cccnc3)o2)C1

$$$$
