
     RDKit          3D

 43 46  0  0  0  0  0  0  0  0999 V2000
    5.3882    1.7931   16.5394 H   0  0  0  0  0  0  0  0  0  0  0  0
    5.7758    1.3520   17.4550 C   0  0  0  0  0  0  0  0  0  0  0  0
    6.9235    0.6715   17.3413 N   0  0  0  0  0  0  0  0  0  0  0  0
    7.4434    0.1344   18.4481 C   0  0  0  0  0  0  0  0  0  0  0  0
    8.3810   -0.4040   18.3268 H   0  0  0  0  0  0  0  0  0  0  0  0
    6.8472    0.2393   19.7185 C   0  0  0  0  0  0  0  0  0  0  0  0
    7.5012   -0.3676   20.8878 C   0  0  0  0  0  0  0  0  0  0  0  0
    8.6901   -0.9752   20.7528 N   0  0  0  0  0  0  0  0  0  0  0  0
    8.9492   -1.4081   22.0050 N   0  0  0  0  0  0  0  0  0  0  0  0
    9.9367   -2.1930   22.5863 C   0  0  0  0  0  0  0  0  0  0  0  0
   10.7797   -2.5162   22.0008 H   0  0  0  0  0  0  0  0  0  0  0  0
    9.5377   -2.3957   23.8683 C   0  0  0  0  0  0  0  0  0  0  0  0
    9.9929   -2.9798   24.6560 H   0  0  0  0  0  0  0  0  0  0  0  0
    8.3209   -1.7367   24.0847 N   0  0  0  0  0  0  0  0  0  0  0  0
    7.3885   -1.9510   25.1749 C   0  0  0  0  0  0  0  0  0  0  0  0
    7.9676   -1.8849   26.1029 H   0  0  0  0  0  0  0  0  0  0  0  0
    6.6680   -1.1152   25.1682 H   0  0  0  0  0  0  0  0  0  0  0  0
    6.7128   -3.2479   25.1471 N   0  0  0  0  0  0  0  0  0  0  0  0
    6.0488   -3.5399   26.4116 C   0  0  0  0  0  0  0  0  0  0  0  0
    6.7340   -3.3633   27.2498 H   0  0  0  0  0  0  0  0  0  0  0  0
    5.7624   -4.5919   26.4879 H   0  0  0  0  0  0  0  0  0  0  0  0
    5.1315   -2.9400   26.5809 H   0  0  0  0  0  0  0  0  0  0  0  0
    5.8697   -3.4740   23.9504 C   0  0  0  0  0  0  0  0  0  0  0  0
    4.8399   -3.0920   24.1325 H   0  0  0  0  0  0  0  0  0  0  0  0
    6.2633   -2.8621   23.1267 H   0  0  0  0  0  0  0  0  0  0  0  0
    5.8036   -4.9100   23.4751 C   0  0  0  0  0  0  0  0  0  0  0  0
    6.4341   -5.3912   22.2980 C   0  0  0  0  0  0  0  0  0  0  0  0
    6.2982   -4.8786   21.3401 H   0  0  0  0  0  0  0  0  0  0  0  0
    6.1379   -6.9569   22.1914 C   0  0  0  0  0  0  0  0  0  0  0  0
    7.4073   -7.6346   22.6284 H   0  0  0  0  0  0  0  0  0  0  0  0
    6.4165   -7.1735   22.2155 C   0  0  0  0  0  0  0  0  0  0  0  0
    5.8379   -7.8958   21.3881 H   0  0  0  0  0  0  0  0  0  0  0  0
    5.0750   -7.1728   23.6432 C   0  0  0  0  0  0  0  0  0  0  0  0
    4.4671   -8.0687   23.9089 H   0  0  0  0  0  0  0  0  0  0  0  0
    5.0009   -5.9431   24.1881 C   0  0  0  0  0  0  0  0  0  0  0  0
    4.3757   -5.6863   25.0431 H   0  0  0  0  0  0  0  0  0  0  0  0
    7.9813   -1.1220   22.8964 C   0  0  0  0  0  0  0  0  0  0  0  0
    7.0036   -0.4137   22.2208 C   0  0  0  0  0  0  0  0  0  0  0  0
    6.0691   -0.0325   22.5937 H   0  0  0  0  0  0  0  0  0  0  0  0
    5.6362    0.9436   19.8169 C   0  0  0  0  0  0  0  0  0  0  0  0
    5.1296    1.0586   20.7761 H   0  0  0  0  0  0  0  0  0  0  0  0
    5.0966    1.5114   18.6657 C   0  0  0  0  0  0  0  0  0  0  0  0
    4.1785    2.0873   18.6949 H   0  0  0  0  0  0  0  0  0  0  0  0
  1  2  1  0
  2  3  2  0
  3  4  1  0
  4  5  1  0
  4  6  2  0
  6  7  1  0
  7  8  2  0
  8  9  1  0
  9 10  1  0
 10 11  1  0
 10 12  2  0
 12 13  1  0
 12 14  1  0
 14 15  1  0
 15 16  1  0
 15 17  1  0
 15 18  1  0
 18 19  1  0
 19 20  1  0
 19 21  1  0
 19 22  1  0
 18 23  1  0
 23 24  1  0
 23 25  1  0
 23 26  1  0
 26 27  2  0
 27 28  1  0
 27 29  1  0
 29 30  1  0
 29 31  2  0
 31 32  1  0
 31 33  1  0
 33 34  1  0
 33 35  2  0
 35 36  1  0
 14 37  1  0
 37 38  2  0
 38 39  1  0
  6 40  1  0
 40 41  1  0
 40 42  2  0
 42 43  1  0
 42  2  1  0
 38  7  1  0
 37  9  1  0
 35 26  1  0
M  END
>  <cnnaffinity>  (1) 
-5.80075

>  <filename>  (1) 
CN(Cc1ccccc1)Cn1ccn2nc(-c3cccnc3)cc12

$$$$
