
     RDKit          3D

 34 37  0  0  0  0  0  0  0  0999 V2000
    5.0113    1.7142   16.8904 H   0  0  0  0  0  0  0  0  0  0  0  0
    5.4702    1.2416   17.7559 C   0  0  0  0  0  0  0  0  0  0  0  0
    6.6050    0.5632   17.5240 N   0  0  0  0  0  0  0  0  0  0  0  0
    7.1948   -0.0271   18.5655 C   0  0  0  0  0  0  0  0  0  0  0  0
    8.1165   -0.5697   18.3558 H   0  0  0  0  0  0  0  0  0  0  0  0
    6.6877    0.0334   19.8754 C   0  0  0  0  0  0  0  0  0  0  0  0
    7.4203   -0.6553   20.9412 C   0  0  0  0  0  0  0  0  0  0  0  0
    8.3135   -1.6023   20.7706 N   0  0  0  0  0  0  0  0  0  0  0  0
    8.7769   -2.0123   22.0005 N   0  0  0  0  0  0  0  0  0  0  0  0
    8.1495   -1.2796   22.8797 C   0  0  0  0  0  0  0  0  0  0  0  0
    8.1591   -1.0081   24.5984 S   0  0  0  0  0  0  0  0  0  0  0  0
    6.9745    0.2805   24.3204 C   0  0  0  0  0  0  0  0  0  0  0  0
    6.4836    1.0985   25.3219 N   0  0  0  0  0  0  0  0  0  0  0  0
    6.8229    0.9385   26.6845 C   0  0  0  0  0  0  0  0  0  0  0  0
    6.4431   -0.2451   28.0402 C   0  0  0  0  0  0  0  0  0  0  0  0
    7.2582   -1.4021   27.5468 H   0  0  0  0  0  0  0  0  0  0  0  0
    6.5489   -0.5660   27.9587 C   0  0  0  0  0  0  0  0  0  0  0  0
    5.3612   -0.9058   27.9941 H   0  0  0  0  0  0  0  0  0  0  0  0
    7.2163    0.4846   29.2167 C   0  0  0  0  0  0  0  0  0  0  0  0
    6.8150    0.3366   30.2285 H   0  0  0  0  0  0  0  0  0  0  0  0
    7.7247    1.7253   28.7909 C   0  0  0  0  0  0  0  0  0  0  0  0
    8.2190    2.4398   29.4313 H   0  0  0  0  0  0  0  0  0  0  0  0
    7.4625    1.9358   27.3705 C   0  0  0  0  0  0  0  0  0  0  0  0
    7.7624    2.8604   26.8600 H   0  0  0  0  0  0  0  0  0  0  0  0
    5.8356    2.3562   24.8793 C   0  0  0  0  0  0  0  0  0  0  0  0
    5.4453    2.8924   25.7523 H   0  0  0  0  0  0  0  0  0  0  0  0
    5.0024    2.1623   24.1900 H   0  0  0  0  0  0  0  0  0  0  0  0
    6.5370    3.0120   24.3385 H   0  0  0  0  0  0  0  0  0  0  0  0
    6.6151    0.4766   23.0800 N   0  0  0  0  0  0  0  0  0  0  0  0
    7.2756   -0.4210   22.2912 N   0  0  0  0  0  0  0  0  0  0  0  0
    5.5010    0.7442   20.1079 C   0  0  0  0  0  0  0  0  0  0  0  0
    5.0936    0.8187   21.1169 H   0  0  0  0  0  0  0  0  0  0  0  0
    4.8815    1.3537   19.0203 C   0  0  0  0  0  0  0  0  0  0  0  0
    3.9670    1.9250   19.1388 H   0  0  0  0  0  0  0  0  0  0  0  0
  1  2  1  0
  2  3  2  0
  3  4  1  0
  4  5  1  0
  4  6  2  0
  6  7  1  0
  7  8  2  0
  8  9  1  0
  9 10  2  0
 10 11  1  0
 11 12  1  0
 12 13  1  0
 13 14  1  0
 14 15  2  0
 15 16  1  0
 15 17  1  0
 17 18  1  0
 17 19  2  0
 19 20  1  0
 19 21  1  0
 21 22  1  0
 21 23  2  0
 23 24  1  0
 13 25  1  0
 25 26  1  0
 25 27  1  0
 25 28  1  0
 12 29  2  0
 29 30  1  0
  6 31  1  0
 31 32  1  0
 31 33  2  0
 33 34  1  0
 33  2  1  0
 30  7  1  0
 30 10  1  0
 23 14  1  0
M  END
>  <cnnaffinity>  (1) 
-5.07193

>  <filename>  (1) 
CN(c1ccccc1)c1nn2c(-c3cccnc3)nnc2s1

$$$$
