
     RDKit          3D

 42 44  0  0  0  0  0  0  0  0999 V2000
    7.2237   -6.2776   28.4857 H   0  0  0  0  0  0  0  0  0  0  0  0
    6.7513   -6.3092   27.5051 C   0  0  0  0  0  0  0  0  0  0  0  0
    7.1717   -5.3826   26.6411 N   0  0  0  0  0  0  0  0  0  0  0  0
    6.6983   -5.4437   25.3903 C   0  0  0  0  0  0  0  0  0  0  0  0
    7.2571   -4.5375   24.5057 N   0  0  0  0  0  0  0  0  0  0  0  0
    7.2153   -3.1123   24.8571 C   0  0  0  0  0  0  0  0  0  0  0  0
    7.3273   -2.9982   25.9395 H   0  0  0  0  0  0  0  0  0  0  0  0
    6.2437   -2.6831   24.5617 H   0  0  0  0  0  0  0  0  0  0  0  0
    8.3328   -2.3470   24.1552 C   0  0  0  0  0  0  0  0  0  0  0  0
    8.2545   -1.2779   24.3690 H   0  0  0  0  0  0  0  0  0  0  0  0
    9.3036   -2.6967   24.5460 H   0  0  0  0  0  0  0  0  0  0  0  0
    8.2317   -2.5580   22.7013 N   0  0  0  0  0  0  0  0  0  0  0  0
    9.1067   -1.7402   21.9696 N   0  0  0  0  0  0  0  0  0  0  0  0
    8.6756   -0.7752   21.0607 C   0  0  0  0  0  0  0  0  0  0  0  0
    9.4393   -0.0667   20.4363 O   0  0  0  0  0  0  0  0  0  0  0  0
    7.3166   -0.7252   20.9336 O   0  0  0  0  0  0  0  0  0  0  0  0
    6.7227   -0.0127   19.8901 C   0  0  0  0  0  0  0  0  0  0  0  0
    7.2215    0.0352   18.5741 C   0  0  0  0  0  0  0  0  0  0  0  0
    8.1711   -0.4388   18.3378 H   0  0  0  0  0  0  0  0  0  0  0  0
    6.5801    0.6572   17.5759 N   0  0  0  0  0  0  0  0  0  0  0  0
    5.4243    1.2764   17.8621 C   0  0  0  0  0  0  0  0  0  0  0  0
    4.9357    1.7810   17.0310 H   0  0  0  0  0  0  0  0  0  0  0  0
    4.8535    1.2831   19.1383 C   0  0  0  0  0  0  0  0  0  0  0  0
    3.9156    1.8047   19.3033 H   0  0  0  0  0  0  0  0  0  0  0  0
    5.5113    0.6183   20.1805 C   0  0  0  0  0  0  0  0  0  0  0  0
    5.1173    0.5818   21.1943 H   0  0  0  0  0  0  0  0  0  0  0  0
   10.5494   -1.8801   22.1465 C   0  0  0  0  0  0  0  0  0  0  0  0
   11.0292   -2.1259   21.1954 H   0  0  0  0  0  0  0  0  0  0  0  0
   10.7672   -2.6761   22.8645 H   0  0  0  0  0  0  0  0  0  0  0  0
   10.9844   -0.9459   22.5143 H   0  0  0  0  0  0  0  0  0  0  0  0
    8.3706   -3.9875   22.3813 C   0  0  0  0  0  0  0  0  0  0  0  0
    8.3195   -4.1184   21.2977 H   0  0  0  0  0  0  0  0  0  0  0  0
    9.3410   -4.3725   22.7345 H   0  0  0  0  0  0  0  0  0  0  0  0
    7.2560   -4.7865   23.0635 C   0  0  0  0  0  0  0  0  0  0  0  0
    7.4307   -5.8536   22.8622 H   0  0  0  0  0  0  0  0  0  0  0  0
    6.2902   -4.4958   22.6181 H   0  0  0  0  0  0  0  0  0  0  0  0
    5.7018   -6.3530   24.9768 C   0  0  0  0  0  0  0  0  0  0  0  0
    5.4035   -6.3571   23.9326 H   0  0  0  0  0  0  0  0  0  0  0  0
    5.2134   -7.2477   25.9231 C   0  0  0  0  0  0  0  0  0  0  0  0
    4.4247   -7.9492   25.6636 H   0  0  0  0  0  0  0  0  0  0  0  0
    5.7628   -7.2473   27.2124 C   0  0  0  0  0  0  0  0  0  0  0  0
    5.4694   -7.9786   27.9517 H   0  0  0  0  0  0  0  0  0  0  0  0
  1  2  1  0
  2  3  2  0
  3  4  1  0
  4  5  1  0
  5  6  1  0
  6  7  1  0
  6  8  1  0
  6  9  1  0
  9 10  1  0
  9 11  1  0
  9 12  1  0
 12 13  1  0
 13 14  1  0
 14 15  2  0
 14 16  1  0
 16 17  1  0
 17 18  2  0
 18 19  1  0
 18 20  1  0
 20 21  2  0
 21 22  1  0
 21 23  1  0
 23 24  1  0
 23 25  2  0
 25 26  1  0
 13 27  1  0
 27 28  1  0
 27 29  1  0
 27 30  1  0
 12 31  1  0
 31 32  1  0
 31 33  1  0
 31 34  1  0
 34 35  1  0
 34 36  1  0
  4 37  2  0
 37 38  1  0
 37 39  1  0
 39 40  1  0
 39 41  2  0
 41 42  1  0
 41  2  1  0
 34  5  1  0
 25 17  1  0
M  END
>  <cnnaffinity>  (1) 
-5.37845

>  <filename>  (1) 
CN(C(=O)Oc1cccnc1)N1CCN(c2ccccn2)CC1

$$$$
