
     RDKit          3D

 39 41  0  0  0  0  0  0  0  0999 V2000
    4.9986    1.7661   16.8656 H   0  0  0  0  0  0  0  0  0  0  0  0
    5.4543    1.2857   17.7295 C   0  0  0  0  0  0  0  0  0  0  0  0
    6.6135    0.6505   17.5087 N   0  0  0  0  0  0  0  0  0  0  0  0
    7.2129    0.0838   18.5543 C   0  0  0  0  0  0  0  0  0  0  0  0
    8.1460   -0.4262   18.3232 H   0  0  0  0  0  0  0  0  0  0  0  0
    6.7169    0.1151   19.8694 C   0  0  0  0  0  0  0  0  0  0  0  0
    7.4969   -0.4712   20.9525 C   0  0  0  0  0  0  0  0  0  0  0  0
    7.0989   -0.5175   22.1842 N   0  0  0  0  0  0  0  0  0  0  0  0
    8.0357   -1.2338   22.8804 N   0  0  0  0  0  0  0  0  0  0  0  0
    7.7904   -1.4233   24.2309 N   0  0  0  0  0  0  0  0  0  0  0  0
    8.5703   -0.5255   25.1252 C   0  0  0  0  0  0  0  0  0  0  0  0
    9.4917   -0.1959   24.6163 H   0  0  0  0  0  0  0  0  0  0  0  0
    7.9738    0.3675   25.3576 H   0  0  0  0  0  0  0  0  0  0  0  0
    8.8750   -1.3947   26.3518 C   0  0  0  0  0  0  0  0  0  0  0  0
    9.7693   -1.0885   26.9066 H   0  0  0  0  0  0  0  0  0  0  0  0
    8.0368   -1.3618   27.0550 H   0  0  0  0  0  0  0  0  0  0  0  0
    8.9848   -2.8085   25.7716 C   0  0  1  0  0  0  0  0  0  0  0  0
    9.9291   -2.8974   25.2091 H   0  0  0  0  0  0  0  0  0  0  0  0
    8.9759   -3.8370   26.8038 N   0  0  0  0  0  0  0  0  0  0  0  0
    9.6183   -5.0753   26.3919 C   0  0  0  0  0  0  0  0  0  0  0  0
   10.5880   -4.8559   25.9296 H   0  0  0  0  0  0  0  0  0  0  0  0
    9.8145   -5.6935   27.2715 H   0  0  0  0  0  0  0  0  0  0  0  0
    9.0344   -5.6800   25.6702 H   0  0  0  0  0  0  0  0  0  0  0  0
    7.6772   -4.0656   27.4255 C   0  0  0  0  0  0  0  0  0  0  0  0
    7.1720   -3.1152   27.6373 H   0  0  0  0  0  0  0  0  0  0  0  0
    6.9872   -4.6501   26.7913 H   0  0  0  0  0  0  0  0  0  0  0  0
    7.8082   -4.6165   28.3635 H   0  0  0  0  0  0  0  0  0  0  0  0
    7.8524   -2.8134   24.7164 C   0  0  0  0  0  0  0  0  0  0  0  0
    6.8855   -3.0816   25.1697 H   0  0  0  0  0  0  0  0  0  0  0  0
    8.0501   -3.5272   23.9106 H   0  0  0  0  0  0  0  0  0  0  0  0
    9.0844   -1.7198   22.0980 C   0  0  0  0  0  0  0  0  0  0  0  0
    9.9766   -2.4752   22.4259 O   0  0  0  0  0  0  0  0  0  0  0  0
    8.8507   -1.0654   20.7654 C   0  0  0  0  0  0  0  0  0  0  0  0
    8.9327   -1.7767   19.9463 H   0  0  0  0  0  0  0  0  0  0  0  0
    9.6139   -0.2954   20.6016 H   0  0  0  0  0  0  0  0  0  0  0  0
    5.4711    0.7387   20.0797 C   0  0  0  0  0  0  0  0  0  0  0  0
    5.0239    0.7552   21.0773 H   0  0  0  0  0  0  0  0  0  0  0  0
    4.8391    1.3328   18.9884 C   0  0  0  0  0  0  0  0  0  0  0  0
    3.8935    1.8538   19.0943 H   0  0  0  0  0  0  0  0  0  0  0  0
  1  2  1  0
  2  3  2  0
  3  4  1  0
  4  5  1  0
  4  6  2  0
  6  7  1  0
  7  8  2  0
  8  9  1  0
  9 10  1  0
 10 11  1  0
 11 12  1  0
 11 13  1  0
 11 14  1  0
 14 15  1  0
 14 16  1  0
 14 17  1  0
 17 18  1  6
 17 19  1  0
 19 20  1  0
 20 21  1  0
 20 22  1  0
 20 23  1  0
 19 24  1  0
 24 25  1  0
 24 26  1  0
 24 27  1  0
 17 28  1  0
 28 29  1  0
 28 30  1  0
  9 31  1  0
 31 32  2  0
 31 33  1  0
 33 34  1  0
 33 35  1  0
  6 36  1  0
 36 37  1  0
 36 38  2  0
 38 39  1  0
 38  2  1  0
 33  7  1  0
 28 10  1  0
M  END
>  <cnnaffinity>  (1) 
-4.5791

>  <filename>  (1) 
CN(C)[C@@H]1CCN(N2N=C(c3cccnc3)CC2=O)C1

$$$$
