
     RDKit          3D

 48 50  0  0  0  0  0  0  0  0999 V2000
    5.1459    1.7718   16.9536 H   0  0  0  0  0  0  0  0  0  0  0  0
    5.5208    1.2747   17.8487 C   0  0  0  0  0  0  0  0  0  0  0  0
    6.6320    0.5362   17.6962 N   0  0  0  0  0  0  0  0  0  0  0  0
    7.1084   -0.0905   18.7835 C   0  0  0  0  0  0  0  0  0  0  0  0
    8.0157   -0.6800   18.6413 H   0  0  0  0  0  0  0  0  0  0  0  0
    6.5319   -0.0249   20.0785 C   0  0  0  0  0  0  0  0  0  0  0  0
    7.0619   -0.6817   21.2064 N   0  0  0  0  0  0  0  0  0  0  0  0
    7.1901    0.0701   22.4552 C   0  0  0  0  0  0  0  0  0  0  0  0
    6.2876   -0.0511   23.0764 H   0  0  0  0  0  0  0  0  0  0  0  0
    7.2560    1.1395   22.2125 H   0  0  0  0  0  0  0  0  0  0  0  0
    8.3743   -0.3075   23.3633 C   0  0  0  0  0  0  0  0  0  0  0  0
    8.1694   -1.3006   23.7767 H   0  0  0  0  0  0  0  0  0  0  0  0
    8.3635    0.3651   24.2308 H   0  0  0  0  0  0  0  0  0  0  0  0
    9.7297   -0.3546   22.7786 N   0  0  0  0  0  0  0  0  0  0  0  0
   10.0083    0.7971   21.9116 N   0  0  0  0  0  0  0  0  0  0  0  0
   11.4071    0.7750   21.4204 C   0  0  0  0  0  0  0  0  0  0  0  0
   11.6909   -0.1973   21.0099 H   0  0  0  0  0  0  0  0  0  0  0  0
   11.4553    1.4991   20.6008 H   0  0  0  0  0  0  0  0  0  0  0  0
   12.2604    1.2334   22.6075 C   0  0  0  0  0  0  0  0  0  0  0  0
   12.2853    0.4231   23.3427 H   0  0  0  0  0  0  0  0  0  0  0  0
   13.2909    1.5013   22.3498 H   0  0  0  0  0  0  0  0  0  0  0  0
   11.4414    2.4109   23.1936 C   0  0  1  0  0  0  0  0  0  0  0  0
   11.4311    2.3648   24.2901 H   0  0  0  0  0  0  0  0  0  0  0  0
   11.8675    3.7740   22.8306 N   0  0  0  0  0  0  0  0  0  0  0  0
   12.3798    3.9851   21.4814 C   0  0  0  0  0  0  0  0  0  0  0  0
   11.8328    3.4267   20.7196 H   0  0  0  0  0  0  0  0  0  0  0  0
   12.2724    5.0427   21.2266 H   0  0  0  0  0  0  0  0  0  0  0  0
   13.4542    3.7536   21.3776 H   0  0  0  0  0  0  0  0  0  0  0  0
   12.7303    4.4484   23.7843 C   0  0  0  0  0  0  0  0  0  0  0  0
   13.7176    3.9610   23.9047 H   0  0  0  0  0  0  0  0  0  0  0  0
   12.9068    5.4757   23.4443 H   0  0  0  0  0  0  0  0  0  0  0  0
   12.2453    4.5366   24.7617 H   0  0  0  0  0  0  0  0  0  0  0  0
    9.9969    2.0880   22.6766 C   0  0  0  0  0  0  0  0  0  0  0  0
    9.2807    2.0554   23.4992 H   0  0  0  0  0  0  0  0  0  0  0  0
    9.6786    2.8857   21.9998 H   0  0  0  0  0  0  0  0  0  0  0  0
    9.9940   -1.6644   22.1506 C   0  0  0  0  0  0  0  0  0  0  0  0
    9.7638   -2.4051   22.9264 H   0  0  0  0  0  0  0  0  0  0  0  0
   11.0699   -1.7835   21.9673 H   0  0  0  0  0  0  0  0  0  0  0  0
    9.1945   -1.9853   20.8880 C   0  0  0  0  0  0  0  0  0  0  0  0
    9.4721   -1.2772   20.1002 H   0  0  0  0  0  0  0  0  0  0  0  0
    9.5022   -2.9792   20.5541 H   0  0  0  0  0  0  0  0  0  0  0  0
    7.6707   -1.9937   21.0751 C   0  0  0  0  0  0  0  0  0  0  0  0
    7.4066   -2.5958   21.9599 H   0  0  0  0  0  0  0  0  0  0  0  0
    7.1895   -2.4918   20.2241 H   0  0  0  0  0  0  0  0  0  0  0  0
    5.3651    0.7563   20.1976 C   0  0  0  0  0  0  0  0  0  0  0  0
    4.8878    0.8340   21.1755 H   0  0  0  0  0  0  0  0  0  0  0  0
    4.8551    1.4070   19.0714 C   0  0  0  0  0  0  0  0  0  0  0  0
    3.9659    2.0286   19.1393 H   0  0  0  0  0  0  0  0  0  0  0  0
  1  2  1  0
  2  3  2  0
  3  4  1  0
  4  5  1  0
  4  6  2  0
  6  7  1  0
  7  8  1  0
  8  9  1  0
  8 10  1  0
  8 11  1  0
 11 12  1  0
 11 13  1  0
 11 14  1  0
 14 15  1  0
 15 16  1  0
 16 17  1  0
 16 18  1  0
 16 19  1  0
 19 20  1  0
 19 21  1  0
 19 22  1  0
 22 23  1  1
 22 24  1  0
 24 25  1  0
 25 26  1  0
 25 27  1  0
 25 28  1  0
 24 29  1  0
 29 30  1  0
 29 31  1  0
 29 32  1  0
 22 33  1  0
 33 34  1  0
 33 35  1  0
 14 36  1  0
 36 37  1  0
 36 38  1  0
 36 39  1  0
 39 40  1  0
 39 41  1  0
 39 42  1  0
 42 43  1  0
 42 44  1  0
  6 45  1  0
 45 46  1  0
 45 47  2  0
 47 48  1  0
 47  2  1  0
 42  7  1  0
 33 15  1  0
M  END
>  <cnnaffinity>  (1) 
-5.14131

>  <filename>  (1) 
CN(C)[C@@H]1CCN(N2CCCN(c3cccnc3)CC2)C1

$$$$
