
     RDKit          3D

 37 38  0  0  0  0  0  0  0  0999 V2000
    4.9392    1.8288   16.9741 H   0  0  0  0  0  0  0  0  0  0  0  0
    5.4085    1.3147   17.8098 C   0  0  0  0  0  0  0  0  0  0  0  0
    6.5802    0.7060   17.5531 N   0  0  0  0  0  0  0  0  0  0  0  0
    7.1845    0.0732   18.5662 C   0  0  0  0  0  0  0  0  0  0  0  0
    8.1373   -0.4095   18.3336 H   0  0  0  0  0  0  0  0  0  0  0  0
    6.6518   -0.0284   19.8666 C   0  0  0  0  0  0  0  0  0  0  0  0
    7.3438   -0.7189   20.8835 N   0  0  0  0  0  0  0  0  0  0  0  0
    8.6709   -0.3914   21.1768 N   0  0  0  0  0  0  0  0  0  0  0  0
    9.2763   -0.6014   20.3845 H   0  0  0  0  0  0  0  0  0  0  0  0
    8.8578    0.9788   21.6690 C   0  0  0  0  0  0  0  0  0  0  0  0
    8.7505    1.7059   20.8474 H   0  0  0  0  0  0  0  0  0  0  0  0
    8.0420    1.1838   22.3711 H   0  0  0  0  0  0  0  0  0  0  0  0
   10.1964    1.1789   22.3913 C   0  0  0  0  0  0  0  0  0  0  0  0
   10.2524    0.4061   23.1754 H   0  0  0  0  0  0  0  0  0  0  0  0
   10.2504    2.5644   23.0771 C   0  0  0  0  0  0  0  0  0  0  0  0
   10.0882    3.3432   22.3145 H   0  0  0  0  0  0  0  0  0  0  0  0
    9.4170    2.6561   23.7872 H   0  0  0  0  0  0  0  0  0  0  0  0
   11.5905    2.8253   23.7923 C   0  0  0  0  0  0  0  0  0  0  0  0
   11.6030    3.8302   24.2255 H   0  0  0  0  0  0  0  0  0  0  0  0
   11.6887    2.1319   24.6402 H   0  0  0  0  0  0  0  0  0  0  0  0
   12.7858    2.6103   22.8488 C   0  0  0  0  0  0  0  0  0  0  0  0
   13.7398    2.7984   23.3588 H   0  0  0  0  0  0  0  0  0  0  0  0
   12.7363    3.3259   22.0146 H   0  0  0  0  0  0  0  0  0  0  0  0
   12.7163    1.1819   22.2922 C   0  0  0  0  0  0  0  0  0  0  0  0
   13.6265    0.8967   21.7475 H   0  0  0  0  0  0  0  0  0  0  0  0
   12.6670    0.4912   23.1448 H   0  0  0  0  0  0  0  0  0  0  0  0
   11.4270    0.9934   21.4758 C   0  0  0  0  0  0  0  0  0  0  0  0
   11.3921    1.7395   20.6660 H   0  0  0  0  0  0  0  0  0  0  0  0
   11.3974    0.0025   21.0009 H   0  0  0  0  0  0  0  0  0  0  0  0
    6.6968   -1.7014   21.7259 C   0  0  0  0  0  0  0  0  0  0  0  0
    6.1908   -2.4748   21.1328 H   0  0  0  0  0  0  0  0  0  0  0  0
    5.9701   -1.2520   22.4101 H   0  0  0  0  0  0  0  0  0  0  0  0
    7.4660   -2.1853   22.3314 H   0  0  0  0  0  0  0  0  0  0  0  0
    5.4221    0.6181   20.1158 C   0  0  0  0  0  0  0  0  0  0  0  0
    5.0082    0.6076   21.1237 H   0  0  0  0  0  0  0  0  0  0  0  0
    4.7968    1.3024   19.0684 C   0  0  0  0  0  0  0  0  0  0  0  0
    3.8595    1.8385   19.2211 H   0  0  0  0  0  0  0  0  0  0  0  0
  1  2  1  0
  2  3  2  0
  3  4  1  0
  4  5  1  0
  4  6  2  0
  6  7  1  0
  7  8  1  0
  8  9  1  0
  8 10  1  0
 10 11  1  0
 10 12  1  0
 10 13  1  0
 13 14  1  0
 13 15  1  0
 15 16  1  0
 15 17  1  0
 15 18  1  0
 18 19  1  0
 18 20  1  0
 18 21  1  0
 21 22  1  0
 21 23  1  0
 21 24  1  0
 24 25  1  0
 24 26  1  0
 24 27  1  0
 27 28  1  0
 27 29  1  0
  7 30  1  0
 30 31  1  0
 30 32  1  0
 30 33  1  0
  6 34  1  0
 34 35  1  0
 34 36  2  0
 36 37  1  0
 36  2  1  0
 27 13  1  0
M  END
>  <cnnaffinity>  (1) 
-4.91143

>  <filename>  (1) 
CN(NCC1CCCCC1)c1cccnc1

$$$$
