
     RDKit          3D

 33 34  0  0  0  0  0  0  0  0999 V2000
    4.9239    1.8429   16.9801 H   0  0  0  0  0  0  0  0  0  0  0  0
    5.3879    1.3265   17.8172 C   0  0  0  0  0  0  0  0  0  0  0  0
    6.5610    0.7128   17.5619 N   0  0  0  0  0  0  0  0  0  0  0  0
    7.1636    0.0968   18.5851 C   0  0  0  0  0  0  0  0  0  0  0  0
    8.1003   -0.4149   18.3659 H   0  0  0  0  0  0  0  0  0  0  0  0
    6.6695    0.0738   19.9205 C   0  0  0  0  0  0  0  0  0  0  0  0
    7.3939   -0.6228   20.9014 N   0  0  0  0  0  0  0  0  0  0  0  0
    7.5347   -0.3086   22.1123 C   0  0  0  0  0  0  0  0  0  0  0  0
    7.1060    0.8170   22.7871 N   0  0  0  0  0  0  0  0  0  0  0  0
    7.8939    0.9890   23.3934 H   0  0  0  0  0  0  0  0  0  0  0  0
    7.0046    1.5657   22.1168 H   0  0  0  0  0  0  0  0  0  0  0  0
    8.2546   -1.0680   23.0520 N   0  0  0  0  0  0  0  0  0  0  0  0
    7.5818   -1.0663   23.8165 H   0  0  0  0  0  0  0  0  0  0  0  0
    8.6689   -2.3754   22.6701 N   0  0  0  0  0  0  0  0  0  0  0  0
    8.6761   -3.4362   23.6021 C   0  0  0  0  0  0  0  0  0  0  0  0
    8.3465   -4.7089   23.0993 C   0  0  0  0  0  0  0  0  0  0  0  0
    8.0792   -4.7723   22.0507 H   0  0  0  0  0  0  0  0  0  0  0  0
    8.3681   -5.8308   23.9224 C   0  0  0  0  0  0  0  0  0  0  0  0
    8.1456   -6.8002   23.4882 H   0  0  0  0  0  0  0  0  0  0  0  0
    8.7165   -5.7014   25.2678 C   0  0  0  0  0  0  0  0  0  0  0  0
    8.7210   -6.5811   25.9060 H   0  0  0  0  0  0  0  0  0  0  0  0
    9.0448   -4.4418   25.7834 C   0  0  0  0  0  0  0  0  0  0  0  0
    9.3327   -4.3577   26.8270 H   0  0  0  0  0  0  0  0  0  0  0  0
    9.0300   -3.3078   24.9576 C   0  0  0  0  0  0  0  0  0  0  0  0
    9.3212   -2.3362   25.3441 H   0  0  0  0  0  0  0  0  0  0  0  0
    9.5774   -2.4592   21.5215 C   0  0  0  0  0  0  0  0  0  0  0  0
    9.7067   -1.4852   21.0384 H   0  0  0  0  0  0  0  0  0  0  0  0
    9.1528   -3.1347   20.7658 H   0  0  0  0  0  0  0  0  0  0  0  0
   10.5629   -2.8267   21.8291 H   0  0  0  0  0  0  0  0  0  0  0  0
    5.4258    0.6790   20.1452 C   0  0  0  0  0  0  0  0  0  0  0  0
    4.9827    0.6444   21.1392 H   0  0  0  0  0  0  0  0  0  0  0  0
    4.7824    1.3206   19.0770 C   0  0  0  0  0  0  0  0  0  0  0  0
    3.8376    1.8354   19.2258 H   0  0  0  0  0  0  0  0  0  0  0  0
  1  2  1  0
  2  3  2  0
  3  4  1  0
  4  5  1  0
  4  6  2  0
  6  7  1  0
  7  8  2  3
  8  9  1  0
  9 10  1  0
  9 11  1  0
  8 12  1  0
 12 13  1  0
 12 14  1  0
 14 15  1  0
 15 16  2  0
 16 17  1  0
 16 18  1  0
 18 19  1  0
 18 20  2  0
 20 21  1  0
 20 22  1  0
 22 23  1  0
 22 24  2  0
 24 25  1  0
 14 26  1  0
 26 27  1  0
 26 28  1  0
 26 29  1  0
  6 30  1  0
 30 31  1  0
 30 32  2  0
 32 33  1  0
 32  2  1  0
 24 15  1  0
M  END
>  <cnnaffinity>  (1) 
-4.58286

>  <filename>  (1) 
CN(NC(N)=Nc1cccnc1)c1ccccc1

$$$$
