
     RDKit          3D

 41 43  0  0  0  0  0  0  0  0999 V2000
   13.5453    4.2167   22.9963 H   0  0  0  0  0  0  0  0  0  0  0  0
   12.6112    4.3030   23.5530 C   0  0  0  0  0  0  0  0  0  0  0  0
   11.7566    3.2941   23.3868 N   0  0  0  0  0  0  0  0  0  0  0  0
   10.5555    3.3938   23.9736 C   0  0  0  0  0  0  0  0  0  0  0  0
    9.6678    2.3696   23.6958 N   0  0  0  0  0  0  0  0  0  0  0  0
   10.1207    0.9734   23.6500 C   0  0  0  0  0  0  0  0  0  0  0  0
   10.0320    0.5115   24.6501 H   0  0  0  0  0  0  0  0  0  0  0  0
   11.1760    0.9533   23.3590 H   0  0  0  0  0  0  0  0  0  0  0  0
    9.2994    0.1475   22.6475 C   0  0  0  0  0  0  0  0  0  0  0  0
    9.6406   -0.8948   22.7170 H   0  0  0  0  0  0  0  0  0  0  0  0
    9.4813    0.5317   21.6284 H   0  0  0  0  0  0  0  0  0  0  0  0
    7.8577    0.2302   22.9865 N   0  0  0  0  0  0  0  0  0  0  0  0
    6.9558   -0.6149   22.2396 N   0  0  0  0  0  0  0  0  0  0  0  0
    7.2972   -0.7740   20.8993 N   0  0  0  0  0  0  0  0  0  0  0  0
    8.2329   -1.1290   20.7476 H   0  0  0  0  0  0  0  0  0  0  0  0
    6.6607   -0.0111   19.9086 C   0  0  0  0  0  0  0  0  0  0  0  0
    7.1707    0.0571   18.5900 C   0  0  0  0  0  0  0  0  0  0  0  0
    8.1197   -0.4218   18.3504 H   0  0  0  0  0  0  0  0  0  0  0  0
    6.5632    0.6863   17.5751 N   0  0  0  0  0  0  0  0  0  0  0  0
    5.4003    1.3052   17.8313 C   0  0  0  0  0  0  0  0  0  0  0  0
    4.9302    1.8057   16.9856 H   0  0  0  0  0  0  0  0  0  0  0  0
    4.8090    1.3205   19.1011 C   0  0  0  0  0  0  0  0  0  0  0  0
    3.8684    1.8460   19.2457 H   0  0  0  0  0  0  0  0  0  0  0  0
    5.4519    0.6563   20.1545 C   0  0  0  0  0  0  0  0  0  0  0  0
    5.0524    0.6183   21.1673 H   0  0  0  0  0  0  0  0  0  0  0  0
    6.8987   -1.9470   22.8601 C   0  0  0  0  0  0  0  0  0  0  0  0
    7.8533   -2.5064   22.8074 H   0  0  0  0  0  0  0  0  0  0  0  0
    6.1338   -2.5401   22.3467 H   0  0  0  0  0  0  0  0  0  0  0  0
    6.6208   -1.8108   23.9056 H   0  0  0  0  0  0  0  0  0  0  0  0
    7.4217    1.6394   22.9005 C   0  0  0  0  0  0  0  0  0  0  0  0
    6.3670    1.7050   23.1945 H   0  0  0  0  0  0  0  0  0  0  0  0
    7.5326    2.0336   21.8710 H   0  0  0  0  0  0  0  0  0  0  0  0
    8.2251    2.5182   23.8860 C   0  0  0  0  0  0  0  0  0  0  0  0
    7.9416    3.5679   23.7230 H   0  0  0  0  0  0  0  0  0  0  0  0
    7.9386    2.2346   24.9152 H   0  0  0  0  0  0  0  0  0  0  0  0
   10.2113    4.4670   24.8282 C   0  0  0  0  0  0  0  0  0  0  0  0
    9.2535    4.4157   25.3338 H   0  0  0  0  0  0  0  0  0  0  0  0
   11.1458    5.4753   25.0539 C   0  0  0  0  0  0  0  0  0  0  0  0
   10.9302    6.2916   25.7484 H   0  0  0  0  0  0  0  0  0  0  0  0
   12.3769    5.4021   24.3818 C   0  0  0  0  0  0  0  0  0  0  0  0
   13.1525    6.1510   24.4911 H   0  0  0  0  0  0  0  0  0  0  0  0
  1  2  1  0
  2  3  2  0
  3  4  1  0
  4  5  1  0
  5  6  1  0
  6  7  1  0
  6  8  1  0
  6  9  1  0
  9 10  1  0
  9 11  1  0
  9 12  1  0
 12 13  1  0
 13 14  1  0
 14 15  1  0
 14 16  1  0
 16 17  2  0
 17 18  1  0
 17 19  1  0
 19 20  2  0
 20 21  1  0
 20 22  1  0
 22 23  1  0
 22 24  2  0
 24 25  1  0
 13 26  1  0
 26 27  1  0
 26 28  1  0
 26 29  1  0
 12 30  1  0
 30 31  1  0
 30 32  1  0
 30 33  1  0
 33 34  1  0
 33 35  1  0
  4 36  2  0
 36 37  1  0
 36 38  1  0
 38 39  1  0
 38 40  2  0
 40 41  1  0
 40  2  1  0
 33  5  1  0
 24 16  1  0
M  END
>  <cnnaffinity>  (1) 
-5.01331

>  <filename>  (1) 
CN(Nc1cccnc1)N1CCN(c2ccccn2)CC1

$$$$
