
     RDKit          3D

 43 46  0  0  0  0  0  0  0  0999 V2000
    7.0129    1.7687   22.1548 H   0  0  0  0  0  0  0  0  0  0  0  0
    7.3381    0.9598   22.8294 C   0  0  0  0  0  0  0  0  0  0  0  0
    7.5658   -0.2754   22.3431 C   0  0  0  0  0  0  0  0  0  0  0  0
    7.3801   -0.7307   20.9605 C   0  0  0  0  0  0  0  0  0  0  0  0
    6.6522    0.0239   19.9173 C   0  0  0  0  0  0  0  0  0  0  0  0
    7.1688    0.0533   18.6151 C   0  0  0  0  0  0  0  0  0  0  0  0
    8.1100   -0.4373   18.3831 H   0  0  0  0  0  0  0  0  0  0  0  0
    6.5722    0.6733   17.5927 N   0  0  0  0  0  0  0  0  0  0  0  0
    5.4064    1.2916   17.8413 C   0  0  0  0  0  0  0  0  0  0  0  0
    4.9289    1.7802   16.9944 H   0  0  0  0  0  0  0  0  0  0  0  0
    4.7978    1.3108   19.1005 C   0  0  0  0  0  0  0  0  0  0  0  0
    3.8679    1.8450   19.2509 H   0  0  0  0  0  0  0  0  0  0  0  0
    5.4272    0.6611   20.1599 C   0  0  0  0  0  0  0  0  0  0  0  0
    4.9804    0.6398   21.1579 H   0  0  0  0  0  0  0  0  0  0  0  0
    7.8989   -1.8792   20.7083 N   0  0  0  0  0  0  0  0  0  0  0  0
    8.4841   -2.4276   21.9310 C   0  0  0  0  0  0  0  0  0  0  0  0
    8.0473   -3.4064   22.1377 H   0  0  0  0  0  0  0  0  0  0  0  0
    9.5510   -2.5780   21.7617 H   0  0  0  0  0  0  0  0  0  0  0  0
    8.2273   -1.4252   23.0782 C   0  0  0  0  0  0  0  0  0  0  0  0
    9.1565   -1.1057   23.5658 H   0  0  0  0  0  0  0  0  0  0  0  0
    7.5698   -1.8479   23.8473 H   0  0  0  0  0  0  0  0  0  0  0  0
    7.5534    1.3575   24.1327 N   0  0  0  0  0  0  0  0  0  0  0  0
    7.3981    0.4891   25.3028 C   0  0  0  0  0  0  0  0  0  0  0  0
    8.2816   -0.1436   25.4415 H   0  0  0  0  0  0  0  0  0  0  0  0
    6.5337   -0.1827   25.2040 H   0  0  0  0  0  0  0  0  0  0  0  0
    7.2245    1.4467   26.4920 C   0  0  0  0  0  0  0  0  0  0  0  0
    6.1674    1.5209   26.7651 H   0  0  0  0  0  0  0  0  0  0  0  0
    7.7454    1.0881   27.3838 H   0  0  0  0  0  0  0  0  0  0  0  0
    7.7570    2.8106   26.0203 C   0  0  2  0  0  0  0  0  0  0  0  0
    8.7995    2.9172   26.3182 H   0  0  0  0  0  0  0  0  0  0  0  0
    6.9467    4.0399   26.4738 C   0  0  0  0  0  0  0  0  0  0  0  0
    7.5764    4.8305   26.9094 H   0  0  0  0  0  0  0  0  0  0  0  0
    6.2416    3.7556   27.2720 H   0  0  0  0  0  0  0  0  0  0  0  0
    6.2326    4.5518   25.2899 N   0  0  0  0  0  0  0  0  0  0  0  0
    4.8446    4.8939   25.5415 C   0  0  0  0  0  0  0  0  0  0  0  0
    4.7695    5.6679   26.3116 H   0  0  0  0  0  0  0  0  0  0  0  0
    4.2412    4.0220   25.8708 H   0  0  0  0  0  0  0  0  0  0  0  0
    4.3801    5.2878   24.6321 H   0  0  0  0  0  0  0  0  0  0  0  0
    6.3689    3.5879   24.1947 C   0  0  0  0  0  0  0  0  0  0  0  0
    6.4225    4.0795   23.2137 H   0  0  0  0  0  0  0  0  0  0  0  0
    5.5176    2.8851   24.1505 H   0  0  0  0  0  0  0  0  0  0  0  0
    7.6343    2.7690   24.4887 C   0  0  2  0  0  0  0  0  0  0  0  0
    8.5032    3.2409   24.0129 H   0  0  0  0  0  0  0  0  0  0  0  0
  1  2  1  0
  2  3  2  3
  3  4  1  0
  4  5  1  0
  5  6  2  0
  6  7  1  0
  6  8  1  0
  8  9  2  0
  9 10  1  0
  9 11  1  0
 11 12  1  0
 11 13  2  0
 13 14  1  0
  4 15  2  0
 15 16  1  0
 16 17  1  0
 16 18  1  0
 16 19  1  0
 19 20  1  0
 19 21  1  0
  2 22  1  0
 22 23  1  0
 23 24  1  0
 23 25  1  0
 23 26  1  0
 26 27  1  0
 26 28  1  0
 26 29  1  0
 29 30  1  6
 29 31  1  0
 31 32  1  0
 31 33  1  0
 31 34  1  0
 34 35  1  0
 35 36  1  0
 35 37  1  0
 35 38  1  0
 34 39  1  0
 39 40  1  0
 39 41  1  0
 39 42  1  0
 42 43  1  6
 19  3  1  0
 42 22  1  0
 13  5  1  0
 42 29  1  0
M  END
>  <cnnaffinity>  (1) 
-5.1973

>  <filename>  (1) 
CN1C[C@H]2CCN(C=C3CCN=C3c3cccnc3)[C@H]2C1

$$$$
