
     RDKit          3D

 30 33  0  0  0  0  0  0  0  0999 V2000
    4.9745    1.7874   16.9935 H   0  0  0  0  0  0  0  0  0  0  0  0
    5.4195    1.2805   17.8480 C   0  0  0  0  0  0  0  0  0  0  0  0
    6.5811    0.6480   17.6170 N   0  0  0  0  0  0  0  0  0  0  0  0
    7.1727    0.0343   18.6457 C   0  0  0  0  0  0  0  0  0  0  0  0
    8.1238   -0.4495   18.4177 H   0  0  0  0  0  0  0  0  0  0  0  0
    6.6425   -0.0014   19.9489 C   0  0  0  0  0  0  0  0  0  0  0  0
    7.3511   -0.6963   21.0407 C   0  0  0  0  0  0  0  0  0  0  0  0
    6.8781   -0.7494   22.2505 N   0  0  0  0  0  0  0  0  0  0  0  0
    7.7279   -1.4555   23.0273 N   0  0  0  0  0  0  0  0  0  0  0  0
    7.7521   -1.8253   24.3670 C   0  0  0  0  0  0  0  0  0  0  0  0
    6.7502   -1.4588   25.3437 C   0  0  0  0  0  0  0  0  0  0  0  0
    6.7745   -1.9327   26.5955 N   0  0  0  0  0  0  0  0  0  0  0  0
    5.6777   -1.4236   27.1708 N   0  0  0  0  0  0  0  0  0  0  0  0
    5.3586   -1.6017   28.5767 C   0  0  0  0  0  0  0  0  0  0  0  0
    5.5173   -2.6364   28.8714 H   0  0  0  0  0  0  0  0  0  0  0  0
    5.9452   -0.9413   29.2265 H   0  0  0  0  0  0  0  0  0  0  0  0
    4.2980   -1.3750   28.7115 H   0  0  0  0  0  0  0  0  0  0  0  0
    4.9610   -0.6394   26.3385 C   0  0  0  0  0  0  0  0  0  0  0  0
    4.0245   -0.2323   26.7136 H   0  0  0  0  0  0  0  0  0  0  0  0
    5.6403   -0.6090   25.1519 C   0  0  0  0  0  0  0  0  0  0  0  0
    5.4525   -0.0698   24.2433 H   0  0  0  0  0  0  0  0  0  0  0  0
    8.9140   -2.5530   24.4806 C   0  0  0  0  0  0  0  0  0  0  0  0
    9.3070   -3.0254   25.3697 H   0  0  0  0  0  0  0  0  0  0  0  0
    9.5980   -2.6406   23.2986 N   0  0  0  0  0  0  0  0  0  0  0  0
    8.8545   -1.9643   22.4577 C   0  0  0  0  0  0  0  0  0  0  0  0
    8.9076   -1.5190   20.7899 S   0  0  0  0  0  0  0  0  0  0  0  0
    5.4157    0.6608   20.1677 C   0  0  0  0  0  0  0  0  0  0  0  0
    4.9586    0.6727   21.1549 H   0  0  0  0  0  0  0  0  0  0  0  0
    4.7981    1.3092   19.0996 C   0  0  0  0  0  0  0  0  0  0  0  0
    3.8618    1.8496   19.2207 H   0  0  0  0  0  0  0  0  0  0  0  0
  1  2  1  0
  2  3  2  0
  3  4  1  0
  4  5  1  0
  4  6  2  0
  6  7  1  0
  7  8  2  0
  8  9  1  0
  9 10  1  0
 10 11  1  0
 11 12  2  0
 12 13  1  0
 13 14  1  0
 14 15  1  0
 14 16  1  0
 14 17  1  0
 13 18  1  0
 18 19  1  0
 18 20  2  0
 20 21  1  0
 10 22  2  0
 22 23  1  0
 22 24  1  0
 24 25  2  0
 25 26  1  0
  6 27  1  0
 27 28  1  0
 27 29  2  0
 29 30  1  0
 29  2  1  0
 26  7  1  0
 25  9  1  0
 20 11  1  0
M  END
>  <cnnaffinity>  (1) 
-5.00424

>  <filename>  (1) 
Cn1ccc(-c2cnc3sc(-c4cccnc4)nn23)n1

$$$$
