
     RDKit          3D

 33 35  0  0  0  0  0  0  0  0999 V2000
    6.7533   -3.0175   23.2901 H   0  0  0  0  0  0  0  0  0  0  0  0
    7.3683   -2.3239   22.7269 C   0  0  0  0  0  0  0  0  0  0  0  0
    8.6884   -2.1424   22.9470 C   0  0  0  0  0  0  0  0  0  0  0  0
    9.4365   -2.9079   23.9658 C   0  0  0  0  0  0  0  0  0  0  0  0
    8.8629   -3.4324   25.0571 N   0  0  0  0  0  0  0  0  0  0  0  0
    9.8080   -4.1896   25.6182 N   0  0  0  0  0  0  0  0  0  0  0  0
    9.5748   -4.9888   26.8061 C   0  0  0  0  0  0  0  0  0  0  0  0
   10.3255   -4.7436   27.5643 H   0  0  0  0  0  0  0  0  0  0  0  0
    8.5815   -4.7719   27.1934 H   0  0  0  0  0  0  0  0  0  0  0  0
    9.6419   -6.0590   26.5752 H   0  0  0  0  0  0  0  0  0  0  0  0
   10.9626   -4.1724   24.9209 C   0  0  0  0  0  0  0  0  0  0  0  0
   11.8019   -4.7631   25.2510 H   0  0  0  0  0  0  0  0  0  0  0  0
   10.7845   -3.3196   23.8659 C   0  0  0  0  0  0  0  0  0  0  0  0
   11.5205   -3.0010   23.1372 H   0  0  0  0  0  0  0  0  0  0  0  0
    9.4706   -1.2812   21.9620 C   0  0  0  0  0  0  0  0  0  0  0  0
   10.3617   -0.8486   22.4244 H   0  0  0  0  0  0  0  0  0  0  0  0
    9.8071   -1.9132   21.1276 H   0  0  0  0  0  0  0  0  0  0  0  0
    8.5963   -0.1585   21.4111 C   0  0  0  0  0  0  0  0  0  0  0  0
    9.0999    0.3636   20.5881 H   0  0  0  0  0  0  0  0  0  0  0  0
    8.4002    0.5820   22.2008 H   0  0  0  0  0  0  0  0  0  0  0  0
    7.3352   -0.7011   20.9089 N   0  0  0  0  0  0  0  0  0  0  0  0
    6.6656   -0.0034   19.8622 C   0  0  0  0  0  0  0  0  0  0  0  0
    7.1956    0.0655   18.5607 C   0  0  0  0  0  0  0  0  0  0  0  0
    8.1429   -0.4336   18.3460 H   0  0  0  0  0  0  0  0  0  0  0  0
    6.5837    0.6952   17.5489 N   0  0  0  0  0  0  0  0  0  0  0  0
    5.4190    1.3125   17.8137 C   0  0  0  0  0  0  0  0  0  0  0  0
    4.9445    1.8231   16.9798 H   0  0  0  0  0  0  0  0  0  0  0  0
    4.8171    1.3174   19.0778 C   0  0  0  0  0  0  0  0  0  0  0  0
    3.8796    1.8429   19.2364 H   0  0  0  0  0  0  0  0  0  0  0  0
    5.4478    0.6369   20.1202 C   0  0  0  0  0  0  0  0  0  0  0  0
    5.0273    0.5818   21.1225 H   0  0  0  0  0  0  0  0  0  0  0  0
    6.6394   -1.6971   21.6151 C   0  0  0  0  0  0  0  0  0  0  0  0
    5.5238   -2.0717   21.3013 O   0  0  0  0  0  0  0  0  0  0  0  0
  1  2  1  0
  2  3  2  0
  3  4  1  0
  4  5  2  0
  5  6  1  0
  6  7  1  0
  7  8  1  0
  7  9  1  0
  7 10  1  0
  6 11  1  0
 11 12  1  0
 11 13  2  0
 13 14  1  0
  3 15  1  0
 15 16  1  0
 15 17  1  0
 15 18  1  0
 18 19  1  0
 18 20  1  0
 18 21  1  0
 21 22  1  0
 22 23  2  0
 23 24  1  0
 23 25  1  0
 25 26  2  0
 26 27  1  0
 26 28  1  0
 28 29  1  0
 28 30  2  0
 30 31  1  0
 21 32  1  0
 32 33  2  0
 32  2  1  0
 13  4  1  0
 30 22  1  0
M  END
>  <cnnaffinity>  (1) 
-5.04023

>  <filename>  (1) 
Cn1ccc(C2=CC(=O)N(c3cccnc3)CC2)n1

$$$$
