
     RDKit          3D

 27 29  0  0  0  0  0  0  0  0999 V2000
    4.9233    1.7812   16.9912 H   0  0  0  0  0  0  0  0  0  0  0  0
    5.4012    1.2934   17.8348 C   0  0  0  0  0  0  0  0  0  0  0  0
    6.5649    0.6760   17.5753 N   0  0  0  0  0  0  0  0  0  0  0  0
    7.1700    0.0654   18.5972 C   0  0  0  0  0  0  0  0  0  0  0  0
    8.1124   -0.4239   18.3503 H   0  0  0  0  0  0  0  0  0  0  0  0
    6.6501    0.0207   19.8984 C   0  0  0  0  0  0  0  0  0  0  0  0
    7.3395   -0.6880   20.9792 C   0  0  0  0  0  0  0  0  0  0  0  0
    6.8298   -1.0063   22.1453 N   0  0  0  0  0  0  0  0  0  0  0  0
    7.8527   -1.6308   22.8060 C   0  0  0  0  0  0  0  0  0  0  0  0
    7.6839   -2.1507   24.1840 C   0  0  0  0  0  0  0  0  0  0  0  0
    8.6597   -2.7743   24.8558 N   0  0  0  0  0  0  0  0  0  0  0  0
    8.1320   -3.0921   26.0298 N   0  0  0  0  0  0  0  0  0  0  0  0
    8.8977   -3.8604   26.9867 C   0  0  0  0  0  0  0  0  0  0  0  0
    9.9614   -3.6760   26.8297 H   0  0  0  0  0  0  0  0  0  0  0  0
    8.5878   -3.5397   27.9735 H   0  0  0  0  0  0  0  0  0  0  0  0
    8.6959   -4.9314   26.9073 H   0  0  0  0  0  0  0  0  0  0  0  0
    6.8375   -2.7095   26.1510 C   0  0  0  0  0  0  0  0  0  0  0  0
    6.2810   -2.9205   27.0570 H   0  0  0  0  0  0  0  0  0  0  0  0
    6.5007   -2.0910   24.9753 C   0  0  0  0  0  0  0  0  0  0  0  0
    5.5472   -1.6596   24.7104 H   0  0  0  0  0  0  0  0  0  0  0  0
    8.9698   -1.7125   22.0918 N   0  0  0  0  0  0  0  0  0  0  0  0
    8.6180   -1.1147   20.9390 N   0  0  0  0  0  0  0  0  0  0  0  0
    9.3093   -0.9999   20.2131 H   0  0  0  0  0  0  0  0  0  0  0  0
    5.4260    0.6620   20.1536 C   0  0  0  0  0  0  0  0  0  0  0  0
    5.0035    0.6332   21.1625 H   0  0  0  0  0  0  0  0  0  0  0  0
    4.8001    1.3166   19.0982 C   0  0  0  0  0  0  0  0  0  0  0  0
    3.8694    1.8471   19.2510 H   0  0  0  0  0  0  0  0  0  0  0  0
  1  2  1  0
  2  3  2  0
  3  4  1  0
  4  5  1  0
  4  6  2  0
  6  7  1  0
  7  8  2  0
  8  9  1  0
  9 10  1  0
 10 11  2  0
 11 12  1  0
 12 13  1  0
 13 14  1  0
 13 15  1  0
 13 16  1  0
 12 17  1  0
 17 18  1  0
 17 19  2  0
 19 20  1  0
  9 21  2  0
 21 22  1  0
 22 23  1  0
  6 24  1  0
 24 25  1  0
 24 26  2  0
 26 27  1  0
 26  2  1  0
 22  7  1  0
 19 10  1  0
M  END
>  <cnnaffinity>  (1) 
-4.64268

>  <filename>  (1) 
Cn1ccc(-c2n[nH]c(-c3cccnc3)n2)n1

$$$$
