
     RDKit          3D

 37 39  0  0  0  0  0  0  0  0999 V2000
    4.9173    1.8027   16.9676 H   0  0  0  0  0  0  0  0  0  0  0  0
    5.3910    1.3058   17.8134 C   0  0  0  0  0  0  0  0  0  0  0  0
    6.5558    0.6873   17.5580 N   0  0  0  0  0  0  0  0  0  0  0  0
    7.1710    0.0747   18.5778 C   0  0  0  0  0  0  0  0  0  0  0  0
    8.1062   -0.4202   18.3236 H   0  0  0  0  0  0  0  0  0  0  0  0
    6.6692    0.0243   19.8906 C   0  0  0  0  0  0  0  0  0  0  0  0
    7.3425   -0.6977   20.9736 C   0  0  0  0  0  0  0  0  0  0  0  0
    6.8126   -1.2326   22.0937 C   0  0  0  0  0  0  0  0  0  0  0  0
    5.7933   -1.2908   22.3952 H   0  0  0  0  0  0  0  0  0  0  0  0
    7.8243   -1.8053   22.8369 N   0  0  0  0  0  0  0  0  0  0  0  0
    7.6468   -2.4838   24.1210 C   0  0  0  0  0  0  0  0  0  0  0  0
    8.6614   -2.7915   24.4033 H   0  0  0  0  0  0  0  0  0  0  0  0
    6.7457   -3.7189   23.9749 C   0  0  0  0  0  0  0  0  0  0  0  0
    5.7753   -3.4169   23.5534 H   0  0  0  0  0  0  0  0  0  0  0  0
    7.2066   -4.4282   23.2815 H   0  0  0  0  0  0  0  0  0  0  0  0
    6.5131   -4.3783   25.3321 C   0  0  0  0  0  0  0  0  0  0  0  0
    5.8110   -5.2138   25.2225 H   0  0  0  0  0  0  0  0  0  0  0  0
    7.4685   -4.8065   25.7081 H   0  0  0  0  0  0  0  0  0  0  0  0
    5.9433   -3.4285   26.2887 N   0  0  0  0  0  0  0  0  0  0  0  0
    5.6298   -4.0818   27.5533 C   0  0  0  0  0  0  0  0  0  0  0  0
    6.5258   -4.4972   28.0590 H   0  0  0  0  0  0  0  0  0  0  0  0
    4.9245   -4.9053   27.3899 H   0  0  0  0  0  0  0  0  0  0  0  0
    5.1557   -3.3707   28.2402 H   0  0  0  0  0  0  0  0  0  0  0  0
    6.8281   -2.2805   26.4939 C   0  0  0  0  0  0  0  0  0  0  0  0
    7.8007   -2.5939   26.9340 H   0  0  0  0  0  0  0  0  0  0  0  0
    6.3525   -1.6094   27.2196 H   0  0  0  0  0  0  0  0  0  0  0  0
    7.0737   -1.5344   25.1841 C   0  0  0  0  0  0  0  0  0  0  0  0
    6.1210   -1.1149   24.8274 H   0  0  0  0  0  0  0  0  0  0  0  0
    7.7657   -0.7026   25.3446 H   0  0  0  0  0  0  0  0  0  0  0  0
    9.0136   -1.6445   22.1852 C   0  0  0  0  0  0  0  0  0  0  0  0
   10.5535   -2.1114   22.6097 S   0  0  0  0  0  0  0  0  0  0  0  0
    8.6917   -0.9840   21.0386 N   0  0  0  0  0  0  0  0  0  0  0  0
    9.4346   -0.6985   20.4259 H   0  0  0  0  0  0  0  0  0  0  0  0
    5.4405    0.6685   20.1314 C   0  0  0  0  0  0  0  0  0  0  0  0
    5.0077    0.6620   21.1314 H   0  0  0  0  0  0  0  0  0  0  0  0
    4.7977    1.3235   19.0803 C   0  0  0  0  0  0  0  0  0  0  0  0
    3.8631    1.8524   19.2304 H   0  0  0  0  0  0  0  0  0  0  0  0
  1  2  1  0
  2  3  2  0
  3  4  1  0
  4  5  1  0
  4  6  2  0
  6  7  1  0
  7  8  2  0
  8  9  1  0
  8 10  1  0
 10 11  1  0
 11 12  1  0
 11 13  1  0
 13 14  1  0
 13 15  1  0
 13 16  1  0
 16 17  1  0
 16 18  1  0
 16 19  1  0
 19 20  1  0
 20 21  1  0
 20 22  1  0
 20 23  1  0
 19 24  1  0
 24 25  1  0
 24 26  1  0
 24 27  1  0
 27 28  1  0
 27 29  1  0
 10 30  1  0
 30 31  2  0
 30 32  1  0
 32 33  1  0
  6 34  1  0
 34 35  1  0
 34 36  2  0
 36 37  1  0
 36  2  1  0
 32  7  1  0
 27 11  1  0
M  END
>  <cnnaffinity>  (1) 
-5.34635

>  <filename>  (1) 
CN1CCC(n2cc(-c3cccnc3)[nH]c2=S)CC1

$$$$
