
     RDKit          3D

 35 36  0  0  0  0  0  0  0  0999 V2000
    6.4724   -1.1237   21.9491 H   0  0  0  0  0  0  0  0  0  0  0  0
    7.1108   -0.5734   21.2668 C   0  0  0  0  0  0  0  0  0  0  0  0
    8.4299   -0.4132   21.6489 C   0  0  0  0  0  0  0  0  0  0  0  0
    9.5805    0.6986   20.6179 Br  0  0  0  0  0  0  0  0  0  0  0  0
    8.9358   -0.9599   22.8336 N   0  0  0  0  0  0  0  0  0  0  0  0
    8.0498   -1.2218   23.9896 C   0  0  0  0  0  0  0  0  0  0  0  0
    7.3288   -2.0043   23.7393 H   0  0  0  0  0  0  0  0  0  0  0  0
    7.5000   -0.3025   24.2298 H   0  0  0  0  0  0  0  0  0  0  0  0
    8.8290   -1.6643   25.2392 C   0  0  0  0  0  0  0  0  0  0  0  0
    8.1761   -1.5364   26.1084 H   0  0  0  0  0  0  0  0  0  0  0  0
    9.7058   -1.0214   25.3903 H   0  0  0  0  0  0  0  0  0  0  0  0
    9.2351   -3.0833   25.1185 N   0  0  0  0  0  0  0  0  0  0  0  0
    9.0066   -3.8665   26.3418 C   0  0  0  0  0  0  0  0  0  0  0  0
    9.0475   -4.9400   26.1189 H   0  0  0  0  0  0  0  0  0  0  0  0
    8.0171   -3.6304   26.7531 H   0  0  0  0  0  0  0  0  0  0  0  0
    9.7647   -3.6249   27.0964 H   0  0  0  0  0  0  0  0  0  0  0  0
   10.4762   -3.3987   24.3766 C   0  0  0  0  0  0  0  0  0  0  0  0
   11.3364   -3.0859   24.9602 H   0  0  0  0  0  0  0  0  0  0  0  0
   10.5523   -4.4831   24.2684 H   0  0  0  0  0  0  0  0  0  0  0  0
   10.5593   -2.7728   22.9842 C   0  0  0  0  0  0  0  0  0  0  0  0
    9.7823   -3.2192   22.3619 H   0  0  0  0  0  0  0  0  0  0  0  0
   11.5270   -3.0325   22.5487 H   0  0  0  0  0  0  0  0  0  0  0  0
   10.3787   -1.2561   22.9545 C   0  0  0  0  0  0  0  0  0  0  0  0
   10.9195   -0.8392   22.1011 H   0  0  0  0  0  0  0  0  0  0  0  0
   10.7900   -0.7848   23.8557 H   0  0  0  0  0  0  0  0  0  0  0  0
    6.5228    0.0306   20.0472 C   0  0  0  0  0  0  0  0  0  0  0  0
    7.2340    0.1237   18.8298 C   0  0  0  0  0  0  0  0  0  0  0  0
    8.2232   -0.3199   18.7685 H   0  0  0  0  0  0  0  0  0  0  0  0
    6.7557    0.7283   17.7252 N   0  0  0  0  0  0  0  0  0  0  0  0
    5.5407    1.2960   17.7983 C   0  0  0  0  0  0  0  0  0  0  0  0
    5.1500    1.8280   16.9361 H   0  0  0  0  0  0  0  0  0  0  0  0
    4.7624    1.2260   18.9558 C   0  0  0  0  0  0  0  0  0  0  0  0
    3.7978    1.7130   18.9548 H   0  0  0  0  0  0  0  0  0  0  0  0
    5.2388    0.5753   20.0945 C   0  0  0  0  0  0  0  0  0  0  0  0
    4.6542    0.5432   21.0127 H   0  0  0  0  0  0  0  0  0  0  0  0
  1  2  1  0
  2  3  2  3
  3  4  1  0
  3  5  1  0
  5  6  1  0
  6  7  1  0
  6  8  1  0
  6  9  1  0
  9 10  1  0
  9 11  1  0
  9 12  1  0
 12 13  1  0
 13 14  1  0
 13 15  1  0
 13 16  1  0
 12 17  1  0
 17 18  1  0
 17 19  1  0
 17 20  1  0
 20 21  1  0
 20 22  1  0
 20 23  1  0
 23 24  1  0
 23 25  1  0
  2 26  1  0
 26 27  2  0
 27 28  1  0
 27 29  1  0
 29 30  2  0
 30 31  1  0
 30 32  1  0
 32 33  1  0
 32 34  2  0
 34 35  1  0
 23  5  1  0
 34 26  1  0
M  END
>  <cnnaffinity>  (1) 
-4.59024

>  <filename>  (1) 
CN1CCCN(C(Br)=Cc2cccnc2)CC1

$$$$
