
     RDKit          3D

 32 34  0  0  0  0  0  0  0  0999 V2000
    6.7043   -1.3934   21.6000 H   0  0  0  0  0  0  0  0  0  0  0  0
    7.3161   -0.7104   21.0025 C   0  0  0  0  0  0  0  0  0  0  0  0
    8.5962   -0.4992   21.3529 C   0  0  0  0  0  0  0  0  0  0  0  0
    9.3676   -1.1376   22.4304 C   0  0  0  0  0  0  0  0  0  0  0  0
    8.8829   -2.3295   23.1851 C   0  0  0  0  0  0  0  0  0  0  0  0
    7.8517   -3.1252   22.8574 N   0  0  0  0  0  0  0  0  0  0  0  0
    7.8342   -4.0793   23.7906 N   0  0  0  0  0  0  0  0  0  0  0  0
    6.8052   -5.1003   23.7914 C   0  0  0  0  0  0  0  0  0  0  0  0
    5.9794   -4.8360   24.4602 H   0  0  0  0  0  0  0  0  0  0  0  0
    7.2417   -6.0406   24.1318 H   0  0  0  0  0  0  0  0  0  0  0  0
    6.4263   -5.2271   22.7776 H   0  0  0  0  0  0  0  0  0  0  0  0
    8.7964   -3.9106   24.7249 C   0  0  0  0  0  0  0  0  0  0  0  0
    8.8975   -4.5980   25.5554 H   0  0  0  0  0  0  0  0  0  0  0  0
    9.4952   -2.7912   24.3688 C   0  0  0  0  0  0  0  0  0  0  0  0
   10.3408   -2.3341   24.8483 H   0  0  0  0  0  0  0  0  0  0  0  0
   10.4889   -0.5530   22.6836 N   0  0  0  0  0  0  0  0  0  0  0  0
   10.6829    0.5625   21.7548 C   0  0  0  0  0  0  0  0  0  0  0  0
   11.6459    0.4392   21.2529 H   0  0  0  0  0  0  0  0  0  0  0  0
   10.7350    1.4930   22.3295 H   0  0  0  0  0  0  0  0  0  0  0  0
    9.4815    0.5759   20.7768 C   0  0  0  0  0  0  0  0  0  0  0  0
    9.7188    0.2893   19.7528 H   0  0  0  0  0  0  0  0  0  0  0  0
    8.9805    1.5466   20.7153 H   0  0  0  0  0  0  0  0  0  0  0  0
    6.6433   -0.0088   19.8991 C   0  0  0  0  0  0  0  0  0  0  0  0
    7.1630    0.0677   18.5893 C   0  0  0  0  0  0  0  0  0  0  0  0
    8.1066   -0.4275   18.3700 H   0  0  0  0  0  0  0  0  0  0  0  0
    6.5609    0.6872   17.5661 N   0  0  0  0  0  0  0  0  0  0  0  0
    5.3974    1.3015   17.8307 C   0  0  0  0  0  0  0  0  0  0  0  0
    4.9159    1.7899   16.9874 H   0  0  0  0  0  0  0  0  0  0  0  0
    4.7975    1.3149   19.0958 C   0  0  0  0  0  0  0  0  0  0  0  0
    3.8689    1.8488   19.2508 H   0  0  0  0  0  0  0  0  0  0  0  0
    5.4178    0.6373   20.1441 C   0  0  0  0  0  0  0  0  0  0  0  0
    5.0069    0.6225   21.1560 H   0  0  0  0  0  0  0  0  0  0  0  0
  1  2  1  0
  2  3  2  3
  3  4  1  0
  4  5  1  0
  5  6  2  0
  6  7  1  0
  7  8  1  0
  8  9  1  0
  8 10  1  0
  8 11  1  0
  7 12  1  0
 12 13  1  0
 12 14  2  0
 14 15  1  0
  4 16  2  0
 16 17  1  0
 17 18  1  0
 17 19  1  0
 17 20  1  0
 20 21  1  0
 20 22  1  0
  2 23  1  0
 23 24  2  0
 24 25  1  0
 24 26  1  0
 26 27  2  0
 27 28  1  0
 27 29  1  0
 29 30  1  0
 29 31  2  0
 31 32  1  0
 20  3  1  0
 31 23  1  0
 14  5  1  0
M  END
>  <cnnaffinity>  (1) 
-5.42542

>  <filename>  (1) 
Cn1ccc(C2=NCCC2=Cc2cccnc2)n1

$$$$
