
     RDKit          3D

 29 31  0  0  0  0  0  0  0  0999 V2000
    4.9327    1.7948   16.9975 H   0  0  0  0  0  0  0  0  0  0  0  0
    5.3977    1.2894   17.8383 C   0  0  0  0  0  0  0  0  0  0  0  0
    6.5536    0.6603   17.5731 N   0  0  0  0  0  0  0  0  0  0  0  0
    7.1721    0.0424   18.5859 C   0  0  0  0  0  0  0  0  0  0  0  0
    8.1266   -0.4313   18.3640 H   0  0  0  0  0  0  0  0  0  0  0  0
    6.6551   -0.0023   19.8973 C   0  0  0  0  0  0  0  0  0  0  0  0
    7.3455   -0.6821   20.9464 N   0  0  0  0  0  0  0  0  0  0  0  0
    6.7559   -1.5986   21.8020 C   0  0  0  0  0  0  0  0  0  0  0  0
    5.7016   -1.8109   21.7069 H   0  0  0  0  0  0  0  0  0  0  0  0
    7.6925   -2.0609   22.6705 C   0  0  0  0  0  0  0  0  0  0  0  0
    7.5599   -3.0094   23.7812 C   0  0  0  0  0  0  0  0  0  0  0  0
    8.5633   -3.3874   24.5812 N   0  0  0  0  0  0  0  0  0  0  0  0
    8.0139   -4.2543   25.4384 N   0  0  0  0  0  0  0  0  0  0  0  0
    8.8262   -4.9342   26.4290 C   0  0  0  0  0  0  0  0  0  0  0  0
    9.6982   -4.3095   26.6330 H   0  0  0  0  0  0  0  0  0  0  0  0
    9.1490   -5.9164   26.0610 H   0  0  0  0  0  0  0  0  0  0  0  0
    8.2311   -5.0604   27.3395 H   0  0  0  0  0  0  0  0  0  0  0  0
    6.6949   -4.4580   25.2134 C   0  0  0  0  0  0  0  0  0  0  0  0
    6.1357   -5.1492   25.8398 H   0  0  0  0  0  0  0  0  0  0  0  0
    6.3601   -3.6619   24.1463 C   0  0  0  0  0  0  0  0  0  0  0  0
    5.4110   -3.5196   23.6597 H   0  0  0  0  0  0  0  0  0  0  0  0
    8.8654   -1.3932   22.3116 N   0  0  0  0  0  0  0  0  0  0  0  0
    9.7846   -1.4326   22.7316 H   0  0  0  0  0  0  0  0  0  0  0  0
    8.6702   -0.5109   21.3049 C   0  0  0  0  0  0  0  0  0  0  0  0
    9.8116    0.5502   20.7498 S   0  0  0  0  0  0  0  0  0  0  0  0
    5.4424    0.6418   20.1595 C   0  0  0  0  0  0  0  0  0  0  0  0
    5.0318    0.6304   21.1701 H   0  0  0  0  0  0  0  0  0  0  0  0
    4.8096    1.3073   19.1074 C   0  0  0  0  0  0  0  0  0  0  0  0
    3.8802    1.8393   19.2615 H   0  0  0  0  0  0  0  0  0  0  0  0
  1  2  1  0
  2  3  2  0
  3  4  1  0
  4  5  1  0
  4  6  2  0
  6  7  1  0
  7  8  1  0
  8  9  1  0
  8 10  2  0
 10 11  1  0
 11 12  2  0
 12 13  1  0
 13 14  1  0
 14 15  1  0
 14 16  1  0
 14 17  1  0
 13 18  1  0
 18 19  1  0
 18 20  2  0
 20 21  1  0
 10 22  1  0
 22 23  1  0
 22 24  1  0
 24 25  2  0
  6 26  1  0
 26 27  1  0
 26 28  2  0
 28 29  1  0
 28  2  1  0
 24  7  1  0
 20 11  1  0
M  END
>  <cnnaffinity>  (1) 
-5.20547

>  <filename>  (1) 
Cn1ccc(-c2cn(-c3cccnc3)c(=S)[nH]2)n1

$$$$
