
     RDKit          3D

 30 32  0  0  0  0  0  0  0  0999 V2000
    4.9391    1.7975   16.9853 H   0  0  0  0  0  0  0  0  0  0  0  0
    5.3936    1.2937   17.8370 C   0  0  0  0  0  0  0  0  0  0  0  0
    6.5467    0.6605   17.5854 N   0  0  0  0  0  0  0  0  0  0  0  0
    7.1409    0.0357   18.6078 C   0  0  0  0  0  0  0  0  0  0  0  0
    8.1081   -0.4172   18.3918 H   0  0  0  0  0  0  0  0  0  0  0  0
    6.6144   -0.0208   19.9106 C   0  0  0  0  0  0  0  0  0  0  0  0
    7.3246   -0.7426   20.9888 C   0  0  0  0  0  0  0  0  0  0  0  0
    6.6032   -1.5122   21.7792 N   0  0  0  0  0  0  0  0  0  0  0  0
    7.2039   -2.2216   22.8090 C   0  0  0  0  0  0  0  0  0  0  0  0
    6.3296   -3.0876   23.6611 C   0  0  0  0  0  0  0  0  0  0  0  0
    6.7950   -3.7634   24.7247 N   0  0  0  0  0  0  0  0  0  0  0  0
    5.7320   -4.3796   25.2469 N   0  0  0  0  0  0  0  0  0  0  0  0
    5.8429   -5.2158   26.4275 C   0  0  0  0  0  0  0  0  0  0  0  0
    5.1398   -6.0502   26.3267 H   0  0  0  0  0  0  0  0  0  0  0  0
    6.8660   -5.5935   26.4811 H   0  0  0  0  0  0  0  0  0  0  0  0
    5.5972   -4.6421   27.3290 H   0  0  0  0  0  0  0  0  0  0  0  0
    4.5944   -4.1231   24.5660 C   0  0  0  0  0  0  0  0  0  0  0  0
    3.6475   -4.5185   24.9157 H   0  0  0  0  0  0  0  0  0  0  0  0
    4.9444   -3.3221   23.5090 C   0  0  0  0  0  0  0  0  0  0  0  0
    4.3353   -2.9644   22.6956 H   0  0  0  0  0  0  0  0  0  0  0  0
    8.5565   -2.1331   23.0568 C   0  0  0  0  0  0  0  0  0  0  0  0
    9.0569   -2.6652   23.8596 H   0  0  0  0  0  0  0  0  0  0  0  0
    9.3049   -1.3267   22.2443 N   0  0  0  0  0  0  0  0  0  0  0  0
   10.3013   -1.1436   22.3020 H   0  0  0  0  0  0  0  0  0  0  0  0
    8.8151   -0.5720   21.1884 C   0  0  0  0  0  0  0  0  0  0  0  0
    9.6269    0.1143   20.5867 O   0  0  0  0  0  0  0  0  0  0  0  0
    5.3975    0.6375   20.1520 C   0  0  0  0  0  0  0  0  0  0  0  0
    4.9577    0.6353   21.1506 H   0  0  0  0  0  0  0  0  0  0  0  0
    4.7876    1.3176   19.0985 C   0  0  0  0  0  0  0  0  0  0  0  0
    3.8624    1.8657   19.2350 H   0  0  0  0  0  0  0  0  0  0  0  0
  1  2  1  0
  2  3  2  0
  3  4  1  0
  4  5  1  0
  4  6  2  0
  6  7  1  0
  7  8  2  0
  8  9  1  0
  9 10  1  0
 10 11  2  0
 11 12  1  0
 12 13  1  0
 13 14  1  0
 13 15  1  0
 13 16  1  0
 12 17  1  0
 17 18  1  0
 17 19  2  0
 19 20  1  0
  9 21  2  0
 21 22  1  0
 21 23  1  0
 23 24  1  0
 23 25  1  0
 25 26  2  0
  6 27  1  0
 27 28  1  0
 27 29  2  0
 29 30  1  0
 29  2  1  0
 25  7  1  0
 19 10  1  0
M  END
>  <cnnaffinity>  (1) 
-5.06099

>  <filename>  (1) 
Cn1ccc(-c2c[nH]c(=O)c(-c3cccnc3)n2)n1

$$$$
