
     RDKit          3D

 37 38  0  0  0  0  0  0  0  0999 V2000
    5.0649    1.7033   17.0683 H   0  0  0  0  0  0  0  0  0  0  0  0
    5.4754    1.1932   17.9382 C   0  0  0  0  0  0  0  0  0  0  0  0
    6.6182    0.5217   17.7438 N   0  0  0  0  0  0  0  0  0  0  0  0
    7.1550   -0.1122   18.7796 C   0  0  0  0  0  0  0  0  0  0  0  0
    8.0794   -0.6525   18.5798 H   0  0  0  0  0  0  0  0  0  0  0  0
    6.5722   -0.0863   20.0406 C   0  0  0  0  0  0  0  0  0  0  0  0
    7.5209   -0.8617   21.2610 S   0  0  0  0  0  0  0  0  0  0  0  0
    7.5049   -0.0579   22.4686 O   0  0  0  0  0  0  0  0  0  0  0  0
    8.7874   -1.2373   20.6476 O   0  0  0  0  0  0  0  0  0  0  0  0
    6.6180   -2.2365   21.6134 N   0  0  0  0  0  0  0  0  0  0  0  0
    6.3045   -3.1242   20.4971 C   0  0  0  0  0  0  0  0  0  0  0  0
    5.3709   -3.6486   20.7178 H   0  0  0  0  0  0  0  0  0  0  0  0
    7.0738   -3.8868   20.3380 H   0  0  0  0  0  0  0  0  0  0  0  0
    6.1673   -2.6013   19.5478 H   0  0  0  0  0  0  0  0  0  0  0  0
    7.1023   -2.8961   22.8496 C   0  0  0  0  0  0  0  0  0  0  0  0
    7.2661   -2.0886   23.5763 H   0  0  0  0  0  0  0  0  0  0  0  0
    8.4115   -3.6779   22.6538 C   0  0  0  0  0  0  0  0  0  0  0  0
    8.2324   -4.4974   21.9476 H   0  0  0  0  0  0  0  0  0  0  0  0
    9.1894   -3.0401   22.2287 H   0  0  0  0  0  0  0  0  0  0  0  0
    8.8549   -4.3224   23.9608 C   0  0  0  0  0  0  0  0  0  0  0  0
    9.1288   -3.5498   24.7111 H   0  0  0  0  0  0  0  0  0  0  0  0
    9.7570   -4.9203   23.7869 H   0  0  0  0  0  0  0  0  0  0  0  0
    7.8051   -5.2170   24.4426 N   0  0  0  0  0  0  0  0  0  0  0  0
    8.2633   -6.0164   25.5685 C   0  0  0  0  0  0  0  0  0  0  0  0
    7.4644   -6.6862   25.9044 H   0  0  0  0  0  0  0  0  0  0  0  0
    9.1064   -6.6409   25.2502 H   0  0  0  0  0  0  0  0  0  0  0  0
    8.5934   -5.4141   26.4390 H   0  0  0  0  0  0  0  0  0  0  0  0
    6.5513   -4.5134   24.7175 C   0  0  0  0  0  0  0  0  0  0  0  0
    5.8116   -5.2561   25.0486 H   0  0  0  0  0  0  0  0  0  0  0  0
    6.6572   -3.7788   25.5452 H   0  0  0  0  0  0  0  0  0  0  0  0
    6.0365   -3.8225   23.4495 C   0  0  0  0  0  0  0  0  0  0  0  0
    5.7766   -4.6051   22.7290 H   0  0  0  0  0  0  0  0  0  0  0  0
    5.1268   -3.2515   23.6563 H   0  0  0  0  0  0  0  0  0  0  0  0
    5.3649    0.5841   20.2718 C   0  0  0  0  0  0  0  0  0  0  0  0
    4.8557    0.6153   21.2393 H   0  0  0  0  0  0  0  0  0  0  0  0
    4.8193    1.2411   19.1718 C   0  0  0  0  0  0  0  0  0  0  0  0
    3.8980    1.8033   19.2499 H   0  0  0  0  0  0  0  0  0  0  0  0
  1  2  1  0
  2  3  2  0
  3  4  1  0
  4  5  1  0
  4  6  2  0
  6  7  1  0
  7  8  2  0
  7  9  2  0
  7 10  1  0
 10 11  1  0
 11 12  1  0
 11 13  1  0
 11 14  1  0
 10 15  1  0
 15 16  1  0
 15 17  1  0
 17 18  1  0
 17 19  1  0
 17 20  1  0
 20 21  1  0
 20 22  1  0
 20 23  1  0
 23 24  1  0
 24 25  1  0
 24 26  1  0
 24 27  1  0
 23 28  1  0
 28 29  1  0
 28 30  1  0
 28 31  1  0
 31 32  1  0
 31 33  1  0
  6 34  1  0
 34 35  1  0
 34 36  2  0
 36 37  1  0
 36  2  1  0
 31 15  1  0
M  END
>  <cnnaffinity>  (1) 
-4.56344

>  <filename>  (1) 
CN1CCC(N(C)S(=O)(=O)c2cccnc2)CC1

$$$$
