
     RDKit          3D

 35 37  0  0  0  0  0  0  0  0999 V2000
    4.9286    1.8018   16.9849 H   0  0  0  0  0  0  0  0  0  0  0  0
    5.3988    1.3018   17.8301 C   0  0  0  0  0  0  0  0  0  0  0  0
    6.5584    0.6778   17.5734 N   0  0  0  0  0  0  0  0  0  0  0  0
    7.1600    0.0471   18.5871 C   0  0  0  0  0  0  0  0  0  0  0  0
    8.1048   -0.4393   18.3506 H   0  0  0  0  0  0  0  0  0  0  0  0
    6.6468    0.0132   19.8904 C   0  0  0  0  0  0  0  0  0  0  0  0
    7.4004   -0.6970   20.9274 C   0  0  0  0  0  0  0  0  0  0  0  0
    8.0763   -1.7874   20.7306 N   0  0  0  0  0  0  0  0  0  0  0  0
    8.5877   -2.0725   21.9580 N   0  0  0  0  0  0  0  0  0  0  0  0
    9.2014   -2.8580   22.1239 H   0  0  0  0  0  0  0  0  0  0  0  0
    8.2906   -1.1912   22.9278 C   0  0  0  0  0  0  0  0  0  0  0  0
    8.8234   -1.3035   24.5028 S   0  0  0  0  0  0  0  0  0  0  0  0
    7.4902   -0.2770   22.2480 N   0  0  0  0  0  0  0  0  0  0  0  0
    6.9110    0.9025   22.6805 N   0  0  0  0  0  0  0  0  0  0  0  0
    6.2228    0.9146   23.9734 C   0  0  0  0  0  0  0  0  0  0  0  0
    5.6628   -0.0190   24.0949 H   0  0  0  0  0  0  0  0  0  0  0  0
    6.9447    0.9693   24.8016 H   0  0  0  0  0  0  0  0  0  0  0  0
    5.2824    2.1284   23.9730 C   0  0  0  0  0  0  0  0  0  0  0  0
    4.7805    2.2112   24.9422 H   0  0  0  0  0  0  0  0  0  0  0  0
    4.4991    1.9614   23.2030 H   0  0  0  0  0  0  0  0  0  0  0  0
    6.0156    3.3770   23.7162 N   0  0  0  0  0  0  0  0  0  0  0  0
    5.1397    4.5380   23.7725 C   0  0  0  0  0  0  0  0  0  0  0  0
    4.6648    4.6045   24.7573 H   0  0  0  0  0  0  0  0  0  0  0  0
    4.3352    4.5223   23.0106 H   0  0  0  0  0  0  0  0  0  0  0  0
    5.7199    5.4557   23.6244 H   0  0  0  0  0  0  0  0  0  0  0  0
    6.7150    3.2982   22.4251 C   0  0  0  0  0  0  0  0  0  0  0  0
    7.2675    4.2300   22.2622 H   0  0  0  0  0  0  0  0  0  0  0  0
    6.0064    3.1712   21.5794 H   0  0  0  0  0  0  0  0  0  0  0  0
    7.6806    2.1153   22.3917 C   0  0  0  0  0  0  0  0  0  0  0  0
    8.1147    2.0209   21.3875 H   0  0  0  0  0  0  0  0  0  0  0  0
    8.5080    2.2456   23.1080 H   0  0  0  0  0  0  0  0  0  0  0  0
    5.4346    0.6685   20.1470 C   0  0  0  0  0  0  0  0  0  0  0  0
    5.0183    0.6568   21.1537 H   0  0  0  0  0  0  0  0  0  0  0  0
    4.7969    1.3188   19.0948 C   0  0  0  0  0  0  0  0  0  0  0  0
    3.8603    1.8459   19.2393 H   0  0  0  0  0  0  0  0  0  0  0  0
  1  2  1  0
  2  3  2  0
  3  4  1  0
  4  5  1  0
  4  6  2  0
  6  7  1  0
  7  8  2  0
  8  9  1  0
  9 10  1  0
  9 11  1  0
 11 12  2  0
 11 13  1  0
 13 14  1  0
 14 15  1  0
 15 16  1  0
 15 17  1  0
 15 18  1  0
 18 19  1  0
 18 20  1  0
 18 21  1  0
 21 22  1  0
 22 23  1  0
 22 24  1  0
 22 25  1  0
 21 26  1  0
 26 27  1  0
 26 28  1  0
 26 29  1  0
 29 30  1  0
 29 31  1  0
  6 32  1  0
 32 33  1  0
 32 34  2  0
 34 35  1  0
 34  2  1  0
 13  7  1  0
 29 14  1  0
M  END
>  <cnnaffinity>  (1) 
-4.85219

>  <filename>  (1) 
CN1CCN(n2c(-c3cccnc3)n[nH]c2=S)CC1

$$$$
