
     RDKit          3D

 29 31  0  0  0  0  0  0  0  0999 V2000
    4.9195    1.7965   16.9804 H   0  0  0  0  0  0  0  0  0  0  0  0
    5.3867    1.2994   17.8286 C   0  0  0  0  0  0  0  0  0  0  0  0
    6.5459    0.6730   17.5692 N   0  0  0  0  0  0  0  0  0  0  0  0
    7.1527    0.0540   18.5854 C   0  0  0  0  0  0  0  0  0  0  0  0
    8.1141   -0.4120   18.3868 H   0  0  0  0  0  0  0  0  0  0  0  0
    6.6321   -0.0032   19.8917 C   0  0  0  0  0  0  0  0  0  0  0  0
    7.3663   -0.6781   20.8979 N   0  0  0  0  0  0  0  0  0  0  0  0
    8.7685   -0.6512   21.1270 C   0  0  0  0  0  0  0  0  0  0  0  0
    9.5831   -0.0456   20.4495 O   0  0  0  0  0  0  0  0  0  0  0  0
    8.9318   -1.4819   22.3004 C   0  0  0  0  0  0  0  0  0  0  0  0
    9.8888   -1.6925   22.7417 H   0  0  0  0  0  0  0  0  0  0  0  0
    7.7191   -1.9277   22.7263 C   0  0  0  0  0  0  0  0  0  0  0  0
    7.3895   -2.7958   23.8761 C   0  0  0  0  0  0  0  0  0  0  0  0
    8.3400   -3.2865   24.6813 N   0  0  0  0  0  0  0  0  0  0  0  0
    7.6907   -4.0123   25.5909 N   0  0  0  0  0  0  0  0  0  0  0  0
    8.4245   -4.7560   26.5965 C   0  0  0  0  0  0  0  0  0  0  0  0
    8.5841   -5.7921   26.2784 H   0  0  0  0  0  0  0  0  0  0  0  0
    7.8454   -4.7443   27.5216 H   0  0  0  0  0  0  0  0  0  0  0  0
    9.3878   -4.2688   26.7570 H   0  0  0  0  0  0  0  0  0  0  0  0
    6.3525   -4.0252   25.3939 C   0  0  0  0  0  0  0  0  0  0  0  0
    5.7072   -4.5904   26.0581 H   0  0  0  0  0  0  0  0  0  0  0  0
    6.1124   -3.2422   24.2894 C   0  0  0  0  0  0  0  0  0  0  0  0
    5.1685   -2.9990   23.8257 H   0  0  0  0  0  0  0  0  0  0  0  0
    6.7637   -1.4138   21.8908 N   0  0  0  0  0  0  0  0  0  0  0  0
    5.7651   -1.5490   21.8856 H   0  0  0  0  0  0  0  0  0  0  0  0
    5.4201    0.6494   20.1559 C   0  0  0  0  0  0  0  0  0  0  0  0
    5.0134    0.6456   21.1674 H   0  0  0  0  0  0  0  0  0  0  0  0
    4.7966    1.3170   19.0993 C   0  0  0  0  0  0  0  0  0  0  0  0
    3.8670    1.8507   19.2491 H   0  0  0  0  0  0  0  0  0  0  0  0
  1  2  1  0
  2  3  2  0
  3  4  1  0
  4  5  1  0
  4  6  2  0
  6  7  1  0
  7  8  1  0
  8  9  2  0
  8 10  1  0
 10 11  1  0
 10 12  2  0
 12 13  1  0
 13 14  2  0
 14 15  1  0
 15 16  1  0
 16 17  1  0
 16 18  1  0
 16 19  1  0
 15 20  1  0
 20 21  1  0
 20 22  2  0
 22 23  1  0
 12 24  1  0
 24 25  1  0
  6 26  1  0
 26 27  1  0
 26 28  2  0
 28 29  1  0
 28  2  1  0
 24  7  1  0
 22 13  1  0
M  END
>  <cnnaffinity>  (1) 
-4.99773

>  <filename>  (1) 
Cn1ccc(-c2cc(=O)n(-c3cccnc3)[nH]2)n1

$$$$
