
     RDKit          3D

 35 38  0  0  0  0  0  0  0  0999 V2000
    4.9591    1.8425   16.9428 H   0  0  0  0  0  0  0  0  0  0  0  0
    5.3843    1.3113   17.7900 C   0  0  0  0  0  0  0  0  0  0  0  0
    6.5414    0.6640   17.5805 N   0  0  0  0  0  0  0  0  0  0  0  0
    7.0935    0.0294   18.6255 C   0  0  0  0  0  0  0  0  0  0  0  0
    8.0437   -0.4621   18.4052 H   0  0  0  0  0  0  0  0  0  0  0  0
    6.5146   -0.0249   19.9142 C   0  0  0  0  0  0  0  0  0  0  0  0
    7.2467   -0.6555   21.0310 C   0  0  0  0  0  0  0  0  0  0  0  0
    8.6035   -0.6342   21.2526 C   0  0  0  0  0  0  0  0  0  0  0  0
    8.8052   -1.1692   22.5149 C   0  0  0  0  0  0  0  0  0  0  0  0
    7.6940   -1.6090   23.0684 N   0  0  0  0  0  0  0  0  0  0  0  0
    6.7380   -1.2686   22.1511 N   0  0  0  0  0  0  0  0  0  0  0  0
    5.7688   -1.4268   22.4007 H   0  0  0  0  0  0  0  0  0  0  0  0
   10.2316   -1.0274   22.9722 C   0  0  0  0  0  0  0  0  0  0  0  0
   10.7102   -2.0090   22.9973 H   0  0  0  0  0  0  0  0  0  0  0  0
   10.3173   -0.6019   23.9774 H   0  0  0  0  0  0  0  0  0  0  0  0
   10.8723   -0.1069   21.8669 C   0  0  2  0  0  0  0  0  0  0  0  0
   11.7909   -0.5792   21.5075 H   0  0  0  0  0  0  0  0  0  0  0  0
   11.2587    1.2553   22.3772 C   0  0  0  0  0  0  0  0  0  0  0  0
   12.4965    1.8729   22.4698 C   0  0  0  0  0  0  0  0  0  0  0  0
   13.4567    1.4714   22.1772 H   0  0  0  0  0  0  0  0  0  0  0  0
   12.2319    3.1332   23.0318 C   0  0  0  0  0  0  0  0  0  0  0  0
   12.9215    3.9313   23.2761 H   0  0  0  0  0  0  0  0  0  0  0  0
   10.9409    3.2937   23.2749 N   0  0  0  0  0  0  0  0  0  0  0  0
   10.3613    2.1557   22.8725 N   0  0  0  0  0  0  0  0  0  0  0  0
    8.9215    2.0463   23.0021 C   0  0  0  0  0  0  0  0  0  0  0  0
    8.5587    2.9420   23.5048 H   0  0  0  0  0  0  0  0  0  0  0  0
    8.4434    1.9942   22.0235 H   0  0  0  0  0  0  0  0  0  0  0  0
    8.6422    1.1862   23.6097 H   0  0  0  0  0  0  0  0  0  0  0  0
    9.8439   -0.0439   20.6855 C   0  0  0  0  0  0  0  0  0  0  0  0
   10.1969   -0.6405   19.8460 H   0  0  0  0  0  0  0  0  0  0  0  0
    9.6990    0.9714   20.2969 H   0  0  0  0  0  0  0  0  0  0  0  0
    5.3004    0.6597   20.0972 C   0  0  0  0  0  0  0  0  0  0  0  0
    4.8493    0.7047   21.0879 H   0  0  0  0  0  0  0  0  0  0  0  0
    4.7271    1.3363   19.0245 C   0  0  0  0  0  0  0  0  0  0  0  0
    3.8119    1.9081   19.1442 H   0  0  0  0  0  0  0  0  0  0  0  0
  1  2  1  0
  2  3  2  0
  3  4  1  0
  4  5  1  0
  4  6  2  0
  6  7  1  0
  7  8  2  0
  8  9  1  0
  9 10  2  0
 10 11  1  0
 11 12  1  0
  9 13  1  0
 13 14  1  0
 13 15  1  0
 13 16  1  0
 16 17  1  6
 16 18  1  0
 18 19  2  0
 19 20  1  0
 19 21  1  0
 21 22  1  0
 21 23  2  0
 23 24  1  0
 24 25  1  0
 25 26  1  0
 25 27  1  0
 25 28  1  0
 16 29  1  0
 29 30  1  0
 29 31  1  0
  6 32  1  0
 32 33  1  0
 32 34  2  0
 34 35  1  0
 34  2  1  0
 11  7  1  0
 24 18  1  0
 29  8  1  0
M  END
>  <cnnaffinity>  (1) 
-5.6887

>  <filename>  (1) 
Cn1nccc1[C@H]1Cc2n[nH]c(-c3cccnc3)c2C1

$$$$
