
     RDKit          3D

 18 18  0  0  0  0  0  0  0  0999 V2000
    4.9470    1.7738   16.9987 H   0  0  0  0  0  0  0  0  0  0  0  0
    5.4086    1.2814   17.8533 C   0  0  0  0  0  0  0  0  0  0  0  0
    6.5706    0.6559   17.6236 N   0  0  0  0  0  0  0  0  0  0  0  0
    7.1575    0.0350   18.6497 C   0  0  0  0  0  0  0  0  0  0  0  0
    8.1163   -0.4231   18.4199 H   0  0  0  0  0  0  0  0  0  0  0  0
    6.6053   -0.0354   19.9330 C   0  0  0  0  0  0  0  0  0  0  0  0
    7.4237   -0.7353   20.9738 C   0  0  0  0  0  0  0  0  0  0  0  0
    8.6360   -0.8258   20.8989 O   0  0  0  0  0  0  0  0  0  0  0  0
    6.7297   -1.2628   22.0136 N   0  0  0  0  0  0  0  0  0  0  0  0
    5.7274   -1.2893   21.9456 H   0  0  0  0  0  0  0  0  0  0  0  0
    7.4048   -1.8579   23.1564 C   0  0  0  0  0  0  0  0  0  0  0  0
    8.0798   -2.6646   22.8462 H   0  0  0  0  0  0  0  0  0  0  0  0
    6.6611   -2.2548   23.8492 H   0  0  0  0  0  0  0  0  0  0  0  0
    8.0124   -1.1114   23.6817 H   0  0  0  0  0  0  0  0  0  0  0  0
    5.3973    0.6385   20.1735 C   0  0  0  0  0  0  0  0  0  0  0  0
    4.9600    0.6772   21.1768 H   0  0  0  0  0  0  0  0  0  0  0  0
    4.7960    1.3108   19.1110 C   0  0  0  0  0  0  0  0  0  0  0  0
    3.8681    1.8520   19.2467 H   0  0  0  0  0  0  0  0  0  0  0  0
  1  2  1  0
  2  3  2  0
  3  4  1  0
  4  5  1  0
  4  6  2  0
  6  7  1  0
  7  8  2  0
  7  9  1  0
  9 10  1  0
  9 11  1  0
 11 12  1  0
 11 13  1  0
 11 14  1  0
  6 15  1  0
 15 16  1  0
 15 17  2  0
 17 18  1  0
 17  2  1  0
M  END
>  <cnnaffinity>  (1) 
-3.43053

>  <filename>  (1) 
CNC(=O)c1cccnc1

$$$$
