
     RDKit          3D

 23 23  0  0  0  0  0  0  0  0999 V2000
    4.9636    1.8083   17.0336 H   0  0  0  0  0  0  0  0  0  0  0  0
    5.4199    1.2662   17.8650 C   0  0  0  0  0  0  0  0  0  0  0  0
    6.5811    0.6476   17.5964 N   0  0  0  0  0  0  0  0  0  0  0  0
    7.1766   -0.0017   18.5946 C   0  0  0  0  0  0  0  0  0  0  0  0
    8.1339   -0.4633   18.3590 H   0  0  0  0  0  0  0  0  0  0  0  0
    6.6618   -0.1186   19.9026 C   0  0  0  0  0  0  0  0  0  0  0  0
    7.4827   -0.8221   20.9254 C   0  0  0  0  0  0  0  0  0  0  0  0
    9.1107   -0.8151   20.8448 S   0  0  0  0  0  0  0  0  0  0  0  0
    6.7817   -1.5761   22.0291 C   0  0  0  0  0  0  0  0  0  0  0  0
    6.0823   -0.9423   22.5743 H   0  0  0  0  0  0  0  0  0  0  0  0
    7.5301   -1.9039   22.7564 H   0  0  0  0  0  0  0  0  0  0  0  0
    5.9895   -2.7852   21.5411 C   0  0  0  0  0  0  0  0  0  0  0  0
    4.8739   -3.0501   21.9494 O   0  0  0  0  0  0  0  0  0  0  0  0
    6.6271   -3.5791   20.6472 N   0  0  0  0  0  0  0  0  0  0  0  0
    7.5605   -3.3178   20.3857 H   0  0  0  0  0  0  0  0  0  0  0  0
    5.9596   -4.6515   19.9378 C   0  0  0  0  0  0  0  0  0  0  0  0
    5.3827   -4.2769   19.0808 H   0  0  0  0  0  0  0  0  0  0  0  0
    6.7044   -5.3575   19.5808 H   0  0  0  0  0  0  0  0  0  0  0  0
    5.2889   -5.1782   20.6231 H   0  0  0  0  0  0  0  0  0  0  0  0
    5.4373    0.5251   20.1615 C   0  0  0  0  0  0  0  0  0  0  0  0
    4.9957    0.5246   21.1579 H   0  0  0  0  0  0  0  0  0  0  0  0
    4.8166    1.2274   19.1232 C   0  0  0  0  0  0  0  0  0  0  0  0
    3.8975    1.7813   19.2786 H   0  0  0  0  0  0  0  0  0  0  0  0
  1  2  1  0
  2  3  2  0
  3  4  1  0
  4  5  1  0
  4  6  2  0
  6  7  1  0
  7  8  2  0
  7  9  1  0
  9 10  1  0
  9 11  1  0
  9 12  1  0
 12 13  2  0
 12 14  1  0
 14 15  1  0
 14 16  1  0
 16 17  1  0
 16 18  1  0
 16 19  1  0
  6 20  1  0
 20 21  1  0
 20 22  2  0
 22 23  1  0
 22  2  1  0
M  END
>  <cnnaffinity>  (1) 
-4.07428

>  <filename>  (1) 
CNC(=O)CC(=S)c1cccnc1

$$$$
