
     RDKit          3D

 33 35  0  0  0  0  0  0  0  0999 V2000
    5.0034    1.8442   16.9017 H   0  0  0  0  0  0  0  0  0  0  0  0
    5.4285    1.2911   17.7382 C   0  0  0  0  0  0  0  0  0  0  0  0
    6.5719    0.6307   17.4976 N   0  0  0  0  0  0  0  0  0  0  0  0
    7.1416   -0.0064   18.5249 C   0  0  0  0  0  0  0  0  0  0  0  0
    8.0675   -0.5356   18.3111 H   0  0  0  0  0  0  0  0  0  0  0  0
    6.6182   -0.0182   19.8315 C   0  0  0  0  0  0  0  0  0  0  0  0
    7.3916   -0.6243   20.9286 C   0  0  0  0  0  0  0  0  0  0  0  0
    8.5471   -1.2641   20.6838 N   0  0  0  0  0  0  0  0  0  0  0  0
    8.9642   -1.6162   21.9214 N   0  0  0  0  0  0  0  0  0  0  0  0
   10.1051   -2.2040   22.4617 C   0  0  0  0  0  0  0  0  0  0  0  0
   10.8840   -2.5977   21.8344 H   0  0  0  0  0  0  0  0  0  0  0  0
    9.9505   -2.1419   23.8104 C   0  0  0  0  0  0  0  0  0  0  0  0
   10.6248   -2.4568   24.5976 H   0  0  0  0  0  0  0  0  0  0  0  0
    8.7148   -1.5629   24.1129 N   0  0  0  0  0  0  0  0  0  0  0  0
    8.3483   -0.8694   25.3440 C   0  0  0  0  0  0  0  0  0  0  0  0
    8.8694   -1.3180   26.1955 H   0  0  0  0  0  0  0  0  0  0  0  0
    7.2717   -1.0010   25.5211 H   0  0  0  0  0  0  0  0  0  0  0  0
    8.6927    0.6202   25.2414 C   0  0  0  0  0  0  0  0  0  0  0  0
    9.7897    0.7070   25.2184 H   0  0  0  0  0  0  0  0  0  0  0  0
    8.3315    0.9890   24.2606 H   0  0  0  0  0  0  0  0  0  0  0  0
    8.1803    1.3737   26.3714 N   0  0  0  0  0  0  0  0  0  0  0  0
    7.1623    1.3405   26.3707 H   0  0  0  0  0  0  0  0  0  0  0  0
    8.6032    2.7637   26.3600 C   0  0  0  0  0  0  0  0  0  0  0  0
    9.6902    2.7936   26.2444 H   0  0  0  0  0  0  0  0  0  0  0  0
    8.1824    3.3644   25.5377 H   0  0  0  0  0  0  0  0  0  0  0  0
    8.3491    3.2499   27.3068 H   0  0  0  0  0  0  0  0  0  0  0  0
    8.1347   -1.2248   22.9080 C   0  0  0  0  0  0  0  0  0  0  0  0
    7.0715   -0.5645   22.3097 C   0  0  0  0  0  0  0  0  0  0  0  0
    6.1997   -0.1226   22.7642 H   0  0  0  0  0  0  0  0  0  0  0  0
    5.3873    0.6267   20.0507 C   0  0  0  0  0  0  0  0  0  0  0  0
    4.9082    0.6199   21.0311 H   0  0  0  0  0  0  0  0  0  0  0  0
    4.7935    1.2975   18.9843 C   0  0  0  0  0  0  0  0  0  0  0  0
    3.8737    1.8567   19.1164 H   0  0  0  0  0  0  0  0  0  0  0  0
  1  2  1  0
  2  3  2  0
  3  4  1  0
  4  5  1  0
  4  6  2  0
  6  7  1  0
  7  8  2  0
  8  9  1  0
  9 10  1  0
 10 11  1  0
 10 12  2  0
 12 13  1  0
 12 14  1  0
 14 15  1  0
 15 16  1  0
 15 17  1  0
 15 18  1  0
 18 19  1  0
 18 20  1  0
 18 21  1  0
 21 22  1  0
 21 23  1  0
 23 24  1  0
 23 25  1  0
 23 26  1  0
 14 27  1  0
 27 28  2  0
 28 29  1  0
  6 30  1  0
 30 31  1  0
 30 32  2  0
 32 33  1  0
 32  2  1  0
 28  7  1  0
 27  9  1  0
M  END
>  <cnnaffinity>  (1) 
-5.12746

>  <filename>  (1) 
CNCCn1ccn2nc(-c3cccnc3)cc12

$$$$
