
     RDKit          3D

 19 19  0  0  0  0  0  0  0  0999 V2000
    4.9566    1.7774   17.0033 H   0  0  0  0  0  0  0  0  0  0  0  0
    5.4112    1.2739   17.8560 C   0  0  0  0  0  0  0  0  0  0  0  0
    6.5739    0.6545   17.6075 N   0  0  0  0  0  0  0  0  0  0  0  0
    7.1892    0.0693   18.6358 C   0  0  0  0  0  0  0  0  0  0  0  0
    8.1426   -0.4059   18.4003 H   0  0  0  0  0  0  0  0  0  0  0  0
    6.6603    0.0249   19.9374 C   0  0  0  0  0  0  0  0  0  0  0  0
    7.4835   -0.6948   20.9670 C   0  0  0  0  0  0  0  0  0  0  0  0
    8.6838   -0.5455   21.0027 O   0  0  0  0  0  0  0  0  0  0  0  0
    6.7965   -1.7117   21.9364 C   0  0  0  0  0  0  0  0  0  0  0  0
    5.5370   -2.6437   21.4586 S   0  0  0  0  0  0  0  0  0  0  0  0
    7.3997   -1.7509   23.1107 O   0  0  0  0  0  0  0  0  0  0  0  0
    6.9125   -2.6417   24.1281 C   0  0  0  0  0  0  0  0  0  0  0  0
    7.6765   -2.6306   24.9044 H   0  0  0  0  0  0  0  0  0  0  0  0
    5.9496   -2.2839   24.5073 H   0  0  0  0  0  0  0  0  0  0  0  0
    6.7686   -3.6527   23.7319 H   0  0  0  0  0  0  0  0  0  0  0  0
    5.4303    0.6528   20.1823 C   0  0  0  0  0  0  0  0  0  0  0  0
    4.9709    0.6581   21.1719 H   0  0  0  0  0  0  0  0  0  0  0  0
    4.8046    1.2974   19.1140 C   0  0  0  0  0  0  0  0  0  0  0  0
    3.8738    1.8390   19.2351 H   0  0  0  0  0  0  0  0  0  0  0  0
  1  2  1  0
  2  3  2  0
  3  4  1  0
  4  5  1  0
  4  6  2  0
  6  7  1  0
  7  8  2  0
  7  9  1  0
  9 10  2  0
  9 11  1  0
 11 12  1  0
 12 13  1  0
 12 14  1  0
 12 15  1  0
  6 16  1  0
 16 17  1  0
 16 18  2  0
 18 19  1  0
 18  2  1  0
M  END
>  <cnnaffinity>  (1) 
-3.60904

>  <filename>  (1) 
COC(=S)C(=O)c1cccnc1

$$$$
