
     RDKit          3D

 35 37  0  0  0  0  0  0  0  0999 V2000
    4.9238    1.7830   16.9965 H   0  0  0  0  0  0  0  0  0  0  0  0
    5.4059    1.2928   17.8384 C   0  0  0  0  0  0  0  0  0  0  0  0
    6.5701    0.6804   17.5773 N   0  0  0  0  0  0  0  0  0  0  0  0
    7.1708    0.0498   18.5892 C   0  0  0  0  0  0  0  0  0  0  0  0
    8.1182   -0.4328   18.3648 H   0  0  0  0  0  0  0  0  0  0  0  0
    6.6476   -0.0083   19.8877 C   0  0  0  0  0  0  0  0  0  0  0  0
    7.3765   -0.7272   20.9405 C   0  0  0  0  0  0  0  0  0  0  0  0
    7.9570   -1.8775   20.7078 N   0  0  0  0  0  0  0  0  0  0  0  0
    8.4483   -2.3166   21.9172 O   0  0  0  0  0  0  0  0  0  0  0  0
    8.1633   -1.4108   22.8527 C   0  0  0  0  0  0  0  0  0  0  0  0
    8.5206   -1.6212   23.8493 H   0  0  0  0  0  0  0  0  0  0  0  0
    7.5042   -0.3475   22.3239 C   0  0  0  0  0  0  0  0  0  0  0  0
    7.1081    0.8922   23.0126 C   0  0  0  0  0  0  0  0  0  0  0  0
    7.2498    2.1359   22.3915 C   0  0  0  0  0  0  0  0  0  0  0  0
    7.6348    2.1732   21.3758 H   0  0  0  0  0  0  0  0  0  0  0  0
    6.8766    3.3043   23.0596 C   0  0  0  0  0  0  0  0  0  0  0  0
    6.9887    4.2525   22.5436 H   0  0  0  0  0  0  0  0  0  0  0  0
    6.3721    3.2630   24.3656 C   0  0  0  0  0  0  0  0  0  0  0  0
    6.0004    4.3611   25.0758 O   0  0  0  0  0  0  0  0  0  0  0  0
    6.0955    5.6556   24.5101 C   0  0  0  0  0  0  0  0  0  0  0  0
    5.7341    6.3262   25.2872 H   0  0  0  0  0  0  0  0  0  0  0  0
    5.4632    5.7819   23.6204 H   0  0  0  0  0  0  0  0  0  0  0  0
    7.1270    5.9387   24.2595 H   0  0  0  0  0  0  0  0  0  0  0  0
    6.2381    1.9847   25.0185 C   0  0  0  0  0  0  0  0  0  0  0  0
    5.7552    1.9903   26.2921 O   0  0  0  0  0  0  0  0  0  0  0  0
    5.5929    0.7831   27.0143 C   0  0  0  0  0  0  0  0  0  0  0  0
    6.5395    0.2516   27.1809 H   0  0  0  0  0  0  0  0  0  0  0  0
    4.8708    0.0993   26.5482 H   0  0  0  0  0  0  0  0  0  0  0  0
    5.1995    1.0893   27.9818 H   0  0  0  0  0  0  0  0  0  0  0  0
    6.6100    0.8327   24.3247 C   0  0  0  0  0  0  0  0  0  0  0  0
    6.5153   -0.1460   24.7886 H   0  0  0  0  0  0  0  0  0  0  0  0
    5.4273    0.6370   20.1492 C   0  0  0  0  0  0  0  0  0  0  0  0
    5.0058    0.6414   21.1588 H   0  0  0  0  0  0  0  0  0  0  0  0
    4.8032    1.3053   19.1012 C   0  0  0  0  0  0  0  0  0  0  0  0
    3.8752    1.8418   19.2552 H   0  0  0  0  0  0  0  0  0  0  0  0
  1  2  1  0
  2  3  2  0
  3  4  1  0
  4  5  1  0
  4  6  2  0
  6  7  1  0
  7  8  2  0
  8  9  1  0
  9 10  1  0
 10 11  1  0
 10 12  2  0
 12 13  1  0
 13 14  2  0
 14 15  1  0
 14 16  1  0
 16 17  1  0
 16 18  2  0
 18 19  1  0
 19 20  1  0
 20 21  1  0
 20 22  1  0
 20 23  1  0
 18 24  1  0
 24 25  1  0
 25 26  1  0
 26 27  1  0
 26 28  1  0
 26 29  1  0
 24 30  2  0
 30 31  1  0
  6 32  1  0
 32 33  1  0
 32 34  2  0
 34 35  1  0
 34  2  1  0
 12  7  1  0
 30 13  1  0
M  END
>  <cnnaffinity>  (1) 
-5.04072

>  <filename>  (1) 
COc1ccc(-c2conc2-c2cccnc2)cc1OC

$$$$
