
     RDKit          3D

 30 32  0  0  0  0  0  0  0  0999 V2000
    4.9303    2.1322   16.5637 H   0  0  0  0  0  0  0  0  0  0  0  0
    5.2584    1.6164   17.4650 C   0  0  0  0  0  0  0  0  0  0  0  0
    6.3914    0.9038   17.3540 N   0  0  0  0  0  0  0  0  0  0  0  0
    6.8098    0.2269   18.4261 C   0  0  0  0  0  0  0  0  0  0  0  0
    7.7205   -0.3632   18.3104 H   0  0  0  0  0  0  0  0  0  0  0  0
    6.1319    0.2299   19.6572 C   0  0  0  0  0  0  0  0  0  0  0  0
    6.7306   -0.5159   20.7635 C   0  0  0  0  0  0  0  0  0  0  0  0
    7.8826   -1.1574   20.6974 N   0  0  0  0  0  0  0  0  0  0  0  0
    8.0552   -1.6380   21.9567 C   0  0  0  0  0  0  0  0  0  0  0  0
    9.2972   -2.3728   22.3848 C   0  0  0  0  0  0  0  0  0  0  0  0
    9.6348   -2.9573   21.5255 H   0  0  0  0  0  0  0  0  0  0  0  0
    9.0535   -3.0315   23.2279 H   0  0  0  0  0  0  0  0  0  0  0  0
   10.4308   -1.5233   22.7375 N   0  0  0  0  0  0  0  0  0  0  0  0
   11.5657   -1.4971   21.9326 N   0  0  0  0  0  0  0  0  0  0  0  0
   12.3241   -0.6768   22.5593 C   0  0  0  0  0  0  0  0  0  0  0  0
   13.5668   -0.3815   22.2276 O   0  0  0  0  0  0  0  0  0  0  0  0
   14.2048    0.7541   22.8239 C   0  0  0  0  0  0  0  0  0  0  0  0
   15.1444    0.8401   22.2795 H   0  0  0  0  0  0  0  0  0  0  0  0
   13.5991    1.6550   22.6806 H   0  0  0  0  0  0  0  0  0  0  0  0
   14.3843    0.5992   23.8943 H   0  0  0  0  0  0  0  0  0  0  0  0
   11.8144   -0.1435   23.6874 O   0  0  0  0  0  0  0  0  0  0  0  0
   10.5800   -0.7406   23.8472 C   0  0  0  0  0  0  0  0  0  0  0  0
    9.8679   -0.5676   24.7946 O   0  0  0  0  0  0  0  0  0  0  0  0
    7.0639   -1.3792   22.7827 N   0  0  0  0  0  0  0  0  0  0  0  0
    6.2251   -0.6411   22.0109 N   0  0  0  0  0  0  0  0  0  0  0  0
    5.3622   -0.2876   22.3982 H   0  0  0  0  0  0  0  0  0  0  0  0
    4.9545    0.9866   19.7640 C   0  0  0  0  0  0  0  0  0  0  0  0
    4.3968    1.0457   20.6997 H   0  0  0  0  0  0  0  0  0  0  0  0
    4.5137    1.6851   18.6458 C   0  0  0  0  0  0  0  0  0  0  0  0
    3.6097    2.2815   18.6713 H   0  0  0  0  0  0  0  0  0  0  0  0
  1  2  1  0
  2  3  2  0
  3  4  1  0
  4  5  1  0
  4  6  2  0
  6  7  1  0
  7  8  2  0
  8  9  1  0
  9 10  1  0
 10 11  1  0
 10 12  1  0
 10 13  1  0
 13 14  1  0
 14 15  2  0
 15 16  1  0
 16 17  1  0
 17 18  1  0
 17 19  1  0
 17 20  1  0
 15 21  1  0
 21 22  1  0
 22 23  2  0
  9 24  2  0
 24 25  1  0
 25 26  1  0
  6 27  1  0
 27 28  1  0
 27 29  2  0
 29 30  1  0
 29  2  1  0
 25  7  1  0
 22 13  1  0
M  END
>  <cnnaffinity>  (1) 
-5.0698

>  <filename>  (1) 
COc1nn(Cc2n[nH]c(-c3cccnc3)n2)c(=O)o1

$$$$
