
     RDKit          3D

 31 33  0  0  0  0  0  0  0  0999 V2000
    4.9701    1.8111   16.9518 H   0  0  0  0  0  0  0  0  0  0  0  0
    5.4234    1.3011   17.7973 C   0  0  0  0  0  0  0  0  0  0  0  0
    6.5813    0.6680   17.5516 N   0  0  0  0  0  0  0  0  0  0  0  0
    7.1639    0.0474   18.5845 C   0  0  0  0  0  0  0  0  0  0  0  0
    8.0912   -0.4738   18.3536 H   0  0  0  0  0  0  0  0  0  0  0  0
    6.6496    0.0076   19.8960 C   0  0  0  0  0  0  0  0  0  0  0  0
    7.3878   -0.7169   20.9533 C   0  0  0  0  0  0  0  0  0  0  0  0
    6.6061   -1.2563   22.4094 S   0  0  0  0  0  0  0  0  0  0  0  0
    8.0614   -1.9402   23.0146 C   0  0  0  0  0  0  0  0  0  0  0  0
    8.0893   -2.3865   24.0028 H   0  0  0  0  0  0  0  0  0  0  0  0
    9.0999   -1.7727   22.1548 C   0  0  0  0  0  0  0  0  0  0  0  0
   10.5380   -2.1463   22.4502 C   0  0  0  0  0  0  0  0  0  0  0  0
   10.5794   -2.9654   23.1785 H   0  0  0  0  0  0  0  0  0  0  0  0
   11.0382   -2.4808   21.5391 H   0  0  0  0  0  0  0  0  0  0  0  0
   11.3045   -1.0122   22.9491 N   0  0  0  0  0  0  0  0  0  0  0  0
   12.0607   -0.2153   22.0855 N   0  0  0  0  0  0  0  0  0  0  0  0
   12.2167    0.8568   22.7656 C   0  0  0  0  0  0  0  0  0  0  0  0
   12.9093    1.9096   22.3735 O   0  0  0  0  0  0  0  0  0  0  0  0
   13.3180    2.8594   23.3634 C   0  0  0  0  0  0  0  0  0  0  0  0
   12.4539    3.3993   23.7578 H   0  0  0  0  0  0  0  0  0  0  0  0
   13.9934    3.5614   22.8730 H   0  0  0  0  0  0  0  0  0  0  0  0
   13.8323    2.3447   24.1762 H   0  0  0  0  0  0  0  0  0  0  0  0
   11.6106    0.8873   23.9711 O   0  0  0  0  0  0  0  0  0  0  0  0
   10.9997   -0.3398   24.0994 C   0  0  0  0  0  0  0  0  0  0  0  0
   10.3866   -0.6757   25.0727 O   0  0  0  0  0  0  0  0  0  0  0  0
    8.7151   -1.0564   20.9762 C   0  0  0  0  0  0  0  0  0  0  0  0
    9.4313   -0.7633   20.2109 H   0  0  0  0  0  0  0  0  0  0  0  0
    5.4251    0.6719   20.1248 C   0  0  0  0  0  0  0  0  0  0  0  0
    4.9709    0.6801   21.1161 H   0  0  0  0  0  0  0  0  0  0  0  0
    4.8088    1.3222   19.0549 C   0  0  0  0  0  0  0  0  0  0  0  0
    3.8715    1.8537   19.1854 H   0  0  0  0  0  0  0  0  0  0  0  0
  1  2  1  0
  2  3  2  0
  3  4  1  0
  4  5  1  0
  4  6  2  0
  6  7  1  0
  7  8  1  0
  8  9  1  0
  9 10  1  0
  9 11  2  0
 11 12  1  0
 12 13  1  0
 12 14  1  0
 12 15  1  0
 15 16  1  0
 16 17  2  0
 17 18  1  0
 18 19  1  0
 19 20  1  0
 19 21  1  0
 19 22  1  0
 17 23  1  0
 23 24  1  0
 24 25  2  0
 11 26  1  0
 26 27  1  0
  6 28  1  0
 28 29  1  0
 28 30  2  0
 30 31  1  0
 30  2  1  0
 26  7  2  0
 24 15  1  0
M  END
>  <cnnaffinity>  (1) 
-4.55982

>  <filename>  (1) 
COc1nn(Cc2csc(-c3cccnc3)c2)c(=O)o1

$$$$
