
     RDKit          3D

 36 38  0  0  0  0  0  0  0  0999 V2000
    4.9369    1.8169   16.9683 H   0  0  0  0  0  0  0  0  0  0  0  0
    5.4323    1.3203   17.8014 C   0  0  0  0  0  0  0  0  0  0  0  0
    6.6053    0.7252   17.5240 N   0  0  0  0  0  0  0  0  0  0  0  0
    7.2319    0.0895   18.5196 C   0  0  0  0  0  0  0  0  0  0  0  0
    8.1795   -0.3901   18.2700 H   0  0  0  0  0  0  0  0  0  0  0  0
    6.7159   -0.0085   19.8287 C   0  0  0  0  0  0  0  0  0  0  0  0
    7.4005   -0.7429   20.8439 N   0  0  0  0  0  0  0  0  0  0  0  0
    6.8802   -1.7033   21.7494 C   0  0  0  0  0  0  0  0  0  0  0  0
    5.7662   -2.1983   21.7115 O   0  0  0  0  0  0  0  0  0  0  0  0
    8.0012   -2.0042   22.6415 C   0  0  0  0  0  0  0  0  0  0  0  0
    7.8180   -2.7352   23.9416 C   0  0  0  0  0  0  0  0  0  0  0  0
    7.0356   -3.4949   23.8133 H   0  0  0  0  0  0  0  0  0  0  0  0
    8.7334   -3.2867   24.1989 H   0  0  0  0  0  0  0  0  0  0  0  0
    7.4353   -1.8039   25.0946 C   0  0  0  0  0  0  0  0  0  0  0  0
    6.1027   -1.6644   25.5079 C   0  0  0  0  0  0  0  0  0  0  0  0
    5.3293   -2.2074   24.9691 H   0  0  0  0  0  0  0  0  0  0  0  0
    5.7399   -0.8550   26.5914 C   0  0  0  0  0  0  0  0  0  0  0  0
    4.6957   -0.7531   26.8732 H   0  0  0  0  0  0  0  0  0  0  0  0
    6.7303   -0.1715   27.2916 C   0  0  0  0  0  0  0  0  0  0  0  0
    6.4738    0.4485   28.1471 H   0  0  0  0  0  0  0  0  0  0  0  0
    8.0626   -0.2605   26.8856 C   0  0  0  0  0  0  0  0  0  0  0  0
    8.8160    0.2752   27.4505 H   0  0  0  0  0  0  0  0  0  0  0  0
    8.4175   -1.0372   25.7669 C   0  0  0  0  0  0  0  0  0  0  0  0
    9.7046   -1.1265   25.2978 O   0  0  0  0  0  0  0  0  0  0  0  0
   10.6705   -0.2560   25.8631 C   0  0  0  0  0  0  0  0  0  0  0  0
   10.7134   -0.3851   26.9502 H   0  0  0  0  0  0  0  0  0  0  0  0
   10.4373    0.7938   25.6437 H   0  0  0  0  0  0  0  0  0  0  0  0
   11.6463   -0.5239   25.4518 H   0  0  0  0  0  0  0  0  0  0  0  0
    9.0970   -1.3718   22.1486 C   0  0  0  0  0  0  0  0  0  0  0  0
   10.1210   -1.4083   22.5075 H   0  0  0  0  0  0  0  0  0  0  0  0
    8.7721   -0.6647   21.0254 N   0  0  0  0  0  0  0  0  0  0  0  0
    9.3110    0.0680   20.5879 H   0  0  0  0  0  0  0  0  0  0  0  0
    5.4915    0.6190   20.1104 C   0  0  0  0  0  0  0  0  0  0  0  0
    5.0713    0.5757   21.1136 H   0  0  0  0  0  0  0  0  0  0  0  0
    4.8498    1.3010   19.0708 C   0  0  0  0  0  0  0  0  0  0  0  0
    3.9064    1.8083   19.2292 H   0  0  0  0  0  0  0  0  0  0  0  0
  1  2  1  0
  2  3  2  0
  3  4  1  0
  4  5  1  0
  4  6  2  0
  6  7  1  0
  7  8  1  0
  8  9  2  0
  8 10  1  0
 10 11  1  0
 11 12  1  0
 11 13  1  0
 11 14  1  0
 14 15  2  0
 15 16  1  0
 15 17  1  0
 17 18  1  0
 17 19  2  0
 19 20  1  0
 19 21  1  0
 21 22  1  0
 21 23  2  0
 23 24  1  0
 24 25  1  0
 25 26  1  0
 25 27  1  0
 25 28  1  0
 10 29  2  0
 29 30  1  0
 29 31  1  0
 31 32  1  0
  6 33  1  0
 33 34  1  0
 33 35  2  0
 35 36  1  0
 35  2  1  0
 31  7  1  0
 23 14  1  0
M  END
>  <cnnaffinity>  (1) 
-5.23307

>  <filename>  (1) 
COc1ccccc1Cc1c[nH]n(-c2cccnc2)c1=O

$$$$
