
     RDKit          3D

 34 37  0  0  0  0  0  0  0  0999 V2000
    5.0200    1.8011   16.9384 H   0  0  0  0  0  0  0  0  0  0  0  0
    5.4426    1.2939   17.8038 C   0  0  0  0  0  0  0  0  0  0  0  0
    6.5770    0.6137   17.5820 N   0  0  0  0  0  0  0  0  0  0  0  0
    7.1393   -0.0071   18.6224 C   0  0  0  0  0  0  0  0  0  0  0  0
    8.0392   -0.5808   18.4113 H   0  0  0  0  0  0  0  0  0  0  0  0
    6.6326    0.0472   19.9308 C   0  0  0  0  0  0  0  0  0  0  0  0
    7.3675   -0.6055   21.0056 C   0  0  0  0  0  0  0  0  0  0  0  0
    7.9509   -1.8380   20.8294 N   0  0  0  0  0  0  0  0  0  0  0  0
    8.3878   -2.1422   22.0204 C   0  0  0  0  0  0  0  0  0  0  0  0
    9.2178   -3.4901   22.7450 S   0  0  0  0  0  0  0  0  0  0  0  0
    9.3213   -2.6109   24.2628 C   0  0  0  0  0  0  0  0  0  0  0  0
    9.8541   -3.0542   25.0936 H   0  0  0  0  0  0  0  0  0  0  0  0
    8.7112   -1.4152   24.2108 C   0  0  0  0  0  0  0  0  0  0  0  0
    8.5717   -0.6872   25.0054 H   0  0  0  0  0  0  0  0  0  0  0  0
    8.1735   -1.1637   22.9529 N   0  0  0  0  0  0  0  0  0  0  0  0
    7.5236   -0.1364   22.3023 C   0  0  0  0  0  0  0  0  0  0  0  0
    7.2342    1.1374   23.0285 C   0  0  0  0  0  0  0  0  0  0  0  0
    8.1312    1.4789   23.5733 H   0  0  0  0  0  0  0  0  0  0  0  0
    6.9888    1.9263   22.3104 H   0  0  0  0  0  0  0  0  0  0  0  0
    6.1160    1.0187   23.9717 N   0  0  0  0  0  0  0  0  0  0  0  0
    5.9851   -0.0098   24.9145 N   0  0  0  0  0  0  0  0  0  0  0  0
    4.7501    0.1037   25.2617 C   0  0  0  0  0  0  0  0  0  0  0  0
    4.0972   -0.6723   26.1076 O   0  0  0  0  0  0  0  0  0  0  0  0
    2.7767   -0.2818   26.5233 C   0  0  0  0  0  0  0  0  0  0  0  0
    2.4435   -1.0724   27.1927 H   0  0  0  0  0  0  0  0  0  0  0  0
    2.8162    0.6704   27.0651 H   0  0  0  0  0  0  0  0  0  0  0  0
    2.0986   -0.2095   25.6653 H   0  0  0  0  0  0  0  0  0  0  0  0
    4.0587    1.0923   24.6640 O   0  0  0  0  0  0  0  0  0  0  0  0
    4.9326    1.6645   23.7787 C   0  0  0  0  0  0  0  0  0  0  0  0
    4.6225    2.5449   23.0246 O   0  0  0  0  0  0  0  0  0  0  0  0
    5.4171    0.7218   20.1404 C   0  0  0  0  0  0  0  0  0  0  0  0
    4.9364    0.7411   21.1206 H   0  0  0  0  0  0  0  0  0  0  0  0
    4.8143    1.3491   19.0521 C   0  0  0  0  0  0  0  0  0  0  0  0
    3.8786    1.8828   19.1586 H   0  0  0  0  0  0  0  0  0  0  0  0
  1  2  1  0
  2  3  2  0
  3  4  1  0
  4  5  1  0
  4  6  2  0
  6  7  1  0
  7  8  1  0
  8  9  2  0
  9 10  1  0
 10 11  1  0
 11 12  1  0
 11 13  2  0
 13 14  1  0
 13 15  1  0
 15 16  1  0
 16 17  1  0
 17 18  1  0
 17 19  1  0
 17 20  1  0
 20 21  1  0
 21 22  2  0
 22 23  1  0
 23 24  1  0
 24 25  1  0
 24 26  1  0
 24 27  1  0
 22 28  1  0
 28 29  1  0
 29 30  2  0
  6 31  1  0
 31 32  1  0
 31 33  2  0
 33 34  1  0
 33  2  1  0
 16  7  2  0
 29 20  1  0
 15  9  1  0
M  END
>  <cnnaffinity>  (1) 
-5.26484

>  <filename>  (1) 
COc1nn(Cc2c(-c3cccnc3)nc3sccn23)c(=O)o1

$$$$
