
     RDKit          3D

 33 35  0  0  0  0  0  0  0  0999 V2000
    4.9266    1.7580   16.9096 H   0  0  0  0  0  0  0  0  0  0  0  0
    5.3767    1.3625   17.8183 C   0  0  0  0  0  0  0  0  0  0  0  0
    6.5941    0.8171   17.6708 N   0  0  0  0  0  0  0  0  0  0  0  0
    7.1683    0.3059   18.7646 C   0  0  0  0  0  0  0  0  0  0  0  0
    8.1557   -0.1264   18.6001 H   0  0  0  0  0  0  0  0  0  0  0  0
    6.5908    0.3167   20.0517 C   0  0  0  0  0  0  0  0  0  0  0  0
    7.2627   -0.4260   21.1599 C   0  0  0  0  0  0  0  0  0  0  0  0
    7.4707    0.3785   22.7038 S   0  0  0  0  0  0  0  0  0  0  0  0
    8.2162   -0.8693   23.6845 C   0  0  0  0  0  0  0  0  0  0  0  0
    8.4062   -0.5432   25.1664 C   0  0  0  0  0  0  0  0  0  0  0  0
    9.3847   -0.9256   25.4894 H   0  0  0  0  0  0  0  0  0  0  0  0
    8.3633    0.5346   25.3421 H   0  0  0  0  0  0  0  0  0  0  0  0
    7.4269   -1.1976   26.0263 N   0  0  0  0  0  0  0  0  0  0  0  0
    7.6313   -2.4919   26.5152 N   0  0  0  0  0  0  0  0  0  0  0  0
    6.4500   -2.8237   26.8989 C   0  0  0  0  0  0  0  0  0  0  0  0
    6.0267   -3.9306   27.4773 O   0  0  0  0  0  0  0  0  0  0  0  0
    6.9867   -4.9731   27.7090 C   0  0  0  0  0  0  0  0  0  0  0  0
    7.8425   -4.6141   28.2885 H   0  0  0  0  0  0  0  0  0  0  0  0
    7.3421   -5.4001   26.7659 H   0  0  0  0  0  0  0  0  0  0  0  0
    6.4462   -5.7328   28.2750 H   0  0  0  0  0  0  0  0  0  0  0  0
    5.4783   -1.9261   26.6933 O   0  0  0  0  0  0  0  0  0  0  0  0
    6.1056   -0.8454   26.1028 C   0  0  0  0  0  0  0  0  0  0  0  0
    5.5579    0.1591   25.7628 O   0  0  0  0  0  0  0  0  0  0  0  0
    8.5959   -2.0778   23.2255 C   0  0  0  0  0  0  0  0  0  0  0  0
    9.1194   -2.7766   23.8754 H   0  0  0  0  0  0  0  0  0  0  0  0
    8.2955   -2.5961   21.8915 C   0  0  0  0  0  0  0  0  0  0  0  0
    8.5525   -3.7528   21.5894 O   0  0  0  0  0  0  0  0  0  0  0  0
    7.6691   -1.6866   20.9343 C   0  0  0  0  0  0  0  0  0  0  0  0
    7.5163   -2.1251   19.9628 H   0  0  0  0  0  0  0  0  0  0  0  0
    5.3379    0.9364   20.1916 C   0  0  0  0  0  0  0  0  0  0  0  0
    4.8730    1.0154   21.1755 H   0  0  0  0  0  0  0  0  0  0  0  0
    4.7135    1.4445   19.0476 C   0  0  0  0  0  0  0  0  0  0  0  0
    3.7399    1.9231   19.0949 H   0  0  0  0  0  0  0  0  0  0  0  0
  1  2  1  0
  2  3  2  0
  3  4  1  0
  4  5  1  0
  4  6  2  0
  6  7  1  0
  7  8  1  0
  8  9  1  0
  9 10  1  0
 10 11  1  0
 10 12  1  0
 10 13  1  0
 13 14  1  0
 14 15  2  0
 15 16  1  0
 16 17  1  0
 17 18  1  0
 17 19  1  0
 17 20  1  0
 15 21  1  0
 21 22  1  0
 22 23  2  0
  9 24  2  0
 24 25  1  0
 24 26  1  0
 26 27  2  0
 26 28  1  0
 28 29  1  0
  6 30  1  0
 30 31  1  0
 30 32  2  0
 32 33  1  0
 32  2  1  0
 28  7  2  0
 22 13  1  0
M  END
>  <cnnaffinity>  (1) 
-5.2201

>  <filename>  (1) 
COc1nn(Cc2cc(=O)cc(-c3cccnc3)s2)c(=O)o1

$$$$
