
     RDKit          3D

 33 35  0  0  0  0  0  0  0  0999 V2000
    4.9899    1.8026   16.9802 H   0  0  0  0  0  0  0  0  0  0  0  0
    5.4588    1.2999   17.8235 C   0  0  0  0  0  0  0  0  0  0  0  0
    6.6414    0.7078   17.5794 N   0  0  0  0  0  0  0  0  0  0  0  0
    7.2518    0.0986   18.5999 C   0  0  0  0  0  0  0  0  0  0  0  0
    8.2156   -0.3583   18.3928 H   0  0  0  0  0  0  0  0  0  0  0  0
    6.6958    0.0068   19.8907 C   0  0  0  0  0  0  0  0  0  0  0  0
    7.3754   -0.7136   20.9235 N   0  0  0  0  0  0  0  0  0  0  0  0
    8.6978   -0.3789   21.0681 N   0  0  0  0  0  0  0  0  0  0  0  0
    9.3652   -0.9285   22.0362 C   0  0  0  0  0  0  0  0  0  0  0  0
   10.3972   -0.6030   22.1215 H   0  0  0  0  0  0  0  0  0  0  0  0
    8.8071   -1.9144   22.9317 C   0  0  0  0  0  0  0  0  0  0  0  0
    9.6252   -2.4896   24.0641 C   0  0  0  0  0  0  0  0  0  0  0  0
    9.2864   -3.5074   24.2961 H   0  0  0  0  0  0  0  0  0  0  0  0
   10.6891   -2.5268   23.8124 H   0  0  0  0  0  0  0  0  0  0  0  0
    9.4763   -1.7083   25.2757 N   0  0  0  0  0  0  0  0  0  0  0  0
    8.3408   -1.8188   26.0770 N   0  0  0  0  0  0  0  0  0  0  0  0
    8.4297   -0.7770   26.8197 C   0  0  0  0  0  0  0  0  0  0  0  0
    7.5798   -0.4485   27.7748 O   0  0  0  0  0  0  0  0  0  0  0  0
    7.8913    0.6281   28.6749 C   0  0  0  0  0  0  0  0  0  0  0  0
    8.8537    0.4715   29.1770 H   0  0  0  0  0  0  0  0  0  0  0  0
    7.9017    1.5875   28.1518 H   0  0  0  0  0  0  0  0  0  0  0  0
    7.0848    0.6171   29.4104 H   0  0  0  0  0  0  0  0  0  0  0  0
    9.4741    0.0402   26.5636 O   0  0  0  0  0  0  0  0  0  0  0  0
   10.1670   -0.5645   25.5401 C   0  0  0  0  0  0  0  0  0  0  0  0
   11.1768   -0.1422   25.0459 O   0  0  0  0  0  0  0  0  0  0  0  0
    7.5050   -2.2749   22.7527 C   0  0  0  0  0  0  0  0  0  0  0  0
    6.9949   -2.9840   23.3936 H   0  0  0  0  0  0  0  0  0  0  0  0
    6.6934   -1.7493   21.6677 C   0  0  0  0  0  0  0  0  0  0  0  0
    5.5779   -2.1394   21.3726 O   0  0  0  0  0  0  0  0  0  0  0  0
    5.4663    0.6240   20.1385 C   0  0  0  0  0  0  0  0  0  0  0  0
    5.0174    0.5734   21.1288 H   0  0  0  0  0  0  0  0  0  0  0  0
    4.8462    1.2939   19.0792 C   0  0  0  0  0  0  0  0  0  0  0  0
    3.9079    1.8173   19.2190 H   0  0  0  0  0  0  0  0  0  0  0  0
  1  2  1  0
  2  3  2  0
  3  4  1  0
  4  5  1  0
  4  6  2  0
  6  7  1  0
  7  8  1  0
  8  9  2  0
  9 10  1  0
  9 11  1  0
 11 12  1  0
 12 13  1  0
 12 14  1  0
 12 15  1  0
 15 16  1  0
 16 17  2  0
 17 18  1  0
 18 19  1  0
 19 20  1  0
 19 21  1  0
 19 22  1  0
 17 23  1  0
 23 24  1  0
 24 25  2  0
 11 26  2  0
 26 27  1  0
 26 28  1  0
 28 29  2  0
  6 30  1  0
 30 31  1  0
 30 32  2  0
 32 33  1  0
 32  2  1  0
 28  7  1  0
 24 15  1  0
M  END
>  <cnnaffinity>  (1) 
-4.90884

>  <filename>  (1) 
COc1nn(Cc2cnn(-c3cccnc3)c(=O)c2)c(=O)o1

$$$$
