
     RDKit          3D

 32 34  0  0  0  0  0  0  0  0999 V2000
    5.3697    1.9501   16.8420 H   0  0  0  0  0  0  0  0  0  0  0  0
    5.7045    1.2673   17.6237 C   0  0  0  0  0  0  0  0  0  0  0  0
    6.9184    0.7157   17.4445 N   0  0  0  0  0  0  0  0  0  0  0  0
    7.3868   -0.0796   18.4109 C   0  0  0  0  0  0  0  0  0  0  0  0
    8.3674   -0.5304   18.2538 H   0  0  0  0  0  0  0  0  0  0  0  0
    6.6749   -0.3766   19.5990 C   0  0  0  0  0  0  0  0  0  0  0  0
    7.2920   -1.1099   20.6465 N   0  0  0  0  0  0  0  0  0  0  0  0
    6.7217   -1.8980   21.6726 C   0  0  0  0  0  0  0  0  0  0  0  0
    5.6252   -2.4263   21.6345 O   0  0  0  0  0  0  0  0  0  0  0  0
    7.7794   -1.9322   22.7013 C   0  0  0  0  0  0  0  0  0  0  0  0
    7.6299   -2.4990   24.0876 C   0  0  0  0  0  0  0  0  0  0  0  0
    6.6714   -2.2222   24.5416 H   0  0  0  0  0  0  0  0  0  0  0  0
    8.4175   -2.1264   24.7585 H   0  0  0  0  0  0  0  0  0  0  0  0
    7.6365   -3.9613   24.1277 N   0  0  0  0  0  0  0  0  0  0  0  0
    6.4740   -4.5809   23.6505 N   0  0  0  0  0  0  0  0  0  0  0  0
    6.9379   -5.6026   23.0330 C   0  0  0  0  0  0  0  0  0  0  0  0
    6.2842   -6.4618   22.2821 O   0  0  0  0  0  0  0  0  0  0  0  0
    4.9894   -6.0639   21.7687 C   0  0  0  0  0  0  0  0  0  0  0  0
    4.9910   -6.3975   20.7283 H   0  0  0  0  0  0  0  0  0  0  0  0
    4.8326   -4.9796   21.8303 H   0  0  0  0  0  0  0  0  0  0  0  0
    4.1958   -6.5850   22.3144 H   0  0  0  0  0  0  0  0  0  0  0  0
    8.2664   -5.7864   23.0791 O   0  0  0  0  0  0  0  0  0  0  0  0
    8.7521   -4.6836   23.7586 C   0  0  0  0  0  0  0  0  0  0  0  0
    9.9080   -4.4376   23.9399 O   0  0  0  0  0  0  0  0  0  0  0  0
    8.8712   -1.3357   22.1861 C   0  0  0  0  0  0  0  0  0  0  0  0
    9.8549   -1.2298   22.6326 H   0  0  0  0  0  0  0  0  0  0  0  0
    8.6513   -0.8848   20.8932 N   0  0  0  0  0  0  0  0  0  0  0  0
    8.9350    0.0661   20.6683 H   0  0  0  0  0  0  0  0  0  0  0  0
    5.3746    0.1297   19.7354 C   0  0  0  0  0  0  0  0  0  0  0  0
    4.7710   -0.1141   20.6095 H   0  0  0  0  0  0  0  0  0  0  0  0
    4.8999    0.9890   18.7342 C   0  0  0  0  0  0  0  0  0  0  0  0
    3.9333    1.4757   18.8154 H   0  0  0  0  0  0  0  0  0  0  0  0
  1  2  1  0
  2  3  2  0
  3  4  1  0
  4  5  1  0
  4  6  2  0
  6  7  1  0
  7  8  1  0
  8  9  2  0
  8 10  1  0
 10 11  1  0
 11 12  1  0
 11 13  1  0
 11 14  1  0
 14 15  1  0
 15 16  2  0
 16 17  1  0
 17 18  1  0
 18 19  1  0
 18 20  1  0
 18 21  1  0
 16 22  1  0
 22 23  1  0
 23 24  2  0
 10 25  2  0
 25 26  1  0
 25 27  1  0
 27 28  1  0
  6 29  1  0
 29 30  1  0
 29 31  2  0
 31 32  1  0
 31  2  1  0
 27  7  1  0
 23 14  1  0
M  END
>  <cnnaffinity>  (1) 
-5.28375

>  <filename>  (1) 
COc1nn(Cc2c[nH]n(-c3cccnc3)c2=O)c(=O)o1

$$$$
