
     RDKit          3D

 35 37  0  0  0  0  0  0  0  0999 V2000
    4.9167    1.7997   16.9719 H   0  0  0  0  0  0  0  0  0  0  0  0
    5.3928    1.3033   17.8183 C   0  0  0  0  0  0  0  0  0  0  0  0
    6.5587    0.6851   17.5628 N   0  0  0  0  0  0  0  0  0  0  0  0
    7.1716    0.0711   18.5827 C   0  0  0  0  0  0  0  0  0  0  0  0
    8.1086   -0.4235   18.3306 H   0  0  0  0  0  0  0  0  0  0  0  0
    6.6665    0.0168   19.8950 C   0  0  0  0  0  0  0  0  0  0  0  0
    7.3381   -0.7047   20.9782 C   0  0  0  0  0  0  0  0  0  0  0  0
    6.8211   -1.2337   22.1020 C   0  0  0  0  0  0  0  0  0  0  0  0
    5.8024   -1.2932   22.4080 H   0  0  0  0  0  0  0  0  0  0  0  0
    7.8380   -1.7955   22.8529 N   0  0  0  0  0  0  0  0  0  0  0  0
    7.6471   -2.4350   24.1197 C   0  0  0  0  0  0  0  0  0  0  0  0
    6.8373   -1.8418   25.0963 C   0  0  0  0  0  0  0  0  0  0  0  0
    6.3536   -0.8951   24.8813 H   0  0  0  0  0  0  0  0  0  0  0  0
    6.6764   -2.4660   26.3353 C   0  0  0  0  0  0  0  0  0  0  0  0
    6.0484   -2.0072   27.0880 H   0  0  0  0  0  0  0  0  0  0  0  0
    7.3020   -3.6790   26.6151 C   0  0  0  0  0  0  0  0  0  0  0  0
    7.1451   -4.1682   27.5766 H   0  0  0  0  0  0  0  0  0  0  0  0
    8.1062   -4.2609   25.6265 C   0  0  0  0  0  0  0  0  0  0  0  0
    8.8835   -5.8342   25.9200 S   0  0  0  0  0  0  0  0  0  0  0  0
    8.9609   -6.5043   24.6269 O   0  0  0  0  0  0  0  0  0  0  0  0
    8.2791   -6.4298   27.1054 O   0  0  0  0  0  0  0  0  0  0  0  0
   10.5459   -5.5075   26.3425 C   0  0  0  0  0  0  0  0  0  0  0  0
   10.9331   -6.5141   26.4855 H   0  0  0  0  0  0  0  0  0  0  0  0
   10.5813   -4.9186   27.2537 H   0  0  0  0  0  0  0  0  0  0  0  0
   11.0108   -5.0353   25.4821 H   0  0  0  0  0  0  0  0  0  0  0  0
    8.2676   -3.6578   24.3687 C   0  0  0  0  0  0  0  0  0  0  0  0
    8.8529   -4.0977   23.5637 H   0  0  0  0  0  0  0  0  0  0  0  0
    9.0343   -1.6104   22.1945 C   0  0  0  0  0  0  0  0  0  0  0  0
   10.5980   -1.9889   22.6136 S   0  0  0  0  0  0  0  0  0  0  0  0
    8.6936   -0.9735   21.0402 N   0  0  0  0  0  0  0  0  0  0  0  0
    9.4242   -0.6674   20.4244 H   0  0  0  0  0  0  0  0  0  0  0  0
    5.4407    0.6635   20.1349 C   0  0  0  0  0  0  0  0  0  0  0  0
    5.0099    0.6575   21.1351 H   0  0  0  0  0  0  0  0  0  0  0  0
    4.7990    1.3203   19.0861 C   0  0  0  0  0  0  0  0  0  0  0  0
    3.8639    1.8519   19.2347 H   0  0  0  0  0  0  0  0  0  0  0  0
  1  2  1  0
  2  3  2  0
  3  4  1  0
  4  5  1  0
  4  6  2  0
  6  7  1  0
  7  8  2  0
  8  9  1  0
  8 10  1  0
 10 11  1  0
 11 12  2  0
 12 13  1  0
 12 14  1  0
 14 15  1  0
 14 16  2  0
 16 17  1  0
 16 18  1  0
 18 19  1  0
 19 20  2  0
 19 21  2  0
 19 22  1  0
 22 23  1  0
 22 24  1  0
 22 25  1  0
 18 26  2  0
 26 27  1  0
 10 28  1  0
 28 29  2  0
 28 30  1  0
 30 31  1  0
  6 32  1  0
 32 33  1  0
 32 34  2  0
 34 35  1  0
 34  2  1  0
 30  7  1  0
 26 11  1  0
M  END
>  <cnnaffinity>  (1) 
-5.69378

>  <filename>  (1) 
CS(=O)(=O)c1cccc(-n2cc(-c3cccnc3)[nH]c2=S)c1

$$$$
