
     RDKit          3D

 37 39  0  0  0  0  0  0  0  0999 V2000
    4.9298    1.7933   16.9858 H   0  0  0  0  0  0  0  0  0  0  0  0
    5.3966    1.2982   17.8354 C   0  0  0  0  0  0  0  0  0  0  0  0
    6.5594    0.6760   17.5844 N   0  0  0  0  0  0  0  0  0  0  0  0
    7.1568    0.0475   18.5992 C   0  0  0  0  0  0  0  0  0  0  0  0
    8.1033   -0.4399   18.3698 H   0  0  0  0  0  0  0  0  0  0  0  0
    6.6423    0.0155   19.9018 C   0  0  0  0  0  0  0  0  0  0  0  0
    7.3884   -0.7330   20.9138 C   0  0  0  0  0  0  0  0  0  0  0  0
    7.7731   -1.9778   20.7749 N   0  0  0  0  0  0  0  0  0  0  0  0
    8.4073   -2.3049   21.9434 C   0  0  0  0  0  0  0  0  0  0  0  0
    8.8226   -3.2940   22.0946 H   0  0  0  0  0  0  0  0  0  0  0  0
    8.4332   -1.2305   22.7838 C   0  0  0  0  0  0  0  0  0  0  0  0
    8.8512   -1.0764   23.7662 H   0  0  0  0  0  0  0  0  0  0  0  0
    7.7675   -0.2176   22.1257 N   0  0  0  0  0  0  0  0  0  0  0  0
    7.6983    1.1680   22.5950 C   0  0  0  0  0  0  0  0  0  0  0  0
    8.6948    1.6196   22.5052 H   0  0  0  0  0  0  0  0  0  0  0  0
    7.0431    1.7265   21.9236 H   0  0  0  0  0  0  0  0  0  0  0  0
    7.2011    1.2601   24.0231 C   0  0  0  0  0  0  0  0  0  0  0  0
    8.1060    1.4680   25.0747 C   0  0  0  0  0  0  0  0  0  0  0  0
    9.1634    1.5993   24.8526 H   0  0  0  0  0  0  0  0  0  0  0  0
    7.6625    1.4988   26.3990 C   0  0  0  0  0  0  0  0  0  0  0  0
    8.3754    1.6584   27.2011 H   0  0  0  0  0  0  0  0  0  0  0  0
    6.3122    1.3262   26.6978 C   0  0  0  0  0  0  0  0  0  0  0  0
    5.9802    1.3763   27.7346 H   0  0  0  0  0  0  0  0  0  0  0  0
    5.4056    1.1105   25.6473 C   0  0  0  0  0  0  0  0  0  0  0  0
    3.6624    0.9254   26.0042 S   0  0  0  0  0  0  0  0  0  0  0  0
    2.9060    1.4365   24.8668 O   0  0  0  0  0  0  0  0  0  0  0  0
    3.4159    1.3990   27.3604 O   0  0  0  0  0  0  0  0  0  0  0  0
    3.3648   -0.8109   26.0476 C   0  0  0  0  0  0  0  0  0  0  0  0
    2.3015   -0.9041   26.2673 H   0  0  0  0  0  0  0  0  0  0  0  0
    3.9704   -1.2376   26.8425 H   0  0  0  0  0  0  0  0  0  0  0  0
    3.5974   -1.2227   25.0707 H   0  0  0  0  0  0  0  0  0  0  0  0
    5.8441    1.0812   24.3142 C   0  0  0  0  0  0  0  0  0  0  0  0
    5.1489    0.9269   23.4881 H   0  0  0  0  0  0  0  0  0  0  0  0
    5.4260    0.6650   20.1522 C   0  0  0  0  0  0  0  0  0  0  0  0
    4.9800    0.6461   21.1499 H   0  0  0  0  0  0  0  0  0  0  0  0
    4.7922    1.3176   19.0967 C   0  0  0  0  0  0  0  0  0  0  0  0
    3.8618    1.8512   19.2424 H   0  0  0  0  0  0  0  0  0  0  0  0
  1  2  1  0
  2  3  2  0
  3  4  1  0
  4  5  1  0
  4  6  2  0
  6  7  1  0
  7  8  2  0
  8  9  1  0
  9 10  1  0
  9 11  2  0
 11 12  1  0
 11 13  1  0
 13 14  1  0
 14 15  1  0
 14 16  1  0
 14 17  1  0
 17 18  2  0
 18 19  1  0
 18 20  1  0
 20 21  1  0
 20 22  2  0
 22 23  1  0
 22 24  1  0
 24 25  1  0
 25 26  2  0
 25 27  2  0
 25 28  1  0
 28 29  1  0
 28 30  1  0
 28 31  1  0
 24 32  2  0
 32 33  1  0
  6 34  1  0
 34 35  1  0
 34 36  2  0
 36 37  1  0
 36  2  1  0
 13  7  1  0
 32 17  1  0
M  END
>  <cnnaffinity>  (1) 
-5.2413

>  <filename>  (1) 
CS(=O)(=O)c1cccc(Cn2ccnc2-c2cccnc2)c1

$$$$
