
     RDKit          3D

 31 32  0  0  0  0  0  0  0  0999 V2000
    4.9799    1.7797   17.0309 H   0  0  0  0  0  0  0  0  0  0  0  0
    5.4105    1.2514   17.8800 C   0  0  0  0  0  0  0  0  0  0  0  0
    6.5667    0.6100   17.6552 N   0  0  0  0  0  0  0  0  0  0  0  0
    7.1452    0.0114   18.6935 C   0  0  0  0  0  0  0  0  0  0  0  0
    8.1013   -0.4822   18.5045 H   0  0  0  0  0  0  0  0  0  0  0  0
    6.6020   -0.0125   19.9861 C   0  0  0  0  0  0  0  0  0  0  0  0
    7.4222   -0.6767   21.0313 C   0  0  0  0  0  0  0  0  0  0  0  0
    9.0504   -0.4173   21.1085 S   0  0  0  0  0  0  0  0  0  0  0  0
    6.7270   -1.4914   21.8512 N   0  0  0  0  0  0  0  0  0  0  0  0
    5.7223   -1.4172   21.7878 H   0  0  0  0  0  0  0  0  0  0  0  0
    7.2397   -2.4965   22.7096 C   0  0  0  0  0  0  0  0  0  0  0  0
    8.2557   -3.3449   22.2611 C   0  0  0  0  0  0  0  0  0  0  0  0
    8.6512   -3.2179   21.2623 H   0  0  0  0  0  0  0  0  0  0  0  0
    8.7265   -4.3442   23.0912 C   0  0  0  0  0  0  0  0  0  0  0  0
    9.3880   -5.0977   22.6990 H   0  0  0  0  0  0  0  0  0  0  0  0
    8.2689   -4.4650   24.4030 C   0  0  0  0  0  0  0  0  0  0  0  0
    9.0143   -5.7557   25.3881 S   0  0  0  0  0  0  0  0  0  0  0  0
    9.6488   -6.6939   24.4668 O   0  0  0  0  0  0  0  0  0  0  0  0
    8.0585   -6.2007   26.3910 O   0  0  0  0  0  0  0  0  0  0  0  0
   10.3475   -5.0076   26.2659 C   0  0  0  0  0  0  0  0  0  0  0  0
   10.7071   -5.8451   26.8584 H   0  0  0  0  0  0  0  0  0  0  0  0
    9.9827   -4.2099   26.9075 H   0  0  0  0  0  0  0  0  0  0  0  0
   11.1216   -4.6723   25.5760 H   0  0  0  0  0  0  0  0  0  0  0  0
    7.2190   -3.6498   24.8480 C   0  0  0  0  0  0  0  0  0  0  0  0
    6.7692   -3.7835   25.8278 H   0  0  0  0  0  0  0  0  0  0  0  0
    6.6942   -2.6770   23.9861 C   0  0  0  0  0  0  0  0  0  0  0  0
    5.8591   -2.0588   24.2898 H   0  0  0  0  0  0  0  0  0  0  0  0
    5.3763    0.6352   20.2042 C   0  0  0  0  0  0  0  0  0  0  0  0
    4.9112    0.6693   21.1930 H   0  0  0  0  0  0  0  0  0  0  0  0
    4.7801    1.2913   19.1276 C   0  0  0  0  0  0  0  0  0  0  0  0
    3.8552    1.8454   19.2447 H   0  0  0  0  0  0  0  0  0  0  0  0
  1  2  1  0
  2  3  2  0
  3  4  1  0
  4  5  1  0
  4  6  2  0
  6  7  1  0
  7  8  2  0
  7  9  1  0
  9 10  1  0
  9 11  1  0
 11 12  2  0
 12 13  1  0
 12 14  1  0
 14 15  1  0
 14 16  2  0
 16 17  1  0
 17 18  2  0
 17 19  2  0
 17 20  1  0
 20 21  1  0
 20 22  1  0
 20 23  1  0
 16 24  1  0
 24 25  1  0
 24 26  2  0
 26 27  1  0
  6 28  1  0
 28 29  1  0
 28 30  2  0
 30 31  1  0
 30  2  1  0
 26 11  1  0
M  END
>  <cnnaffinity>  (1) 
-5.02538

>  <filename>  (1) 
CS(=O)(=O)c1ccc(NC(=S)c2cccnc2)cc1

$$$$
