
     RDKit          3D

 37 39  0  0  0  0  0  0  0  0999 V2000
    4.9139    1.8069   16.9711 H   0  0  0  0  0  0  0  0  0  0  0  0
    5.3850    1.3075   17.8168 C   0  0  0  0  0  0  0  0  0  0  0  0
    6.5450    0.6854   17.5550 N   0  0  0  0  0  0  0  0  0  0  0  0
    7.1538    0.0689   18.5743 C   0  0  0  0  0  0  0  0  0  0  0  0
    8.1018   -0.4189   18.3516 H   0  0  0  0  0  0  0  0  0  0  0  0
    6.6564    0.0393   19.8856 C   0  0  0  0  0  0  0  0  0  0  0  0
    7.3865   -0.7031   20.9302 C   0  0  0  0  0  0  0  0  0  0  0  0
    7.6073   -2.0564   21.0170 C   0  0  0  0  0  0  0  0  0  0  0  0
    7.2184   -2.7782   20.3227 H   0  0  0  0  0  0  0  0  0  0  0  0
    8.3420   -2.2269   22.2036 C   0  0  0  0  0  0  0  0  0  0  0  0
    8.7278   -3.1412   22.6392 H   0  0  0  0  0  0  0  0  0  0  0  0
    8.5577   -1.0635   22.8055 N   0  0  0  0  0  0  0  0  0  0  0  0
    7.9642   -0.1425   22.0276 N   0  0  0  0  0  0  0  0  0  0  0  0
    8.0024    1.2688   22.3827 C   0  0  0  0  0  0  0  0  0  0  0  0
    8.8950    1.3955   23.0040 H   0  0  0  0  0  0  0  0  0  0  0  0
    8.1357    1.8282   21.4539 H   0  0  0  0  0  0  0  0  0  0  0  0
    6.7602    1.7637   23.1046 C   0  0  0  0  0  0  0  0  0  0  0  0
    6.0336    2.8720   22.6440 C   0  0  0  0  0  0  0  0  0  0  0  0
    6.3480    3.3855   21.7375 H   0  0  0  0  0  0  0  0  0  0  0  0
    4.8836    3.2962   23.3146 C   0  0  0  0  0  0  0  0  0  0  0  0
    4.3233    4.1445   22.9366 H   0  0  0  0  0  0  0  0  0  0  0  0
    4.4426    2.6297   24.4563 C   0  0  0  0  0  0  0  0  0  0  0  0
    3.5326    2.9591   24.9556 H   0  0  0  0  0  0  0  0  0  0  0  0
    5.1845    1.5333   24.9263 C   0  0  0  0  0  0  0  0  0  0  0  0
    4.6264    0.6383   26.3702 S   0  0  0  0  0  0  0  0  0  0  0  0
    5.1051   -0.7357   26.2933 O   0  0  0  0  0  0  0  0  0  0  0  0
    3.2168    0.9568   26.5796 O   0  0  0  0  0  0  0  0  0  0  0  0
    5.4793    1.3551   27.7326 C   0  0  0  0  0  0  0  0  0  0  0  0
    5.1160    0.7962   28.5955 H   0  0  0  0  0  0  0  0  0  0  0  0
    5.1974    2.4030   27.7917 H   0  0  0  0  0  0  0  0  0  0  0  0
    6.5443    1.1947   27.5793 H   0  0  0  0  0  0  0  0  0  0  0  0
    6.3337    1.0954   24.2550 C   0  0  0  0  0  0  0  0  0  0  0  0
    6.9070    0.2278   24.5810 H   0  0  0  0  0  0  0  0  0  0  0  0
    5.4325    0.6744   20.1352 C   0  0  0  0  0  0  0  0  0  0  0  0
    5.0134    0.6368   21.1404 H   0  0  0  0  0  0  0  0  0  0  0  0
    4.7915    1.3282   19.0843 C   0  0  0  0  0  0  0  0  0  0  0  0
    3.8550    1.8552   19.2278 H   0  0  0  0  0  0  0  0  0  0  0  0
  1  2  1  0
  2  3  2  0
  3  4  1  0
  4  5  1  0
  4  6  2  0
  6  7  1  0
  7  8  2  0
  8  9  1  0
  8 10  1  0
 10 11  1  0
 10 12  2  0
 12 13  1  0
 13 14  1  0
 14 15  1  0
 14 16  1  0
 14 17  1  0
 17 18  2  0
 18 19  1  0
 18 20  1  0
 20 21  1  0
 20 22  2  0
 22 23  1  0
 22 24  1  0
 24 25  1  0
 25 26  2  0
 25 27  2  0
 25 28  1  0
 28 29  1  0
 28 30  1  0
 28 31  1  0
 24 32  2  0
 32 33  1  0
  6 34  1  0
 34 35  1  0
 34 36  2  0
 36 37  1  0
 36  2  1  0
 13  7  1  0
 32 17  1  0
M  END
>  <cnnaffinity>  (1) 
-4.93488

>  <filename>  (1) 
CS(=O)(=O)c1cccc(Cn2nccc2-c2cccnc2)c1

$$$$
