
     RDKit          3D

 25 26  0  0  0  0  0  0  0  0999 V2000
    4.9728    1.8416   17.0272 H   0  0  0  0  0  0  0  0  0  0  0  0
    5.4556    1.2943   17.8322 C   0  0  0  0  0  0  0  0  0  0  0  0
    6.6125    0.6843   17.5286 N   0  0  0  0  0  0  0  0  0  0  0  0
    7.2355    0.0164   18.5064 C   0  0  0  0  0  0  0  0  0  0  0  0
    8.1712   -0.4784   18.2506 H   0  0  0  0  0  0  0  0  0  0  0  0
    6.7271   -0.0902   19.8139 C   0  0  0  0  0  0  0  0  0  0  0  0
    7.4451   -0.7994   20.8338 N   0  0  0  0  0  0  0  0  0  0  0  0
    8.6707   -0.3861   21.3304 C   0  0  0  0  0  0  0  0  0  0  0  0
    9.2314    0.4050   20.8447 H   0  0  0  0  0  0  0  0  0  0  0  0
    8.9677   -1.1580   22.3987 C   0  0  0  0  0  0  0  0  0  0  0  0
   10.5434   -1.1274   23.2585 S   0  0  0  0  0  0  0  0  0  0  0  0
   10.3349   -1.5913   24.6221 O   0  0  0  0  0  0  0  0  0  0  0  0
   11.1988    0.1369   22.9670 O   0  0  0  0  0  0  0  0  0  0  0  0
   11.4050   -2.3702   22.3592 C   0  0  0  0  0  0  0  0  0  0  0  0
   11.3879   -2.0651   21.3166 H   0  0  0  0  0  0  0  0  0  0  0  0
   12.4217   -2.4157   22.7278 H   0  0  0  0  0  0  0  0  0  0  0  0
   10.8682   -3.2955   22.5297 H   0  0  0  0  0  0  0  0  0  0  0  0
    7.8854   -2.0482   22.5432 N   0  0  0  0  0  0  0  0  0  0  0  0
    7.6893   -2.7326   23.2661 H   0  0  0  0  0  0  0  0  0  0  0  0
    6.9485   -1.8598   21.5700 C   0  0  0  0  0  0  0  0  0  0  0  0
    5.5879   -2.7841   21.3335 S   0  0  0  0  0  0  0  0  0  0  0  0
    5.5178    0.5433   20.1230 C   0  0  0  0  0  0  0  0  0  0  0  0
    5.1158    0.4869   21.1372 H   0  0  0  0  0  0  0  0  0  0  0  0
    4.8754    1.2561   19.1063 C   0  0  0  0  0  0  0  0  0  0  0  0
    3.9504    1.7901   19.2958 H   0  0  0  0  0  0  0  0  0  0  0  0
  1  2  1  0
  2  3  2  0
  3  4  1  0
  4  5  1  0
  4  6  2  0
  6  7  1  0
  7  8  1  0
  8  9  1  0
  8 10  2  0
 10 11  1  0
 11 12  2  0
 11 13  2  0
 11 14  1  0
 14 15  1  0
 14 16  1  0
 14 17  1  0
 10 18  1  0
 18 19  1  0
 18 20  1  0
 20 21  2  0
  6 22  1  0
 22 23  1  0
 22 24  2  0
 24 25  1  0
 24  2  1  0
 20  7  1  0
M  END
>  <cnnaffinity>  (1) 
-4.70228

>  <filename>  (1) 
CS(=O)(=O)c1cn(-c2cccnc2)c(=S)[nH]1

$$$$
