
     RDKit          3D

 35 37  0  0  0  0  0  0  0  0999 V2000
    4.9265    1.7972   16.9864 H   0  0  0  0  0  0  0  0  0  0  0  0
    5.3955    1.3022   17.8346 C   0  0  0  0  0  0  0  0  0  0  0  0
    6.5568    0.6768   17.5765 N   0  0  0  0  0  0  0  0  0  0  0  0
    7.1612    0.0512   18.5878 C   0  0  0  0  0  0  0  0  0  0  0  0
    8.1052   -0.4396   18.3599 H   0  0  0  0  0  0  0  0  0  0  0  0
    6.6506    0.0146   19.8922 C   0  0  0  0  0  0  0  0  0  0  0  0
    7.3966   -0.7163   20.9178 C   0  0  0  0  0  0  0  0  0  0  0  0
    7.6987   -1.9941   20.9211 N   0  0  0  0  0  0  0  0  0  0  0  0
    8.3569   -2.2194   22.0775 N   0  0  0  0  0  0  0  0  0  0  0  0
    8.4823   -1.1318   22.7565 N   0  0  0  0  0  0  0  0  0  0  0  0
    7.8890   -0.1595   22.0438 N   0  0  0  0  0  0  0  0  0  0  0  0
    7.8570    1.2223   22.5106 C   0  0  0  0  0  0  0  0  0  0  0  0
    7.9641    1.8707   21.6355 H   0  0  0  0  0  0  0  0  0  0  0  0
    8.7385    1.3504   23.1470 H   0  0  0  0  0  0  0  0  0  0  0  0
    6.5865    1.5844   23.2653 C   0  0  0  0  0  0  0  0  0  0  0  0
    6.2085    0.8293   24.3845 C   0  0  0  0  0  0  0  0  0  0  0  0
    6.8344   -0.0081   24.6845 H   0  0  0  0  0  0  0  0  0  0  0  0
    5.0443    1.1468   25.0862 C   0  0  0  0  0  0  0  0  0  0  0  0
    4.7658    0.5568   25.9548 H   0  0  0  0  0  0  0  0  0  0  0  0
    4.2372    2.2110   24.6887 C   0  0  0  0  0  0  0  0  0  0  0  0
    3.3356    2.4543   25.2516 H   0  0  0  0  0  0  0  0  0  0  0  0
    4.6138    2.9658   23.5660 C   0  0  0  0  0  0  0  0  0  0  0  0
    3.6217    4.3788   23.0738 S   0  0  0  0  0  0  0  0  0  0  0  0
    2.4080    4.3755   23.8852 O   0  0  0  0  0  0  0  0  0  0  0  0
    4.4821    5.5494   22.9907 O   0  0  0  0  0  0  0  0  0  0  0  0
    3.1005    4.0370   21.4281 C   0  0  0  0  0  0  0  0  0  0  0  0
    2.5622    3.0925   21.4323 H   0  0  0  0  0  0  0  0  0  0  0  0
    3.9818    4.0412   20.7904 H   0  0  0  0  0  0  0  0  0  0  0  0
    2.4452    4.8705   21.1753 H   0  0  0  0  0  0  0  0  0  0  0  0
    5.7982    2.6710   22.8750 C   0  0  0  0  0  0  0  0  0  0  0  0
    6.1233    3.2674   22.0185 H   0  0  0  0  0  0  0  0  0  0  0  0
    5.4314    0.6624   20.1492 C   0  0  0  0  0  0  0  0  0  0  0  0
    4.9956    0.6344   21.1469 H   0  0  0  0  0  0  0  0  0  0  0  0
    4.8013    1.3214   19.0995 C   0  0  0  0  0  0  0  0  0  0  0  0
    3.8665    1.8604   19.2432 H   0  0  0  0  0  0  0  0  0  0  0  0
  1  2  1  0
  2  3  2  0
  3  4  1  0
  4  5  1  0
  4  6  2  0
  6  7  1  0
  7  8  2  0
  8  9  1  0
  9 10  2  0
 10 11  1  0
 11 12  1  0
 12 13  1  0
 12 14  1  0
 12 15  1  0
 15 16  2  0
 16 17  1  0
 16 18  1  0
 18 19  1  0
 18 20  2  0
 20 21  1  0
 20 22  1  0
 22 23  1  0
 23 24  2  0
 23 25  2  0
 23 26  1  0
 26 27  1  0
 26 28  1  0
 26 29  1  0
 22 30  2  0
 30 31  1  0
  6 32  1  0
 32 33  1  0
 32 34  2  0
 34 35  1  0
 34  2  1  0
 11  7  1  0
 30 15  1  0
M  END
>  <cnnaffinity>  (1) 
-4.98116

>  <filename>  (1) 
CS(=O)(=O)c1cccc(Cn2nnnc2-c2cccnc2)c1

$$$$
