
     RDKit          3D

 36 38  0  0  0  0  0  0  0  0999 V2000
    4.9051    1.7818   16.8665 H   0  0  0  0  0  0  0  0  0  0  0  0
    5.3512    1.3789   17.7708 C   0  0  0  0  0  0  0  0  0  0  0  0
    6.5691    0.8413   17.6151 N   0  0  0  0  0  0  0  0  0  0  0  0
    7.1498    0.3265   18.7019 C   0  0  0  0  0  0  0  0  0  0  0  0
    8.1354   -0.1091   18.5348 H   0  0  0  0  0  0  0  0  0  0  0  0
    6.5751    0.3326   19.9888 C   0  0  0  0  0  0  0  0  0  0  0  0
    7.2620   -0.4035   21.0851 C   0  0  0  0  0  0  0  0  0  0  0  0
    7.6085    0.4644   22.5612 S   0  0  0  0  0  0  0  0  0  0  0  0
    8.2194   -0.8162   23.6096 C   0  0  0  0  0  0  0  0  0  0  0  0
    8.3603   -0.4282   25.0416 C   0  0  0  0  0  0  0  0  0  0  0  0
    9.5602   -0.6940   25.7202 C   0  0  0  0  0  0  0  0  0  0  0  0
   10.4047   -1.1115   25.1777 H   0  0  0  0  0  0  0  0  0  0  0  0
    9.6625   -0.4229   27.0834 C   0  0  0  0  0  0  0  0  0  0  0  0
   10.5786   -0.6336   27.6100 H   0  0  0  0  0  0  0  0  0  0  0  0
    8.5954    0.1305   27.7869 C   0  0  0  0  0  0  0  0  0  0  0  0
    8.7140    0.3212   28.8534 H   0  0  0  0  0  0  0  0  0  0  0  0
    7.4211    0.4603   27.0950 C   0  0  0  0  0  0  0  0  0  0  0  0
    6.1300    1.3625   27.9352 S   0  0  0  0  0  0  0  0  0  0  0  0
    6.7057    2.0398   29.0907 O   0  0  0  0  0  0  0  0  0  0  0  0
    5.3342    2.0784   26.9474 O   0  0  0  0  0  0  0  0  0  0  0  0
    5.1054    0.0821   28.5655 C   0  0  0  0  0  0  0  0  0  0  0  0
    5.6997   -0.5154   29.2499 H   0  0  0  0  0  0  0  0  0  0  0  0
    4.7457   -0.4894   27.7160 H   0  0  0  0  0  0  0  0  0  0  0  0
    4.2852    0.5694   29.0854 H   0  0  0  0  0  0  0  0  0  0  0  0
    7.2787    0.1405   25.7364 C   0  0  0  0  0  0  0  0  0  0  0  0
    6.3570    0.3025   25.1761 H   0  0  0  0  0  0  0  0  0  0  0  0
    8.5223   -2.0643   23.1879 C   0  0  0  0  0  0  0  0  0  0  0  0
    8.9756   -2.7927   23.8572 H   0  0  0  0  0  0  0  0  0  0  0  0
    8.2127   -2.5989   21.8579 C   0  0  0  0  0  0  0  0  0  0  0  0
    8.4430   -3.7635   21.5635 O   0  0  0  0  0  0  0  0  0  0  0  0
    7.6083   -1.6876   20.8846 C   0  0  0  0  0  0  0  0  0  0  0  0
    7.4394   -2.1316   19.9172 H   0  0  0  0  0  0  0  0  0  0  0  0
    5.3202    0.9445   20.1400 C   0  0  0  0  0  0  0  0  0  0  0  0
    4.8590    1.0220   21.1255 H   0  0  0  0  0  0  0  0  0  0  0  0
    4.6895    1.4538   19.0014 C   0  0  0  0  0  0  0  0  0  0  0  0
    3.7187    1.9343   19.0500 H   0  0  0  0  0  0  0  0  0  0  0  0
  1  2  1  0
  2  3  2  0
  3  4  1  0
  4  5  1  0
  4  6  2  0
  6  7  1  0
  7  8  1  0
  8  9  1  0
  9 10  1  0
 10 11  2  0
 11 12  1  0
 11 13  1  0
 13 14  1  0
 13 15  2  0
 15 16  1  0
 15 17  1  0
 17 18  1  0
 18 19  2  0
 18 20  2  0
 18 21  1  0
 21 22  1  0
 21 23  1  0
 21 24  1  0
 17 25  2  0
 25 26  1  0
  9 27  2  0
 27 28  1  0
 27 29  1  0
 29 30  2  0
 29 31  1  0
 31 32  1  0
  6 33  1  0
 33 34  1  0
 33 35  2  0
 35 36  1  0
 35  2  1  0
 31  7  2  0
 25 10  1  0
M  END
>  <cnnaffinity>  (1) 
-5.53558

>  <filename>  (1) 
CS(=O)(=O)c1cccc(-c2cc(=O)cc(-c3cccnc3)s2)c1

$$$$
