
     RDKit          3D

 36 38  0  0  0  0  0  0  0  0999 V2000
    4.9265    1.7945   16.9872 H   0  0  0  0  0  0  0  0  0  0  0  0
    5.3974    1.3005   17.8362 C   0  0  0  0  0  0  0  0  0  0  0  0
    6.5597    0.6792   17.5802 N   0  0  0  0  0  0  0  0  0  0  0  0
    7.1640    0.0583   18.5963 C   0  0  0  0  0  0  0  0  0  0  0  0
    8.1078   -0.4331   18.3660 H   0  0  0  0  0  0  0  0  0  0  0  0
    6.6534    0.0237   19.9002 C   0  0  0  0  0  0  0  0  0  0  0  0
    7.4015   -0.7157   20.9243 C   0  0  0  0  0  0  0  0  0  0  0  0
    7.6914   -1.9908   20.8862 N   0  0  0  0  0  0  0  0  0  0  0  0
    8.3748   -2.2988   22.0340 N   0  0  0  0  0  0  0  0  0  0  0  0
    8.4935   -1.1960   22.7179 C   0  0  0  0  0  0  0  0  0  0  0  0
    9.0017   -1.0988   23.6690 H   0  0  0  0  0  0  0  0  0  0  0  0
    7.9027   -0.1464   22.0695 N   0  0  0  0  0  0  0  0  0  0  0  0
    7.8348    1.2449   22.5007 C   0  0  0  0  0  0  0  0  0  0  0  0
    7.9372    1.8848   21.6197 H   0  0  0  0  0  0  0  0  0  0  0  0
    8.7082    1.4363   23.1368 H   0  0  0  0  0  0  0  0  0  0  0  0
    6.5604    1.6032   23.2484 C   0  0  0  0  0  0  0  0  0  0  0  0
    5.7851    2.7102   22.8678 C   0  0  0  0  0  0  0  0  0  0  0  0
    6.0870    3.3076   22.0087 H   0  0  0  0  0  0  0  0  0  0  0  0
    4.6107    3.0290   23.5550 C   0  0  0  0  0  0  0  0  0  0  0  0
    4.0206    3.8834   23.2404 H   0  0  0  0  0  0  0  0  0  0  0  0
    4.1957    2.2640   24.6444 C   0  0  0  0  0  0  0  0  0  0  0  0
    3.2908    2.5362   25.1862 H   0  0  0  0  0  0  0  0  0  0  0  0
    4.9782    1.1660   25.0348 C   0  0  0  0  0  0  0  0  0  0  0  0
    4.5063    0.1957   26.4645 S   0  0  0  0  0  0  0  0  0  0  0  0
    5.7129   -0.3091   27.1066 O   0  0  0  0  0  0  0  0  0  0  0  0
    3.4920    0.9435   27.2023 O   0  0  0  0  0  0  0  0  0  0  0  0
    3.6792   -1.2218   25.8252 C   0  0  0  0  0  0  0  0  0  0  0  0
    2.8063   -0.8828   25.2740 H   0  0  0  0  0  0  0  0  0  0  0  0
    3.3964   -1.7903   26.7112 H   0  0  0  0  0  0  0  0  0  0  0  0
    4.3884   -1.7765   25.2147 H   0  0  0  0  0  0  0  0  0  0  0  0
    6.1602    0.8442   24.3532 C   0  0  0  0  0  0  0  0  0  0  0  0
    6.7977    0.0169   24.6688 H   0  0  0  0  0  0  0  0  0  0  0  0
    5.4330    0.6667   20.1531 C   0  0  0  0  0  0  0  0  0  0  0  0
    4.9992    0.6403   21.1522 H   0  0  0  0  0  0  0  0  0  0  0  0
    4.7983    1.3219   19.1003 C   0  0  0  0  0  0  0  0  0  0  0  0
    3.8616    1.8511   19.2392 H   0  0  0  0  0  0  0  0  0  0  0  0
  1  2  1  0
  2  3  2  0
  3  4  1  0
  4  5  1  0
  4  6  2  0
  6  7  1  0
  7  8  2  0
  8  9  1  0
  9 10  2  0
 10 11  1  0
 10 12  1  0
 12 13  1  0
 13 14  1  0
 13 15  1  0
 13 16  1  0
 16 17  2  0
 17 18  1  0
 17 19  1  0
 19 20  1  0
 19 21  2  0
 21 22  1  0
 21 23  1  0
 23 24  1  0
 24 25  2  0
 24 26  2  0
 24 27  1  0
 27 28  1  0
 27 29  1  0
 27 30  1  0
 23 31  2  0
 31 32  1  0
  6 33  1  0
 33 34  1  0
 33 35  2  0
 35 36  1  0
 35  2  1  0
 12  7  1  0
 31 16  1  0
M  END
>  <cnnaffinity>  (1) 
-5.31652

>  <filename>  (1) 
CS(=O)(=O)c1cccc(Cn2cnnc2-c2cccnc2)c1

$$$$
