
     RDKit          3D

 34 36  0  0  0  0  0  0  0  0999 V2000
    4.9321    1.7932   16.9884 H   0  0  0  0  0  0  0  0  0  0  0  0
    5.4015    1.2960   17.8342 C   0  0  0  0  0  0  0  0  0  0  0  0
    6.5650    0.6769   17.5808 N   0  0  0  0  0  0  0  0  0  0  0  0
    7.1618    0.0508   18.5969 C   0  0  0  0  0  0  0  0  0  0  0  0
    8.1079   -0.4371   18.3666 H   0  0  0  0  0  0  0  0  0  0  0  0
    6.6401    0.0222   19.8991 C   0  0  0  0  0  0  0  0  0  0  0  0
    7.3768   -0.6963   20.9341 C   0  0  0  0  0  0  0  0  0  0  0  0
    7.9547   -1.8335   20.7069 N   0  0  0  0  0  0  0  0  0  0  0  0
    8.4347   -2.2071   21.9264 N   0  0  0  0  0  0  0  0  0  0  0  0
    8.9455   -3.0553   22.0988 H   0  0  0  0  0  0  0  0  0  0  0  0
    8.2030   -1.3133   22.9187 C   0  0  0  0  0  0  0  0  0  0  0  0
    8.5540   -1.4154   24.0777 O   0  0  0  0  0  0  0  0  0  0  0  0
    7.4970   -0.2993   22.2564 N   0  0  0  0  0  0  0  0  0  0  0  0
    7.1339    0.9382   22.8588 C   0  0  0  0  0  0  0  0  0  0  0  0
    7.4326    2.1488   22.2276 C   0  0  0  0  0  0  0  0  0  0  0  0
    7.9189    2.1288   21.2603 H   0  0  0  0  0  0  0  0  0  0  0  0
    7.0598    3.3561   22.8109 C   0  0  0  0  0  0  0  0  0  0  0  0
    7.3092    4.2839   22.3000 H   0  0  0  0  0  0  0  0  0  0  0  0
    6.3850    3.3512   24.0425 C   0  0  0  0  0  0  0  0  0  0  0  0
    5.9555    4.9020   24.8286 S   0  0  0  0  0  0  0  0  0  0  0  0
    5.7909    4.6658   26.2592 O   0  0  0  0  0  0  0  0  0  0  0  0
    6.8318    5.9475   24.3086 O   0  0  0  0  0  0  0  0  0  0  0  0
    4.3478    5.3122   24.2463 C   0  0  0  0  0  0  0  0  0  0  0  0
    4.1028    6.2568   24.7324 H   0  0  0  0  0  0  0  0  0  0  0  0
    4.3979    5.4348   23.1683 H   0  0  0  0  0  0  0  0  0  0  0  0
    3.6642    4.5287   24.5583 H   0  0  0  0  0  0  0  0  0  0  0  0
    6.0959    2.1358   24.6846 C   0  0  0  0  0  0  0  0  0  0  0  0
    5.6203    2.1060   25.6630 H   0  0  0  0  0  0  0  0  0  0  0  0
    6.4684    0.9364   24.0843 C   0  0  0  0  0  0  0  0  0  0  0  0
    6.2784   -0.0152   24.5650 H   0  0  0  0  0  0  0  0  0  0  0  0
    5.4170    0.6539   20.1497 C   0  0  0  0  0  0  0  0  0  0  0  0
    5.0025    0.6469   21.1614 H   0  0  0  0  0  0  0  0  0  0  0  0
    4.7940    1.3103   19.0956 C   0  0  0  0  0  0  0  0  0  0  0  0
    3.8659    1.8462   19.2420 H   0  0  0  0  0  0  0  0  0  0  0  0
  1  2  1  0
  2  3  2  0
  3  4  1  0
  4  5  1  0
  4  6  2  0
  6  7  1  0
  7  8  2  0
  8  9  1  0
  9 10  1  0
  9 11  1  0
 11 12  2  0
 11 13  1  0
 13 14  1  0
 14 15  2  0
 15 16  1  0
 15 17  1  0
 17 18  1  0
 17 19  2  0
 19 20  1  0
 20 21  2  0
 20 22  2  0
 20 23  1  0
 23 24  1  0
 23 25  1  0
 23 26  1  0
 19 27  1  0
 27 28  1  0
 27 29  2  0
 29 30  1  0
  6 31  1  0
 31 32  1  0
 31 33  2  0
 33 34  1  0
 33  2  1  0
 13  7  1  0
 29 14  1  0
M  END
>  <cnnaffinity>  (1) 
-5.06721

>  <filename>  (1) 
CS(=O)(=O)c1ccc(-n2c(-c3cccnc3)n[nH]c2=O)cc1

$$$$
