
     RDKit          3D

 24 25  0  0  0  0  0  0  0  0999 V2000
    4.9542    1.7812   17.0035 H   0  0  0  0  0  0  0  0  0  0  0  0
    5.4144    1.2800   17.8524 C   0  0  0  0  0  0  0  0  0  0  0  0
    6.5761    0.6495   17.6115 N   0  0  0  0  0  0  0  0  0  0  0  0
    7.1820    0.0423   18.6342 C   0  0  0  0  0  0  0  0  0  0  0  0
    8.1207   -0.4607   18.4064 H   0  0  0  0  0  0  0  0  0  0  0  0
    6.6677    0.0471   19.9393 C   0  0  0  0  0  0  0  0  0  0  0  0
    7.3921   -0.6172   20.9605 N   0  0  0  0  0  0  0  0  0  0  0  0
    7.6800   -1.9178   20.8004 N   0  0  0  0  0  0  0  0  0  0  0  0
    8.3242   -2.2738   21.8988 C   0  0  0  0  0  0  0  0  0  0  0  0
    8.6474   -3.2952   22.0164 H   0  0  0  0  0  0  0  0  0  0  0  0
    8.4901   -1.1944   22.7912 C   0  0  0  0  0  0  0  0  0  0  0  0
    8.9560   -1.1601   23.7716 H   0  0  0  0  0  0  0  0  0  0  0  0
    7.8951   -0.1430   22.1354 C   0  0  0  0  0  0  0  0  0  0  0  0
    7.7556    1.5456   22.6455 S   0  0  0  0  0  0  0  0  0  0  0  0
    8.6925    1.7581   23.7412 O   0  0  0  0  0  0  0  0  0  0  0  0
    6.3436    1.8680   22.7913 O   0  0  0  0  0  0  0  0  0  0  0  0
    8.3254    2.4806   21.2852 C   0  0  0  0  0  0  0  0  0  0  0  0
    8.4301    3.4798   21.7063 H   0  0  0  0  0  0  0  0  0  0  0  0
    9.2788    2.0657   20.9713 H   0  0  0  0  0  0  0  0  0  0  0  0
    7.5236    2.4374   20.5521 H   0  0  0  0  0  0  0  0  0  0  0  0
    5.4390    0.6634   20.1817 C   0  0  0  0  0  0  0  0  0  0  0  0
    5.0052    0.6766   21.1810 H   0  0  0  0  0  0  0  0  0  0  0  0
    4.8100    1.3057   19.1126 C   0  0  0  0  0  0  0  0  0  0  0  0
    3.8761    1.8413   19.2561 H   0  0  0  0  0  0  0  0  0  0  0  0
  1  2  1  0
  2  3  2  0
  3  4  1  0
  4  5  1  0
  4  6  2  0
  6  7  1  0
  7  8  1  0
  8  9  2  0
  9 10  1  0
  9 11  1  0
 11 12  1  0
 11 13  2  0
 13 14  1  0
 14 15  2  0
 14 16  2  0
 14 17  1  0
 17 18  1  0
 17 19  1  0
 17 20  1  0
  6 21  1  0
 21 22  1  0
 21 23  2  0
 23 24  1  0
 23  2  1  0
 13  7  1  0
M  END
>  <cnnaffinity>  (1) 
-4.30083

>  <filename>  (1) 
CS(=O)(=O)c1ccnn1-c1cccnc1

$$$$
