
     RDKit          3D

 31 32  0  0  0  0  0  0  0  0999 V2000
    4.9593    1.7835   17.0077 H   0  0  0  0  0  0  0  0  0  0  0  0
    5.4078    1.2771   17.8614 C   0  0  0  0  0  0  0  0  0  0  0  0
    6.5663    0.6462   17.6204 N   0  0  0  0  0  0  0  0  0  0  0  0
    7.1454    0.0042   18.6374 C   0  0  0  0  0  0  0  0  0  0  0  0
    8.1119   -0.4477   18.4185 H   0  0  0  0  0  0  0  0  0  0  0  0
    6.6022   -0.0797   19.9309 C   0  0  0  0  0  0  0  0  0  0  0  0
    7.3978   -0.7591   20.9968 C   0  0  0  0  0  0  0  0  0  0  0  0
    9.0414   -0.8480   20.9335 S   0  0  0  0  0  0  0  0  0  0  0  0
    6.6491   -1.3001   21.9966 N   0  0  0  0  0  0  0  0  0  0  0  0
    5.7162   -1.5736   21.7323 H   0  0  0  0  0  0  0  0  0  0  0  0
    7.0010   -1.4865   23.3630 C   0  0  0  0  0  0  0  0  0  0  0  0
    7.7938   -0.5347   24.0143 C   0  0  0  0  0  0  0  0  0  0  0  0
    8.1251    0.3248   23.4462 H   0  0  0  0  0  0  0  0  0  0  0  0
    8.1595   -0.7136   25.3474 C   0  0  0  0  0  0  0  0  0  0  0  0
    8.7994    0.0194   25.8279 H   0  0  0  0  0  0  0  0  0  0  0  0
    7.7351   -1.8354   26.0590 C   0  0  0  0  0  0  0  0  0  0  0  0
    8.0653   -1.9645   27.0908 H   0  0  0  0  0  0  0  0  0  0  0  0
    6.9096   -2.7783   25.4220 C   0  0  0  0  0  0  0  0  0  0  0  0
    6.3838   -4.2356   26.3480 S   0  0  0  0  0  0  0  0  0  0  0  0
    7.2840   -4.4175   27.4777 O   0  0  0  0  0  0  0  0  0  0  0  0
    6.0858   -5.3052   25.4048 O   0  0  0  0  0  0  0  0  0  0  0  0
    4.8363   -3.7981   27.0601 C   0  0  0  0  0  0  0  0  0  0  0  0
    5.0075   -2.9614   27.7346 H   0  0  0  0  0  0  0  0  0  0  0  0
    4.1502   -3.5825   26.2444 H   0  0  0  0  0  0  0  0  0  0  0  0
    4.5474   -4.6979   27.6034 H   0  0  0  0  0  0  0  0  0  0  0  0
    6.5398   -2.6047   24.0683 C   0  0  0  0  0  0  0  0  0  0  0  0
    5.9277   -3.3277   23.5352 H   0  0  0  0  0  0  0  0  0  0  0  0
    5.3968    0.6090   20.1723 C   0  0  0  0  0  0  0  0  0  0  0  0
    4.9636    0.6614   21.1724 H   0  0  0  0  0  0  0  0  0  0  0  0
    4.7940    1.2958   19.1174 C   0  0  0  0  0  0  0  0  0  0  0  0
    3.8739    1.8542   19.2503 H   0  0  0  0  0  0  0  0  0  0  0  0
  1  2  1  0
  2  3  2  0
  3  4  1  0
  4  5  1  0
  4  6  2  0
  6  7  1  0
  7  8  2  0
  7  9  1  0
  9 10  1  0
  9 11  1  0
 11 12  2  0
 12 13  1  0
 12 14  1  0
 14 15  1  0
 14 16  2  0
 16 17  1  0
 16 18  1  0
 18 19  1  0
 19 20  2  0
 19 21  2  0
 19 22  1  0
 22 23  1  0
 22 24  1  0
 22 25  1  0
 18 26  2  0
 26 27  1  0
  6 28  1  0
 28 29  1  0
 28 30  2  0
 30 31  1  0
 30  2  1  0
 26 11  1  0
M  END
>  <cnnaffinity>  (1) 
-5.09332

>  <filename>  (1) 
CS(=O)(=O)c1cccc(NC(=S)c2cccnc2)c1

$$$$
