
     RDKit          3D

 31 32  0  0  0  0  0  0  0  0999 V2000
    4.9401    1.8321   16.9938 H   0  0  0  0  0  0  0  0  0  0  0  0
    5.3993    1.2879   17.8166 C   0  0  0  0  0  0  0  0  0  0  0  0
    6.5495    0.6500   17.5425 N   0  0  0  0  0  0  0  0  0  0  0  0
    7.1565    0.0056   18.5472 C   0  0  0  0  0  0  0  0  0  0  0  0
    8.0914   -0.5011   18.2995 H   0  0  0  0  0  0  0  0  0  0  0  0
    6.6587   -0.0434   19.8649 C   0  0  0  0  0  0  0  0  0  0  0  0
    7.5552   -0.8930   21.1509 S   0  0  0  0  0  0  0  0  0  0  0  0
    8.6179    0.4792   21.7583 C   0  0  0  0  0  0  0  0  0  0  0  0
    9.3165    0.0088   22.4596 H   0  0  0  0  0  0  0  0  0  0  0  0
    9.2089    0.8501   20.9134 H   0  0  0  0  0  0  0  0  0  0  0  0
    7.8321    1.6013   22.3904 C   0  0  0  0  0  0  0  0  0  0  0  0
    7.6964    2.8022   21.6819 C   0  0  0  0  0  0  0  0  0  0  0  0
    8.3057    2.9322   20.7981 H   0  0  0  0  0  0  0  0  0  0  0  0
    6.8551    3.8106   22.1446 C   0  0  0  0  0  0  0  0  0  0  0  0
    6.7167    4.7042   21.5438 H   0  0  0  0  0  0  0  0  0  0  0  0
    6.2037    3.6796   23.3706 C   0  0  0  0  0  0  0  0  0  0  0  0
    5.5796    4.4934   23.7373 H   0  0  0  0  0  0  0  0  0  0  0  0
    6.4040    2.5058   24.1214 C   0  0  0  0  0  0  0  0  0  0  0  0
    5.6697    2.3399   25.7429 S   0  0  0  0  0  0  0  0  0  0  0  0
    5.2838    3.6568   26.2352 O   0  0  0  0  0  0  0  0  0  0  0  0
    6.4810    1.4316   26.5405 O   0  0  0  0  0  0  0  0  0  0  0  0
    4.1660    1.4808   25.4265 C   0  0  0  0  0  0  0  0  0  0  0  0
    3.5143    2.0890   24.8054 H   0  0  0  0  0  0  0  0  0  0  0  0
    3.7535    1.3508   26.4229 H   0  0  0  0  0  0  0  0  0  0  0  0
    4.3967    0.5196   24.9721 H   0  0  0  0  0  0  0  0  0  0  0  0
    7.1900    1.4535   23.6285 C   0  0  0  0  0  0  0  0  0  0  0  0
    7.3400    0.5396   24.2114 H   0  0  0  0  0  0  0  0  0  0  0  0
    5.4416    0.6073   20.1247 C   0  0  0  0  0  0  0  0  0  0  0  0
    5.0273    0.5926   21.1335 H   0  0  0  0  0  0  0  0  0  0  0  0
    4.8030    1.2833   19.0810 C   0  0  0  0  0  0  0  0  0  0  0  0
    3.8662    1.8096   19.2353 H   0  0  0  0  0  0  0  0  0  0  0  0
  1  2  1  0
  2  3  2  0
  3  4  1  0
  4  5  1  0
  4  6  2  0
  6  7  1  0
  7  8  1  0
  8  9  1  0
  8 10  1  0
  8 11  1  0
 11 12  2  0
 12 13  1  0
 12 14  1  0
 14 15  1  0
 14 16  2  0
 16 17  1  0
 16 18  1  0
 18 19  1  0
 19 20  2  0
 19 21  2  0
 19 22  1  0
 22 23  1  0
 22 24  1  0
 22 25  1  0
 18 26  2  0
 26 27  1  0
  6 28  1  0
 28 29  1  0
 28 30  2  0
 30 31  1  0
 30  2  1  0
 26 11  1  0
M  END
>  <cnnaffinity>  (1) 
-4.756

>  <filename>  (1) 
CS(=O)(=O)c1cccc(CSc2cccnc2)c1

$$$$
