
     RDKit          3D

 35 37  0  0  0  0  0  0  0  0999 V2000
    4.9349    1.8168   16.9414 H   0  0  0  0  0  0  0  0  0  0  0  0
    5.4065    1.3124   17.7833 C   0  0  0  0  0  0  0  0  0  0  0  0
    6.5584    0.6697   17.5283 N   0  0  0  0  0  0  0  0  0  0  0  0
    7.1746    0.0539   18.5464 C   0  0  0  0  0  0  0  0  0  0  0  0
    8.1075   -0.4620   18.3242 H   0  0  0  0  0  0  0  0  0  0  0  0
    6.6653    0.0357   19.8585 C   0  0  0  0  0  0  0  0  0  0  0  0
    7.3253   -0.6562   20.9216 N   0  0  0  0  0  0  0  0  0  0  0  0
    6.6906   -1.5995   21.7145 C   0  0  0  0  0  0  0  0  0  0  0  0
    5.6592   -1.8687   21.5403 H   0  0  0  0  0  0  0  0  0  0  0  0
    7.5749   -2.0486   22.6318 C   0  0  0  0  0  0  0  0  0  0  0  0
    7.4015   -3.0203   23.7141 C   0  0  0  0  0  0  0  0  0  0  0  0
    6.1367   -3.1832   24.3068 C   0  0  0  0  0  0  0  0  0  0  0  0
    5.3052   -2.5671   23.9711 H   0  0  0  0  0  0  0  0  0  0  0  0
    5.9470   -4.1216   25.3216 C   0  0  0  0  0  0  0  0  0  0  0  0
    4.9681   -4.2105   25.7839 H   0  0  0  0  0  0  0  0  0  0  0  0
    6.9985   -4.9415   25.7446 C   0  0  0  0  0  0  0  0  0  0  0  0
    6.8246   -5.6591   26.5467 H   0  0  0  0  0  0  0  0  0  0  0  0
    8.2551   -4.7964   25.1288 C   0  0  0  0  0  0  0  0  0  0  0  0
    9.6565   -5.7692   25.6702 S   0  0  0  0  0  0  0  0  0  0  0  0
    9.1899   -7.0960   26.0444 O   0  0  0  0  0  0  0  0  0  0  0  0
   10.7485   -5.5506   24.7297 O   0  0  0  0  0  0  0  0  0  0  0  0
   10.1053   -4.9305   27.1475 C   0  0  0  0  0  0  0  0  0  0  0  0
   11.0529   -5.3305   27.4929 H   0  0  0  0  0  0  0  0  0  0  0  0
   10.1947   -3.8794   26.8912 H   0  0  0  0  0  0  0  0  0  0  0  0
    9.3190   -5.0872   27.8803 H   0  0  0  0  0  0  0  0  0  0  0  0
    8.4696   -3.8144   24.1563 C   0  0  0  0  0  0  0  0  0  0  0  0
    9.4563   -3.6538   23.7258 H   0  0  0  0  0  0  0  0  0  0  0  0
    8.7592   -1.3683   22.3749 N   0  0  0  0  0  0  0  0  0  0  0  0
    9.6156   -1.3912   22.9060 H   0  0  0  0  0  0  0  0  0  0  0  0
    8.6108   -0.4459   21.3844 C   0  0  0  0  0  0  0  0  0  0  0  0
    9.7212    0.6929   20.9137 S   0  0  0  0  0  0  0  0  0  0  0  0
    5.4550    0.6891   20.1084 C   0  0  0  0  0  0  0  0  0  0  0  0
    5.0366    0.6809   21.1158 H   0  0  0  0  0  0  0  0  0  0  0  0
    4.8173    1.3436   19.0520 C   0  0  0  0  0  0  0  0  0  0  0  0
    3.8815    1.8704   19.2025 H   0  0  0  0  0  0  0  0  0  0  0  0
  1  2  1  0
  2  3  2  0
  3  4  1  0
  4  5  1  0
  4  6  2  0
  6  7  1  0
  7  8  1  0
  8  9  1  0
  8 10  2  0
 10 11  1  0
 11 12  2  0
 12 13  1  0
 12 14  1  0
 14 15  1  0
 14 16  2  0
 16 17  1  0
 16 18  1  0
 18 19  1  0
 19 20  2  0
 19 21  2  0
 19 22  1  0
 22 23  1  0
 22 24  1  0
 22 25  1  0
 18 26  2  0
 26 27  1  0
 10 28  1  0
 28 29  1  0
 28 30  1  0
 30 31  2  0
  6 32  1  0
 32 33  1  0
 32 34  2  0
 34 35  1  0
 34  2  1  0
 30  7  1  0
 26 11  1  0
M  END
>  <cnnaffinity>  (1) 
-5.76745

>  <filename>  (1) 
CS(=O)(=O)c1cccc(-c2cn(-c3cccnc3)c(=S)[nH]2)c1

$$$$
