
     RDKit          3D

 23 24  0  0  0  0  0  0  0  0999 V2000
    4.9322    1.8722   16.9738 H   0  0  0  0  0  0  0  0  0  0  0  0
    5.4043    1.3190   17.7856 C   0  0  0  0  0  0  0  0  0  0  0  0
    6.5586    0.6916   17.5059 N   0  0  0  0  0  0  0  0  0  0  0  0
    7.1658    0.0246   18.4961 C   0  0  0  0  0  0  0  0  0  0  0  0
    8.1060   -0.4662   18.2491 H   0  0  0  0  0  0  0  0  0  0  0  0
    6.6463   -0.0675   19.8009 C   0  0  0  0  0  0  0  0  0  0  0  0
    7.3673   -0.7175   20.8533 N   0  0  0  0  0  0  0  0  0  0  0  0
    8.6004   -0.2739   21.3177 C   0  0  0  0  0  0  0  0  0  0  0  0
    9.1798    0.4723   20.8010 H   0  0  0  0  0  0  0  0  0  0  0  0
    8.8763   -0.9478   22.4570 C   0  0  0  0  0  0  0  0  0  0  0  0
   10.3475   -1.0720   23.3755 S   0  0  0  0  0  0  0  0  0  0  0  0
   11.0549   -2.4568   22.4384 C   0  0  0  0  0  0  0  0  0  0  0  0
   11.0740   -2.1904   21.3783 H   0  0  0  0  0  0  0  0  0  0  0  0
   12.0665   -2.6398   22.8038 H   0  0  0  0  0  0  0  0  0  0  0  0
   10.4438   -3.3527   22.5748 H   0  0  0  0  0  0  0  0  0  0  0  0
    7.7932   -1.7929   22.6790 N   0  0  0  0  0  0  0  0  0  0  0  0
    7.7267   -2.4880   23.3993 H   0  0  0  0  0  0  0  0  0  0  0  0
    6.8993   -1.7478   21.6552 C   0  0  0  0  0  0  0  0  0  0  0  0
    5.6328   -2.7943   21.4028 S   0  0  0  0  0  0  0  0  0  0  0  0
    5.4327    0.5690   20.0792 C   0  0  0  0  0  0  0  0  0  0  0  0
    5.0291    0.5398   21.0915 H   0  0  0  0  0  0  0  0  0  0  0  0
    4.8098    1.2823   19.0512 C   0  0  0  0  0  0  0  0  0  0  0  0
    3.8964    1.8335   19.2353 H   0  0  0  0  0  0  0  0  0  0  0  0
  1  2  1  0
  2  3  2  0
  3  4  1  0
  4  5  1  0
  4  6  2  0
  6  7  1  0
  7  8  1  0
  8  9  1  0
  8 10  2  0
 10 11  1  0
 11 12  1  0
 12 13  1  0
 12 14  1  0
 12 15  1  0
 10 16  1  0
 16 17  1  0
 16 18  1  0
 18 19  2  0
  6 20  1  0
 20 21  1  0
 20 22  2  0
 22 23  1  0
 22  2  1  0
 18  7  1  0
M  END
>  <cnnaffinity>  (1) 
-4.75328

>  <filename>  (1) 
CSc1cn(-c2cccnc2)c(=S)[nH]1

$$$$
