
     RDKit          3D

 32 34  0  0  0  0  0  0  0  0999 V2000
    4.9365    1.8265   16.9988 H   0  0  0  0  0  0  0  0  0  0  0  0
    5.3972    1.3001   17.8323 C   0  0  0  0  0  0  0  0  0  0  0  0
    6.5433    0.6541   17.5716 N   0  0  0  0  0  0  0  0  0  0  0  0
    7.1474    0.0184   18.5803 C   0  0  0  0  0  0  0  0  0  0  0  0
    8.0870   -0.4845   18.3440 H   0  0  0  0  0  0  0  0  0  0  0  0
    6.6292   -0.0138   19.8900 C   0  0  0  0  0  0  0  0  0  0  0  0
    7.2939   -0.7079   20.9514 N   0  0  0  0  0  0  0  0  0  0  0  0
    6.6359   -1.5949   21.7303 N   0  0  0  0  0  0  0  0  0  0  0  0
    7.4867   -2.0587   22.5702 N   0  0  0  0  0  0  0  0  0  0  0  0
    8.7066   -1.5095   22.3815 N   0  0  0  0  0  0  0  0  0  0  0  0
    8.5830   -0.6631   21.3905 C   0  0  0  0  0  0  0  0  0  0  0  0
    9.6931    0.1029   20.7400 C   0  0  0  0  0  0  0  0  0  0  0  0
    9.2812    0.9087   20.1417 H   0  0  0  0  0  0  0  0  0  0  0  0
   10.1906   -0.5909   20.0561 H   0  0  0  0  0  0  0  0  0  0  0  0
   10.6890    0.6642   21.7244 C   0  0  0  0  0  0  0  0  0  0  0  0
   11.8330   -0.0854   22.0257 C   0  0  0  0  0  0  0  0  0  0  0  0
   12.0104   -1.0207   21.5010 H   0  0  0  0  0  0  0  0  0  0  0  0
   12.7526    0.3608   22.9790 C   0  0  0  0  0  0  0  0  0  0  0  0
   13.6399   -0.2253   23.2065 H   0  0  0  0  0  0  0  0  0  0  0  0
   12.5253    1.5697   23.6343 C   0  0  0  0  0  0  0  0  0  0  0  0
   13.2319    1.9195   24.3789 H   0  0  0  0  0  0  0  0  0  0  0  0
   11.3874    2.3306   23.3513 C   0  0  0  0  0  0  0  0  0  0  0  0
   11.2110    3.2635   23.8833 H   0  0  0  0  0  0  0  0  0  0  0  0
   10.4591    1.8779   22.3985 C   0  0  0  0  0  0  0  0  0  0  0  0
    9.1394    2.6058   22.1910 C   0  0  0  0  0  0  0  0  0  0  0  0
    8.1125    1.8861   22.6809 F   0  0  0  0  0  0  0  0  0  0  0  0
    8.8601    2.8331   20.8892 F   0  0  0  0  0  0  0  0  0  0  0  0
    9.0883    3.8016   22.7948 F   0  0  0  0  0  0  0  0  0  0  0  0
    5.4178    0.6383   20.1466 C   0  0  0  0  0  0  0  0  0  0  0  0
    5.0040    0.5984   21.1535 H   0  0  0  0  0  0  0  0  0  0  0  0
    4.7957    1.3159   19.0954 C   0  0  0  0  0  0  0  0  0  0  0  0
    3.8691    1.8606   19.2480 H   0  0  0  0  0  0  0  0  0  0  0  0
  1  2  1  0
  2  3  2  0
  3  4  1  0
  4  5  1  0
  4  6  2  0
  6  7  1  0
  7  8  1  0
  8  9  2  0
  9 10  1  0
 10 11  2  0
 11 12  1  0
 12 13  1  0
 12 14  1  0
 12 15  1  0
 15 16  2  0
 16 17  1  0
 16 18  1  0
 18 19  1  0
 18 20  2  0
 20 21  1  0
 20 22  1  0
 22 23  1  0
 22 24  2  0
 24 25  1  0
 25 26  1  0
 25 27  1  0
 25 28  1  0
  6 29  1  0
 29 30  1  0
 29 31  2  0
 31 32  1  0
 31  2  1  0
 11  7  1  0
 24 15  1  0
M  END
>  <cnnaffinity>  (1) 
-5.6479

>  <filename>  (1) 
FC(F)(F)c1ccccc1Cc1nnnn1-c1cccnc1

$$$$
