
     RDKit          3D

 33 35  0  0  0  0  0  0  0  0999 V2000
    5.2615   -2.3653   20.9986 H   0  0  0  0  0  0  0  0  0  0  0  0
    5.9166   -2.4402   21.8588 C   0  0  0  0  0  0  0  0  0  0  0  0
    7.0723   -1.7474   21.9183 C   0  0  0  0  0  0  0  0  0  0  0  0
    7.5610   -0.7083   20.9624 C   0  0  0  0  0  0  0  0  0  0  0  0
    6.7171   -0.0451   19.9373 C   0  0  0  0  0  0  0  0  0  0  0  0
    7.2462    0.0340   18.6429 C   0  0  0  0  0  0  0  0  0  0  0  0
    8.2074   -0.4239   18.4241 H   0  0  0  0  0  0  0  0  0  0  0  0
    6.6338    0.6371   17.6201 N   0  0  0  0  0  0  0  0  0  0  0  0
    5.4598    1.2354   17.8731 C   0  0  0  0  0  0  0  0  0  0  0  0
    4.9968    1.7448   17.0286 H   0  0  0  0  0  0  0  0  0  0  0  0
    4.8458    1.2355   19.1306 C   0  0  0  0  0  0  0  0  0  0  0  0
    3.9105    1.7695   19.2672 H   0  0  0  0  0  0  0  0  0  0  0  0
    5.4773    0.5667   20.1850 C   0  0  0  0  0  0  0  0  0  0  0  0
    5.0264    0.5379   21.1786 H   0  0  0  0  0  0  0  0  0  0  0  0
    8.8023   -0.4275   21.0999 N   0  0  0  0  0  0  0  0  0  0  0  0
    9.3543   -1.1786   22.2305 C   0  0  0  0  0  0  0  0  0  0  0  0
   10.1095   -1.8572   21.8200 H   0  0  0  0  0  0  0  0  0  0  0  0
    9.8534   -0.4731   22.8998 H   0  0  0  0  0  0  0  0  0  0  0  0
    8.1929   -1.9352   22.9169 C   0  0  0  0  0  0  0  0  0  0  0  0
    7.9264   -1.4852   23.8780 H   0  0  0  0  0  0  0  0  0  0  0  0
    8.4077   -2.9873   23.1114 H   0  0  0  0  0  0  0  0  0  0  0  0
    5.3460   -3.3475   22.8742 C   0  0  0  0  0  0  0  0  0  0  0  0
    4.1792   -3.9222   22.5315 N   0  0  0  0  0  0  0  0  0  0  0  0
    3.5660   -4.6335   23.4728 C   0  0  0  0  0  0  0  0  0  0  0  0
    2.6110   -5.0883   23.2025 H   0  0  0  0  0  0  0  0  0  0  0  0
    4.0785   -4.7931   24.7597 C   0  0  0  0  0  0  0  0  0  0  0  0
    3.5066   -5.2863   25.5326 H   0  0  0  0  0  0  0  0  0  0  0  0
    5.3535   -4.2717   24.9847 C   0  0  0  0  0  0  0  0  0  0  0  0
    6.0616   -4.5087   26.3563 C   0  0  0  0  0  0  0  0  0  0  0  0
    5.2617   -4.0931   27.3644 F   0  0  0  0  0  0  0  0  0  0  0  0
    7.2312   -3.8728   26.4633 F   0  0  0  0  0  0  0  0  0  0  0  0
    6.2958   -5.8192   26.5804 F   0  0  0  0  0  0  0  0  0  0  0  0
    5.9718   -3.5486   24.0426 N   0  0  0  0  0  0  0  0  0  0  0  0
  1  2  1  0
  2  3  2  3
  3  4  1  0
  4  5  1  0
  5  6  2  0
  6  7  1  0
  6  8  1  0
  8  9  2  0
  9 10  1  0
  9 11  1  0
 11 12  1  0
 11 13  2  0
 13 14  1  0
  4 15  2  0
 15 16  1  0
 16 17  1  0
 16 18  1  0
 16 19  1  0
 19 20  1  0
 19 21  1  0
  2 22  1  0
 22 23  2  0
 23 24  1  0
 24 25  1  0
 24 26  2  0
 26 27  1  0
 26 28  1  0
 28 29  1  0
 29 30  1  0
 29 31  1  0
 29 32  1  0
 28 33  2  0
 19  3  1  0
 33 22  1  0
 13  5  1  0
M  END
>  <cnnaffinity>  (1) 
-5.63394

>  <filename>  (1) 
FC(F)(F)c1ccnc(C=C2CCN=C2c2cccnc2)n1

$$$$
