
     RDKit          3D

 30 32  0  0  0  0  0  0  0  0999 V2000
    4.9535    1.7955   16.9473 H   0  0  0  0  0  0  0  0  0  0  0  0
    5.4128    1.3176   17.8149 C   0  0  0  0  0  0  0  0  0  0  0  0
    6.5812    0.6891   17.6098 N   0  0  0  0  0  0  0  0  0  0  0  0
    7.1438    0.0759   18.6620 C   0  0  0  0  0  0  0  0  0  0  0  0
    8.0957   -0.4168   18.4657 H   0  0  0  0  0  0  0  0  0  0  0  0
    6.5977    0.0598   19.9611 C   0  0  0  0  0  0  0  0  0  0  0  0
    7.2656   -0.6928   21.0489 C   0  0  0  0  0  0  0  0  0  0  0  0
    7.6531   -2.0100   21.0640 C   0  0  0  0  0  0  0  0  0  0  0  0
    7.4263   -2.7364   20.3094 H   0  0  0  0  0  0  0  0  0  0  0  0
    8.2723   -2.2011   22.3104 C   0  0  0  0  0  0  0  0  0  0  0  0
    8.7244   -3.0954   22.7111 H   0  0  0  0  0  0  0  0  0  0  0  0
    8.2418   -1.1043   23.0498 N   0  0  0  0  0  0  0  0  0  0  0  0
    7.6177   -0.1868   22.2853 N   0  0  0  0  0  0  0  0  0  0  0  0
    7.2988    1.0645   22.8463 C   0  0  0  0  0  0  0  0  0  0  0  0
    6.7411    1.1352   24.1402 C   0  0  0  0  0  0  0  0  0  0  0  0
    6.5455    0.2365   24.7272 H   0  0  0  0  0  0  0  0  0  0  0  0
    6.4122    2.2924   24.7036 N   0  0  0  0  0  0  0  0  0  0  0  0
    6.6325    3.4383   24.0296 C   0  0  0  0  0  0  0  0  0  0  0  0
    6.2897    4.7909   24.6744 C   0  0  0  0  0  0  0  0  0  0  0  0
    5.4531    5.4984   23.8832 F   0  0  0  0  0  0  0  0  0  0  0  0
    7.4049    5.5443   24.8038 F   0  0  0  0  0  0  0  0  0  0  0  0
    5.7214    4.6990   25.8779 F   0  0  0  0  0  0  0  0  0  0  0  0
    7.1865    3.4472   22.7370 C   0  0  0  0  0  0  0  0  0  0  0  0
    7.3450    4.3827   22.2166 H   0  0  0  0  0  0  0  0  0  0  0  0
    7.5231    2.2447   22.1307 C   0  0  0  0  0  0  0  0  0  0  0  0
    7.9321    2.2045   21.1185 H   0  0  0  0  0  0  0  0  0  0  0  0
    5.3774    0.7291   20.1498 C   0  0  0  0  0  0  0  0  0  0  0  0
    4.9252    0.7615   21.1420 H   0  0  0  0  0  0  0  0  0  0  0  0
    4.7756    1.3568   19.0589 C   0  0  0  0  0  0  0  0  0  0  0  0
    3.8225    1.8605   19.1572 H   0  0  0  0  0  0  0  0  0  0  0  0
  1  2  1  0
  2  3  2  0
  3  4  1  0
  4  5  1  0
  4  6  2  0
  6  7  1  0
  7  8  2  0
  8  9  1  0
  8 10  1  0
 10 11  1  0
 10 12  2  0
 12 13  1  0
 13 14  1  0
 14 15  2  0
 15 16  1  0
 15 17  1  0
 17 18  2  0
 18 19  1  0
 19 20  1  0
 19 21  1  0
 19 22  1  0
 18 23  1  0
 23 24  1  0
 23 25  2  0
 25 26  1  0
  6 27  1  0
 27 28  1  0
 27 29  2  0
 29 30  1  0
 29  2  1  0
 13  7  1  0
 25 14  1  0
M  END
>  <cnnaffinity>  (1) 
-5.0926

>  <filename>  (1) 
FC(F)(F)c1ccc(-n2nccc2-c2cccnc2)cn1

$$$$
