
     RDKit          3D

 27 28  0  0  0  0  0  0  0  0999 V2000
   10.7885    3.4714   23.0057 H   0  0  0  0  0  0  0  0  0  0  0  0
    9.8287    2.9921   22.8046 C   0  0  0  0  0  0  0  0  0  0  0  0
    9.8371    1.8262   22.1715 N   0  0  0  0  0  0  0  0  0  0  0  0
    8.6144    1.3025   21.9838 C   0  0  0  0  0  0  0  0  0  0  0  0
    8.6215    0.1228   21.3681 N   0  0  0  0  0  0  0  0  0  0  0  0
    9.5712   -0.1196   21.1758 H   0  0  0  0  0  0  0  0  0  0  0  0
    7.4355   -0.6266   21.0230 C   0  0  0  0  0  0  0  0  0  0  0  0
    6.7871   -0.7561   21.9043 H   0  0  0  0  0  0  0  0  0  0  0  0
    7.7471   -1.6300   20.7164 H   0  0  0  0  0  0  0  0  0  0  0  0
    6.6503    0.0302   19.9196 C   0  0  0  0  0  0  0  0  0  0  0  0
    7.1730    0.0769   18.6200 C   0  0  0  0  0  0  0  0  0  0  0  0
    8.1206   -0.4132   18.3790 H   0  0  0  0  0  0  0  0  0  0  0  0
    6.5665    0.6769   17.5885 N   0  0  0  0  0  0  0  0  0  0  0  0
    5.3976    1.2896   17.8383 C   0  0  0  0  0  0  0  0  0  0  0  0
    4.9332    1.7847   16.9876 H   0  0  0  0  0  0  0  0  0  0  0  0
    4.7884    1.3057   19.0946 C   0  0  0  0  0  0  0  0  0  0  0  0
    3.8651    1.8488   19.2407 H   0  0  0  0  0  0  0  0  0  0  0  0
    5.4220    0.6557   20.1534 C   0  0  0  0  0  0  0  0  0  0  0  0
    5.0235    0.6764   21.1713 H   0  0  0  0  0  0  0  0  0  0  0  0
    7.4470    1.8021   22.3646 N   0  0  0  0  0  0  0  0  0  0  0  0
    7.4594    2.9901   22.9723 C   0  0  0  0  0  0  0  0  0  0  0  0
    6.1049    3.6470   23.4011 C   0  0  0  0  0  0  0  0  0  0  0  0
    6.0842    3.8571   24.7346 F   0  0  0  0  0  0  0  0  0  0  0  0
    5.9579    4.8605   22.8311 F   0  0  0  0  0  0  0  0  0  0  0  0
    5.0312    2.9119   23.0852 F   0  0  0  0  0  0  0  0  0  0  0  0
    8.6645    3.6354   23.2360 C   0  0  0  0  0  0  0  0  0  0  0  0
    8.6914    4.5842   23.7384 H   0  0  0  0  0  0  0  0  0  0  0  0
  1  2  1  0
  2  3  2  0
  3  4  1  0
  4  5  1  0
  5  6  1  0
  5  7  1  0
  7  8  1  0
  7  9  1  0
  7 10  1  0
 10 11  2  0
 11 12  1  0
 11 13  1  0
 13 14  2  0
 14 15  1  0
 14 16  1  0
 16 17  1  0
 16 18  2  0
 18 19  1  0
  4 20  2  0
 20 21  1  0
 21 22  1  0
 22 23  1  0
 22 24  1  0
 22 25  1  0
 21 26  2  0
 26 27  1  0
 26  2  1  0
 18 10  1  0
M  END
>  <cnnaffinity>  (1) 
-4.92638

>  <filename>  (1) 
FC(F)(F)c1ccnc(NCc2cccnc2)n1

$$$$
