
     RDKit          3D

 31 34  0  0  0  0  0  0  0  0999 V2000
    4.7293    3.8819   25.8183 H   0  0  0  0  0  0  0  0  0  0  0  0
    5.4176    3.0764   26.0747 C   0  0  0  0  0  0  0  0  0  0  0  0
    5.8029    2.2949   25.0687 N   0  0  0  0  0  0  0  0  0  0  0  0
    6.6470    1.3065   25.3792 C   0  0  0  0  0  0  0  0  0  0  0  0
    7.0966    0.4149   24.2835 C   0  0  0  0  0  0  0  0  0  0  0  0
    6.7238    0.5412   23.0477 N   0  0  0  0  0  0  0  0  0  0  0  0
    7.3234   -0.4233   22.3243 N   0  0  0  0  0  0  0  0  0  0  0  0
    7.4200   -0.6829   20.9680 C   0  0  0  0  0  0  0  0  0  0  0  0
    6.6659    0.0242   19.9131 C   0  0  0  0  0  0  0  0  0  0  0  0
    7.1551    0.0746   18.5870 C   0  0  0  0  0  0  0  0  0  0  0  0
    8.1051   -0.3933   18.3366 H   0  0  0  0  0  0  0  0  0  0  0  0
    6.5419    0.6832   17.5689 N   0  0  0  0  0  0  0  0  0  0  0  0
    5.3792    1.3027   17.8229 C   0  0  0  0  0  0  0  0  0  0  0  0
    4.9133    1.8101   16.9771 H   0  0  0  0  0  0  0  0  0  0  0  0
    4.7904    1.3139   19.0923 C   0  0  0  0  0  0  0  0  0  0  0  0
    3.8572    1.8492   19.2329 H   0  0  0  0  0  0  0  0  0  0  0  0
    5.4363    0.6682   20.1497 C   0  0  0  0  0  0  0  0  0  0  0  0
    5.0257    0.6641   21.1585 H   0  0  0  0  0  0  0  0  0  0  0  0
    8.3360   -1.7068   20.9266 C   0  0  0  0  0  0  0  0  0  0  0  0
    8.7399   -2.1241   20.0257 H   0  0  0  0  0  0  0  0  0  0  0  0
    8.7828   -2.1084   22.1566 N   0  0  0  0  0  0  0  0  0  0  0  0
    8.1634   -1.2905   22.9689 C   0  0  0  0  0  0  0  0  0  0  0  0
    8.2102   -0.8971   24.6523 S   0  0  0  0  0  0  0  0  0  0  0  0
    7.1279    1.0401   26.6062 N   0  0  0  0  0  0  0  0  0  0  0  0
    6.7391    1.8195   27.6188 C   0  0  0  0  0  0  0  0  0  0  0  0
    7.2389    1.5590   29.0776 C   0  0  0  0  0  0  0  0  0  0  0  0
    6.1973    1.2842   29.8910 F   0  0  0  0  0  0  0  0  0  0  0  0
    7.8137    2.6687   29.5814 F   0  0  0  0  0  0  0  0  0  0  0  0
    8.1174    0.5682   29.2032 F   0  0  0  0  0  0  0  0  0  0  0  0
    5.8598    2.8817   27.3819 C   0  0  0  0  0  0  0  0  0  0  0  0
    5.5322    3.5259   28.1786 H   0  0  0  0  0  0  0  0  0  0  0  0
  1  2  1  0
  2  3  2  0
  3  4  1  0
  4  5  1  0
  5  6  2  0
  6  7  1  0
  7  8  1  0
  8  9  1  0
  9 10  2  0
 10 11  1  0
 10 12  1  0
 12 13  2  0
 13 14  1  0
 13 15  1  0
 15 16  1  0
 15 17  2  0
 17 18  1  0
  8 19  2  0
 19 20  1  0
 19 21  1  0
 21 22  2  0
 22 23  1  0
  4 24  2  0
 24 25  1  0
 25 26  1  0
 26 27  1  0
 26 28  1  0
 26 29  1  0
 25 30  2  0
 30 31  1  0
 30  2  1  0
 23  5  1  0
 22  7  1  0
 17  9  1  0
M  END
>  <cnnaffinity>  (1) 
-5.50344

>  <filename>  (1) 
FC(F)(F)c1ccnc(-c2nn3c(-c4cccnc4)cnc3s2)n1

$$$$
