
     RDKit          3D

 34 36  0  0  0  0  0  0  0  0999 V2000
    8.4361   -1.9828   19.8835 H   0  0  0  0  0  0  0  0  0  0  0  0
    8.2096   -1.6615   20.8790 C   0  0  0  0  0  0  0  0  0  0  0  0
    8.7367   -2.3609   21.8729 N   0  0  0  0  0  0  0  0  0  0  0  0
    8.5142   -1.9245   23.1263 N   0  0  0  0  0  0  0  0  0  0  0  0
    7.8274   -0.7943   23.3158 C   0  0  0  0  0  0  0  0  0  0  0  0
    7.7207   -0.2866   24.7248 C   0  0  0  0  0  0  0  0  0  0  0  0
    8.5950   -0.6375   25.2858 H   0  0  0  0  0  0  0  0  0  0  0  0
    7.7510    0.8065   24.6728 H   0  0  0  0  0  0  0  0  0  0  0  0
    6.4264   -0.7784   25.3364 C   0  0  0  0  0  0  0  0  0  0  0  0
    6.3707   -2.0224   25.9728 C   0  0  0  0  0  0  0  0  0  0  0  0
    7.2825   -2.6053   26.0528 H   0  0  0  0  0  0  0  0  0  0  0  0
    5.1604   -2.5299   26.4524 C   0  0  0  0  0  0  0  0  0  0  0  0
    5.1427   -3.4984   26.9506 H   0  0  0  0  0  0  0  0  0  0  0  0
    3.9738   -1.7933   26.2751 C   0  0  0  0  0  0  0  0  0  0  0  0
    2.6575   -2.3037   26.8358 C   0  0  0  0  0  0  0  0  0  0  0  0
    2.6146   -3.6497   26.8998 F   0  0  0  0  0  0  0  0  0  0  0  0
    2.4310   -1.8504   28.0859 F   0  0  0  0  0  0  0  0  0  0  0  0
    1.6010   -1.9166   26.0906 F   0  0  0  0  0  0  0  0  0  0  0  0
    4.0170   -0.5671   25.5878 C   0  0  0  0  0  0  0  0  0  0  0  0
    3.1026   -0.0122   25.3843 H   0  0  0  0  0  0  0  0  0  0  0  0
    5.2370   -0.0756   25.1202 C   0  0  0  0  0  0  0  0  0  0  0  0
    5.2713    0.8229   24.5126 H   0  0  0  0  0  0  0  0  0  0  0  0
    7.1933   -0.0878   22.3501 N   0  0  0  0  0  0  0  0  0  0  0  0
    7.3661   -0.5403   21.1071 C   0  0  0  0  0  0  0  0  0  0  0  0
    6.6385    0.1138   19.9952 C   0  0  0  0  0  0  0  0  0  0  0  0
    7.1689    0.0976   18.6934 C   0  0  0  0  0  0  0  0  0  0  0  0
    8.1223   -0.3896   18.4745 H   0  0  0  0  0  0  0  0  0  0  0  0
    6.5795    0.6594   17.6397 N   0  0  0  0  0  0  0  0  0  0  0  0
    5.4085    1.2804   17.8485 C   0  0  0  0  0  0  0  0  0  0  0  0
    4.9809    1.7721   16.9825 H   0  0  0  0  0  0  0  0  0  0  0  0
    4.7689    1.3247   19.0915 C   0  0  0  0  0  0  0  0  0  0  0  0
    3.8215    1.8446   19.1876 H   0  0  0  0  0  0  0  0  0  0  0  0
    5.3891    0.7294   20.1871 C   0  0  0  0  0  0  0  0  0  0  0  0
    4.9250    0.7310   21.1765 H   0  0  0  0  0  0  0  0  0  0  0  0
  1  2  1  0
  2  3  2  0
  3  4  1  0
  4  5  2  0
  5  6  1  0
  6  7  1  0
  6  8  1  0
  6  9  1  0
  9 10  2  0
 10 11  1  0
 10 12  1  0
 12 13  1  0
 12 14  2  0
 14 15  1  0
 15 16  1  0
 15 17  1  0
 15 18  1  0
 14 19  1  0
 19 20  1  0
 19 21  2  0
 21 22  1  0
  5 23  1  0
 23 24  2  0
 24 25  1  0
 25 26  2  0
 26 27  1  0
 26 28  1  0
 28 29  2  0
 29 30  1  0
 29 31  1  0
 31 32  1  0
 31 33  2  0
 33 34  1  0
 24  2  1  0
 33 25  1  0
 21  9  1  0
M  END
>  <cnnaffinity>  (1) 
-5.06936

>  <filename>  (1) 
FC(F)(F)c1ccc(Cc2nncc(-c3cccnc3)n2)cc1

$$$$
