
     RDKit          3D

 31 33  0  0  0  0  0  0  0  0999 V2000
   12.0552   -4.2692   24.5414 H   0  0  0  0  0  0  0  0  0  0  0  0
   11.0048   -4.0762   24.7298 C   0  0  0  0  0  0  0  0  0  0  0  0
   10.4112   -3.2811   23.8465 N   0  0  0  0  0  0  0  0  0  0  0  0
    9.1006   -3.0085   24.0318 C   0  0  0  0  0  0  0  0  0  0  0  0
    8.4348   -2.1134   22.9774 C   0  0  0  0  0  0  0  0  0  0  0  0
    7.0963   -2.1905   22.7740 N   0  0  0  0  0  0  0  0  0  0  0  0
    6.5595   -1.4802   21.7843 C   0  0  0  0  0  0  0  0  0  0  0  0
    5.4883   -1.5976   21.6283 H   0  0  0  0  0  0  0  0  0  0  0  0
    7.2850   -0.6558   20.9001 C   0  0  0  0  0  0  0  0  0  0  0  0
    6.6050    0.0725   19.7877 C   0  0  0  0  0  0  0  0  0  0  0  0
    7.1245    0.1262   18.4744 C   0  0  0  0  0  0  0  0  0  0  0  0
    8.0561   -0.3848   18.2361 H   0  0  0  0  0  0  0  0  0  0  0  0
    6.5267    0.7494   17.4473 N   0  0  0  0  0  0  0  0  0  0  0  0
    5.3686    1.3802   17.6965 C   0  0  0  0  0  0  0  0  0  0  0  0
    4.9109    1.8945   16.8528 H   0  0  0  0  0  0  0  0  0  0  0  0
    4.7572    1.3950   18.9549 C   0  0  0  0  0  0  0  0  0  0  0  0
    3.8215    1.9252   19.0972 H   0  0  0  0  0  0  0  0  0  0  0  0
    5.3839    0.7253   20.0086 C   0  0  0  0  0  0  0  0  0  0  0  0
    4.9555    0.7262   21.0114 H   0  0  0  0  0  0  0  0  0  0  0  0
    8.6669   -0.5675   21.1240 C   0  0  0  0  0  0  0  0  0  0  0  0
    9.2769    0.0588   20.4766 H   0  0  0  0  0  0  0  0  0  0  0  0
    9.2440   -1.2731   22.1724 C   0  0  0  0  0  0  0  0  0  0  0  0
   10.3106   -1.1991   22.3583 H   0  0  0  0  0  0  0  0  0  0  0  0
    8.3799   -3.5039   25.0422 N   0  0  0  0  0  0  0  0  0  0  0  0
    8.9629   -4.3647   25.8876 C   0  0  0  0  0  0  0  0  0  0  0  0
    8.0771   -5.1510   26.8979 C   0  0  0  0  0  0  0  0  0  0  0  0
    8.4224   -6.4569   26.9180 F   0  0  0  0  0  0  0  0  0  0  0  0
    6.7776   -5.0892   26.6006 F   0  0  0  0  0  0  0  0  0  0  0  0
    8.2467   -4.7160   28.1577 F   0  0  0  0  0  0  0  0  0  0  0  0
   10.3299   -4.6312   25.8164 C   0  0  0  0  0  0  0  0  0  0  0  0
   10.8231   -5.2617   26.5430 H   0  0  0  0  0  0  0  0  0  0  0  0
  1  2  1  0
  2  3  2  0
  3  4  1  0
  4  5  1  0
  5  6  2  0
  6  7  1  0
  7  8  1  0
  7  9  2  0
  9 10  1  0
 10 11  2  0
 11 12  1  0
 11 13  1  0
 13 14  2  0
 14 15  1  0
 14 16  1  0
 16 17  1  0
 16 18  2  0
 18 19  1  0
  9 20  1  0
 20 21  1  0
 20 22  2  0
 22 23  1  0
  4 24  2  0
 24 25  1  0
 25 26  1  0
 26 27  1  0
 26 28  1  0
 26 29  1  0
 25 30  2  0
 30 31  1  0
 30  2  1  0
 22  5  1  0
 18 10  1  0
M  END
>  <cnnaffinity>  (1) 
-5.15327

>  <filename>  (1) 
FC(F)(F)c1ccnc(-c2ccc(-c3cccnc3)cn2)n1

$$$$
