
     RDKit          3D

 30 32  0  0  0  0  0  0  0  0999 V2000
    4.9180    1.7792   16.9996 H   0  0  0  0  0  0  0  0  0  0  0  0
    5.4026    1.2937   17.8408 C   0  0  0  0  0  0  0  0  0  0  0  0
    6.5684    0.6821   17.5773 N   0  0  0  0  0  0  0  0  0  0  0  0
    7.1694    0.0550   18.5881 C   0  0  0  0  0  0  0  0  0  0  0  0
    8.1176   -0.4342   18.3724 H   0  0  0  0  0  0  0  0  0  0  0  0
    6.6468    0.0113   19.8869 C   0  0  0  0  0  0  0  0  0  0  0  0
    7.3825   -0.7318   20.9017 C   0  0  0  0  0  0  0  0  0  0  0  0
    7.9753   -1.8650   20.6828 N   0  0  0  0  0  0  0  0  0  0  0  0
    8.4728   -2.2074   21.9007 N   0  0  0  0  0  0  0  0  0  0  0  0
    9.0154   -3.0377   22.0514 H   0  0  0  0  0  0  0  0  0  0  0  0
    8.2639   -1.3043   22.8747 C   0  0  0  0  0  0  0  0  0  0  0  0
    8.8095   -1.3690   24.4409 S   0  0  0  0  0  0  0  0  0  0  0  0
    7.5132   -0.3308   22.2261 N   0  0  0  0  0  0  0  0  0  0  0  0
    7.1280    0.9297   22.8033 C   0  0  0  0  0  0  0  0  0  0  0  0
    6.3710    0.9929   23.9897 C   0  0  0  0  0  0  0  0  0  0  0  0
    6.0650    0.0846   24.4978 H   0  0  0  0  0  0  0  0  0  0  0  0
    5.9996    2.1370   24.5584 N   0  0  0  0  0  0  0  0  0  0  0  0
    6.3543    3.3031   23.9864 C   0  0  0  0  0  0  0  0  0  0  0  0
    5.9204    4.6289   24.6466 C   0  0  0  0  0  0  0  0  0  0  0  0
    6.9934    5.3960   24.9426 F   0  0  0  0  0  0  0  0  0  0  0  0
    5.1671    5.3651   23.8005 F   0  0  0  0  0  0  0  0  0  0  0  0
    5.2191    4.4730   25.7724 F   0  0  0  0  0  0  0  0  0  0  0  0
    7.1118    3.3417   22.7996 C   0  0  0  0  0  0  0  0  0  0  0  0
    7.3769    4.2941   22.3473 H   0  0  0  0  0  0  0  0  0  0  0  0
    7.5092    2.1403   22.2118 C   0  0  0  0  0  0  0  0  0  0  0  0
    8.0783    2.1399   21.2834 H   0  0  0  0  0  0  0  0  0  0  0  0
    5.4277    0.6513   20.1539 C   0  0  0  0  0  0  0  0  0  0  0  0
    5.0111    0.6346   21.1666 H   0  0  0  0  0  0  0  0  0  0  0  0
    4.8007    1.3100   19.1047 C   0  0  0  0  0  0  0  0  0  0  0  0
    3.8713    1.8449   19.2584 H   0  0  0  0  0  0  0  0  0  0  0  0
  1  2  1  0
  2  3  2  0
  3  4  1  0
  4  5  1  0
  4  6  2  0
  6  7  1  0
  7  8  2  0
  8  9  1  0
  9 10  1  0
  9 11  1  0
 11 12  2  0
 11 13  1  0
 13 14  1  0
 14 15  2  0
 15 16  1  0
 15 17  1  0
 17 18  2  0
 18 19  1  0
 19 20  1  0
 19 21  1  0
 19 22  1  0
 18 23  1  0
 23 24  1  0
 23 25  2  0
 25 26  1  0
  6 27  1  0
 27 28  1  0
 27 29  2  0
 29 30  1  0
 29  2  1  0
 13  7  1  0
 25 14  1  0
M  END
>  <cnnaffinity>  (1) 
-5.38775

>  <filename>  (1) 
FC(F)(F)c1ccc(-n2c(-c3cccnc3)n[nH]c2=S)cn1

$$$$
