
     RDKit          3D

 37 39  0  0  0  0  0  0  0  0999 V2000
    1.9830    1.1481   29.4689 F   0  0  0  0  0  0  0  0  0  0  0  0
    2.9879    0.4856   28.8673 C   0  0  0  0  0  0  0  0  0  0  0  0
    4.0905    0.6532   29.6194 F   0  0  0  0  0  0  0  0  0  0  0  0
    2.6757   -0.8235   28.9068 F   0  0  0  0  0  0  0  0  0  0  0  0
    3.2046    0.9646   27.4272 C   0  0  0  0  0  0  0  0  0  0  0  0
    2.1390    1.4680   26.6590 C   0  0  0  0  0  0  0  0  0  0  0  0
    2.3834    1.8463   25.3342 C   0  0  0  0  0  0  0  0  0  0  0  0
    3.5723    1.7490   24.7440 N   0  0  0  0  0  0  0  0  0  0  0  0
    4.6036    1.2618   25.4611 C   0  0  0  0  0  0  0  0  0  0  0  0
    5.9396    1.1584   24.7916 C   0  0  0  0  0  0  0  0  0  0  0  0
    6.9967    0.6875   25.4116 N   0  0  0  0  0  0  0  0  0  0  0  0
    7.9965    0.7702   24.4636 O   0  0  0  0  0  0  0  0  0  0  0  0
    7.4538    1.2806   23.3554 C   0  0  0  0  0  0  0  0  0  0  0  0
    8.2966    1.4311   22.1408 C   0  0  0  0  0  0  0  0  0  0  0  0
    8.6516    0.0862   21.4693 C   0  0  0  0  0  0  0  0  0  0  0  0
    7.4218   -0.7173   20.9912 C   0  0  0  0  0  0  0  0  0  0  0  0
    6.6432   -0.0144   19.9006 C   0  0  0  0  0  0  0  0  0  0  0  0
    5.4304    0.6473   20.1524 C   0  0  0  0  0  0  0  0  0  0  0  0
    4.7978    1.3129   19.0973 C   0  0  0  0  0  0  0  0  0  0  0  0
    5.3901    1.3004   17.8323 C   0  0  0  0  0  0  0  0  0  0  0  0
    6.5539    0.6831   17.5691 N   0  0  0  0  0  0  0  0  0  0  0  0
    7.1512    0.0611   18.5916 C   0  0  0  0  0  0  0  0  0  0  0  0
    8.1077   -0.4132   18.3613 H   0  0  0  0  0  0  0  0  0  0  0  0
    4.9223    1.7978   16.9841 H   0  0  0  0  0  0  0  0  0  0  0  0
    3.8680    1.8495   19.2410 H   0  0  0  0  0  0  0  0  0  0  0  0
    5.0322    0.6565   21.1717 H   0  0  0  0  0  0  0  0  0  0  0  0
    6.7614   -0.9177   21.8468 H   0  0  0  0  0  0  0  0  0  0  0  0
    7.7611   -1.6998   20.6344 H   0  0  0  0  0  0  0  0  0  0  0  0
    9.2394   -0.5230   22.1685 H   0  0  0  0  0  0  0  0  0  0  0  0
    9.3008    0.2851   20.6079 H   0  0  0  0  0  0  0  0  0  0  0  0
    9.2002    1.9910   22.4000 H   0  0  0  0  0  0  0  0  0  0  0  0
    7.7179    2.0632   21.4609 H   0  0  0  0  0  0  0  0  0  0  0  0
    6.1919    1.5437   23.4866 N   0  0  0  0  0  0  0  0  0  0  0  0
    4.4538    0.8601   26.8041 C   0  0  0  0  0  0  0  0  0  0  0  0
    5.3197    0.4720   27.3311 H   0  0  0  0  0  0  0  0  0  0  0  0
    1.5872    2.2453   24.7107 H   0  0  0  0  0  0  0  0  0  0  0  0
    1.1412    1.5690   27.0663 H   0  0  0  0  0  0  0  0  0  0  0  0
  1  2  1  0
  2  3  1  0
  2  4  1  0
  2  5  1  0
  5  6  2  0
  6  7  1  0
  7  8  2  0
  8  9  1  0
  9 10  1  0
 10 11  2  0
 11 12  1  0
 12 13  1  0
 13 14  1  0
 14 15  1  0
 15 16  1  0
 16 17  1  0
 17 18  2  0
 18 19  1  0
 19 20  2  0
 20 21  1  0
 21 22  2  0
 22 23  1  0
 20 24  1  0
 19 25  1  0
 18 26  1  0
 16 27  1  0
 16 28  1  0
 15 29  1  0
 15 30  1  0
 14 31  1  0
 14 32  1  0
 13 33  2  0
  9 34  2  0
 34 35  1  0
  7 36  1  0
  6 37  1  0
 34  5  1  0
 33 10  1  0
 22 17  1  0
M  END
>  <cnnaffinity>  (1) 
-5.17361

>  <filename>  (1) 
FC(F)(F)c1ccnc(-c2noc(CCCc3cccnc3)n2)c1

$$$$
