
     RDKit          3D

 33 36  0  0  0  0  0  0  0  0999 V2000
    4.9807   -6.8341   25.6983 H   0  0  0  0  0  0  0  0  0  0  0  0
    4.6478   -6.1192   24.9484 C   0  0  0  0  0  0  0  0  0  0  0  0
    5.5712   -5.2969   24.4544 N   0  0  0  0  0  0  0  0  0  0  0  0
    5.1712   -4.4128   23.5291 C   0  0  0  0  0  0  0  0  0  0  0  0
    6.1602   -3.4620   22.8821 C   0  0  0  0  0  0  0  0  0  0  0  0
    7.4780   -3.3378   23.1614 N   0  0  0  0  0  0  0  0  0  0  0  0
    7.8675   -2.3739   22.3064 N   0  0  0  0  0  0  0  0  0  0  0  0
    9.0589   -1.7058   22.0730 C   0  0  0  0  0  0  0  0  0  0  0  0
    9.9382   -1.9159   22.6531 H   0  0  0  0  0  0  0  0  0  0  0  0
    8.8042   -0.8240   21.0745 C   0  0  0  0  0  0  0  0  0  0  0  0
    9.4333   -0.0842   20.6072 H   0  0  0  0  0  0  0  0  0  0  0  0
    7.4687   -0.9241   20.6943 N   0  0  0  0  0  0  0  0  0  0  0  0
    6.8176   -0.0951   19.7458 C   0  0  0  0  0  0  0  0  0  0  0  0
    7.3099    0.0471   18.4313 C   0  0  0  0  0  0  0  0  0  0  0  0
    8.2526   -0.4116   18.1267 H   0  0  0  0  0  0  0  0  0  0  0  0
    6.6564    0.7204   17.4774 N   0  0  0  0  0  0  0  0  0  0  0  0
    5.5016    1.3228   17.8053 C   0  0  0  0  0  0  0  0  0  0  0  0
    5.0053    1.8628   17.0047 H   0  0  0  0  0  0  0  0  0  0  0  0
    4.9622    1.2959   19.0974 C   0  0  0  0  0  0  0  0  0  0  0  0
    4.0465    1.8389   19.3147 H   0  0  0  0  0  0  0  0  0  0  0  0
    5.6392    0.5864   20.0904 C   0  0  0  0  0  0  0  0  0  0  0  0
    5.2900    0.5690   21.1235 H   0  0  0  0  0  0  0  0  0  0  0  0
    6.8905   -1.8953   21.5019 C   0  0  0  0  0  0  0  0  0  0  0  0
    5.7447   -2.5851   21.8486 C   0  0  0  0  0  0  0  0  0  0  0  0
    4.7286   -2.4967   21.5373 H   0  0  0  0  0  0  0  0  0  0  0  0
    3.8888   -4.3138   23.0808 N   0  0  0  0  0  0  0  0  0  0  0  0
    2.9642   -5.1314   23.5864 C   0  0  0  0  0  0  0  0  0  0  0  0
    1.4544   -5.0828   23.1526 C   0  0  0  0  0  0  0  0  0  0  0  0
    1.1371   -4.2069   22.2005 F   0  0  0  0  0  0  0  0  0  0  0  0
    0.6776   -4.8074   24.2235 F   0  0  0  0  0  0  0  0  0  0  0  0
    1.0742   -6.2970   22.6990 F   0  0  0  0  0  0  0  0  0  0  0  0
    3.3188   -6.0887   24.5404 C   0  0  0  0  0  0  0  0  0  0  0  0
    2.5913   -6.7794   24.9335 H   0  0  0  0  0  0  0  0  0  0  0  0
  1  2  1  0
  2  3  2  0
  3  4  1  0
  4  5  1  0
  5  6  2  0
  6  7  1  0
  7  8  1  0
  8  9  1  0
  8 10  2  0
 10 11  1  0
 10 12  1  0
 12 13  1  0
 13 14  2  0
 14 15  1  0
 14 16  1  0
 16 17  2  0
 17 18  1  0
 17 19  1  0
 19 20  1  0
 19 21  2  0
 21 22  1  0
 12 23  1  0
 23 24  2  0
 24 25  1  0
  4 26  2  0
 26 27  1  0
 27 28  1  0
 28 29  1  0
 28 30  1  0
 28 31  1  0
 27 32  2  0
 32 33  1  0
 32  2  1  0
 24  5  1  0
 23  7  1  0
 21 13  1  0
M  END
>  <cnnaffinity>  (1) 
-5.67759

>  <filename>  (1) 
FC(F)(F)c1ccnc(-c2cc3n(-c4cccnc4)ccn3n2)n1

$$$$
