
     RDKit          3D

 29 31  0  0  0  0  0  0  0  0999 V2000
    4.9147    1.7862   16.9992 H   0  0  0  0  0  0  0  0  0  0  0  0
    5.3971    1.2915   17.8401 C   0  0  0  0  0  0  0  0  0  0  0  0
    6.5529    0.6670   17.5734 N   0  0  0  0  0  0  0  0  0  0  0  0
    7.1887    0.0585   18.5815 C   0  0  0  0  0  0  0  0  0  0  0  0
    8.1362   -0.4199   18.3543 H   0  0  0  0  0  0  0  0  0  0  0  0
    6.6885    0.0277   19.8987 C   0  0  0  0  0  0  0  0  0  0  0  0
    7.2988   -0.6647   20.9540 O   0  0  0  0  0  0  0  0  0  0  0  0
    8.6318   -0.7562   21.0752 C   0  0  0  0  0  0  0  0  0  0  0  0
    9.5571   -0.0777   20.4525 N   0  0  0  0  0  0  0  0  0  0  0  0
   10.7311   -0.5452   20.9433 N   0  0  0  0  0  0  0  0  0  0  0  0
   10.5511   -1.4683   21.8049 N   0  0  0  0  0  0  0  0  0  0  0  0
    9.2036   -1.6376   21.9288 N   0  0  0  0  0  0  0  0  0  0  0  0
    8.6460   -2.5786   22.8380 C   0  0  0  0  0  0  0  0  0  0  0  0
    9.3698   -3.7269   23.2103 C   0  0  0  0  0  0  0  0  0  0  0  0
   10.3841   -3.8726   22.8659 H   0  0  0  0  0  0  0  0  0  0  0  0
    8.8742   -4.6639   24.0089 N   0  0  0  0  0  0  0  0  0  0  0  0
    7.6470   -4.4904   24.5326 C   0  0  0  0  0  0  0  0  0  0  0  0
    7.0761   -5.5479   25.5043 C   0  0  0  0  0  0  0  0  0  0  0  0
    7.8857   -6.5856   25.7096 F   0  0  0  0  0  0  0  0  0  0  0  0
    5.8927   -6.0193   25.0491 F   0  0  0  0  0  0  0  0  0  0  0  0
    6.8108   -5.0075   26.7132 F   0  0  0  0  0  0  0  0  0  0  0  0
    6.8704   -3.3540   24.2358 C   0  0  0  0  0  0  0  0  0  0  0  0
    5.8846   -3.2320   24.6641 H   0  0  0  0  0  0  0  0  0  0  0  0
    7.3742   -2.3788   23.3777 C   0  0  0  0  0  0  0  0  0  0  0  0
    6.7970   -1.4895   23.1306 H   0  0  0  0  0  0  0  0  0  0  0  0
    5.4657    0.6431   20.1711 C   0  0  0  0  0  0  0  0  0  0  0  0
    5.0391    0.6098   21.1755 H   0  0  0  0  0  0  0  0  0  0  0  0
    4.8216    1.3002   19.1163 C   0  0  0  0  0  0  0  0  0  0  0  0
    3.8895    1.8290   19.2683 H   0  0  0  0  0  0  0  0  0  0  0  0
  1  2  1  0
  2  3  2  0
  3  4  1  0
  4  5  1  0
  4  6  2  0
  6  7  1  0
  7  8  1  0
  8  9  2  0
  9 10  1  0
 10 11  2  0
 11 12  1  0
 12 13  1  0
 13 14  2  0
 14 15  1  0
 14 16  1  0
 16 17  2  0
 17 18  1  0
 18 19  1  0
 18 20  1  0
 18 21  1  0
 17 22  1  0
 22 23  1  0
 22 24  2  0
 24 25  1  0
  6 26  1  0
 26 27  1  0
 26 28  2  0
 28 29  1  0
 28  2  1  0
 12  8  1  0
 24 13  1  0
M  END
>  <cnnaffinity>  (1) 
-5.49351

>  <filename>  (1) 
FC(F)(F)c1ccc(-n2nnnc2Oc2cccnc2)cn1

$$$$
