
     RDKit          3D

 29 31  0  0  0  0  0  0  0  0999 V2000
    5.3953   -2.7249   26.3018 H   0  0  0  0  0  0  0  0  0  0  0  0
    6.3734   -2.8468   25.8471 C   0  0  0  0  0  0  0  0  0  0  0  0
    6.5208   -2.2746   24.6606 N   0  0  0  0  0  0  0  0  0  0  0  0
    7.7182   -2.4237   24.0805 C   0  0  0  0  0  0  0  0  0  0  0  0
    7.8983   -1.7550   22.8316 N   0  0  0  0  0  0  0  0  0  0  0  0
    9.0742   -1.7082   22.1436 N   0  0  0  0  0  0  0  0  0  0  0  0
    8.7958   -1.0774   21.0291 C   0  0  0  0  0  0  0  0  0  0  0  0
    9.5968   -0.9342   20.3189 H   0  0  0  0  0  0  0  0  0  0  0  0
    7.4204   -0.6841   20.9403 C   0  0  0  0  0  0  0  0  0  0  0  0
    6.6853    0.0148   19.8572 C   0  0  0  0  0  0  0  0  0  0  0  0
    7.1639    0.0603   18.5291 C   0  0  0  0  0  0  0  0  0  0  0  0
    8.0955   -0.4449   18.2793 H   0  0  0  0  0  0  0  0  0  0  0  0
    6.5541    0.6853   17.5144 N   0  0  0  0  0  0  0  0  0  0  0  0
    5.4005    1.3154   17.7887 C   0  0  0  0  0  0  0  0  0  0  0  0
    4.9235    1.8364   16.9617 H   0  0  0  0  0  0  0  0  0  0  0  0
    4.8152    1.3227   19.0591 C   0  0  0  0  0  0  0  0  0  0  0  0
    3.8786    1.8444   19.2150 H   0  0  0  0  0  0  0  0  0  0  0  0
    5.4638    0.6663   20.1067 C   0  0  0  0  0  0  0  0  0  0  0  0
    5.0407    0.6797   21.1114 H   0  0  0  0  0  0  0  0  0  0  0  0
    6.9088   -1.1297   22.1286 C   0  0  0  0  0  0  0  0  0  0  0  0
    5.9262   -1.0704   22.5589 H   0  0  0  0  0  0  0  0  0  0  0  0
    8.7157   -3.1629   24.5576 N   0  0  0  0  0  0  0  0  0  0  0  0
    8.5591   -3.7413   25.7527 C   0  0  0  0  0  0  0  0  0  0  0  0
    9.7234   -4.6451   26.2757 C   0  0  0  0  0  0  0  0  0  0  0  0
   10.8716   -4.4329   25.6317 F   0  0  0  0  0  0  0  0  0  0  0  0
    9.3921   -5.9451   26.1308 F   0  0  0  0  0  0  0  0  0  0  0  0
    9.9677   -4.4476   27.5878 F   0  0  0  0  0  0  0  0  0  0  0  0
    7.3782   -3.5785   26.4785 C   0  0  0  0  0  0  0  0  0  0  0  0
    7.2266   -4.0002   27.4624 H   0  0  0  0  0  0  0  0  0  0  0  0
  1  2  1  0
  2  3  2  0
  3  4  1  0
  4  5  1  0
  5  6  1  0
  6  7  2  0
  7  8  1  0
  7  9  1  0
  9 10  1  0
 10 11  2  0
 11 12  1  0
 11 13  1  0
 13 14  2  0
 14 15  1  0
 14 16  1  0
 16 17  1  0
 16 18  2  0
 18 19  1  0
  9 20  2  0
 20 21  1  0
  4 22  2  0
 22 23  1  0
 23 24  1  0
 24 25  1  0
 24 26  1  0
 24 27  1  0
 23 28  2  0
 28 29  1  0
 28  2  1  0
 20  5  1  0
 18 10  1  0
M  END
>  <cnnaffinity>  (1) 
-5.25764

>  <filename>  (1) 
FC(F)(F)c1ccnc(-n2cc(-c3cccnc3)cn2)n1

$$$$
