
     RDKit          3D

 27 28  0  0  0  0  0  0  0  0999 V2000
    4.9817    1.7852   17.0121 H   0  0  0  0  0  0  0  0  0  0  0  0
    5.3991    1.2639   17.8702 C   0  0  0  0  0  0  0  0  0  0  0  0
    6.5556    0.6267   17.6376 N   0  0  0  0  0  0  0  0  0  0  0  0
    7.1398    0.0285   18.6738 C   0  0  0  0  0  0  0  0  0  0  0  0
    8.0999   -0.4500   18.4789 H   0  0  0  0  0  0  0  0  0  0  0  0
    6.6029   -0.0084   19.9680 C   0  0  0  0  0  0  0  0  0  0  0  0
    7.4322   -0.6776   21.0053 C   0  0  0  0  0  0  0  0  0  0  0  0
    9.0540   -0.3911   21.1226 S   0  0  0  0  0  0  0  0  0  0  0  0
    6.7354   -1.5227   21.8081 N   0  0  0  0  0  0  0  0  0  0  0  0
    5.7349   -1.3774   21.7840 H   0  0  0  0  0  0  0  0  0  0  0  0
    7.2522   -2.5580   22.6422 C   0  0  0  0  0  0  0  0  0  0  0  0
    8.3172   -3.3969   22.2348 C   0  0  0  0  0  0  0  0  0  0  0  0
    8.7356   -3.2544   21.2439 H   0  0  0  0  0  0  0  0  0  0  0  0
    8.8490   -4.3488   22.9967 N   0  0  0  0  0  0  0  0  0  0  0  0
    8.3707   -4.5201   24.2453 C   0  0  0  0  0  0  0  0  0  0  0  0
    8.9815   -5.5814   25.1778 C   0  0  0  0  0  0  0  0  0  0  0  0
    9.4175   -5.0293   26.3307 F   0  0  0  0  0  0  0  0  0  0  0  0
   10.0040   -6.2598   24.6626 F   0  0  0  0  0  0  0  0  0  0  0  0
    8.0455   -6.4867   25.5293 F   0  0  0  0  0  0  0  0  0  0  0  0
    7.2903   -3.7597   24.7318 C   0  0  0  0  0  0  0  0  0  0  0  0
    6.9177   -3.9471   25.7326 H   0  0  0  0  0  0  0  0  0  0  0  0
    6.7221   -2.7752   23.9188 C   0  0  0  0  0  0  0  0  0  0  0  0
    5.9001   -2.1639   24.2784 H   0  0  0  0  0  0  0  0  0  0  0  0
    5.3728    0.6371   20.1943 C   0  0  0  0  0  0  0  0  0  0  0  0
    4.9066    0.6873   21.1821 H   0  0  0  0  0  0  0  0  0  0  0  0
    4.7685    1.2929   19.1186 C   0  0  0  0  0  0  0  0  0  0  0  0
    3.8498    1.8624   19.2294 H   0  0  0  0  0  0  0  0  0  0  0  0
  1  2  1  0
  2  3  2  0
  3  4  1  0
  4  5  1  0
  4  6  2  0
  6  7  1  0
  7  8  2  0
  7  9  1  0
  9 10  1  0
  9 11  1  0
 11 12  2  0
 12 13  1  0
 12 14  1  0
 14 15  2  0
 15 16  1  0
 16 17  1  0
 16 18  1  0
 16 19  1  0
 15 20  1  0
 20 21  1  0
 20 22  2  0
 22 23  1  0
  6 24  1  0
 24 25  1  0
 24 26  2  0
 26 27  1  0
 26  2  1  0
 22 11  1  0
M  END
>  <cnnaffinity>  (1) 
-5.19445

>  <filename>  (1) 
FC(F)(F)c1ccc(NC(=S)c2cccnc2)cn1

$$$$
