
     RDKit          3D

 36 39  0  0  0  0  0  0  0  0999 V2000
    6.8130    4.1295   21.9919 H   0  0  0  0  0  0  0  0  0  0  0  0
    6.9953    3.2821   22.6505 C   0  0  0  0  0  0  0  0  0  0  0  0
    7.1529    2.1008   22.0612 N   0  0  0  0  0  0  0  0  0  0  0  0
    7.3726    1.0659   22.8743 C   0  0  0  0  0  0  0  0  0  0  0  0
    7.5708   -0.2324   22.2928 C   0  0  0  0  0  0  0  0  0  0  0  0
    7.3540   -0.6684   20.9581 C   0  0  0  0  0  0  0  0  0  0  0  0
    6.6260    0.0074   19.8907 C   0  0  0  0  0  0  0  0  0  0  0  0
    7.1572    0.0435   18.5931 C   0  0  0  0  0  0  0  0  0  0  0  0
    8.1086   -0.4424   18.3680 H   0  0  0  0  0  0  0  0  0  0  0  0
    6.5645    0.6745   17.5783 N   0  0  0  0  0  0  0  0  0  0  0  0
    5.3974    1.2918   17.8233 C   0  0  0  0  0  0  0  0  0  0  0  0
    4.9423    1.8037   16.9798 H   0  0  0  0  0  0  0  0  0  0  0  0
    4.7783    1.2950   19.0771 C   0  0  0  0  0  0  0  0  0  0  0  0
    3.8609    1.8443   19.2370 H   0  0  0  0  0  0  0  0  0  0  0  0
    5.3978    0.6323   20.1285 C   0  0  0  0  0  0  0  0  0  0  0  0
    4.9791    0.6571   21.1361 H   0  0  0  0  0  0  0  0  0  0  0  0
    7.9282   -1.8467   20.7585 N   0  0  0  0  0  0  0  0  0  0  0  0
    8.4133   -2.1789   21.9608 N   0  0  0  0  0  0  0  0  0  0  0  0
    8.2681   -1.2556   22.9022 C   0  0  0  0  0  0  0  0  0  0  0  0
    9.1639   -1.5188   24.0812 C   0  0  0  0  0  0  0  0  0  0  0  0
    8.5700   -1.5692   24.9962 H   0  0  0  0  0  0  0  0  0  0  0  0
    9.8510   -0.6724   24.1919 H   0  0  0  0  0  0  0  0  0  0  0  0
    9.8734   -2.8479   23.6888 C   0  0  0  0  0  0  0  0  0  0  0  0
    9.6121   -3.6739   24.3549 H   0  0  0  0  0  0  0  0  0  0  0  0
   10.9602   -2.7626   23.7003 H   0  0  0  0  0  0  0  0  0  0  0  0
    9.4242   -3.1657   22.2353 C   0  0  0  0  0  0  0  0  0  0  0  0
   10.2274   -2.9888   21.5161 H   0  0  0  0  0  0  0  0  0  0  0  0
    8.9995   -4.1638   22.1232 H   0  0  0  0  0  0  0  0  0  0  0  0
    7.4730    1.1253   24.2156 N   0  0  0  0  0  0  0  0  0  0  0  0
    7.2974    2.3056   24.8072 C   0  0  0  0  0  0  0  0  0  0  0  0
    7.3866    2.4161   26.3654 C   0  0  0  0  0  0  0  0  0  0  0  0
    6.2362    2.9137   26.8699 F   0  0  0  0  0  0  0  0  0  0  0  0
    7.6284    1.2612   26.9915 F   0  0  0  0  0  0  0  0  0  0  0  0
    8.3660    3.2786   26.7157 F   0  0  0  0  0  0  0  0  0  0  0  0
    7.0517    3.4445   24.0346 C   0  0  0  0  0  0  0  0  0  0  0  0
    6.9181    4.4157   24.4766 H   0  0  0  0  0  0  0  0  0  0  0  0
  1  2  1  0
  2  3  2  0
  3  4  1  0
  4  5  1  0
  5  6  1  0
  6  7  1  0
  7  8  2  0
  8  9  1  0
  8 10  1  0
 10 11  2  0
 11 12  1  0
 11 13  1  0
 13 14  1  0
 13 15  2  0
 15 16  1  0
  6 17  2  0
 17 18  1  0
 18 19  1  0
 19 20  1  0
 20 21  1  0
 20 22  1  0
 20 23  1  0
 23 24  1  0
 23 25  1  0
 23 26  1  0
 26 27  1  0
 26 28  1  0
  4 29  2  0
 29 30  1  0
 30 31  1  0
 31 32  1  0
 31 33  1  0
 31 34  1  0
 30 35  2  0
 35 36  1  0
 35  2  1  0
 19  5  2  0
 15  7  1  0
 26 18  1  0
M  END
>  <cnnaffinity>  (1) 
-5.808

>  <filename>  (1) 
FC(F)(F)c1ccnc(-c2c(-c3cccnc3)nn3c2CCC3)n1

$$$$
