
     RDKit          3D

 30 32  0  0  0  0  0  0  0  0999 V2000
    4.9319    1.8391   16.9398 H   0  0  0  0  0  0  0  0  0  0  0  0
    5.4143    1.3207   17.7657 C   0  0  0  0  0  0  0  0  0  0  0  0
    6.5634    0.6895   17.4775 N   0  0  0  0  0  0  0  0  0  0  0  0
    7.1844    0.0627   18.4845 C   0  0  0  0  0  0  0  0  0  0  0  0
    8.1071   -0.4523   18.2228 H   0  0  0  0  0  0  0  0  0  0  0  0
    6.7240    0.0245   19.8183 C   0  0  0  0  0  0  0  0  0  0  0  0
    7.4695   -0.6692   20.8967 C   0  0  0  0  0  0  0  0  0  0  0  0
    8.8391   -1.0625   20.9727 C   0  0  0  0  0  0  0  0  0  0  0  0
    9.6179   -0.9122   20.2346 H   0  0  0  0  0  0  0  0  0  0  0  0
    9.1250   -1.6843   22.0983 N   0  0  0  0  0  0  0  0  0  0  0  0
    7.9511   -1.7122   22.7948 N   0  0  0  0  0  0  0  0  0  0  0  0
    7.7961   -2.3384   24.0749 C   0  0  0  0  0  0  0  0  0  0  0  0
    6.5578   -2.3377   24.5859 N   0  0  0  0  0  0  0  0  0  0  0  0
    6.3356   -2.9861   25.7219 C   0  0  0  0  0  0  0  0  0  0  0  0
    5.3282   -2.9261   26.1304 H   0  0  0  0  0  0  0  0  0  0  0  0
    7.3233   -3.7143   26.3747 C   0  0  0  0  0  0  0  0  0  0  0  0
    6.8960   -4.6498   27.4479 C   0  0  0  0  0  0  0  0  0  0  0  0
    7.8918   -4.9651   28.2906 F   0  0  0  0  0  0  0  0  0  0  0  0
    5.8887   -4.1437   28.1859 F   0  0  0  0  0  0  0  0  0  0  0  0
    6.4459   -5.8063   26.9173 F   0  0  0  0  0  0  0  0  0  0  0  0
    8.6393   -3.6702   25.8856 C   0  0  0  0  0  0  0  0  0  0  0  0
    9.4552   -4.2016   26.3758 H   0  0  0  0  0  0  0  0  0  0  0  0
    8.8778   -2.9586   24.7250 C   0  0  0  0  0  0  0  0  0  0  0  0
    9.8582   -2.9078   24.2756 H   0  0  0  0  0  0  0  0  0  0  0  0
    6.9574   -1.1069   22.0893 C   0  0  0  0  0  0  0  0  0  0  0  0
    5.9658   -1.0446   22.5087 H   0  0  0  0  0  0  0  0  0  0  0  0
    5.5039    0.6715   20.0802 C   0  0  0  0  0  0  0  0  0  0  0  0
    5.0884    0.6776   21.0884 H   0  0  0  0  0  0  0  0  0  0  0  0
    4.8409    1.3262   19.0412 C   0  0  0  0  0  0  0  0  0  0  0  0
    3.9032    1.8460   19.2057 H   0  0  0  0  0  0  0  0  0  0  0  0
  1  2  1  0
  2  3  2  0
  3  4  1  0
  4  5  1  0
  4  6  2  0
  6  7  1  0
  7  8  1  0
  8  9  1  0
  8 10  2  0
 10 11  1  0
 11 12  1  0
 12 13  2  0
 13 14  1  0
 14 15  1  0
 14 16  2  0
 16 17  1  0
 17 18  1  0
 17 19  1  0
 17 20  1  0
 16 21  1  0
 21 22  1  0
 21 23  2  0
 23 24  1  0
 11 25  1  0
 25 26  1  0
  6 27  1  0
 27 28  1  0
 27 29  2  0
 29 30  1  0
 29  2  1  0
 25  7  2  0
 23 12  1  0
M  END
>  <cnnaffinity>  (1) 
-5.1911

>  <filename>  (1) 
FC(F)(F)c1ccc(-n2cc(-c3cccnc3)cn2)nc1

$$$$
