
     RDKit          3D

 31 33  0  0  0  0  0  0  0  0999 V2000
    4.9940    1.8321   16.9240 H   0  0  0  0  0  0  0  0  0  0  0  0
    5.4559    1.3134   17.7628 C   0  0  0  0  0  0  0  0  0  0  0  0
    6.6074    0.6731   17.5058 N   0  0  0  0  0  0  0  0  0  0  0  0
    7.2059    0.0471   18.5261 C   0  0  0  0  0  0  0  0  0  0  0  0
    8.1239   -0.4796   18.2696 H   0  0  0  0  0  0  0  0  0  0  0  0
    6.7079    0.0165   19.8438 C   0  0  0  0  0  0  0  0  0  0  0  0
    7.3926   -0.6884   20.9354 C   0  0  0  0  0  0  0  0  0  0  0  0
    6.8939   -1.2633   22.0514 C   0  0  0  0  0  0  0  0  0  0  0  0
    5.8780   -1.4495   22.3497 H   0  0  0  0  0  0  0  0  0  0  0  0
    7.9501   -1.7665   22.8071 N   0  0  0  0  0  0  0  0  0  0  0  0
    7.7469   -2.4317   24.0582 C   0  0  0  0  0  0  0  0  0  0  0  0
    6.8363   -1.9224   25.0133 C   0  0  0  0  0  0  0  0  0  0  0  0
    6.3755   -0.9430   24.8808 H   0  0  0  0  0  0  0  0  0  0  0  0
    6.4939   -2.5875   26.1210 N   0  0  0  0  0  0  0  0  0  0  0  0
    7.0402   -3.7972   26.3450 C   0  0  0  0  0  0  0  0  0  0  0  0
    6.6840   -4.6171   27.6054 C   0  0  0  0  0  0  0  0  0  0  0  0
    7.7901   -4.8173   28.3560 F   0  0  0  0  0  0  0  0  0  0  0  0
    5.7566   -4.0706   28.3915 F   0  0  0  0  0  0  0  0  0  0  0  0
    6.2555   -5.8550   27.2712 F   0  0  0  0  0  0  0  0  0  0  0  0
    7.9902   -4.3551   25.4702 C   0  0  0  0  0  0  0  0  0  0  0  0
    8.4380   -5.3139   25.7121 H   0  0  0  0  0  0  0  0  0  0  0  0
    8.3617   -3.6610   24.3208 C   0  0  0  0  0  0  0  0  0  0  0  0
    9.1144   -4.0523   23.6366 H   0  0  0  0  0  0  0  0  0  0  0  0
    9.1336   -1.5744   22.1189 C   0  0  0  0  0  0  0  0  0  0  0  0
   10.7000   -2.0243   22.4551 S   0  0  0  0  0  0  0  0  0  0  0  0
    8.7611   -0.8991   21.0002 N   0  0  0  0  0  0  0  0  0  0  0  0
    9.4792   -0.6021   20.3611 H   0  0  0  0  0  0  0  0  0  0  0  0
    5.4872    0.6752   20.0796 C   0  0  0  0  0  0  0  0  0  0  0  0
    5.0591    0.6874   21.0829 H   0  0  0  0  0  0  0  0  0  0  0  0
    4.8530    1.3303   19.0246 C   0  0  0  0  0  0  0  0  0  0  0  0
    3.9170    1.8587   19.1625 H   0  0  0  0  0  0  0  0  0  0  0  0
  1  2  1  0
  2  3  2  0
  3  4  1  0
  4  5  1  0
  4  6  2  0
  6  7  1  0
  7  8  2  0
  8  9  1  0
  8 10  1  0
 10 11  1  0
 11 12  2  0
 12 13  1  0
 12 14  1  0
 14 15  2  0
 15 16  1  0
 16 17  1  0
 16 18  1  0
 16 19  1  0
 15 20  1  0
 20 21  1  0
 20 22  2  0
 22 23  1  0
 10 24  1  0
 24 25  2  0
 24 26  1  0
 26 27  1  0
  6 28  1  0
 28 29  1  0
 28 30  2  0
 30 31  1  0
 30  2  1  0
 26  7  1  0
 22 11  1  0
M  END
>  <cnnaffinity>  (1) 
-5.66118

>  <filename>  (1) 
FC(F)(F)c1ccc(-n2cc(-c3cccnc3)[nH]c2=S)cn1

$$$$
