
     RDKit          3D

 41 44  0  0  0  0  0  0  0  0999 V2000
    4.9789    1.8210   16.9741 H   0  0  0  0  0  0  0  0  0  0  0  0
    5.4162    1.2897   17.8159 C   0  0  0  0  0  0  0  0  0  0  0  0
    6.5664    0.6395   17.5798 N   0  0  0  0  0  0  0  0  0  0  0  0
    7.1358    0.0040   18.6118 C   0  0  0  0  0  0  0  0  0  0  0  0
    8.0865   -0.4865   18.4020 H   0  0  0  0  0  0  0  0  0  0  0  0
    6.5994   -0.0444   19.9077 C   0  0  0  0  0  0  0  0  0  0  0  0
    7.3494   -0.7321   20.9821 C   0  0  0  0  0  0  0  0  0  0  0  0
    6.7302   -1.5526   21.8358 N   0  0  0  0  0  0  0  0  0  0  0  0
    7.6883   -1.8942   22.6999 N   0  0  0  0  0  0  0  0  0  0  0  0
    8.8787   -1.3228   22.4684 C   0  0  0  0  0  0  0  0  0  0  0  0
    8.7322   -0.5670   21.3257 C   0  0  0  0  0  0  0  0  0  0  0  0
    9.7099    0.4870   20.8641 C   0  0  0  0  0  0  0  0  0  0  0  0
   10.7360    0.1142   20.9794 H   0  0  0  0  0  0  0  0  0  0  0  0
    9.5655    0.6557   19.7924 H   0  0  0  0  0  0  0  0  0  0  0  0
    9.5093    1.8018   21.6016 C   0  0  0  0  0  0  0  0  0  0  0  0
    8.4823    2.6436   21.1663 C   0  0  0  0  0  0  0  0  0  0  0  0
    7.8810    2.3430   20.3156 H   0  0  0  0  0  0  0  0  0  0  0  0
    8.2173    3.8581   21.7934 C   0  0  0  0  0  0  0  0  0  0  0  0
    7.4256    4.4956   21.4055 H   0  0  0  0  0  0  0  0  0  0  0  0
    8.9686    4.2472   22.9099 C   0  0  0  0  0  0  0  0  0  0  0  0
    8.7160    5.5995   23.5456 C   0  0  0  0  0  0  0  0  0  0  0  0
    7.4538    6.0330   23.3561 F   0  0  0  0  0  0  0  0  0  0  0  0
    8.9205    5.5866   24.8781 F   0  0  0  0  0  0  0  0  0  0  0  0
    9.5243    6.5558   23.0451 F   0  0  0  0  0  0  0  0  0  0  0  0
    9.9593    3.3818   23.4051 C   0  0  0  0  0  0  0  0  0  0  0  0
   10.4970    3.6294   24.3159 H   0  0  0  0  0  0  0  0  0  0  0  0
   10.2258    2.1765   22.7474 C   0  0  0  0  0  0  0  0  0  0  0  0
   11.0107    1.5362   23.1388 H   0  0  0  0  0  0  0  0  0  0  0  0
    9.7997   -1.5457   23.6289 C   0  0  0  0  0  0  0  0  0  0  0  0
   10.7360   -2.0163   23.3183 H   0  0  0  0  0  0  0  0  0  0  0  0
   10.0685   -0.5831   24.0751 H   0  0  0  0  0  0  0  0  0  0  0  0
    8.9579   -2.4342   24.5904 C   0  0  0  0  0  0  0  0  0  0  0  0
    9.3952   -3.4283   24.6708 H   0  0  0  0  0  0  0  0  0  0  0  0
    8.9191   -2.0031   25.5915 H   0  0  0  0  0  0  0  0  0  0  0  0
    7.5315   -2.5415   23.9770 C   0  0  0  0  0  0  0  0  0  0  0  0
    7.1925   -3.5680   23.8229 H   0  0  0  0  0  0  0  0  0  0  0  0
    6.7736   -2.0105   24.5622 H   0  0  0  0  0  0  0  0  0  0  0  0
    5.3792    0.6270   20.1259 C   0  0  0  0  0  0  0  0  0  0  0  0
    4.9298    0.6441   21.1216 H   0  0  0  0  0  0  0  0  0  0  0  0
    4.7837    1.3066   19.0642 C   0  0  0  0  0  0  0  0  0  0  0  0
    3.8616    1.8718   19.1904 H   0  0  0  0  0  0  0  0  0  0  0  0
  1  2  1  0
  2  3  2  0
  3  4  1  0
  4  5  1  0
  4  6  2  0
  6  7  1  0
  7  8  2  0
  8  9  1  0
  9 10  1  0
 10 11  2  0
 11 12  1  0
 12 13  1  0
 12 14  1  0
 12 15  1  0
 15 16  2  0
 16 17  1  0
 16 18  1  0
 18 19  1  0
 18 20  2  0
 20 21  1  0
 21 22  1  0
 21 23  1  0
 21 24  1  0
 20 25  1  0
 25 26  1  0
 25 27  2  0
 27 28  1  0
 10 29  1  0
 29 30  1  0
 29 31  1  0
 29 32  1  0
 32 33  1  0
 32 34  1  0
 32 35  1  0
 35 36  1  0
 35 37  1  0
  6 38  1  0
 38 39  1  0
 38 40  2  0
 40 41  1  0
 40  2  1  0
 11  7  1  0
 27 15  1  0
 35  9  1  0
M  END
>  <cnnaffinity>  (1) 
-6.03129

>  <filename>  (1) 
FC(F)(F)c1ccc(Cc2c(-c3cccnc3)nn3c2CCC3)cc1

$$$$
