
     RDKit          3D

 40 42  0  0  0  0  0  0  0  0999 V2000
   12.0641    7.0022   23.7195 F   0  0  0  0  0  0  0  0  0  0  0  0
   11.2532    6.2491   24.4857 C   0  0  0  0  0  0  0  0  0  0  0  0
   10.6882    7.0930   25.3762 F   0  0  0  0  0  0  0  0  0  0  0  0
   12.0455    5.4261   25.1777 F   0  0  0  0  0  0  0  0  0  0  0  0
   10.1511    5.5197   23.6325 C   0  0  0  0  0  0  0  0  0  0  0  0
    9.1938    6.2639   22.9320 C   0  0  0  0  0  0  0  0  0  0  0  0
    8.2444    5.5374   22.2228 C   0  0  0  0  0  0  0  0  0  0  0  0
    8.2141    4.2170   22.1919 N   0  0  0  0  0  0  0  0  0  0  0  0
    9.1884    3.5886   22.8584 C   0  0  0  0  0  0  0  0  0  0  0  0
    9.2295    2.2299   22.7761 N   0  0  0  0  0  0  0  0  0  0  0  0
   10.0751    1.4874   23.7092 C   0  0  0  0  0  0  0  0  0  0  0  0
   10.5894    0.2057   23.0535 C   0  0  0  0  0  0  0  0  0  0  0  0
    9.4318   -0.6451   22.5183 C   0  0  0  0  0  0  0  0  0  0  0  0
    8.5710    0.1837   21.5477 C   0  0  0  0  0  0  0  0  0  0  0  0
    7.4123   -0.6776   20.9976 C   0  0  0  0  0  0  0  0  0  0  0  0
    6.6329   -0.0095   19.8883 C   0  0  0  0  0  0  0  0  0  0  0  0
    5.4192    0.6502   20.1276 C   0  0  0  0  0  0  0  0  0  0  0  0
    4.7827    1.3168   19.0761 C   0  0  0  0  0  0  0  0  0  0  0  0
    5.3877    1.3031   17.8164 C   0  0  0  0  0  0  0  0  0  0  0  0
    6.5477    0.6808   17.5608 N   0  0  0  0  0  0  0  0  0  0  0  0
    7.1496    0.0577   18.5811 C   0  0  0  0  0  0  0  0  0  0  0  0
    8.1053   -0.4162   18.3445 H   0  0  0  0  0  0  0  0  0  0  0  0
    4.9258    1.8162   16.9747 H   0  0  0  0  0  0  0  0  0  0  0  0
    3.8537    1.8578   19.2252 H   0  0  0  0  0  0  0  0  0  0  0  0
    4.9911    0.6516   21.1318 H   0  0  0  0  0  0  0  0  0  0  0  0
    6.7437   -0.9453   21.8304 H   0  0  0  0  0  0  0  0  0  0  0  0
    7.8366   -1.6240   20.6318 H   0  0  0  0  0  0  0  0  0  0  0  0
    8.0901    1.4840   22.2221 C   0  0  0  0  0  0  0  0  0  0  0  0
    7.5762    2.1199   21.4969 H   0  0  0  0  0  0  0  0  0  0  0  0
    7.3642    1.2432   23.0264 H   0  0  0  0  0  0  0  0  0  0  0  0
    9.2229    0.4844   20.7095 H   0  0  0  0  0  0  0  0  0  0  0  0
    9.8223   -1.5306   21.9975 H   0  0  0  0  0  0  0  0  0  0  0  0
    8.8061   -1.0258   23.3457 H   0  0  0  0  0  0  0  0  0  0  0  0
   11.1858   -0.3523   23.7862 H   0  0  0  0  0  0  0  0  0  0  0  0
   11.2512    0.4771   22.2162 H   0  0  0  0  0  0  0  0  0  0  0  0
   10.9035    2.1294   24.0166 H   0  0  0  0  0  0  0  0  0  0  0  0
    9.5027    1.2411   24.6235 H   0  0  0  0  0  0  0  0  0  0  0  0
   10.1300    4.1857   23.5994 N   0  0  0  0  0  0  0  0  0  0  0  0
    7.4633    6.0484   21.6524 H   0  0  0  0  0  0  0  0  0  0  0  0
    9.1666    7.3414   22.9364 H   0  0  0  0  0  0  0  0  0  0  0  0
  1  2  1  0
  2  3  1  0
  2  4  1  0
  2  5  1  0
  5  6  2  0
  6  7  1  0
  7  8  2  0
  8  9  1  0
  9 10  1  0
 10 11  1  0
 11 12  1  0
 12 13  1  0
 13 14  1  0
 14 15  1  0
 15 16  1  0
 16 17  2  0
 17 18  1  0
 18 19  2  0
 19 20  1  0
 20 21  2  0
 21 22  1  0
 19 23  1  0
 18 24  1  0
 17 25  1  0
 15 26  1  0
 15 27  1  0
 14 28  1  0
 28 29  1  0
 28 30  1  0
 14 31  1  0
 13 32  1  0
 13 33  1  0
 12 34  1  0
 12 35  1  0
 11 36  1  0
 11 37  1  0
  9 38  2  0
  7 39  1  0
  6 40  1  0
 38  5  1  0
 28 10  1  0
 21 16  1  0
M  END
>  <cnnaffinity>  (1) 
-5.59854

>  <filename>  (1) 
FC(F)(F)c1ccnc(N2CCCC(Cc3cccnc3)C2)n1

$$$$
