
     RDKit          3D

 34 36  0  0  0  0  0  0  0  0999 V2000
    5.6468   -1.6660   21.7146 H   0  0  0  0  0  0  0  0  0  0  0  0
    6.7143   -1.5285   21.8006 C   0  0  0  0  0  0  0  0  0  0  0  0
    7.3795   -0.7146   20.9617 C   0  0  0  0  0  0  0  0  0  0  0  0
    6.7037    0.0456   19.9074 C   0  0  0  0  0  0  0  0  0  0  0  0
    7.2033    0.0836   18.5961 C   0  0  0  0  0  0  0  0  0  0  0  0
    8.1333   -0.4246   18.3412 H   0  0  0  0  0  0  0  0  0  0  0  0
    6.5732    0.6745   17.5771 N   0  0  0  0  0  0  0  0  0  0  0  0
    5.4091    1.2892   17.8404 C   0  0  0  0  0  0  0  0  0  0  0  0
    4.9278    1.7817   16.9983 H   0  0  0  0  0  0  0  0  0  0  0  0
    4.8201    1.3127   19.1095 C   0  0  0  0  0  0  0  0  0  0  0  0
    3.8808    1.8321   19.2563 H   0  0  0  0  0  0  0  0  0  0  0  0
    5.4652    0.6643   20.1595 C   0  0  0  0  0  0  0  0  0  0  0  0
    5.0299    0.6312   21.1621 H   0  0  0  0  0  0  0  0  0  0  0  0
    8.7643   -0.6029   21.0854 N   0  0  0  0  0  0  0  0  0  0  0  0
    9.3292    0.0477   20.5727 H   0  0  0  0  0  0  0  0  0  0  0  0
    9.5058   -1.3175   21.9664 C   0  0  0  0  0  0  0  0  0  0  0  0
   11.1554   -1.1627   22.0405 S   0  0  0  0  0  0  0  0  0  0  0  0
    8.8390   -2.1605   22.7641 N   0  0  0  0  0  0  0  0  0  0  0  0
    9.4524   -2.6181   23.4167 H   0  0  0  0  0  0  0  0  0  0  0  0
    7.3851   -2.1852   22.9488 C   0  0  1  0  0  0  0  0  0  0  0  0
    7.0825   -3.2446   22.9963 H   0  0  0  0  0  0  0  0  0  0  0  0
    6.9827   -1.5586   24.2805 C   0  0  0  0  0  0  0  0  0  0  0  0
    7.3617   -0.2414   24.5753 C   0  0  0  0  0  0  0  0  0  0  0  0
    7.9694    0.3395   23.8841 H   0  0  0  0  0  0  0  0  0  0  0  0
    7.0036    0.3889   25.6972 N   0  0  0  0  0  0  0  0  0  0  0  0
    6.2452   -0.2652   26.5919 C   0  0  0  0  0  0  0  0  0  0  0  0
    5.8261    0.4476   27.8955 C   0  0  0  0  0  0  0  0  0  0  0  0
    6.2397   -0.2514   28.9736 F   0  0  0  0  0  0  0  0  0  0  0  0
    4.4794    0.5144   27.9876 F   0  0  0  0  0  0  0  0  0  0  0  0
    6.2945    1.6901   28.0242 F   0  0  0  0  0  0  0  0  0  0  0  0
    5.8100   -1.5881   26.3787 C   0  0  0  0  0  0  0  0  0  0  0  0
    5.1943   -2.0877   27.1146 H   0  0  0  0  0  0  0  0  0  0  0  0
    6.1835   -2.2385   25.2045 C   0  0  0  0  0  0  0  0  0  0  0  0
    5.8544   -3.2596   24.9953 H   0  0  0  0  0  0  0  0  0  0  0  0
  1  2  1  0
  2  3  2  0
  3  4  1  0
  4  5  2  0
  5  6  1  0
  5  7  1  0
  7  8  2  0
  8  9  1  0
  8 10  1  0
 10 11  1  0
 10 12  2  0
 12 13  1  0
  3 14  1  0
 14 15  1  0
 14 16  1  0
 16 17  2  0
 16 18  1  0
 18 19  1  0
 18 20  1  0
 20 21  1  1
 20 22  1  0
 22 23  2  0
 23 24  1  0
 23 25  1  0
 25 26  2  0
 26 27  1  0
 27 28  1  0
 27 29  1  0
 27 30  1  0
 26 31  1  0
 31 32  1  0
 31 33  2  0
 33 34  1  0
 20  2  1  0
 33 22  1  0
 12  4  1  0
M  END
>  <cnnaffinity>  (1) 
-5.40009

>  <filename>  (1) 
FC(F)(F)c1ccc([C@H]2C=C(c3cccnc3)NC(=S)N2)cn1

$$$$
