
     RDKit          3D

 28 29  0  0  0  0  0  0  0  0999 V2000
    5.1155    1.7309   16.9896 H   0  0  0  0  0  0  0  0  0  0  0  0
    5.4978    1.2488   17.8865 C   0  0  0  0  0  0  0  0  0  0  0  0
    6.6617    0.5980   17.7398 N   0  0  0  0  0  0  0  0  0  0  0  0
    7.1748    0.0153   18.8263 C   0  0  0  0  0  0  0  0  0  0  0  0
    8.1043   -0.5345   18.6830 H   0  0  0  0  0  0  0  0  0  0  0  0
    6.5935    0.0826   20.1016 C   0  0  0  0  0  0  0  0  0  0  0  0
    7.2921   -0.5765   21.2430 C   0  0  0  0  0  0  0  0  0  0  0  0
    8.0442   -2.0299   21.0790 S   0  0  0  0  0  0  0  0  0  0  0  0
    7.2737    0.0450   22.4544 N   0  0  0  0  0  0  0  0  0  0  0  0
    7.5135   -0.5828   23.2105 H   0  0  0  0  0  0  0  0  0  0  0  0
    7.3893    1.4318   22.7204 C   0  0  0  0  0  0  0  0  0  0  0  0
    8.0344    2.2731   21.8047 C   0  0  0  0  0  0  0  0  0  0  0  0
    8.4949    1.8456   20.9202 H   0  0  0  0  0  0  0  0  0  0  0  0
    8.0704    3.6470   22.0355 C   0  0  0  0  0  0  0  0  0  0  0  0
    8.5385    4.3093   21.3169 H   0  0  0  0  0  0  0  0  0  0  0  0
    7.4757    4.1839   23.1771 C   0  0  0  0  0  0  0  0  0  0  0  0
    7.4876    5.2564   23.3271 H   0  0  0  0  0  0  0  0  0  0  0  0
    6.8810    3.3470   24.1190 C   0  0  0  0  0  0  0  0  0  0  0  0
    6.4376    3.7853   25.0141 H   0  0  0  0  0  0  0  0  0  0  0  0
    6.8659    1.9566   23.9207 C   0  0  0  0  0  0  0  0  0  0  0  0
    6.4143    1.0297   25.0282 C   0  0  0  0  0  0  0  0  0  0  0  0
    5.4715    0.1545   24.6413 F   0  0  0  0  0  0  0  0  0  0  0  0
    7.4471    0.2934   25.5060 F   0  0  0  0  0  0  0  0  0  0  0  0
    5.8995    1.6864   26.0855 F   0  0  0  0  0  0  0  0  0  0  0  0
    5.3544    0.7371   20.2337 C   0  0  0  0  0  0  0  0  0  0  0  0
    4.8360    0.7908   21.1949 H   0  0  0  0  0  0  0  0  0  0  0  0
    4.8012    1.3277   19.0976 C   0  0  0  0  0  0  0  0  0  0  0  0
    3.8567    1.8606   19.1284 H   0  0  0  0  0  0  0  0  0  0  0  0
  1  2  1  0
  2  3  2  0
  3  4  1  0
  4  5  1  0
  4  6  2  0
  6  7  1  0
  7  8  2  0
  7  9  1  0
  9 10  1  0
  9 11  1  0
 11 12  2  0
 12 13  1  0
 12 14  1  0
 14 15  1  0
 14 16  2  0
 16 17  1  0
 16 18  1  0
 18 19  1  0
 18 20  2  0
 20 21  1  0
 21 22  1  0
 21 23  1  0
 21 24  1  0
  6 25  1  0
 25 26  1  0
 25 27  2  0
 27 28  1  0
 27  2  1  0
 20 11  1  0
M  END
>  <cnnaffinity>  (1) 
-5.04529

>  <filename>  (1) 
FC(F)(F)c1ccccc1NC(=S)c1cccnc1

$$$$
