
     RDKit          3D

 34 36  0  0  0  0  0  0  0  0999 V2000
    4.9404    1.8013   16.9797 H   0  0  0  0  0  0  0  0  0  0  0  0
    5.3975    1.3005   17.8320 C   0  0  0  0  0  0  0  0  0  0  0  0
    6.5586    0.6720   17.5890 N   0  0  0  0  0  0  0  0  0  0  0  0
    7.1542    0.0413   18.6042 C   0  0  0  0  0  0  0  0  0  0  0  0
    8.0936   -0.4573   18.3629 H   0  0  0  0  0  0  0  0  0  0  0  0
    6.6430    0.0182   19.9061 C   0  0  0  0  0  0  0  0  0  0  0  0
    7.3829   -0.7328   20.9243 C   0  0  0  0  0  0  0  0  0  0  0  0
    7.7933   -1.9689   20.7828 N   0  0  0  0  0  0  0  0  0  0  0  0
    8.3737   -2.3115   21.9792 C   0  0  0  0  0  0  0  0  0  0  0  0
    8.7671   -3.3107   22.1259 H   0  0  0  0  0  0  0  0  0  0  0  0
    8.3410   -1.2492   22.8391 C   0  0  0  0  0  0  0  0  0  0  0  0
    8.7348   -1.0621   23.8241 H   0  0  0  0  0  0  0  0  0  0  0  0
    7.7012   -0.2331   22.1589 N   0  0  0  0  0  0  0  0  0  0  0  0
    7.6492    1.1490   22.6291 C   0  0  0  0  0  0  0  0  0  0  0  0
    7.2026    1.1516   23.6211 H   0  0  0  0  0  0  0  0  0  0  0  0
    6.9806    1.6926   21.9589 H   0  0  0  0  0  0  0  0  0  0  0  0
    9.0174    1.8240   22.6006 C   0  0  0  0  0  0  0  0  0  0  0  0
    9.6230    1.9692   21.3478 C   0  0  0  0  0  0  0  0  0  0  0  0
    9.0478    1.6179   20.4915 H   0  0  0  0  0  0  0  0  0  0  0  0
   10.8971    2.5326   21.2176 C   0  0  0  0  0  0  0  0  0  0  0  0
   11.3504    2.6568   20.2344 H   0  0  0  0  0  0  0  0  0  0  0  0
   11.5720    2.9722   22.3605 C   0  0  0  0  0  0  0  0  0  0  0  0
   12.5568    3.4269   22.2599 H   0  0  0  0  0  0  0  0  0  0  0  0
   10.9753    2.8444   23.6203 C   0  0  0  0  0  0  0  0  0  0  0  0
   11.5104    3.1849   24.5025 H   0  0  0  0  0  0  0  0  0  0  0  0
    9.6946    2.2746   23.7488 C   0  0  0  0  0  0  0  0  0  0  0  0
    9.0116    2.1122   25.0939 C   0  0  0  0  0  0  0  0  0  0  0  0
    9.7466    2.5198   26.1235 F   0  0  0  0  0  0  0  0  0  0  0  0
    7.8443    2.7938   25.1499 F   0  0  0  0  0  0  0  0  0  0  0  0
    8.7062    0.8093   25.3312 F   0  0  0  0  0  0  0  0  0  0  0  0
    5.4240    0.6677   20.1501 C   0  0  0  0  0  0  0  0  0  0  0  0
    4.9801    0.6497   21.1466 H   0  0  0  0  0  0  0  0  0  0  0  0
    4.7924    1.3197   19.0917 C   0  0  0  0  0  0  0  0  0  0  0  0
    3.8604    1.8520   19.2279 H   0  0  0  0  0  0  0  0  0  0  0  0
  1  2  1  0
  2  3  2  0
  3  4  1  0
  4  5  1  0
  4  6  2  0
  6  7  1  0
  7  8  2  0
  8  9  1  0
  9 10  1  0
  9 11  2  0
 11 12  1  0
 11 13  1  0
 13 14  1  0
 14 15  1  0
 14 16  1  0
 14 17  1  0
 17 18  2  0
 18 19  1  0
 18 20  1  0
 20 21  1  0
 20 22  2  0
 22 23  1  0
 22 24  1  0
 24 25  1  0
 24 26  2  0
 26 27  1  0
 27 28  1  0
 27 29  1  0
 27 30  1  0
  6 31  1  0
 31 32  1  0
 31 33  2  0
 33 34  1  0
 33  2  1  0
 13  7  1  0
 26 17  1  0
M  END
>  <cnnaffinity>  (1) 
-5.58071

>  <filename>  (1) 
FC(F)(F)c1ccccc1Cn1ccnc1-c1cccnc1

$$$$
