
     RDKit          3D

 30 32  0  0  0  0  0  0  0  0999 V2000
    5.2552   -2.9753   26.0926 H   0  0  0  0  0  0  0  0  0  0  0  0
    6.2663   -3.0456   25.6750 C   0  0  0  0  0  0  0  0  0  0  0  0
    6.4866   -2.4352   24.5173 N   0  0  0  0  0  0  0  0  0  0  0  0
    7.7191   -2.5305   24.0048 C   0  0  0  0  0  0  0  0  0  0  0  0
    7.9106   -1.8850   22.7856 N   0  0  0  0  0  0  0  0  0  0  0  0
    6.8614   -1.3513   22.0293 C   0  0  0  0  0  0  0  0  0  0  0  0
    5.8346   -1.4970   22.3081 H   0  0  0  0  0  0  0  0  0  0  0  0
    7.3852   -0.7516   20.9476 C   0  0  0  0  0  0  0  0  0  0  0  0
    6.7166   -0.0076   19.8782 C   0  0  0  0  0  0  0  0  0  0  0  0
    7.2337    0.0209   18.5736 C   0  0  0  0  0  0  0  0  0  0  0  0
    8.1488   -0.5178   18.3430 H   0  0  0  0  0  0  0  0  0  0  0  0
    6.6521    0.6479   17.5451 N   0  0  0  0  0  0  0  0  0  0  0  0
    5.5003    1.2924   17.7890 C   0  0  0  0  0  0  0  0  0  0  0  0
    5.0463    1.8059   16.9446 H   0  0  0  0  0  0  0  0  0  0  0  0
    4.8852    1.3204   19.0446 C   0  0  0  0  0  0  0  0  0  0  0  0
    3.9495    1.8516   19.1705 H   0  0  0  0  0  0  0  0  0  0  0  0
    5.5054    0.6658   20.1078 C   0  0  0  0  0  0  0  0  0  0  0  0
    5.0765    0.6814   21.1093 H   0  0  0  0  0  0  0  0  0  0  0  0
    8.7487   -0.9693   21.0250 N   0  0  0  0  0  0  0  0  0  0  0  0
    9.4607   -0.6474   20.3947 H   0  0  0  0  0  0  0  0  0  0  0  0
    9.1192   -1.6457   22.1524 C   0  0  0  0  0  0  0  0  0  0  0  0
   10.6812   -2.0064   22.5174 S   0  0  0  0  0  0  0  0  0  0  0  0
    8.7181   -3.2125   24.5293 N   0  0  0  0  0  0  0  0  0  0  0  0
    8.4877   -3.8669   25.6788 C   0  0  0  0  0  0  0  0  0  0  0  0
    9.6213   -4.7937   26.2245 C   0  0  0  0  0  0  0  0  0  0  0  0
    9.2773   -6.0908   26.0778 F   0  0  0  0  0  0  0  0  0  0  0  0
   10.7891   -4.6043   25.6103 F   0  0  0  0  0  0  0  0  0  0  0  0
    9.8231   -4.6085   27.5444 F   0  0  0  0  0  0  0  0  0  0  0  0
    7.2598   -3.7718   26.3341 C   0  0  0  0  0  0  0  0  0  0  0  0
    7.0611   -4.2558   27.2802 H   0  0  0  0  0  0  0  0  0  0  0  0
  1  2  1  0
  2  3  2  0
  3  4  1  0
  4  5  1  0
  5  6  1  0
  6  7  1  0
  6  8  2  0
  8  9  1  0
  9 10  2  0
 10 11  1  0
 10 12  1  0
 12 13  2  0
 13 14  1  0
 13 15  1  0
 15 16  1  0
 15 17  2  0
 17 18  1  0
  8 19  1  0
 19 20  1  0
 19 21  1  0
 21 22  2  0
  4 23  2  0
 23 24  1  0
 24 25  1  0
 25 26  1  0
 25 27  1  0
 25 28  1  0
 24 29  2  0
 29 30  1  0
 29  2  1  0
 21  5  1  0
 17  9  1  0
M  END
>  <cnnaffinity>  (1) 
-5.73155

>  <filename>  (1) 
FC(F)(F)c1ccnc(-n2cc(-c3cccnc3)[nH]c2=S)n1

$$$$
