
     RDKit          3D

 32 34  0  0  0  0  0  0  0  0999 V2000
    6.3459    0.0708   24.7441 F   0  0  0  0  0  0  0  0  0  0  0  0
    6.6420    1.1727   24.0312 C   0  0  0  0  0  0  0  0  0  0  0  0
    6.3423    2.4053   24.5956 C   0  0  0  0  0  0  0  0  0  0  0  0
    6.6384    3.5795   23.8952 C   0  0  0  0  0  0  0  0  0  0  0  0
    7.2388    3.4843   22.6401 C   0  0  0  0  0  0  0  0  0  0  0  0
    7.5729    4.5773   21.8465 O   0  0  0  0  0  0  0  0  0  0  0  0
    7.3394    5.8505   22.2358 C   0  0  0  0  0  0  0  0  0  0  0  0
    7.7734    6.6344   21.2607 F   0  0  0  0  0  0  0  0  0  0  0  0
    6.0393    6.1121   22.4593 F   0  0  0  0  0  0  0  0  0  0  0  0
    7.9812    6.1819   23.3719 F   0  0  0  0  0  0  0  0  0  0  0  0
    7.5416    2.2456   22.0812 C   0  0  0  0  0  0  0  0  0  0  0  0
    7.2316    1.0531   22.7634 C   0  0  0  0  0  0  0  0  0  0  0  0
    7.5672   -0.2840   22.2311 C   0  0  0  0  0  0  0  0  0  0  0  0
    8.2042   -1.3234   22.8707 C   0  0  0  0  0  0  0  0  0  0  0  0
    8.3909   -2.2943   21.8700 C   0  0  0  0  0  0  0  0  0  0  0  0
    7.8976   -1.9067   20.7034 N   0  0  0  0  0  0  0  0  0  0  0  0
    7.3705   -0.6871   20.9276 N   0  0  0  0  0  0  0  0  0  0  0  0
    6.6468   -0.0186   19.9080 C   0  0  0  0  0  0  0  0  0  0  0  0
    5.4284    0.6253   20.1652 C   0  0  0  0  0  0  0  0  0  0  0  0
    4.8110    1.2946   19.1069 C   0  0  0  0  0  0  0  0  0  0  0  0
    5.4109    1.2896   17.8425 C   0  0  0  0  0  0  0  0  0  0  0  0
    6.5765    0.6681   17.5952 N   0  0  0  0  0  0  0  0  0  0  0  0
    7.1739    0.0327   18.6055 C   0  0  0  0  0  0  0  0  0  0  0  0
    8.1225   -0.4427   18.3782 H   0  0  0  0  0  0  0  0  0  0  0  0
    4.9358    1.7841   16.9973 H   0  0  0  0  0  0  0  0  0  0  0  0
    3.8838    1.8350   19.2557 H   0  0  0  0  0  0  0  0  0  0  0  0
    5.0067    0.6370   21.1736 H   0  0  0  0  0  0  0  0  0  0  0  0
    8.8636   -3.2632   21.9488 H   0  0  0  0  0  0  0  0  0  0  0  0
    8.5241   -1.3384   23.9031 H   0  0  0  0  0  0  0  0  0  0  0  0
    7.9938    2.1865   21.0999 H   0  0  0  0  0  0  0  0  0  0  0  0
    6.4051    4.5464   24.3257 H   0  0  0  0  0  0  0  0  0  0  0  0
    5.8912    2.4126   25.5811 H   0  0  0  0  0  0  0  0  0  0  0  0
  1  2  1  0
  2  3  2  0
  3  4  1  0
  4  5  2  0
  5  6  1  0
  6  7  1  0
  7  8  1  0
  7  9  1  0
  7 10  1  0
  5 11  1  0
 11 12  2  0
 12 13  1  0
 13 14  2  0
 14 15  1  0
 15 16  2  0
 16 17  1  0
 17 18  1  0
 18 19  2  0
 19 20  1  0
 20 21  2  0
 21 22  1  0
 22 23  2  0
 23 24  1  0
 21 25  1  0
 20 26  1  0
 19 27  1  0
 15 28  1  0
 14 29  1  0
 11 30  1  0
  4 31  1  0
  3 32  1  0
 12  2  1  0
 17 13  1  0
 23 18  1  0
M  END
>  <cnnaffinity>  (1) 
-5.49967

>  <filename>  (1) 
Fc1ccc(OC(F)(F)F)cc1-c1ccnn1-c1cccnc1

$$$$
