
     RDKit          3D

 35 37  0  0  0  0  0  0  0  0999 V2000
    9.1503    1.3319   23.9192 F   0  0  0  0  0  0  0  0  0  0  0  0
    7.8598    0.9849   24.0714 C   0  0  0  0  0  0  0  0  0  0  0  0
    6.8957    1.9693   23.8760 C   0  0  0  0  0  0  0  0  0  0  0  0
    5.5617    1.6712   24.1643 C   0  0  0  0  0  0  0  0  0  0  0  0
    5.2194    0.3886   24.6031 C   0  0  0  0  0  0  0  0  0  0  0  0
    6.1945   -0.6100   24.7056 C   0  0  0  0  0  0  0  0  0  0  0  0
    7.5439   -0.3370   24.4338 C   0  0  0  0  0  0  0  0  0  0  0  0
    8.6048   -1.4170   24.4971 C   0  0  0  0  0  0  0  0  0  0  0  0
    8.8193   -2.1901   23.1819 C   0  0  0  0  0  0  0  0  0  0  0  0
    9.3555   -1.3529   22.1159 N   0  0  0  0  0  0  0  0  0  0  0  0
   10.6634   -0.9594   22.0002 C   0  0  0  0  0  0  0  0  0  0  0  0
   10.8232   -0.1021   21.0414 N   0  0  0  0  0  0  0  0  0  0  0  0
    9.5815    0.1021   20.4669 N   0  0  0  0  0  0  0  0  0  0  0  0
    8.7285   -0.6392   21.1237 C   0  0  0  0  0  0  0  0  0  0  0  0
    7.3710   -0.7566   20.9056 N   0  0  0  0  0  0  0  0  0  0  0  0
    6.6974   -0.0523   19.8722 C   0  0  0  0  0  0  0  0  0  0  0  0
    5.4820    0.5737   20.1598 C   0  0  0  0  0  0  0  0  0  0  0  0
    4.8275    1.2642   19.1339 C   0  0  0  0  0  0  0  0  0  0  0  0
    5.3896    1.2888   17.8537 C   0  0  0  0  0  0  0  0  0  0  0  0
    6.5420    0.6707   17.5488 N   0  0  0  0  0  0  0  0  0  0  0  0
    7.1831    0.0329   18.5374 C   0  0  0  0  0  0  0  0  0  0  0  0
    8.1436   -0.4191   18.3032 H   0  0  0  0  0  0  0  0  0  0  0  0
    4.9038    1.8214   17.0399 H   0  0  0  0  0  0  0  0  0  0  0  0
    3.9038    1.7966   19.3180 H   0  0  0  0  0  0  0  0  0  0  0  0
    5.0894    0.5568   21.1788 H   0  0  0  0  0  0  0  0  0  0  0  0
    6.8959   -0.7169   21.7993 H   0  0  0  0  0  0  0  0  0  0  0  0
   11.4571   -1.3382   22.6294 H   0  0  0  0  0  0  0  0  0  0  0  0
    7.8999   -2.6686   22.8232 H   0  0  0  0  0  0  0  0  0  0  0  0
    9.5464   -2.9951   23.3597 H   0  0  0  0  0  0  0  0  0  0  0  0
    8.3331   -2.1434   25.2689 H   0  0  0  0  0  0  0  0  0  0  0  0
    9.5664   -0.9753   24.7825 H   0  0  0  0  0  0  0  0  0  0  0  0
    5.8927   -1.6184   24.9943 H   0  0  0  0  0  0  0  0  0  0  0  0
    4.1969    0.1369   24.8572 H   0  0  0  0  0  0  0  0  0  0  0  0
    4.8052    2.4420   24.0336 H   0  0  0  0  0  0  0  0  0  0  0  0
    7.2112    2.9380   23.4994 H   0  0  0  0  0  0  0  0  0  0  0  0
  1  2  1  0
  2  3  2  0
  3  4  1  0
  4  5  2  0
  5  6  1  0
  6  7  2  0
  7  8  1  0
  8  9  1  0
  9 10  1  0
 10 11  1  0
 11 12  2  0
 12 13  1  0
 13 14  2  0
 14 15  1  0
 15 16  1  0
 16 17  2  0
 17 18  1  0
 18 19  2  0
 19 20  1  0
 20 21  2  0
 21 22  1  0
 19 23  1  0
 18 24  1  0
 17 25  1  0
 15 26  1  0
 11 27  1  0
  9 28  1  0
  9 29  1  0
  8 30  1  0
  8 31  1  0
  6 32  1  0
  5 33  1  0
  4 34  1  0
  3 35  1  0
  7  2  1  0
 14 10  1  0
 21 16  1  0
M  END
>  <cnnaffinity>  (1) 
-5.58427

>  <filename>  (1) 
Fc1ccccc1CCn1cnnc1Nc1cccnc1

$$$$
