
     RDKit          3D

 38 41  0  0  0  0  0  0  0  0999 V2000
    5.2840    1.6096   17.0576 H   0  0  0  0  0  0  0  0  0  0  0  0
    5.8546    1.2137   17.8975 C   0  0  0  0  0  0  0  0  0  0  0  0
    7.0419    0.6633   17.6019 N   0  0  0  0  0  0  0  0  0  0  0  0
    7.7496    0.1322   18.6068 C   0  0  0  0  0  0  0  0  0  0  0  0
    8.7222   -0.2743   18.3366 H   0  0  0  0  0  0  0  0  0  0  0  0
    7.2959    0.0767   19.9384 C   0  0  0  0  0  0  0  0  0  0  0  0
    8.0600   -0.6503   20.9630 C   0  0  0  0  0  0  0  0  0  0  0  0
    9.3894   -0.5591   21.0163 N   0  0  0  0  0  0  0  0  0  0  0  0
    9.7064   -1.3513   22.0403 N   0  0  0  0  0  0  0  0  0  0  0  0
    8.6733   -1.9971   22.5991 C   0  0  0  0  0  0  0  0  0  0  0  0
    7.5488   -1.5671   21.9399 C   0  0  0  0  0  0  0  0  0  0  0  0
    6.1569   -2.1017   22.1367 C   0  0  0  0  0  0  0  0  0  0  0  0
    5.4735   -1.3432   21.7466 H   0  0  0  0  0  0  0  0  0  0  0  0
    5.9508   -2.2420   23.2055 H   0  0  0  0  0  0  0  0  0  0  0  0
    5.8860   -3.3522   21.3363 C   0  0  0  0  0  0  0  0  0  0  0  0
    5.7244   -3.1566   19.9646 C   0  0  0  0  0  0  0  0  0  0  0  0
    5.8049   -2.1391   19.5795 H   0  0  0  0  0  0  0  0  0  0  0  0
    5.5116   -4.2151   19.1023 C   0  0  0  0  0  0  0  0  0  0  0  0
    5.3260   -3.9701   18.0662 H   0  0  0  0  0  0  0  0  0  0  0  0
    5.5250   -5.5114   19.6230 C   0  0  0  0  0  0  0  0  0  0  0  0
    5.4166   -6.5583   18.7878 F   0  0  0  0  0  0  0  0  0  0  0  0
    5.6335   -5.7508   20.9916 C   0  0  0  0  0  0  0  0  0  0  0  0
    5.5758   -6.7719   21.3613 H   0  0  0  0  0  0  0  0  0  0  0  0
    5.8140   -4.6531   21.8496 C   0  0  0  0  0  0  0  0  0  0  0  0
    5.9285   -4.8137   22.9180 H   0  0  0  0  0  0  0  0  0  0  0  0
    9.1583   -2.9846   23.6148 C   0  0  0  0  0  0  0  0  0  0  0  0
    8.9905   -4.0169   23.2850 H   0  0  0  0  0  0  0  0  0  0  0  0
    8.6284   -2.8722   24.5630 H   0  0  0  0  0  0  0  0  0  0  0  0
   10.6609   -2.6198   23.7293 C   0  0  0  0  0  0  0  0  0  0  0  0
   10.8056   -2.0135   24.6247 H   0  0  0  0  0  0  0  0  0  0  0  0
   11.3020   -3.4969   23.8082 H   0  0  0  0  0  0  0  0  0  0  0  0
   11.0121   -1.7673   22.4762 C   0  0  0  0  0  0  0  0  0  0  0  0
   11.4821   -2.3487   21.6795 H   0  0  0  0  0  0  0  0  0  0  0  0
   11.6453   -0.8989   22.6776 H   0  0  0  0  0  0  0  0  0  0  0  0
    6.0811    0.7087   20.2363 C   0  0  0  0  0  0  0  0  0  0  0  0
    5.7242    0.7511   21.2674 H   0  0  0  0  0  0  0  0  0  0  0  0
    5.3509    1.2836   19.1994 C   0  0  0  0  0  0  0  0  0  0  0  0
    4.4017    1.7665   19.3876 H   0  0  0  0  0  0  0  0  0  0  0  0
  1  2  1  0
  2  3  2  0
  3  4  1  0
  4  5  1  0
  4  6  2  0
  6  7  1  0
  7  8  2  0
  8  9  1  0
  9 10  1  0
 10 11  2  0
 11 12  1  0
 12 13  1  0
 12 14  1  0
 12 15  1  0
 15 16  2  0
 16 17  1  0
 16 18  1  0
 18 19  1  0
 18 20  2  0
 20 21  1  0
 20 22  1  0
 22 23  1  0
 22 24  2  0
 24 25  1  0
 10 26  1  0
 26 27  1  0
 26 28  1  0
 26 29  1  0
 29 30  1  0
 29 31  1  0
 29 32  1  0
 32 33  1  0
 32 34  1  0
  6 35  1  0
 35 36  1  0
 35 37  2  0
 37 38  1  0
 37  2  1  0
 11  7  1  0
 24 15  1  0
 32  9  1  0
M  END
>  <cnnaffinity>  (1) 
-5.88166

>  <filename>  (1) 
Fc1ccc(Cc2c(-c3cccnc3)nn3c2CCC3)cc1

$$$$
