
     RDKit          3D

 20 22  0  0  0  0  0  0  0  0999 V2000
    4.8744    1.8470   16.9992 H   0  0  0  0  0  0  0  0  0  0  0  0
    5.3880    1.3095   17.7945 C   0  0  0  0  0  0  0  0  0  0  0  0
    6.5446    0.6671   17.5383 N   0  0  0  0  0  0  0  0  0  0  0  0
    7.1607    0.0381   18.5601 C   0  0  0  0  0  0  0  0  0  0  0  0
    8.1091   -0.4475   18.3581 H   0  0  0  0  0  0  0  0  0  0  0  0
    6.6685    0.0068   19.8777 C   0  0  0  0  0  0  0  0  0  0  0  0
    7.3786   -0.6736   20.9812 C   0  0  0  0  0  0  0  0  0  0  0  0
    8.3362   -1.6590   20.8912 C   0  0  0  0  0  0  0  0  0  0  0  0
    8.7216   -1.9895   19.9397 H   0  0  0  0  0  0  0  0  0  0  0  0
    8.8023   -2.0931   22.1415 N   0  0  0  0  0  0  0  0  0  0  0  0
    8.1680   -1.2874   22.9539 C   0  0  0  0  0  0  0  0  0  0  0  0
    8.2630   -0.9759   24.6598 S   0  0  0  0  0  0  0  0  0  0  0  0
    7.1401    0.3506   24.3375 C   0  0  0  0  0  0  0  0  0  0  0  0
    6.4757    1.7218   25.9646 I   0  0  0  0  0  0  0  0  0  0  0  0
    6.7196    0.5254   23.0999 N   0  0  0  0  0  0  0  0  0  0  0  0
    7.2967   -0.4394   22.3364 N   0  0  0  0  0  0  0  0  0  0  0  0
    5.4651    0.6605   20.1297 C   0  0  0  0  0  0  0  0  0  0  0  0
    5.0464    0.6587   21.1320 H   0  0  0  0  0  0  0  0  0  0  0  0
    4.8243    1.3093   19.0721 C   0  0  0  0  0  0  0  0  0  0  0  0
    3.8914    1.8337   19.2376 H   0  0  0  0  0  0  0  0  0  0  0  0
  1  2  1  0
  2  3  2  0
  3  4  1  0
  4  5  1  0
  4  6  2  0
  6  7  1  0
  7  8  2  0
  8  9  1  0
  8 10  1  0
 10 11  2  0
 11 12  1  0
 12 13  1  0
 13 14  1  0
 13 15  2  0
 15 16  1  0
  6 17  1  0
 17 18  1  0
 17 19  2  0
 19 20  1  0
 19  2  1  0
 16  7  1  0
 16 11  1  0
M  END
>  <cnnaffinity>  (1) 
-4.76295

>  <filename>  (1) 
Ic1nn2c(-c3cccnc3)cnc2s1

$$$$
