
     RDKit          3D

 24 26  0  0  0  0  0  0  0  0999 V2000
    6.5532    0.8997   26.2046 H   0  0  0  0  0  0  0  0  0  0  0  0
    6.4812    1.5438   25.4047 N   0  0  0  0  0  0  0  0  0  0  0  0
    6.5956    1.0032   24.3372 N   0  0  0  0  0  4  0  0  0  0  0  0
    6.5471    0.7211   23.1688 N   0  0  0  0  0  0  0  0  0  0  0  0
    7.2879   -0.1876   22.4474 C   0  0  0  0  0  0  0  0  0  0  0  0
    7.3909   -0.5073   21.0749 C   0  0  0  0  0  0  0  0  0  0  0  0
    6.6724    0.0928   19.9307 C   0  0  0  0  0  0  0  0  0  0  0  0
    7.1513   -0.0304   18.6020 C   0  0  0  0  0  0  0  0  0  0  0  0
    8.0178   -0.6559   18.3828 H   0  0  0  0  0  0  0  0  0  0  0  0
    6.5839    0.5697   17.5544 N   0  0  0  0  0  0  0  0  0  0  0  0
    5.4607    1.2690   17.7763 C   0  0  0  0  0  0  0  0  0  0  0  0
    5.0125    1.7319   16.9006 H   0  0  0  0  0  0  0  0  0  0  0  0
    4.8654    1.3809   19.0331 C   0  0  0  0  0  0  0  0  0  0  0  0
    3.9337    1.9125   19.1369 H   0  0  0  0  0  0  0  0  0  0  0  0
    5.4780    0.8009   20.1378 C   0  0  0  0  0  0  0  0  0  0  0  0
    5.0616    0.8787   21.1452 H   0  0  0  0  0  0  0  0  0  0  0  0
    8.2909   -1.5258   20.8828 N   0  0  0  0  0  0  0  0  0  0  0  0
    8.7147   -1.8387   22.0756 C   0  0  0  0  0  0  0  0  0  0  0  0
    9.8276   -3.0174   22.7412 S   0  0  0  0  0  0  0  0  0  0  0  0
    9.4863   -2.3959   24.3454 C   0  0  0  0  0  0  0  0  0  0  0  0
    9.9584   -2.8565   25.1979 H   0  0  0  0  0  0  0  0  0  0  0  0
    8.6272   -1.3691   24.3572 C   0  0  0  0  0  0  0  0  0  0  0  0
    8.3088   -0.8082   25.2359 H   0  0  0  0  0  0  0  0  0  0  0  0
    8.1802   -1.0654   23.0696 N   0  0  0  0  0  0  0  0  0  0  0  0
  1  2  1  0
  2  3  2  0
  3  4  2  0
  4  5  1  0
  5  6  2  0
  6  7  1  0
  7  8  2  0
  8  9  1  0
  8 10  1  0
 10 11  2  0
 11 12  1  0
 11 13  1  0
 13 14  1  0
 13 15  2  0
 15 16  1  0
  6 17  1  0
 17 18  2  0
 18 19  1  0
 19 20  1  0
 20 21  1  0
 20 22  2  0
 22 23  1  0
 22 24  1  0
 24  5  1  0
 15  7  1  0
 24 18  1  0
M  CHG  1   3   1
M  END
>  <cnnaffinity>  (1) 
-5.10151

>  <filename>  (1) 
N=[N+]=Nc1c(-c2cccnc2)nc2sccn12

$$$$
