
     RDKit          3D

 34 36  0  0  0  0  0  0  0  0999 V2000
    9.0206    0.1052   24.2945 H   0  0  0  0  0  0  0  0  0  0  0  0
    9.1832   -0.8789   24.0612 N   0  0  0  0  0  0  0  0  0  0  0  0
    8.5240   -1.1133   23.0055 C   0  0  0  0  0  0  0  0  0  0  0  0
    8.4562   -2.7127   22.2522 S   0  0  0  0  0  0  0  0  0  0  0  0
    7.5075   -2.1008   20.9445 C   0  0  0  0  0  0  0  0  0  0  0  0
    7.1382   -2.7543   20.1710 H   0  0  0  0  0  0  0  0  0  0  0  0
    7.2582   -0.7850   21.0354 C   0  0  0  0  0  0  0  0  0  0  0  0
    6.6100    0.0190   19.9813 C   0  0  0  0  0  0  0  0  0  0  0  0
    7.1834    0.0647   18.6944 C   0  0  0  0  0  0  0  0  0  0  0  0
    8.1570   -0.3842   18.5018 H   0  0  0  0  0  0  0  0  0  0  0  0
    6.6205    0.6660   17.6406 N   0  0  0  0  0  0  0  0  0  0  0  0
    5.4513    1.2900   17.8431 C   0  0  0  0  0  0  0  0  0  0  0  0
    5.0159    1.7771   16.9753 H   0  0  0  0  0  0  0  0  0  0  0  0
    4.8062    1.3363   19.0817 C   0  0  0  0  0  0  0  0  0  0  0  0
    3.8797    1.8869   19.1888 H   0  0  0  0  0  0  0  0  0  0  0  0
    5.3981    0.7033   20.1757 C   0  0  0  0  0  0  0  0  0  0  0  0
    4.9277    0.7392   21.1610 H   0  0  0  0  0  0  0  0  0  0  0  0
    7.7268   -0.2273   22.2337 N   0  0  0  0  0  0  0  0  0  0  0  0
    7.3525    1.1495   22.7165 N   0  0  0  0  0  0  0  0  0  0  0  0
    6.9590    1.6853   21.9384 H   0  0  0  0  0  0  0  0  0  0  0  0
    6.0860    1.6327   23.8221 S   0  0  0  0  0  0  0  0  0  0  0  0
    5.4907    0.4755   24.4419 O   0  0  0  0  0  0  0  0  0  0  0  0
    5.3355    2.5780   23.0077 O   0  0  0  0  0  0  0  0  0  0  0  0
    7.0378    2.5265   25.0277 C   0  0  0  0  0  0  0  0  0  0  0  0
    7.9884    3.4794   24.6270 C   0  0  0  0  0  0  0  0  0  0  0  0
    8.3167    3.5654   23.5922 H   0  0  0  0  0  0  0  0  0  0  0  0
    8.5510    4.3308   25.5806 C   0  0  0  0  0  0  0  0  0  0  0  0
    9.2613    5.0832   25.2502 H   0  0  0  0  0  0  0  0  0  0  0  0
    8.1958    4.2166   26.9291 C   0  0  0  0  0  0  0  0  0  0  0  0
    8.6141    4.8876   27.6744 H   0  0  0  0  0  0  0  0  0  0  0  0
    7.2931    3.2235   27.3227 C   0  0  0  0  0  0  0  0  0  0  0  0
    7.0232    3.1170   28.3671 H   0  0  0  0  0  0  0  0  0  0  0  0
    6.7155    2.3692   26.3829 C   0  0  0  0  0  0  0  0  0  0  0  0
    6.0216    1.5964   26.7086 H   0  0  0  0  0  0  0  0  0  0  0  0
  1  2  1  0
  2  3  2  3
  3  4  1  0
  4  5  1  0
  5  6  1  0
  5  7  2  0
  7  8  1  0
  8  9  2  0
  9 10  1  0
  9 11  1  0
 11 12  2  0
 12 13  1  0
 12 14  1  0
 14 15  1  0
 14 16  2  0
 16 17  1  0
  7 18  1  0
 18 19  1  0
 19 20  1  0
 19 21  1  0
 21 22  2  0
 21 23  2  0
 21 24  1  0
 24 25  2  0
 25 26  1  0
 25 27  1  0
 27 28  1  0
 27 29  2  0
 29 30  1  0
 29 31  1  0
 31 32  1  0
 31 33  2  0
 33 34  1  0
 18  3  1  0
 33 24  1  0
 16  8  1  0
M  END
>  <cnnaffinity>  (1) 
-4.90978

>  <filename>  (1) 
N=c1scc(-c2cccnc2)n1NS(=O)(=O)c1ccccc1

$$$$
