
     RDKit          3D

 23 23  0  0  0  0  0  0  0  0999 V2000
    4.9378    1.7963   16.9863 H   0  0  0  0  0  0  0  0  0  0  0  0
    5.4032    1.2857   17.8308 C   0  0  0  0  0  0  0  0  0  0  0  0
    6.5546    0.6489   17.5792 N   0  0  0  0  0  0  0  0  0  0  0  0
    7.1709    0.0408   18.6063 C   0  0  0  0  0  0  0  0  0  0  0  0
    8.1171   -0.4206   18.3263 H   0  0  0  0  0  0  0  0  0  0  0  0
    6.6737    0.0089   19.9263 C   0  0  0  0  0  0  0  0  0  0  0  0
    7.3569   -0.6977   21.0995 C   0  0  2  0  0  0  0  0  0  0  0  0
    6.5990   -1.2225   21.7065 H   0  0  0  0  0  0  0  0  0  0  0  0
    7.9807    0.3087   22.1225 C   0  0  0  0  0  0  0  0  0  0  0  0
    7.6375    0.4312   23.2797 O   0  0  0  0  0  0  0  0  0  0  0  0
    9.0921    1.1215   21.5020 C   0  0  0  0  0  0  0  0  0  0  0  0
    9.4802    0.9367   20.3720 O   0  0  0  0  0  0  0  0  0  0  0  0
    9.6806    2.2014   22.4453 C   0  0  0  0  0  0  0  0  0  0  0  0
   10.2611    1.5709   23.4735 F   0  0  0  0  0  0  0  0  0  0  0  0
   10.5823    2.9709   21.8465 F   0  0  0  0  0  0  0  0  0  0  0  0
    8.7057    2.9816   22.9213 F   0  0  0  0  0  0  0  0  0  0  0  0
    8.3431   -1.6758   20.6418 N   0  0  0  0  0  0  0  0  0  0  0  0
    9.1067   -1.2313   20.1387 H   0  0  0  0  0  0  0  0  0  0  0  0
    7.8785   -2.2854   19.9704 H   0  0  0  0  0  0  0  0  0  0  0  0
    5.4557    0.6683   20.1537 C   0  0  0  0  0  0  0  0  0  0  0  0
    5.0244    0.6599   21.1557 H   0  0  0  0  0  0  0  0  0  0  0  0
    4.8116    1.3165   19.0975 C   0  0  0  0  0  0  0  0  0  0  0  0
    3.8766    1.8464   19.2364 H   0  0  0  0  0  0  0  0  0  0  0  0
  1  2  1  0
  2  3  2  0
  3  4  1  0
  4  5  1  0
  4  6  2  0
  6  7  1  0
  7  8  1  1
  7  9  1  0
  9 10  2  0
  9 11  1  0
 11 12  2  0
 11 13  1  0
 13 14  1  0
 13 15  1  0
 13 16  1  0
  7 17  1  0
 17 18  1  0
 17 19  1  0
  6 20  1  0
 20 21  1  0
 20 22  2  0
 22 23  1  0
 22  2  1  0
M  END
>  <cnnaffinity>  (1) 
-4.22135

>  <filename>  (1) 
N[C@@H](C(=O)C(=O)C(F)(F)F)c1cccnc1

$$$$
