
     RDKit          3D

 29 30  0  0  0  0  0  0  0  0999 V2000
    4.9993    1.8428   16.9247 H   0  0  0  0  0  0  0  0  0  0  0  0
    5.4173    1.2579   17.7430 C   0  0  0  0  0  0  0  0  0  0  0  0
    6.4515    0.4631   17.4311 N   0  0  0  0  0  0  0  0  0  0  0  0
    6.9810   -0.2603   18.4249 C   0  0  0  0  0  0  0  0  0  0  0  0
    7.8259   -0.8920   18.1451 H   0  0  0  0  0  0  0  0  0  0  0  0
    6.5470   -0.2313   19.7575 C   0  0  0  0  0  0  0  0  0  0  0  0
    7.2358   -1.1185   20.7742 C   0  0  2  0  0  0  0  0  0  0  0  0
    8.1147   -1.5724   20.2963 H   0  0  0  0  0  0  0  0  0  0  0  0
    6.3555   -2.2130   21.1908 N   0  0  0  0  0  0  0  0  0  0  0  0
    5.8607   -2.5361   20.3631 H   0  0  0  0  0  0  0  0  0  0  0  0
    5.6380   -1.8180   21.8002 H   0  0  0  0  0  0  0  0  0  0  0  0
    7.7661   -0.3996   22.0396 C   0  0  0  0  0  0  0  0  0  0  0  0
    8.2274   -1.1974   22.6352 H   0  0  0  0  0  0  0  0  0  0  0  0
    6.8789   -0.0808   22.6166 H   0  0  0  0  0  0  0  0  0  0  0  0
    8.7136    0.7531   21.8765 C   0  0  0  0  0  0  0  0  0  0  0  0
    8.2841    2.0930   22.0878 C   0  0  0  0  0  0  0  0  0  0  0  0
    7.2471    2.2980   22.3329 H   0  0  0  0  0  0  0  0  0  0  0  0
    9.3014    3.0806   21.9638 C   0  0  0  0  0  0  0  0  0  0  0  0
    9.3630    3.9075   22.6957 H   0  0  0  0  0  0  0  0  0  0  0  0
   10.8689    2.3800   21.3715 C   0  0  0  0  0  0  0  0  0  0  0  0
   11.0884    2.5227   20.2124 H   0  0  0  0  0  0  0  0  0  0  0  0
   10.7122    2.2882   21.6582 C   0  0  0  0  0  0  0  0  0  0  0  0
   11.8749    2.6515   22.0598 H   0  0  0  0  0  0  0  0  0  0  0  0
   10.1527    0.6138   21.6099 C   0  0  0  0  0  0  0  0  0  0  0  0
   10.9411   -0.2432   22.9481 Cl  0  0  0  0  0  0  0  0  0  0  0  0
    5.4475    0.5888   20.0560 C   0  0  0  0  0  0  0  0  0  0  0  0
    5.0383    0.6380   21.0681 H   0  0  0  0  0  0  0  0  0  0  0  0
    4.8766    1.3469   19.0299 C   0  0  0  0  0  0  0  0  0  0  0  0
    4.0293    2.0008   19.2106 H   0  0  0  0  0  0  0  0  0  0  0  0
  1  2  1  0
  2  3  2  0
  3  4  1  0
  4  5  1  0
  4  6  2  0
  6  7  1  0
  7  8  1  6
  7  9  1  0
  9 10  1  0
  9 11  1  0
  7 12  1  0
 12 13  1  0
 12 14  1  0
 12 15  1  0
 15 16  2  0
 16 17  1  0
 16 18  1  0
 18 19  1  0
 18 20  2  0
 20 21  1  0
 20 22  1  0
 22 23  1  0
 22 24  2  0
 24 25  1  0
  6 26  1  0
 26 27  1  0
 26 28  2  0
 28 29  1  0
 28  2  1  0
 24 15  1  0
M  END
>  <cnnaffinity>  (1) 
-5.06386

>  <filename>  (1) 
N[C@H](Cc1ccccc1Cl)c1cccnc1

$$$$
