
     RDKit          3D

 41 44  0  0  0  0  0  0  0  0999 V2000
    4.9382    1.8349   16.9509 H   0  0  0  0  0  0  0  0  0  0  0  0
    5.3840    1.3048   17.7908 C   0  0  0  0  0  0  0  0  0  0  0  0
    6.5330    0.6601   17.5335 N   0  0  0  0  0  0  0  0  0  0  0  0
    7.1283    0.0369   18.5542 C   0  0  0  0  0  0  0  0  0  0  0  0
    8.0580   -0.4836   18.3243 H   0  0  0  0  0  0  0  0  0  0  0  0
    6.6273    0.0475   19.8689 C   0  0  0  0  0  0  0  0  0  0  0  0
    7.3834   -0.5716   20.9556 C   0  0  0  0  0  0  0  0  0  0  0  0
    8.0990   -1.6784   20.7503 N   0  0  0  0  0  0  0  0  0  0  0  0
    8.6396   -1.9191   21.9395 N   0  0  0  0  0  0  0  0  0  0  0  0
    8.3578   -1.0349   22.8959 C   0  0  0  0  0  0  0  0  0  0  0  0
    7.5019   -0.1176   22.3185 C   0  0  0  0  0  0  0  0  0  0  0  0
    6.9423    1.0201   22.9332 N   0  0  0  0  0  0  0  0  0  0  0  0
    7.2955    1.9071   22.5615 H   0  0  0  0  0  0  0  0  0  0  0  0
    6.9203    1.0994   24.3318 C   0  0  0  0  0  0  0  0  0  0  0  0
    6.1705    0.1789   25.0692 C   0  0  0  0  0  0  0  0  0  0  0  0
    5.6828   -0.6243   24.5220 H   0  0  0  0  0  0  0  0  0  0  0  0
    6.0959    0.2752   26.4588 C   0  0  0  0  0  0  0  0  0  0  0  0
    5.4902   -0.4337   27.0164 H   0  0  0  0  0  0  0  0  0  0  0  0
    6.7914    1.2955   27.1217 C   0  0  0  0  0  0  0  0  0  0  0  0
    6.7153    1.3849   28.2019 H   0  0  0  0  0  0  0  0  0  0  0  0
    7.5774    2.1903   26.3967 C   0  0  0  0  0  0  0  0  0  0  0  0
    8.1188    2.9715   26.9301 H   0  0  0  0  0  0  0  0  0  0  0  0
    7.6611    2.1020   24.9917 C   0  0  0  0  0  0  0  0  0  0  0  0
    8.5169    3.0177   24.1838 C   0  0  0  0  0  0  0  0  0  0  0  0
    8.2983    3.3414   23.0239 O   0  0  0  0  0  0  0  0  0  0  0  0
    9.6082    3.5439   24.8129 N   0  0  0  0  0  0  0  0  0  0  0  0
   10.0413    2.9675   25.5136 H   0  0  0  0  0  0  0  0  0  0  0  0
   10.2149    3.9844   24.1390 H   0  0  0  0  0  0  0  0  0  0  0  0
    9.1762   -1.3005   24.1261 C   0  0  0  0  0  0  0  0  0  0  0  0
    9.7578   -0.4168   24.4008 H   0  0  0  0  0  0  0  0  0  0  0  0
    8.5356   -1.5479   24.9745 H   0  0  0  0  0  0  0  0  0  0  0  0
   10.0854   -2.4799   23.6821 C   0  0  0  0  0  0  0  0  0  0  0  0
   11.1025   -2.1315   23.5662 H   0  0  0  0  0  0  0  0  0  0  0  0
   10.0835   -3.3096   24.3890 H   0  0  0  0  0  0  0  0  0  0  0  0
    9.6210   -2.9116   22.2677 C   0  0  0  0  0  0  0  0  0  0  0  0
   10.4257   -2.8403   21.5346 H   0  0  0  0  0  0  0  0  0  0  0  0
    9.1657   -3.9022   22.2358 H   0  0  0  0  0  0  0  0  0  0  0  0
    5.4063    0.6895   20.1139 C   0  0  0  0  0  0  0  0  0  0  0  0
    4.9845    0.6886   21.1222 H   0  0  0  0  0  0  0  0  0  0  0  0
    4.7750    1.3258   19.0495 C   0  0  0  0  0  0  0  0  0  0  0  0
    3.8445    1.8602   19.1836 H   0  0  0  0  0  0  0  0  0  0  0  0
  1  2  1  0
  2  3  2  0
  3  4  1  0
  4  5  1  0
  4  6  2  0
  6  7  1  0
  7  8  2  0
  8  9  1  0
  9 10  1  0
 10 11  2  0
 11 12  1  0
 12 13  1  0
 12 14  1  0
 14 15  2  0
 15 16  1  0
 15 17  1  0
 17 18  1  0
 17 19  2  0
 19 20  1  0
 19 21  1  0
 21 22  1  0
 21 23  2  0
 23 24  1  0
 24 25  2  0
 24 26  1  0
 26 27  1  0
 26 28  1  0
 10 29  1  0
 29 30  1  0
 29 31  1  0
 29 32  1  0
 32 33  1  0
 32 34  1  0
 32 35  1  0
 35 36  1  0
 35 37  1  0
  6 38  1  0
 38 39  1  0
 38 40  2  0
 40 41  1  0
 40  2  1  0
 11  7  1  0
 23 14  1  0
 35  9  1  0
M  END
>  <cnnaffinity>  (1) 
-5.68906

>  <filename>  (1) 
NC(=O)c1ccccc1Nc1c(-c2cccnc2)nn2c1CCC2

$$$$
