
     RDKit          3D

 24 25  0  0  0  0  0  0  0  0999 V2000
    4.9645    1.8153   16.9938 H   0  0  0  0  0  0  0  0  0  0  0  0
    5.4700    1.3150   17.8160 C   0  0  0  0  0  0  0  0  0  0  0  0
    6.6360    0.7194   17.5182 N   0  0  0  0  0  0  0  0  0  0  0  0
    7.2732    0.0839   18.5107 C   0  0  0  0  0  0  0  0  0  0  0  0
    8.2116   -0.4031   18.2552 H   0  0  0  0  0  0  0  0  0  0  0  0
    6.7775   -0.0022   19.8330 C   0  0  0  0  0  0  0  0  0  0  0  0
    7.4465   -0.7325   20.8740 N   0  0  0  0  0  0  0  0  0  0  0  0
    8.7426   -0.6419   21.3569 C   0  0  0  0  0  0  0  0  0  0  0  0
    9.6360    0.2212   20.7704 N   0  0  0  0  0  0  0  0  0  0  0  0
    9.2494    1.1378   20.6420 H   0  0  0  0  0  0  0  0  0  0  0  0
   10.9269    0.2939   21.2934 C   0  0  0  0  0  0  0  0  0  0  0  0
   11.5489   -0.5694   21.8431 O   0  0  0  0  0  0  0  0  0  0  0  0
   11.4143    1.5656   21.0667 N   0  0  0  0  0  0  0  0  0  0  0  0
   12.4003    1.5532   21.2837 H   0  0  0  0  0  0  0  0  0  0  0  0
   11.2341    1.8943   20.1313 H   0  0  0  0  0  0  0  0  0  0  0  0
    8.9844   -1.3903   22.3762 N   0  0  0  0  0  0  0  0  0  0  0  0
    7.7771   -2.0248   22.5606 N   0  0  0  0  0  0  0  0  0  0  0  0
    7.6550   -2.7695   23.2163 H   0  0  0  0  0  0  0  0  0  0  0  0
    6.8156   -1.7200   21.6619 C   0  0  0  0  0  0  0  0  0  0  0  0
    5.7102   -2.2142   21.5543 O   0  0  0  0  0  0  0  0  0  0  0  0
    5.5588    0.6204   20.1253 C   0  0  0  0  0  0  0  0  0  0  0  0
    5.1522    0.5604   21.1382 H   0  0  0  0  0  0  0  0  0  0  0  0
    4.8976    1.2955   19.0945 C   0  0  0  0  0  0  0  0  0  0  0  0
    3.9512    1.7958   19.2728 H   0  0  0  0  0  0  0  0  0  0  0  0
  1  2  1  0
  2  3  2  0
  3  4  1  0
  4  5  1  0
  4  6  2  0
  6  7  1  0
  7  8  1  0
  8  9  1  0
  9 10  1  0
  9 11  1  0
 11 12  2  0
 11 13  1  0
 13 14  1  0
 13 15  1  0
  8 16  2  0
 16 17  1  0
 17 18  1  0
 17 19  1  0
 19 20  2  0
  6 21  1  0
 21 22  1  0
 21 23  2  0
 23 24  1  0
 23  2  1  0
 19  7  1  0
M  END
>  <cnnaffinity>  (1) 
-4.55395

>  <filename>  (1) 
NC(=O)Nc1n[nH]c(=O)n1-c1cccnc1

$$$$
