
     RDKit          3D

 25 26  0  0  0  0  0  0  0  0999 V2000
    4.9532    1.7952   17.0110 H   0  0  0  0  0  0  0  0  0  0  0  0
    5.4123    1.2740   17.8508 C   0  0  0  0  0  0  0  0  0  0  0  0
    6.5662    0.6331   17.5976 N   0  0  0  0  0  0  0  0  0  0  0  0
    7.1843    0.0113   18.6111 C   0  0  0  0  0  0  0  0  0  0  0  0
    8.1334   -0.4735   18.3802 H   0  0  0  0  0  0  0  0  0  0  0  0
    6.6627   -0.0305   19.9202 C   0  0  0  0  0  0  0  0  0  0  0  0
    7.3198   -0.7154   20.9855 N   0  0  0  0  0  0  0  0  0  0  0  0
    6.6838   -1.6287   21.8495 C   0  0  0  0  0  0  0  0  0  0  0  0
    5.6457   -1.8958   21.7733 H   0  0  0  0  0  0  0  0  0  0  0  0
    7.6190   -2.0455   22.7153 C   0  0  0  0  0  0  0  0  0  0  0  0
    7.5529   -2.8682   23.8247 N   0  0  0  0  0  0  0  0  0  0  0  0
    6.6490   -3.1406   24.1511 H   0  0  0  0  0  0  0  0  0  0  0  0
    8.6200   -3.5402   24.3685 C   0  0  0  0  0  0  0  0  0  0  0  0
    9.7784   -3.4484   24.0215 O   0  0  0  0  0  0  0  0  0  0  0  0
    8.1881   -4.3782   25.3633 N   0  0  0  0  0  0  0  0  0  0  0  0
    7.3886   -4.0592   25.8851 H   0  0  0  0  0  0  0  0  0  0  0  0
    8.9623   -4.6964   25.9264 H   0  0  0  0  0  0  0  0  0  0  0  0
    8.7943   -1.4364   22.4016 N   0  0  0  0  0  0  0  0  0  0  0  0
    9.6753   -1.6460   22.8408 H   0  0  0  0  0  0  0  0  0  0  0  0
    8.6365   -0.5424   21.3875 C   0  0  0  0  0  0  0  0  0  0  0  0
    9.8058    0.5088   20.8701 S   0  0  0  0  0  0  0  0  0  0  0  0
    5.4557    0.6291   20.1690 C   0  0  0  0  0  0  0  0  0  0  0  0
    5.0500    0.6342   21.1818 H   0  0  0  0  0  0  0  0  0  0  0  0
    4.8201    1.2947   19.1172 C   0  0  0  0  0  0  0  0  0  0  0  0
    3.8946    1.8400   19.2680 H   0  0  0  0  0  0  0  0  0  0  0  0
  1  2  1  0
  2  3  2  0
  3  4  1  0
  4  5  1  0
  4  6  2  0
  6  7  1  0
  7  8  1  0
  8  9  1  0
  8 10  2  0
 10 11  1  0
 11 12  1  0
 11 13  1  0
 13 14  2  0
 13 15  1  0
 15 16  1  0
 15 17  1  0
 10 18  1  0
 18 19  1  0
 18 20  1  0
 20 21  2  0
  6 22  1  0
 22 23  1  0
 22 24  2  0
 24 25  1  0
 24  2  1  0
 20  7  1  0
M  END
>  <cnnaffinity>  (1) 
-4.6315

>  <filename>  (1) 
NC(=O)Nc1cn(-c2cccnc2)c(=S)[nH]1

$$$$
