
     RDKit          3D

 35 37  0  0  0  0  0  0  0  0999 V2000
    4.9668    1.8098   17.0032 H   0  0  0  0  0  0  0  0  0  0  0  0
    5.4350    1.3015   17.8425 C   0  0  0  0  0  0  0  0  0  0  0  0
    6.5740    0.6397   17.5759 N   0  0  0  0  0  0  0  0  0  0  0  0
    7.1848    0.0080   18.5852 C   0  0  0  0  0  0  0  0  0  0  0  0
    8.1098   -0.5231   18.3633 H   0  0  0  0  0  0  0  0  0  0  0  0
    6.6933    0.0141   19.9031 C   0  0  0  0  0  0  0  0  0  0  0  0
    7.4205   -0.6829   20.8358 O   0  0  0  0  0  0  0  0  0  0  0  0
    7.3234   -0.3395   22.1644 C   0  0  0  0  0  0  0  0  0  0  0  0
    7.1480   -1.2813   23.1957 C   0  0  0  0  0  0  0  0  0  0  0  0
    7.0625   -2.3546   23.0890 H   0  0  0  0  0  0  0  0  0  0  0  0
    7.0975   -0.7022   24.3895 N   0  0  0  0  0  0  0  0  0  0  0  0
    7.2681    0.6024   24.1217 N   0  0  0  0  0  0  0  0  0  0  0  0
    7.1492    1.2990   24.8344 H   0  0  0  0  0  0  0  0  0  0  0  0
    7.4078    0.8927   22.7962 C   0  0  0  0  0  0  0  0  0  0  0  0
    7.5000    2.1936   22.3059 N   0  0  0  0  0  0  0  0  0  0  0  0
    6.7715    2.4395   21.6354 H   0  0  0  0  0  0  0  0  0  0  0  0
    7.8308    3.3223   23.0461 C   0  0  0  0  0  0  0  0  0  0  0  0
    8.8759    3.2957   23.9762 C   0  0  0  0  0  0  0  0  0  0  0  0
    9.4045    2.3566   24.1141 H   0  0  0  0  0  0  0  0  0  0  0  0
    9.2317    4.4474   24.6766 C   0  0  0  0  0  0  0  0  0  0  0  0
   10.0539    4.4274   25.3861 H   0  0  0  0  0  0  0  0  0  0  0  0
    8.5387    5.6440   24.4561 C   0  0  0  0  0  0  0  0  0  0  0  0
    8.8242    6.5523   24.9770 H   0  0  0  0  0  0  0  0  0  0  0  0
    7.4978    5.6764   23.5314 C   0  0  0  0  0  0  0  0  0  0  0  0
    6.9508    6.6036   23.3650 H   0  0  0  0  0  0  0  0  0  0  0  0
    7.1331    4.5240   22.8055 C   0  0  0  0  0  0  0  0  0  0  0  0
    6.0047    4.5388   21.8504 C   0  0  0  0  0  0  0  0  0  0  0  0
    5.3781    3.5546   21.4701 O   0  0  0  0  0  0  0  0  0  0  0  0
    5.6185    5.7635   21.3702 N   0  0  0  0  0  0  0  0  0  0  0  0
    4.9789    5.5562   20.6137 H   0  0  0  0  0  0  0  0  0  0  0  0
    6.4017    6.3428   21.1036 H   0  0  0  0  0  0  0  0  0  0  0  0
    5.4955    0.6769   20.1726 C   0  0  0  0  0  0  0  0  0  0  0  0
    5.1195    0.7198   21.1971 H   0  0  0  0  0  0  0  0  0  0  0  0
    4.8607    1.3446   19.1170 C   0  0  0  0  0  0  0  0  0  0  0  0
    3.9565    1.9175   19.2890 H   0  0  0  0  0  0  0  0  0  0  0  0
  1  2  1  0
  2  3  2  0
  3  4  1  0
  4  5  1  0
  4  6  2  0
  6  7  1  0
  7  8  1  0
  8  9  1  0
  9 10  1  0
  9 11  2  0
 11 12  1  0
 12 13  1  0
 12 14  1  0
 14 15  1  0
 15 16  1  0
 15 17  1  0
 17 18  2  0
 18 19  1  0
 18 20  1  0
 20 21  1  0
 20 22  2  0
 22 23  1  0
 22 24  1  0
 24 25  1  0
 24 26  2  0
 26 27  1  0
 27 28  2  0
 27 29  1  0
 29 30  1  0
 29 31  1  0
  6 32  1  0
 32 33  1  0
 32 34  2  0
 34 35  1  0
 34  2  1  0
 14  8  2  0
 26 17  1  0
M  END
>  <cnnaffinity>  (1) 
-5.11113

>  <filename>  (1) 
NC(=O)c1ccccc1Nc1[nH]ncc1Oc1cccnc1

$$$$
