
     RDKit          3D

 34 36  0  0  0  0  0  0  0  0999 V2000
    4.9537    1.8220   16.9957 H   0  0  0  0  0  0  0  0  0  0  0  0
    5.4087    1.3012   17.8351 C   0  0  0  0  0  0  0  0  0  0  0  0
    6.5587    0.6634   17.5727 N   0  0  0  0  0  0  0  0  0  0  0  0
    7.1482    0.0237   18.5822 C   0  0  0  0  0  0  0  0  0  0  0  0
    8.0751   -0.4893   18.3312 H   0  0  0  0  0  0  0  0  0  0  0  0
    6.6430   -0.0200   19.8879 C   0  0  0  0  0  0  0  0  0  0  0  0
    7.3985   -0.7308   20.9162 C   0  0  0  0  0  0  0  0  0  0  0  0
    6.8928   -0.9479   22.1211 N   0  0  0  0  0  0  0  0  0  0  0  0
    7.8296   -1.6325   22.7667 N   0  0  0  0  0  0  0  0  0  0  0  0
    7.5811   -1.8729   24.0948 N   0  0  0  0  0  0  0  0  0  0  0  0
    7.6570   -0.9788   24.5866 H   0  0  0  0  0  0  0  0  0  0  0  0
    8.2229   -2.9124   24.7701 C   0  0  0  0  0  0  0  0  0  0  0  0
    8.2609   -4.1972   24.2130 C   0  0  0  0  0  0  0  0  0  0  0  0
    7.7775   -4.3251   23.2505 H   0  0  0  0  0  0  0  0  0  0  0  0
    8.9338   -5.2283   24.8686 C   0  0  0  0  0  0  0  0  0  0  0  0
    8.9732   -6.2230   24.4274 H   0  0  0  0  0  0  0  0  0  0  0  0
    9.5677   -4.9680   26.0901 C   0  0  0  0  0  0  0  0  0  0  0  0
   10.1345   -5.7509   26.5868 H   0  0  0  0  0  0  0  0  0  0  0  0
    9.4974   -3.6967   26.6607 C   0  0  0  0  0  0  0  0  0  0  0  0
    9.9931   -3.5573   27.6126 H   0  0  0  0  0  0  0  0  0  0  0  0
    8.8216   -2.6339   26.0211 C   0  0  0  0  0  0  0  0  0  0  0  0
    8.7907   -1.2279   26.5438 C   0  0  0  0  0  0  0  0  0  0  0  0
    8.4578   -0.2352   25.8936 O   0  0  0  0  0  0  0  0  0  0  0  0
    9.2231   -0.9878   27.8170 N   0  0  0  0  0  0  0  0  0  0  0  0
    8.9344   -1.6329   28.5262 H   0  0  0  0  0  0  0  0  0  0  0  0
    9.0609   -0.0106   28.0189 H   0  0  0  0  0  0  0  0  0  0  0  0
    8.9628   -1.8116   22.0449 C   0  0  0  0  0  0  0  0  0  0  0  0
    9.8131   -2.2989   22.5096 H   0  0  0  0  0  0  0  0  0  0  0  0
    8.7072   -1.2571   20.8163 C   0  0  0  0  0  0  0  0  0  0  0  0
    9.3621   -1.2106   19.9654 H   0  0  0  0  0  0  0  0  0  0  0  0
    5.4264    0.6334   20.1477 C   0  0  0  0  0  0  0  0  0  0  0  0
    5.0003    0.6074   21.1524 H   0  0  0  0  0  0  0  0  0  0  0  0
    4.8077    1.3079   19.0984 C   0  0  0  0  0  0  0  0  0  0  0  0
    3.8797    1.8453   19.2423 H   0  0  0  0  0  0  0  0  0  0  0  0
  1  2  1  0
  2  3  2  0
  3  4  1  0
  4  5  1  0
  4  6  2  0
  6  7  1  0
  7  8  2  0
  8  9  1  0
  9 10  1  0
 10 11  1  0
 10 12  1  0
 12 13  2  0
 13 14  1  0
 13 15  1  0
 15 16  1  0
 15 17  2  0
 17 18  1  0
 17 19  1  0
 19 20  1  0
 19 21  2  0
 21 22  1  0
 22 23  2  0
 22 24  1  0
 24 25  1  0
 24 26  1  0
  9 27  1  0
 27 28  1  0
 27 29  2  0
 29 30  1  0
  6 31  1  0
 31 32  1  0
 31 33  2  0
 33 34  1  0
 33  2  1  0
 29  7  1  0
 21 12  1  0
M  END
>  <cnnaffinity>  (1) 
-4.80076

>  <filename>  (1) 
NC(=O)c1ccccc1Nn1ccc(-c2cccnc2)n1

$$$$
