
     RDKit          3D

 36 38  0  0  0  0  0  0  0  0999 V2000
    5.0255    1.8581   16.9509 H   0  0  0  0  0  0  0  0  0  0  0  0
    5.4283    1.3044   17.7969 C   0  0  0  0  0  0  0  0  0  0  0  0
    6.5328    0.5794   17.5560 N   0  0  0  0  0  0  0  0  0  0  0  0
    7.0632   -0.1003   18.5788 C   0  0  0  0  0  0  0  0  0  0  0  0
    7.9614   -0.6791   18.3667 H   0  0  0  0  0  0  0  0  0  0  0  0
    6.5333   -0.0927   19.8873 C   0  0  0  0  0  0  0  0  0  0  0  0
    7.1765   -0.7822   20.9638 N   0  0  0  0  0  0  0  0  0  0  0  0
    6.6414   -1.7300   21.7981 C   0  0  0  0  0  0  0  0  0  0  0  0
    5.6123   -2.0554   21.7257 H   0  0  0  0  0  0  0  0  0  0  0  0
    7.5386   -2.1877   22.6257 N   0  0  0  0  0  0  0  0  0  0  0  0
    8.7146   -1.5278   22.3601 N   0  0  0  0  0  0  0  0  0  0  0  0
    8.4880   -0.6760   21.3978 C   0  0  0  0  0  0  0  0  0  0  0  0
    9.4643    0.2516   20.6969 C   0  0  0  0  0  0  0  0  0  0  0  0
    9.8113   -0.3009   19.8068 H   0  0  0  0  0  0  0  0  0  0  0  0
    8.8830    1.0888   20.2950 H   0  0  0  0  0  0  0  0  0  0  0  0
   10.5673    0.8159   21.4447 N   0  0  0  0  0  0  0  0  0  0  0  0
   10.6268    1.8244   21.6296 H   0  0  0  0  0  0  0  0  0  0  0  0
   11.7394    0.1896   21.7351 C   0  0  0  0  0  0  0  0  0  0  0  0
   11.9841   -1.1402   21.3458 C   0  0  0  0  0  0  0  0  0  0  0  0
   11.1722   -1.7190   20.9191 H   0  0  0  0  0  0  0  0  0  0  0  0
   13.2406   -1.7097   21.5308 C   0  0  0  0  0  0  0  0  0  0  0  0
   13.4941   -2.6561   21.0750 H   0  0  0  0  0  0  0  0  0  0  0  0
   14.2183   -1.0362   22.2669 C   0  0  0  0  0  0  0  0  0  0  0  0
   15.1488   -1.5391   22.4945 H   0  0  0  0  0  0  0  0  0  0  0  0
   13.9732    0.2538   22.7167 C   0  0  0  0  0  0  0  0  0  0  0  0
   14.7648    0.7822   23.2447 H   0  0  0  0  0  0  0  0  0  0  0  0
   12.7626    0.9109   22.4218 C   0  0  0  0  0  0  0  0  0  0  0  0
   12.5503    2.3371   22.7219 C   0  0  0  0  0  0  0  0  0  0  0  0
   11.6219    3.0337   22.3058 O   0  0  0  0  0  0  0  0  0  0  0  0
   13.4526    2.9842   23.5156 N   0  0  0  0  0  0  0  0  0  0  0  0
   13.8365    2.4624   24.2855 H   0  0  0  0  0  0  0  0  0  0  0  0
   13.0078    3.8528   23.7644 H   0  0  0  0  0  0  0  0  0  0  0  0
    5.3640    0.6373   20.1177 C   0  0  0  0  0  0  0  0  0  0  0  0
    4.9234    0.6532   21.1157 H   0  0  0  0  0  0  0  0  0  0  0  0
    4.8113    1.3572   19.0520 C   0  0  0  0  0  0  0  0  0  0  0  0
    3.9229    1.9643   19.1853 H   0  0  0  0  0  0  0  0  0  0  0  0
  1  2  1  0
  2  3  2  0
  3  4  1  0
  4  5  1  0
  4  6  2  0
  6  7  1  0
  7  8  1  0
  8  9  1  0
  8 10  2  0
 10 11  1  0
 11 12  2  0
 12 13  1  0
 13 14  1  0
 13 15  1  0
 13 16  1  0
 16 17  1  0
 16 18  1  0
 18 19  2  0
 19 20  1  0
 19 21  1  0
 21 22  1  0
 21 23  2  0
 23 24  1  0
 23 25  1  0
 25 26  1  0
 25 27  2  0
 27 28  1  0
 28 29  2  0
 28 30  1  0
 30 31  1  0
 30 32  1  0
  6 33  1  0
 33 34  1  0
 33 35  2  0
 35 36  1  0
 35  2  1  0
 12  7  1  0
 27 18  1  0
M  END
>  <cnnaffinity>  (1) 
-6.00621

>  <filename>  (1) 
NC(=O)c1ccccc1NCc1nncn1-c1cccnc1

$$$$
