
     RDKit          3D

 26 27  0  0  0  0  0  0  0  0999 V2000
    5.0063    1.7620   16.9943 H   0  0  0  0  0  0  0  0  0  0  0  0
    5.4676    1.2833   17.8529 C   0  0  0  0  0  0  0  0  0  0  0  0
    6.6304    0.6563   17.6187 N   0  0  0  0  0  0  0  0  0  0  0  0
    7.2141    0.0440   18.6519 C   0  0  0  0  0  0  0  0  0  0  0  0
    8.1504   -0.4691   18.4380 H   0  0  0  0  0  0  0  0  0  0  0  0
    6.6678    0.0073   19.9357 C   0  0  0  0  0  0  0  0  0  0  0  0
    7.3383   -0.8002   20.9629 C   0  0  0  0  0  0  0  0  0  0  0  0
    6.6741   -1.2862   21.9218 N   0  0  0  0  0  0  0  0  0  0  0  0
    7.2291   -1.9018   23.0458 C   0  0  0  0  0  0  0  0  0  0  0  0
    6.6184   -3.0908   23.4685 C   0  0  0  0  0  0  0  0  0  0  0  0
    5.8085   -3.4567   22.8477 H   0  0  0  0  0  0  0  0  0  0  0  0
    7.0180   -3.7190   24.6506 C   0  0  0  0  0  0  0  0  0  0  0  0
    6.5548   -4.6311   25.0124 H   0  0  0  0  0  0  0  0  0  0  0  0
    8.0226   -3.1413   25.4252 C   0  0  0  0  0  0  0  0  0  0  0  0
    8.4147   -3.7287   26.5646 F   0  0  0  0  0  0  0  0  0  0  0  0
    8.6091   -1.9379   25.0242 C   0  0  0  0  0  0  0  0  0  0  0  0
    9.5289   -1.3623   25.8062 F   0  0  0  0  0  0  0  0  0  0  0  0
    8.2368   -1.3236   23.8326 C   0  0  0  0  0  0  0  0  0  0  0  0
    8.6575   -0.3625   23.5698 H   0  0  0  0  0  0  0  0  0  0  0  0
    8.6776   -1.0058   20.7375 N   0  0  0  0  0  0  0  0  0  0  0  0
    9.1173   -1.3818   21.5621 H   0  0  0  0  0  0  0  0  0  0  0  0
    9.1318   -0.1809   20.3884 H   0  0  0  0  0  0  0  0  0  0  0  0
    5.4482    0.6662   20.1736 C   0  0  0  0  0  0  0  0  0  0  0  0
    5.0009    0.6347   21.1712 H   0  0  0  0  0  0  0  0  0  0  0  0
    4.8405    1.3182   19.1078 C   0  0  0  0  0  0  0  0  0  0  0  0
    3.8920    1.8344   19.2274 H   0  0  0  0  0  0  0  0  0  0  0  0
  1  2  1  0
  2  3  2  0
  3  4  1  0
  4  5  1  0
  4  6  2  0
  6  7  1  0
  7  8  2  3
  8  9  1  0
  9 10  2  0
 10 11  1  0
 10 12  1  0
 12 13  1  0
 12 14  2  0
 14 15  1  0
 14 16  1  0
 16 17  1  0
 16 18  2  0
 18 19  1  0
  7 20  1  0
 20 21  1  0
 20 22  1  0
  6 23  1  0
 23 24  1  0
 23 25  2  0
 25 26  1  0
 25  2  1  0
 18  9  1  0
M  END
>  <cnnaffinity>  (1) 
-4.99289

>  <filename>  (1) 
NC(=Nc1ccc(F)c(F)c1)c1cccnc1

$$$$
