
     RDKit          3D

 30 32  0  0  0  0  0  0  0  0999 V2000
    4.9188    1.8029   16.9688 H   0  0  0  0  0  0  0  0  0  0  0  0
    5.3932    1.3040   17.8164 C   0  0  0  0  0  0  0  0  0  0  0  0
    6.5580    0.6842   17.5667 N   0  0  0  0  0  0  0  0  0  0  0  0
    7.1714    0.0678   18.5858 C   0  0  0  0  0  0  0  0  0  0  0  0
    8.1065   -0.4225   18.3254 H   0  0  0  0  0  0  0  0  0  0  0  0
    6.6673    0.0112   19.8987 C   0  0  0  0  0  0  0  0  0  0  0  0
    7.3355   -0.7090   20.9907 C   0  0  0  0  0  0  0  0  0  0  0  0
    6.8227   -1.2310   22.1216 C   0  0  0  0  0  0  0  0  0  0  0  0
    5.8061   -1.3119   22.4239 H   0  0  0  0  0  0  0  0  0  0  0  0
    7.8446   -1.7848   22.8833 N   0  0  0  0  0  0  0  0  0  0  0  0
    7.6320   -2.4604   24.1355 C   0  0  0  0  0  0  0  0  0  0  0  0
    6.8179   -1.9278   25.1557 C   0  0  0  0  0  0  0  0  0  0  0  0
    6.3083   -0.9699   25.0134 H   0  0  0  0  0  0  0  0  0  0  0  0
    6.6331   -2.5136   26.3491 N   0  0  0  0  0  0  0  0  0  0  0  0
    7.2537   -3.6746   26.5456 C   0  0  0  0  0  0  0  0  0  0  0  0
    7.0356   -4.2411   27.7375 N   0  0  0  0  0  0  0  0  0  0  0  0
    7.4946   -5.0970   27.9620 H   0  0  0  0  0  0  0  0  0  0  0  0
    6.4427   -3.7070   28.3430 H   0  0  0  0  0  0  0  0  0  0  0  0
    8.0750   -4.3088   25.6001 C   0  0  0  0  0  0  0  0  0  0  0  0
    8.5384   -5.2453   25.8780 H   0  0  0  0  0  0  0  0  0  0  0  0
    8.2670   -3.6946   24.3742 C   0  0  0  0  0  0  0  0  0  0  0  0
    8.9072   -4.1314   23.6078 H   0  0  0  0  0  0  0  0  0  0  0  0
    9.0426   -1.6080   22.2042 C   0  0  0  0  0  0  0  0  0  0  0  0
   10.6171   -1.9795   22.5841 S   0  0  0  0  0  0  0  0  0  0  0  0
    8.6907   -0.9792   21.0520 N   0  0  0  0  0  0  0  0  0  0  0  0
    9.4267   -0.6750   20.4387 H   0  0  0  0  0  0  0  0  0  0  0  0
    5.4424    0.6636   20.1324 C   0  0  0  0  0  0  0  0  0  0  0  0
    5.0087    0.6615   21.1326 H   0  0  0  0  0  0  0  0  0  0  0  0
    4.7993    1.3210   19.0827 C   0  0  0  0  0  0  0  0  0  0  0  0
    3.8648    1.8516   19.2296 H   0  0  0  0  0  0  0  0  0  0  0  0
  1  2  1  0
  2  3  2  0
  3  4  1  0
  4  5  1  0
  4  6  2  0
  6  7  1  0
  7  8  2  0
  8  9  1  0
  8 10  1  0
 10 11  1  0
 11 12  2  0
 12 13  1  0
 12 14  1  0
 14 15  2  0
 15 16  1  0
 16 17  1  0
 16 18  1  0
 15 19  1  0
 19 20  1  0
 19 21  2  0
 21 22  1  0
 10 23  1  0
 23 24  2  0
 23 25  1  0
 25 26  1  0
  6 27  1  0
 27 28  1  0
 27 29  2  0
 29 30  1  0
 29  2  1  0
 25  7  1  0
 21 11  1  0
M  END
>  <cnnaffinity>  (1) 
-5.38506

>  <filename>  (1) 
Nc1ccc(-n2cc(-c3cccnc3)[nH]c2=S)cn1

$$$$
