
     RDKit          3D

 27 28  0  0  0  0  0  0  0  0999 V2000
   11.3075   -3.2329   22.2345 H   0  0  0  0  0  0  0  0  0  0  0  0
   11.5599   -2.1849   22.0964 C   0  0  0  0  0  0  0  0  0  0  0  0
   12.8467   -1.8424   22.2531 N   0  0  0  0  0  0  0  0  0  0  0  0
   13.1380   -0.5406   22.2114 C   0  0  0  0  0  0  0  0  0  0  0  0
   14.5127   -0.3337   22.3910 N   0  0  0  0  0  0  0  0  0  0  0  0
   14.7136   -0.0327   23.3379 H   0  0  0  0  0  0  0  0  0  0  0  0
   14.8256   -1.3013   22.3064 H   0  0  0  0  0  0  0  0  0  0  0  0
   12.1237    0.4428   21.9774 C   0  0  0  0  0  0  0  0  0  0  0  0
   12.3848    1.5003   21.9982 H   0  0  0  0  0  0  0  0  0  0  0  0
   10.8598    0.0902   21.7289 N   0  0  0  0  0  0  0  0  0  0  0  0
   10.5567   -1.2471   21.8193 C   0  0  0  0  0  0  0  0  0  0  0  0
    9.1408   -1.7264   21.6090 C   0  0  0  0  0  0  0  0  0  0  0  0
    8.6487   -3.2507   21.9551 S   0  0  0  0  0  0  0  0  0  0  0  0
    8.3284   -0.7828   21.0403 N   0  0  0  0  0  0  0  0  0  0  0  0
    8.8063    0.0609   20.7498 H   0  0  0  0  0  0  0  0  0  0  0  0
    6.9328   -0.7426   20.9961 C   0  0  0  0  0  0  0  0  0  0  0  0
    6.2132   -1.2983   21.7894 O   0  0  0  0  0  0  0  0  0  0  0  0
    6.4159    0.0873   19.8739 C   0  0  0  0  0  0  0  0  0  0  0  0
    7.0782    0.0424   18.6437 C   0  0  0  0  0  0  0  0  0  0  0  0
    7.9793   -0.5585   18.5114 H   0  0  0  0  0  0  0  0  0  0  0  0
    6.6505    0.6779   17.5511 N   0  0  0  0  0  0  0  0  0  0  0  0
    5.5319    1.4089   17.6547 C   0  0  0  0  0  0  0  0  0  0  0  0
    5.2045    1.9126   16.7463 H   0  0  0  0  0  0  0  0  0  0  0  0
    4.7946    1.5162   18.8369 C   0  0  0  0  0  0  0  0  0  0  0  0
    3.8991    2.1259   18.8468 H   0  0  0  0  0  0  0  0  0  0  0  0
    5.2286    0.8333   19.9697 C   0  0  0  0  0  0  0  0  0  0  0  0
    4.6568    0.8740   20.8995 H   0  0  0  0  0  0  0  0  0  0  0  0
  1  2  1  0
  2  3  2  0
  3  4  1  0
  4  5  1  0
  5  6  1  0
  5  7  1  0
  4  8  2  0
  8  9  1  0
  8 10  1  0
 10 11  2  0
 11 12  1  0
 12 13  2  0
 12 14  1  0
 14 15  1  0
 14 16  1  0
 16 17  2  0
 16 18  1  0
 18 19  2  0
 19 20  1  0
 19 21  1  0
 21 22  2  0
 22 23  1  0
 22 24  1  0
 24 25  1  0
 24 26  2  0
 26 27  1  0
 11  2  1  0
 26 18  1  0
M  END
>  <cnnaffinity>  (1) 
-5.55161

>  <filename>  (1) 
Nc1cnc(C(=S)NC(=O)c2cccnc2)cn1

$$$$
