
     RDKit          3D

 28 30  0  0  0  0  0  0  0  0999 V2000
    7.2161    4.0971   21.8945 H   0  0  0  0  0  0  0  0  0  0  0  0
    7.1133    3.2243   22.5360 C   0  0  0  0  0  0  0  0  0  0  0  0
    7.4298    2.0200   22.0405 N   0  0  0  0  0  0  0  0  0  0  0  0
    7.2300    0.9683   22.8546 C   0  0  0  0  0  0  0  0  0  0  0  0
    7.5154   -0.2684   22.2711 N   0  0  0  0  0  0  0  0  0  0  0  0
    7.3809   -0.6635   20.9374 C   0  0  0  0  0  0  0  0  0  0  0  0
    6.6283    0.0490   19.9031 C   0  0  0  0  0  0  0  0  0  0  0  0
    7.1492    0.0629   18.6004 C   0  0  0  0  0  0  0  0  0  0  0  0
    8.0888   -0.4403   18.3739 H   0  0  0  0  0  0  0  0  0  0  0  0
    6.5550    0.6755   17.5728 N   0  0  0  0  0  0  0  0  0  0  0  0
    5.3920    1.3026   17.8099 C   0  0  0  0  0  0  0  0  0  0  0  0
    4.9437    1.8160   16.9629 H   0  0  0  0  0  0  0  0  0  0  0  0
    4.7645    1.3130   19.0592 C   0  0  0  0  0  0  0  0  0  0  0  0
    3.8332    1.8505   19.1998 H   0  0  0  0  0  0  0  0  0  0  0  0
    5.3843    0.6633   20.1236 C   0  0  0  0  0  0  0  0  0  0  0  0
    4.9257    0.6433   21.1130 H   0  0  0  0  0  0  0  0  0  0  0  0
    7.9497   -1.8076   20.7243 N   0  0  0  0  0  0  0  0  0  0  0  0
    8.4397   -2.1739   21.9458 N   0  0  0  0  0  0  0  0  0  0  0  0
    8.9182   -3.0371   22.1236 H   0  0  0  0  0  0  0  0  0  0  0  0
    8.2259   -1.2768   22.9354 C   0  0  0  0  0  0  0  0  0  0  0  0
    8.5662   -1.3298   24.0978 O   0  0  0  0  0  0  0  0  0  0  0  0
    6.7491    1.1262   24.1918 C   0  0  0  0  0  0  0  0  0  0  0  0
    6.6293    0.2474   24.8245 H   0  0  0  0  0  0  0  0  0  0  0  0
    6.4330    2.3288   24.7001 N   0  0  0  0  0  0  0  0  0  0  0  0
    6.6258    3.3818   23.8726 C   0  0  0  0  0  0  0  0  0  0  0  0
    6.3201    4.5479   24.4757 N   0  0  0  0  0  0  0  0  0  0  0  0
    6.0072    4.3919   25.4192 H   0  0  0  0  0  0  0  0  0  0  0  0
    6.3611    5.4351   24.0173 H   0  0  0  0  0  0  0  0  0  0  0  0
  1  2  1  0
  2  3  2  0
  3  4  1  0
  4  5  1  0
  5  6  1  0
  6  7  1  0
  7  8  2  0
  8  9  1  0
  8 10  1  0
 10 11  2  0
 11 12  1  0
 11 13  1  0
 13 14  1  0
 13 15  2  0
 15 16  1  0
  6 17  2  0
 17 18  1  0
 18 19  1  0
 18 20  1  0
 20 21  2  0
  4 22  2  0
 22 23  1  0
 22 24  1  0
 24 25  2  0
 25 26  1  0
 26 27  1  0
 26 28  1  0
 25  2  1  0
 20  5  1  0
 15  7  1  0
M  END
>  <cnnaffinity>  (1) 
-4.89665

>  <filename>  (1) 
Nc1cnc(-n2c(-c3cccnc3)n[nH]c2=O)cn1

$$$$
