
     RDKit          3D

 35 37  0  0  0  0  0  0  0  0999 V2000
    4.8991    1.7954   16.8541 H   0  0  0  0  0  0  0  0  0  0  0  0
    5.3386    1.3856   17.7582 C   0  0  0  0  0  0  0  0  0  0  0  0
    6.5574    0.8521   17.5993 N   0  0  0  0  0  0  0  0  0  0  0  0
    7.1467    0.3384   18.6837 C   0  0  0  0  0  0  0  0  0  0  0  0
    8.1347   -0.0886   18.5092 H   0  0  0  0  0  0  0  0  0  0  0  0
    6.5729    0.3433   19.9691 C   0  0  0  0  0  0  0  0  0  0  0  0
    7.2568   -0.3980   21.0625 C   0  0  0  0  0  0  0  0  0  0  0  0
    7.6266    0.4738   22.5317 S   0  0  0  0  0  0  0  0  0  0  0  0
    8.2406   -0.8051   23.5785 C   0  0  0  0  0  0  0  0  0  0  0  0
    8.3964   -0.4152   25.0081 C   0  0  0  0  0  0  0  0  0  0  0  0
    9.5991   -0.6789   25.6837 C   0  0  0  0  0  0  0  0  0  0  0  0
   10.4490   -1.0781   25.1367 H   0  0  0  0  0  0  0  0  0  0  0  0
    9.7020   -0.4140   27.0486 C   0  0  0  0  0  0  0  0  0  0  0  0
   10.6257   -0.6018   27.5732 H   0  0  0  0  0  0  0  0  0  0  0  0
    8.6187    0.1190   27.7490 C   0  0  0  0  0  0  0  0  0  0  0  0
    8.7193    0.3117   28.8161 H   0  0  0  0  0  0  0  0  0  0  0  0
    7.4204    0.4387   27.0899 C   0  0  0  0  0  0  0  0  0  0  0  0
    6.2793    1.1061   27.8409 C   0  0  0  0  0  0  0  0  0  0  0  0
    6.6889    1.7830   28.5998 H   0  0  0  0  0  0  0  0  0  0  0  0
    5.7043    1.7458   27.1611 H   0  0  0  0  0  0  0  0  0  0  0  0
    5.3348    0.2106   28.5132 N   0  0  0  0  0  0  0  0  0  0  0  0
    4.9627   -0.4479   27.8342 H   0  0  0  0  0  0  0  0  0  0  0  0
    5.8342   -0.3597   29.1910 H   0  0  0  0  0  0  0  0  0  0  0  0
    7.3214    0.1497   25.7183 C   0  0  0  0  0  0  0  0  0  0  0  0
    6.4105    0.3571   25.1601 H   0  0  0  0  0  0  0  0  0  0  0  0
    8.5254   -2.0584   23.1579 C   0  0  0  0  0  0  0  0  0  0  0  0
    8.9763   -2.7826   23.8357 H   0  0  0  0  0  0  0  0  0  0  0  0
    8.1973   -2.5950   21.8380 C   0  0  0  0  0  0  0  0  0  0  0  0
    8.4279   -3.7634   21.5491 O   0  0  0  0  0  0  0  0  0  0  0  0
    7.5799   -1.6880   20.8700 C   0  0  0  0  0  0  0  0  0  0  0  0
    7.3803   -2.1439   19.9116 H   0  0  0  0  0  0  0  0  0  0  0  0
    5.3178    0.9491   20.1239 C   0  0  0  0  0  0  0  0  0  0  0  0
    4.8649    1.0244   21.1118 H   0  0  0  0  0  0  0  0  0  0  0  0
    4.6824    1.4582   18.9889 C   0  0  0  0  0  0  0  0  0  0  0  0
    3.7175    1.9445   19.0433 H   0  0  0  0  0  0  0  0  0  0  0  0
  1  2  1  0
  2  3  2  0
  3  4  1  0
  4  5  1  0
  4  6  2  0
  6  7  1  0
  7  8  1  0
  8  9  1  0
  9 10  1  0
 10 11  2  0
 11 12  1  0
 11 13  1  0
 13 14  1  0
 13 15  2  0
 15 16  1  0
 15 17  1  0
 17 18  1  0
 18 19  1  0
 18 20  1  0
 18 21  1  0
 21 22  1  0
 21 23  1  0
 17 24  2  0
 24 25  1  0
  9 26  2  0
 26 27  1  0
 26 28  1  0
 28 29  2  0
 28 30  1  0
 30 31  1  0
  6 32  1  0
 32 33  1  0
 32 34  2  0
 34 35  1  0
 34  2  1  0
 30  7  2  0
 24 10  1  0
M  END
>  <cnnaffinity>  (1) 
-5.16841

>  <filename>  (1) 
NCc1cccc(-c2cc(=O)cc(-c3cccnc3)s2)c1

$$$$
