
     RDKit          3D

 27 28  0  0  0  0  0  0  0  0999 V2000
    4.9726    1.8058   16.9587 H   0  0  0  0  0  0  0  0  0  0  0  0
    5.4172    1.2975   17.8122 C   0  0  0  0  0  0  0  0  0  0  0  0
    6.5795    0.6655   17.5827 N   0  0  0  0  0  0  0  0  0  0  0  0
    7.1576    0.0558   18.6267 C   0  0  0  0  0  0  0  0  0  0  0  0
    8.1072   -0.4351   18.4225 H   0  0  0  0  0  0  0  0  0  0  0  0
    6.6321    0.0327   19.9302 C   0  0  0  0  0  0  0  0  0  0  0  0
    7.3764   -0.6327   21.0231 C   0  0  0  0  0  0  0  0  0  0  0  0
    6.8766   -0.4283   22.6751 S   0  0  0  0  0  0  0  0  0  0  0  0
    8.1182   -1.4747   23.2336 C   0  0  0  0  0  0  0  0  0  0  0  0
    8.2483   -1.6800   24.2802 H   0  0  0  0  0  0  0  0  0  0  0  0
    8.8645   -1.9733   22.2102 C   0  0  0  0  0  0  0  0  0  0  0  0
    9.8933   -2.8545   22.2917 O   0  0  0  0  0  0  0  0  0  0  0  0
   10.2116   -3.4053   23.5698 C   0  0  0  0  0  0  0  0  0  0  0  0
   11.2556   -3.7167   23.5029 H   0  0  0  0  0  0  0  0  0  0  0  0
   10.1430   -2.6355   24.3469 H   0  0  0  0  0  0  0  0  0  0  0  0
    9.3292   -4.6039   23.9328 C   0  0  0  0  0  0  0  0  0  0  0  0
    9.2414   -5.2517   23.0583 H   0  0  0  0  0  0  0  0  0  0  0  0
    8.3098   -4.2550   24.1212 H   0  0  0  0  0  0  0  0  0  0  0  0
    9.7578   -5.4040   25.0710 N   0  0  0  0  0  0  0  0  0  0  0  0
    9.9600   -4.8337   25.8865 H   0  0  0  0  0  0  0  0  0  0  0  0
   10.5981   -5.9384   24.8715 H   0  0  0  0  0  0  0  0  0  0  0  0
    8.4571   -1.4643   20.9443 C   0  0  0  0  0  0  0  0  0  0  0  0
    8.9766   -1.7455   20.0368 H   0  0  0  0  0  0  0  0  0  0  0  0
    5.3968    0.6833   20.1402 C   0  0  0  0  0  0  0  0  0  0  0  0
    4.9338    0.6970   21.1272 H   0  0  0  0  0  0  0  0  0  0  0  0
    4.7874    1.3241   19.0608 C   0  0  0  0  0  0  0  0  0  0  0  0
    3.8504    1.8577   19.1859 H   0  0  0  0  0  0  0  0  0  0  0  0
  1  2  1  0
  2  3  2  0
  3  4  1  0
  4  5  1  0
  4  6  2  0
  6  7  1  0
  7  8  1  0
  8  9  1  0
  9 10  1  0
  9 11  2  0
 11 12  1  0
 12 13  1  0
 13 14  1  0
 13 15  1  0
 13 16  1  0
 16 17  1  0
 16 18  1  0
 16 19  1  0
 19 20  1  0
 19 21  1  0
 11 22  1  0
 22 23  1  0
  6 24  1  0
 24 25  1  0
 24 26  2  0
 26 27  1  0
 26  2  1  0
 22  7  2  0
M  END
>  <cnnaffinity>  (1) 
-4.78482

>  <filename>  (1) 
NCCOc1csc(-c2cccnc2)c1

$$$$
