
     RDKit          3D

 28 29  0  0  0  0  0  0  0  0999 V2000
    4.9867    1.8541   17.0280 H   0  0  0  0  0  0  0  0  0  0  0  0
    5.4577    1.2820   17.8248 C   0  0  0  0  0  0  0  0  0  0  0  0
    6.6044    0.6631   17.4965 N   0  0  0  0  0  0  0  0  0  0  0  0
    7.2351   -0.0247   18.4541 C   0  0  0  0  0  0  0  0  0  0  0  0
    8.1694   -0.5131   18.1795 H   0  0  0  0  0  0  0  0  0  0  0  0
    6.7548   -0.1372   19.7697 C   0  0  0  0  0  0  0  0  0  0  0  0
    7.5326   -0.7985   20.7693 N   0  0  0  0  0  0  0  0  0  0  0  0
    8.7223   -0.2613   21.2599 C   0  0  0  0  0  0  0  0  0  0  0  0
    9.2035    0.5548   20.7481 H   0  0  0  0  0  0  0  0  0  0  0  0
    9.0439   -0.9712   22.3596 C   0  0  0  0  0  0  0  0  0  0  0  0
   10.0391   -0.9354   23.2524 O   0  0  0  0  0  0  0  0  0  0  0  0
   11.3185   -0.5582   22.7271 C   0  0  0  0  0  0  0  0  0  0  0  0
   11.2762    0.4086   22.2167 H   0  0  0  0  0  0  0  0  0  0  0  0
   11.9714   -0.4363   23.5910 H   0  0  0  0  0  0  0  0  0  0  0  0
   11.8667   -1.6272   21.7884 C   0  0  0  0  0  0  0  0  0  0  0  0
   11.1459   -1.7396   20.9705 H   0  0  0  0  0  0  0  0  0  0  0  0
   11.8614   -2.5729   22.3463 H   0  0  0  0  0  0  0  0  0  0  0  0
   13.1822   -1.2573   21.2816 N   0  0  0  0  0  0  0  0  0  0  0  0
   13.3225   -1.6374   20.3464 H   0  0  0  0  0  0  0  0  0  0  0  0
   13.8984   -1.6607   21.8750 H   0  0  0  0  0  0  0  0  0  0  0  0
    8.0821   -1.9389   22.5087 N   0  0  0  0  0  0  0  0  0  0  0  0
    8.0693   -2.6784   23.1819 H   0  0  0  0  0  0  0  0  0  0  0  0
    7.1374   -1.8749   21.5330 C   0  0  0  0  0  0  0  0  0  0  0  0
    5.8524   -2.9168   21.3603 S   0  0  0  0  0  0  0  0  0  0  0  0
    5.5358    0.4710   20.0979 C   0  0  0  0  0  0  0  0  0  0  0  0
    5.1302    0.3850   21.1074 H   0  0  0  0  0  0  0  0  0  0  0  0
    4.8864    1.2088   19.1005 C   0  0  0  0  0  0  0  0  0  0  0  0
    3.9614    1.7415   19.3006 H   0  0  0  0  0  0  0  0  0  0  0  0
  1  2  1  0
  2  3  2  0
  3  4  1  0
  4  5  1  0
  4  6  2  0
  6  7  1  0
  7  8  1  0
  8  9  1  0
  8 10  2  0
 10 11  1  0
 11 12  1  0
 12 13  1  0
 12 14  1  0
 12 15  1  0
 15 16  1  0
 15 17  1  0
 15 18  1  0
 18 19  1  0
 18 20  1  0
 10 21  1  0
 21 22  1  0
 21 23  1  0
 23 24  2  0
  6 25  1  0
 25 26  1  0
 25 27  2  0
 27 28  1  0
 27  2  1  0
 23  7  1  0
M  END
>  <cnnaffinity>  (1) 
-4.73692

>  <filename>  (1) 
NCCOc1cn(-c2cccnc2)c(=S)[nH]1

$$$$
