
     RDKit          3D

 30 32  0  0  0  0  0  0  0  0999 V2000
    5.0244    1.8212   16.9051 H   0  0  0  0  0  0  0  0  0  0  0  0
    5.4015    1.3037   17.7872 C   0  0  0  0  0  0  0  0  0  0  0  0
    6.5497    0.6289   17.6370 N   0  0  0  0  0  0  0  0  0  0  0  0
    7.0459    0.0085   18.7157 C   0  0  0  0  0  0  0  0  0  0  0  0
    7.9753   -0.5333   18.5576 H   0  0  0  0  0  0  0  0  0  0  0  0
    6.4432    0.0023   19.9875 C   0  0  0  0  0  0  0  0  0  0  0  0
    7.1879   -0.6105   21.1076 C   0  0  0  0  0  0  0  0  0  0  0  0
    8.5414   -0.5721   21.3625 C   0  0  0  0  0  0  0  0  0  0  0  0
    8.7310   -1.2226   22.5762 C   0  0  0  0  0  0  0  0  0  0  0  0
    7.6047   -1.6999   23.0765 N   0  0  0  0  0  0  0  0  0  0  0  0
    6.6777   -1.3116   22.1620 N   0  0  0  0  0  0  0  0  0  0  0  0
    5.7126   -1.5804   22.2965 H   0  0  0  0  0  0  0  0  0  0  0  0
   10.1710   -1.1864   23.0250 C   0  0  0  0  0  0  0  0  0  0  0  0
   10.6069   -2.1932   23.0265 H   0  0  0  0  0  0  0  0  0  0  0  0
   10.2832   -0.7883   24.0398 H   0  0  0  0  0  0  0  0  0  0  0  0
   10.8535   -0.3005   21.9068 C   0  0  2  0  0  0  0  0  0  0  0  0
   11.7713   -0.7508   21.5407 H   0  0  0  0  0  0  0  0  0  0  0  0
   11.5062    1.2721   22.4565 S   0  0  0  0  0  0  0  0  0  0  0  0
   12.7917    1.1174   23.1167 O   0  0  0  0  0  0  0  0  0  0  0  0
   10.4492    2.1133   22.9768 O   0  0  0  0  0  0  0  0  0  0  0  0
   11.9093    2.0302   21.0347 N   0  0  0  0  0  0  0  0  0  0  0  0
   11.3521    2.8591   21.2307 H   0  0  0  0  0  0  0  0  0  0  0  0
   12.8651    2.2560   21.2953 H   0  0  0  0  0  0  0  0  0  0  0  0
    9.8112   -0.0949   20.7583 C   0  0  0  0  0  0  0  0  0  0  0  0
    9.7536    0.9369   20.3864 H   0  0  0  0  0  0  0  0  0  0  0  0
   10.0750   -0.7194   19.8995 H   0  0  0  0  0  0  0  0  0  0  0  0
    5.2210    0.6857   20.1091 C   0  0  0  0  0  0  0  0  0  0  0  0
    4.7055    0.7181   21.0667 H   0  0  0  0  0  0  0  0  0  0  0  0
    4.7000    1.3509   18.9957 C   0  0  0  0  0  0  0  0  0  0  0  0
    3.7794    1.9189   19.0547 H   0  0  0  0  0  0  0  0  0  0  0  0
  1  2  1  0
  2  3  2  0
  3  4  1  0
  4  5  1  0
  4  6  2  0
  6  7  1  0
  7  8  2  0
  8  9  1  0
  9 10  2  0
 10 11  1  0
 11 12  1  0
  9 13  1  0
 13 14  1  0
 13 15  1  0
 13 16  1  0
 16 17  1  6
 16 18  1  0
 18 19  2  0
 18 20  2  0
 18 21  1  0
 21 22  1  0
 21 23  1  0
 16 24  1  0
 24 25  1  0
 24 26  1  0
  6 27  1  0
 27 28  1  0
 27 29  2  0
 29 30  1  0
 29  2  1  0
 11  7  1  0
 24  8  1  0
M  END
>  <cnnaffinity>  (1) 
-5.07577

>  <filename>  (1) 
NS(=O)(=O)[C@H]1Cc2n[nH]c(-c3cccnc3)c2C1

$$$$
