
     RDKit          3D

 34 36  0  0  0  0  0  0  0  0999 V2000
    4.9347    1.8217   16.9062 H   0  0  0  0  0  0  0  0  0  0  0  0
    5.4089    1.3231   17.7459 C   0  0  0  0  0  0  0  0  0  0  0  0
    6.5585    0.6825   17.4786 N   0  0  0  0  0  0  0  0  0  0  0  0
    7.1724    0.0697   18.4981 C   0  0  0  0  0  0  0  0  0  0  0  0
    8.1130   -0.4308   18.2798 H   0  0  0  0  0  0  0  0  0  0  0  0
    6.6612    0.0442   19.8122 C   0  0  0  0  0  0  0  0  0  0  0  0
    7.3503   -0.6359   20.8684 N   0  0  0  0  0  0  0  0  0  0  0  0
    6.7879   -1.6307   21.6585 C   0  0  0  0  0  0  0  0  0  0  0  0
    5.7738   -1.9584   21.4860 H   0  0  0  0  0  0  0  0  0  0  0  0
    7.7003   -2.0191   22.5859 C   0  0  0  0  0  0  0  0  0  0  0  0
    7.5473   -2.9148   23.7480 C   0  0  0  0  0  0  0  0  0  0  0  0
    6.2611   -3.0620   24.3018 C   0  0  0  0  0  0  0  0  0  0  0  0
    5.4326   -2.5244   23.8554 H   0  0  0  0  0  0  0  0  0  0  0  0
    6.0362   -3.8533   25.4163 C   0  0  0  0  0  0  0  0  0  0  0  0
    5.0480   -3.8561   25.8733 H   0  0  0  0  0  0  0  0  0  0  0  0
    7.1082   -4.5869   25.9460 C   0  0  0  0  0  0  0  0  0  0  0  0
    6.7542   -5.8039   27.1591 S   0  0  0  0  0  0  0  0  0  0  0  0
    7.9754   -6.3996   27.6583 O   0  0  0  0  0  0  0  0  0  0  0  0
    5.6978   -5.3379   28.0335 O   0  0  0  0  0  0  0  0  0  0  0  0
    6.0287   -7.0685   26.3567 N   0  0  0  0  0  0  0  0  0  0  0  0
    6.7308   -7.7474   26.6548 H   0  0  0  0  0  0  0  0  0  0  0  0
    5.2652   -7.1341   27.0276 H   0  0  0  0  0  0  0  0  0  0  0  0
    8.4172   -4.4027   25.4703 C   0  0  0  0  0  0  0  0  0  0  0  0
    9.2752   -4.8529   25.9687 H   0  0  0  0  0  0  0  0  0  0  0  0
    8.6236   -3.5919   24.3574 C   0  0  0  0  0  0  0  0  0  0  0  0
    9.6241   -3.4923   23.9451 H   0  0  0  0  0  0  0  0  0  0  0  0
    8.8335   -1.2580   22.3097 N   0  0  0  0  0  0  0  0  0  0  0  0
    9.6910   -1.1825   22.8300 H   0  0  0  0  0  0  0  0  0  0  0  0
    8.6299   -0.3630   21.3080 C   0  0  0  0  0  0  0  0  0  0  0  0
    9.7134    0.7940   20.8127 S   0  0  0  0  0  0  0  0  0  0  0  0
    5.4571    0.7061   20.0760 C   0  0  0  0  0  0  0  0  0  0  0  0
    5.0517    0.7148   21.0902 H   0  0  0  0  0  0  0  0  0  0  0  0
    4.8228    1.3626   19.0174 C   0  0  0  0  0  0  0  0  0  0  0  0
    3.8948    1.9025   19.1733 H   0  0  0  0  0  0  0  0  0  0  0  0
  1  2  1  0
  2  3  2  0
  3  4  1  0
  4  5  1  0
  4  6  2  0
  6  7  1  0
  7  8  1  0
  8  9  1  0
  8 10  2  0
 10 11  1  0
 11 12  2  0
 12 13  1  0
 12 14  1  0
 14 15  1  0
 14 16  2  0
 16 17  1  0
 17 18  2  0
 17 19  2  0
 17 20  1  0
 20 21  1  0
 20 22  1  0
 16 23  1  0
 23 24  1  0
 23 25  2  0
 25 26  1  0
 10 27  1  0
 27 28  1  0
 27 29  1  0
 29 30  2  0
  6 31  1  0
 31 32  1  0
 31 33  2  0
 33 34  1  0
 33  2  1  0
 29  7  1  0
 25 11  1  0
M  END
>  <cnnaffinity>  (1) 
-5.31202

>  <filename>  (1) 
NS(=O)(=O)c1ccc(-c2cn(-c3cccnc3)c(=S)[nH]2)cc1

$$$$
