
     RDKit          3D

 27 28  0  0  0  0  0  0  0  0999 V2000
    5.0442    1.8116   17.0096 H   0  0  0  0  0  0  0  0  0  0  0  0
    5.5421    1.3030   17.8327 C   0  0  0  0  0  0  0  0  0  0  0  0
    6.7003    0.6875   17.5441 N   0  0  0  0  0  0  0  0  0  0  0  0
    7.3383    0.0555   18.5410 C   0  0  0  0  0  0  0  0  0  0  0  0
    8.2694   -0.4552   18.2873 H   0  0  0  0  0  0  0  0  0  0  0  0
    6.8581    0.0098   19.8686 C   0  0  0  0  0  0  0  0  0  0  0  0
    7.5410   -0.6964   20.9272 N   0  0  0  0  0  0  0  0  0  0  0  0
    6.9213   -1.8460   21.4533 C   0  0  0  0  0  0  0  0  0  0  0  0
    6.1990   -2.6023   20.8745 O   0  0  0  0  0  0  0  0  0  0  0  0
    7.2498   -1.9899   22.7610 O   0  0  0  0  0  0  0  0  0  0  0  0
    8.2069   -1.0047   23.1309 C   0  0  0  0  0  0  0  0  0  0  0  0
    9.1968   -1.4713   23.1824 H   0  0  0  0  0  0  0  0  0  0  0  0
    7.9620   -0.5826   24.1058 H   0  0  0  0  0  0  0  0  0  0  0  0
    8.1688    0.0343   21.9993 C   0  0  1  0  0  0  0  0  0  0  0  0
    7.5691    0.9241   22.2734 H   0  0  0  0  0  0  0  0  0  0  0  0
    9.5144    0.3198   21.5701 N   0  0  0  0  0  0  0  0  0  0  0  0
    9.6542    0.5968   20.6094 H   0  0  0  0  0  0  0  0  0  0  0  0
   10.3493    1.5371   22.3029 S   0  0  0  0  0  0  0  0  0  0  0  0
    9.6720    2.8001   22.2941 O   0  0  0  0  0  0  0  0  0  0  0  0
   11.0850    1.0541   23.4448 O   0  0  0  0  0  0  0  0  0  0  0  0
   11.4070    1.4444   21.0468 N   0  0  0  0  0  0  0  0  0  0  0  0
   11.5739    0.4552   21.2189 H   0  0  0  0  0  0  0  0  0  0  0  0
   12.1882    1.9418   21.4677 H   0  0  0  0  0  0  0  0  0  0  0  0
    5.6402    0.6453   20.1486 C   0  0  0  0  0  0  0  0  0  0  0  0
    5.2295    0.6039   21.1585 H   0  0  0  0  0  0  0  0  0  0  0  0
    4.9772    1.3061   19.1113 C   0  0  0  0  0  0  0  0  0  0  0  0
    4.0412    1.8209   19.2839 H   0  0  0  0  0  0  0  0  0  0  0  0
  1  2  1  0
  2  3  2  0
  3  4  1  0
  4  5  1  0
  4  6  2  0
  6  7  1  0
  7  8  1  0
  8  9  2  0
  8 10  1  0
 10 11  1  0
 11 12  1  0
 11 13  1  0
 11 14  1  0
 14 15  1  1
 14 16  1  0
 16 17  1  0
 16 18  1  0
 18 19  2  0
 18 20  2  0
 18 21  1  0
 21 22  1  0
 21 23  1  0
  6 24  1  0
 24 25  1  0
 24 26  2  0
 26 27  1  0
 26  2  1  0
 14  7  1  0
M  END
>  <cnnaffinity>  (1) 
-4.52862

>  <filename>  (1) 
NS(=O)(=O)N[C@@H]1COC(=O)N1c1cccnc1

$$$$
