
     RDKit          3D

 40 42  0  0  0  0  0  0  0  0999 V2000
   10.2215   -1.3260   22.5112 O   0  0  0  0  0  0  0  0  0  0  0  0
    9.1168   -1.4755   22.0241 C   0  0  0  0  0  0  0  0  0  0  0  0
    8.6987   -0.6989   20.7662 C   0  0  0  0  0  0  0  0  0  0  0  0
    7.2743   -0.6383   20.6571 O   0  0  0  0  0  0  0  0  0  0  0  0
    6.6953    0.0593   19.6432 C   0  0  0  0  0  0  0  0  0  0  0  0
    5.4830    0.7032   19.9316 C   0  0  0  0  0  0  0  0  0  0  0  0
    4.8398    1.3821   18.8962 C   0  0  0  0  0  0  0  0  0  0  0  0
    5.4085    1.3799   17.6151 C   0  0  0  0  0  0  0  0  0  0  0  0
    6.5599    0.7549   17.3322 N   0  0  0  0  0  0  0  0  0  0  0  0
    7.1917    0.1193   18.3305 C   0  0  0  0  0  0  0  0  0  0  0  0
    8.1307   -0.3681   18.0733 H   0  0  0  0  0  0  0  0  0  0  0  0
    4.9249    1.8965   16.7889 H   0  0  0  0  0  0  0  0  0  0  0  0
    3.9152    1.9187   19.0734 H   0  0  0  0  0  0  0  0  0  0  0  0
    5.0909    0.6524   20.9471 H   0  0  0  0  0  0  0  0  0  0  0  0
    9.1380   -1.2070   19.8957 H   0  0  0  0  0  0  0  0  0  0  0  0
    9.1452    0.2975   20.8415 H   0  0  0  0  0  0  0  0  0  0  0  0
    8.1934   -2.3508   22.4931 N   0  0  0  0  0  0  0  0  0  0  0  0
    8.3595   -3.0419   23.7475 C   0  0  0  0  0  0  0  0  0  0  0  0
    7.1921   -4.0133   23.9335 C   0  0  0  0  0  0  0  0  0  0  0  0
    7.4089   -4.8916   25.1365 C   0  0  0  0  0  0  0  0  0  0  0  0
    8.4148   -5.8423   25.0924 C   0  0  0  0  0  0  0  0  0  0  0  0
    8.7330   -6.5933   26.2491 C   0  0  0  0  0  0  0  0  0  0  0  0
    8.1105   -6.4763   27.3987 N   0  0  0  0  0  0  0  0  0  0  0  0
    7.0715   -5.5841   27.4591 C   0  0  0  0  0  0  0  0  0  0  0  0
    6.3379   -5.5287   28.6774 C   0  0  0  0  0  0  0  0  0  0  0  0
    5.3210   -4.6211   28.8625 C   0  0  0  0  0  0  0  0  0  0  0  0
    5.0014   -3.7056   27.8221 C   0  0  0  0  0  0  0  0  0  0  0  0
    5.6611   -3.7529   26.6131 C   0  0  0  0  0  0  0  0  0  0  0  0
    6.6970   -4.7195   26.3739 C   0  0  0  0  0  0  0  0  0  0  0  0
    5.3828   -3.0435   25.8339 H   0  0  0  0  0  0  0  0  0  0  0  0
    4.2202   -2.9650   27.9881 H   0  0  0  0  0  0  0  0  0  0  0  0
    4.7531   -4.6013   29.7939 H   0  0  0  0  0  0  0  0  0  0  0  0
    6.6455   -6.2389   29.4358 H   0  0  0  0  0  0  0  0  0  0  0  0
    9.5412   -7.3242   26.1968 H   0  0  0  0  0  0  0  0  0  0  0  0
    8.9838   -6.0384   24.1896 H   0  0  0  0  0  0  0  0  0  0  0  0
    6.2585   -3.4436   24.0111 H   0  0  0  0  0  0  0  0  0  0  0  0
    7.1076   -4.6228   23.0252 H   0  0  0  0  0  0  0  0  0  0  0  0
    9.3215   -3.5702   23.7485 H   0  0  0  0  0  0  0  0  0  0  0  0
    8.4064   -2.3445   24.5956 H   0  0  0  0  0  0  0  0  0  0  0  0
    7.2519   -2.1976   22.1631 H   0  0  0  0  0  0  0  0  0  0  0  0
  1  2  2  0
  2  3  1  0
  3  4  1  0
  4  5  1  0
  5  6  2  0
  6  7  1  0
  7  8  2  0
  8  9  1  0
  9 10  2  0
 10 11  1  0
  8 12  1  0
  7 13  1  0
  6 14  1  0
  3 15  1  0
  3 16  1  0
  2 17  1  0
 17 18  1  0
 18 19  1  0
 19 20  1  0
 20 21  2  0
 21 22  1  0
 22 23  2  0
 23 24  1  0
 24 25  2  0
 25 26  1  0
 26 27  2  0
 27 28  1  0
 28 29  2  0
 28 30  1  0
 27 31  1  0
 26 32  1  0
 25 33  1  0
 22 34  1  0
 21 35  1  0
 19 36  1  0
 19 37  1  0
 18 38  1  0
 18 39  1  0
 17 40  1  0
 10  5  1  0
 29 20  1  0
 29 24  1  0
M  END
>  <cnnaffinity>  (1) 
-4.78334

>  <filename>  (1) 
O=C(COc1cccnc1)NCCc1ccnc2ccccc12

$$$$
