
     RDKit          3D

 34 37  0  0  0  0  0  0  0  0999 V2000
    4.9398    1.7723   17.0213 H   0  0  0  0  0  0  0  0  0  0  0  0
    5.4178    1.2740   17.8608 C   0  0  0  0  0  0  0  0  0  0  0  0
    6.5822    0.6571   17.6011 N   0  0  0  0  0  0  0  0  0  0  0  0
    7.1954    0.0379   18.6178 C   0  0  0  0  0  0  0  0  0  0  0  0
    8.1434   -0.4382   18.3703 H   0  0  0  0  0  0  0  0  0  0  0  0
    6.6988   -0.0271   19.9564 C   0  0  0  0  0  0  0  0  0  0  0  0
    7.3739   -0.6793   20.9649 N   0  0  0  0  0  0  0  0  0  0  0  0
    8.6315   -1.4106   20.9847 C   0  0  0  0  0  0  0  0  0  0  0  0
    9.5204   -0.8118   20.7476 H   0  0  0  0  0  0  0  0  0  0  0  0
    8.6584   -2.3078   20.3691 H   0  0  0  0  0  0  0  0  0  0  0  0
    8.3777   -1.7045   22.4833 C   0  0  0  0  0  0  0  0  0  0  0  0
    9.1080   -1.2411   23.1509 H   0  0  0  0  0  0  0  0  0  0  0  0
    8.2283   -3.1807   22.8498 C   0  0  0  0  0  0  0  0  0  0  0  0
    8.6205   -4.0713   22.1320 O   0  0  0  0  0  0  0  0  0  0  0  0
    7.5633   -3.4664   24.1896 C   0  0  0  0  0  0  0  0  0  0  0  0
    7.1515   -2.5935   25.0576 N   0  0  0  0  0  0  0  0  0  0  0  0
    6.6127   -3.3624   26.0817 C   0  0  0  0  0  0  0  0  0  0  0  0
    6.0154   -2.9953   27.2952 C   0  0  0  0  0  0  0  0  0  0  0  0
    5.9309   -1.9421   27.5421 H   0  0  0  0  0  0  0  0  0  0  0  0
    5.5610   -4.0127   28.1355 C   0  0  0  0  0  0  0  0  0  0  0  0
    5.1002   -3.7516   29.0854 H   0  0  0  0  0  0  0  0  0  0  0  0
    5.6989   -5.3708   27.7721 C   0  0  0  0  0  0  0  0  0  0  0  0
    5.3371   -6.1399   28.4503 H   0  0  0  0  0  0  0  0  0  0  0  0
    6.2931   -5.7462   26.5608 C   0  0  0  0  0  0  0  0  0  0  0  0
    6.4127   -6.7821   26.2652 H   0  0  0  0  0  0  0  0  0  0  0  0
    6.7395   -4.7139   25.7390 C   0  0  0  0  0  0  0  0  0  0  0  0
    7.3514   -4.7783   24.5240 O   0  0  0  0  0  0  0  0  0  0  0  0
    7.0598   -0.8812   22.3653 C   0  0  0  0  0  0  0  0  0  0  0  0
    6.1454   -1.4511   22.5629 H   0  0  0  0  0  0  0  0  0  0  0  0
    7.0130    0.0325   22.9710 H   0  0  0  0  0  0  0  0  0  0  0  0
    5.4674    0.6261   20.1917 C   0  0  0  0  0  0  0  0  0  0  0  0
    5.0263    0.6205   21.1881 H   0  0  0  0  0  0  0  0  0  0  0  0
    4.8357    1.2834   19.1316 C   0  0  0  0  0  0  0  0  0  0  0  0
    3.9034    1.8156   19.2800 H   0  0  0  0  0  0  0  0  0  0  0  0
  1  2  1  0
  2  3  2  0
  3  4  1  0
  4  5  1  0
  4  6  2  0
  6  7  1  0
  7  8  1  0
  8  9  1  0
  8 10  1  0
  8 11  1  0
 11 12  1  0
 11 13  1  0
 13 14  2  0
 13 15  1  0
 15 16  2  0
 16 17  1  0
 17 18  2  0
 18 19  1  0
 18 20  1  0
 20 21  1  0
 20 22  2  0
 22 23  1  0
 22 24  1  0
 24 25  1  0
 24 26  2  0
 26 27  1  0
 11 28  1  0
 28 29  1  0
 28 30  1  0
  6 31  1  0
 31 32  1  0
 31 33  2  0
 33 34  1  0
 33  2  1  0
 28  7  1  0
 27 15  1  0
 26 17  1  0
M  END
>  <cnnaffinity>  (1) 
-5.14954

>  <filename>  (1) 
O=C(c1nc2ccccc2o1)C1CN(c2cccnc2)C1

$$$$
