
     RDKit          3D

 33 35  0  0  0  0  0  0  0  0999 V2000
    5.1011    1.7667   16.9434 H   0  0  0  0  0  0  0  0  0  0  0  0
    5.4820    1.2568   17.8250 C   0  0  0  0  0  0  0  0  0  0  0  0
    6.6459    0.6086   17.6629 N   0  0  0  0  0  0  0  0  0  0  0  0
    7.1618   -0.0011   18.7331 C   0  0  0  0  0  0  0  0  0  0  0  0
    8.1152   -0.5159   18.5966 H   0  0  0  0  0  0  0  0  0  0  0  0
    6.5575   -0.0036   19.9862 C   0  0  0  0  0  0  0  0  0  0  0  0
    7.2707   -0.6908   21.0736 C   0  0  0  0  0  0  0  0  0  0  0  0
    8.0551   -2.1269   20.9597 S   0  0  0  0  0  0  0  0  0  0  0  0
    7.2479   -0.0516   22.2788 N   0  0  0  0  0  0  0  0  0  0  0  0
    7.4524   -0.6451   23.0672 H   0  0  0  0  0  0  0  0  0  0  0  0
    7.4701    1.3148   22.4493 C   0  0  0  0  0  0  0  0  0  0  0  0
    7.6693    2.0619   21.5171 O   0  0  0  0  0  0  0  0  0  0  0  0
    7.3769    1.7440   23.8813 C   0  0  0  0  0  0  0  0  0  0  0  0
    6.4508    2.7031   24.2416 C   0  0  0  0  0  0  0  0  0  0  0  0
    5.8757    3.2085   23.4682 H   0  0  0  0  0  0  0  0  0  0  0  0
    6.2189    3.0000   25.6102 C   0  0  0  0  0  0  0  0  0  0  0  0
    5.5166    3.7908   25.8550 H   0  0  0  0  0  0  0  0  0  0  0  0
    6.8833    2.3136   26.6019 C   0  0  0  0  0  0  0  0  0  0  0  0
    6.6735    2.5200   27.6500 H   0  0  0  0  0  0  0  0  0  0  0  0
    7.8794    1.3419   26.2621 C   0  0  0  0  0  0  0  0  0  0  0  0
    8.5828    0.5749   27.2372 C   0  0  0  0  0  0  0  0  0  0  0  0
    8.3170    0.7062   28.2823 H   0  0  0  0  0  0  0  0  0  0  0  0
    9.6267   -0.2501   26.8812 C   0  0  0  0  0  0  0  0  0  0  0  0
   10.1623   -0.8247   27.6332 H   0  0  0  0  0  0  0  0  0  0  0  0
   10.0412   -0.3304   25.5303 C   0  0  0  0  0  0  0  0  0  0  0  0
   10.9245   -0.9004   25.2609 H   0  0  0  0  0  0  0  0  0  0  0  0
    9.3217    0.3072   24.5458 C   0  0  0  0  0  0  0  0  0  0  0  0
    9.6226    0.2217   23.5080 H   0  0  0  0  0  0  0  0  0  0  0  0
    8.2003    1.1306   24.8824 C   0  0  0  0  0  0  0  0  0  0  0  0
    5.3198    0.6515   20.1439 C   0  0  0  0  0  0  0  0  0  0  0  0
    4.8218    0.6820   21.1146 H   0  0  0  0  0  0  0  0  0  0  0  0
    4.7780    1.2924   19.0331 C   0  0  0  0  0  0  0  0  0  0  0  0
    3.8543    1.8568   19.0977 H   0  0  0  0  0  0  0  0  0  0  0  0
  1  2  1  0
  2  3  2  0
  3  4  1  0
  4  5  1  0
  4  6  2  0
  6  7  1  0
  7  8  2  0
  7  9  1  0
  9 10  1  0
  9 11  1  0
 11 12  2  0
 11 13  1  0
 13 14  2  0
 14 15  1  0
 14 16  1  0
 16 17  1  0
 16 18  2  0
 18 19  1  0
 18 20  1  0
 20 21  2  0
 21 22  1  0
 21 23  1  0
 23 24  1  0
 23 25  2  0
 25 26  1  0
 25 27  1  0
 27 28  1  0
 27 29  2  0
  6 30  1  0
 30 31  1  0
 30 32  2  0
 32 33  1  0
 32  2  1  0
 29 13  1  0
 29 20  1  0
M  END
>  <cnnaffinity>  (1) 
-4.74213

>  <filename>  (1) 
O=C(NC(=S)c1cccnc1)c1cccc2ccccc12

$$$$
