
     RDKit          3D

 28 29  0  0  0  0  0  0  0  0999 V2000
    5.0514    1.8150   16.9582 H   0  0  0  0  0  0  0  0  0  0  0  0
    5.4597    1.3037   17.8280 C   0  0  0  0  0  0  0  0  0  0  0  0
    6.6223    0.6613   17.6418 N   0  0  0  0  0  0  0  0  0  0  0  0
    7.1421    0.0156   18.6884 C   0  0  0  0  0  0  0  0  0  0  0  0
    8.0761   -0.5193   18.5315 H   0  0  0  0  0  0  0  0  0  0  0  0
    6.5586   -0.0013   19.9563 C   0  0  0  0  0  0  0  0  0  0  0  0
    7.2948   -0.7951   20.9726 C   0  0  0  0  0  0  0  0  0  0  0  0
    7.9922   -1.7462   20.6559 O   0  0  0  0  0  0  0  0  0  0  0  0
    7.1338   -0.3796   22.2671 N   0  0  0  0  0  0  0  0  0  0  0  0
    7.0191    0.6151   22.3578 H   0  0  0  0  0  0  0  0  0  0  0  0
    7.8755   -1.0212   23.3501 C   0  0  0  0  0  0  0  0  0  0  0  0
    7.6829   -2.1002   23.3136 H   0  0  0  0  0  0  0  0  0  0  0  0
    7.4868   -0.6358   24.2976 H   0  0  0  0  0  0  0  0  0  0  0  0
    9.3763   -0.7758   23.2818 C   0  0  0  0  0  0  0  0  0  0  0  0
   10.2167   -1.7404   22.6932 C   0  0  0  0  0  0  0  0  0  0  0  0
    9.7801   -2.6728   22.3426 H   0  0  0  0  0  0  0  0  0  0  0  0
   11.5772   -1.5000   22.5010 C   0  0  0  0  0  0  0  0  0  0  0  0
   12.2000   -2.2551   22.0247 H   0  0  0  0  0  0  0  0  0  0  0  0
   12.1412   -0.2944   22.9380 C   0  0  0  0  0  0  0  0  0  0  0  0
   13.2023   -0.1007   22.7863 H   0  0  0  0  0  0  0  0  0  0  0  0
   11.3373    0.6780   23.5423 C   0  0  0  0  0  0  0  0  0  0  0  0
   11.7616    1.6206   23.8844 H   0  0  0  0  0  0  0  0  0  0  0  0
    9.9659    0.4338   23.6964 C   0  0  0  0  0  0  0  0  0  0  0  0
    8.9766    1.7315   24.3275 Cl  0  0  0  0  0  0  0  0  0  0  0  0
    5.3598    0.6965   20.1540 C   0  0  0  0  0  0  0  0  0  0  0  0
    4.8927    0.7359   21.1392 H   0  0  0  0  0  0  0  0  0  0  0  0
    4.7933    1.3453   19.0584 C   0  0  0  0  0  0  0  0  0  0  0  0
    3.8720    1.9073   19.1447 H   0  0  0  0  0  0  0  0  0  0  0  0
  1  2  1  0
  2  3  2  0
  3  4  1  0
  4  5  1  0
  4  6  2  0
  6  7  1  0
  7  8  2  0
  7  9  1  0
  9 10  1  0
  9 11  1  0
 11 12  1  0
 11 13  1  0
 11 14  1  0
 14 15  2  0
 15 16  1  0
 15 17  1  0
 17 18  1  0
 17 19  2  0
 19 20  1  0
 19 21  1  0
 21 22  1  0
 21 23  2  0
 23 24  1  0
  6 25  1  0
 25 26  1  0
 25 27  2  0
 27 28  1  0
 27  2  1  0
 23 14  1  0
M  END
>  <cnnaffinity>  (1) 
-4.68377

>  <filename>  (1) 
O=C(NCc1ccccc1Cl)c1cccnc1

$$$$
