
     RDKit          3D

 38 40  0  0  0  0  0  0  0  0999 V2000
    5.1515    1.7473   16.9269 H   0  0  0  0  0  0  0  0  0  0  0  0
    5.5079    1.2578   17.8302 C   0  0  0  0  0  0  0  0  0  0  0  0
    6.6308    0.5339   17.7043 N   0  0  0  0  0  0  0  0  0  0  0  0
    7.0929   -0.0825   18.7998 C   0  0  0  0  0  0  0  0  0  0  0  0
    8.0348   -0.6075   18.6740 H   0  0  0  0  0  0  0  0  0  0  0  0
    6.4612   -0.0384   20.0696 C   0  0  0  0  0  0  0  0  0  0  0  0
    6.9522   -0.7488   21.1930 N   0  0  0  0  0  0  0  0  0  0  0  0
    6.9169   -0.2961   22.5132 C   0  0  0  0  0  0  0  0  0  0  0  0
    6.5273    0.7625   22.9524 O   0  0  0  0  0  0  0  0  0  0  0  0
    7.4198   -1.3273   23.2817 N   0  0  0  0  0  0  0  0  0  0  0  0
    7.1676   -1.2144   24.2501 H   0  0  0  0  0  0  0  0  0  0  0  0
    7.3106   -2.5806   22.5585 C   0  0  0  0  0  0  0  0  0  0  0  0
    8.0578   -3.3106   22.8890 H   0  0  0  0  0  0  0  0  0  0  0  0
    6.3191   -3.0583   22.6431 H   0  0  0  0  0  0  0  0  0  0  0  0
    7.5478   -2.0845   21.1254 C   0  0  2  0  0  0  0  0  0  0  0  0
    7.0026   -2.6797   20.3850 H   0  0  0  0  0  0  0  0  0  0  0  0
    9.0507   -2.0910   20.7448 C   0  0  0  0  0  0  0  0  0  0  0  0
    9.1437   -1.7201   19.7232 H   0  0  0  0  0  0  0  0  0  0  0  0
    9.3932   -3.1335   20.7490 H   0  0  0  0  0  0  0  0  0  0  0  0
    9.9512   -1.2880   21.5544 N   0  0  0  0  0  0  0  0  0  0  0  0
   10.0547   -1.5330   22.5274 H   0  0  0  0  0  0  0  0  0  0  0  0
   10.1661    0.0414   21.2661 C   0  0  0  0  0  0  0  0  0  0  0  0
    9.5369    0.6188   20.3911 O   0  0  0  0  0  0  0  0  0  0  0  0
   11.2270    0.7346   22.0803 C   0  0  0  0  0  0  0  0  0  0  0  0
   11.2327    2.1444   22.1145 C   0  0  0  0  0  0  0  0  0  0  0  0
   10.4649    2.7079   21.5870 H   0  0  0  0  0  0  0  0  0  0  0  0
   12.2363    2.8188   22.8060 C   0  0  0  0  0  0  0  0  0  0  0  0
   12.2613    3.9045   22.8246 H   0  0  0  0  0  0  0  0  0  0  0  0
   13.2348    2.1006   23.4630 C   0  0  0  0  0  0  0  0  0  0  0  0
   13.9898    2.6524   23.9954 H   0  0  0  0  0  0  0  0  0  0  0  0
   13.2664    0.7057   23.4038 C   0  0  0  0  0  0  0  0  0  0  0  0
   14.0732    0.1516   23.8740 H   0  0  0  0  0  0  0  0  0  0  0  0
   12.2585    0.0235   22.7241 C   0  0  0  0  0  0  0  0  0  0  0  0
   12.2993   -1.0637   22.6625 H   0  0  0  0  0  0  0  0  0  0  0  0
    5.2903    0.7247   20.1787 C   0  0  0  0  0  0  0  0  0  0  0  0
    4.7895    0.7999   21.1425 H   0  0  0  0  0  0  0  0  0  0  0  0
    4.8136    1.3824   19.0383 C   0  0  0  0  0  0  0  0  0  0  0  0
    3.9188    1.9945   19.0790 H   0  0  0  0  0  0  0  0  0  0  0  0
  1  2  1  0
  2  3  2  0
  3  4  1  0
  4  5  1  0
  4  6  2  0
  6  7  1  0
  7  8  1  0
  8  9  2  0
  8 10  1  0
 10 11  1  0
 10 12  1  0
 12 13  1  0
 12 14  1  0
 12 15  1  0
 15 16  1  6
 15 17  1  0
 17 18  1  0
 17 19  1  0
 17 20  1  0
 20 21  1  0
 20 22  1  0
 22 23  2  0
 22 24  1  0
 24 25  2  0
 25 26  1  0
 25 27  1  0
 27 28  1  0
 27 29  2  0
 29 30  1  0
 29 31  1  0
 31 32  1  0
 31 33  2  0
 33 34  1  0
  6 35  1  0
 35 36  1  0
 35 37  2  0
 37 38  1  0
 37  2  1  0
 15  7  1  0
 33 24  1  0
M  END
>  <cnnaffinity>  (1) 
-5.14183

>  <filename>  (1) 
O=C(NC[C@H]1CNC(=O)N1c1cccnc1)c1ccccc1

$$$$
