
     RDKit          3D

 33 35  0  0  0  0  0  0  0  0999 V2000
    4.9344    1.8019   16.9798 H   0  0  0  0  0  0  0  0  0  0  0  0
    5.3904    1.2982   17.8288 C   0  0  0  0  0  0  0  0  0  0  0  0
    6.5442    0.6653   17.5742 N   0  0  0  0  0  0  0  0  0  0  0  0
    7.1406    0.0446   18.5963 C   0  0  0  0  0  0  0  0  0  0  0  0
    8.1069   -0.4143   18.3846 H   0  0  0  0  0  0  0  0  0  0  0  0
    6.6101   -0.0068   19.8975 C   0  0  0  0  0  0  0  0  0  0  0  0
    7.2972   -0.7254   20.9813 C   0  0  0  0  0  0  0  0  0  0  0  0
    6.5516   -1.4639   21.7908 N   0  0  0  0  0  0  0  0  0  0  0  0
    7.1372   -2.1849   22.8115 C   0  0  0  0  0  0  0  0  0  0  0  0
    6.3263   -3.1238   23.7266 C   0  0  0  0  0  0  0  0  0  0  0  0
    6.8839   -3.7837   24.5913 O   0  0  0  0  0  0  0  0  0  0  0  0
    4.9794   -3.1800   23.4960 N   0  0  0  0  0  0  0  0  0  0  0  0
    4.6350   -2.4583   22.8856 H   0  0  0  0  0  0  0  0  0  0  0  0
    4.0722   -4.0746   24.0736 C   0  0  0  0  0  0  0  0  0  0  0  0
    4.4571   -5.3981   24.2730 C   0  0  0  0  0  0  0  0  0  0  0  0
    5.4573   -5.7086   24.0092 H   0  0  0  0  0  0  0  0  0  0  0  0
    3.5300   -6.2875   24.8084 C   0  0  0  0  0  0  0  0  0  0  0  0
    3.8032   -7.3308   24.9843 H   0  0  0  0  0  0  0  0  0  0  0  0
    2.2760   -5.9442   25.1418 N   0  0  0  0  0  0  0  0  0  0  0  0
    1.9228   -4.6679   24.9503 C   0  0  0  0  0  0  0  0  0  0  0  0
    0.8944   -4.4180   25.2263 H   0  0  0  0  0  0  0  0  0  0  0  0
    2.7757   -3.6925   24.4270 C   0  0  0  0  0  0  0  0  0  0  0  0
    2.4198   -2.6755   24.3151 H   0  0  0  0  0  0  0  0  0  0  0  0
    8.4885   -2.1227   23.0553 C   0  0  0  0  0  0  0  0  0  0  0  0
    8.9722   -2.6750   23.8535 H   0  0  0  0  0  0  0  0  0  0  0  0
    9.2546   -1.3409   22.2494 N   0  0  0  0  0  0  0  0  0  0  0  0
   10.2506   -1.1767   22.3190 H   0  0  0  0  0  0  0  0  0  0  0  0
    8.7887   -0.5772   21.1864 C   0  0  0  0  0  0  0  0  0  0  0  0
    9.6316    0.0889   20.6027 O   0  0  0  0  0  0  0  0  0  0  0  0
    5.3946    0.6484   20.1431 C   0  0  0  0  0  0  0  0  0  0  0  0
    4.9599    0.6361   21.1445 H   0  0  0  0  0  0  0  0  0  0  0  0
    4.7838    1.3237   19.0905 C   0  0  0  0  0  0  0  0  0  0  0  0
    3.8579    1.8694   19.2310 H   0  0  0  0  0  0  0  0  0  0  0  0
  1  2  1  0
  2  3  2  0
  3  4  1  0
  4  5  1  0
  4  6  2  0
  6  7  1  0
  7  8  2  0
  8  9  1  0
  9 10  1  0
 10 11  2  0
 10 12  1  0
 12 13  1  0
 12 14  1  0
 14 15  2  0
 15 16  1  0
 15 17  1  0
 17 18  1  0
 17 19  2  0
 19 20  1  0
 20 21  1  0
 20 22  2  0
 22 23  1  0
  9 24  2  0
 24 25  1  0
 24 26  1  0
 26 27  1  0
 26 28  1  0
 28 29  2  0
  6 30  1  0
 30 31  1  0
 30 32  2  0
 32 33  1  0
 32  2  1  0
 28  7  1  0
 22 14  1  0
M  END
>  <cnnaffinity>  (1) 
-5.29188

>  <filename>  (1) 
O=C(Nc1ccncc1)c1c[nH]c(=O)c(-c2cccnc2)n1

$$$$
