
     RDKit          3D

 33 35  0  0  0  0  0  0  0  0999 V2000
    8.0354   -1.6603   20.6615 O   0  0  0  0  0  0  0  0  0  0  0  0
    7.3755   -0.6615   20.9501 C   0  0  0  0  0  0  0  0  0  0  0  0
    6.6646    0.0138   19.8684 C   0  0  0  0  0  0  0  0  0  0  0  0
    5.4763    0.7001   20.1182 C   0  0  0  0  0  0  0  0  0  0  0  0
    4.8602    1.3320   19.0466 C   0  0  0  0  0  0  0  0  0  0  0  0
    5.4404    1.2794   17.7777 C   0  0  0  0  0  0  0  0  0  0  0  0
    6.5737    0.5974   17.5375 N   0  0  0  0  0  0  0  0  0  0  0  0
    7.1694   -0.0305   18.5627 C   0  0  0  0  0  0  0  0  0  0  0  0
    8.0881   -0.5707   18.3561 H   0  0  0  0  0  0  0  0  0  0  0  0
    4.9532    1.8057   16.9617 H   0  0  0  0  0  0  0  0  0  0  0  0
    3.9378    1.8797   19.1903 H   0  0  0  0  0  0  0  0  0  0  0  0
    5.0371    0.7388   21.1161 H   0  0  0  0  0  0  0  0  0  0  0  0
    7.2702   -0.1891   22.3646 C   0  0  0  0  0  0  0  0  0  0  0  0
    7.0984    1.0635   22.7556 N   0  0  0  0  0  0  0  0  0  0  0  0
    7.0885    1.0541   24.1430 C   0  0  0  0  0  0  0  0  0  0  0  0
    7.2042   -0.2202   24.6039 C   0  0  0  0  0  0  0  0  0  0  0  0
    7.3267   -1.0163   23.4857 N   0  0  0  0  0  0  0  0  0  0  0  0
    7.3428   -2.4811   23.4816 C   0  0  0  0  0  0  0  0  0  0  0  0
    8.6123   -3.0085   24.0869 C   0  0  0  0  0  0  0  0  0  0  0  0
    9.7833   -3.0281   23.3242 C   0  0  0  0  0  0  0  0  0  0  0  0
   10.9347   -3.6280   23.8292 C   0  0  0  0  0  0  0  0  0  0  0  0
   10.9201   -4.2467   25.0778 C   0  0  0  0  0  0  0  0  0  0  0  0
    9.7851   -4.1576   25.8770 C   0  0  0  0  0  0  0  0  0  0  0  0
    8.6313   -3.5148   25.4016 C   0  0  0  0  0  0  0  0  0  0  0  0
    6.8308   -3.3326   26.7462 I   0  0  0  0  0  0  0  0  0  0  0  0
    9.8229   -4.5980   26.8684 H   0  0  0  0  0  0  0  0  0  0  0  0
   11.7860   -4.7711   25.4573 H   0  0  0  0  0  0  0  0  0  0  0  0
   11.8429   -3.5994   23.2448 H   0  0  0  0  0  0  0  0  0  0  0  0
    9.7906   -2.6093   22.3239 H   0  0  0  0  0  0  0  0  0  0  0  0
    6.4862   -2.8621   24.0380 H   0  0  0  0  0  0  0  0  0  0  0  0
    7.2356   -2.8668   22.4631 H   0  0  0  0  0  0  0  0  0  0  0  0
    7.1897   -0.5346   25.6433 H   0  0  0  0  0  0  0  0  0  0  0  0
    6.9908    1.9379   24.7631 H   0  0  0  0  0  0  0  0  0  0  0  0
  1  2  2  0
  2  3  1  0
  3  4  2  0
  4  5  1  0
  5  6  2  0
  6  7  1  0
  7  8  2  0
  8  9  1  0
  6 10  1  0
  5 11  1  0
  4 12  1  0
  2 13  1  0
 13 14  2  0
 14 15  1  0
 15 16  2  0
 16 17  1  0
 17 18  1  0
 18 19  1  0
 19 20  2  0
 20 21  1  0
 21 22  2  0
 22 23  1  0
 23 24  2  0
 24 25  1  0
 23 26  1  0
 22 27  1  0
 21 28  1  0
 20 29  1  0
 18 30  1  0
 18 31  1  0
 16 32  1  0
 15 33  1  0
  8  3  1  0
 17 13  1  0
 24 19  1  0
M  END
>  <cnnaffinity>  (1) 
-5.66356

>  <filename>  (1) 
O=C(c1cccnc1)c1nccn1Cc1ccccc1I

$$$$
