
     RDKit          3D

 29 30  0  0  0  0  0  0  0  0999 V2000
    4.9857    1.7713   16.9792 H   0  0  0  0  0  0  0  0  0  0  0  0
    5.4369    1.2866   17.8454 C   0  0  0  0  0  0  0  0  0  0  0  0
    6.6053    0.6544   17.6395 N   0  0  0  0  0  0  0  0  0  0  0  0
    7.1779    0.0442   18.6858 C   0  0  0  0  0  0  0  0  0  0  0  0
    8.1304   -0.4485   18.4821 H   0  0  0  0  0  0  0  0  0  0  0  0
    6.6272    0.0308   19.9719 C   0  0  0  0  0  0  0  0  0  0  0  0
    7.3059   -0.6941   21.0706 C   0  0  0  0  0  0  0  0  0  0  0  0
    8.0587   -2.1411   20.9433 S   0  0  0  0  0  0  0  0  0  0  0  0
    7.2581   -0.1132   22.3100 N   0  0  0  0  0  0  0  0  0  0  0  0
    7.4524   -0.7568   23.0616 H   0  0  0  0  0  0  0  0  0  0  0  0
    7.4590    1.2354   22.5859 C   0  0  0  0  0  0  0  0  0  0  0  0
    7.7440    2.0158   21.6995 O   0  0  0  0  0  0  0  0  0  0  0  0
    7.2833    1.6773   24.0504 C   0  0  0  0  0  0  0  0  0  0  0  0
    6.9848    0.7676   25.0030 N   0  0  0  0  0  0  0  0  0  0  0  0
    6.7586    1.1863   26.2444 C   0  0  0  0  0  0  0  0  0  0  0  0
    6.4735    0.4318   26.9701 H   0  0  0  0  0  0  0  0  0  0  0  0
    6.8486    2.5322   26.6053 C   0  0  0  0  0  0  0  0  0  0  0  0
    6.6081    2.8754   28.0375 C   0  0  0  0  0  0  0  0  0  0  0  0
    6.1807    4.1391   28.1953 F   0  0  0  0  0  0  0  0  0  0  0  0
    7.7191    2.7468   28.7809 F   0  0  0  0  0  0  0  0  0  0  0  0
    5.6839    2.0739   28.6031 F   0  0  0  0  0  0  0  0  0  0  0  0
    7.1970    3.4808   25.6339 C   0  0  0  0  0  0  0  0  0  0  0  0
    7.2772    4.5367   25.8758 H   0  0  0  0  0  0  0  0  0  0  0  0
    7.4164    3.0465   24.3353 C   0  0  0  0  0  0  0  0  0  0  0  0
    7.6741    3.7192   23.5258 H   0  0  0  0  0  0  0  0  0  0  0  0
    5.3938    0.6817   20.1640 C   0  0  0  0  0  0  0  0  0  0  0  0
    4.9244    0.7002   21.1469 H   0  0  0  0  0  0  0  0  0  0  0  0
    4.7920    1.3201   19.0854 C   0  0  0  0  0  0  0  0  0  0  0  0
    3.8474    1.8453   19.1990 H   0  0  0  0  0  0  0  0  0  0  0  0
  1  2  1  0
  2  3  2  0
  3  4  1  0
  4  5  1  0
  4  6  2  0
  6  7  1  0
  7  8  2  0
  7  9  1  0
  9 10  1  0
  9 11  1  0
 11 12  2  0
 11 13  1  0
 13 14  2  0
 14 15  1  0
 15 16  1  0
 15 17  2  0
 17 18  1  0
 18 19  1  0
 18 20  1  0
 18 21  1  0
 17 22  1  0
 22 23  1  0
 22 24  2  0
 24 25  1  0
  6 26  1  0
 26 27  1  0
 26 28  2  0
 28 29  1  0
 28  2  1  0
 24 13  1  0
M  END
>  <cnnaffinity>  (1) 
-4.59371

>  <filename>  (1) 
O=C(NC(=S)c1cccnc1)c1ccc(C(F)(F)F)cn1

$$$$
