
     RDKit          3D

 26 27  0  0  0  0  0  0  0  0999 V2000
    4.9879    1.7987   17.0338 H   0  0  0  0  0  0  0  0  0  0  0  0
    5.4572    1.2940   17.8728 C   0  0  0  0  0  0  0  0  0  0  0  0
    6.6220    0.6762   17.6269 N   0  0  0  0  0  0  0  0  0  0  0  0
    7.2197    0.0623   18.6507 C   0  0  0  0  0  0  0  0  0  0  0  0
    8.1619   -0.4405   18.4255 H   0  0  0  0  0  0  0  0  0  0  0  0
    6.7107    0.0513   19.9602 C   0  0  0  0  0  0  0  0  0  0  0  0
    7.5844   -0.6522   20.9535 C   0  0  0  0  0  0  0  0  0  0  0  0
    8.5326   -1.3260   20.6092 O   0  0  0  0  0  0  0  0  0  0  0  0
    7.2515   -0.4388   22.2878 N   0  0  0  0  0  0  0  0  0  0  0  0
    6.3612    0.0138   22.4145 H   0  0  0  0  0  0  0  0  0  0  0  0
    7.5851   -1.3343   23.3132 N   0  0  0  0  0  0  0  0  0  0  0  0
    8.4183   -1.1144   23.8482 H   0  0  0  0  0  0  0  0  0  0  0  0
    7.1831   -2.6600   23.3217 C   0  0  0  0  0  0  0  0  0  0  0  0
    6.3697   -3.1330   22.5468 O   0  0  0  0  0  0  0  0  0  0  0  0
    7.8303   -3.5084   24.3759 C   0  0  0  0  0  0  0  0  0  0  0  0
    8.6205   -2.9361   25.3488 O   0  0  0  0  0  0  0  0  0  0  0  0
    9.0846   -3.9408   26.1265 C   0  0  0  0  0  0  0  0  0  0  0  0
    9.7242   -3.6684   26.9517 H   0  0  0  0  0  0  0  0  0  0  0  0
    8.6265   -5.1351   25.6835 C   0  0  0  0  0  0  0  0  0  0  0  0
    8.8555   -6.0999   26.1106 H   0  0  0  0  0  0  0  0  0  0  0  0
    7.8071   -4.8628   24.5487 C   0  0  0  0  0  0  0  0  0  0  0  0
    7.2759   -5.5778   23.9291 H   0  0  0  0  0  0  0  0  0  0  0  0
    5.4724    0.6774   20.1920 C   0  0  0  0  0  0  0  0  0  0  0  0
    4.9865    0.6884   21.1696 H   0  0  0  0  0  0  0  0  0  0  0  0
    4.8407    1.3105   19.1263 C   0  0  0  0  0  0  0  0  0  0  0  0
    3.9023    1.8350   19.2686 H   0  0  0  0  0  0  0  0  0  0  0  0
  1  2  1  0
  2  3  2  0
  3  4  1  0
  4  5  1  0
  4  6  2  0
  6  7  1  0
  7  8  2  0
  7  9  1  0
  9 10  1  0
  9 11  1  0
 11 12  1  0
 11 13  1  0
 13 14  2  0
 13 15  1  0
 15 16  1  0
 16 17  1  0
 17 18  1  0
 17 19  2  0
 19 20  1  0
 19 21  1  0
 21 22  1  0
  6 23  1  0
 23 24  1  0
 23 25  2  0
 25 26  1  0
 25  2  1  0
 21 15  2  0
M  END
>  <cnnaffinity>  (1) 
-4.73754

>  <filename>  (1) 
O=C(NNC(=O)c1ccco1)c1cccnc1

$$$$
