
     RDKit          3D

 36 38  0  0  0  0  0  0  0  0999 V2000
    5.0093    1.7787   16.9392 H   0  0  0  0  0  0  0  0  0  0  0  0
    5.4447    1.3171   17.8228 C   0  0  0  0  0  0  0  0  0  0  0  0
    6.6332    0.7134   17.6596 N   0  0  0  0  0  0  0  0  0  0  0  0
    7.1797    0.1101   18.7199 C   0  0  0  0  0  0  0  0  0  0  0  0
    8.1402   -0.3764   18.5505 H   0  0  0  0  0  0  0  0  0  0  0  0
    6.5907    0.0831   19.9967 C   0  0  0  0  0  0  0  0  0  0  0  0
    7.2453   -0.6248   21.0567 N   0  0  0  0  0  0  0  0  0  0  0  0
    7.5906   -1.9475   20.9572 C   0  0  0  0  0  0  0  0  0  0  0  0
    7.2703   -2.4880   20.0847 H   0  0  0  0  0  0  0  0  0  0  0  0
    8.2164   -2.3491   22.1092 C   0  0  0  0  0  0  0  0  0  0  0  0
    8.5890   -3.3455   22.3188 H   0  0  0  0  0  0  0  0  0  0  0  0
    8.2292   -1.2339   22.9795 C   0  0  0  0  0  0  0  0  0  0  0  0
    8.6549   -1.1838   23.9812 H   0  0  0  0  0  0  0  0  0  0  0  0
    7.6140   -0.1868   22.3312 C   0  0  0  0  0  0  0  0  0  0  0  0
    7.2797    1.1430   22.9015 C   0  0  0  0  0  0  0  0  0  0  0  0
    6.9781    1.2692   24.0830 O   0  0  0  0  0  0  0  0  0  0  0  0
    7.3344    2.2135   22.0701 N   0  0  0  0  0  0  0  0  0  0  0  0
    7.5661    2.0625   21.1038 H   0  0  0  0  0  0  0  0  0  0  0  0
    7.0470    3.5530   22.5568 C   0  0  0  0  0  0  0  0  0  0  0  0
    7.0134    4.2102   21.6802 H   0  0  0  0  0  0  0  0  0  0  0  0
    6.0483    3.5792   23.0103 H   0  0  0  0  0  0  0  0  0  0  0  0
    8.0971    4.0429   23.5383 C   0  0  0  0  0  0  0  0  0  0  0  0
    7.8231    4.2684   24.8944 C   0  0  0  0  0  0  0  0  0  0  0  0
    6.8532    3.9740   25.2808 H   0  0  0  0  0  0  0  0  0  0  0  0
    8.7945    4.8124   25.7398 C   0  0  0  0  0  0  0  0  0  0  0  0
    8.5683    4.9613   26.7938 H   0  0  0  0  0  0  0  0  0  0  0  0
   10.0465    5.1566   25.2231 C   0  0  0  0  0  0  0  0  0  0  0  0
   10.7877    5.6314   25.8563 H   0  0  0  0  0  0  0  0  0  0  0  0
   10.3539    4.8632   23.8892 C   0  0  0  0  0  0  0  0  0  0  0  0
   11.3213    5.1076   23.4643 H   0  0  0  0  0  0  0  0  0  0  0  0
    9.3986    4.2571   23.0776 C   0  0  0  0  0  0  0  0  0  0  0  0
    9.6621    3.9096   22.0869 H   0  0  0  0  0  0  0  0  0  0  0  0
    5.3432    0.7058   20.1545 C   0  0  0  0  0  0  0  0  0  0  0  0
    4.8534    0.7040   21.1288 H   0  0  0  0  0  0  0  0  0  0  0  0
    4.7665    1.3318   19.0439 C   0  0  0  0  0  0  0  0  0  0  0  0
    3.8036    1.8253   19.1164 H   0  0  0  0  0  0  0  0  0  0  0  0
  1  2  1  0
  2  3  2  0
  3  4  1  0
  4  5  1  0
  4  6  2  0
  6  7  1  0
  7  8  1  0
  8  9  1  0
  8 10  2  0
 10 11  1  0
 10 12  1  0
 12 13  1  0
 12 14  2  0
 14 15  1  0
 15 16  2  0
 15 17  1  0
 17 18  1  0
 17 19  1  0
 19 20  1  0
 19 21  1  0
 19 22  1  0
 22 23  2  0
 23 24  1  0
 23 25  1  0
 25 26  1  0
 25 27  2  0
 27 28  1  0
 27 29  1  0
 29 30  1  0
 29 31  2  0
 31 32  1  0
  6 33  1  0
 33 34  1  0
 33 35  2  0
 35 36  1  0
 35  2  1  0
 14  7  1  0
 31 22  1  0
M  END
>  <cnnaffinity>  (1) 
-4.87819

>  <filename>  (1) 
O=C(NCc1ccccc1)c1cccn1-c1cccnc1

$$$$
