
     RDKit          3D

 39 42  0  0  0  0  0  0  0  0999 V2000
    5.0158    1.7927   16.9034 H   0  0  0  0  0  0  0  0  0  0  0  0
    5.4721    1.3133   17.7648 C   0  0  0  0  0  0  0  0  0  0  0  0
    6.6321    0.6803   17.5349 N   0  0  0  0  0  0  0  0  0  0  0  0
    7.2111    0.0481   18.5584 C   0  0  0  0  0  0  0  0  0  0  0  0
    8.1533   -0.4578   18.3388 H   0  0  0  0  0  0  0  0  0  0  0  0
    6.6572    0.0113   19.8440 C   0  0  0  0  0  0  0  0  0  0  0  0
    7.2949   -0.7270   20.9364 C   0  0  0  0  0  0  0  0  0  0  0  0
    6.6692   -0.8863   22.0536 N   0  0  0  0  0  0  0  0  0  0  0  0
    7.4540   -1.5594   22.9366 N   0  0  0  0  0  0  0  0  0  0  0  0
    7.3632   -2.0897   24.1977 C   0  0  0  0  0  0  0  0  0  0  0  0
    6.2796   -2.0597   25.0675 N   0  0  0  0  0  0  0  0  0  0  0  0
    6.3942   -2.7526   25.7914 H   0  0  0  0  0  0  0  0  0  0  0  0
    5.6245   -0.8837   25.3949 C   0  0  0  0  0  0  0  0  0  0  0  0
    5.9871    0.1824   24.9590 O   0  0  0  0  0  0  0  0  0  0  0  0
    4.3888   -1.0332   26.2828 C   0  0  0  0  0  0  0  0  0  0  0  0
    4.3249   -2.0752   26.6166 H   0  0  0  0  0  0  0  0  0  0  0  0
    3.1310   -0.7234   25.4222 C   0  0  0  0  0  0  0  0  0  0  0  0
    3.3549    0.1670   24.8187 H   0  0  0  0  0  0  0  0  0  0  0  0
    2.9696   -1.5615   24.7353 H   0  0  0  0  0  0  0  0  0  0  0  0
    1.8233   -0.4836   26.1977 C   0  0  0  0  0  0  0  0  0  0  0  0
    1.3469   -1.4378   26.4705 H   0  0  0  0  0  0  0  0  0  0  0  0
    1.1211    0.0134   25.5190 H   0  0  0  0  0  0  0  0  0  0  0  0
    2.0238    0.3817   27.4478 C   0  0  0  0  0  0  0  0  0  0  0  0
    1.0929    0.4620   28.0252 H   0  0  0  0  0  0  0  0  0  0  0  0
    2.2731    1.4087   27.1408 H   0  0  0  0  0  0  0  0  0  0  0  0
    3.1751   -0.1503   28.3115 C   0  0  0  0  0  0  0  0  0  0  0  0
    2.9589   -1.1841   28.6244 H   0  0  0  0  0  0  0  0  0  0  0  0
    3.2673    0.4299   29.2333 H   0  0  0  0  0  0  0  0  0  0  0  0
    4.4936   -0.1235   27.5265 C   0  0  0  0  0  0  0  0  0  0  0  0
    5.3311   -0.4397   28.1651 H   0  0  0  0  0  0  0  0  0  0  0  0
    4.7269    0.9017   27.1979 H   0  0  0  0  0  0  0  0  0  0  0  0
    8.4241   -2.7882   24.4601 N   0  0  0  0  0  0  0  0  0  0  0  0
    9.2822   -2.7185   23.3738 N   0  0  0  0  0  0  0  0  0  0  0  0
    8.6707   -1.9981   22.4863 C   0  0  0  0  0  0  0  0  0  0  0  0
    8.9234   -1.4395   20.8587 S   0  0  0  0  0  0  0  0  0  0  0  0
    5.4472    0.6935   20.0808 C   0  0  0  0  0  0  0  0  0  0  0  0
    5.0191    0.6953   21.0838 H   0  0  0  0  0  0  0  0  0  0  0  0
    4.8422    1.3521   19.0150 C   0  0  0  0  0  0  0  0  0  0  0  0
    3.9064    1.8853   19.1385 H   0  0  0  0  0  0  0  0  0  0  0  0
  1  2  1  0
  2  3  2  0
  3  4  1  0
  4  5  1  0
  4  6  2  0
  6  7  1  0
  7  8  2  0
  8  9  1  0
  9 10  1  0
 10 11  1  0
 11 12  1  0
 11 13  1  0
 13 14  2  0
 13 15  1  0
 15 16  1  0
 15 17  1  0
 17 18  1  0
 17 19  1  0
 17 20  1  0
 20 21  1  0
 20 22  1  0
 20 23  1  0
 23 24  1  0
 23 25  1  0
 23 26  1  0
 26 27  1  0
 26 28  1  0
 26 29  1  0
 29 30  1  0
 29 31  1  0
 10 32  2  0
 32 33  1  0
 33 34  2  0
 34 35  1  0
  6 36  1  0
 36 37  1  0
 36 38  2  0
 38 39  1  0
 38  2  1  0
 35  7  1  0
 34  9  1  0
 29 15  1  0
M  END
>  <cnnaffinity>  (1) 
-5.43869

>  <filename>  (1) 
O=C(Nc1nnc2sc(-c3cccnc3)nn12)C1CCCCC1

$$$$
