
     RDKit          3D

 36 37  0  0  0  0  0  0  0  0999 V2000
   10.8512   -2.7229   25.2593 H   0  0  0  0  0  0  0  0  0  0  0  0
   10.8334   -3.0216   24.3291 O   0  0  0  0  0  0  0  0  0  0  0  0
   10.5470   -4.3980   24.4125 N   0  0  0  0  0  0  0  0  0  0  0  0
   10.3531   -4.7361   23.4805 H   0  0  0  0  0  0  0  0  0  0  0  0
    9.6367   -4.8169   25.3654 C   0  0  0  0  0  0  0  0  0  0  0  0
    9.4793   -4.2160   26.4170 O   0  0  0  0  0  0  0  0  0  0  0  0
    8.7878   -5.9959   24.9448 C   0  0  0  0  0  0  0  0  0  0  0  0
    9.2952   -6.5876   24.1761 H   0  0  0  0  0  0  0  0  0  0  0  0
    8.6505   -6.6407   25.8180 H   0  0  0  0  0  0  0  0  0  0  0  0
    7.4166   -5.4764   24.4430 C   0  0  0  0  0  0  0  0  0  0  0  0
    6.7832   -6.3013   24.1101 H   0  0  0  0  0  0  0  0  0  0  0  0
    6.8911   -5.0163   25.2920 H   0  0  0  0  0  0  0  0  0  0  0  0
    7.5118   -4.4742   23.2863 C   0  0  0  0  0  0  0  0  0  0  0  0
    8.3139   -4.7811   22.5974 H   0  0  0  0  0  0  0  0  0  0  0  0
    6.5966   -4.4955   22.6840 H   0  0  0  0  0  0  0  0  0  0  0  0
    7.7149   -3.0095   23.7168 C   0  0  0  0  0  0  0  0  0  0  0  0
    6.8083   -2.7006   24.2654 H   0  0  0  0  0  0  0  0  0  0  0  0
    8.5450   -2.8812   24.4214 H   0  0  0  0  0  0  0  0  0  0  0  0
    7.9235   -2.1229   22.5308 C   0  0  0  0  0  0  0  0  0  0  0  0
    9.0303   -1.4902   22.0964 C   0  0  0  0  0  0  0  0  0  0  0  0
   10.0365   -1.5407   22.4953 H   0  0  0  0  0  0  0  0  0  0  0  0
    8.7903   -0.7604   20.9245 N   0  0  0  0  0  0  0  0  0  0  0  0
    9.1296    0.2012   20.9200 H   0  0  0  0  0  0  0  0  0  0  0  0
    7.4006   -0.8456   20.7361 N   0  0  0  0  0  0  0  0  0  0  0  0
    6.7560   -0.1178   19.7098 C   0  0  0  0  0  0  0  0  0  0  0  0
    7.3588    0.0611   18.4462 C   0  0  0  0  0  0  0  0  0  0  0  0
    8.3212   -0.4033   18.2393 H   0  0  0  0  0  0  0  0  0  0  0  0
    6.7916    0.7624   17.4588 N   0  0  0  0  0  0  0  0  0  0  0  0
    5.6044    1.3453   17.7024 C   0  0  0  0  0  0  0  0  0  0  0  0
    5.1785    1.9370   16.8941 H   0  0  0  0  0  0  0  0  0  0  0  0
    4.9217    1.2203   18.9203 C   0  0  0  0  0  0  0  0  0  0  0  0
    3.9650    1.7165   19.0590 H   0  0  0  0  0  0  0  0  0  0  0  0
    5.4984    0.4567   19.9398 C   0  0  0  0  0  0  0  0  0  0  0  0
    5.0068    0.3005   20.9002 H   0  0  0  0  0  0  0  0  0  0  0  0
    6.8345   -1.7965   21.5991 C   0  0  0  0  0  0  0  0  0  0  0  0
    5.6961   -2.2311   21.5316 O   0  0  0  0  0  0  0  0  0  0  0  0
  1  2  1  0
  2  3  1  0
  3  4  1  0
  3  5  1  0
  5  6  2  0
  5  7  1  0
  7  8  1  0
  7  9  1  0
  7 10  1  0
 10 11  1  0
 10 12  1  0
 10 13  1  0
 13 14  1  0
 13 15  1  0
 13 16  1  0
 16 17  1  0
 16 18  1  0
 16 19  1  0
 19 20  2  0
 20 21  1  0
 20 22  1  0
 22 23  1  0
 22 24  1  0
 24 25  1  0
 25 26  2  0
 26 27  1  0
 26 28  1  0
 28 29  2  0
 29 30  1  0
 29 31  1  0
 31 32  1  0
 31 33  2  0
 33 34  1  0
 24 35  1  0
 35 36  2  0
 35 19  1  0
 33 25  1  0
M  END
>  <cnnaffinity>  (1) 
-5.00826

>  <filename>  (1) 
O=C(CCCCc1c[nH]n(-c2cccnc2)c1=O)NO

$$$$
