
     RDKit          3D

 35 37  0  0  0  0  0  0  0  0999 V2000
    4.9307    1.7731   17.0134 H   0  0  0  0  0  0  0  0  0  0  0  0
    5.4134    1.2787   17.8567 C   0  0  0  0  0  0  0  0  0  0  0  0
    6.5764    0.6614   17.6037 N   0  0  0  0  0  0  0  0  0  0  0  0
    7.1951    0.0458   18.6241 C   0  0  0  0  0  0  0  0  0  0  0  0
    8.1380   -0.4340   18.3663 H   0  0  0  0  0  0  0  0  0  0  0  0
    6.7037   -0.0239   19.9676 C   0  0  0  0  0  0  0  0  0  0  0  0
    7.3720   -0.6904   20.9717 N   0  0  0  0  0  0  0  0  0  0  0  0
    8.6380   -1.4034   20.9877 C   0  0  0  0  0  0  0  0  0  0  0  0
    9.5115   -0.7917   20.7264 H   0  0  0  0  0  0  0  0  0  0  0  0
    8.6453   -2.3269   20.4013 H   0  0  0  0  0  0  0  0  0  0  0  0
    8.4236   -1.6287   22.5146 C   0  0  0  0  0  0  0  0  0  0  0  0
    8.3234   -2.6845   22.7856 H   0  0  0  0  0  0  0  0  0  0  0  0
    9.5015   -1.0940   23.4272 C   0  0  0  0  0  0  0  0  0  0  0  0
   10.1746   -1.8325   24.0910 O   0  0  0  0  0  0  0  0  0  0  0  0
    9.7621    0.8314   23.4857 S   0  0  0  0  0  0  0  0  0  0  0  0
    9.2816    1.4197   22.2331 O   0  0  0  0  0  0  0  0  0  0  0  0
   11.1176    1.1086   23.9487 O   0  0  0  0  0  0  0  0  0  0  0  0
    8.6309    1.4025   24.7964 C   0  0  0  0  0  0  0  0  0  0  0  0
    8.7514    0.8856   26.0947 C   0  0  0  0  0  0  0  0  0  0  0  0
    9.4866    0.1229   26.3481 H   0  0  0  0  0  0  0  0  0  0  0  0
    7.9055    1.3746   27.0964 C   0  0  0  0  0  0  0  0  0  0  0  0
    7.9982    0.9933   28.1105 H   0  0  0  0  0  0  0  0  0  0  0  0
    6.9540    2.3615   26.8148 C   0  0  0  0  0  0  0  0  0  0  0  0
    6.3029    2.7428   27.6015 H   0  0  0  0  0  0  0  0  0  0  0  0
    6.8435    2.8571   25.5094 C   0  0  0  0  0  0  0  0  0  0  0  0
    6.1087    3.6240   25.2792 H   0  0  0  0  0  0  0  0  0  0  0  0
    7.6749    2.3775   24.4936 C   0  0  0  0  0  0  0  0  0  0  0  0
    7.5837    2.7675   23.4795 H   0  0  0  0  0  0  0  0  0  0  0  0
    7.0543   -0.8962   22.3752 C   0  0  0  0  0  0  0  0  0  0  0  0
    6.1726   -1.5317   22.5486 H   0  0  0  0  0  0  0  0  0  0  0  0
    6.9532    0.0362   22.9505 H   0  0  0  0  0  0  0  0  0  0  0  0
    5.4673    0.6288   20.1934 C   0  0  0  0  0  0  0  0  0  0  0  0
    5.0176    0.6205   21.1860 H   0  0  0  0  0  0  0  0  0  0  0  0
    4.8354    1.2861   19.1288 C   0  0  0  0  0  0  0  0  0  0  0  0
    3.9045    1.8176   19.2749 H   0  0  0  0  0  0  0  0  0  0  0  0
  1  2  1  0
  2  3  2  0
  3  4  1  0
  4  5  1  0
  4  6  2  0
  6  7  1  0
  7  8  1  0
  8  9  1  0
  8 10  1  0
  8 11  1  0
 11 12  1  0
 11 13  1  0
 13 14  2  0
 13 15  1  0
 15 16  2  0
 15 17  2  0
 15 18  1  0
 18 19  2  0
 19 20  1  0
 19 21  1  0
 21 22  1  0
 21 23  2  0
 23 24  1  0
 23 25  1  0
 25 26  1  0
 25 27  2  0
 27 28  1  0
 11 29  1  0
 29 30  1  0
 29 31  1  0
  6 32  1  0
 32 33  1  0
 32 34  2  0
 34 35  1  0
 34  2  1  0
 29  7  1  0
 27 18  1  0
M  END
>  <cnnaffinity>  (1) 
-5.09643

>  <filename>  (1) 
O=C(C1CN(c2cccnc2)C1)S(=O)(=O)c1ccccc1

$$$$
