
     RDKit          3D

 34 36  0  0  0  0  0  0  0  0999 V2000
    4.9515    1.7945   16.9676 H   0  0  0  0  0  0  0  0  0  0  0  0
    5.4186    1.2969   17.8178 C   0  0  0  0  0  0  0  0  0  0  0  0
    6.5888    0.6788   17.5857 N   0  0  0  0  0  0  0  0  0  0  0  0
    7.1824    0.0595   18.6136 C   0  0  0  0  0  0  0  0  0  0  0  0
    8.1418   -0.4169   18.4131 H   0  0  0  0  0  0  0  0  0  0  0  0
    6.6377    0.0138   19.9146 C   0  0  0  0  0  0  0  0  0  0  0  0
    7.2764   -0.7010   20.9820 N   0  0  0  0  0  0  0  0  0  0  0  0
    7.5615   -2.0426   21.0511 C   0  0  0  0  0  0  0  0  0  0  0  0
    7.2553   -2.7489   20.2961 H   0  0  0  0  0  0  0  0  0  0  0  0
    8.1526   -2.3418   22.1729 N   0  0  0  0  0  0  0  0  0  0  0  0
    8.2352   -1.1948   22.9047 N   0  0  0  0  0  0  0  0  0  0  0  0
    7.6892   -0.2201   22.2119 C   0  0  0  0  0  0  0  0  0  0  0  0
    7.4300    1.1839   22.7484 C   0  0  0  0  0  0  0  0  0  0  0  0
    7.1524    2.1396   22.0436 O   0  0  0  0  0  0  0  0  0  0  0  0
    7.4776    1.2855   24.1082 N   0  0  0  0  0  0  0  0  0  0  0  0
    7.9120    0.5085   24.5891 H   0  0  0  0  0  0  0  0  0  0  0  0
    7.5118    2.6068   24.7288 C   0  0  0  0  0  0  0  0  0  0  0  0
    6.6044    3.1483   24.4361 H   0  0  0  0  0  0  0  0  0  0  0  0
    7.4848    2.4727   25.8168 H   0  0  0  0  0  0  0  0  0  0  0  0
    8.7562    3.3772   24.3218 C   0  0  0  0  0  0  0  0  0  0  0  0
   10.0159    2.9040   24.7154 C   0  0  0  0  0  0  0  0  0  0  0  0
   10.0911    2.0276   25.3626 H   0  0  0  0  0  0  0  0  0  0  0  0
   11.1782    3.5609   24.3007 C   0  0  0  0  0  0  0  0  0  0  0  0
   12.1390    3.1318   24.5476 H   0  0  0  0  0  0  0  0  0  0  0  0
   11.1003    4.7318   23.5412 C   0  0  0  0  0  0  0  0  0  0  0  0
   11.9977    5.2852   23.2734 H   0  0  0  0  0  0  0  0  0  0  0  0
    9.8513    5.1929   23.1242 C   0  0  0  0  0  0  0  0  0  0  0  0
    9.7787    6.0681   22.4861 H   0  0  0  0  0  0  0  0  0  0  0  0
    8.6909    4.4968   23.4775 C   0  0  0  0  0  0  0  0  0  0  0  0
    7.7423    4.7776   23.0254 H   0  0  0  0  0  0  0  0  0  0  0  0
    5.4257    0.6654   20.1475 C   0  0  0  0  0  0  0  0  0  0  0  0
    5.0109    0.6927   21.1554 H   0  0  0  0  0  0  0  0  0  0  0  0
    4.8043    1.3105   19.0736 C   0  0  0  0  0  0  0  0  0  0  0  0
    3.8627    1.8278   19.2130 H   0  0  0  0  0  0  0  0  0  0  0  0
  1  2  1  0
  2  3  2  0
  3  4  1  0
  4  5  1  0
  4  6  2  0
  6  7  1  0
  7  8  1  0
  8  9  1  0
  8 10  2  0
 10 11  1  0
 11 12  2  0
 12 13  1  0
 13 14  2  0
 13 15  1  0
 15 16  1  0
 15 17  1  0
 17 18  1  0
 17 19  1  0
 17 20  1  0
 20 21  2  0
 21 22  1  0
 21 23  1  0
 23 24  1  0
 23 25  2  0
 25 26  1  0
 25 27  1  0
 27 28  1  0
 27 29  2  0
 29 30  1  0
  6 31  1  0
 31 32  1  0
 31 33  2  0
 33 34  1  0
 33  2  1  0
 12  7  1  0
 29 20  1  0
M  END
>  <cnnaffinity>  (1) 
-4.89611

>  <filename>  (1) 
O=C(NCc1ccccc1)c1nncn1-c1cccnc1

$$$$
