
     RDKit          3D

 30 31  0  0  0  0  0  0  0  0999 V2000
    4.9952    1.7681   16.9762 H   0  0  0  0  0  0  0  0  0  0  0  0
    5.4424    1.2852   17.8446 C   0  0  0  0  0  0  0  0  0  0  0  0
    6.6097    0.6496   17.6512 N   0  0  0  0  0  0  0  0  0  0  0  0
    7.1705    0.0415   18.7041 C   0  0  0  0  0  0  0  0  0  0  0  0
    8.1249   -0.4519   18.5085 H   0  0  0  0  0  0  0  0  0  0  0  0
    6.6009    0.0284   19.9796 C   0  0  0  0  0  0  0  0  0  0  0  0
    7.2743   -0.6849   21.0814 C   0  0  0  0  0  0  0  0  0  0  0  0
    8.0361   -2.1281   20.9773 S   0  0  0  0  0  0  0  0  0  0  0  0
    7.2284   -0.0875   22.3166 N   0  0  0  0  0  0  0  0  0  0  0  0
    7.5023   -0.7075   23.0559 H   0  0  0  0  0  0  0  0  0  0  0  0
    7.5060    1.2506   22.5553 C   0  0  0  0  0  0  0  0  0  0  0  0
    7.7136    2.0297   21.6521 O   0  0  0  0  0  0  0  0  0  0  0  0
    7.4618    1.6508   24.0070 C   0  0  0  0  0  0  0  0  0  0  0  0
    7.8850    0.8358   25.0739 C   0  0  0  0  0  0  0  0  0  0  0  0
    8.2930   -0.1593   24.9042 H   0  0  0  0  0  0  0  0  0  0  0  0
    7.8142    1.2946   26.3882 C   0  0  0  0  0  0  0  0  0  0  0  0
    8.2015    0.6599   27.1844 H   0  0  0  0  0  0  0  0  0  0  0  0
    7.2907    2.5700   26.6679 C   0  0  0  0  0  0  0  0  0  0  0  0
    7.1156    3.0306   28.1040 C   0  0  0  0  0  0  0  0  0  0  0  0
    7.4418    4.3308   28.2609 F   0  0  0  0  0  0  0  0  0  0  0  0
    5.8369    2.9053   28.5133 F   0  0  0  0  0  0  0  0  0  0  0  0
    7.8580    2.3262   28.9796 F   0  0  0  0  0  0  0  0  0  0  0  0
    6.8938    3.4000   25.6026 C   0  0  0  0  0  0  0  0  0  0  0  0
    6.5512    4.4160   25.7812 H   0  0  0  0  0  0  0  0  0  0  0  0
    6.9832    2.9408   24.2932 C   0  0  0  0  0  0  0  0  0  0  0  0
    6.6822    3.5826   23.4695 H   0  0  0  0  0  0  0  0  0  0  0  0
    5.3740    0.6881   20.1658 C   0  0  0  0  0  0  0  0  0  0  0  0
    4.9148    0.7197   21.1530 H   0  0  0  0  0  0  0  0  0  0  0  0
    4.7869    1.3211   19.0777 C   0  0  0  0  0  0  0  0  0  0  0  0
    3.8479    1.8508   19.1865 H   0  0  0  0  0  0  0  0  0  0  0  0
  1  2  1  0
  2  3  2  0
  3  4  1  0
  4  5  1  0
  4  6  2  0
  6  7  1  0
  7  8  2  0
  7  9  1  0
  9 10  1  0
  9 11  1  0
 11 12  2  0
 11 13  1  0
 13 14  2  0
 14 15  1  0
 14 16  1  0
 16 17  1  0
 16 18  2  0
 18 19  1  0
 19 20  1  0
 19 21  1  0
 19 22  1  0
 18 23  1  0
 23 24  1  0
 23 25  2  0
 25 26  1  0
  6 27  1  0
 27 28  1  0
 27 29  2  0
 29 30  1  0
 29  2  1  0
 25 13  1  0
M  END
>  <cnnaffinity>  (1) 
-4.70391

>  <filename>  (1) 
O=C(NC(=S)c1cccnc1)c1ccc(C(F)(F)F)cc1

$$$$
