
     RDKit          3D

 39 40  0  0  0  0  0  0  0  0999 V2000
   14.9502    3.6939   21.9863 H   0  0  0  0  0  0  0  0  0  0  0  0
   14.4613    4.5384   21.8778 O   0  0  0  0  0  0  0  0  0  0  0  0
   13.1453    4.2855   22.2582 N   0  0  0  0  0  0  0  0  0  0  0  0
   12.4869    4.6809   21.6025 H   0  0  0  0  0  0  0  0  0  0  0  0
   12.7728    3.1924   22.9810 C   0  0  0  0  0  0  0  0  0  0  0  0
   13.5918    2.4087   23.4424 O   0  0  0  0  0  0  0  0  0  0  0  0
   11.2714    3.0693   23.1670 C   0  0  0  0  0  0  0  0  0  0  0  0
   11.1375    2.9609   24.2464 H   0  0  0  0  0  0  0  0  0  0  0  0
   10.7574    3.9948   22.8778 H   0  0  0  0  0  0  0  0  0  0  0  0
   10.6452    1.8527   22.4603 C   0  0  0  0  0  0  0  0  0  0  0  0
    9.5596    1.8833   22.6265 H   0  0  0  0  0  0  0  0  0  0  0  0
   10.7826    1.9210   21.3711 H   0  0  0  0  0  0  0  0  0  0  0  0
   11.2210    0.5216   22.9556 C   0  0  0  0  0  0  0  0  0  0  0  0
   12.3075    0.6153   23.0473 H   0  0  0  0  0  0  0  0  0  0  0  0
   10.8531    0.3385   23.9760 H   0  0  0  0  0  0  0  0  0  0  0  0
   10.8596   -0.6600   22.0397 C   0  0  0  0  0  0  0  0  0  0  0  0
   11.3578   -1.5715   22.3954 H   0  0  0  0  0  0  0  0  0  0  0  0
   11.2203   -0.4726   21.0203 H   0  0  0  0  0  0  0  0  0  0  0  0
    9.3763   -0.9038   21.9921 C   0  0  0  0  0  0  0  0  0  0  0  0
    8.7226   -0.5405   20.9467 N   0  0  0  0  0  0  0  0  0  0  0  0
    7.3409   -0.7473   20.9303 N   0  0  0  0  0  0  0  0  0  0  0  0
    6.6667   -0.0237   19.9061 C   0  0  0  0  0  0  0  0  0  0  0  0
    7.2355    0.0711   18.6217 C   0  0  0  0  0  0  0  0  0  0  0  0
    8.1987   -0.3905   18.4274 H   0  0  0  0  0  0  0  0  0  0  0  0
    6.6375    0.6915   17.5987 N   0  0  0  0  0  0  0  0  0  0  0  0
    5.4591    1.2912   17.8392 C   0  0  0  0  0  0  0  0  0  0  0  0
    4.9980    1.7906   16.9898 H   0  0  0  0  0  0  0  0  0  0  0  0
    4.8372    1.2903   19.0926 C   0  0  0  0  0  0  0  0  0  0  0  0
    3.9007    1.8209   19.2243 H   0  0  0  0  0  0  0  0  0  0  0  0
    5.4447    0.6088   20.1540 C   0  0  0  0  0  0  0  0  0  0  0  0
    4.9908    0.5676   21.1443 H   0  0  0  0  0  0  0  0  0  0  0  0
    6.6707   -1.7568   21.6599 C   0  0  0  0  0  0  0  0  0  0  0  0
    5.5604   -2.1636   21.3801 O   0  0  0  0  0  0  0  0  0  0  0  0
    7.4892   -2.3454   22.8001 C   0  0  0  0  0  0  0  0  0  0  0  0
    7.8220   -3.3275   22.4389 H   0  0  0  0  0  0  0  0  0  0  0  0
    6.8000   -2.5304   23.6262 H   0  0  0  0  0  0  0  0  0  0  0  0
    8.6768   -1.4655   23.2171 C   0  0  0  0  0  0  0  0  0  0  0  0
    9.3915   -2.0339   23.8252 H   0  0  0  0  0  0  0  0  0  0  0  0
    8.3410   -0.6167   23.8391 H   0  0  0  0  0  0  0  0  0  0  0  0
  1  2  1  0
  2  3  1  0
  3  4  1  0
  3  5  1  0
  5  6  2  0
  5  7  1  0
  7  8  1  0
  7  9  1  0
  7 10  1  0
 10 11  1  0
 10 12  1  0
 10 13  1  0
 13 14  1  0
 13 15  1  0
 13 16  1  0
 16 17  1  0
 16 18  1  0
 16 19  1  0
 19 20  2  0
 20 21  1  0
 21 22  1  0
 22 23  2  0
 23 24  1  0
 23 25  1  0
 25 26  2  0
 26 27  1  0
 26 28  1  0
 28 29  1  0
 28 30  2  0
 30 31  1  0
 21 32  1  0
 32 33  2  0
 32 34  1  0
 34 35  1  0
 34 36  1  0
 34 37  1  0
 37 38  1  0
 37 39  1  0
 37 19  1  0
 30 22  1  0
M  END
>  <cnnaffinity>  (1) 
-5.62269

>  <filename>  (1) 
O=C(CCCCC1=NN(c2cccnc2)C(=O)CC1)NO

$$$$
