
     RDKit          3D

 38 39  0  0  0  0  0  0  0  0999 V2000
    3.7742   -6.0422   26.8443 H   0  0  0  0  0  0  0  0  0  0  0  0
    4.6525   -5.8516   26.4671 O   0  0  0  0  0  0  0  0  0  0  0  0
    4.2568   -5.2146   25.3611 C   0  0  0  0  0  0  0  0  0  0  0  0
    3.0685   -5.0953   25.1410 O   0  0  0  0  0  0  0  0  0  0  0  0
    5.3500   -4.6532   24.4390 C   0  0  0  0  0  0  0  0  0  0  0  0
    6.6345   -4.7449   24.8452 O   0  0  0  0  0  0  0  0  0  0  0  0
    7.1828   -4.3022   24.1615 H   0  0  0  0  0  0  0  0  0  0  0  0
    5.0281   -4.1033   23.2487 C   0  0  0  0  0  0  0  0  0  0  0  0
    4.0115   -4.1401   22.8808 H   0  0  0  0  0  0  0  0  0  0  0  0
    5.9904   -3.5966   22.2560 C   0  0  0  0  0  0  0  0  0  0  0  0
    5.7669   -3.7637   21.0692 O   0  0  0  0  0  0  0  0  0  0  0  0
    7.1625   -2.9826   22.7420 N   0  0  0  0  0  0  0  0  0  0  0  0
    8.2647   -2.8152   21.7821 C   0  0  0  0  0  0  0  0  0  0  0  0
    8.4814   -3.7969   21.3488 H   0  0  0  0  0  0  0  0  0  0  0  0
    9.1452   -2.5035   22.3536 H   0  0  0  0  0  0  0  0  0  0  0  0
    8.0223   -1.8475   20.6169 C   0  0  0  0  0  0  0  0  0  0  0  0
    8.9179   -1.8807   19.9823 H   0  0  0  0  0  0  0  0  0  0  0  0
    7.1939   -2.2740   20.0369 H   0  0  0  0  0  0  0  0  0  0  0  0
    7.7035   -0.4593   20.9167 N   0  0  0  0  0  0  0  0  0  0  0  0
    6.9402    0.1975   19.9236 C   0  0  0  0  0  0  0  0  0  0  0  0
    7.3150    0.1556   18.5505 C   0  0  0  0  0  0  0  0  0  0  0  0
    8.2335   -0.3530   18.2585 H   0  0  0  0  0  0  0  0  0  0  0  0
    6.6106    0.6873   17.5413 N   0  0  0  0  0  0  0  0  0  0  0  0
    5.4425    1.2781   17.8467 C   0  0  0  0  0  0  0  0  0  0  0  0
    4.8754    1.6953   17.0152 H   0  0  0  0  0  0  0  0  0  0  0  0
    4.9554    1.3615   19.1561 C   0  0  0  0  0  0  0  0  0  0  0  0
    3.9956    1.8307   19.3508 H   0  0  0  0  0  0  0  0  0  0  0  0
    5.7214    0.8406   20.2087 C   0  0  0  0  0  0  0  0  0  0  0  0
    5.3838    0.8958   21.2414 H   0  0  0  0  0  0  0  0  0  0  0  0
    7.8779    0.0660   22.2593 C   0  0  0  0  0  0  0  0  0  0  0  0
    8.9295   -0.0773   22.5539 H   0  0  0  0  0  0  0  0  0  0  0  0
    7.7304    1.1516   22.2050 H   0  0  0  0  0  0  0  0  0  0  0  0
    6.9220   -0.5060   23.3134 C   0  0  0  0  0  0  0  0  0  0  0  0
    6.9906    0.1266   24.2059 H   0  0  0  0  0  0  0  0  0  0  0  0
    5.9192   -0.3798   22.9099 H   0  0  0  0  0  0  0  0  0  0  0  0
    7.1207   -1.9508   23.8008 C   0  0  0  0  0  0  0  0  0  0  0  0
    8.0546   -2.0222   24.3785 H   0  0  0  0  0  0  0  0  0  0  0  0
    6.3123   -2.1925   24.5002 H   0  0  0  0  0  0  0  0  0  0  0  0
  1  2  1  0
  2  3  1  0
  3  4  2  0
  3  5  1  0
  5  6  1  0
  6  7  1  0
  5  8  2  3
  8  9  1  0
  8 10  1  0
 10 11  2  0
 10 12  1  0
 12 13  1  0
 13 14  1  0
 13 15  1  0
 13 16  1  0
 16 17  1  0
 16 18  1  0
 16 19  1  0
 19 20  1  0
 20 21  2  0
 21 22  1  0
 21 23  1  0
 23 24  2  0
 24 25  1  0
 24 26  1  0
 26 27  1  0
 26 28  2  0
 28 29  1  0
 19 30  1  0
 30 31  1  0
 30 32  1  0
 30 33  1  0
 33 34  1  0
 33 35  1  0
 33 36  1  0
 36 37  1  0
 36 38  1  0
 36 12  1  0
 28 20  1  0
M  END
>  <cnnaffinity>  (1) 
-5.02696

>  <filename>  (1) 
O=C(O)C(O)=CC(=O)N1CCCN(c2cccnc2)CC1

$$$$
