
     RDKit          3D

 30 31  0  0  0  0  0  0  0  0999 V2000
    5.2043    1.6107   16.9539 H   0  0  0  0  0  0  0  0  0  0  0  0
    5.6310    1.2156   17.8725 C   0  0  0  0  0  0  0  0  0  0  0  0
    6.7899    0.5493   17.7483 N   0  0  0  0  0  0  0  0  0  0  0  0
    7.3250    0.0475   18.8682 C   0  0  0  0  0  0  0  0  0  0  0  0
    8.3010   -0.4224   18.7623 H   0  0  0  0  0  0  0  0  0  0  0  0
    6.7283    0.1248   20.1467 C   0  0  0  0  0  0  0  0  0  0  0  0
    7.2879   -0.5790   21.3790 C   0  0  0  0  0  0  0  0  0  0  0  0
    6.4892   -1.0509   21.9656 H   0  0  0  0  0  0  0  0  0  0  0  0
    7.9733   -1.3747   21.0618 H   0  0  0  0  0  0  0  0  0  0  0  0
    8.0592    0.3165   22.3541 C   0  0  0  0  0  0  0  0  0  0  0  0
    7.6751    0.5100   23.4883 O   0  0  0  0  0  0  0  0  0  0  0  0
    9.4167    0.9001   21.7856 C   0  0  0  0  0  0  0  0  0  0  0  0
    9.6257    0.7969   20.5884 O   0  0  0  0  0  0  0  0  0  0  0  0
   10.2992    1.4459   22.6852 N   0  0  0  0  0  0  0  0  0  0  0  0
   10.0935    1.3265   23.6634 H   0  0  0  0  0  0  0  0  0  0  0  0
   11.3136    2.3915   22.4126 C   0  0  0  0  0  0  0  0  0  0  0  0
   11.5782    2.8158   21.1060 C   0  0  0  0  0  0  0  0  0  0  0  0
   11.0406    2.3399   20.3034 H   0  0  0  0  0  0  0  0  0  0  0  0
   12.4613    3.8672   20.8646 C   0  0  0  0  0  0  0  0  0  0  0  0
   12.6023    4.2470   19.8586 H   0  0  0  0  0  0  0  0  0  0  0  0
   13.1216    4.4512   21.9372 C   0  0  0  0  0  0  0  0  0  0  0  0
   13.9265    5.5050   21.7137 F   0  0  0  0  0  0  0  0  0  0  0  0
   12.9279    4.0029   23.2433 C   0  0  0  0  0  0  0  0  0  0  0  0
   13.4588    4.4958   24.0468 H   0  0  0  0  0  0  0  0  0  0  0  0
   12.0153    2.9659   23.4825 C   0  0  0  0  0  0  0  0  0  0  0  0
   11.8349    2.6309   24.4988 H   0  0  0  0  0  0  0  0  0  0  0  0
    5.5438    0.8663   20.2484 C   0  0  0  0  0  0  0  0  0  0  0  0
    5.0759    1.0078   21.2243 H   0  0  0  0  0  0  0  0  0  0  0  0
    4.9810    1.4125   19.0940 C   0  0  0  0  0  0  0  0  0  0  0  0
    4.0590    1.9856   19.1288 H   0  0  0  0  0  0  0  0  0  0  0  0
  1  2  1  0
  2  3  2  0
  3  4  1  0
  4  5  1  0
  4  6  2  0
  6  7  1  0
  7  8  1  0
  7  9  1  0
  7 10  1  0
 10 11  2  0
 10 12  1  0
 12 13  2  0
 12 14  1  0
 14 15  1  0
 14 16  1  0
 16 17  2  0
 17 18  1  0
 17 19  1  0
 19 20  1  0
 19 21  2  0
 21 22  1  0
 21 23  1  0
 23 24  1  0
 23 25  2  0
 25 26  1  0
  6 27  1  0
 27 28  1  0
 27 29  2  0
 29 30  1  0
 29  2  1  0
 25 16  1  0
M  END
>  <cnnaffinity>  (1) 
-4.96935

>  <filename>  (1) 
O=C(Cc1cccnc1)C(=O)Nc1ccc(F)cc1

$$$$
