
     RDKit          3D

 35 37  0  0  0  0  0  0  0  0999 V2000
    6.7062   -1.4006   21.6246 H   0  0  0  0  0  0  0  0  0  0  0  0
    7.3229   -0.7216   21.0325 C   0  0  0  0  0  0  0  0  0  0  0  0
    8.5981   -0.5029   21.3941 C   0  0  0  0  0  0  0  0  0  0  0  0
    9.3867   -1.1464   22.4551 C   0  0  0  0  0  0  0  0  0  0  0  0
    8.8519   -2.3796   23.2151 C   0  0  0  0  0  0  0  0  0  0  0  0
    7.9053   -3.0335   22.8105 O   0  0  0  0  0  0  0  0  0  0  0  0
    9.5013   -2.6722   24.3902 N   0  0  0  0  0  0  0  0  0  0  0  0
   10.3850   -2.2138   24.5534 H   0  0  0  0  0  0  0  0  0  0  0  0
    9.0535   -3.5971   25.3331 C   0  0  0  0  0  0  0  0  0  0  0  0
    9.9689   -4.3317   26.0803 C   0  0  0  0  0  0  0  0  0  0  0  0
   11.0375   -4.2455   25.9370 H   0  0  0  0  0  0  0  0  0  0  0  0
    9.4756   -5.2340   27.0145 C   0  0  0  0  0  0  0  0  0  0  0  0
   10.1731   -5.7945   27.6281 H   0  0  0  0  0  0  0  0  0  0  0  0
    8.1733   -5.4485   27.2370 N   0  0  0  0  0  0  0  0  0  0  0  0
    7.3059   -4.7246   26.5141 C   0  0  0  0  0  0  0  0  0  0  0  0
    6.2480   -4.9113   26.7126 H   0  0  0  0  0  0  0  0  0  0  0  0
    7.6875   -3.7860   25.5605 C   0  0  0  0  0  0  0  0  0  0  0  0
    6.9552   -3.2186   25.0047 H   0  0  0  0  0  0  0  0  0  0  0  0
   10.5206   -0.5735   22.6962 N   0  0  0  0  0  0  0  0  0  0  0  0
   10.6996    0.5551   21.7686 C   0  0  0  0  0  0  0  0  0  0  0  0
   11.6595    0.4476   21.2537 H   0  0  0  0  0  0  0  0  0  0  0  0
   10.7421    1.4916   22.3402 H   0  0  0  0  0  0  0  0  0  0  0  0
    9.4874    0.5570   20.7997 C   0  0  0  0  0  0  0  0  0  0  0  0
    8.9730    1.5185   20.7239 H   0  0  0  0  0  0  0  0  0  0  0  0
    9.7080    0.2623   19.7707 H   0  0  0  0  0  0  0  0  0  0  0  0
    6.6460   -0.0210   19.9147 C   0  0  0  0  0  0  0  0  0  0  0  0
    7.1587    0.0536   18.6012 C   0  0  0  0  0  0  0  0  0  0  0  0
    8.1015   -0.4331   18.3588 H   0  0  0  0  0  0  0  0  0  0  0  0
    6.5594    0.6823   17.5814 N   0  0  0  0  0  0  0  0  0  0  0  0
    5.3967    1.3023   17.8309 C   0  0  0  0  0  0  0  0  0  0  0  0
    4.9279    1.8048   16.9832 H   0  0  0  0  0  0  0  0  0  0  0  0
    4.7969    1.3062   19.0948 C   0  0  0  0  0  0  0  0  0  0  0  0
    3.8696    1.8476   19.2390 H   0  0  0  0  0  0  0  0  0  0  0  0
    5.4209    0.6272   20.1422 C   0  0  0  0  0  0  0  0  0  0  0  0
    4.9971    0.6179   21.1444 H   0  0  0  0  0  0  0  0  0  0  0  0
  1  2  1  0
  2  3  2  3
  3  4  1  0
  4  5  1  0
  5  6  2  0
  5  7  1  0
  7  8  1  0
  7  9  1  0
  9 10  2  0
 10 11  1  0
 10 12  1  0
 12 13  1  0
 12 14  2  0
 14 15  1  0
 15 16  1  0
 15 17  2  0
 17 18  1  0
  4 19  2  0
 19 20  1  0
 20 21  1  0
 20 22  1  0
 20 23  1  0
 23 24  1  0
 23 25  1  0
  2 26  1  0
 26 27  2  0
 27 28  1  0
 27 29  1  0
 29 30  2  0
 30 31  1  0
 30 32  1  0
 32 33  1  0
 32 34  2  0
 34 35  1  0
 23  3  1  0
 34 26  1  0
 17  9  1  0
M  END
>  <cnnaffinity>  (1) 
-4.9264

>  <filename>  (1) 
O=C(Nc1ccncc1)C1=NCCC1=Cc1cccnc1

$$$$
