
     RDKit          3D

 38 39  0  0  0  0  0  0  0  0999 V2000
    9.9936   -3.6441   24.1446 O   0  0  0  0  0  0  0  0  0  0  0  0
    9.1412   -3.9363   23.3258 C   0  0  0  0  0  0  0  0  0  0  0  0
    8.3656   -5.2458   23.3588 C   0  0  0  0  0  0  0  0  0  0  0  0
    7.7391   -5.4962   24.7127 C   0  0  0  0  0  0  0  0  0  0  0  0
    8.5646   -5.8414   25.7920 C   0  0  0  0  0  0  0  0  0  0  0  0
    8.0221   -6.1160   27.0473 C   0  0  0  0  0  0  0  0  0  0  0  0
    6.6432   -6.0227   27.2445 C   0  0  0  0  0  0  0  0  0  0  0  0
    5.8119   -5.6567   26.1869 C   0  0  0  0  0  0  0  0  0  0  0  0
    6.3571   -5.3559   24.9247 C   0  0  0  0  0  0  0  0  0  0  0  0
    5.4608   -4.8633   23.8095 C   0  0  0  0  0  0  0  0  0  0  0  0
    4.1932   -4.6711   24.2149 F   0  0  0  0  0  0  0  0  0  0  0  0
    5.8923   -3.6857   23.2919 F   0  0  0  0  0  0  0  0  0  0  0  0
    5.4112   -5.7251   22.7650 F   0  0  0  0  0  0  0  0  0  0  0  0
    4.7405   -5.5717   26.3432 H   0  0  0  0  0  0  0  0  0  0  0  0
    6.2139   -6.2347   28.2205 H   0  0  0  0  0  0  0  0  0  0  0  0
    8.6633   -6.3864   27.8809 H   0  0  0  0  0  0  0  0  0  0  0  0
    9.6416   -5.8604   25.6431 H   0  0  0  0  0  0  0  0  0  0  0  0
    7.6381   -5.2703   22.5498 H   0  0  0  0  0  0  0  0  0  0  0  0
    9.0799   -6.0440   23.1401 H   0  0  0  0  0  0  0  0  0  0  0  0
    8.8579   -3.1327   22.2617 N   0  0  0  0  0  0  0  0  0  0  0  0
    9.3069   -1.7425   22.2032 C   0  0  0  0  0  0  0  0  0  0  0  0
    8.6348   -1.0444   21.0458 C   0  0  0  0  0  0  0  0  0  0  0  0
    7.3409   -0.7028   21.0218 C   0  0  0  0  0  0  0  0  0  0  0  0
    6.6611   -0.0245   19.9025 C   0  0  0  0  0  0  0  0  0  0  0  0
    5.4257    0.6146   20.1140 C   0  0  0  0  0  0  0  0  0  0  0  0
    4.8261    1.2925   19.0538 C   0  0  0  0  0  0  0  0  0  0  0  0
    5.4690    1.2919   17.8105 C   0  0  0  0  0  0  0  0  0  0  0  0
    6.6350    0.6664   17.5763 N   0  0  0  0  0  0  0  0  0  0  0  0
    7.2051    0.0308   18.6039 C   0  0  0  0  0  0  0  0  0  0  0  0
    8.1399   -0.4863   18.3818 H   0  0  0  0  0  0  0  0  0  0  0  0
    5.0340    1.8050   16.9586 H   0  0  0  0  0  0  0  0  0  0  0  0
    3.8837    1.8193   19.1695 H   0  0  0  0  0  0  0  0  0  0  0  0
    4.9652    0.5842   21.1033 H   0  0  0  0  0  0  0  0  0  0  0  0
    6.7003   -0.9004   21.8895 H   0  0  0  0  0  0  0  0  0  0  0  0
    9.2636   -0.8032   20.1870 H   0  0  0  0  0  0  0  0  0  0  0  0
   10.3955   -1.7138   22.0850 H   0  0  0  0  0  0  0  0  0  0  0  0
    9.1013   -1.2177   23.1539 H   0  0  0  0  0  0  0  0  0  0  0  0
    8.0037   -3.3400   21.7686 H   0  0  0  0  0  0  0  0  0  0  0  0
  1  2  2  0
  2  3  1  0
  3  4  1  0
  4  5  2  0
  5  6  1  0
  6  7  2  0
  7  8  1  0
  8  9  2  0
  9 10  1  0
 10 11  1  0
 10 12  1  0
 10 13  1  0
  8 14  1  0
  7 15  1  0
  6 16  1  0
  5 17  1  0
  3 18  1  0
  3 19  1  0
  2 20  1  0
 20 21  1  0
 21 22  1  0
 22 23  2  3
 23 24  1  0
 24 25  2  0
 25 26  1  0
 26 27  2  0
 27 28  1  0
 28 29  2  0
 29 30  1  0
 27 31  1  0
 26 32  1  0
 25 33  1  0
 23 34  1  0
 22 35  1  0
 21 36  1  0
 21 37  1  0
 20 38  1  0
  9  4  1  0
 29 24  1  0
M  END
>  <cnnaffinity>  (1) 
-5.44651

>  <filename>  (1) 
O=C(Cc1ccccc1C(F)(F)F)NCC=Cc1cccnc1

$$$$
