
     RDKit          3D

 33 35  0  0  0  0  0  0  0  0999 V2000
    4.9738    1.6676   16.9566 H   0  0  0  0  0  0  0  0  0  0  0  0
    5.4657    1.2062   17.8119 C   0  0  0  0  0  0  0  0  0  0  0  0
    6.6377    0.5935   17.5710 N   0  0  0  0  0  0  0  0  0  0  0  0
    7.2872    0.0577   18.6149 C   0  0  0  0  0  0  0  0  0  0  0  0
    8.2338   -0.4290   18.3802 H   0  0  0  0  0  0  0  0  0  0  0  0
    6.8274    0.0992   19.9614 C   0  0  0  0  0  0  0  0  0  0  0  0
    7.5896   -0.3263   21.0541 N   0  0  0  0  0  0  0  0  0  0  0  0
    8.6433   -1.3466   21.0129 C   0  0  0  0  0  0  0  0  0  0  0  0
    8.3863   -2.1939   20.3673 H   0  0  0  0  0  0  0  0  0  0  0  0
    9.6505   -0.9889   20.7558 H   0  0  0  0  0  0  0  0  0  0  0  0
    8.3442   -1.6498   22.5045 C   0  0  0  0  0  0  0  0  0  0  0  0
    8.2478   -2.6993   22.7855 H   0  0  0  0  0  0  0  0  0  0  0  0
    9.3300   -1.0244   23.4662 C   0  0  0  0  0  0  0  0  0  0  0  0
    9.8684   -1.6648   24.3334 O   0  0  0  0  0  0  0  0  0  0  0  0
    9.5376    0.3237   23.2462 N   0  0  0  0  0  0  0  0  0  0  0  0
    9.0139    0.7291   22.4928 H   0  0  0  0  0  0  0  0  0  0  0  0
   10.5832    1.0415   23.7841 C   0  0  0  0  0  0  0  0  0  0  0  0
   11.4547    0.5449   24.4576 O   0  0  0  0  0  0  0  0  0  0  0  0
   10.5493    2.4966   23.4420 C   0  0  0  0  0  0  0  0  0  0  0  0
   11.9405    3.4095   23.9111 S   0  0  0  0  0  0  0  0  0  0  0  0
   11.2356    4.8675   23.3771 C   0  0  0  0  0  0  0  0  0  0  0  0
   11.7850    5.7953   23.4694 H   0  0  0  0  0  0  0  0  0  0  0  0
    9.9900    4.6822   22.8578 C   0  0  0  0  0  0  0  0  0  0  0  0
    9.3716    5.4837   22.4556 H   0  0  0  0  0  0  0  0  0  0  0  0
    9.5983    3.3161   22.8699 C   0  0  0  0  0  0  0  0  0  0  0  0
    8.6493    2.9962   22.4396 H   0  0  0  0  0  0  0  0  0  0  0  0
    7.0249   -0.8592   22.3034 C   0  0  0  0  0  0  0  0  0  0  0  0
    6.1564   -1.5153   22.1349 H   0  0  0  0  0  0  0  0  0  0  0  0
    6.7592   -0.1109   23.0615 H   0  0  0  0  0  0  0  0  0  0  0  0
    5.5629    0.6858   20.1688 C   0  0  0  0  0  0  0  0  0  0  0  0
    5.1330    0.6989   21.1696 H   0  0  0  0  0  0  0  0  0  0  0  0
    4.8894    1.2566   19.0858 C   0  0  0  0  0  0  0  0  0  0  0  0
    3.9359    1.7577   19.2214 H   0  0  0  0  0  0  0  0  0  0  0  0
  1  2  1  0
  2  3  2  0
  3  4  1  0
  4  5  1  0
  4  6  2  0
  6  7  1  0
  7  8  1  0
  8  9  1  0
  8 10  1  0
  8 11  1  0
 11 12  1  0
 11 13  1  0
 13 14  2  0
 13 15  1  0
 15 16  1  0
 15 17  1  0
 17 18  2  0
 17 19  1  0
 19 20  1  0
 20 21  1  0
 21 22  1  0
 21 23  2  0
 23 24  1  0
 23 25  1  0
 25 26  1  0
 11 27  1  0
 27 28  1  0
 27 29  1  0
  6 30  1  0
 30 31  1  0
 30 32  2  0
 32 33  1  0
 32  2  1  0
 27  7  1  0
 25 19  2  0
M  END
>  <cnnaffinity>  (1) 
-5.19152

>  <filename>  (1) 
O=C(NC(=O)C1CN(c2cccnc2)C1)c1cccs1

$$$$
