
     RDKit          3D

 32 34  0  0  0  0  0  0  0  0999 V2000
    4.9300    1.8240   16.9307 H   0  0  0  0  0  0  0  0  0  0  0  0
    5.3968    1.3128   17.7691 C   0  0  0  0  0  0  0  0  0  0  0  0
    6.5403    0.6624   17.5005 N   0  0  0  0  0  0  0  0  0  0  0  0
    7.1629    0.0393   18.5078 C   0  0  0  0  0  0  0  0  0  0  0  0
    8.0899   -0.4804   18.2686 H   0  0  0  0  0  0  0  0  0  0  0  0
    6.6619    0.0259   19.8231 C   0  0  0  0  0  0  0  0  0  0  0  0
    7.3313   -0.6550   20.8832 N   0  0  0  0  0  0  0  0  0  0  0  0
    6.7348   -1.6106   21.6772 C   0  0  0  0  0  0  0  0  0  0  0  0
    5.6964   -1.8826   21.5283 H   0  0  0  0  0  0  0  0  0  0  0  0
    7.6362   -2.0403   22.5878 C   0  0  0  0  0  0  0  0  0  0  0  0
    7.3092   -2.9725   23.7178 C   0  0  0  0  0  0  0  0  0  0  0  0
    6.1583   -3.2924   23.9591 O   0  0  0  0  0  0  0  0  0  0  0  0
    8.3900   -3.4241   24.4179 N   0  0  0  0  0  0  0  0  0  0  0  0
    9.2819   -3.2367   24.0104 H   0  0  0  0  0  0  0  0  0  0  0  0
    8.4263   -3.9926   25.6823 C   0  0  0  0  0  0  0  0  0  0  0  0
    7.3253   -3.9635   26.5380 C   0  0  0  0  0  0  0  0  0  0  0  0
    6.3923   -3.5152   26.2284 H   0  0  0  0  0  0  0  0  0  0  0  0
    7.4783   -4.5517   27.7908 C   0  0  0  0  0  0  0  0  0  0  0  0
    6.6533   -4.5253   28.5025 H   0  0  0  0  0  0  0  0  0  0  0  0
    8.5998   -5.1462   28.2138 N   0  0  0  0  0  0  0  0  0  0  0  0
    9.6462   -5.1278   27.3811 C   0  0  0  0  0  0  0  0  0  0  0  0
   10.5628   -5.5884   27.7390 H   0  0  0  0  0  0  0  0  0  0  0  0
    9.6243   -4.5595   26.1126 C   0  0  0  0  0  0  0  0  0  0  0  0
   10.5136   -4.5894   25.4913 H   0  0  0  0  0  0  0  0  0  0  0  0
    8.8122   -1.3047   22.3192 N   0  0  0  0  0  0  0  0  0  0  0  0
    9.7061   -1.2183   22.7820 H   0  0  0  0  0  0  0  0  0  0  0  0
    8.6125   -0.3999   21.3245 C   0  0  0  0  0  0  0  0  0  0  0  0
    9.6911    0.7668   20.8524 S   0  0  0  0  0  0  0  0  0  0  0  0
    5.4626    0.6888   20.0903 C   0  0  0  0  0  0  0  0  0  0  0  0
    5.0664    0.6802   21.1066 H   0  0  0  0  0  0  0  0  0  0  0  0
    4.8194    1.3507   19.0426 C   0  0  0  0  0  0  0  0  0  0  0  0
    3.8916    1.8891   19.2002 H   0  0  0  0  0  0  0  0  0  0  0  0
  1  2  1  0
  2  3  2  0
  3  4  1  0
  4  5  1  0
  4  6  2  0
  6  7  1  0
  7  8  1  0
  8  9  1  0
  8 10  2  0
 10 11  1  0
 11 12  2  0
 11 13  1  0
 13 14  1  0
 13 15  1  0
 15 16  2  0
 16 17  1  0
 16 18  1  0
 18 19  1  0
 18 20  2  0
 20 21  1  0
 21 22  1  0
 21 23  2  0
 23 24  1  0
 10 25  1  0
 25 26  1  0
 25 27  1  0
 27 28  2  0
  6 29  1  0
 29 30  1  0
 29 31  2  0
 31 32  1  0
 31  2  1  0
 27  7  1  0
 23 15  1  0
M  END
>  <cnnaffinity>  (1) 
-5.60315

>  <filename>  (1) 
O=C(Nc1ccncc1)c1cn(-c2cccnc2)c(=S)[nH]1

$$$$
