
     RDKit          3D

 27 28  0  0  0  0  0  0  0  0999 V2000
    4.9399    1.8104   16.9823 H   0  0  0  0  0  0  0  0  0  0  0  0
    5.4035    1.2877   17.8171 C   0  0  0  0  0  0  0  0  0  0  0  0
    6.5650    0.6624   17.5575 N   0  0  0  0  0  0  0  0  0  0  0  0
    7.1838    0.0366   18.5701 C   0  0  0  0  0  0  0  0  0  0  0  0
    8.1364   -0.4358   18.3292 H   0  0  0  0  0  0  0  0  0  0  0  0
    6.6866   -0.0069   19.8949 C   0  0  0  0  0  0  0  0  0  0  0  0
    7.3845   -0.6546   20.9613 N   0  0  0  0  0  0  0  0  0  0  0  0
    7.7820   -1.5740   20.8163 H   0  0  0  0  0  0  0  0  0  0  0  0
    7.4001   -0.2371   22.2794 C   0  0  0  0  0  0  0  0  0  0  0  0
    7.0067    0.8630   22.6336 O   0  0  0  0  0  0  0  0  0  0  0  0
    7.9617   -1.2483   23.3159 C   0  0  0  0  0  0  0  0  0  0  0  0
    8.2988   -2.5057   22.9444 N   0  0  0  0  0  0  0  0  0  0  0  0
    8.6870   -3.3678   23.8805 C   0  0  0  0  0  0  0  0  0  0  0  0
    8.9160   -4.3846   23.5689 H   0  0  0  0  0  0  0  0  0  0  0  0
    8.7876   -3.0213   25.2292 C   0  0  0  0  0  0  0  0  0  0  0  0
    9.2491   -4.0978   26.1535 C   0  0  0  0  0  0  0  0  0  0  0  0
   10.5839   -4.2513   26.1019 F   0  0  0  0  0  0  0  0  0  0  0  0
    8.7165   -5.2915   25.8165 F   0  0  0  0  0  0  0  0  0  0  0  0
    8.9204   -3.8652   27.4327 F   0  0  0  0  0  0  0  0  0  0  0  0
    8.4918   -1.7103   25.6219 C   0  0  0  0  0  0  0  0  0  0  0  0
    8.5746   -1.3783   26.6542 H   0  0  0  0  0  0  0  0  0  0  0  0
    8.0681   -0.8175   24.6481 C   0  0  0  0  0  0  0  0  0  0  0  0
    7.7897    0.2058   24.8677 H   0  0  0  0  0  0  0  0  0  0  0  0
    5.4681    0.6449   20.1369 C   0  0  0  0  0  0  0  0  0  0  0  0
    5.0636    0.6562   21.1431 H   0  0  0  0  0  0  0  0  0  0  0  0
    4.8144    1.2954   19.0837 C   0  0  0  0  0  0  0  0  0  0  0  0
    3.8793    1.8277   19.2427 H   0  0  0  0  0  0  0  0  0  0  0  0
  1  2  1  0
  2  3  2  0
  3  4  1  0
  4  5  1  0
  4  6  2  0
  6  7  1  0
  7  8  1  0
  7  9  1  0
  9 10  2  0
  9 11  1  0
 11 12  2  0
 12 13  1  0
 13 14  1  0
 13 15  2  0
 15 16  1  0
 16 17  1  0
 16 18  1  0
 16 19  1  0
 15 20  1  0
 20 21  1  0
 20 22  2  0
 22 23  1  0
  6 24  1  0
 24 25  1  0
 24 26  2  0
 26 27  1  0
 26  2  1  0
 22 11  1  0
M  END
>  <cnnaffinity>  (1) 
-4.86919

>  <filename>  (1) 
O=C(Nc1cccnc1)c1ccc(C(F)(F)F)cn1

$$$$
