
     RDKit          3D

 31 32  0  0  0  0  0  0  0  0999 V2000
    4.9301    1.8233   16.9641 H   0  0  0  0  0  0  0  0  0  0  0  0
    5.4166    1.2932   17.7798 C   0  0  0  0  0  0  0  0  0  0  0  0
    6.5507    0.6470   17.4725 N   0  0  0  0  0  0  0  0  0  0  0  0
    7.1765   -0.0015   18.4651 C   0  0  0  0  0  0  0  0  0  0  0  0
    8.0765   -0.5472   18.1776 H   0  0  0  0  0  0  0  0  0  0  0  0
    6.7310   -0.0164   19.7999 C   0  0  0  0  0  0  0  0  0  0  0  0
    7.4939   -0.6504   20.9534 C   0  0  0  0  0  0  0  0  0  0  0  0
    8.2321   -1.3779   20.6050 H   0  0  0  0  0  0  0  0  0  0  0  0
    6.7965   -1.1886   21.5986 H   0  0  0  0  0  0  0  0  0  0  0  0
    8.2012    0.3832   21.8356 C   0  0  0  0  0  0  0  0  0  0  0  0
    7.7443    0.7860   22.8864 O   0  0  0  0  0  0  0  0  0  0  0  0
    9.3785    0.8276   21.3013 N   0  0  0  0  0  0  0  0  0  0  0  0
    9.7618    0.2782   20.5564 H   0  0  0  0  0  0  0  0  0  0  0  0
   10.1813    1.8559   21.8166 C   0  0  0  0  0  0  0  0  0  0  0  0
   11.5720    1.6966   21.7892 C   0  0  0  0  0  0  0  0  0  0  0  0
   12.0026    0.7583   21.4554 H   0  0  0  0  0  0  0  0  0  0  0  0
   12.3926    2.7251   22.2381 C   0  0  0  0  0  0  0  0  0  0  0  0
   13.4734    2.5787   22.2782 H   0  0  0  0  0  0  0  0  0  0  0  0
   11.8203    3.9398   22.6556 C   0  0  0  0  0  0  0  0  0  0  0  0
   12.7115    5.1340   22.8852 C   0  0  0  0  0  0  0  0  0  0  0  0
   13.0034    5.7607   21.7243 F   0  0  0  0  0  0  0  0  0  0  0  0
   13.8931    4.7941   23.4394 F   0  0  0  0  0  0  0  0  0  0  0  0
   12.1462    6.0530   23.6915 F   0  0  0  0  0  0  0  0  0  0  0  0
   10.4206    4.0707   22.7377 C   0  0  0  0  0  0  0  0  0  0  0  0
    9.9644    4.9935   23.0958 H   0  0  0  0  0  0  0  0  0  0  0  0
    9.6008    3.0239   22.3202 C   0  0  0  0  0  0  0  0  0  0  0  0
    8.5213    3.1179   22.3343 H   0  0  0  0  0  0  0  0  0  0  0  0
    5.5274    0.6386   20.0839 C   0  0  0  0  0  0  0  0  0  0  0  0
    5.1432    0.6210   21.1053 H   0  0  0  0  0  0  0  0  0  0  0  0
    4.8553    1.2998   19.0595 C   0  0  0  0  0  0  0  0  0  0  0  0
    3.9214    1.8184   19.2440 H   0  0  0  0  0  0  0  0  0  0  0  0
  1  2  1  0
  2  3  2  0
  3  4  1  0
  4  5  1  0
  4  6  2  0
  6  7  1  0
  7  8  1  0
  7  9  1  0
  7 10  1  0
 10 11  2  0
 10 12  1  0
 12 13  1  0
 12 14  1  0
 14 15  2  0
 15 16  1  0
 15 17  1  0
 17 18  1  0
 17 19  2  0
 19 20  1  0
 20 21  1  0
 20 22  1  0
 20 23  1  0
 19 24  1  0
 24 25  1  0
 24 26  2  0
 26 27  1  0
  6 28  1  0
 28 29  1  0
 28 30  2  0
 30 31  1  0
 30  2  1  0
 26 14  1  0
M  END
>  <cnnaffinity>  (1) 
-4.5811

>  <filename>  (1) 
O=C(Cc1cccnc1)Nc1ccc(C(F)(F)F)cc1

$$$$
