
     RDKit          3D

 37 38  0  0  0  0  0  0  0  0999 V2000
   11.0990    1.4818   22.7321 O   0  0  0  0  0  0  0  0  0  0  0  0
   10.1044    1.9205   22.1924 C   0  0  0  0  0  0  0  0  0  0  0  0
    9.2753    1.0581   21.2644 C   0  0  0  0  0  0  0  0  0  0  0  0
    8.1345    0.2923   21.9571 C   0  0  0  0  0  0  0  0  0  0  0  0
    7.4020   -0.6973   21.0244 C   0  0  0  0  0  0  0  0  0  0  0  0
    6.6465   -0.0239   19.8866 C   0  0  0  0  0  0  0  0  0  0  0  0
    5.4314    0.6427   20.1223 C   0  0  0  0  0  0  0  0  0  0  0  0
    4.7899    1.3107   19.0745 C   0  0  0  0  0  0  0  0  0  0  0  0
    5.3924    1.3026   17.8125 C   0  0  0  0  0  0  0  0  0  0  0  0
    6.5483    0.6753   17.5531 N   0  0  0  0  0  0  0  0  0  0  0  0
    7.1480    0.0411   18.5710 C   0  0  0  0  0  0  0  0  0  0  0  0
    8.0981   -0.4341   18.3214 H   0  0  0  0  0  0  0  0  0  0  0  0
    4.9316    1.8260   16.9749 H   0  0  0  0  0  0  0  0  0  0  0  0
    3.8600    1.8562   19.2223 H   0  0  0  0  0  0  0  0  0  0  0  0
    5.0043    0.6505   21.1269 H   0  0  0  0  0  0  0  0  0  0  0  0
    8.1097   -1.4320   20.6140 H   0  0  0  0  0  0  0  0  0  0  0  0
    6.6997   -1.2816   21.6352 H   0  0  0  0  0  0  0  0  0  0  0  0
    7.3903    0.9987   22.3562 H   0  0  0  0  0  0  0  0  0  0  0  0
    8.5371   -0.2561   22.8178 H   0  0  0  0  0  0  0  0  0  0  0  0
   10.0034    0.3636   20.8289 H   0  0  0  0  0  0  0  0  0  0  0  0
    8.8525    1.6671   20.4634 H   0  0  0  0  0  0  0  0  0  0  0  0
    9.6440    3.1919   22.3897 N   0  0  0  0  0  0  0  0  0  0  0  0
   10.3303    4.2179   23.0678 C   0  0  0  0  0  0  0  0  0  0  0  0
    9.6051    5.1764   23.7756 C   0  0  0  0  0  0  0  0  0  0  0  0
   10.2624    6.1702   24.4992 C   0  0  0  0  0  0  0  0  0  0  0  0
   11.6700    6.2192   24.4975 C   0  0  0  0  0  0  0  0  0  0  0  0
   12.4286    7.2200   25.3418 C   0  0  0  0  0  0  0  0  0  0  0  0
   13.4991    6.6520   25.9357 F   0  0  0  0  0  0  0  0  0  0  0  0
   12.9087    8.2550   24.6236 F   0  0  0  0  0  0  0  0  0  0  0  0
   11.6792    7.7496   26.3284 F   0  0  0  0  0  0  0  0  0  0  0  0
   12.3953    5.2807   23.7397 C   0  0  0  0  0  0  0  0  0  0  0  0
   11.7244    4.2844   23.0391 C   0  0  0  0  0  0  0  0  0  0  0  0
   12.2552    3.5324   22.4787 H   0  0  0  0  0  0  0  0  0  0  0  0
   13.4854    5.2893   23.7276 H   0  0  0  0  0  0  0  0  0  0  0  0
    9.6679    6.8739   25.0827 H   0  0  0  0  0  0  0  0  0  0  0  0
    8.5257    5.1085   23.7698 H   0  0  0  0  0  0  0  0  0  0  0  0
    8.7631    3.4220   21.9698 H   0  0  0  0  0  0  0  0  0  0  0  0
  1  2  2  0
  2  3  1  0
  3  4  1  0
  4  5  1  0
  5  6  1  0
  6  7  2  0
  7  8  1  0
  8  9  2  0
  9 10  1  0
 10 11  2  0
 11 12  1  0
  9 13  1  0
  8 14  1  0
  7 15  1  0
  5 16  1  0
  5 17  1  0
  4 18  1  0
  4 19  1  0
  3 20  1  0
  3 21  1  0
  2 22  1  0
 22 23  1  0
 23 24  2  0
 24 25  1  0
 25 26  2  0
 26 27  1  0
 27 28  1  0
 27 29  1  0
 27 30  1  0
 26 31  1  0
 31 32  2  0
 32 33  1  0
 31 34  1  0
 25 35  1  0
 24 36  1  0
 22 37  1  0
 11  6  1  0
 32 23  1  0
M  END
>  <cnnaffinity>  (1) 
-4.57728

>  <filename>  (1) 
O=C(CCCc1cccnc1)Nc1ccc(C(F)(F)F)cc1

$$$$
