
     RDKit          3D

 35 37  0  0  0  0  0  0  0  0999 V2000
    4.9551    1.7673   17.0348 H   0  0  0  0  0  0  0  0  0  0  0  0
    5.4317    1.2635   17.8730 C   0  0  0  0  0  0  0  0  0  0  0  0
    6.5955    0.6449   17.6123 N   0  0  0  0  0  0  0  0  0  0  0  0
    7.2065    0.0237   18.6323 C   0  0  0  0  0  0  0  0  0  0  0  0
    8.1538   -0.4482   18.3783 H   0  0  0  0  0  0  0  0  0  0  0  0
    6.7047   -0.0431   19.9716 C   0  0  0  0  0  0  0  0  0  0  0  0
    7.3586   -0.7010   20.9910 N   0  0  0  0  0  0  0  0  0  0  0  0
    8.6085   -1.4328   21.0288 C   0  0  0  0  0  0  0  0  0  0  0  0
    9.5047   -0.8412   20.7996 H   0  0  0  0  0  0  0  0  0  0  0  0
    8.6502   -2.3268   20.4041 H   0  0  0  0  0  0  0  0  0  0  0  0
    8.3210   -1.7197   22.5307 C   0  0  0  0  0  0  0  0  0  0  0  0
    9.0693   -1.2851   23.1964 H   0  0  0  0  0  0  0  0  0  0  0  0
    8.2054   -3.1949   22.8640 C   0  0  0  0  0  0  0  0  0  0  0  0
    8.8100   -4.0266   22.2343 O   0  0  0  0  0  0  0  0  0  0  0  0
    7.4150   -3.5253   23.9568 N   0  0  0  0  0  0  0  0  0  0  0  0
    7.0654   -2.8018   24.5522 H   0  0  0  0  0  0  0  0  0  0  0  0
    7.0452   -4.8463   24.2225 C   0  0  0  0  0  0  0  0  0  0  0  0
    7.1579   -5.7160   23.3932 O   0  0  0  0  0  0  0  0  0  0  0  0
    6.4405   -5.1464   25.6197 C   0  0  0  0  0  0  0  0  0  0  0  0
    5.6425   -6.3066   25.7954 C   0  0  0  0  0  0  0  0  0  0  0  0
    5.4365   -6.9839   24.9732 H   0  0  0  0  0  0  0  0  0  0  0  0
    5.1203   -6.6172   27.0566 C   0  0  0  0  0  0  0  0  0  0  0  0
    4.5125   -7.5112   27.1975 H   0  0  0  0  0  0  0  0  0  0  0  0
    5.3224   -5.8681   28.1469 N   0  0  0  0  0  0  0  0  0  0  0  0
    6.0796   -4.7763   28.0011 C   0  0  0  0  0  0  0  0  0  0  0  0
    6.2271   -4.1945   28.9065 H   0  0  0  0  0  0  0  0  0  0  0  0
    6.6577   -4.3782   26.7845 C   0  0  0  0  0  0  0  0  0  0  0  0
    7.2915   -3.4964   26.8064 H   0  0  0  0  0  0  0  0  0  0  0  0
    7.0192   -0.8938   22.3888 C   0  0  0  0  0  0  0  0  0  0  0  0
    6.9799    0.0299   22.9783 H   0  0  0  0  0  0  0  0  0  0  0  0
    6.0864   -1.4398   22.5535 H   0  0  0  0  0  0  0  0  0  0  0  0
    5.4773    0.6157   20.2028 C   0  0  0  0  0  0  0  0  0  0  0  0
    5.0326    0.6168   21.1978 H   0  0  0  0  0  0  0  0  0  0  0  0
    4.8427    1.2743   19.1432 C   0  0  0  0  0  0  0  0  0  0  0  0
    3.9067    1.8089   19.2907 H   0  0  0  0  0  0  0  0  0  0  0  0
  1  2  1  0
  2  3  2  0
  3  4  1  0
  4  5  1  0
  4  6  2  0
  6  7  1  0
  7  8  1  0
  8  9  1  0
  8 10  1  0
  8 11  1  0
 11 12  1  0
 11 13  1  0
 13 14  2  0
 13 15  1  0
 15 16  1  0
 15 17  1  0
 17 18  2  0
 17 19  1  0
 19 20  2  0
 20 21  1  0
 20 22  1  0
 22 23  1  0
 22 24  2  0
 24 25  1  0
 25 26  1  0
 25 27  2  0
 27 28  1  0
 11 29  1  0
 29 30  1  0
 29 31  1  0
  6 32  1  0
 32 33  1  0
 32 34  2  0
 34 35  1  0
 34  2  1  0
 29  7  1  0
 27 19  1  0
M  END
>  <cnnaffinity>  (1) 
-4.99452

>  <filename>  (1) 
O=C(NC(=O)C1CN(c2cccnc2)C1)c1ccncc1

$$$$
