
     RDKit          3D

 30 32  0  0  0  0  0  0  0  0999 V2000
    5.0117    1.8210   16.9774 H   0  0  0  0  0  0  0  0  0  0  0  0
    5.4716    1.2747   17.7985 C   0  0  0  0  0  0  0  0  0  0  0  0
    6.5929    0.5961   17.5108 N   0  0  0  0  0  0  0  0  0  0  0  0
    7.1907   -0.0743   18.5070 C   0  0  0  0  0  0  0  0  0  0  0  0
    8.0923   -0.6259   18.2477 H   0  0  0  0  0  0  0  0  0  0  0  0
    6.7098   -0.0909   19.8298 C   0  0  0  0  0  0  0  0  0  0  0  0
    7.3096   -0.8158   20.8382 O   0  0  0  0  0  0  0  0  0  0  0  0
    8.6650   -0.6849   21.0749 C   0  0  0  0  0  0  0  0  0  0  0  0
    9.6140    0.2693   20.6614 C   0  0  0  0  0  0  0  0  0  0  0  0
    9.4658    1.0883   19.9823 H   0  0  0  0  0  0  0  0  0  0  0  0
   10.8105    0.0375   21.1840 N   0  0  0  0  0  0  0  0  0  0  0  0
   10.6414   -1.0687   21.9316 N   0  0  0  0  0  0  0  0  0  0  0  0
   11.3648   -1.4962   22.4983 H   0  0  0  0  0  0  0  0  0  0  0  0
    9.3773   -1.5296   21.8930 C   0  0  0  0  0  0  0  0  0  0  0  0
    8.9158   -2.6672   22.5458 N   0  0  0  0  0  0  0  0  0  0  0  0
    7.9173   -2.7895   22.4724 H   0  0  0  0  0  0  0  0  0  0  0  0
    9.6134   -3.3961   23.4712 C   0  0  0  0  0  0  0  0  0  0  0  0
   10.7876   -3.1608   23.7219 O   0  0  0  0  0  0  0  0  0  0  0  0
    8.8697   -4.4894   24.1665 C   0  0  0  0  0  0  0  0  0  0  0  0
    7.5820   -4.7993   23.7959 O   0  0  0  0  0  0  0  0  0  0  0  0
    7.1333   -5.7580   24.6377 C   0  0  0  0  0  0  0  0  0  0  0  0
    6.1012   -6.0648   24.4898 H   0  0  0  0  0  0  0  0  0  0  0  0
    8.1071   -6.0901   25.5243 C   0  0  0  0  0  0  0  0  0  0  0  0
    8.0167   -6.8124   26.3236 H   0  0  0  0  0  0  0  0  0  0  0  0
    9.2370   -5.2691   25.2272 C   0  0  0  0  0  0  0  0  0  0  0  0
   10.1970   -5.2191   25.7352 H   0  0  0  0  0  0  0  0  0  0  0  0
    5.5241    0.5949   20.1166 C   0  0  0  0  0  0  0  0  0  0  0  0
    5.1187    0.5757   21.1280 H   0  0  0  0  0  0  0  0  0  0  0  0
    4.9004    1.2926   19.0767 C   0  0  0  0  0  0  0  0  0  0  0  0
    3.9912    1.8582   19.2487 H   0  0  0  0  0  0  0  0  0  0  0  0
  1  2  1  0
  2  3  2  0
  3  4  1  0
  4  5  1  0
  4  6  2  0
  6  7  1  0
  7  8  1  0
  8  9  1  0
  9 10  1  0
  9 11  2  0
 11 12  1  0
 12 13  1  0
 12 14  1  0
 14 15  1  0
 15 16  1  0
 15 17  1  0
 17 18  2  0
 17 19  1  0
 19 20  1  0
 20 21  1  0
 21 22  1  0
 21 23  2  0
 23 24  1  0
 23 25  1  0
 25 26  1  0
  6 27  1  0
 27 28  1  0
 27 29  2  0
 29 30  1  0
 29  2  1  0
 14  8  2  0
 25 19  2  0
M  END
>  <cnnaffinity>  (1) 
-5.31847

>  <filename>  (1) 
O=C(Nc1[nH]ncc1Oc1cccnc1)c1ccco1

$$$$
