
     RDKit          3D

 35 38  0  0  0  0  0  0  0  0999 V2000
    4.9957    1.8469   16.8913 H   0  0  0  0  0  0  0  0  0  0  0  0
    5.4226    1.2920   17.7233 C   0  0  0  0  0  0  0  0  0  0  0  0
    6.5635    0.6300   17.4787 N   0  0  0  0  0  0  0  0  0  0  0  0
    7.1390   -0.0194   18.4969 C   0  0  0  0  0  0  0  0  0  0  0  0
    8.0655   -0.5410   18.2604 H   0  0  0  0  0  0  0  0  0  0  0  0
    6.6201   -0.0340   19.8085 C   0  0  0  0  0  0  0  0  0  0  0  0
    7.3905   -0.6026   20.9369 C   0  0  0  0  0  0  0  0  0  0  0  0
    8.5561   -1.2474   20.7379 N   0  0  0  0  0  0  0  0  0  0  0  0
    8.9865   -1.4812   21.9922 N   0  0  0  0  0  0  0  0  0  0  0  0
   10.1063   -2.0845   22.5463 C   0  0  0  0  0  0  0  0  0  0  0  0
   10.8442   -2.5473   21.9181 H   0  0  0  0  0  0  0  0  0  0  0  0
    9.9982   -1.9110   23.8838 C   0  0  0  0  0  0  0  0  0  0  0  0
   10.6413   -2.2181   24.6912 H   0  0  0  0  0  0  0  0  0  0  0  0
    8.8274   -1.2201   24.1392 N   0  0  0  0  0  0  0  0  0  0  0  0
    8.4312   -0.8076   25.3885 N   0  0  0  0  0  0  0  0  0  0  0  0
    8.8674    0.0503   25.6944 H   0  0  0  0  0  0  0  0  0  0  0  0
    7.0823   -0.8250   25.7263 C   0  0  0  0  0  0  0  0  0  0  0  0
    6.2590   -1.4955   25.1425 O   0  0  0  0  0  0  0  0  0  0  0  0
    6.7429    0.1374   26.8708 C   0  0  0  0  0  0  0  0  0  0  0  0
    7.6529    0.5667   27.8646 C   0  0  0  0  0  0  0  0  0  0  0  0
    8.6914    0.2422   27.8996 H   0  0  0  0  0  0  0  0  0  0  0  0
    7.2058    1.4349   28.8659 C   0  0  0  0  0  0  0  0  0  0  0  0
    7.8947    1.7779   29.6358 H   0  0  0  0  0  0  0  0  0  0  0  0
    5.9543    1.9085   28.9378 N   0  0  0  0  0  0  0  0  0  0  0  0
    5.0934    1.5107   27.9916 C   0  0  0  0  0  0  0  0  0  0  0  0
    4.0803    1.9000   28.0528 H   0  0  0  0  0  0  0  0  0  0  0  0
    5.4319    0.6421   26.9504 C   0  0  0  0  0  0  0  0  0  0  0  0
    4.6950    0.3638   26.2015 H   0  0  0  0  0  0  0  0  0  0  0  0
    8.1799   -0.9898   22.9468 C   0  0  0  0  0  0  0  0  0  0  0  0
    7.0682   -0.4526   22.3049 C   0  0  0  0  0  0  0  0  0  0  0  0
    6.1492   -0.1160   22.7536 H   0  0  0  0  0  0  0  0  0  0  0  0
    5.3907    0.6117   20.0223 C   0  0  0  0  0  0  0  0  0  0  0  0
    4.9189    0.5920   21.0044 H   0  0  0  0  0  0  0  0  0  0  0  0
    4.7922    1.2964   18.9693 C   0  0  0  0  0  0  0  0  0  0  0  0
    3.8741    1.8527   19.1126 H   0  0  0  0  0  0  0  0  0  0  0  0
  1  2  1  0
  2  3  2  0
  3  4  1  0
  4  5  1  0
  4  6  2  0
  6  7  1  0
  7  8  2  0
  8  9  1  0
  9 10  1  0
 10 11  1  0
 10 12  2  0
 12 13  1  0
 12 14  1  0
 14 15  1  0
 15 16  1  0
 15 17  1  0
 17 18  2  0
 17 19  1  0
 19 20  2  0
 20 21  1  0
 20 22  1  0
 22 23  1  0
 22 24  2  0
 24 25  1  0
 25 26  1  0
 25 27  2  0
 27 28  1  0
 14 29  1  0
 29 30  2  0
 30 31  1  0
  6 32  1  0
 32 33  1  0
 32 34  2  0
 34 35  1  0
 34  2  1  0
 30  7  1  0
 29  9  1  0
 27 19  1  0
M  END
>  <cnnaffinity>  (1) 
-5.38857

>  <filename>  (1) 
O=C(Nn1ccn2nc(-c3cccnc3)cc12)c1ccncc1

$$$$
