
     RDKit          3D

 22 22  0  0  0  0  0  0  0  0999 V2000
    4.9432    1.7727   17.0009 H   0  0  0  0  0  0  0  0  0  0  0  0
    5.4099    1.2816   17.8535 C   0  0  0  0  0  0  0  0  0  0  0  0
    6.5727    0.6561   17.6238 N   0  0  0  0  0  0  0  0  0  0  0  0
    7.1604    0.0336   18.6493 C   0  0  0  0  0  0  0  0  0  0  0  0
    8.1182   -0.4234   18.4148 H   0  0  0  0  0  0  0  0  0  0  0  0
    6.6043   -0.0424   19.9326 C   0  0  0  0  0  0  0  0  0  0  0  0
    7.4162   -0.7302   20.9805 C   0  0  0  0  0  0  0  0  0  0  0  0
    8.6291   -0.7846   20.9228 O   0  0  0  0  0  0  0  0  0  0  0  0
    6.7108   -1.2660   22.0233 N   0  0  0  0  0  0  0  0  0  0  0  0
    5.7143   -1.3144   21.9283 H   0  0  0  0  0  0  0  0  0  0  0  0
    7.3849   -1.9344   23.1093 C   0  0  0  0  0  0  0  0  0  0  0  0
    8.1377   -1.2658   23.5374 H   0  0  0  0  0  0  0  0  0  0  0  0
    6.6685   -2.1718   23.8979 H   0  0  0  0  0  0  0  0  0  0  0  0
    8.2694   -3.4511   22.6567 S   0  0  0  0  0  0  0  0  0  0  0  0
    6.8045   -4.5061   22.3825 C   0  0  0  0  0  0  0  0  0  0  0  0
    5.9980   -4.0411   21.4294 F   0  0  0  0  0  0  0  0  0  0  0  0
    7.2211   -5.7236   22.0240 F   0  0  0  0  0  0  0  0  0  0  0  0
    6.0916   -4.6074   23.5101 F   0  0  0  0  0  0  0  0  0  0  0  0
    5.4002    0.6377   20.1739 C   0  0  0  0  0  0  0  0  0  0  0  0
    4.9638    0.6732   21.1769 H   0  0  0  0  0  0  0  0  0  0  0  0
    4.7991    1.3110   19.1117 C   0  0  0  0  0  0  0  0  0  0  0  0
    3.8699    1.8506   19.2505 H   0  0  0  0  0  0  0  0  0  0  0  0
  1  2  1  0
  2  3  2  0
  3  4  1  0
  4  5  1  0
  4  6  2  0
  6  7  1  0
  7  8  2  0
  7  9  1  0
  9 10  1  0
  9 11  1  0
 11 12  1  0
 11 13  1  0
 11 14  1  0
 14 15  1  0
 15 16  1  0
 15 17  1  0
 15 18  1  0
  6 19  1  0
 19 20  1  0
 19 21  2  0
 21 22  1  0
 21  2  1  0
M  END
>  <cnnaffinity>  (1) 
-4.52651

>  <filename>  (1) 
O=C(NCSC(F)(F)F)c1cccnc1

$$$$
