
     RDKit          3D

 35 36  0  0  0  0  0  0  0  0999 V2000
    4.9429    1.7920   16.9958 H   0  0  0  0  0  0  0  0  0  0  0  0
    5.4058    1.2868   17.8436 C   0  0  0  0  0  0  0  0  0  0  0  0
    6.5657    0.6647   17.5879 N   0  0  0  0  0  0  0  0  0  0  0  0
    7.1918    0.0724   18.6088 C   0  0  0  0  0  0  0  0  0  0  0  0
    8.1358   -0.4062   18.3563 H   0  0  0  0  0  0  0  0  0  0  0  0
    6.6862    0.0336   19.9298 C   0  0  0  0  0  0  0  0  0  0  0  0
    7.4284   -0.6909   21.0120 C   0  0  0  0  0  0  0  0  0  0  0  0
    9.0410   -0.5441   21.1980 S   0  0  0  0  0  0  0  0  0  0  0  0
    6.5936   -1.6886   21.9098 C   0  0  0  0  0  0  0  0  0  0  0  0
    5.5658   -2.1493   21.4807 O   0  0  0  0  0  0  0  0  0  0  0  0
    7.1125   -2.0044   23.1583 N   0  0  0  0  0  0  0  0  0  0  0  0
    7.9887   -1.5797   23.4192 H   0  0  0  0  0  0  0  0  0  0  0  0
    6.5994   -3.0414   23.9407 C   0  0  0  0  0  0  0  0  0  0  0  0
    5.7218   -3.7759   23.5571 O   0  0  0  0  0  0  0  0  0  0  0  0
    7.2489   -3.2398   25.3230 C   0  0  0  0  0  0  0  0  0  0  0  0
    7.8151   -2.3339   25.5708 H   0  0  0  0  0  0  0  0  0  0  0  0
    8.2366   -4.4586   25.2580 C   0  0  0  0  0  0  0  0  0  0  0  0
    9.1950   -4.1420   24.8261 H   0  0  0  0  0  0  0  0  0  0  0  0
    7.8205   -5.2060   24.5664 H   0  0  0  0  0  0  0  0  0  0  0  0
    8.4416   -5.1194   26.6353 C   0  0  0  0  0  0  0  0  0  0  0  0
    9.1936   -5.9160   26.5716 H   0  0  0  0  0  0  0  0  0  0  0  0
    8.8574   -4.3784   27.3342 H   0  0  0  0  0  0  0  0  0  0  0  0
    7.1139   -5.6865   27.2103 C   0  0  0  0  0  0  0  0  0  0  0  0
    7.1644   -5.6564   28.3073 H   0  0  0  0  0  0  0  0  0  0  0  0
    7.0007   -6.7460   26.9502 H   0  0  0  0  0  0  0  0  0  0  0  0
    5.8612   -4.9292   26.7037 C   0  0  0  0  0  0  0  0  0  0  0  0
    5.4971   -5.3828   25.7713 H   0  0  0  0  0  0  0  0  0  0  0  0
    5.0445   -5.0293   27.4278 H   0  0  0  0  0  0  0  0  0  0  0  0
    6.1508   -3.4409   26.4294 C   0  0  0  0  0  0  0  0  0  0  0  0
    5.2244   -2.9331   26.1327 H   0  0  0  0  0  0  0  0  0  0  0  0
    6.4806   -2.9599   27.3628 H   0  0  0  0  0  0  0  0  0  0  0  0
    5.4484    0.6544   20.1654 C   0  0  0  0  0  0  0  0  0  0  0  0
    4.9853    0.6206   21.1514 H   0  0  0  0  0  0  0  0  0  0  0  0
    4.8113    1.3057   19.1061 C   0  0  0  0  0  0  0  0  0  0  0  0
    3.8789    1.8366   19.2404 H   0  0  0  0  0  0  0  0  0  0  0  0
  1  2  1  0
  2  3  2  0
  3  4  1  0
  4  5  1  0
  4  6  2  0
  6  7  1  0
  7  8  2  0
  7  9  1  0
  9 10  2  0
  9 11  1  0
 11 12  1  0
 11 13  1  0
 13 14  2  0
 13 15  1  0
 15 16  1  0
 15 17  1  0
 17 18  1  0
 17 19  1  0
 17 20  1  0
 20 21  1  0
 20 22  1  0
 20 23  1  0
 23 24  1  0
 23 25  1  0
 23 26  1  0
 26 27  1  0
 26 28  1  0
 26 29  1  0
 29 30  1  0
 29 31  1  0
  6 32  1  0
 32 33  1  0
 32 34  2  0
 34 35  1  0
 34  2  1  0
 29 15  1  0
M  END
>  <cnnaffinity>  (1) 
-5.13821

>  <filename>  (1) 
O=C(NC(=O)C1CCCCC1)C(=S)c1cccnc1

$$$$
