
     RDKit          3D

 33 35  0  0  0  0  0  0  0  0999 V2000
    4.9567    1.8586   16.7595 H   0  0  0  0  0  0  0  0  0  0  0  0
    5.3810    1.3602   17.6293 C   0  0  0  0  0  0  0  0  0  0  0  0
    6.5178    0.6745   17.4220 N   0  0  0  0  0  0  0  0  0  0  0  0
    7.0960    0.0805   18.4733 C   0  0  0  0  0  0  0  0  0  0  0  0
    8.0253   -0.4612   18.2927 H   0  0  0  0  0  0  0  0  0  0  0  0
    6.5616    0.1351   19.7755 C   0  0  0  0  0  0  0  0  0  0  0  0
    7.2274   -0.4703   20.8872 N   0  0  0  0  0  0  0  0  0  0  0  0
    6.6637   -1.4450   21.6959 C   0  0  0  0  0  0  0  0  0  0  0  0
    5.6802   -1.8305   21.4597 H   0  0  0  0  0  0  0  0  0  0  0  0
    7.5651   -1.7743   22.6558 C   0  0  0  0  0  0  0  0  0  0  0  0
    7.5683   -2.8122   23.7480 C   0  0  0  0  0  0  0  0  0  0  0  0
    8.6066   -3.1028   24.3140 O   0  0  0  0  0  0  0  0  0  0  0  0
    6.3457   -3.3656   24.0333 N   0  0  0  0  0  0  0  0  0  0  0  0
    5.5674   -2.8401   23.6734 H   0  0  0  0  0  0  0  0  0  0  0  0
    6.0814   -4.3622   25.0048 C   0  0  0  0  0  0  0  0  0  0  0  0
    7.1183   -5.1867   25.4762 C   0  0  0  0  0  0  0  0  0  0  0  0
    8.1142   -5.0490   25.0789 H   0  0  0  0  0  0  0  0  0  0  0  0
    6.8548   -6.1513   26.4494 C   0  0  0  0  0  0  0  0  0  0  0  0
    7.6633   -6.7829   26.8110 H   0  0  0  0  0  0  0  0  0  0  0  0
    5.5607   -6.3106   26.9517 C   0  0  0  0  0  0  0  0  0  0  0  0
    5.3479   -7.0690   27.6978 H   0  0  0  0  0  0  0  0  0  0  0  0
    4.5319   -5.4837   26.4893 C   0  0  0  0  0  0  0  0  0  0  0  0
    3.5342   -5.5642   26.9148 H   0  0  0  0  0  0  0  0  0  0  0  0
    4.7745   -4.5408   25.4843 C   0  0  0  0  0  0  0  0  0  0  0  0
    3.9434   -3.9673   25.0790 H   0  0  0  0  0  0  0  0  0  0  0  0
    8.6721   -0.9513   22.4109 N   0  0  0  0  0  0  0  0  0  0  0  0
    9.5775   -0.9276   22.8613 H   0  0  0  0  0  0  0  0  0  0  0  0
    8.4907   -0.1409   21.3469 C   0  0  0  0  0  0  0  0  0  0  0  0
    9.5962    0.9526   20.7655 S   0  0  0  0  0  0  0  0  0  0  0  0
    5.3607    0.8218   19.9763 C   0  0  0  0  0  0  0  0  0  0  0  0
    4.9296    0.8723   20.9771 H   0  0  0  0  0  0  0  0  0  0  0  0
    4.7645    1.4544   18.8816 C   0  0  0  0  0  0  0  0  0  0  0  0
    3.8525    2.0313   18.9915 H   0  0  0  0  0  0  0  0  0  0  0  0
  1  2  1  0
  2  3  2  0
  3  4  1  0
  4  5  1  0
  4  6  2  0
  6  7  1  0
  7  8  1  0
  8  9  1  0
  8 10  2  0
 10 11  1  0
 11 12  2  0
 11 13  1  0
 13 14  1  0
 13 15  1  0
 15 16  2  0
 16 17  1  0
 16 18  1  0
 18 19  1  0
 18 20  2  0
 20 21  1  0
 20 22  1  0
 22 23  1  0
 22 24  2  0
 24 25  1  0
 10 26  1  0
 26 27  1  0
 26 28  1  0
 28 29  2  0
  6 30  1  0
 30 31  1  0
 30 32  2  0
 32 33  1  0
 32  2  1  0
 28  7  1  0
 24 15  1  0
M  END
>  <cnnaffinity>  (1) 
-5.11909

>  <filename>  (1) 
O=C(Nc1ccccc1)c1cn(-c2cccnc2)c(=S)[nH]1

$$$$
