
     RDKit          3D

 42 44  0  0  0  0  0  0  0  0999 V2000
    8.7023   -0.6322   20.8827 O   0  0  0  0  0  0  0  0  0  0  0  0
    7.4843   -0.7616   20.9166 C   0  0  0  0  0  0  0  0  0  0  0  0
    6.6518   -0.0395   19.8972 C   0  0  0  0  0  0  0  0  0  0  0  0
    5.4269    0.6009   20.1558 C   0  0  0  0  0  0  0  0  0  0  0  0
    4.8137    1.2821   19.1007 C   0  0  0  0  0  0  0  0  0  0  0  0
    5.4306    1.2855   17.8449 C   0  0  0  0  0  0  0  0  0  0  0  0
    6.6022    0.6842   17.5907 N   0  0  0  0  0  0  0  0  0  0  0  0
    7.1988    0.0566   18.6054 C   0  0  0  0  0  0  0  0  0  0  0  0
    8.1672   -0.3922   18.3960 H   0  0  0  0  0  0  0  0  0  0  0  0
    4.9586    1.7889   17.0030 H   0  0  0  0  0  0  0  0  0  0  0  0
    3.8857    1.8244   19.2357 H   0  0  0  0  0  0  0  0  0  0  0  0
    4.9785    0.6178   21.1548 H   0  0  0  0  0  0  0  0  0  0  0  0
    6.8293   -1.6342   21.9767 C   0  0  0  0  0  0  0  0  0  0  0  0
    5.8183   -2.4768   21.8105 N   0  0  0  0  0  0  0  0  0  0  0  0
    5.5182   -2.9480   23.0582 C   0  0  0  0  0  0  0  0  0  0  0  0
    6.3568   -2.3911   23.9822 C   0  0  0  0  0  0  0  0  0  0  0  0
    7.2169   -1.5728   23.2924 N   0  0  0  0  0  0  0  0  0  0  0  0
    8.3756   -0.8934   23.8778 C   0  0  0  0  0  0  0  0  0  0  0  0
    8.2531    0.6278   23.9803 C   0  0  0  0  0  0  0  0  0  0  0  0
    7.0409    1.1792   24.7484 C   0  0  0  0  0  0  0  0  0  0  0  0
    6.9363    2.7092   24.5808 C   0  0  0  0  0  0  0  0  0  0  0  0
    5.7260    3.2961   25.3203 C   0  0  0  0  0  0  0  0  0  0  0  0
    5.7313    2.9104   26.8052 C   0  0  0  0  0  0  0  0  0  0  0  0
    5.8342    1.3907   26.9857 C   0  0  0  0  0  0  0  0  0  0  0  0
    7.0436    0.8063   26.2431 C   0  0  0  0  0  0  0  0  0  0  0  0
    7.9676    1.1796   26.7083 H   0  0  0  0  0  0  0  0  0  0  0  0
    7.0578   -0.2845   26.3643 H   0  0  0  0  0  0  0  0  0  0  0  0
    4.9228    0.9210   26.5926 H   0  0  0  0  0  0  0  0  0  0  0  0
    5.8774    1.1322   28.0500 H   0  0  0  0  0  0  0  0  0  0  0  0
    6.5914    3.3870   27.2950 H   0  0  0  0  0  0  0  0  0  0  0  0
    4.8375    3.2991   27.3082 H   0  0  0  0  0  0  0  0  0  0  0  0
    4.8077    2.9141   24.8544 H   0  0  0  0  0  0  0  0  0  0  0  0
    5.6958    4.3859   25.2053 H   0  0  0  0  0  0  0  0  0  0  0  0
    7.8540    3.1782   24.9642 H   0  0  0  0  0  0  0  0  0  0  0  0
    6.8843    2.9635   23.5135 H   0  0  0  0  0  0  0  0  0  0  0  0
    6.1257    0.7534   24.3107 H   0  0  0  0  0  0  0  0  0  0  0  0
    8.2681    1.0451   22.9689 H   0  0  0  0  0  0  0  0  0  0  0  0
    9.1690    0.9889   24.4683 H   0  0  0  0  0  0  0  0  0  0  0  0
    9.2677   -1.1544   23.3029 H   0  0  0  0  0  0  0  0  0  0  0  0
    8.5265   -1.3224   24.8727 H   0  0  0  0  0  0  0  0  0  0  0  0
    6.3865   -2.4409   25.0570 H   0  0  0  0  0  0  0  0  0  0  0  0
    4.7077   -3.6475   23.2273 H   0  0  0  0  0  0  0  0  0  0  0  0
  1  2  2  0
  2  3  1  0
  3  4  2  0
  4  5  1  0
  5  6  2  0
  6  7  1  0
  7  8  2  0
  8  9  1  0
  6 10  1  0
  5 11  1  0
  4 12  1  0
  2 13  1  0
 13 14  2  0
 14 15  1  0
 15 16  2  0
 16 17  1  0
 17 18  1  0
 18 19  1  0
 19 20  1  0
 20 21  1  0
 21 22  1  0
 22 23  1  0
 23 24  1  0
 24 25  1  0
 25 26  1  0
 25 27  1  0
 24 28  1  0
 24 29  1  0
 23 30  1  0
 23 31  1  0
 22 32  1  0
 22 33  1  0
 21 34  1  0
 21 35  1  0
 20 36  1  0
 19 37  1  0
 19 38  1  0
 18 39  1  0
 18 40  1  0
 16 41  1  0
 15 42  1  0
  8  3  1  0
 17 13  1  0
 25 20  1  0
M  END
>  <cnnaffinity>  (1) 
-5.22645

>  <filename>  (1) 
O=C(c1cccnc1)c1nccn1CCC1CCCCC1

$$$$
