
     RDKit          3D

 34 36  0  0  0  0  0  0  0  0999 V2000
    4.4626    0.7336   29.4236 H   0  0  0  0  0  0  0  0  0  0  0  0
    4.0886    0.3105   28.6397 O   0  0  0  0  0  0  0  0  0  0  0  0
    4.9989    0.4150   27.6201 C   0  0  0  0  0  0  0  0  0  0  0  0
    6.2208    1.0672   27.7683 C   0  0  0  0  0  0  0  0  0  0  0  0
    6.4655    1.5053   28.7337 H   0  0  0  0  0  0  0  0  0  0  0  0
    7.1183    1.1518   26.6894 C   0  0  0  0  0  0  0  0  0  0  0  0
    8.0654    1.6620   26.8327 H   0  0  0  0  0  0  0  0  0  0  0  0
    6.8068    0.5800   25.4484 C   0  0  0  0  0  0  0  0  0  0  0  0
    7.7393    0.6462   24.2560 C   0  0  0  0  0  0  0  0  0  0  0  0
    8.6543    1.1808   24.5344 H   0  0  0  0  0  0  0  0  0  0  0  0
    7.1466    1.1724   22.9040 C   0  0  0  0  0  0  0  0  0  0  0  0
    6.0870    1.4523   22.9177 H   0  0  0  0  0  0  0  0  0  0  0  0
    7.6898    2.0001   22.4342 H   0  0  0  0  0  0  0  0  0  0  0  0
    7.4257   -0.1379   22.3103 N   0  0  0  0  0  0  0  0  0  0  0  0
    7.4324   -0.6719   21.0544 C   0  0  0  0  0  0  0  0  0  0  0  0
    8.0480   -1.6971   20.8030 O   0  0  0  0  0  0  0  0  0  0  0  0
    6.6654    0.0565   19.9878 C   0  0  0  0  0  0  0  0  0  0  0  0
    7.1819    0.0475   18.6813 C   0  0  0  0  0  0  0  0  0  0  0  0
    8.1165   -0.4617   18.4450 H   0  0  0  0  0  0  0  0  0  0  0  0
    6.5853    0.6451   17.6432 N   0  0  0  0  0  0  0  0  0  0  0  0
    5.4216    1.2741   17.8680 C   0  0  0  0  0  0  0  0  0  0  0  0
    4.9657    1.7610   17.0072 H   0  0  0  0  0  0  0  0  0  0  0  0
    4.8058    1.3153   19.1221 C   0  0  0  0  0  0  0  0  0  0  0  0
    3.8627    1.8363   19.2427 H   0  0  0  0  0  0  0  0  0  0  0  0
    5.4307    0.6908   20.1977 C   0  0  0  0  0  0  0  0  0  0  0  0
    4.9481    0.6779   21.1758 H   0  0  0  0  0  0  0  0  0  0  0  0
    8.0577   -0.6905   23.5018 C   0  0  0  0  0  0  0  0  0  0  0  0
    7.5951   -1.6107   23.8812 H   0  0  0  0  0  0  0  0  0  0  0  0
    9.1216   -0.9131   23.3639 H   0  0  0  0  0  0  0  0  0  0  0  0
    5.5806   -0.0849   25.3259 C   0  0  0  0  0  0  0  0  0  0  0  0
    5.3266   -0.5742   24.4025 H   0  0  0  0  0  0  0  0  0  0  0  0
    4.6684   -0.1701   26.3722 C   0  0  0  0  0  0  0  0  0  0  0  0
    3.4998   -0.8230   26.1277 O   0  0  0  0  0  0  0  0  0  0  0  0
    2.9804   -0.8229   26.9442 H   0  0  0  0  0  0  0  0  0  0  0  0
  1  2  1  0
  2  3  1  0
  3  4  2  0
  4  5  1  0
  4  6  1  0
  6  7  1  0
  6  8  2  0
  8  9  1  0
  9 10  1  0
  9 11  1  0
 11 12  1  0
 11 13  1  0
 11 14  1  0
 14 15  1  0
 15 16  2  0
 15 17  1  0
 17 18  2  0
 18 19  1  0
 18 20  1  0
 20 21  2  0
 21 22  1  0
 21 23  1  0
 23 24  1  0
 23 25  2  0
 25 26  1  0
 14 27  1  0
 27 28  1  0
 27 29  1  0
  8 30  1  0
 30 31  1  0
 30 32  2  0
 32 33  1  0
 33 34  1  0
 32  3  1  0
 27  9  1  0
 25 17  1  0
M  END
>  <cnnaffinity>  (1) 
-4.60298

>  <filename>  (1) 
O=C(c1cccnc1)N1CC(c2ccc(O)c(O)c2)C1

$$$$
