
     RDKit          3D

 33 35  0  0  0  0  0  0  0  0999 V2000
    4.9652    1.8147   16.9800 H   0  0  0  0  0  0  0  0  0  0  0  0
    5.4197    1.2989   17.8228 C   0  0  0  0  0  0  0  0  0  0  0  0
    6.5730    0.6577   17.5786 N   0  0  0  0  0  0  0  0  0  0  0  0
    7.1630    0.0383   18.6110 C   0  0  0  0  0  0  0  0  0  0  0  0
    8.0903   -0.4790   18.3633 H   0  0  0  0  0  0  0  0  0  0  0  0
    6.6510    0.0147   19.9218 C   0  0  0  0  0  0  0  0  0  0  0  0
    7.3670   -0.6826   21.0343 C   0  0  0  0  0  0  0  0  0  0  0  0
    6.5578   -1.2220   22.0069 N   0  0  0  0  0  0  0  0  0  0  0  0
    7.1038   -1.9012   22.9981 C   0  0  0  0  0  0  0  0  0  0  0  0
    6.2640   -2.6827   23.9686 C   0  0  0  0  0  0  0  0  0  0  0  0
    5.3325   -3.3675   23.5971 O   0  0  0  0  0  0  0  0  0  0  0  0
    6.6447   -2.5748   25.2987 N   0  0  0  0  0  0  0  0  0  0  0  0
    7.6450   -2.5433   25.4601 H   0  0  0  0  0  0  0  0  0  0  0  0
    5.8876   -3.1098   26.3344 C   0  0  0  0  0  0  0  0  0  0  0  0
    6.5204   -3.7559   27.3896 C   0  0  0  0  0  0  0  0  0  0  0  0
    7.5958   -3.8594   27.4095 H   0  0  0  0  0  0  0  0  0  0  0  0
    5.7265   -4.3079   28.3920 C   0  0  0  0  0  0  0  0  0  0  0  0
    6.1901   -4.8443   29.2165 H   0  0  0  0  0  0  0  0  0  0  0  0
    4.3919   -4.2295   28.4203 N   0  0  0  0  0  0  0  0  0  0  0  0
    3.8086   -3.5797   27.4033 C   0  0  0  0  0  0  0  0  0  0  0  0
    2.7225   -3.5243   27.4276 H   0  0  0  0  0  0  0  0  0  0  0  0
    4.4993   -3.0091   26.3411 C   0  0  0  0  0  0  0  0  0  0  0  0
    3.9817   -2.5281   25.5266 H   0  0  0  0  0  0  0  0  0  0  0  0
    8.5461   -2.0467   23.1915 C   0  0  0  0  0  0  0  0  0  0  0  0
    9.1218   -2.5787   24.1389 O   0  0  0  0  0  0  0  0  0  0  0  0
    9.2949   -1.5020   22.1630 N   0  0  0  0  0  0  0  0  0  0  0  0
   10.2857   -1.6654   22.3114 H   0  0  0  0  0  0  0  0  0  0  0  0
    8.7343   -0.8044   21.1024 C   0  0  0  0  0  0  0  0  0  0  0  0
    9.4116   -0.3582   20.3842 H   0  0  0  0  0  0  0  0  0  0  0  0
    5.4191    0.6585   20.1394 C   0  0  0  0  0  0  0  0  0  0  0  0
    4.9673    0.6301   21.1310 H   0  0  0  0  0  0  0  0  0  0  0  0
    4.8038    1.3192   19.0778 C   0  0  0  0  0  0  0  0  0  0  0  0
    3.8690    1.8527   19.2123 H   0  0  0  0  0  0  0  0  0  0  0  0
  1  2  1  0
  2  3  2  0
  3  4  1  0
  4  5  1  0
  4  6  2  0
  6  7  1  0
  7  8  1  0
  8  9  2  0
  9 10  1  0
 10 11  2  0
 10 12  1  0
 12 13  1  0
 12 14  1  0
 14 15  2  0
 15 16  1  0
 15 17  1  0
 17 18  1  0
 17 19  2  0
 19 20  1  0
 20 21  1  0
 20 22  2  0
 22 23  1  0
  9 24  1  0
 24 25  2  0
 24 26  1  0
 26 27  1  0
 26 28  1  0
 28 29  1  0
  6 30  1  0
 30 31  1  0
 30 32  2  0
 32 33  1  0
 32  2  1  0
 28  7  2  0
 22 14  1  0
M  END
>  <cnnaffinity>  (1) 
-5.13858

>  <filename>  (1) 
O=C(Nc1ccncc1)c1nc(-c2cccnc2)c[nH]c1=O

$$$$
