
     RDKit          3D

 33 34  0  0  0  0  0  0  0  0999 V2000
    4.9816    1.7221   17.0149 H   0  0  0  0  0  0  0  0  0  0  0  0
    5.4571    1.2521   17.8746 C   0  0  0  0  0  0  0  0  0  0  0  0
    6.6195    0.6279   17.6393 N   0  0  0  0  0  0  0  0  0  0  0  0
    7.2334    0.0495   18.6666 C   0  0  0  0  0  0  0  0  0  0  0  0
    8.1702   -0.4501   18.4386 H   0  0  0  0  0  0  0  0  0  0  0  0
    6.7088    0.0819   19.9505 C   0  0  0  0  0  0  0  0  0  0  0  0
    7.5746   -0.8087   21.1342 S   0  0  0  0  0  0  0  0  0  0  0  0
    7.4818   -2.2340   20.8842 O   0  0  0  0  0  0  0  0  0  0  0  0
    7.3550   -0.2727   22.4568 O   0  0  0  0  0  0  0  0  0  0  0  0
    9.1318   -0.5119   20.6698 N   0  0  0  0  0  0  0  0  0  0  0  0
    9.5939   -1.3625   20.9422 H   0  0  0  0  0  0  0  0  0  0  0  0
    9.6072    0.7299   21.0612 C   0  0  0  0  0  0  0  0  0  0  0  0
    8.8432    1.6662   21.1357 O   0  0  0  0  0  0  0  0  0  0  0  0
   11.1494    0.8212   21.1683 C   0  0  0  0  0  0  0  0  0  0  0  0
   11.4124    1.7087   20.5772 H   0  0  0  0  0  0  0  0  0  0  0  0
   11.5725   -0.0600   20.6664 H   0  0  0  0  0  0  0  0  0  0  0  0
   11.8578    0.9148   22.4397 N   0  0  0  0  0  0  0  0  0  0  0  0
   11.8082   -0.2950   23.2605 C   0  0  0  0  0  0  0  0  0  0  0  0
   12.7598   -0.3686   23.8050 H   0  0  0  0  0  0  0  0  0  0  0  0
   11.7099   -1.1949   22.6375 H   0  0  0  0  0  0  0  0  0  0  0  0
   10.6194   -0.1250   24.2268 C   0  0  0  0  0  0  0  0  0  0  0  0
    9.7209   -0.5957   23.8123 H   0  0  0  0  0  0  0  0  0  0  0  0
   10.8282   -0.5923   25.1929 H   0  0  0  0  0  0  0  0  0  0  0  0
   10.4245    1.4065   24.3295 C   0  0  0  0  0  0  0  0  0  0  0  0
    9.4058    1.6856   24.0485 H   0  0  0  0  0  0  0  0  0  0  0  0
   10.6003    1.7858   25.3404 H   0  0  0  0  0  0  0  0  0  0  0  0
   11.4453    2.0037   23.3328 C   0  0  0  0  0  0  0  0  0  0  0  0
   12.3345    2.3785   23.8613 H   0  0  0  0  0  0  0  0  0  0  0  0
   11.0264    2.8394   22.7608 H   0  0  0  0  0  0  0  0  0  0  0  0
    5.4950    0.7133   20.2209 C   0  0  0  0  0  0  0  0  0  0  0  0
    5.0704    0.7353   21.2290 H   0  0  0  0  0  0  0  0  0  0  0  0
    4.8559    1.3101   19.1383 C   0  0  0  0  0  0  0  0  0  0  0  0
    3.9057    1.8162   19.2540 H   0  0  0  0  0  0  0  0  0  0  0  0
  1  2  1  0
  2  3  2  0
  3  4  1  0
  4  5  1  0
  4  6  2  0
  6  7  1  0
  7  8  2  0
  7  9  2  0
  7 10  1  0
 10 11  1  0
 10 12  1  0
 12 13  2  0
 12 14  1  0
 14 15  1  0
 14 16  1  0
 14 17  1  0
 17 18  1  0
 18 19  1  0
 18 20  1  0
 18 21  1  0
 21 22  1  0
 21 23  1  0
 21 24  1  0
 24 25  1  0
 24 26  1  0
 24 27  1  0
 27 28  1  0
 27 29  1  0
  6 30  1  0
 30 31  1  0
 30 32  2  0
 32 33  1  0
 32  2  1  0
 27 17  1  0
M  END
>  <cnnaffinity>  (1) 
-4.67562

>  <filename>  (1) 
O=C(CN1CCCC1)NS(=O)(=O)c1cccnc1

$$$$
