
     RDKit          3D

 30 31  0  0  0  0  0  0  0  0999 V2000
    4.9364    1.7871   16.9932 H   0  0  0  0  0  0  0  0  0  0  0  0
    5.4041    1.2869   17.8419 C   0  0  0  0  0  0  0  0  0  0  0  0
    6.5640    0.6671   17.5829 N   0  0  0  0  0  0  0  0  0  0  0  0
    7.1947    0.0829   18.6018 C   0  0  0  0  0  0  0  0  0  0  0  0
    8.1396   -0.4007   18.3638 H   0  0  0  0  0  0  0  0  0  0  0  0
    6.6916    0.0571   19.9128 C   0  0  0  0  0  0  0  0  0  0  0  0
    7.5105   -0.6552   20.9463 C   0  0  0  0  0  0  0  0  0  0  0  0
    8.7236   -0.5786   20.9468 O   0  0  0  0  0  0  0  0  0  0  0  0
    6.7272   -1.6079   21.9731 C   0  0  0  0  0  0  0  0  0  0  0  0
    5.6609   -2.0949   21.6372 O   0  0  0  0  0  0  0  0  0  0  0  0
    7.3332   -1.8682   23.1787 N   0  0  0  0  0  0  0  0  0  0  0  0
    8.2286   -1.4471   23.3774 H   0  0  0  0  0  0  0  0  0  0  0  0
    6.9175   -2.8601   24.0987 C   0  0  0  0  0  0  0  0  0  0  0  0
    6.2001   -3.9857   23.6694 C   0  0  0  0  0  0  0  0  0  0  0  0
    5.9686   -4.0749   22.6165 H   0  0  0  0  0  0  0  0  0  0  0  0
    5.7787   -4.9350   24.5988 C   0  0  0  0  0  0  0  0  0  0  0  0
    5.1995   -5.7862   24.2424 H   0  0  0  0  0  0  0  0  0  0  0  0
    6.0751   -4.7843   25.9637 C   0  0  0  0  0  0  0  0  0  0  0  0
    5.5568   -5.7886   26.9661 C   0  0  0  0  0  0  0  0  0  0  0  0
    6.3628   -5.8966   28.0391 F   0  0  0  0  0  0  0  0  0  0  0  0
    4.3370   -5.4486   27.4285 F   0  0  0  0  0  0  0  0  0  0  0  0
    5.4362   -7.0190   26.4298 F   0  0  0  0  0  0  0  0  0  0  0  0
    6.8146   -3.6621   26.3839 C   0  0  0  0  0  0  0  0  0  0  0  0
    7.0603   -3.5278   27.4363 H   0  0  0  0  0  0  0  0  0  0  0  0
    7.2472   -2.7134   25.4520 C   0  0  0  0  0  0  0  0  0  0  0  0
    7.8170   -1.8404   25.7680 H   0  0  0  0  0  0  0  0  0  0  0  0
    5.4454    0.6515   20.1650 C   0  0  0  0  0  0  0  0  0  0  0  0
    4.9816    0.6168   21.1532 H   0  0  0  0  0  0  0  0  0  0  0  0
    4.8111    1.3027   19.1064 C   0  0  0  0  0  0  0  0  0  0  0  0
    3.8809    1.8372   19.2418 H   0  0  0  0  0  0  0  0  0  0  0  0
  1  2  1  0
  2  3  2  0
  3  4  1  0
  4  5  1  0
  4  6  2  0
  6  7  1  0
  7  8  2  0
  7  9  1  0
  9 10  2  0
  9 11  1  0
 11 12  1  0
 11 13  1  0
 13 14  2  0
 14 15  1  0
 14 16  1  0
 16 17  1  0
 16 18  2  0
 18 19  1  0
 19 20  1  0
 19 21  1  0
 19 22  1  0
 18 23  1  0
 23 24  1  0
 23 25  2  0
 25 26  1  0
  6 27  1  0
 27 28  1  0
 27 29  2  0
 29 30  1  0
 29  2  1  0
 25 13  1  0
M  END
>  <cnnaffinity>  (1) 
-4.79319

>  <filename>  (1) 
O=C(Nc1ccc(C(F)(F)F)cc1)C(=O)c1cccnc1

$$$$
