
     RDKit          3D

 32 34  0  0  0  0  0  0  0  0999 V2000
    5.0272    1.7910   16.9709 H   0  0  0  0  0  0  0  0  0  0  0  0
    5.4391    1.2879   17.8444 C   0  0  0  0  0  0  0  0  0  0  0  0
    6.6054    0.6442   17.6682 N   0  0  0  0  0  0  0  0  0  0  0  0
    7.1364    0.0141   18.7232 C   0  0  0  0  0  0  0  0  0  0  0  0
    8.0908   -0.4932   18.5702 H   0  0  0  0  0  0  0  0  0  0  0  0
    6.5354   -0.0040   19.9944 C   0  0  0  0  0  0  0  0  0  0  0  0
    7.1454   -0.7171   21.0906 N   0  0  0  0  0  0  0  0  0  0  0  0
    7.8411   -0.1687   22.1607 C   0  0  0  0  0  0  0  0  0  0  0  0
    7.9710    1.3260   22.4283 C   0  0  0  0  0  0  0  0  0  0  0  0
    7.8279    2.1607   21.5512 O   0  0  0  0  0  0  0  0  0  0  0  0
    8.2688    1.6240   23.7298 N   0  0  0  0  0  0  0  0  0  0  0  0
    8.4161    0.8266   24.3322 H   0  0  0  0  0  0  0  0  0  0  0  0
    8.5087    2.9098   24.2642 C   0  0  0  0  0  0  0  0  0  0  0  0
    9.1610    3.8743   23.4861 C   0  0  0  0  0  0  0  0  0  0  0  0
    9.4320    3.6202   22.4691 H   0  0  0  0  0  0  0  0  0  0  0  0
    9.4299    5.1311   24.0275 C   0  0  0  0  0  0  0  0  0  0  0  0
    9.9404    5.8625   23.4074 H   0  0  0  0  0  0  0  0  0  0  0  0
    9.0405    5.4452   25.3312 C   0  0  0  0  0  0  0  0  0  0  0  0
    9.2494    6.4306   25.7362 H   0  0  0  0  0  0  0  0  0  0  0  0
    8.3804    4.4800   26.1018 C   0  0  0  0  0  0  0  0  0  0  0  0
    8.0714    4.7209   27.1136 H   0  0  0  0  0  0  0  0  0  0  0  0
    8.1223    3.2092   25.5767 C   0  0  0  0  0  0  0  0  0  0  0  0
    7.6062    2.4650   26.1802 H   0  0  0  0  0  0  0  0  0  0  0  0
    8.3665   -1.1109   22.9057 N   0  0  0  0  0  0  0  0  0  0  0  0
    7.9719   -2.2560   22.3072 N   0  0  0  0  0  0  0  0  0  0  0  0
    8.1565   -3.1625   22.7069 H   0  0  0  0  0  0  0  0  0  0  0  0
    7.1649   -2.1022   21.2340 C   0  0  0  0  0  0  0  0  0  0  0  0
    6.3535   -3.3015   20.4203 S   0  0  0  0  0  0  0  0  0  0  0  0
    5.3240    0.6703   20.1681 C   0  0  0  0  0  0  0  0  0  0  0  0
    4.8534    0.6889   21.1491 H   0  0  0  0  0  0  0  0  0  0  0  0
    4.7604    1.3231   19.0651 C   0  0  0  0  0  0  0  0  0  0  0  0
    3.8277    1.8761   19.1440 H   0  0  0  0  0  0  0  0  0  0  0  0
  1  2  1  0
  2  3  2  0
  3  4  1  0
  4  5  1  0
  4  6  2  0
  6  7  1  0
  7  8  1  0
  8  9  1  0
  9 10  2  0
  9 11  1  0
 11 12  1  0
 11 13  1  0
 13 14  2  0
 14 15  1  0
 14 16  1  0
 16 17  1  0
 16 18  2  0
 18 19  1  0
 18 20  1  0
 20 21  1  0
 20 22  2  0
 22 23  1  0
  8 24  2  0
 24 25  1  0
 25 26  1  0
 25 27  1  0
 27 28  2  0
  6 29  1  0
 29 30  1  0
 29 31  2  0
 31 32  1  0
 31  2  1  0
 27  7  1  0
 22 13  1  0
M  END
>  <cnnaffinity>  (1) 
-4.94566

>  <filename>  (1) 
O=C(Nc1ccccc1)c1n[nH]c(=S)n1-c1cccnc1

$$$$
