
     RDKit          3D

 28 29  0  0  0  0  0  0  0  0999 V2000
    4.8906    1.7928   17.0146 H   0  0  0  0  0  0  0  0  0  0  0  0
    5.4043    1.2916   17.8308 C   0  0  0  0  0  0  0  0  0  0  0  0
    6.5723    0.6716   17.5799 N   0  0  0  0  0  0  0  0  0  0  0  0
    7.1931    0.0664   18.6062 C   0  0  0  0  0  0  0  0  0  0  0  0
    8.1331   -0.4352   18.4044 H   0  0  0  0  0  0  0  0  0  0  0  0
    6.6671    0.0245   19.9050 C   0  0  0  0  0  0  0  0  0  0  0  0
    7.4012   -0.6934   20.9963 C   0  0  0  0  0  0  0  0  0  0  0  0
    8.1921   -1.3369   20.5912 H   0  0  0  0  0  0  0  0  0  0  0  0
    6.6979   -1.3373   21.5411 H   0  0  0  0  0  0  0  0  0  0  0  0
    7.9670    0.3076   21.8920 N   0  0  0  0  0  0  0  0  0  0  0  0
    7.5679    0.4179   22.8140 H   0  0  0  0  0  0  0  0  0  0  0  0
    9.0489    1.1089   21.5858 C   0  0  0  0  0  0  0  0  0  0  0  0
    9.6569    0.8550   20.5567 O   0  0  0  0  0  0  0  0  0  0  0  0
    9.4555    2.2497   22.4356 C   0  0  0  0  0  0  0  0  0  0  0  0
    8.5289    2.8958   23.2765 C   0  0  0  0  0  0  0  0  0  0  0  0
    7.4930    2.5709   23.3123 H   0  0  0  0  0  0  0  0  0  0  0  0
    8.9200    3.9828   24.0668 C   0  0  0  0  0  0  0  0  0  0  0  0
    8.1973    4.4689   24.7116 H   0  0  0  0  0  0  0  0  0  0  0  0
   10.2345    4.4535   24.0319 C   0  0  0  0  0  0  0  0  0  0  0  0
   10.7611    5.9377   25.1234 Br  0  0  0  0  0  0  0  0  0  0  0  0
   11.1589    3.8345   23.1885 C   0  0  0  0  0  0  0  0  0  0  0  0
   12.1785    4.2044   23.1525 H   0  0  0  0  0  0  0  0  0  0  0  0
   10.7760    2.7479   22.3927 C   0  0  0  0  0  0  0  0  0  0  0  0
   11.5224    2.2975   21.7423 H   0  0  0  0  0  0  0  0  0  0  0  0
    5.4441    0.6501   20.1638 C   0  0  0  0  0  0  0  0  0  0  0  0
    5.0041    0.6371   21.1637 H   0  0  0  0  0  0  0  0  0  0  0  0
    4.8176    1.3044   19.1041 C   0  0  0  0  0  0  0  0  0  0  0  0
    3.8827    1.8315   19.2587 H   0  0  0  0  0  0  0  0  0  0  0  0
  1  2  1  0
  2  3  2  0
  3  4  1  0
  4  5  1  0
  4  6  2  0
  6  7  1  0
  7  8  1  0
  7  9  1  0
  7 10  1  0
 10 11  1  0
 10 12  1  0
 12 13  2  0
 12 14  1  0
 14 15  2  0
 15 16  1  0
 15 17  1  0
 17 18  1  0
 17 19  2  0
 19 20  1  0
 19 21  1  0
 21 22  1  0
 21 23  2  0
 23 24  1  0
  6 25  1  0
 25 26  1  0
 25 27  2  0
 27 28  1  0
 27  2  1  0
 23 14  1  0
M  END
>  <cnnaffinity>  (1) 
-4.56317

>  <filename>  (1) 
O=C(NCc1cccnc1)c1ccc(Br)cc1

$$$$
