
     RDKit          3D

 31 33  0  0  0  0  0  0  0  0999 V2000
    4.9303    1.7949   16.9940 H   0  0  0  0  0  0  0  0  0  0  0  0
    5.3990    1.2913   17.8370 C   0  0  0  0  0  0  0  0  0  0  0  0
    6.5597    0.6753   17.5669 N   0  0  0  0  0  0  0  0  0  0  0  0
    7.1807    0.0603   18.5786 C   0  0  0  0  0  0  0  0  0  0  0  0
    8.1251   -0.4207   18.3319 H   0  0  0  0  0  0  0  0  0  0  0  0
    6.6912    0.0019   19.8981 C   0  0  0  0  0  0  0  0  0  0  0  0
    7.4265   -0.7237   20.9612 C   0  0  0  0  0  0  0  0  0  0  0  0
    9.1266   -1.0928   20.9242 S   0  0  0  0  0  0  0  0  0  0  0  0
    9.0507   -1.8912   22.4580 C   0  0  0  0  0  0  0  0  0  0  0  0
    9.9434   -2.3107   22.8989 H   0  0  0  0  0  0  0  0  0  0  0  0
    7.7950   -1.8570   22.9801 C   0  0  0  0  0  0  0  0  0  0  0  0
    7.4319   -2.4018   24.2324 N   0  0  0  0  0  0  0  0  0  0  0  0
    7.9319   -3.2082   24.5609 H   0  0  0  0  0  0  0  0  0  0  0  0
    6.4081   -1.9429   25.0239 C   0  0  0  0  0  0  0  0  0  0  0  0
    5.7894   -0.9249   24.7865 O   0  0  0  0  0  0  0  0  0  0  0  0
    6.0803   -2.8200   26.2568 C   0  0  0  0  0  0  0  0  0  0  0  0
    4.7689   -2.8041   26.7795 C   0  0  0  0  0  0  0  0  0  0  0  0
    3.9950   -2.2032   26.3188 H   0  0  0  0  0  0  0  0  0  0  0  0
    4.4549   -3.5421   27.9264 C   0  0  0  0  0  0  0  0  0  0  0  0
    3.4522   -3.5127   28.3493 H   0  0  0  0  0  0  0  0  0  0  0  0
    5.3392   -4.3002   28.5825 N   0  0  0  0  0  0  0  0  0  0  0  0
    6.5853   -4.3326   28.0999 C   0  0  0  0  0  0  0  0  0  0  0  0
    7.2935   -4.9140   28.6877 H   0  0  0  0  0  0  0  0  0  0  0  0
    7.0061   -3.6153   26.9699 C   0  0  0  0  0  0  0  0  0  0  0  0
    8.0669   -3.6505   26.7428 H   0  0  0  0  0  0  0  0  0  0  0  0
    6.8823   -1.2042   22.1104 C   0  0  0  0  0  0  0  0  0  0  0  0
    5.8499   -1.1172   22.3733 H   0  0  0  0  0  0  0  0  0  0  0  0
    5.4625    0.6419   20.1548 C   0  0  0  0  0  0  0  0  0  0  0  0
    5.0343    0.6405   21.1588 H   0  0  0  0  0  0  0  0  0  0  0  0
    4.8148    1.3012   19.1070 C   0  0  0  0  0  0  0  0  0  0  0  0
    3.8826    1.8323   19.2538 H   0  0  0  0  0  0  0  0  0  0  0  0
  1  2  1  0
  2  3  2  0
  3  4  1  0
  4  5  1  0
  4  6  2  0
  6  7  1  0
  7  8  1  0
  8  9  1  0
  9 10  1  0
  9 11  2  0
 11 12  1  0
 12 13  1  0
 12 14  1  0
 14 15  2  0
 14 16  1  0
 16 17  2  0
 17 18  1  0
 17 19  1  0
 19 20  1  0
 19 21  2  0
 21 22  1  0
 22 23  1  0
 22 24  2  0
 24 25  1  0
 11 26  1  0
 26 27  1  0
  6 28  1  0
 28 29  1  0
 28 30  2  0
 30 31  1  0
 30  2  1  0
 26  7  2  0
 24 16  1  0
M  END
>  <cnnaffinity>  (1) 
-4.8146

>  <filename>  (1) 
O=C(Nc1csc(-c2cccnc2)c1)c1ccncc1

$$$$
