
     RDKit          3D

 29 30  0  0  0  0  0  0  0  0999 V2000
    4.9422    1.8397   16.9617 H   0  0  0  0  0  0  0  0  0  0  0  0
    5.4108    1.3343   17.8042 C   0  0  0  0  0  0  0  0  0  0  0  0
    6.5806    0.7291   17.5452 N   0  0  0  0  0  0  0  0  0  0  0  0
    7.1840    0.1077   18.5548 C   0  0  0  0  0  0  0  0  0  0  0  0
    8.1306   -0.3807   18.3325 H   0  0  0  0  0  0  0  0  0  0  0  0
    6.6564    0.0196   19.8601 C   0  0  0  0  0  0  0  0  0  0  0  0
    7.3822   -0.7689   20.8790 C   0  0  0  0  0  0  0  0  0  0  0  0
    9.0000   -0.9142   20.9009 S   0  0  0  0  0  0  0  0  0  0  0  0
    6.5570   -1.5920   21.8532 C   0  0  0  0  0  0  0  0  0  0  0  0
    5.6322   -2.2745   21.4505 O   0  0  0  0  0  0  0  0  0  0  0  0
    7.0318   -1.6086   23.3446 C   0  0  0  0  0  0  0  0  0  0  0  0
    7.8638   -0.8388   23.7694 O   0  0  0  0  0  0  0  0  0  0  0  0
    6.4256   -2.5841   24.0826 N   0  0  0  0  0  0  0  0  0  0  0  0
    5.6314   -3.0414   23.6632 H   0  0  0  0  0  0  0  0  0  0  0  0
    6.8845   -3.1383   25.2974 C   0  0  0  0  0  0  0  0  0  0  0  0
    8.2438   -3.3034   25.5859 C   0  0  0  0  0  0  0  0  0  0  0  0
    8.9847   -2.8244   24.9559 H   0  0  0  0  0  0  0  0  0  0  0  0
    8.6310   -4.0525   26.7039 C   0  0  0  0  0  0  0  0  0  0  0  0
    9.6704   -4.2413   26.9521 H   0  0  0  0  0  0  0  0  0  0  0  0
    7.6506   -4.5639   27.5502 C   0  0  0  0  0  0  0  0  0  0  0  0
    8.0230   -5.3452   28.5776 F   0  0  0  0  0  0  0  0  0  0  0  0
    6.2982   -4.3006   27.3471 C   0  0  0  0  0  0  0  0  0  0  0  0
    5.5690   -4.6427   28.0738 H   0  0  0  0  0  0  0  0  0  0  0  0
    5.9210   -3.5819   26.2101 C   0  0  0  0  0  0  0  0  0  0  0  0
    4.8863   -3.3047   26.0493 H   0  0  0  0  0  0  0  0  0  0  0  0
    5.4327    0.6580   20.1157 C   0  0  0  0  0  0  0  0  0  0  0  0
    4.9768    0.6305   21.1070 H   0  0  0  0  0  0  0  0  0  0  0  0
    4.8076    1.3289   19.0632 C   0  0  0  0  0  0  0  0  0  0  0  0
    3.8706    1.8508   19.2020 H   0  0  0  0  0  0  0  0  0  0  0  0
  1  2  1  0
  2  3  2  0
  3  4  1  0
  4  5  1  0
  4  6  2  0
  6  7  1  0
  7  8  2  0
  7  9  1  0
  9 10  2  0
  9 11  1  0
 11 12  2  0
 11 13  1  0
 13 14  1  0
 13 15  1  0
 15 16  2  0
 16 17  1  0
 16 18  1  0
 18 19  1  0
 18 20  2  0
 20 21  1  0
 20 22  1  0
 22 23  1  0
 22 24  2  0
 24 25  1  0
  6 26  1  0
 26 27  1  0
 26 28  2  0
 28 29  1  0
 28  2  1  0
 24 15  1  0
M  END
>  <cnnaffinity>  (1) 
-4.5892

>  <filename>  (1) 
O=C(Nc1ccc(F)cc1)C(=O)C(=S)c1cccnc1

$$$$
