
     RDKit          3D

 33 34  0  0  0  0  0  0  0  0999 V2000
    4.9658    1.7721   17.0320 H   0  0  0  0  0  0  0  0  0  0  0  0
    5.4230    1.2724   17.8798 C   0  0  0  0  0  0  0  0  0  0  0  0
    6.5825    0.6497   17.6321 N   0  0  0  0  0  0  0  0  0  0  0  0
    7.1698    0.0401   18.6581 C   0  0  0  0  0  0  0  0  0  0  0  0
    8.1218   -0.4536   18.4761 H   0  0  0  0  0  0  0  0  0  0  0  0
    6.6336    0.0045   19.9541 C   0  0  0  0  0  0  0  0  0  0  0  0
    7.4987   -0.7143   20.9189 C   0  0  0  0  0  0  0  0  0  0  0  0
    8.6054   -1.0985   20.6410 O   0  0  0  0  0  0  0  0  0  0  0  0
    6.8772   -0.8936   22.1377 O   0  0  0  0  0  0  0  0  0  0  0  0
    7.6235   -1.5692   23.1439 N   0  0  0  0  0  0  0  0  0  0  0  0
    7.1605   -1.3547   24.0209 H   0  0  0  0  0  0  0  0  0  0  0  0
    7.6088   -2.9948   23.0304 C   0  0  0  0  0  0  0  0  0  0  0  0
    7.0953   -3.6037   22.1172 O   0  0  0  0  0  0  0  0  0  0  0  0
    8.2472   -3.6033   24.0923 N   0  0  0  0  0  0  0  0  0  0  0  0
    8.2698   -5.0757   24.0533 C   0  0  0  0  0  0  0  0  0  0  0  0
    9.1400   -5.4089   23.4678 H   0  0  0  0  0  0  0  0  0  0  0  0
    7.3800   -5.4123   23.5169 H   0  0  0  0  0  0  0  0  0  0  0  0
    8.3079   -5.6597   25.4587 C   0  0  0  0  0  0  0  0  0  0  0  0
    8.3589   -6.7484   25.4034 H   0  0  0  0  0  0  0  0  0  0  0  0
    7.3656   -5.4189   25.9679 H   0  0  0  0  0  0  0  0  0  0  0  0
    9.4710   -5.0823   26.2680 C   0  0  0  0  0  0  0  0  0  0  0  0
   10.4326   -5.3759   25.8179 H   0  0  0  0  0  0  0  0  0  0  0  0
    9.4706   -5.4750   27.2919 H   0  0  0  0  0  0  0  0  0  0  0  0
    9.3351   -3.5576   26.2618 C   0  0  0  0  0  0  0  0  0  0  0  0
    8.3653   -3.2844   26.6877 H   0  0  0  0  0  0  0  0  0  0  0  0
   10.0528   -3.0831   26.9192 H   0  0  0  0  0  0  0  0  0  0  0  0
    9.3792   -3.0121   24.8316 C   0  0  0  0  0  0  0  0  0  0  0  0
   10.3300   -3.2825   24.3365 H   0  0  0  0  0  0  0  0  0  0  0  0
    9.3123   -1.9198   24.8128 H   0  0  0  0  0  0  0  0  0  0  0  0
    5.4149    0.6519   20.2103 C   0  0  0  0  0  0  0  0  0  0  0  0
    4.9602    0.6610   21.2046 H   0  0  0  0  0  0  0  0  0  0  0  0
    4.8031    1.3010   19.1377 C   0  0  0  0  0  0  0  0  0  0  0  0
    3.8670    1.8364   19.2569 H   0  0  0  0  0  0  0  0  0  0  0  0
  1  2  1  0
  2  3  2  0
  3  4  1  0
  4  5  1  0
  4  6  2  0
  6  7  1  0
  7  8  2  0
  7  9  1  0
  9 10  1  0
 10 11  1  0
 10 12  1  0
 12 13  2  0
 12 14  1  0
 14 15  1  0
 15 16  1  0
 15 17  1  0
 15 18  1  0
 18 19  1  0
 18 20  1  0
 18 21  1  0
 21 22  1  0
 21 23  1  0
 21 24  1  0
 24 25  1  0
 24 26  1  0
 24 27  1  0
 27 28  1  0
 27 29  1  0
  6 30  1  0
 30 31  1  0
 30 32  2  0
 32 33  1  0
 32  2  1  0
 27 14  1  0
M  END
>  <cnnaffinity>  (1) 
-4.60819

>  <filename>  (1) 
O=C(ONC(=O)N1CCCCC1)c1cccnc1

$$$$
