
     RDKit          3D

 37 39  0  0  0  0  0  0  0  0999 V2000
    4.9292    1.7921   16.9947 H   0  0  0  0  0  0  0  0  0  0  0  0
    5.3983    1.2949   17.8411 C   0  0  0  0  0  0  0  0  0  0  0  0
    6.5525    0.6649   17.5759 N   0  0  0  0  0  0  0  0  0  0  0  0
    7.1631    0.0425   18.5889 C   0  0  0  0  0  0  0  0  0  0  0  0
    8.1218   -0.4220   18.3753 H   0  0  0  0  0  0  0  0  0  0  0  0
    6.6409   -0.0119   19.8911 C   0  0  0  0  0  0  0  0  0  0  0  0
    7.3351   -0.7088   20.9314 N   0  0  0  0  0  0  0  0  0  0  0  0
    6.5676   -1.5800   21.6461 N   0  0  0  0  0  0  0  0  0  0  0  0
    7.1272   -2.2743   22.6112 C   0  0  0  0  0  0  0  0  0  0  0  0
    6.2793   -3.3087   23.3918 C   0  0  0  0  0  0  0  0  0  0  0  0
    6.7605   -3.9405   24.3246 O   0  0  0  0  0  0  0  0  0  0  0  0
    4.9946   -3.5226   22.9809 N   0  0  0  0  0  0  0  0  0  0  0  0
    4.6520   -2.8754   22.2862 H   0  0  0  0  0  0  0  0  0  0  0  0
    4.0764   -4.3300   23.7906 C   0  0  0  0  0  0  0  0  0  0  0  0
    3.1794   -4.5015   23.1857 H   0  0  0  0  0  0  0  0  0  0  0  0
    4.5400   -5.3078   23.9676 H   0  0  0  0  0  0  0  0  0  0  0  0
    3.7014   -3.7031   25.1315 C   0  0  0  0  0  0  0  0  0  0  0  0
    4.2289   -4.1989   26.3376 C   0  0  0  0  0  0  0  0  0  0  0  0
    4.9161   -5.0436   26.3050 H   0  0  0  0  0  0  0  0  0  0  0  0
    3.9176   -3.5904   27.5590 C   0  0  0  0  0  0  0  0  0  0  0  0
    4.3427   -3.9803   28.4812 H   0  0  0  0  0  0  0  0  0  0  0  0
    3.0726   -2.4757   27.5902 C   0  0  0  0  0  0  0  0  0  0  0  0
    2.8310   -1.9967   28.5360 H   0  0  0  0  0  0  0  0  0  0  0  0
    2.5411   -1.9742   26.3980 C   0  0  0  0  0  0  0  0  0  0  0  0
    1.8880   -1.1049   26.4055 H   0  0  0  0  0  0  0  0  0  0  0  0
    2.8536   -2.5872   25.1821 C   0  0  0  0  0  0  0  0  0  0  0  0
    2.4400   -2.1873   24.2624 H   0  0  0  0  0  0  0  0  0  0  0  0
    8.5144   -2.1041   22.9669 C   0  0  0  0  0  0  0  0  0  0  0  0
    8.9141   -2.7054   23.7782 H   0  0  0  0  0  0  0  0  0  0  0  0
    9.2717   -1.2016   22.2865 C   0  0  0  0  0  0  0  0  0  0  0  0
   10.3181   -1.0034   22.4846 H   0  0  0  0  0  0  0  0  0  0  0  0
    8.7176   -0.4072   21.2031 C   0  0  0  0  0  0  0  0  0  0  0  0
    9.3390    0.4270   20.5636 O   0  0  0  0  0  0  0  0  0  0  0  0
    5.4315    0.6335   20.1618 C   0  0  0  0  0  0  0  0  0  0  0  0
    5.0230    0.5920   21.1720 H   0  0  0  0  0  0  0  0  0  0  0  0
    4.8081    1.3138   19.1110 C   0  0  0  0  0  0  0  0  0  0  0  0
    3.8778    1.8492   19.2569 H   0  0  0  0  0  0  0  0  0  0  0  0
  1  2  1  0
  2  3  2  0
  3  4  1  0
  4  5  1  0
  4  6  2  0
  6  7  1  0
  7  8  1  0
  8  9  2  0
  9 10  1  0
 10 11  2  0
 10 12  1  0
 12 13  1  0
 12 14  1  0
 14 15  1  0
 14 16  1  0
 14 17  1  0
 17 18  2  0
 18 19  1  0
 18 20  1  0
 20 21  1  0
 20 22  2  0
 22 23  1  0
 22 24  1  0
 24 25  1  0
 24 26  2  0
 26 27  1  0
  9 28  1  0
 28 29  1  0
 28 30  2  0
 30 31  1  0
 30 32  1  0
 32 33  2  0
  6 34  1  0
 34 35  1  0
 34 36  2  0
 36 37  1  0
 36  2  1  0
 32  7  1  0
 26 17  1  0
M  END
>  <cnnaffinity>  (1) 
-5.16614

>  <filename>  (1) 
O=C(NCc1ccccc1)c1ccc(=O)n(-c2cccnc2)n1

$$$$
