
     RDKit          3D

 42 44  0  0  0  0  0  0  0  0999 V2000
    6.9893    1.8445   21.8609 H   0  0  0  0  0  0  0  0  0  0  0  0
    7.2973    1.0847   22.5859 C   0  0  0  0  0  0  0  0  0  0  0  0
    7.5475   -0.1917   22.2564 C   0  0  0  0  0  0  0  0  0  0  0  0
    7.3057   -0.7774   20.9308 C   0  0  0  0  0  0  0  0  0  0  0  0
    6.5675   -0.0812   19.8554 C   0  0  0  0  0  0  0  0  0  0  0  0
    7.1487   -0.0585   18.5834 C   0  0  0  0  0  0  0  0  0  0  0  0
    8.0794   -0.5919   18.4020 H   0  0  0  0  0  0  0  0  0  0  0  0
    6.6382    0.6132   17.5484 N   0  0  0  0  0  0  0  0  0  0  0  0
    5.4907    1.2802   17.7526 C   0  0  0  0  0  0  0  0  0  0  0  0
    5.1073    1.8409   16.9032 H   0  0  0  0  0  0  0  0  0  0  0  0
    4.8048    1.2789   18.9712 C   0  0  0  0  0  0  0  0  0  0  0  0
    3.8911    1.8493   19.0778 H   0  0  0  0  0  0  0  0  0  0  0  0
    5.3434    0.5746   20.0458 C   0  0  0  0  0  0  0  0  0  0  0  0
    4.8402    0.5509   21.0148 H   0  0  0  0  0  0  0  0  0  0  0  0
    7.8213   -1.9328   20.7491 N   0  0  0  0  0  0  0  0  0  0  0  0
    8.4793   -2.3779   21.9808 C   0  0  0  0  0  0  0  0  0  0  0  0
    9.5446   -2.5182   21.7677 H   0  0  0  0  0  0  0  0  0  0  0  0
    8.0727   -3.3536   22.2667 H   0  0  0  0  0  0  0  0  0  0  0  0
    8.2456   -1.2855   23.0673 C   0  0  0  0  0  0  0  0  0  0  0  0
    9.1903   -0.9393   23.5118 H   0  0  0  0  0  0  0  0  0  0  0  0
    7.6043   -1.6676   23.8721 H   0  0  0  0  0  0  0  0  0  0  0  0
    7.4300    1.5497   23.8849 N   0  0  0  0  0  0  0  0  0  0  0  0
    7.7282    0.8523   24.5484 H   0  0  0  0  0  0  0  0  0  0  0  0
    7.1034    2.8224   24.3243 C   0  0  0  0  0  0  0  0  0  0  0  0
    6.6791    3.6825   23.5756 O   0  0  0  0  0  0  0  0  0  0  0  0
    7.4551    3.0622   25.7908 C   0  0  0  0  0  0  0  0  0  0  0  0
    7.2763    2.1157   26.3190 H   0  0  0  0  0  0  0  0  0  0  0  0
    8.9720    3.3856   25.8438 C   0  0  0  0  0  0  0  0  0  0  0  0
    9.5480    2.6271   25.2975 H   0  0  0  0  0  0  0  0  0  0  0  0
    9.2754    3.3342   26.8852 H   0  0  0  0  0  0  0  0  0  0  0  0
    9.2654    4.7875   25.3038 C   0  0  0  0  0  0  0  0  0  0  0  0
   10.3410    4.9931   25.3049 H   0  0  0  0  0  0  0  0  0  0  0  0
    8.9327    4.8294   24.2609 H   0  0  0  0  0  0  0  0  0  0  0  0
    8.5125    5.8420   26.1229 C   0  0  0  0  0  0  0  0  0  0  0  0
    8.8539    5.7664   27.1675 H   0  0  0  0  0  0  0  0  0  0  0  0
    8.7592    6.8585   25.7805 H   0  0  0  0  0  0  0  0  0  0  0  0
    6.9939    5.6010   26.0763 C   0  0  0  0  0  0  0  0  0  0  0  0
    6.4890    6.3157   26.7369 H   0  0  0  0  0  0  0  0  0  0  0  0
    6.6126    5.8034   25.0702 H   0  0  0  0  0  0  0  0  0  0  0  0
    6.6180    4.1647   26.4916 C   0  0  0  0  0  0  0  0  0  0  0  0
    6.7842    4.0749   27.5753 H   0  0  0  0  0  0  0  0  0  0  0  0
    5.5429    4.0007   26.3347 H   0  0  0  0  0  0  0  0  0  0  0  0
  1  2  1  0
  2  3  2  3
  3  4  1  0
  4  5  1  0
  5  6  2  0
  6  7  1  0
  6  8  1  0
  8  9  2  0
  9 10  1  0
  9 11  1  0
 11 12  1  0
 11 13  2  0
 13 14  1  0
  4 15  2  0
 15 16  1  0
 16 17  1  0
 16 18  1  0
 16 19  1  0
 19 20  1  0
 19 21  1  0
  2 22  1  0
 22 23  1  0
 22 24  1  0
 24 25  2  0
 24 26  1  0
 26 27  1  0
 26 28  1  0
 28 29  1  0
 28 30  1  0
 28 31  1  0
 31 32  1  0
 31 33  1  0
 31 34  1  0
 34 35  1  0
 34 36  1  0
 34 37  1  0
 37 38  1  0
 37 39  1  0
 37 40  1  0
 40 41  1  0
 40 42  1  0
 19  3  1  0
 40 26  1  0
 13  5  1  0
M  END
>  <cnnaffinity>  (1) 
-4.9743

>  <filename>  (1) 
O=C(NC=C1CCN=C1c1cccnc1)C1CCCCC1

$$$$
