
     RDKit          3D

 34 35  0  0  0  0  0  0  0  0999 V2000
    7.5572   -1.1207   20.7377 H   0  0  0  0  0  0  0  0  0  0  0  0
    6.8335   -0.2922   20.9054 C   0  0  0  0  0  0  0  0  0  0  0  0
    6.5311    0.1969   22.0361 N   0  0  0  0  0  0  0  0  0  0  0  0
    7.1011   -0.3942   23.1794 C   0  0  0  0  0  0  0  0  0  0  0  0
    6.4528   -0.7185   24.1494 O   0  0  0  0  0  0  0  0  0  0  0  0
    8.4628   -0.4983   23.1225 N   0  0  0  0  0  0  0  0  0  0  0  0
    8.8935   -0.0285   22.3481 H   0  0  0  0  0  0  0  0  0  0  0  0
    9.1641   -1.4736   23.9404 C   0  0  0  0  0  0  0  0  0  0  0  0
   10.2370   -1.4102   23.7249 H   0  0  0  0  0  0  0  0  0  0  0  0
    9.0474   -1.2203   25.0023 H   0  0  0  0  0  0  0  0  0  0  0  0
    8.6012   -2.8883   23.6901 C   0  0  0  0  0  0  0  0  0  0  0  0
    8.6942   -3.1053   22.6156 H   0  0  0  0  0  0  0  0  0  0  0  0
    7.5277   -2.8323   23.9145 H   0  0  0  0  0  0  0  0  0  0  0  0
    9.2376   -3.9988   24.4913 C   0  0  0  0  0  0  0  0  0  0  0  0
    8.4529   -4.8664   25.2689 C   0  0  0  0  0  0  0  0  0  0  0  0
    7.3749   -4.7336   25.2899 H   0  0  0  0  0  0  0  0  0  0  0  0
    9.0273   -5.9206   25.9894 C   0  0  0  0  0  0  0  0  0  0  0  0
    8.3995   -6.5751   26.5912 H   0  0  0  0  0  0  0  0  0  0  0  0
   10.4078   -6.1138   25.9333 C   0  0  0  0  0  0  0  0  0  0  0  0
   10.8818   -6.9604   26.4181 H   0  0  0  0  0  0  0  0  0  0  0  0
   11.2007   -5.2507   25.1750 C   0  0  0  0  0  0  0  0  0  0  0  0
   12.2695   -5.4158   25.1544 H   0  0  0  0  0  0  0  0  0  0  0  0
   10.6239   -4.2055   24.4537 C   0  0  0  0  0  0  0  0  0  0  0  0
   11.2443   -3.5831   23.8127 H   0  0  0  0  0  0  0  0  0  0  0  0
    6.2569    0.2539   19.6659 C   0  0  0  0  0  0  0  0  0  0  0  0
    6.9548    0.0927   18.4640 C   0  0  0  0  0  0  0  0  0  0  0  0
    7.8726   -0.4954   18.4360 H   0  0  0  0  0  0  0  0  0  0  0  0
    6.5794    0.6362   17.3052 N   0  0  0  0  0  0  0  0  0  0  0  0
    5.4512    1.3654   17.3109 C   0  0  0  0  0  0  0  0  0  0  0  0
    5.1630    1.8093   16.3615 H   0  0  0  0  0  0  0  0  0  0  0  0
    4.6639    1.5661   18.4491 C   0  0  0  0  0  0  0  0  0  0  0  0
    3.7657    2.1705   18.3799 H   0  0  0  0  0  0  0  0  0  0  0  0
    5.0747    1.0100   19.6571 C   0  0  0  0  0  0  0  0  0  0  0  0
    4.5253    1.1553   20.5878 H   0  0  0  0  0  0  0  0  0  0  0  0
  1  2  1  0
  2  3  2  3
  3  4  1  0
  4  5  2  0
  4  6  1  0
  6  7  1  0
  6  8  1  0
  8  9  1  0
  8 10  1  0
  8 11  1  0
 11 12  1  0
 11 13  1  0
 11 14  1  0
 14 15  2  0
 15 16  1  0
 15 17  1  0
 17 18  1  0
 17 19  2  0
 19 20  1  0
 19 21  1  0
 21 22  1  0
 21 23  2  0
 23 24  1  0
  2 25  1  0
 25 26  2  0
 26 27  1  0
 26 28  1  0
 28 29  2  0
 29 30  1  0
 29 31  1  0
 31 32  1  0
 31 33  2  0
 33 34  1  0
 23 14  1  0
 33 25  1  0
M  END
>  <cnnaffinity>  (1) 
-4.83488

>  <filename>  (1) 
O=C(N=Cc1cccnc1)NCCc1ccccc1

$$$$
