
     RDKit          3D

 17 17  0  0  0  0  0  0  0  0999 V2000
    4.9227    1.7722   17.0046 H   0  0  0  0  0  0  0  0  0  0  0  0
    5.4066    1.2850   17.8512 C   0  0  0  0  0  0  0  0  0  0  0  0
    6.5708    0.6660   17.6110 N   0  0  0  0  0  0  0  0  0  0  0  0
    7.1694    0.0465   18.6291 C   0  0  0  0  0  0  0  0  0  0  0  0
    8.1214   -0.4268   18.3963 H   0  0  0  0  0  0  0  0  0  0  0  0
    6.6283   -0.0203   19.9211 C   0  0  0  0  0  0  0  0  0  0  0  0
    7.4473   -0.7070   20.9549 C   0  0  0  0  0  0  0  0  0  0  0  0
    8.6441   -0.8237   20.8984 O   0  0  0  0  0  0  0  0  0  0  0  0
    6.7372   -1.2460   22.0292 N   0  0  0  0  0  0  0  0  0  0  0  0
    5.7449   -1.3858   22.0205 H   0  0  0  0  0  0  0  0  0  0  0  0
    7.2724   -1.7381   23.1633 C   0  0  0  0  0  0  0  0  0  0  0  0
    8.5552   -1.5908   23.3720 F   0  0  0  0  0  0  0  0  0  0  0  0
    6.5287   -2.4797   24.3993 S   0  0  0  0  0  0  0  0  0  0  0  0
    5.4192    0.6426   20.1676 C   0  0  0  0  0  0  0  0  0  0  0  0
    4.9844    0.6552   21.1707 H   0  0  0  0  0  0  0  0  0  0  0  0
    4.8029    1.3109   19.1127 C   0  0  0  0  0  0  0  0  0  0  0  0
    3.8723    1.8467   19.2612 H   0  0  0  0  0  0  0  0  0  0  0  0
  1  2  1  0
  2  3  2  0
  3  4  1  0
  4  5  1  0
  4  6  2  0
  6  7  1  0
  7  8  2  0
  7  9  1  0
  9 10  1  0
  9 11  1  0
 11 12  1  0
 11 13  2  0
  6 14  1  0
 14 15  1  0
 14 16  2  0
 16 17  1  0
 16  2  1  0
M  END
>  <cnnaffinity>  (1) 
-4.05216

>  <filename>  (1) 
O=C(NC(F)=S)c1cccnc1

$$$$
