
     RDKit          3D

 18 18  0  0  0  0  0  0  0  0999 V2000
    4.9975    1.7560   17.0394 H   0  0  0  0  0  0  0  0  0  0  0  0
    5.4374    1.2459   17.8936 C   0  0  0  0  0  0  0  0  0  0  0  0
    6.5962    0.6140   17.6709 N   0  0  0  0  0  0  0  0  0  0  0  0
    7.1749    0.0068   18.7065 C   0  0  0  0  0  0  0  0  0  0  0  0
    8.1359   -0.4645   18.5106 H   0  0  0  0  0  0  0  0  0  0  0  0
    6.6178   -0.0438   19.9917 C   0  0  0  0  0  0  0  0  0  0  0  0
    7.4552   -0.7727   20.9784 C   0  0  0  0  0  0  0  0  0  0  0  0
    8.6546   -0.8596   20.8970 O   0  0  0  0  0  0  0  0  0  0  0  0
    6.7641   -1.4299   21.9611 N   0  0  0  0  0  0  0  0  0  0  0  0
    5.7725   -1.3780   22.1119 H   0  0  0  0  0  0  0  0  0  0  0  0
    7.4893   -1.7915   23.3820 S   0  0  0  0  0  0  0  0  0  0  0  0
    6.4224   -2.3106   24.1969 O   0  0  0  0  0  0  0  0  0  0  0  0
    8.4995   -0.8682   23.8097 O   0  0  0  0  0  0  0  0  0  0  0  0
    8.4486   -3.4626   22.4848 Cl  0  0  0  0  0  0  0  0  0  0  0  0
    5.4020    0.6262   20.2205 C   0  0  0  0  0  0  0  0  0  0  0  0
    4.9286    0.6898   21.2062 H   0  0  0  0  0  0  0  0  0  0  0  0
    4.8077    1.2814   19.1422 C   0  0  0  0  0  0  0  0  0  0  0  0
    3.8848    1.8369   19.2603 H   0  0  0  0  0  0  0  0  0  0  0  0
  1  2  1  0
  2  3  2  0
  3  4  1  0
  4  5  1  0
  4  6  2  0
  6  7  1  0
  7  8  2  0
  7  9  1  0
  9 10  1  0
  9 11  1  0
 11 12  2  0
 11 13  2  0
 11 14  1  0
  6 15  1  0
 15 16  1  0
 15 17  2  0
 17 18  1  0
 17  2  1  0
M  END
>  <cnnaffinity>  (1) 
-4.4268

>  <filename>  (1) 
O=C(NS(=O)(=O)Cl)c1cccnc1

$$$$
