
     RDKit          3D

 29 30  0  0  0  0  0  0  0  0999 V2000
    4.9640    1.8410   16.9761 H   0  0  0  0  0  0  0  0  0  0  0  0
    5.4278    1.3314   17.8209 C   0  0  0  0  0  0  0  0  0  0  0  0
    6.6013    0.7249   17.5750 N   0  0  0  0  0  0  0  0  0  0  0  0
    7.1878    0.0897   18.5859 C   0  0  0  0  0  0  0  0  0  0  0  0
    8.1386   -0.4004   18.3850 H   0  0  0  0  0  0  0  0  0  0  0  0
    6.6416   -0.0096   19.8819 C   0  0  0  0  0  0  0  0  0  0  0  0
    7.3623   -0.8106   20.8919 C   0  0  0  0  0  0  0  0  0  0  0  0
    8.9753   -1.0031   20.8935 S   0  0  0  0  0  0  0  0  0  0  0  0
    6.5503   -1.6318   21.8676 C   0  0  0  0  0  0  0  0  0  0  0  0
    5.6413   -2.3391   21.4713 O   0  0  0  0  0  0  0  0  0  0  0  0
    7.0335   -1.6367   23.3536 C   0  0  0  0  0  0  0  0  0  0  0  0
    7.8378   -0.8424   23.7966 O   0  0  0  0  0  0  0  0  0  0  0  0
    6.4668   -2.6484   24.0690 N   0  0  0  0  0  0  0  0  0  0  0  0
    5.6518   -3.0811   23.6608 H   0  0  0  0  0  0  0  0  0  0  0  0
    6.9334   -3.1634   25.2950 C   0  0  0  0  0  0  0  0  0  0  0  0
    8.3020   -3.2802   25.5743 C   0  0  0  0  0  0  0  0  0  0  0  0
    9.0353   -2.8801   24.8795 H   0  0  0  0  0  0  0  0  0  0  0  0
    8.7012   -3.9157   26.7576 C   0  0  0  0  0  0  0  0  0  0  0  0
    9.7660   -4.0229   26.9675 H   0  0  0  0  0  0  0  0  0  0  0  0
    7.7520   -4.3955   27.6692 C   0  0  0  0  0  0  0  0  0  0  0  0
    8.0873   -4.9310   28.5562 H   0  0  0  0  0  0  0  0  0  0  0  0
    6.3840   -4.1961   27.4179 C   0  0  0  0  0  0  0  0  0  0  0  0
    5.6261   -4.4927   28.1435 H   0  0  0  0  0  0  0  0  0  0  0  0
    5.9795   -3.5934   26.2204 C   0  0  0  0  0  0  0  0  0  0  0  0
    4.9290   -3.4267   25.9933 H   0  0  0  0  0  0  0  0  0  0  0  0
    5.4198    0.6383   20.1275 C   0  0  0  0  0  0  0  0  0  0  0  0
    4.9593    0.6227   21.1146 H   0  0  0  0  0  0  0  0  0  0  0  0
    4.8084    1.3188   19.0719 C   0  0  0  0  0  0  0  0  0  0  0  0
    3.8720    1.8472   19.2031 H   0  0  0  0  0  0  0  0  0  0  0  0
  1  2  1  0
  2  3  2  0
  3  4  1  0
  4  5  1  0
  4  6  2  0
  6  7  1  0
  7  8  2  0
  7  9  1  0
  9 10  2  0
  9 11  1  0
 11 12  2  0
 11 13  1  0
 13 14  1  0
 13 15  1  0
 15 16  2  0
 16 17  1  0
 16 18  1  0
 18 19  1  0
 18 20  2  0
 20 21  1  0
 20 22  1  0
 22 23  1  0
 22 24  2  0
 24 25  1  0
  6 26  1  0
 26 27  1  0
 26 28  2  0
 28 29  1  0
 28  2  1  0
 24 15  1  0
M  END
>  <cnnaffinity>  (1) 
-4.48819

>  <filename>  (1) 
O=C(Nc1ccccc1)C(=O)C(=S)c1cccnc1

$$$$
