
     RDKit          3D

 24 25  0  0  0  0  0  0  0  0999 V2000
   13.1518   -1.7058   22.6120 H   0  0  0  0  0  0  0  0  0  0  0  0
   12.7384   -0.8316   22.7745 O   0  0  0  0  0  0  0  0  0  0  0  0
   11.4171   -0.8969   22.3643 N   0  0  0  0  0  0  0  0  0  0  0  0
   11.1622   -0.1538   21.7387 H   0  0  0  0  0  0  0  0  0  0  0  0
   10.3914   -1.5645   22.9698 C   0  0  0  0  0  0  0  0  0  0  0  0
   10.5100   -2.3613   23.8825 O   0  0  0  0  0  0  0  0  0  0  0  0
    9.0766   -1.2613   22.2746 C   0  0  0  0  0  0  0  0  0  0  0  0
    8.7342   -0.4698   21.2147 C   0  0  0  0  0  0  0  0  0  0  0  0
    9.2710    0.2148   20.5716 H   0  0  0  0  0  0  0  0  0  0  0  0
    7.3960   -0.6813   20.9215 N   0  0  0  0  0  0  0  0  0  0  0  0
    6.6745    0.0141   19.8970 C   0  0  0  0  0  0  0  0  0  0  0  0
    7.1868    0.0650   18.5862 C   0  0  0  0  0  0  0  0  0  0  0  0
    8.1261   -0.4354   18.3581 H   0  0  0  0  0  0  0  0  0  0  0  0
    6.5673    0.6753   17.5725 N   0  0  0  0  0  0  0  0  0  0  0  0
    5.4054    1.2919   17.8395 C   0  0  0  0  0  0  0  0  0  0  0  0
    4.9308    1.7880   16.9980 H   0  0  0  0  0  0  0  0  0  0  0  0
    4.8148    1.3060   19.1098 C   0  0  0  0  0  0  0  0  0  0  0  0
    3.8794    1.8355   19.2554 H   0  0  0  0  0  0  0  0  0  0  0  0
    5.4516    0.6419   20.1660 C   0  0  0  0  0  0  0  0  0  0  0  0
    5.0236    0.6073   21.1718 H   0  0  0  0  0  0  0  0  0  0  0  0
    6.8960   -1.6954   21.7167 C   0  0  0  0  0  0  0  0  0  0  0  0
    5.5011   -2.5915   21.5922 S   0  0  0  0  0  0  0  0  0  0  0  0
    7.8990   -1.9448   22.5903 N   0  0  0  0  0  0  0  0  0  0  0  0
    7.7305   -2.6547   23.2879 H   0  0  0  0  0  0  0  0  0  0  0  0
  1  2  1  0
  2  3  1  0
  3  4  1  0
  3  5  1  0
  5  6  2  0
  5  7  1  0
  7  8  2  0
  8  9  1  0
  8 10  1  0
 10 11  1  0
 11 12  2  0
 12 13  1  0
 12 14  1  0
 14 15  2  0
 15 16  1  0
 15 17  1  0
 17 18  1  0
 17 19  2  0
 19 20  1  0
 10 21  1  0
 21 22  2  0
 21 23  1  0
 23 24  1  0
 23  7  1  0
 19 11  1  0
M  END
>  <cnnaffinity>  (1) 
-4.50513

>  <filename>  (1) 
O=C(NO)c1cn(-c2cccnc2)c(=S)[nH]1

$$$$
