
     RDKit          3D

 31 33  0  0  0  0  0  0  0  0999 V2000
    4.9592    1.7770   16.9985 H   0  0  0  0  0  0  0  0  0  0  0  0
    5.4047    1.2779   17.8592 C   0  0  0  0  0  0  0  0  0  0  0  0
    6.5656    0.6514   17.6272 N   0  0  0  0  0  0  0  0  0  0  0  0
    7.1526    0.0317   18.6528 C   0  0  0  0  0  0  0  0  0  0  0  0
    8.1176   -0.4222   18.4365 H   0  0  0  0  0  0  0  0  0  0  0  0
    6.6108   -0.0330   19.9442 C   0  0  0  0  0  0  0  0  0  0  0  0
    7.4547   -0.7389   20.9591 C   0  0  0  0  0  0  0  0  0  0  0  0
    8.6678   -0.7697   20.8574 O   0  0  0  0  0  0  0  0  0  0  0  0
    6.7649   -1.3466   21.9776 N   0  0  0  0  0  0  0  0  0  0  0  0
    5.7614   -1.2846   21.9438 H   0  0  0  0  0  0  0  0  0  0  0  0
    7.3658   -2.0428   23.0668 C   0  0  0  0  0  0  0  0  0  0  0  0
    8.3349   -2.9845   22.7884 C   0  0  0  0  0  0  0  0  0  0  0  0
    8.6099   -3.1315   21.7498 H   0  0  0  0  0  0  0  0  0  0  0  0
    8.9736   -3.7037   23.8334 C   0  0  0  0  0  0  0  0  0  0  0  0
    9.7503   -4.4216   23.5789 H   0  0  0  0  0  0  0  0  0  0  0  0
    8.6314   -3.4685   25.1434 C   0  0  0  0  0  0  0  0  0  0  0  0
    9.1243   -4.0045   25.9493 H   0  0  0  0  0  0  0  0  0  0  0  0
    7.6253   -2.5098   25.4790 C   0  0  0  0  0  0  0  0  0  0  0  0
    7.2631   -2.2604   26.8372 C   0  0  0  0  0  0  0  0  0  0  0  0
    7.7786   -2.8323   27.6011 H   0  0  0  0  0  0  0  0  0  0  0  0
    6.3011   -1.3329   27.1659 C   0  0  0  0  0  0  0  0  0  0  0  0
    6.0322   -1.1541   28.2037 H   0  0  0  0  0  0  0  0  0  0  0  0
    5.6678   -0.5836   26.1365 C   0  0  0  0  0  0  0  0  0  0  0  0
    4.9084    0.1525   26.3886 H   0  0  0  0  0  0  0  0  0  0  0  0
    6.0201   -0.7752   24.8188 C   0  0  0  0  0  0  0  0  0  0  0  0
    5.5905   -0.1264   24.0630 H   0  0  0  0  0  0  0  0  0  0  0  0
    6.9771   -1.7697   24.4334 C   0  0  0  0  0  0  0  0  0  0  0  0
    5.3951    0.6327   20.1773 C   0  0  0  0  0  0  0  0  0  0  0  0
    4.9375    0.6881   21.1691 H   0  0  0  0  0  0  0  0  0  0  0  0
    4.7909    1.3041   19.1143 C   0  0  0  0  0  0  0  0  0  0  0  0
    3.8672    1.8543   19.2394 H   0  0  0  0  0  0  0  0  0  0  0  0
  1  2  1  0
  2  3  2  0
  3  4  1  0
  4  5  1  0
  4  6  2  0
  6  7  1  0
  7  8  2  0
  7  9  1  0
  9 10  1  0
  9 11  1  0
 11 12  2  0
 12 13  1  0
 12 14  1  0
 14 15  1  0
 14 16  2  0
 16 17  1  0
 16 18  1  0
 18 19  2  0
 19 20  1  0
 19 21  1  0
 21 22  1  0
 21 23  2  0
 23 24  1  0
 23 25  1  0
 25 26  1  0
 25 27  2  0
  6 28  1  0
 28 29  1  0
 28 30  2  0
 30 31  1  0
 30  2  1  0
 27 11  1  0
 27 18  1  0
M  END
>  <cnnaffinity>  (1) 
-4.69426

>  <filename>  (1) 
O=C(Nc1cccc2ccccc12)c1cccnc1

$$$$
