
     RDKit          3D

 34 36  0  0  0  0  0  0  0  0999 V2000
    4.9245    1.7805   16.9964 H   0  0  0  0  0  0  0  0  0  0  0  0
    5.4021    1.2931   17.8414 C   0  0  0  0  0  0  0  0  0  0  0  0
    6.5669    0.6750   17.5854 N   0  0  0  0  0  0  0  0  0  0  0  0
    7.1650    0.0504   18.6042 C   0  0  0  0  0  0  0  0  0  0  0  0
    8.1111   -0.4389   18.3787 H   0  0  0  0  0  0  0  0  0  0  0  0
    6.6484    0.0255   19.9073 C   0  0  0  0  0  0  0  0  0  0  0  0
    7.3748   -0.7163   20.9335 C   0  0  0  0  0  0  0  0  0  0  0  0
    7.8890   -1.9058   20.7474 N   0  0  0  0  0  0  0  0  0  0  0  0
    8.4641   -2.2573   21.9423 C   0  0  0  0  0  0  0  0  0  0  0  0
    8.9461   -3.2178   22.0749 H   0  0  0  0  0  0  0  0  0  0  0  0
    8.3300   -1.2509   22.8496 C   0  0  0  0  0  0  0  0  0  0  0  0
    8.6722   -1.1564   23.8689 H   0  0  0  0  0  0  0  0  0  0  0  0
    7.6014   -0.2566   22.2082 N   0  0  0  0  0  0  0  0  0  0  0  0
    7.3063    1.0503   22.7505 C   0  0  0  0  0  0  0  0  0  0  0  0
    8.1472    1.3821   23.3699 H   0  0  0  0  0  0  0  0  0  0  0  0
    7.2001    1.8028   21.9626 H   0  0  0  0  0  0  0  0  0  0  0  0
    6.0971    1.0130   23.5516 N   0  0  0  0  0  0  0  0  0  0  0  0
    5.6117    0.1375   23.6395 H   0  0  0  0  0  0  0  0  0  0  0  0
    5.6145    2.1445   24.1409 C   0  0  0  0  0  0  0  0  0  0  0  0
    6.1177    3.2376   23.9269 O   0  0  0  0  0  0  0  0  0  0  0  0
    4.4076    1.9978   25.0875 C   0  0  0  0  0  0  0  0  0  0  0  0
    3.5687    3.1041   25.3389 C   0  0  0  0  0  0  0  0  0  0  0  0
    3.7520    4.0603   24.8641 H   0  0  0  0  0  0  0  0  0  0  0  0
    2.4948    2.9771   26.2236 C   0  0  0  0  0  0  0  0  0  0  0  0
    1.8378    3.8217   26.4121 H   0  0  0  0  0  0  0  0  0  0  0  0
    2.1976    1.8508   26.8829 N   0  0  0  0  0  0  0  0  0  0  0  0
    3.0063    0.8060   26.6708 C   0  0  0  0  0  0  0  0  0  0  0  0
    2.7663   -0.1057   27.2090 H   0  0  0  0  0  0  0  0  0  0  0  0
    4.1048    0.8262   25.8055 C   0  0  0  0  0  0  0  0  0  0  0  0
    4.7222   -0.0630   25.7283 H   0  0  0  0  0  0  0  0  0  0  0  0
    5.4290    0.6690   20.1596 C   0  0  0  0  0  0  0  0  0  0  0  0
    4.9996    0.6467   21.1646 H   0  0  0  0  0  0  0  0  0  0  0  0
    4.7974    1.3152   19.1021 C   0  0  0  0  0  0  0  0  0  0  0  0
    3.8682    1.8460   19.2549 H   0  0  0  0  0  0  0  0  0  0  0  0
  1  2  1  0
  2  3  2  0
  3  4  1  0
  4  5  1  0
  4  6  2  0
  6  7  1  0
  7  8  2  0
  8  9  1  0
  9 10  1  0
  9 11  2  0
 11 12  1  0
 11 13  1  0
 13 14  1  0
 14 15  1  0
 14 16  1  0
 14 17  1  0
 17 18  1  0
 17 19  1  0
 19 20  2  0
 19 21  1  0
 21 22  2  0
 22 23  1  0
 22 24  1  0
 24 25  1  0
 24 26  2  0
 26 27  1  0
 27 28  1  0
 27 29  2  0
 29 30  1  0
  6 31  1  0
 31 32  1  0
 31 33  2  0
 33 34  1  0
 33  2  1  0
 13  7  1  0
 29 21  1  0
M  END
>  <cnnaffinity>  (1) 
-4.99219

>  <filename>  (1) 
O=C(NCn1ccnc1-c1cccnc1)c1ccncc1

$$$$
