
     RDKit          3D

 31 33  0  0  0  0  0  0  0  0999 V2000
    5.0175    2.0902   16.5954 H   0  0  0  0  0  0  0  0  0  0  0  0
    5.3970    1.5458   17.4603 C   0  0  0  0  0  0  0  0  0  0  0  0
    6.5243    0.8454   17.2640 N   0  0  0  0  0  0  0  0  0  0  0  0
    7.0215    0.1669   18.3016 C   0  0  0  0  0  0  0  0  0  0  0  0
    7.9207   -0.4153   18.1042 H   0  0  0  0  0  0  0  0  0  0  0  0
    6.4560    0.1850   19.5785 C   0  0  0  0  0  0  0  0  0  0  0  0
    7.1322   -0.5733   20.6506 C   0  0  0  0  0  0  0  0  0  0  0  0
    7.6097   -1.7460   20.3252 N   0  0  0  0  0  0  0  0  0  0  0  0
    8.1125   -2.5399   21.3192 C   0  0  0  0  0  0  0  0  0  0  0  0
    8.5028   -3.6788   21.1841 O   0  0  0  0  0  0  0  0  0  0  0  0
    8.1793   -2.0178   22.6045 N   0  0  0  0  0  0  0  0  0  0  0  0
    8.5044   -2.6507   23.3154 H   0  0  0  0  0  0  0  0  0  0  0  0
    7.7359   -0.8049   22.9170 C   0  0  0  0  0  0  0  0  0  0  0  0
    7.8022   -0.4021   24.2201 N   0  0  0  0  0  0  0  0  0  0  0  0
    7.4026    0.5082   24.3852 H   0  0  0  0  0  0  0  0  0  0  0  0
    8.3455   -1.0835   25.2857 C   0  0  0  0  0  0  0  0  0  0  0  0
    8.8381   -2.2029   25.1830 O   0  0  0  0  0  0  0  0  0  0  0  0
    8.3392   -0.3976   26.6073 C   0  0  0  0  0  0  0  0  0  0  0  0
    7.5538    0.7072   26.8331 O   0  0  0  0  0  0  0  0  0  0  0  0
    7.7311    1.0558   28.1286 C   0  0  0  0  0  0  0  0  0  0  0  0
    7.1996    1.9325   28.4597 H   0  0  0  0  0  0  0  0  0  0  0  0
    8.6120    0.2240   28.7356 C   0  0  0  0  0  0  0  0  0  0  0  0
    8.9330    0.2712   29.7697 H   0  0  0  0  0  0  0  0  0  0  0  0
    9.0130   -0.7243   27.7466 C   0  0  0  0  0  0  0  0  0  0  0  0
    9.7179   -1.5432   27.8207 H   0  0  0  0  0  0  0  0  0  0  0  0
    7.2140   -0.0066   21.9387 C   0  0  0  0  0  0  0  0  0  0  0  0
    6.9025    1.0105   22.1274 H   0  0  0  0  0  0  0  0  0  0  0  0
    5.2681    0.9078   19.7745 C   0  0  0  0  0  0  0  0  0  0  0  0
    4.7768    0.9311   20.7500 H   0  0  0  0  0  0  0  0  0  0  0  0
    4.7253    1.5899   18.6870 C   0  0  0  0  0  0  0  0  0  0  0  0
    3.8151    2.1742   18.7762 H   0  0  0  0  0  0  0  0  0  0  0  0
  1  2  1  0
  2  3  2  0
  3  4  1  0
  4  5  1  0
  4  6  2  0
  6  7  1  0
  7  8  2  0
  8  9  1  0
  9 10  2  0
  9 11  1  0
 11 12  1  0
 11 13  1  0
 13 14  1  0
 14 15  1  0
 14 16  1  0
 16 17  2  0
 16 18  1  0
 18 19  1  0
 19 20  1  0
 20 21  1  0
 20 22  2  0
 22 23  1  0
 22 24  1  0
 24 25  1  0
 13 26  2  0
 26 27  1  0
  6 28  1  0
 28 29  1  0
 28 30  2  0
 30 31  1  0
 30  2  1  0
 26  7  1  0
 24 18  2  0
M  END
>  <cnnaffinity>  (1) 
-4.712

>  <filename>  (1) 
O=C(Nc1cc(-c2cccnc2)nc(=O)[nH]1)c1ccco1

$$$$
