
     RDKit          3D

 37 39  0  0  0  0  0  0  0  0999 V2000
    8.7385    2.6990   23.2250 O   0  0  0  0  0  0  0  0  0  0  0  0
    8.1465    2.9707   22.1918 C   0  0  0  0  0  0  0  0  0  0  0  0
    8.3914    2.3215   21.0119 N   0  0  0  0  0  0  0  0  0  0  0  0
    9.1927    1.1044   20.9839 C   0  0  0  0  0  0  0  0  0  0  0  0
    8.4955   -0.1623   21.4472 C   0  0  0  0  0  0  0  0  0  0  0  0
    7.2994   -0.5908   21.0266 C   0  0  0  0  0  0  0  0  0  0  0  0
    6.5672    0.0261   19.8946 C   0  0  0  0  0  0  0  0  0  0  0  0
    5.3406    0.6759   20.0890 C   0  0  0  0  0  0  0  0  0  0  0  0
    4.7589    1.3568   19.0168 C   0  0  0  0  0  0  0  0  0  0  0  0
    5.4122    1.3414   17.7779 C   0  0  0  0  0  0  0  0  0  0  0  0
    6.5537    0.6759   17.5512 N   0  0  0  0  0  0  0  0  0  0  0  0
    7.1047    0.0386   18.5948 C   0  0  0  0  0  0  0  0  0  0  0  0
    8.0154   -0.5250   18.3867 H   0  0  0  0  0  0  0  0  0  0  0  0
    4.9974    1.8803   16.9283 H   0  0  0  0  0  0  0  0  0  0  0  0
    3.8296    1.9039   19.1274 H   0  0  0  0  0  0  0  0  0  0  0  0
    4.8821    0.6710   21.0817 H   0  0  0  0  0  0  0  0  0  0  0  0
    6.8076   -1.4011   21.5677 H   0  0  0  0  0  0  0  0  0  0  0  0
    9.0426   -0.7541   22.1771 H   0  0  0  0  0  0  0  0  0  0  0  0
    9.5372    0.9598   19.9573 H   0  0  0  0  0  0  0  0  0  0  0  0
   10.0812    1.2795   21.5959 H   0  0  0  0  0  0  0  0  0  0  0  0
    7.6954    2.4636   20.2946 H   0  0  0  0  0  0  0  0  0  0  0  0
    7.0948    4.0627   22.1016 C   0  0  0  0  0  0  0  0  0  0  0  0
    7.4110    5.2955   21.5552 C   0  0  0  0  0  0  0  0  0  0  0  0
    6.4094    6.2835   21.3732 C   0  0  0  0  0  0  0  0  0  0  0  0
    6.8229    7.7752   20.5833 Cl  0  0  0  0  0  0  0  0  0  0  0  0
    5.1208    6.0872   21.7973 C   0  0  0  0  0  0  0  0  0  0  0  0
    4.7815    4.8725   22.4597 C   0  0  0  0  0  0  0  0  0  0  0  0
    3.4971    4.6387   23.0293 C   0  0  0  0  0  0  0  0  0  0  0  0
    3.2425    3.4586   23.6840 C   0  0  0  0  0  0  0  0  0  0  0  0
    4.1478    2.4563   23.8111 N   0  0  0  0  0  0  0  0  0  0  0  0
    5.3510    2.6592   23.2942 C   0  0  0  0  0  0  0  0  0  0  0  0
    5.7640    3.8426   22.6059 C   0  0  0  0  0  0  0  0  0  0  0  0
    6.0729    1.8537   23.4131 H   0  0  0  0  0  0  0  0  0  0  0  0
    2.2695    3.2731   24.1432 H   0  0  0  0  0  0  0  0  0  0  0  0
    2.7316    5.4040   22.9596 H   0  0  0  0  0  0  0  0  0  0  0  0
    4.3699    6.8472   21.6106 H   0  0  0  0  0  0  0  0  0  0  0  0
    8.4217    5.5204   21.2375 H   0  0  0  0  0  0  0  0  0  0  0  0
  1  2  2  0
  2  3  1  0
  3  4  1  0
  4  5  1  0
  5  6  2  3
  6  7  1  0
  7  8  2  0
  8  9  1  0
  9 10  2  0
 10 11  1  0
 11 12  2  0
 12 13  1  0
 10 14  1  0
  9 15  1  0
  8 16  1  0
  6 17  1  0
  5 18  1  0
  4 19  1  0
  4 20  1  0
  3 21  1  0
  2 22  1  0
 22 23  2  0
 23 24  1  0
 24 25  1  0
 24 26  2  0
 26 27  1  0
 27 28  2  0
 28 29  1  0
 29 30  2  0
 30 31  1  0
 31 32  2  0
 31 33  1  0
 29 34  1  0
 28 35  1  0
 26 36  1  0
 23 37  1  0
 12  7  1  0
 32 22  1  0
 32 27  1  0
M  END
>  <cnnaffinity>  (1) 
-4.73529

>  <filename>  (1) 
O=C(NCC=Cc1cccnc1)c1cc(Cl)cc2ccncc12

$$$$
