
     RDKit          3D

 34 36  0  0  0  0  0  0  0  0999 V2000
    8.7079   -3.2564   22.0658 H   0  0  0  0  0  0  0  0  0  0  0  0
    8.2891   -2.2669   21.9031 C   0  0  0  0  0  0  0  0  0  0  0  0
    8.1256   -1.3612   22.8950 N   0  0  0  0  0  0  0  0  0  0  0  0
    7.5871   -0.3228   22.2637 C   0  0  0  0  0  0  0  0  0  0  0  0
    7.2668    1.0738   22.7666 C   0  0  0  0  0  0  0  0  0  0  0  0
    7.2571    2.0555   22.0349 O   0  0  0  0  0  0  0  0  0  0  0  0
    6.9677    1.1432   24.0878 N   0  0  0  0  0  0  0  0  0  0  0  0
    7.0511    0.2918   24.6256 H   0  0  0  0  0  0  0  0  0  0  0  0
    6.4155    2.3501   24.6986 C   0  0  0  0  0  0  0  0  0  0  0  0
    6.4827    2.2235   25.7841 H   0  0  0  0  0  0  0  0  0  0  0  0
    7.0561    3.2055   24.4377 H   0  0  0  0  0  0  0  0  0  0  0  0
    4.9742    2.6124   24.2667 C   0  0  0  0  0  0  0  0  0  0  0  0
    4.7027    3.4910   23.2017 C   0  0  0  0  0  0  0  0  0  0  0  0
    5.5209    4.0279   22.7266 H   0  0  0  0  0  0  0  0  0  0  0  0
    3.3961    3.6886   22.7472 C   0  0  0  0  0  0  0  0  0  0  0  0
    3.2173    4.3553   21.9042 H   0  0  0  0  0  0  0  0  0  0  0  0
    2.3307    3.0460   23.3870 C   0  0  0  0  0  0  0  0  0  0  0  0
    1.3130    3.2224   23.0531 H   0  0  0  0  0  0  0  0  0  0  0  0
    2.5770    2.2132   24.4861 C   0  0  0  0  0  0  0  0  0  0  0  0
    1.7449    1.7451   25.0061 H   0  0  0  0  0  0  0  0  0  0  0  0
    3.8941    1.9592   24.8909 C   0  0  0  0  0  0  0  0  0  0  0  0
    4.0806    1.2557   25.7025 H   0  0  0  0  0  0  0  0  0  0  0  0
    7.3824   -0.6471   20.9591 N   0  0  0  0  0  0  0  0  0  0  0  0
    6.6692    0.0353   19.9474 C   0  0  0  0  0  0  0  0  0  0  0  0
    7.1891    0.0010   18.6459 C   0  0  0  0  0  0  0  0  0  0  0  0
    8.1100   -0.5466   18.4596 H   0  0  0  0  0  0  0  0  0  0  0  0
    6.6105    0.6153   17.6146 N   0  0  0  0  0  0  0  0  0  0  0  0
    5.4548    1.2652   17.8431 C   0  0  0  0  0  0  0  0  0  0  0  0
    5.0031    1.7676   16.9902 H   0  0  0  0  0  0  0  0  0  0  0  0
    4.8355    1.2988   19.0946 C   0  0  0  0  0  0  0  0  0  0  0  0
    3.8940    1.8192   19.2191 H   0  0  0  0  0  0  0  0  0  0  0  0
    5.4519    0.6758   20.1823 C   0  0  0  0  0  0  0  0  0  0  0  0
    5.0070    0.6992   21.1783 H   0  0  0  0  0  0  0  0  0  0  0  0
    7.8737   -1.8746   20.7182 N   0  0  0  0  0  0  0  0  0  0  0  0
  1  2  1  0
  2  3  1  0
  3  4  2  0
  4  5  1  0
  5  6  2  0
  5  7  1  0
  7  8  1  0
  7  9  1  0
  9 10  1  0
  9 11  1  0
  9 12  1  0
 12 13  2  0
 13 14  1  0
 13 15  1  0
 15 16  1  0
 15 17  2  0
 17 18  1  0
 17 19  1  0
 19 20  1  0
 19 21  2  0
 21 22  1  0
  4 23  1  0
 23 24  1  0
 24 25  2  0
 25 26  1  0
 25 27  1  0
 27 28  2  0
 28 29  1  0
 28 30  1  0
 30 31  1  0
 30 32  2  0
 32 33  1  0
 23 34  1  0
 34  2  2  0
 21 12  1  0
 32 24  1  0
M  END
>  <cnnaffinity>  (1) 
-4.90949

>  <filename>  (1) 
O=C(NCc1ccccc1)c1ncnn1-c1cccnc1

$$$$
