
     RDKit          3D

 26 27  0  0  0  0  0  0  0  0999 V2000
    4.9117    1.7722   17.0056 H   0  0  0  0  0  0  0  0  0  0  0  0
    5.4039    1.2901   17.8472 C   0  0  0  0  0  0  0  0  0  0  0  0
    6.5735    0.6787   17.5881 N   0  0  0  0  0  0  0  0  0  0  0  0
    7.1785    0.0544   18.6025 C   0  0  0  0  0  0  0  0  0  0  0  0
    8.1249   -0.4392   18.3817 H   0  0  0  0  0  0  0  0  0  0  0  0
    6.6568    0.0203   19.9030 C   0  0  0  0  0  0  0  0  0  0  0  0
    7.3949   -0.7517   20.9382 C   0  0  0  0  0  0  0  0  0  0  0  0
    7.9809   -1.7766   20.6330 O   0  0  0  0  0  0  0  0  0  0  0  0
    7.3936   -0.2455   22.3574 C   0  0  0  0  0  0  0  0  0  0  0  0
    7.4774   -1.1768   23.4081 C   0  0  0  0  0  0  0  0  0  0  0  0
    7.5098   -2.2397   23.1845 H   0  0  0  0  0  0  0  0  0  0  0  0
    7.5217   -0.7528   24.7273 C   0  0  0  0  0  0  0  0  0  0  0  0
    7.5730   -1.4928   25.5219 H   0  0  0  0  0  0  0  0  0  0  0  0
    7.5022    0.6187   25.0239 C   0  0  0  0  0  0  0  0  0  0  0  0
    7.5018    1.0790   26.4597 C   0  0  0  0  0  0  0  0  0  0  0  0
    6.2462    1.1708   26.9383 F   0  0  0  0  0  0  0  0  0  0  0  0
    8.0622    2.2926   26.6130 F   0  0  0  0  0  0  0  0  0  0  0  0
    8.1641    0.2375   27.2726 F   0  0  0  0  0  0  0  0  0  0  0  0
    7.4088    1.5572   23.9866 C   0  0  0  0  0  0  0  0  0  0  0  0
    7.3657    2.6215   24.1999 H   0  0  0  0  0  0  0  0  0  0  0  0
    7.3644    1.1294   22.6648 C   0  0  0  0  0  0  0  0  0  0  0  0
    7.3145    1.8722   21.8714 H   0  0  0  0  0  0  0  0  0  0  0  0
    5.4345    0.6578   20.1595 C   0  0  0  0  0  0  0  0  0  0  0  0
    5.0019    0.6344   21.1610 H   0  0  0  0  0  0  0  0  0  0  0  0
    4.8000    1.3115   19.1082 C   0  0  0  0  0  0  0  0  0  0  0  0
    3.8703    1.8460   19.2643 H   0  0  0  0  0  0  0  0  0  0  0  0
  1  2  1  0
  2  3  2  0
  3  4  1  0
  4  5  1  0
  4  6  2  0
  6  7  1  0
  7  8  2  0
  7  9  1  0
  9 10  2  0
 10 11  1  0
 10 12  1  0
 12 13  1  0
 12 14  2  0
 14 15  1  0
 15 16  1  0
 15 17  1  0
 15 18  1  0
 14 19  1  0
 19 20  1  0
 19 21  2  0
 21 22  1  0
  6 23  1  0
 23 24  1  0
 23 25  2  0
 25 26  1  0
 25  2  1  0
 21  9  1  0
M  END
>  <cnnaffinity>  (1) 
-4.27873

>  <filename>  (1) 
O=C(c1ccc(C(F)(F)F)cc1)c1cccnc1

$$$$
