
     RDKit          3D

 45 46  0  0  0  0  0  0  0  0999 V2000
    5.6844   -7.5120   27.0878 H   0  0  0  0  0  0  0  0  0  0  0  0
    5.2647   -6.7267   26.6848 O   0  0  0  0  0  0  0  0  0  0  0  0
    6.2727   -5.7647   26.5700 N   0  0  0  0  0  0  0  0  0  0  0  0
    6.1658   -5.2809   25.6885 H   0  0  0  0  0  0  0  0  0  0  0  0
    6.5554   -4.8768   27.6146 C   0  0  0  0  0  0  0  0  0  0  0  0
    6.2973   -5.0561   28.7806 O   0  0  0  0  0  0  0  0  0  0  0  0
    7.3546   -3.6912   27.0835 C   0  0  0  0  0  0  0  0  0  0  0  0
    8.0865   -3.4681   27.8632 H   0  0  0  0  0  0  0  0  0  0  0  0
    7.9131   -3.9994   26.1877 H   0  0  0  0  0  0  0  0  0  0  0  0
    6.5110   -2.4418   26.7751 C   0  0  0  0  0  0  0  0  0  0  0  0
    5.8634   -2.6346   25.9100 H   0  0  0  0  0  0  0  0  0  0  0  0
    5.8502   -2.2289   27.6250 H   0  0  0  0  0  0  0  0  0  0  0  0
    7.3603   -1.1981   26.4696 C   0  0  0  0  0  0  0  0  0  0  0  0
    6.6864   -0.3478   26.3053 H   0  0  0  0  0  0  0  0  0  0  0  0
    7.9737   -0.9345   27.3412 H   0  0  0  0  0  0  0  0  0  0  0  0
    8.2904   -1.3265   25.2550 C   0  0  0  0  0  0  0  0  0  0  0  0
    8.8399   -0.3781   25.1101 H   0  0  0  0  0  0  0  0  0  0  0  0
    9.0629   -2.0759   25.4763 H   0  0  0  0  0  0  0  0  0  0  0  0
    7.5635   -1.6941   24.0463 N   0  0  0  0  0  0  0  0  0  0  0  0
    6.9189   -0.5798   23.3474 C   0  0  0  0  0  0  0  0  0  0  0  0
    6.0224   -0.9698   22.8710 H   0  0  0  0  0  0  0  0  0  0  0  0
    6.5818    0.1554   24.0851 H   0  0  0  0  0  0  0  0  0  0  0  0
    7.6997    0.0954   22.1980 C   0  0  0  0  0  0  0  0  0  0  0  0
    8.7774    0.0894   22.4303 H   0  0  0  0  0  0  0  0  0  0  0  0
    7.4164    1.1492   22.1274 H   0  0  0  0  0  0  0  0  0  0  0  0
    7.4482   -0.5439   20.9106 N   0  0  0  0  0  0  0  0  0  0  0  0
    6.7071    0.0896   19.8818 C   0  0  0  0  0  0  0  0  0  0  0  0
    7.1606    0.0907   18.5353 C   0  0  0  0  0  0  0  0  0  0  0  0
    8.0968   -0.4181   18.2993 H   0  0  0  0  0  0  0  0  0  0  0  0
    6.5293    0.6924   17.5176 N   0  0  0  0  0  0  0  0  0  0  0  0
    5.3716    1.3146   17.7945 C   0  0  0  0  0  0  0  0  0  0  0  0
    4.8948    1.8211   16.9598 H   0  0  0  0  0  0  0  0  0  0  0  0
    4.8001    1.3356   19.0703 C   0  0  0  0  0  0  0  0  0  0  0  0
    3.8573    1.8451   19.2254 H   0  0  0  0  0  0  0  0  0  0  0  0
    5.4725    0.7175   20.1312 C   0  0  0  0  0  0  0  0  0  0  0  0
    5.0576    0.6871   21.1382 H   0  0  0  0  0  0  0  0  0  0  0  0
    7.8255   -1.9421   20.7494 C   0  0  0  0  0  0  0  0  0  0  0  0
    8.9055   -2.0333   20.5223 H   0  0  0  0  0  0  0  0  0  0  0  0
    7.2592   -2.2888   19.8822 H   0  0  0  0  0  0  0  0  0  0  0  0
    7.5086   -2.9407   21.8799 C   0  0  0  0  0  0  0  0  0  0  0  0
    6.4268   -3.0142   22.0501 H   0  0  0  0  0  0  0  0  0  0  0  0
    7.8244   -3.9205   21.4987 H   0  0  0  0  0  0  0  0  0  0  0  0
    8.2296   -2.6724   23.1965 C   0  0  0  0  0  0  0  0  0  0  0  0
    8.2934   -3.6136   23.7600 H   0  0  0  0  0  0  0  0  0  0  0  0
    9.2776   -2.3897   22.9709 H   0  0  0  0  0  0  0  0  0  0  0  0
  1  2  1  0
  2  3  1  0
  3  4  1  0
  3  5  1  0
  5  6  2  0
  5  7  1  0
  7  8  1  0
  7  9  1  0
  7 10  1  0
 10 11  1  0
 10 12  1  0
 10 13  1  0
 13 14  1  0
 13 15  1  0
 13 16  1  0
 16 17  1  0
 16 18  1  0
 16 19  1  0
 19 20  1  0
 20 21  1  0
 20 22  1  0
 20 23  1  0
 23 24  1  0
 23 25  1  0
 23 26  1  0
 26 27  1  0
 27 28  2  0
 28 29  1  0
 28 30  1  0
 30 31  2  0
 31 32  1  0
 31 33  1  0
 33 34  1  0
 33 35  2  0
 35 36  1  0
 26 37  1  0
 37 38  1  0
 37 39  1  0
 37 40  1  0
 40 41  1  0
 40 42  1  0
 40 43  1  0
 43 44  1  0
 43 45  1  0
 43 19  1  0
 35 27  1  0
M  END
>  <cnnaffinity>  (1) 
-4.83865

>  <filename>  (1) 
O=C(CCCCN1CCCN(c2cccnc2)CC1)NO

$$$$
