
     RDKit          3D

 37 38  0  0  0  0  0  0  0  0999 V2000
    8.0605   -1.5034   23.7446 O   0  0  0  0  0  0  0  0  0  0  0  0
    7.7610   -0.3191   23.7057 C   0  0  0  0  0  0  0  0  0  0  0  0
    7.6865    0.5343   24.9860 C   0  0  0  0  0  0  0  0  0  0  0  0
    6.3193    0.4695   25.7007 C   0  0  0  0  0  0  0  0  0  0  0  0
    5.2236    1.0722   24.8212 C   0  0  0  0  0  0  0  0  0  0  0  0
    3.8879    1.0150   25.5302 C   0  0  0  0  0  0  0  0  0  0  0  0
    3.0678   -0.1204   25.4439 C   0  0  0  0  0  0  0  0  0  0  0  0
    1.8274   -0.1608   26.0894 C   0  0  0  0  0  0  0  0  0  0  0  0
    1.4060    0.9168   26.8716 C   0  0  0  0  0  0  0  0  0  0  0  0
   -0.2695    0.8336   27.7917 Br  0  0  0  0  0  0  0  0  0  0  0  0
    2.2317    2.0395   26.9947 C   0  0  0  0  0  0  0  0  0  0  0  0
    3.4619    2.0916   26.3212 C   0  0  0  0  0  0  0  0  0  0  0  0
    4.1016    2.9639   26.4181 H   0  0  0  0  0  0  0  0  0  0  0  0
    1.9103    2.8666   27.6203 H   0  0  0  0  0  0  0  0  0  0  0  0
    1.1929   -1.0364   25.9942 H   0  0  0  0  0  0  0  0  0  0  0  0
    3.3925   -0.9883   24.8848 H   0  0  0  0  0  0  0  0  0  0  0  0
    5.1818    0.5222   23.8776 H   0  0  0  0  0  0  0  0  0  0  0  0
    5.4689    2.1141   24.5840 H   0  0  0  0  0  0  0  0  0  0  0  0
    6.0689   -0.5704   25.9423 H   0  0  0  0  0  0  0  0  0  0  0  0
    6.3521    1.0279   26.6474 H   0  0  0  0  0  0  0  0  0  0  0  0
    8.4601    0.2097   25.6870 H   0  0  0  0  0  0  0  0  0  0  0  0
    7.8993    1.5765   24.7338 H   0  0  0  0  0  0  0  0  0  0  0  0
    7.4998    0.2251   22.4923 N   0  0  0  0  0  0  0  0  0  0  0  0
    7.5179   -0.8502   21.2138 S   0  0  0  0  0  0  0  0  0  0  0  0
    8.9022   -1.1082   20.8172 O   0  0  0  0  0  0  0  0  0  0  0  0
    6.7900   -2.0610   21.5973 O   0  0  0  0  0  0  0  0  0  0  0  0
    6.6355    0.0571   19.9820 C   0  0  0  0  0  0  0  0  0  0  0  0
    5.4181    0.6928   20.2238 C   0  0  0  0  0  0  0  0  0  0  0  0
    4.8308    1.3065   19.1352 C   0  0  0  0  0  0  0  0  0  0  0  0
    5.4511    1.2625   17.8902 C   0  0  0  0  0  0  0  0  0  0  0  0
    6.6203    0.6314   17.6919 N   0  0  0  0  0  0  0  0  0  0  0  0
    7.2093    0.0388   18.7285 C   0  0  0  0  0  0  0  0  0  0  0  0
    8.1468   -0.4753   18.5382 H   0  0  0  0  0  0  0  0  0  0  0  0
    4.9670    1.7589   17.0562 H   0  0  0  0  0  0  0  0  0  0  0  0
    3.8828    1.8195   19.2275 H   0  0  0  0  0  0  0  0  0  0  0  0
    4.9049    0.7169   21.1897 H   0  0  0  0  0  0  0  0  0  0  0  0
    7.3276    1.2047   22.3363 H   0  0  0  0  0  0  0  0  0  0  0  0
  1  2  2  0
  2  3  1  0
  3  4  1  0
  4  5  1  0
  5  6  1  0
  6  7  2  0
  7  8  1  0
  8  9  2  0
  9 10  1  0
  9 11  1  0
 11 12  2  0
 12 13  1  0
 11 14  1  0
  8 15  1  0
  7 16  1  0
  5 17  1  0
  5 18  1  0
  4 19  1  0
  4 20  1  0
  3 21  1  0
  3 22  1  0
  2 23  1  0
 23 24  1  0
 24 25  2  0
 24 26  2  0
 24 27  1  0
 27 28  2  0
 28 29  1  0
 29 30  2  0
 30 31  1  0
 31 32  2  0
 32 33  1  0
 30 34  1  0
 29 35  1  0
 28 36  1  0
 23 37  1  0
 12  6  1  0
 32 27  1  0
M  END
>  <cnnaffinity>  (1) 
-5.48258

>  <filename>  (1) 
O=C(CCCc1ccc(Br)cc1)NS(=O)(=O)c1cccnc1

$$$$
