
     RDKit          3D

 38 40  0  0  0  0  0  0  0  0999 V2000
    6.5124   -3.4253   22.5511 O   0  0  0  0  0  0  0  0  0  0  0  0
    6.4364   -3.0202   23.6969 C   0  0  0  0  0  0  0  0  0  0  0  0
    7.1727   -1.9700   24.1619 N   0  0  0  0  0  0  0  0  0  0  0  0
    8.0896   -1.2496   23.2950 C   0  0  0  0  0  0  0  0  0  0  0  0
    7.3608   -0.4464   22.2488 C   0  0  0  0  0  0  0  0  0  0  0  0
    7.4252   -0.6951   20.9342 C   0  0  0  0  0  0  0  0  0  0  0  0
    6.6621    0.0111   19.8801 C   0  0  0  0  0  0  0  0  0  0  0  0
    5.4421    0.6637   20.1247 C   0  0  0  0  0  0  0  0  0  0  0  0
    4.7973    1.3185   19.0731 C   0  0  0  0  0  0  0  0  0  0  0  0
    5.3947    1.3045   17.8087 C   0  0  0  0  0  0  0  0  0  0  0  0
    6.5539    0.6773   17.5403 N   0  0  0  0  0  0  0  0  0  0  0  0
    7.1556    0.0539   18.5599 C   0  0  0  0  0  0  0  0  0  0  0  0
    8.1016   -0.4324   18.3194 H   0  0  0  0  0  0  0  0  0  0  0  0
    4.9245    1.8185   16.9743 H   0  0  0  0  0  0  0  0  0  0  0  0
    3.8638    1.8518   19.2283 H   0  0  0  0  0  0  0  0  0  0  0  0
    5.0058    0.6405   21.1253 H   0  0  0  0  0  0  0  0  0  0  0  0
    8.0819   -1.4908   20.5732 H   0  0  0  0  0  0  0  0  0  0  0  0
    6.7016    0.3312   22.6298 H   0  0  0  0  0  0  0  0  0  0  0  0
    8.7569   -1.9742   22.8137 H   0  0  0  0  0  0  0  0  0  0  0  0
    8.7108   -0.6025   23.9246 H   0  0  0  0  0  0  0  0  0  0  0  0
    6.9309   -1.6111   25.0677 H   0  0  0  0  0  0  0  0  0  0  0  0
    5.4834   -3.6477   24.7245 C   0  0  0  0  0  0  0  0  0  0  0  0
    5.9286   -4.1161   26.0247 C   0  0  0  0  0  0  0  0  0  0  0  0
    7.2902   -4.0714   26.4573 C   0  0  0  0  0  0  0  0  0  0  0  0
    7.6331   -4.5325   27.7103 C   0  0  0  0  0  0  0  0  0  0  0  0
    6.6540   -5.0585   28.5954 C   0  0  0  0  0  0  0  0  0  0  0  0
    5.3361   -5.1264   28.1937 C   0  0  0  0  0  0  0  0  0  0  0  0
    4.9393   -4.6768   26.9066 C   0  0  0  0  0  0  0  0  0  0  0  0
    3.6151   -4.8150   26.5607 N   0  0  0  0  0  0  0  0  0  0  0  0
    3.2920   -4.4081   25.3675 C   0  0  0  0  0  0  0  0  0  0  0  0
    2.0107   -4.5805   25.0515 O   0  0  0  0  0  0  0  0  0  0  0  0
    1.7262   -4.9941   25.8843 H   0  0  0  0  0  0  0  0  0  0  0  0
    4.1599   -3.8277   24.3999 C   0  0  0  0  0  0  0  0  0  0  0  0
    3.7227   -3.5667   23.4444 H   0  0  0  0  0  0  0  0  0  0  0  0
    4.5599   -5.5378   28.8311 H   0  0  0  0  0  0  0  0  0  0  0  0
    6.9560   -5.4025   29.5857 H   0  0  0  0  0  0  0  0  0  0  0  0
    8.6732   -4.4917   28.0213 H   0  0  0  0  0  0  0  0  0  0  0  0
    8.0398   -3.6890   25.7643 H   0  0  0  0  0  0  0  0  0  0  0  0
  1  2  2  0
  2  3  1  0
  3  4  1  0
  4  5  1  0
  5  6  2  3
  6  7  1  0
  7  8  2  0
  8  9  1  0
  9 10  2  0
 10 11  1  0
 11 12  2  0
 12 13  1  0
 10 14  1  0
  9 15  1  0
  8 16  1  0
  6 17  1  0
  5 18  1  0
  4 19  1  0
  4 20  1  0
  3 21  1  0
  2 22  1  0
 22 23  1  0
 23 24  2  0
 24 25  1  0
 25 26  2  0
 26 27  1  0
 27 28  2  0
 28 29  1  0
 29 30  2  0
 30 31  1  0
 31 32  1  0
 30 33  1  0
 33 34  1  0
 27 35  1  0
 26 36  1  0
 25 37  1  0
 24 38  1  0
 12  7  1  0
 33 22  2  0
 28 23  1  0
M  END
>  <cnnaffinity>  (1) 
-4.93749

>  <filename>  (1) 
O=C(NCC=Cc1cccnc1)c1cc(O)nc2ccccc12

$$$$
