
     RDKit          3D

 42 44  0  0  0  0  0  0  0  0999 V2000
    4.9385    1.7943   16.9898 H   0  0  0  0  0  0  0  0  0  0  0  0
    5.4049    1.2990   17.8364 C   0  0  0  0  0  0  0  0  0  0  0  0
    6.5714    0.6795   17.5913 N   0  0  0  0  0  0  0  0  0  0  0  0
    7.1787    0.0691   18.6155 C   0  0  0  0  0  0  0  0  0  0  0  0
    8.1323   -0.4153   18.3981 H   0  0  0  0  0  0  0  0  0  0  0  0
    6.6523    0.0440   19.9322 C   0  0  0  0  0  0  0  0  0  0  0  0
    7.3070   -0.6509   21.0027 N   0  0  0  0  0  0  0  0  0  0  0  0
    7.7449   -1.9545   21.0021 C   0  0  0  0  0  0  0  0  0  0  0  0
    7.4776   -2.6437   20.2248 H   0  0  0  0  0  0  0  0  0  0  0  0
    8.4043   -2.2412   22.0849 N   0  0  0  0  0  0  0  0  0  0  0  0
    8.3846   -1.1204   22.8778 N   0  0  0  0  0  0  0  0  0  0  0  0
    7.6898   -0.2008   22.2596 C   0  0  0  0  0  0  0  0  0  0  0  0
    7.2894    1.1172   22.8625 C   0  0  0  0  0  0  0  0  0  0  0  0
    7.2572    1.8870   22.0819 H   0  0  0  0  0  0  0  0  0  0  0  0
    8.0633    1.4313   23.5733 H   0  0  0  0  0  0  0  0  0  0  0  0
    5.9762    1.1168   23.5401 N   0  0  0  0  0  0  0  0  0  0  0  0
    5.5288    0.2628   23.8382 H   0  0  0  0  0  0  0  0  0  0  0  0
    5.5580    2.2633   24.1758 C   0  0  0  0  0  0  0  0  0  0  0  0
    6.1650    3.3206   24.1366 O   0  0  0  0  0  0  0  0  0  0  0  0
    4.3475    2.0856   24.8020 N   0  0  0  0  0  0  0  0  0  0  0  0
    4.1385    1.1315   25.0448 H   0  0  0  0  0  0  0  0  0  0  0  0
    3.8037    3.1488   25.6428 C   0  0  0  0  0  0  0  0  0  0  0  0
    4.1722    4.0862   25.2105 H   0  0  0  0  0  0  0  0  0  0  0  0
    4.3008    3.1240   27.1114 C   0  0  0  0  0  0  0  0  0  0  0  0
    4.4376    4.1692   27.4188 H   0  0  0  0  0  0  0  0  0  0  0  0
    5.2918    2.6606   27.1668 H   0  0  0  0  0  0  0  0  0  0  0  0
    3.3082    2.4660   28.0799 C   0  0  0  0  0  0  0  0  0  0  0  0
    3.7273    2.4542   29.0902 H   0  0  0  0  0  0  0  0  0  0  0  0
    3.1727    1.4141   27.7992 H   0  0  0  0  0  0  0  0  0  0  0  0
    1.9339    3.1811   28.0727 C   0  0  0  0  0  0  0  0  0  0  0  0
    1.1590    2.4491   28.3292 H   0  0  0  0  0  0  0  0  0  0  0  0
    1.9040    3.9422   28.8614 H   0  0  0  0  0  0  0  0  0  0  0  0
    1.5967    3.8527   26.7183 C   0  0  0  0  0  0  0  0  0  0  0  0
    0.5141    3.8801   26.5686 H   0  0  0  0  0  0  0  0  0  0  0  0
    1.9270    4.8991   26.7367 H   0  0  0  0  0  0  0  0  0  0  0  0
    2.2673    3.1374   25.5401 C   0  0  0  0  0  0  0  0  0  0  0  0
    1.9782    3.5834   24.5830 H   0  0  0  0  0  0  0  0  0  0  0  0
    1.9204    2.0963   25.5163 H   0  0  0  0  0  0  0  0  0  0  0  0
    5.4345    0.6914   20.1677 C   0  0  0  0  0  0  0  0  0  0  0  0
    5.0106    0.6911   21.1727 H   0  0  0  0  0  0  0  0  0  0  0  0
    4.7990    1.3254   19.0968 C   0  0  0  0  0  0  0  0  0  0  0  0
    3.8561    1.8409   19.2352 H   0  0  0  0  0  0  0  0  0  0  0  0
  1  2  1  0
  2  3  2  0
  3  4  1  0
  4  5  1  0
  4  6  2  0
  6  7  1  0
  7  8  1  0
  8  9  1  0
  8 10  2  0
 10 11  1  0
 11 12  2  0
 12 13  1  0
 13 14  1  0
 13 15  1  0
 13 16  1  0
 16 17  1  0
 16 18  1  0
 18 19  2  0
 18 20  1  0
 20 21  1  0
 20 22  1  0
 22 23  1  0
 22 24  1  0
 24 25  1  0
 24 26  1  0
 24 27  1  0
 27 28  1  0
 27 29  1  0
 27 30  1  0
 30 31  1  0
 30 32  1  0
 30 33  1  0
 33 34  1  0
 33 35  1  0
 33 36  1  0
 36 37  1  0
 36 38  1  0
  6 39  1  0
 39 40  1  0
 39 41  2  0
 41 42  1  0
 41  2  1  0
 12  7  1  0
 36 22  1  0
M  END
>  <cnnaffinity>  (1) 
-4.90007

>  <filename>  (1) 
O=C(NCc1nncn1-c1cccnc1)NC1CCCCC1

$$$$
