
     RDKit          3D

 32 34  0  0  0  0  0  0  0  0999 V2000
    6.3194   -2.8774   20.1997 O   0  0  0  0  0  0  0  0  0  0  0  0
    6.6527   -2.2424   21.1831 C   0  0  0  0  0  0  0  0  0  0  0  0
    6.5234   -2.7227   22.4674 N   0  0  0  0  0  0  0  0  0  0  0  0
    5.6766   -3.8141   22.8115 C   0  0  0  0  0  0  0  0  0  0  0  0
    4.5223   -4.0429   22.0235 C   0  0  0  0  0  0  0  0  0  0  0  0
    3.6615   -5.0852   22.3119 C   0  0  0  0  0  0  0  0  0  0  0  0
    3.9696   -5.9705   23.3561 C   0  0  0  0  0  0  0  0  0  0  0  0
    3.3419   -7.1575   23.8569 C   0  0  0  0  0  0  0  0  0  0  0  0
    4.0583   -7.5622   24.9379 C   0  0  0  0  0  0  0  0  0  0  0  0
    5.1263   -6.7048   25.1217 N   0  0  0  0  0  0  0  0  0  0  0  0
    5.1065   -5.7153   24.1642 C   0  0  0  0  0  0  0  0  0  0  0  0
    5.9649   -4.6168   23.9143 C   0  0  0  0  0  0  0  0  0  0  0  0
    6.8327   -4.4093   24.5335 H   0  0  0  0  0  0  0  0  0  0  0  0
    5.7759   -6.7517   25.8870 H   0  0  0  0  0  0  0  0  0  0  0  0
    3.8592   -8.3783   25.6237 H   0  0  0  0  0  0  0  0  0  0  0  0
    2.4786   -7.6433   23.4305 H   0  0  0  0  0  0  0  0  0  0  0  0
    2.7428   -5.2239   21.7509 H   0  0  0  0  0  0  0  0  0  0  0  0
    4.3523   -3.3919   21.1842 H   0  0  0  0  0  0  0  0  0  0  0  0
    6.8126   -2.1113   23.2127 H   0  0  0  0  0  0  0  0  0  0  0  0
    7.3234   -0.8047   20.9880 C   0  0  0  0  0  0  0  0  0  0  0  0
    7.3311   -0.1266   22.1881 F   0  0  0  0  0  0  0  0  0  0  0  0
    8.6340   -1.0189   20.6689 F   0  0  0  0  0  0  0  0  0  0  0  0
    6.6593    0.0475   19.9224 C   0  0  0  0  0  0  0  0  0  0  0  0
    5.4429    0.7017   20.1623 C   0  0  0  0  0  0  0  0  0  0  0  0
    4.8179    1.3306   19.0853 C   0  0  0  0  0  0  0  0  0  0  0  0
    5.4346    1.3058   17.8303 C   0  0  0  0  0  0  0  0  0  0  0  0
    6.6092    0.7045   17.5976 N   0  0  0  0  0  0  0  0  0  0  0  0
    7.2025    0.0955   18.6285 C   0  0  0  0  0  0  0  0  0  0  0  0
    8.1551   -0.3856   18.4158 H   0  0  0  0  0  0  0  0  0  0  0  0
    4.9642    1.7906   16.9752 H   0  0  0  0  0  0  0  0  0  0  0  0
    3.8681    1.8359   19.2012 H   0  0  0  0  0  0  0  0  0  0  0  0
    5.0059    0.7350   21.1622 H   0  0  0  0  0  0  0  0  0  0  0  0
  1  2  2  0
  2  3  1  0
  3  4  1  0
  4  5  2  0
  5  6  1  0
  6  7  2  0
  7  8  1  0
  8  9  2  0
  9 10  1  0
 10 11  1  0
 11 12  2  0
 12 13  1  0
 10 14  1  0
  9 15  1  0
  8 16  1  0
  6 17  1  0
  5 18  1  0
  3 19  1  0
  2 20  1  0
 20 21  1  0
 20 22  1  0
 20 23  1  0
 23 24  2  0
 24 25  1  0
 25 26  2  0
 26 27  1  0
 27 28  2  0
 28 29  1  0
 26 30  1  0
 25 31  1  0
 24 32  1  0
 12  4  1  0
 28 23  1  0
 11  7  1  0
M  END
>  <cnnaffinity>  (1) 
-5.326

>  <filename>  (1) 
O=C(Nc1ccc2cc[nH]c2c1)C(F)(F)c1cccnc1

$$$$
