
     RDKit          3D

 41 43  0  0  0  0  0  0  0  0999 V2000
    9.0389   -3.0576   22.3301 O   0  0  0  0  0  0  0  0  0  0  0  0
    8.8957   -1.8477   22.2337 C   0  0  0  0  0  0  0  0  0  0  0  0
    8.5123   -1.1855   20.9081 C   0  0  0  0  0  0  0  0  0  0  0  0
    7.2798   -0.4795   21.0436 O   0  0  0  0  0  0  0  0  0  0  0  0
    6.6871    0.0466   19.9360 C   0  0  0  0  0  0  0  0  0  0  0  0
    5.4508    0.6756   20.1524 C   0  0  0  0  0  0  0  0  0  0  0  0
    4.8250    1.3010   19.0742 C   0  0  0  0  0  0  0  0  0  0  0  0
    5.4416    1.2755   17.8135 C   0  0  0  0  0  0  0  0  0  0  0  0
    6.6037    0.6497   17.5846 N   0  0  0  0  0  0  0  0  0  0  0  0
    7.2060    0.0468   18.6240 C   0  0  0  0  0  0  0  0  0  0  0  0
    8.1455   -0.4564   18.4075 H   0  0  0  0  0  0  0  0  0  0  0  0
    4.9811    1.7714   16.9620 H   0  0  0  0  0  0  0  0  0  0  0  0
    3.8793    1.8192   19.2004 H   0  0  0  0  0  0  0  0  0  0  0  0
    5.0284    0.6628   21.1557 H   0  0  0  0  0  0  0  0  0  0  0  0
    8.4200   -1.9889   20.1788 H   0  0  0  0  0  0  0  0  0  0  0  0
    9.3080   -0.5057   20.5738 H   0  0  0  0  0  0  0  0  0  0  0  0
    9.0663   -1.0103   23.2871 N   0  0  0  0  0  0  0  0  0  0  0  0
    9.4357   -1.4914   24.6067 C   0  0  0  0  0  0  0  0  0  0  0  0
    9.6565   -0.2873   25.5438 C   0  0  0  0  0  0  0  0  0  0  0  0
   10.8365    0.5594   25.1008 C   0  0  0  0  0  0  0  0  0  0  0  0
   12.0951   -0.0101   25.1889 C   0  0  0  0  0  0  0  0  0  0  0  0
   13.2467    0.6029   24.6420 C   0  0  0  0  0  0  0  0  0  0  0  0
   13.1498    1.8243   24.0338 C   0  0  0  0  0  0  0  0  0  0  0  0
   11.8990    2.5096   23.9890 C   0  0  0  0  0  0  0  0  0  0  0  0
   11.8170    3.8342   23.4699 C   0  0  0  0  0  0  0  0  0  0  0  0
   10.6022    4.4559   23.3155 C   0  0  0  0  0  0  0  0  0  0  0  0
    9.4089    3.7750   23.6783 C   0  0  0  0  0  0  0  0  0  0  0  0
    9.4573    2.5165   24.2396 C   0  0  0  0  0  0  0  0  0  0  0  0
   10.7094    1.8498   24.4627 C   0  0  0  0  0  0  0  0  0  0  0  0
    8.5239    2.0364   24.5299 H   0  0  0  0  0  0  0  0  0  0  0  0
    8.4528    4.2637   23.4990 H   0  0  0  0  0  0  0  0  0  0  0  0
   10.5530    5.4584   22.8954 H   0  0  0  0  0  0  0  0  0  0  0  0
   12.7477    4.3397   23.2183 H   0  0  0  0  0  0  0  0  0  0  0  0
   14.0173    2.2891   23.5737 H   0  0  0  0  0  0  0  0  0  0  0  0
   14.2164    0.1152   24.6945 H   0  0  0  0  0  0  0  0  0  0  0  0
   12.1900   -0.9715   25.6783 H   0  0  0  0  0  0  0  0  0  0  0  0
    9.8621   -0.6707   26.5522 H   0  0  0  0  0  0  0  0  0  0  0  0
    8.7193    0.2815   25.6140 H   0  0  0  0  0  0  0  0  0  0  0  0
   10.3427   -2.1110   24.5379 H   0  0  0  0  0  0  0  0  0  0  0  0
    8.6455   -2.1500   24.9833 H   0  0  0  0  0  0  0  0  0  0  0  0
    9.1654   -0.0213   23.1168 H   0  0  0  0  0  0  0  0  0  0  0  0
  1  2  2  0
  2  3  1  0
  3  4  1  0
  4  5  1  0
  5  6  2  0
  6  7  1  0
  7  8  2  0
  8  9  1  0
  9 10  2  0
 10 11  1  0
  8 12  1  0
  7 13  1  0
  6 14  1  0
  3 15  1  0
  3 16  1  0
  2 17  1  0
 17 18  1  0
 18 19  1  0
 19 20  1  0
 20 21  2  0
 21 22  1  0
 22 23  2  0
 23 24  1  0
 24 25  2  0
 25 26  1  0
 26 27  2  0
 27 28  1  0
 28 29  2  0
 28 30  1  0
 27 31  1  0
 26 32  1  0
 25 33  1  0
 23 34  1  0
 22 35  1  0
 21 36  1  0
 19 37  1  0
 19 38  1  0
 18 39  1  0
 18 40  1  0
 17 41  1  0
 10  5  1  0
 29 20  1  0
 29 24  1  0
M  END
>  <cnnaffinity>  (1) 
-5.38904

>  <filename>  (1) 
O=C(COc1cccnc1)NCCc1cccc2ccccc12

$$$$
