
     RDKit          3D

 36 38  0  0  0  0  0  0  0  0999 V2000
    5.0409    1.7715   16.8985 H   0  0  0  0  0  0  0  0  0  0  0  0
    5.4669    1.2833   17.7716 C   0  0  0  0  0  0  0  0  0  0  0  0
    6.6343    0.6446   17.5894 N   0  0  0  0  0  0  0  0  0  0  0  0
    7.1803    0.0238   18.6439 C   0  0  0  0  0  0  0  0  0  0  0  0
    8.1325   -0.4634   18.4341 H   0  0  0  0  0  0  0  0  0  0  0  0
    6.6067    0.0038   19.9363 C   0  0  0  0  0  0  0  0  0  0  0  0
    7.2260   -0.6258   21.1124 C   0  0  0  0  0  0  0  0  0  0  0  0
    7.0431   -0.3886   22.4393 C   0  0  0  0  0  0  0  0  0  0  0  0
    6.3563    0.2648   22.9596 H   0  0  0  0  0  0  0  0  0  0  0  0
    7.9296   -1.2020   23.1438 N   0  0  0  0  0  0  0  0  0  0  0  0
    8.1292   -1.3362   24.5762 C   0  0  0  0  0  0  0  0  0  0  0  0
    9.2068   -1.3343   24.7795 H   0  0  0  0  0  0  0  0  0  0  0  0
    7.6544   -0.5007   25.1003 H   0  0  0  0  0  0  0  0  0  0  0  0
    7.6011   -2.6053   25.0404 N   0  0  0  0  0  0  0  0  0  0  0  0
    7.9882   -3.3784   24.5098 H   0  0  0  0  0  0  0  0  0  0  0  0
    6.2323   -2.6822   25.2253 C   0  0  0  0  0  0  0  0  0  0  0  0
    5.5106   -1.7027   25.1443 O   0  0  0  0  0  0  0  0  0  0  0  0
    5.6760   -4.0461   25.5806 C   0  0  0  0  0  0  0  0  0  0  0  0
    4.4192   -4.4131   25.0583 C   0  0  0  0  0  0  0  0  0  0  0  0
    3.9451   -3.7743   24.3159 H   0  0  0  0  0  0  0  0  0  0  0  0
    3.7811   -5.5780   25.4872 C   0  0  0  0  0  0  0  0  0  0  0  0
    2.8077   -5.8370   25.0819 H   0  0  0  0  0  0  0  0  0  0  0  0
    4.3771   -6.3959   26.4511 C   0  0  0  0  0  0  0  0  0  0  0  0
    3.8645   -7.2836   26.8144 H   0  0  0  0  0  0  0  0  0  0  0  0
    5.6444   -6.0658   26.9459 C   0  0  0  0  0  0  0  0  0  0  0  0
    6.1220   -6.7095   27.6797 H   0  0  0  0  0  0  0  0  0  0  0  0
    6.2982   -4.9104   26.5039 C   0  0  0  0  0  0  0  0  0  0  0  0
    7.2943   -4.6788   26.8816 H   0  0  0  0  0  0  0  0  0  0  0  0
    8.6064   -1.9989   22.2814 C   0  0  0  0  0  0  0  0  0  0  0  0
    9.7222   -3.1701   22.6591 S   0  0  0  0  0  0  0  0  0  0  0  0
    8.2001   -1.6144   21.0450 N   0  0  0  0  0  0  0  0  0  0  0  0
    8.5377   -2.1073   20.2399 H   0  0  0  0  0  0  0  0  0  0  0  0
    5.3810    0.6757   20.0878 C   0  0  0  0  0  0  0  0  0  0  0  0
    4.8993    0.6815   21.0623 H   0  0  0  0  0  0  0  0  0  0  0  0
    4.8033    1.3209   18.9984 C   0  0  0  0  0  0  0  0  0  0  0  0
    3.8636    1.8514   19.0910 H   0  0  0  0  0  0  0  0  0  0  0  0
  1  2  1  0
  2  3  2  0
  3  4  1  0
  4  5  1  0
  4  6  2  0
  6  7  1  0
  7  8  2  0
  8  9  1  0
  8 10  1  0
 10 11  1  0
 11 12  1  0
 11 13  1  0
 11 14  1  0
 14 15  1  0
 14 16  1  0
 16 17  2  0
 16 18  1  0
 18 19  2  0
 19 20  1  0
 19 21  1  0
 21 22  1  0
 21 23  2  0
 23 24  1  0
 23 25  1  0
 25 26  1  0
 25 27  2  0
 27 28  1  0
 10 29  1  0
 29 30  2  0
 29 31  1  0
 31 32  1  0
  6 33  1  0
 33 34  1  0
 33 35  2  0
 35 36  1  0
 35  2  1  0
 31  7  1  0
 27 18  1  0
M  END
>  <cnnaffinity>  (1) 
-5.25992

>  <filename>  (1) 
O=C(NCn1cc(-c2cccnc2)[nH]c1=S)c1ccccc1

$$$$
