
     RDKit          3D

 30 31  0  0  0  0  0  0  0  0999 V2000
    4.9554    1.7727   17.0054 H   0  0  0  0  0  0  0  0  0  0  0  0
    5.4080    1.2766   17.8637 C   0  0  0  0  0  0  0  0  0  0  0  0
    6.5680    0.6485   17.6327 N   0  0  0  0  0  0  0  0  0  0  0  0
    7.1530    0.0269   18.6589 C   0  0  0  0  0  0  0  0  0  0  0  0
    8.1146   -0.4262   18.4292 H   0  0  0  0  0  0  0  0  0  0  0  0
    6.6091   -0.0409   19.9541 C   0  0  0  0  0  0  0  0  0  0  0  0
    7.4432   -0.7429   20.9802 C   0  0  0  0  0  0  0  0  0  0  0  0
    8.6385   -0.8616   20.8578 O   0  0  0  0  0  0  0  0  0  0  0  0
    6.7434   -1.2897   22.0483 N   0  0  0  0  0  0  0  0  0  0  0  0
    5.7462   -1.3681   21.9872 H   0  0  0  0  0  0  0  0  0  0  0  0
    7.3812   -1.6286   23.2416 C   0  0  0  0  0  0  0  0  0  0  0  0
    8.4766   -1.2016   23.5110 O   0  0  0  0  0  0  0  0  0  0  0  0
    6.6206   -2.5449   24.1996 C   0  0  0  0  0  0  0  0  0  0  0  0
    5.6108   -3.4445   23.7995 C   0  0  0  0  0  0  0  0  0  0  0  0
    5.3037   -3.5185   22.7562 H   0  0  0  0  0  0  0  0  0  0  0  0
    5.0040   -4.3020   24.7251 C   0  0  0  0  0  0  0  0  0  0  0  0
    4.2179   -4.9750   24.3909 H   0  0  0  0  0  0  0  0  0  0  0  0
    5.3931   -4.2958   26.0763 C   0  0  0  0  0  0  0  0  0  0  0  0
    4.6854   -5.1817   27.0906 C   0  0  0  0  0  0  0  0  0  0  0  0
    3.6145   -4.5618   27.6271 F   0  0  0  0  0  0  0  0  0  0  0  0
    5.4838   -5.5308   28.1184 F   0  0  0  0  0  0  0  0  0  0  0  0
    4.2310   -6.3230   26.5358 F   0  0  0  0  0  0  0  0  0  0  0  0
    6.4031   -3.4091   26.4841 C   0  0  0  0  0  0  0  0  0  0  0  0
    6.7263   -3.3893   27.5222 H   0  0  0  0  0  0  0  0  0  0  0  0
    7.0086   -2.5558   25.5618 C   0  0  0  0  0  0  0  0  0  0  0  0
    7.8157   -1.9066   25.8966 H   0  0  0  0  0  0  0  0  0  0  0  0
    5.3994    0.6326   20.1878 C   0  0  0  0  0  0  0  0  0  0  0  0
    4.9545    0.6827   21.1859 H   0  0  0  0  0  0  0  0  0  0  0  0
    4.7969    1.3031   19.1215 C   0  0  0  0  0  0  0  0  0  0  0  0
    3.8721    1.8502   19.2480 H   0  0  0  0  0  0  0  0  0  0  0  0
  1  2  1  0
  2  3  2  0
  3  4  1  0
  4  5  1  0
  4  6  2  0
  6  7  1  0
  7  8  2  0
  7  9  1  0
  9 10  1  0
  9 11  1  0
 11 12  2  0
 11 13  1  0
 13 14  2  0
 14 15  1  0
 14 16  1  0
 16 17  1  0
 16 18  2  0
 18 19  1  0
 19 20  1  0
 19 21  1  0
 19 22  1  0
 18 23  1  0
 23 24  1  0
 23 25  2  0
 25 26  1  0
  6 27  1  0
 27 28  1  0
 27 29  2  0
 29 30  1  0
 29  2  1  0
 25 13  1  0
M  END
>  <cnnaffinity>  (1) 
-4.55624

>  <filename>  (1) 
O=C(NC(=O)c1cccnc1)c1ccc(C(F)(F)F)cc1

$$$$
