
     RDKit          3D

 25 26  0  0  0  0  0  0  0  0999 V2000
    4.9195    1.7831   16.9937 H   0  0  0  0  0  0  0  0  0  0  0  0
    5.3985    1.2939   17.8384 C   0  0  0  0  0  0  0  0  0  0  0  0
    6.5618    0.6786   17.5733 N   0  0  0  0  0  0  0  0  0  0  0  0
    7.1773    0.0734   18.5878 C   0  0  0  0  0  0  0  0  0  0  0  0
    8.1224   -0.4196   18.3659 H   0  0  0  0  0  0  0  0  0  0  0  0
    6.6614    0.0224   19.8976 C   0  0  0  0  0  0  0  0  0  0  0  0
    7.4068   -0.7001   20.9560 C   0  0  0  0  0  0  0  0  0  0  0  0
    9.0374   -0.6625   21.0468 S   0  0  0  0  0  0  0  0  0  0  0  0
    6.5597   -1.5715   21.9310 C   0  0  0  0  0  0  0  0  0  0  0  0
    5.5734   -2.1322   21.5043 O   0  0  0  0  0  0  0  0  0  0  0  0
    7.0300   -1.7005   23.3494 C   0  0  0  0  0  0  0  0  0  0  0  0
    7.6168   -0.6382   24.0635 C   0  0  0  0  0  0  0  0  0  0  0  0
    7.7541    0.3267   23.5786 H   0  0  0  0  0  0  0  0  0  0  0  0
    8.0231   -0.8055   25.3867 C   0  0  0  0  0  0  0  0  0  0  0  0
    8.4695    0.0267   25.9226 H   0  0  0  0  0  0  0  0  0  0  0  0
    7.8476   -2.0396   26.0217 C   0  0  0  0  0  0  0  0  0  0  0  0
    8.1565   -2.1720   27.0542 H   0  0  0  0  0  0  0  0  0  0  0  0
    7.2728   -3.1127   25.3370 C   0  0  0  0  0  0  0  0  0  0  0  0
    7.1123   -4.0842   25.7967 H   0  0  0  0  0  0  0  0  0  0  0  0
    6.8779   -2.9255   24.0129 C   0  0  0  0  0  0  0  0  0  0  0  0
    6.3392   -3.9563   23.3610 F   0  0  0  0  0  0  0  0  0  0  0  0
    5.4364    0.6530   20.1580 C   0  0  0  0  0  0  0  0  0  0  0  0
    4.9956    0.6268   21.1585 H   0  0  0  0  0  0  0  0  0  0  0  0
    4.8047    1.3141   19.1043 C   0  0  0  0  0  0  0  0  0  0  0  0
    3.8712    1.8462   19.2527 H   0  0  0  0  0  0  0  0  0  0  0  0
  1  2  1  0
  2  3  2  0
  3  4  1  0
  4  5  1  0
  4  6  2  0
  6  7  1  0
  7  8  2  0
  7  9  1  0
  9 10  2  0
  9 11  1  0
 11 12  2  0
 12 13  1  0
 12 14  1  0
 14 15  1  0
 14 16  2  0
 16 17  1  0
 16 18  1  0
 18 19  1  0
 18 20  2  0
 20 21  1  0
  6 22  1  0
 22 23  1  0
 22 24  2  0
 24 25  1  0
 24  2  1  0
 20 11  1  0
M  END
>  <cnnaffinity>  (1) 
-4.60745

>  <filename>  (1) 
O=C(C(=S)c1cccnc1)c1ccccc1F

$$$$
