
     RDKit          3D

 21 21  0  0  0  0  0  0  0  0999 V2000
    5.0237   -1.5009   25.4101 H   0  0  0  0  0  0  0  0  0  0  0  0
    5.7241   -1.1303   24.8474 O   0  0  0  0  0  0  0  0  0  0  0  0
    6.1350   -2.2518   24.2527 C   0  0  0  0  0  0  0  0  0  0  0  0
    5.6491   -3.3106   24.5550 O   0  0  0  0  0  0  0  0  0  0  0  0
    7.2091   -1.9830   23.2570 C   0  0  0  0  0  0  0  0  0  0  0  0
    7.7258   -2.9251   23.1000 H   0  0  0  0  0  0  0  0  0  0  0  0
    7.8949   -1.2214   23.6320 H   0  0  0  0  0  0  0  0  0  0  0  0
    6.6022   -1.5874   21.9298 C   0  0  0  0  0  0  0  0  0  0  0  0
    5.5640   -2.0948   21.5643 O   0  0  0  0  0  0  0  0  0  0  0  0
    7.4038   -0.6727   20.9741 C   0  0  0  0  0  0  0  0  0  0  0  0
    9.0248   -0.5390   21.1138 S   0  0  0  0  0  0  0  0  0  0  0  0
    6.6571    0.0163   19.9022 C   0  0  0  0  0  0  0  0  0  0  0  0
    7.1762    0.0682   18.5930 C   0  0  0  0  0  0  0  0  0  0  0  0
    8.1262   -0.4156   18.3612 H   0  0  0  0  0  0  0  0  0  0  0  0
    6.5595    0.6773   17.5817 N   0  0  0  0  0  0  0  0  0  0  0  0
    5.3961    1.2932   17.8395 C   0  0  0  0  0  0  0  0  0  0  0  0
    4.9207    1.7886   16.9920 H   0  0  0  0  0  0  0  0  0  0  0  0
    4.8038    1.3117   19.1032 C   0  0  0  0  0  0  0  0  0  0  0  0
    3.8750    1.8443   19.2493 H   0  0  0  0  0  0  0  0  0  0  0  0
    5.4350    0.6481   20.1544 C   0  0  0  0  0  0  0  0  0  0  0  0
    4.9936    0.6278   21.1521 H   0  0  0  0  0  0  0  0  0  0  0  0
  1  2  1  0
  2  3  1  0
  3  4  2  0
  3  5  1  0
  5  6  1  0
  5  7  1  0
  5  8  1  0
  8  9  2  0
  8 10  1  0
 10 11  2  0
 10 12  1  0
 12 13  2  0
 13 14  1  0
 13 15  1  0
 15 16  2  0
 16 17  1  0
 16 18  1  0
 18 19  1  0
 18 20  2  0
 20 21  1  0
 20 12  1  0
M  END
>  <cnnaffinity>  (1) 
-3.96953

>  <filename>  (1) 
O=C(O)CC(=O)C(=S)c1cccnc1

$$$$
