
     RDKit          3D

 27 28  0  0  0  0  0  0  0  0999 V2000
    5.0331    1.7543   16.9822 H   0  0  0  0  0  0  0  0  0  0  0  0
    5.4927    1.2646   17.8320 C   0  0  0  0  0  0  0  0  0  0  0  0
    6.6310    0.5758   17.6343 N   0  0  0  0  0  0  0  0  0  0  0  0
    7.1986   -0.0063   18.6970 C   0  0  0  0  0  0  0  0  0  0  0  0
    8.1243   -0.5600   18.5558 H   0  0  0  0  0  0  0  0  0  0  0  0
    6.6618    0.0805   19.9813 C   0  0  0  0  0  0  0  0  0  0  0  0
    7.3893   -0.5615   21.0488 C   0  0  0  0  0  0  0  0  0  0  0  0
    8.2299   -1.4060   20.7562 O   0  0  0  0  0  0  0  0  0  0  0  0
    7.0985   -0.2456   22.3784 N   0  0  0  0  0  0  0  0  0  0  0  0
    6.2952    0.3640   22.5095 H   0  0  0  0  0  0  0  0  0  0  0  0
    7.4917   -1.0851   23.4888 N   0  0  0  0  0  0  0  0  0  0  0  0
    8.2900   -0.7935   24.0609 H   0  0  0  0  0  0  0  0  0  0  0  0
    7.3439   -2.4622   23.3141 C   0  0  0  0  0  0  0  0  0  0  0  0
    6.2802   -2.9541   22.5492 C   0  0  0  0  0  0  0  0  0  0  0  0
    5.5514   -2.2469   22.1676 H   0  0  0  0  0  0  0  0  0  0  0  0
    6.1799   -4.3252   22.2597 C   0  0  0  0  0  0  0  0  0  0  0  0
    5.3579   -4.7043   21.6616 H   0  0  0  0  0  0  0  0  0  0  0  0
    7.1647   -5.2127   22.7012 C   0  0  0  0  0  0  0  0  0  0  0  0
    7.1146   -7.0659   22.2213 Br  0  0  0  0  0  0  0  0  0  0  0  0
    8.2076   -4.7246   23.4898 C   0  0  0  0  0  0  0  0  0  0  0  0
    8.9842   -5.3966   23.8343 H   0  0  0  0  0  0  0  0  0  0  0  0
    8.2928   -3.3601   23.8081 C   0  0  0  0  0  0  0  0  0  0  0  0
    9.1115   -2.9864   24.4054 H   0  0  0  0  0  0  0  0  0  0  0  0
    5.4646    0.7717   20.1934 C   0  0  0  0  0  0  0  0  0  0  0  0
    4.9960    0.8449   21.1768 H   0  0  0  0  0  0  0  0  0  0  0  0
    4.8835    1.3724   19.0860 C   0  0  0  0  0  0  0  0  0  0  0  0
    3.9635    1.9378   19.1823 H   0  0  0  0  0  0  0  0  0  0  0  0
  1  2  1  0
  2  3  2  0
  3  4  1  0
  4  5  1  0
  4  6  2  0
  6  7  1  0
  7  8  2  0
  7  9  1  0
  9 10  1  0
  9 11  1  0
 11 12  1  0
 11 13  1  0
 13 14  2  0
 14 15  1  0
 14 16  1  0
 16 17  1  0
 16 18  2  0
 18 19  1  0
 18 20  1  0
 20 21  1  0
 20 22  2  0
 22 23  1  0
  6 24  1  0
 24 25  1  0
 24 26  2  0
 26 27  1  0
 26  2  1  0
 22 13  1  0
M  END
>  <cnnaffinity>  (1) 
-4.67668

>  <filename>  (1) 
O=C(NNc1ccc(Br)cc1)c1cccnc1

$$$$
