
     RDKit          3D

 33 35  0  0  0  0  0  0  0  0999 V2000
   10.9213    1.8421   24.6585 H   0  0  0  0  0  0  0  0  0  0  0  0
   10.3237    2.4818   24.2349 O   0  0  0  0  0  0  0  0  0  0  0  0
    9.3670    1.7389   23.5338 N   0  0  0  0  0  0  0  0  0  0  0  0
    9.3175    2.0311   22.5652 H   0  0  0  0  0  0  0  0  0  0  0  0
    8.1225    1.4698   24.0860 C   0  0  0  0  0  0  0  0  0  0  0  0
    7.9078    1.3974   25.2747 O   0  0  0  0  0  0  0  0  0  0  0  0
    7.0832    1.1138   23.0110 C   0  0  0  0  0  0  0  0  0  0  0  0
    6.1209    1.1412   23.5357 H   0  0  0  0  0  0  0  0  0  0  0  0
    7.0525    1.9088   22.2585 H   0  0  0  0  0  0  0  0  0  0  0  0
    7.3285   -0.2447   22.3679 C   0  0  0  0  0  0  0  0  0  0  0  0
    7.2321   -0.6960   21.0095 C   0  0  0  0  0  0  0  0  0  0  0  0
    6.5979    0.0091   19.8897 C   0  0  0  0  0  0  0  0  0  0  0  0
    7.1504    0.0015   18.5940 C   0  0  0  0  0  0  0  0  0  0  0  0
    8.0724   -0.5367   18.3726 H   0  0  0  0  0  0  0  0  0  0  0  0
    6.6065    0.6565   17.5603 N   0  0  0  0  0  0  0  0  0  0  0  0
    5.4604    1.3247   17.7697 C   0  0  0  0  0  0  0  0  0  0  0  0
    5.0246    1.8221   16.9053 H   0  0  0  0  0  0  0  0  0  0  0  0
    4.8083    1.3601   19.0054 C   0  0  0  0  0  0  0  0  0  0  0  0
    3.8641    1.8812   19.1105 H   0  0  0  0  0  0  0  0  0  0  0  0
    5.3911    0.6991   20.0813 C   0  0  0  0  0  0  0  0  0  0  0  0
    4.9196    0.7062   21.0646 H   0  0  0  0  0  0  0  0  0  0  0  0
    7.7505   -1.9167   20.8556 N   0  0  0  0  0  0  0  0  0  0  0  0
    8.1095   -2.2587   22.0932 N   0  0  0  0  0  0  0  0  0  0  0  0
    7.8761   -1.3291   23.0255 C   0  0  0  0  0  0  0  0  0  0  0  0
    8.4590   -1.7586   24.3408 C   0  0  0  0  0  0  0  0  0  0  0  0
    9.2972   -1.1122   24.6236 H   0  0  0  0  0  0  0  0  0  0  0  0
    7.7238   -1.6911   25.1408 H   0  0  0  0  0  0  0  0  0  0  0  0
    8.9196   -3.2134   24.0640 C   0  0  0  0  0  0  0  0  0  0  0  0
    9.9132   -3.4114   24.4646 H   0  0  0  0  0  0  0  0  0  0  0  0
    8.2331   -3.9311   24.5209 H   0  0  0  0  0  0  0  0  0  0  0  0
    8.8980   -3.3871   22.5260 C   0  0  0  0  0  0  0  0  0  0  0  0
    9.8980   -3.3000   22.0930 H   0  0  0  0  0  0  0  0  0  0  0  0
    8.4221   -4.3168   22.2160 H   0  0  0  0  0  0  0  0  0  0  0  0
  1  2  1  0
  2  3  1  0
  3  4  1  0
  3  5  1  0
  5  6  2  0
  5  7  1  0
  7  8  1  0
  7  9  1  0
  7 10  1  0
 10 11  1  0
 11 12  1  0
 12 13  2  0
 13 14  1  0
 13 15  1  0
 15 16  2  0
 16 17  1  0
 16 18  1  0
 18 19  1  0
 18 20  2  0
 20 21  1  0
 11 22  2  0
 22 23  1  0
 23 24  1  0
 24 25  1  0
 25 26  1  0
 25 27  1  0
 25 28  1  0
 28 29  1  0
 28 30  1  0
 28 31  1  0
 31 32  1  0
 31 33  1  0
 24 10  2  0
 20 12  1  0
 31 23  1  0
M  END
>  <cnnaffinity>  (1) 
-5.00913

>  <filename>  (1) 
O=C(Cc1c(-c2cccnc2)nn2c1CCC2)NO

$$$$
