
     RDKit          3D

 32 34  0  0  0  0  0  0  0  0999 V2000
    4.9240    1.7802   16.9962 H   0  0  0  0  0  0  0  0  0  0  0  0
    5.4029    1.2933   17.8412 C   0  0  0  0  0  0  0  0  0  0  0  0
    6.5674    0.6754   17.5836 N   0  0  0  0  0  0  0  0  0  0  0  0
    7.1650    0.0519   18.6022 C   0  0  0  0  0  0  0  0  0  0  0  0
    8.1108   -0.4372   18.3784 H   0  0  0  0  0  0  0  0  0  0  0  0
    6.6491    0.0257   19.9066 C   0  0  0  0  0  0  0  0  0  0  0  0
    7.3773   -0.7155   20.9342 C   0  0  0  0  0  0  0  0  0  0  0  0
    7.8864   -1.9077   20.7495 N   0  0  0  0  0  0  0  0  0  0  0  0
    8.4627   -2.2578   21.9431 C   0  0  0  0  0  0  0  0  0  0  0  0
    8.9451   -3.2178   22.0770 H   0  0  0  0  0  0  0  0  0  0  0  0
    8.3336   -1.2480   22.8492 C   0  0  0  0  0  0  0  0  0  0  0  0
    8.6778   -1.1542   23.8688 H   0  0  0  0  0  0  0  0  0  0  0  0
    7.6064   -0.2541   22.2082 N   0  0  0  0  0  0  0  0  0  0  0  0
    7.3062    1.0528   22.7520 C   0  0  0  0  0  0  0  0  0  0  0  0
    8.1455    1.3812   23.3756 H   0  0  0  0  0  0  0  0  0  0  0  0
    7.2161    1.8037   21.9612 H   0  0  0  0  0  0  0  0  0  0  0  0
    6.0773    1.0151   23.5258 N   0  0  0  0  0  0  0  0  0  0  0  0
    5.6319    0.1234   23.6619 H   0  0  0  0  0  0  0  0  0  0  0  0
    5.5934    2.1286   24.1461 C   0  0  0  0  0  0  0  0  0  0  0  0
    6.1741    3.2029   24.0477 O   0  0  0  0  0  0  0  0  0  0  0  0
    4.3160    2.0608   24.9478 C   0  0  0  0  0  0  0  0  0  0  0  0
    3.5969    0.9000   25.1158 O   0  0  0  0  0  0  0  0  0  0  0  0
    2.5176    1.2004   25.8747 C   0  0  0  0  0  0  0  0  0  0  0  0
    1.8510    0.3750   26.0975 H   0  0  0  0  0  0  0  0  0  0  0  0
    2.5109    2.5181   26.1968 C   0  0  0  0  0  0  0  0  0  0  0  0
    1.7633    3.0245   26.7940 H   0  0  0  0  0  0  0  0  0  0  0  0
    3.6750    3.0809   25.5975 C   0  0  0  0  0  0  0  0  0  0  0  0
    4.0004    4.1173   25.6415 H   0  0  0  0  0  0  0  0  0  0  0  0
    5.4303    0.6688   20.1604 C   0  0  0  0  0  0  0  0  0  0  0  0
    5.0022    0.6455   21.1662 H   0  0  0  0  0  0  0  0  0  0  0  0
    4.7972    1.3148   19.1030 C   0  0  0  0  0  0  0  0  0  0  0  0
    3.8668    1.8473   19.2549 H   0  0  0  0  0  0  0  0  0  0  0  0
  1  2  1  0
  2  3  2  0
  3  4  1  0
  4  5  1  0
  4  6  2  0
  6  7  1  0
  7  8  2  0
  8  9  1  0
  9 10  1  0
  9 11  2  0
 11 12  1  0
 11 13  1  0
 13 14  1  0
 14 15  1  0
 14 16  1  0
 14 17  1  0
 17 18  1  0
 17 19  1  0
 19 20  2  0
 19 21  1  0
 21 22  1  0
 22 23  1  0
 23 24  1  0
 23 25  2  0
 25 26  1  0
 25 27  1  0
 27 28  1  0
  6 29  1  0
 29 30  1  0
 29 31  2  0
 31 32  1  0
 31  2  1  0
 13  7  1  0
 27 21  2  0
M  END
>  <cnnaffinity>  (1) 
-4.79891

>  <filename>  (1) 
O=C(NCn1ccnc1-c1cccnc1)c1ccco1

$$$$
