
     RDKit          3D

 47 49  0  0  0  0  0  0  0  0999 V2000
    5.0367    1.9159   16.8451 H   0  0  0  0  0  0  0  0  0  0  0  0
    5.4741    1.3669   17.6795 C   0  0  0  0  0  0  0  0  0  0  0  0
    6.6339    0.7365   17.4408 N   0  0  0  0  0  0  0  0  0  0  0  0
    7.2095    0.0685   18.4492 C   0  0  0  0  0  0  0  0  0  0  0  0
    8.1305   -0.4627   18.2057 H   0  0  0  0  0  0  0  0  0  0  0  0
    6.6623   -0.0124   19.7547 C   0  0  0  0  0  0  0  0  0  0  0  0
    7.3212   -0.6766   20.8404 N   0  0  0  0  0  0  0  0  0  0  0  0
    6.5677   -1.5562   21.6524 C   0  0  0  0  0  0  0  0  0  0  0  0
    5.7589   -2.3319   21.1778 O   0  0  0  0  0  0  0  0  0  0  0  0
    6.7989   -1.4467   23.0454 N   0  0  0  0  0  0  0  0  0  0  0  0
    6.5556   -2.5458   23.8896 N   0  0  0  0  0  0  0  0  0  0  0  0
    5.6602   -3.0030   23.7747 H   0  0  0  0  0  0  0  0  0  0  0  0
    7.2124   -2.8260   25.0686 C   0  0  0  0  0  0  0  0  0  0  0  0
    8.1510   -2.1830   25.5056 O   0  0  0  0  0  0  0  0  0  0  0  0
    6.6617   -4.0612   25.7956 C   0  0  0  0  0  0  0  0  0  0  0  0
    5.7190   -4.3757   25.3313 H   0  0  0  0  0  0  0  0  0  0  0  0
    6.3993   -3.7081   27.2747 C   0  0  0  0  0  0  0  0  0  0  0  0
    7.3263   -3.2578   27.6405 H   0  0  0  0  0  0  0  0  0  0  0  0
    5.6273   -2.9338   27.3531 H   0  0  0  0  0  0  0  0  0  0  0  0
    6.0550   -4.9322   28.1253 C   0  0  0  0  0  0  0  0  0  0  0  0
    5.1287   -5.3986   27.7640 H   0  0  0  0  0  0  0  0  0  0  0  0
    5.8585   -4.6312   29.1595 H   0  0  0  0  0  0  0  0  0  0  0  0
    7.1928   -5.9566   28.0593 C   0  0  0  0  0  0  0  0  0  0  0  0
    8.1067   -5.4956   28.4545 H   0  0  0  0  0  0  0  0  0  0  0  0
    7.0019   -6.8149   28.7145 H   0  0  0  0  0  0  0  0  0  0  0  0
    7.4359   -6.4024   26.6112 C   0  0  0  0  0  0  0  0  0  0  0  0
    6.5838   -7.0038   26.2625 H   0  0  0  0  0  0  0  0  0  0  0  0
    8.3259   -7.0395   26.5509 H   0  0  0  0  0  0  0  0  0  0  0  0
    7.6656   -5.2344   25.6446 C   0  0  0  0  0  0  0  0  0  0  0  0
    8.6883   -4.8632   25.7844 H   0  0  0  0  0  0  0  0  0  0  0  0
    7.6086   -5.6210   24.6198 H   0  0  0  0  0  0  0  0  0  0  0  0
    6.9785   -0.1407   23.6985 C   0  0  0  0  0  0  0  0  0  0  0  0
    6.3288    0.6057   23.2198 H   0  0  0  0  0  0  0  0  0  0  0  0
    6.6458   -0.2201   24.7391 H   0  0  0  0  0  0  0  0  0  0  0  0
    8.4408    0.3003   23.6388 C   0  0  0  0  0  0  0  0  0  0  0  0
    9.0420   -0.5399   24.0003 H   0  0  0  0  0  0  0  0  0  0  0  0
    8.5879    1.1200   24.3538 H   0  0  0  0  0  0  0  0  0  0  0  0
    8.8898    0.7316   22.2383 C   0  0  0  0  0  0  0  0  0  0  0  0
    8.3468    1.6319   21.9241 H   0  0  0  0  0  0  0  0  0  0  0  0
    9.9504    1.0146   22.2709 H   0  0  0  0  0  0  0  0  0  0  0  0
    8.7195   -0.3491   21.1591 C   0  0  0  0  0  0  0  0  0  0  0  0
    9.2358   -1.2689   21.4611 H   0  0  0  0  0  0  0  0  0  0  0  0
    9.2019   -0.0128   20.2359 H   0  0  0  0  0  0  0  0  0  0  0  0
    5.4201    0.6055   19.9652 C   0  0  0  0  0  0  0  0  0  0  0  0
    4.9309    0.5155   20.9356 H   0  0  0  0  0  0  0  0  0  0  0  0
    4.8330    1.3247   18.9203 C   0  0  0  0  0  0  0  0  0  0  0  0
    3.8911    1.8406   19.0580 H   0  0  0  0  0  0  0  0  0  0  0  0
  1  2  1  0
  2  3  2  0
  3  4  1  0
  4  5  1  0
  4  6  2  0
  6  7  1  0
  7  8  1  0
  8  9  2  0
  8 10  1  0
 10 11  1  0
 11 12  1  0
 11 13  1  0
 13 14  2  0
 13 15  1  0
 15 16  1  0
 15 17  1  0
 17 18  1  0
 17 19  1  0
 17 20  1  0
 20 21  1  0
 20 22  1  0
 20 23  1  0
 23 24  1  0
 23 25  1  0
 23 26  1  0
 26 27  1  0
 26 28  1  0
 26 29  1  0
 29 30  1  0
 29 31  1  0
 10 32  1  0
 32 33  1  0
 32 34  1  0
 32 35  1  0
 35 36  1  0
 35 37  1  0
 35 38  1  0
 38 39  1  0
 38 40  1  0
 38 41  1  0
 41 42  1  0
 41 43  1  0
  6 44  1  0
 44 45  1  0
 44 46  2  0
 46 47  1  0
 46  2  1  0
 41  7  1  0
 29 15  1  0
M  END
>  <cnnaffinity>  (1) 
-5.55983

>  <filename>  (1) 
O=C(NN1CCCCN(c2cccnc2)C1=O)C1CCCCC1

$$$$
