
     RDKit          3D

 37 39  0  0  0  0  0  0  0  0999 V2000
    4.8741    1.8447   16.9157 H   0  0  0  0  0  0  0  0  0  0  0  0
    5.3757    1.3678   17.7537 C   0  0  0  0  0  0  0  0  0  0  0  0
    6.5397    0.7565   17.4763 N   0  0  0  0  0  0  0  0  0  0  0  0
    7.1864    0.1646   18.4915 C   0  0  0  0  0  0  0  0  0  0  0  0
    8.1081   -0.3603   18.2346 H   0  0  0  0  0  0  0  0  0  0  0  0
    6.7438    0.1663   19.8414 C   0  0  0  0  0  0  0  0  0  0  0  0
    7.4644   -0.5348   20.8556 N   0  0  0  0  0  0  0  0  0  0  0  0
    7.4388   -1.9960   20.7926 C   0  0  0  0  0  0  0  0  0  0  0  0
    7.0009   -2.2571   19.8279 H   0  0  0  0  0  0  0  0  0  0  0  0
    8.4602   -2.4037   20.7871 H   0  0  0  0  0  0  0  0  0  0  0  0
    6.6466   -2.7459   21.8797 C   0  0  0  0  0  0  0  0  0  0  0  0
    5.7015   -2.2204   22.0902 H   0  0  0  0  0  0  0  0  0  0  0  0
    6.4016   -3.7337   21.4853 H   0  0  0  0  0  0  0  0  0  0  0  0
    7.3930   -2.9413   23.1261 N   0  0  0  0  0  0  0  0  0  0  0  0
    8.0801   -4.1382   23.3041 C   0  0  0  0  0  0  0  0  0  0  0  0
    8.3059   -4.8918   22.3626 O   0  0  0  0  0  0  0  0  0  0  0  0
    8.5186   -4.5159   24.6995 C   0  0  0  0  0  0  0  0  0  0  0  0
    7.7346   -4.1509   25.7666 O   0  0  0  0  0  0  0  0  0  0  0  0
    8.3145   -4.6418   26.8869 C   0  0  0  0  0  0  0  0  0  0  0  0
    7.7887   -4.4589   27.8119 H   0  0  0  0  0  0  0  0  0  0  0  0
    9.4575   -5.2980   26.5731 C   0  0  0  0  0  0  0  0  0  0  0  0
   10.1237   -5.7598   27.2893 H   0  0  0  0  0  0  0  0  0  0  0  0
    9.5796   -5.2511   25.1503 C   0  0  0  0  0  0  0  0  0  0  0  0
   10.3513   -5.7283   24.5557 H   0  0  0  0  0  0  0  0  0  0  0  0
    7.6293   -1.7120   23.8844 C   0  0  0  0  0  0  0  0  0  0  0  0
    8.0832   -1.9587   24.8409 H   0  0  0  0  0  0  0  0  0  0  0  0
    6.6530   -1.2672   24.1301 H   0  0  0  0  0  0  0  0  0  0  0  0
    8.4995   -0.6714   23.1640 C   0  0  0  0  0  0  0  0  0  0  0  0
    8.8681    0.0299   23.9219 H   0  0  0  0  0  0  0  0  0  0  0  0
    9.3891   -1.1518   22.7467 H   0  0  0  0  0  0  0  0  0  0  0  0
    7.8135    0.1705   22.0835 C   0  0  0  0  0  0  0  0  0  0  0  0
    6.9289    0.6612   22.5248 H   0  0  0  0  0  0  0  0  0  0  0  0
    8.4901    0.9983   21.8178 H   0  0  0  0  0  0  0  0  0  0  0  0
    5.5105    0.7954   20.0905 C   0  0  0  0  0  0  0  0  0  0  0  0
    5.1050    0.7792   21.1009 H   0  0  0  0  0  0  0  0  0  0  0  0
    4.8128    1.3953   19.0334 C   0  0  0  0  0  0  0  0  0  0  0  0
    3.8564    1.8849   19.1945 H   0  0  0  0  0  0  0  0  0  0  0  0
  1  2  1  0
  2  3  2  0
  3  4  1  0
  4  5  1  0
  4  6  2  0
  6  7  1  0
  7  8  1  0
  8  9  1  0
  8 10  1  0
  8 11  1  0
 11 12  1  0
 11 13  1  0
 11 14  1  0
 14 15  1  0
 15 16  2  0
 15 17  1  0
 17 18  1  0
 18 19  1  0
 19 20  1  0
 19 21  2  0
 21 22  1  0
 21 23  1  0
 23 24  1  0
 14 25  1  0
 25 26  1  0
 25 27  1  0
 25 28  1  0
 28 29  1  0
 28 30  1  0
 28 31  1  0
 31 32  1  0
 31 33  1  0
  6 34  1  0
 34 35  1  0
 34 36  2  0
 36 37  1  0
 36  2  1  0
 31  7  1  0
 23 17  2  0
M  END
>  <cnnaffinity>  (1) 
-4.93629

>  <filename>  (1) 
O=C(c1ccco1)N1CCCN(c2cccnc2)CC1

$$$$
