
     RDKit          3D

 41 43  0  0  0  0  0  0  0  0999 V2000
    8.8492   -2.1874   22.9573 O   0  0  0  0  0  0  0  0  0  0  0  0
    8.1445   -1.2370   23.2668 C   0  0  0  0  0  0  0  0  0  0  0  0
    7.3430   -0.4575   22.2938 C   0  0  0  0  0  0  0  0  0  0  0  0
    7.4164   -0.6953   20.9746 C   0  0  0  0  0  0  0  0  0  0  0  0
    6.6557    0.0097   19.9210 C   0  0  0  0  0  0  0  0  0  0  0  0
    5.4318    0.6697   20.1512 C   0  0  0  0  0  0  0  0  0  0  0  0
    4.8002    1.3169   19.0873 C   0  0  0  0  0  0  0  0  0  0  0  0
    5.4094    1.2934   17.8291 C   0  0  0  0  0  0  0  0  0  0  0  0
    6.5668    0.6579   17.5744 N   0  0  0  0  0  0  0  0  0  0  0  0
    7.1580    0.0419   18.6012 C   0  0  0  0  0  0  0  0  0  0  0  0
    8.1019   -0.4502   18.3666 H   0  0  0  0  0  0  0  0  0  0  0  0
    4.9529    1.8067   16.9870 H   0  0  0  0  0  0  0  0  0  0  0  0
    3.8629    1.8515   19.2254 H   0  0  0  0  0  0  0  0  0  0  0  0
    4.9730    0.6586   21.1417 H   0  0  0  0  0  0  0  0  0  0  0  0
    8.1200   -1.4675   20.6403 H   0  0  0  0  0  0  0  0  0  0  0  0
    6.7363    0.3393   22.7146 H   0  0  0  0  0  0  0  0  0  0  0  0
    8.0655   -0.7940   24.5510 N   0  0  0  0  0  0  0  0  0  0  0  0
    8.7339   -1.5240   25.6067 C   0  0  0  0  0  0  0  0  0  0  0  0
    8.3466   -1.0171   26.9882 C   0  0  0  0  0  0  0  0  0  0  0  0
    6.8974   -1.2975   27.3139 C   0  0  0  0  0  0  0  0  0  0  0  0
    6.5200   -2.6100   27.5117 C   0  0  0  0  0  0  0  0  0  0  0  0
    5.2406   -2.9528   28.0172 C   0  0  0  0  0  0  0  0  0  0  0  0
    4.2781   -1.9835   28.1634 C   0  0  0  0  0  0  0  0  0  0  0  0
    4.5586   -0.6309   27.7951 C   0  0  0  0  0  0  0  0  0  0  0  0
    3.5478    0.3768   27.8409 C   0  0  0  0  0  0  0  0  0  0  0  0
    3.8245    1.6772   27.4946 C   0  0  0  0  0  0  0  0  0  0  0  0
    5.1397    2.0448   27.1077 C   0  0  0  0  0  0  0  0  0  0  0  0
    6.1425    1.1017   27.0694 C   0  0  0  0  0  0  0  0  0  0  0  0
    5.8925   -0.2675   27.3988 C   0  0  0  0  0  0  0  0  0  0  0  0
    7.1504    1.4078   26.8082 H   0  0  0  0  0  0  0  0  0  0  0  0
    5.3520    3.0751   26.8340 H   0  0  0  0  0  0  0  0  0  0  0  0
    3.0388    2.4291   27.4943 H   0  0  0  0  0  0  0  0  0  0  0  0
    2.5436    0.0914   28.1466 H   0  0  0  0  0  0  0  0  0  0  0  0
    3.2884   -2.2288   28.5412 H   0  0  0  0  0  0  0  0  0  0  0  0
    5.0418   -3.9817   28.3068 H   0  0  0  0  0  0  0  0  0  0  0  0
    7.2476   -3.4040   27.3448 H   0  0  0  0  0  0  0  0  0  0  0  0
    8.5938    0.0432   27.0883 H   0  0  0  0  0  0  0  0  0  0  0  0
    8.9833   -1.5399   27.7142 H   0  0  0  0  0  0  0  0  0  0  0  0
    8.5037   -2.5921   25.5225 H   0  0  0  0  0  0  0  0  0  0  0  0
    9.8096   -1.4459   25.4477 H   0  0  0  0  0  0  0  0  0  0  0  0
    7.2928   -0.1948   24.7912 H   0  0  0  0  0  0  0  0  0  0  0  0
  1  2  2  0
  2  3  1  0
  3  4  2  3
  4  5  1  0
  5  6  2  0
  6  7  1  0
  7  8  2  0
  8  9  1  0
  9 10  2  0
 10 11  1  0
  8 12  1  0
  7 13  1  0
  6 14  1  0
  4 15  1  0
  3 16  1  0
  2 17  1  0
 17 18  1  0
 18 19  1  0
 19 20  1  0
 20 21  2  0
 21 22  1  0
 22 23  2  0
 23 24  1  0
 24 25  2  0
 25 26  1  0
 26 27  2  0
 27 28  1  0
 28 29  2  0
 28 30  1  0
 27 31  1  0
 26 32  1  0
 25 33  1  0
 23 34  1  0
 22 35  1  0
 21 36  1  0
 19 37  1  0
 19 38  1  0
 18 39  1  0
 18 40  1  0
 17 41  1  0
 10  5  1  0
 29 20  1  0
 29 24  1  0
M  END
>  <cnnaffinity>  (1) 
-4.76026

>  <filename>  (1) 
O=C(C=Cc1cccnc1)NCCc1cccc2ccccc12

$$$$
