
     RDKit          3D

 38 40  0  0  0  0  0  0  0  0999 V2000
    7.2844   -4.5988   21.2665 O   0  0  0  0  0  0  0  0  0  0  0  0
    7.1246   -4.1759   22.3989 C   0  0  0  0  0  0  0  0  0  0  0  0
    7.8529   -3.1260   22.8965 N   0  0  0  0  0  0  0  0  0  0  0  0
    8.8128   -2.3871   22.0798 C   0  0  0  0  0  0  0  0  0  0  0  0
    8.2349   -1.5710   20.9453 C   0  0  0  0  0  0  0  0  0  0  0  0
    7.3137   -0.6144   21.0619 C   0  0  0  0  0  0  0  0  0  0  0  0
    6.6479    0.0500   19.9241 C   0  0  0  0  0  0  0  0  0  0  0  0
    5.4230    0.7019   20.1437 C   0  0  0  0  0  0  0  0  0  0  0  0
    4.7822    1.3338   19.0787 C   0  0  0  0  0  0  0  0  0  0  0  0
    5.3921    1.3000   17.8196 C   0  0  0  0  0  0  0  0  0  0  0  0
    6.5521    0.6705   17.5743 N   0  0  0  0  0  0  0  0  0  0  0  0
    7.1546    0.0660   18.6061 C   0  0  0  0  0  0  0  0  0  0  0  0
    8.1039   -0.4146   18.3683 H   0  0  0  0  0  0  0  0  0  0  0  0
    4.9335    1.8003   16.9707 H   0  0  0  0  0  0  0  0  0  0  0  0
    3.8442    1.8629   19.2120 H   0  0  0  0  0  0  0  0  0  0  0  0
    4.9844    0.6940   21.1435 H   0  0  0  0  0  0  0  0  0  0  0  0
    6.9697   -0.2900   22.0464 H   0  0  0  0  0  0  0  0  0  0  0  0
    8.5624   -1.8312   19.9456 H   0  0  0  0  0  0  0  0  0  0  0  0
    9.3777   -1.7430   22.7643 H   0  0  0  0  0  0  0  0  0  0  0  0
    9.5237   -3.0994   21.6593 H   0  0  0  0  0  0  0  0  0  0  0  0
    7.4685   -2.6848   23.7138 H   0  0  0  0  0  0  0  0  0  0  0  0
    6.0892   -4.7533   23.3605 C   0  0  0  0  0  0  0  0  0  0  0  0
    4.8089   -4.9328   22.8610 C   0  0  0  0  0  0  0  0  0  0  0  0
    3.7571   -5.4464   23.6600 C   0  0  0  0  0  0  0  0  0  0  0  0
    3.9896   -5.8019   24.9650 C   0  0  0  0  0  0  0  0  0  0  0  0
    5.2886   -5.6692   25.5278 C   0  0  0  0  0  0  0  0  0  0  0  0
    5.5453   -6.0510   26.8635 C   0  0  0  0  0  0  0  0  0  0  0  0
    6.8253   -5.9287   27.3180 C   0  0  0  0  0  0  0  0  0  0  0  0
    7.1842   -6.2419   28.5618 O   0  0  0  0  0  0  0  0  0  0  0  0
    8.1309   -6.0597   28.4266 H   0  0  0  0  0  0  0  0  0  0  0  0
    7.8804   -5.4918   26.6112 N   0  0  0  0  0  0  0  0  0  0  0  0
    7.6529   -5.1242   25.3634 C   0  0  0  0  0  0  0  0  0  0  0  0
    6.3703   -5.1582   24.7253 C   0  0  0  0  0  0  0  0  0  0  0  0
    8.5240   -4.7805   24.8091 H   0  0  0  0  0  0  0  0  0  0  0  0
    4.7896   -6.4481   27.5317 H   0  0  0  0  0  0  0  0  0  0  0  0
    3.2081   -6.2152   25.5958 H   0  0  0  0  0  0  0  0  0  0  0  0
    2.7707   -5.5753   23.2232 H   0  0  0  0  0  0  0  0  0  0  0  0
    4.5978   -4.6695   21.8277 H   0  0  0  0  0  0  0  0  0  0  0  0
  1  2  2  0
  2  3  1  0
  3  4  1  0
  4  5  1  0
  5  6  2  3
  6  7  1  0
  7  8  2  0
  8  9  1  0
  9 10  2  0
 10 11  1  0
 11 12  2  0
 12 13  1  0
 10 14  1  0
  9 15  1  0
  8 16  1  0
  6 17  1  0
  5 18  1  0
  4 19  1  0
  4 20  1  0
  3 21  1  0
  2 22  1  0
 22 23  2  0
 23 24  1  0
 24 25  2  0
 25 26  1  0
 26 27  2  0
 27 28  1  0
 28 29  1  0
 29 30  1  0
 28 31  2  0
 31 32  1  0
 32 33  2  0
 32 34  1  0
 27 35  1  0
 25 36  1  0
 24 37  1  0
 23 38  1  0
 12  7  1  0
 33 22  1  0
 33 26  1  0
M  END
>  <cnnaffinity>  (1) 
-5.33112

>  <filename>  (1) 
O=C(NCC=Cc1cccnc1)c1cccc2cc(O)ncc12

$$$$
