
     RDKit          3D

 31 34  0  0  0  0  0  0  0  0999 V2000
    4.9379    1.8081   16.9702 H   0  0  0  0  0  0  0  0  0  0  0  0
    5.3936    1.2972   17.8167 C   0  0  0  0  0  0  0  0  0  0  0  0
    6.5594    0.6788   17.5679 N   0  0  0  0  0  0  0  0  0  0  0  0
    7.1525    0.0488   18.5858 C   0  0  0  0  0  0  0  0  0  0  0  0
    8.1020   -0.4345   18.3556 H   0  0  0  0  0  0  0  0  0  0  0  0
    6.6273    0.0152   19.8873 C   0  0  0  0  0  0  0  0  0  0  0  0
    7.3750   -0.6934   20.9172 C   0  0  0  0  0  0  0  0  0  0  0  0
    7.8630   -1.8744   20.7150 N   0  0  0  0  0  0  0  0  0  0  0  0
    8.3781   -2.2421   21.9260 N   0  0  0  0  0  0  0  0  0  0  0  0
    8.8343   -3.1185   22.1145 H   0  0  0  0  0  0  0  0  0  0  0  0
    8.2568   -1.3067   22.8960 C   0  0  0  0  0  0  0  0  0  0  0  0
    8.6351   -1.3904   24.0469 O   0  0  0  0  0  0  0  0  0  0  0  0
    7.6055   -0.2571   22.2219 N   0  0  0  0  0  0  0  0  0  0  0  0
    7.3287    0.9453   22.8451 C   0  0  0  0  0  0  0  0  0  0  0  0
    7.2308    2.0384   22.0466 O   0  0  0  0  0  0  0  0  0  0  0  0
    6.9528    3.0875   22.8941 C   0  0  0  0  0  0  0  0  0  0  0  0
    6.7192    4.4220   22.5568 C   0  0  0  0  0  0  0  0  0  0  0  0
    6.7102    4.7687   21.5273 H   0  0  0  0  0  0  0  0  0  0  0  0
    6.4843    5.3014   23.6188 C   0  0  0  0  0  0  0  0  0  0  0  0
    6.3043    6.3534   23.4163 H   0  0  0  0  0  0  0  0  0  0  0  0
    6.4751    4.8659   24.9584 C   0  0  0  0  0  0  0  0  0  0  0  0
    6.2960    5.5786   25.7572 H   0  0  0  0  0  0  0  0  0  0  0  0
    6.6889    3.5293   25.2699 C   0  0  0  0  0  0  0  0  0  0  0  0
    6.6890    3.1754   26.2952 H   0  0  0  0  0  0  0  0  0  0  0  0
    6.9168    2.6203   24.2233 C   0  0  0  0  0  0  0  0  0  0  0  0
    7.1659    1.2079   24.1564 C   0  0  0  0  0  0  0  0  0  0  0  0
    7.2620    0.4762   24.9477 H   0  0  0  0  0  0  0  0  0  0  0  0
    5.3933    0.6321   20.1250 C   0  0  0  0  0  0  0  0  0  0  0  0
    4.9637    0.6288   21.1286 H   0  0  0  0  0  0  0  0  0  0  0  0
    4.7748    1.2977   19.0712 C   0  0  0  0  0  0  0  0  0  0  0  0
    3.8536    1.8457   19.2252 H   0  0  0  0  0  0  0  0  0  0  0  0
  1  2  1  0
  2  3  2  0
  3  4  1  0
  4  5  1  0
  4  6  2  0
  6  7  1  0
  7  8  2  0
  8  9  1  0
  9 10  1  0
  9 11  1  0
 11 12  2  0
 11 13  1  0
 13 14  1  0
 14 15  1  0
 15 16  1  0
 16 17  2  0
 17 18  1  0
 17 19  1  0
 19 20  1  0
 19 21  2  0
 21 22  1  0
 21 23  1  0
 23 24  1  0
 23 25  2  0
 25 26  1  0
 26 27  1  0
  6 28  1  0
 28 29  1  0
 28 30  2  0
 30 31  1  0
 30  2  1  0
 13  7  1  0
 26 14  2  0
 25 16  1  0
M  END
>  <cnnaffinity>  (1) 
-5.02669

>  <filename>  (1) 
O=c1[nH]nc(-c2cccnc2)n1-c1cc2ccccc2o1

$$$$
