
     RDKit          3D

 32 33  0  0  0  0  0  0  0  0999 V2000
    8.8505   -7.0033   27.1933 H   0  0  0  0  0  0  0  0  0  0  0  0
    8.3175   -6.4951   26.5665 O   0  0  0  0  0  0  0  0  0  0  0  0
    9.1544   -6.0228   25.5284 C   0  0  0  0  0  0  0  0  0  0  0  0
    9.6287   -6.8488   24.9740 H   0  0  0  0  0  0  0  0  0  0  0  0
    9.9704   -5.3985   25.9319 H   0  0  0  0  0  0  0  0  0  0  0  0
    8.3033   -5.2026   24.5726 C   0  0  0  0  0  0  0  0  0  0  0  0
    8.9168   -4.9265   23.7079 H   0  0  0  0  0  0  0  0  0  0  0  0
    7.4818   -5.8229   24.1917 H   0  0  0  0  0  0  0  0  0  0  0  0
    7.7158   -3.9296   25.1946 C   0  0  0  0  0  0  0  0  0  0  0  0
    8.5093   -3.3401   25.6853 H   0  0  0  0  0  0  0  0  0  0  0  0
    7.0073   -4.1966   25.9849 H   0  0  0  0  0  0  0  0  0  0  0  0
    7.0105   -3.1159   24.2232 N   0  0  0  0  0  0  0  0  0  0  0  0
    6.0059   -3.1038   24.2393 H   0  0  0  0  0  0  0  0  0  0  0  0
    7.5683   -2.3586   23.2400 C   0  0  0  0  0  0  0  0  0  0  0  0
    6.3842   -1.7040   22.1013 S   0  0  0  0  0  0  0  0  0  0  0  0
    7.3828   -0.7485   20.9992 C   0  0  0  0  0  0  0  0  0  0  0  0
    6.6497   -0.0158   19.9285 C   0  0  0  0  0  0  0  0  0  0  0  0
    7.1718    0.0514   18.6207 C   0  0  0  0  0  0  0  0  0  0  0  0
    8.1127   -0.4307   18.3580 H   0  0  0  0  0  0  0  0  0  0  0  0
    6.5695    0.6664   17.5948 N   0  0  0  0  0  0  0  0  0  0  0  0
    5.4084    1.2884   17.8431 C   0  0  0  0  0  0  0  0  0  0  0  0
    4.9425    1.7852   16.9923 H   0  0  0  0  0  0  0  0  0  0  0  0
    4.8093    1.3102   19.1068 C   0  0  0  0  0  0  0  0  0  0  0  0
    3.8778    1.8439   19.2463 H   0  0  0  0  0  0  0  0  0  0  0  0
    5.4336    0.6501   20.1653 C   0  0  0  0  0  0  0  0  0  0  0  0
    5.0046    0.6424   21.1675 H   0  0  0  0  0  0  0  0  0  0  0  0
    8.7213   -0.6888   21.1135 C   0  0  0  0  0  0  0  0  0  0  0  0
    9.3034   -0.0888   20.4299 H   0  0  0  0  0  0  0  0  0  0  0  0
    9.5442   -1.3442   22.1436 C   0  0  0  0  0  0  0  0  0  0  0  0
   10.7609   -1.2136   22.1443 O   0  0  0  0  0  0  0  0  0  0  0  0
    8.8940   -2.1472   23.1492 C   0  0  0  0  0  0  0  0  0  0  0  0
    9.5615   -2.6113   23.8578 H   0  0  0  0  0  0  0  0  0  0  0  0
  1  2  1  0
  2  3  1  0
  3  4  1  0
  3  5  1  0
  3  6  1  0
  6  7  1  0
  6  8  1  0
  6  9  1  0
  9 10  1  0
  9 11  1  0
  9 12  1  0
 12 13  1  0
 12 14  1  0
 14 15  1  0
 15 16  1  0
 16 17  1  0
 17 18  2  0
 18 19  1  0
 18 20  1  0
 20 21  2  0
 21 22  1  0
 21 23  1  0
 23 24  1  0
 23 25  2  0
 25 26  1  0
 16 27  2  0
 27 28  1  0
 27 29  1  0
 29 30  2  0
 29 31  1  0
 31 32  1  0
 31 14  2  0
 25 17  1  0
M  END
>  <cnnaffinity>  (1) 
-4.82471

>  <filename>  (1) 
O=c1cc(NCCCO)sc(-c2cccnc2)c1

$$$$
