
     RDKit          3D

 31 33  0  0  0  0  0  0  0  0999 V2000
    4.9581    1.7848   16.9953 H   0  0  0  0  0  0  0  0  0  0  0  0
    5.4142    1.2835   17.8505 C   0  0  0  0  0  0  0  0  0  0  0  0
    6.5743    0.6580   17.6107 N   0  0  0  0  0  0  0  0  0  0  0  0
    7.1688    0.0358   18.6365 C   0  0  0  0  0  0  0  0  0  0  0  0
    8.1106   -0.4343   18.3631 H   0  0  0  0  0  0  0  0  0  0  0  0
    6.6441   -0.0422   19.9468 C   0  0  0  0  0  0  0  0  0  0  0  0
    7.3813   -0.7765   21.0246 C   0  0  0  0  0  0  0  0  0  0  0  0
    6.4202   -1.7291   22.1447 S   0  0  0  0  0  0  0  0  0  0  0  0
    7.6143   -2.3879   23.2218 C   0  0  0  0  0  0  0  0  0  0  0  0
    6.9805   -3.1449   24.1652 O   0  0  0  0  0  0  0  0  0  0  0  0
    7.6164   -4.2008   24.8027 C   0  0  0  0  0  0  0  0  0  0  0  0
    8.4886   -5.0521   24.1138 C   0  0  0  0  0  0  0  0  0  0  0  0
    8.7155   -4.8722   23.0699 H   0  0  0  0  0  0  0  0  0  0  0  0
    9.0474   -6.1386   24.7855 C   0  0  0  0  0  0  0  0  0  0  0  0
    9.7517   -6.7938   24.2829 H   0  0  0  0  0  0  0  0  0  0  0  0
    8.7209   -6.4004   26.1128 C   0  0  0  0  0  0  0  0  0  0  0  0
    9.1386   -7.2552   26.6216 H   0  0  0  0  0  0  0  0  0  0  0  0
    7.8318   -5.5523   26.7746 C   0  0  0  0  0  0  0  0  0  0  0  0
    7.4302   -5.9034   28.4286 Cl  0  0  0  0  0  0  0  0  0  0  0  0
    7.2612   -4.4510   26.1343 C   0  0  0  0  0  0  0  0  0  0  0  0
    6.5386   -3.8303   26.6537 H   0  0  0  0  0  0  0  0  0  0  0  0
    8.9314   -2.1301   23.1727 C   0  0  0  0  0  0  0  0  0  0  0  0
    9.6305   -2.5617   23.8768 H   0  0  0  0  0  0  0  0  0  0  0  0
    9.5673   -1.3150   22.1498 C   0  0  0  0  0  0  0  0  0  0  0  0
   10.7805   -1.1705   22.1389 O   0  0  0  0  0  0  0  0  0  0  0  0
    8.7207   -0.6924   21.1263 C   0  0  0  0  0  0  0  0  0  0  0  0
    9.2741   -0.0890   20.4243 H   0  0  0  0  0  0  0  0  0  0  0  0
    5.4327    0.6397   20.1740 C   0  0  0  0  0  0  0  0  0  0  0  0
    4.9970    0.6580   21.1740 H   0  0  0  0  0  0  0  0  0  0  0  0
    4.8137    1.3041   19.1125 C   0  0  0  0  0  0  0  0  0  0  0  0
    3.8834    1.8421   19.2439 H   0  0  0  0  0  0  0  0  0  0  0  0
  1  2  1  0
  2  3  2  0
  3  4  1  0
  4  5  1  0
  4  6  2  0
  6  7  1  0
  7  8  1  0
  8  9  1  0
  9 10  1  0
 10 11  1  0
 11 12  2  0
 12 13  1  0
 12 14  1  0
 14 15  1  0
 14 16  2  0
 16 17  1  0
 16 18  1  0
 18 19  1  0
 18 20  2  0
 20 21  1  0
  9 22  2  0
 22 23  1  0
 22 24  1  0
 24 25  2  0
 24 26  1  0
 26 27  1  0
  6 28  1  0
 28 29  1  0
 28 30  2  0
 30 31  1  0
 30  2  1  0
 26  7  2  0
 20 11  1  0
M  END
>  <cnnaffinity>  (1) 
-5.16583

>  <filename>  (1) 
O=c1cc(Oc2cccc(Cl)c2)sc(-c2cccnc2)c1

$$$$
