
     RDKit          3D

 34 36  0  0  0  0  0  0  0  0999 V2000
    5.0703    1.7955   16.9686 H   0  0  0  0  0  0  0  0  0  0  0  0
    5.5400    1.3072   17.8203 C   0  0  0  0  0  0  0  0  0  0  0  0
    6.7494    0.7626   17.5992 N   0  0  0  0  0  0  0  0  0  0  0  0
    7.3538    0.1573   18.6289 C   0  0  0  0  0  0  0  0  0  0  0  0
    8.3479   -0.2517   18.4600 H   0  0  0  0  0  0  0  0  0  0  0  0
    6.7523    0.0083   19.8923 C   0  0  0  0  0  0  0  0  0  0  0  0
    7.4479   -0.6883   20.9239 N   0  0  0  0  0  0  0  0  0  0  0  0
    8.7443   -0.2496   21.1015 N   0  0  0  0  0  0  0  0  0  0  0  0
    9.4583   -0.7698   22.0673 C   0  0  0  0  0  0  0  0  0  0  0  0
   10.7326   -0.2556   22.3231 N   0  0  0  0  0  0  0  0  0  0  0  0
   10.9994    1.1016   21.7911 C   0  0  0  0  0  0  0  0  0  0  0  0
   11.0815    1.0939   20.7016 H   0  0  0  0  0  0  0  0  0  0  0  0
   10.1400    1.7396   22.0112 H   0  0  0  0  0  0  0  0  0  0  0  0
   12.2932    1.7003   22.3682 C   0  0  0  0  0  0  0  0  0  0  0  0
   12.1487    1.8621   23.4444 H   0  0  0  0  0  0  0  0  0  0  0  0
   12.4726    2.6817   21.9142 H   0  0  0  0  0  0  0  0  0  0  0  0
   13.4812    0.8556   22.1821 N   0  0  0  0  0  0  0  0  0  0  0  0
   13.8007    0.8781   21.2130 H   0  0  0  0  0  0  0  0  0  0  0  0
   13.2023   -0.5120   22.6373 C   0  0  0  0  0  0  0  0  0  0  0  0
   14.0528   -1.1546   22.3773 H   0  0  0  0  0  0  0  0  0  0  0  0
   13.1429   -0.4398   23.7299 H   0  0  0  0  0  0  0  0  0  0  0  0
   11.8792   -1.1739   22.1426 C   0  0  0  0  0  0  0  0  0  0  0  0
   11.9710   -1.4735   21.0820 H   0  0  0  0  0  0  0  0  0  0  0  0
   11.7015   -2.0993   22.7152 H   0  0  0  0  0  0  0  0  0  0  0  0
    8.9419   -1.8390   22.8962 C   0  0  0  0  0  0  0  0  0  0  0  0
    9.5933   -2.2239   23.6730 H   0  0  0  0  0  0  0  0  0  0  0  0
    7.6754   -2.2913   22.7042 C   0  0  0  0  0  0  0  0  0  0  0  0
    7.2089   -3.0601   23.3097 H   0  0  0  0  0  0  0  0  0  0  0  0
    6.8194   -1.7689   21.6358 C   0  0  0  0  0  0  0  0  0  0  0  0
    5.7152   -2.2083   21.3574 O   0  0  0  0  0  0  0  0  0  0  0  0
    5.4985    0.5812   20.1205 C   0  0  0  0  0  0  0  0  0  0  0  0
    5.0307    0.5122   21.1024 H   0  0  0  0  0  0  0  0  0  0  0  0
    4.8907    1.2586   19.0583 C   0  0  0  0  0  0  0  0  0  0  0  0
    3.9358    1.7559   19.1822 H   0  0  0  0  0  0  0  0  0  0  0  0
  1  2  1  0
  2  3  2  0
  3  4  1  0
  4  5  1  0
  4  6  2  0
  6  7  1  0
  7  8  1  0
  8  9  2  0
  9 10  1  0
 10 11  1  0
 11 12  1  0
 11 13  1  0
 11 14  1  0
 14 15  1  0
 14 16  1  0
 14 17  1  0
 17 18  1  0
 17 19  1  0
 19 20  1  0
 19 21  1  0
 19 22  1  0
 22 23  1  0
 22 24  1  0
  9 25  1  0
 25 26  1  0
 25 27  2  0
 27 28  1  0
 27 29  1  0
 29 30  2  0
  6 31  1  0
 31 32  1  0
 31 33  2  0
 33 34  1  0
 33  2  1  0
 29  7  1  0
 22 10  1  0
M  END
>  <cnnaffinity>  (1) 
-4.26081

>  <filename>  (1) 
O=c1ccc(N2CCNCC2)nn1-c1cccnc1

$$$$
