
     RDKit          3D

 34 36  0  0  0  0  0  0  0  0999 V2000
    4.9087    1.7825   16.8657 H   0  0  0  0  0  0  0  0  0  0  0  0
    5.3503    1.3755   17.7715 C   0  0  0  0  0  0  0  0  0  0  0  0
    6.5649    0.8328   17.6159 N   0  0  0  0  0  0  0  0  0  0  0  0
    7.1468    0.3178   18.7027 C   0  0  0  0  0  0  0  0  0  0  0  0
    8.1304   -0.1212   18.5385 H   0  0  0  0  0  0  0  0  0  0  0  0
    6.5719    0.3238   19.9879 C   0  0  0  0  0  0  0  0  0  0  0  0
    7.2596   -0.4098   21.0838 C   0  0  0  0  0  0  0  0  0  0  0  0
    7.5625    0.4627   22.5650 S   0  0  0  0  0  0  0  0  0  0  0  0
    8.1993   -0.8027   23.6089 C   0  0  0  0  0  0  0  0  0  0  0  0
    8.3543   -0.4104   25.0411 C   0  0  0  0  0  0  0  0  0  0  0  0
    9.5675   -0.6805   25.7027 C   0  0  0  0  0  0  0  0  0  0  0  0
   10.4079   -1.0804   25.1404 H   0  0  0  0  0  0  0  0  0  0  0  0
    9.6868   -0.4270   27.0666 C   0  0  0  0  0  0  0  0  0  0  0  0
   10.6203   -0.6239   27.5728 H   0  0  0  0  0  0  0  0  0  0  0  0
    8.6187    0.0975   27.8003 C   0  0  0  0  0  0  0  0  0  0  0  0
    8.7120    0.2669   28.8652 H   0  0  0  0  0  0  0  0  0  0  0  0
    7.4431    0.4236   27.1240 C   0  0  0  0  0  0  0  0  0  0  0  0
    6.3500    1.0311   27.7298 O   0  0  0  0  0  0  0  0  0  0  0  0
    6.4064    1.5671   28.9669 C   0  0  0  0  0  0  0  0  0  0  0  0
    5.2519    2.1897   29.1680 F   0  0  0  0  0  0  0  0  0  0  0  0
    7.4017    2.4555   29.1257 F   0  0  0  0  0  0  0  0  0  0  0  0
    6.5633    0.6329   29.9205 F   0  0  0  0  0  0  0  0  0  0  0  0
    7.2868    0.1501   25.7648 C   0  0  0  0  0  0  0  0  0  0  0  0
    6.3372    0.3512   25.2738 H   0  0  0  0  0  0  0  0  0  0  0  0
    8.5143   -2.0513   23.1962 C   0  0  0  0  0  0  0  0  0  0  0  0
    8.9674   -2.7668   23.8790 H   0  0  0  0  0  0  0  0  0  0  0  0
    8.2265   -2.5932   21.8680 C   0  0  0  0  0  0  0  0  0  0  0  0
    8.4726   -3.7584   21.5849 O   0  0  0  0  0  0  0  0  0  0  0  0
    7.6277   -1.6891   20.8852 C   0  0  0  0  0  0  0  0  0  0  0  0
    7.4668   -2.1307   19.9174 H   0  0  0  0  0  0  0  0  0  0  0  0
    5.3195    0.9385   20.1393 C   0  0  0  0  0  0  0  0  0  0  0  0
    4.8520    1.0086   21.1214 H   0  0  0  0  0  0  0  0  0  0  0  0
    4.6890    1.4513   19.0015 C   0  0  0  0  0  0  0  0  0  0  0  0
    3.7192    1.9319   19.0489 H   0  0  0  0  0  0  0  0  0  0  0  0
  1  2  1  0
  2  3  2  0
  3  4  1  0
  4  5  1  0
  4  6  2  0
  6  7  1  0
  7  8  1  0
  8  9  1  0
  9 10  1  0
 10 11  2  0
 11 12  1  0
 11 13  1  0
 13 14  1  0
 13 15  2  0
 15 16  1  0
 15 17  1  0
 17 18  1  0
 18 19  1  0
 19 20  1  0
 19 21  1  0
 19 22  1  0
 17 23  2  0
 23 24  1  0
  9 25  2  0
 25 26  1  0
 25 27  1  0
 27 28  2  0
 27 29  1  0
 29 30  1  0
  6 31  1  0
 31 32  1  0
 31 33  2  0
 33 34  1  0
 33  2  1  0
 29  7  2  0
 23 10  1  0
M  END
>  <cnnaffinity>  (1) 
-5.57682

>  <filename>  (1) 
O=c1cc(-c2cccnc2)sc(-c2cccc(OC(F)(F)F)c2)c1

$$$$
