
     RDKit          3D

 32 34  0  0  0  0  0  0  0  0999 V2000
    4.6399    5.2352   23.4435 H   0  0  0  0  0  0  0  0  0  0  0  0
    4.6675    5.0463   24.3916 O   0  0  0  0  0  0  0  0  0  0  0  0
    6.0057    4.6716   24.6951 C   0  0  0  0  0  0  0  0  0  0  0  0
    6.0321    4.6013   25.7892 H   0  0  0  0  0  0  0  0  0  0  0  0
    6.7010    5.4773   24.4099 H   0  0  0  0  0  0  0  0  0  0  0  0
    6.4307    3.3562   24.0611 C   0  0  0  0  0  0  0  0  0  0  0  0
    7.0928    3.3298   22.8214 C   0  0  0  0  0  0  0  0  0  0  0  0
    7.3096    4.2652   22.3130 H   0  0  0  0  0  0  0  0  0  0  0  0
    7.4518    2.1257   22.2137 C   0  0  0  0  0  0  0  0  0  0  0  0
    7.9246    2.1113   21.2366 H   0  0  0  0  0  0  0  0  0  0  0  0
    7.1427    0.9190   22.8503 C   0  0  0  0  0  0  0  0  0  0  0  0
    7.4997   -0.3204   22.2498 N   0  0  0  0  0  0  0  0  0  0  0  0
    7.3782   -0.7096   20.9265 C   0  0  0  0  0  0  0  0  0  0  0  0
    6.6406    0.0155   19.8972 C   0  0  0  0  0  0  0  0  0  0  0  0
    7.1614    0.0498   18.5956 C   0  0  0  0  0  0  0  0  0  0  0  0
    8.1085   -0.4370   18.3651 H   0  0  0  0  0  0  0  0  0  0  0  0
    6.5654    0.6778   17.5795 N   0  0  0  0  0  0  0  0  0  0  0  0
    5.4017    1.2956   17.8342 C   0  0  0  0  0  0  0  0  0  0  0  0
    4.9316    1.7929   16.9882 H   0  0  0  0  0  0  0  0  0  0  0  0
    4.7935    1.3096   19.0961 C   0  0  0  0  0  0  0  0  0  0  0  0
    3.8670    1.8449   19.2424 H   0  0  0  0  0  0  0  0  0  0  0  0
    5.4188    0.6512   20.1486 C   0  0  0  0  0  0  0  0  0  0  0  0
    5.0051    0.6478   21.1622 H   0  0  0  0  0  0  0  0  0  0  0  0
    7.9576   -1.8468   20.6992 N   0  0  0  0  0  0  0  0  0  0  0  0
    8.4371   -2.2200   21.9187 N   0  0  0  0  0  0  0  0  0  0  0  0
    8.9484   -3.0692   22.0937 H   0  0  0  0  0  0  0  0  0  0  0  0
    8.2073   -1.3309   22.9139 C   0  0  0  0  0  0  0  0  0  0  0  0
    8.5593   -1.4315   24.0723 O   0  0  0  0  0  0  0  0  0  0  0  0
    6.4827    0.9146   24.0798 C   0  0  0  0  0  0  0  0  0  0  0  0
    6.2747   -0.0358   24.5626 H   0  0  0  0  0  0  0  0  0  0  0  0
    6.1327    2.1269   24.6750 C   0  0  0  0  0  0  0  0  0  0  0  0
    5.6231    2.1258   25.6348 H   0  0  0  0  0  0  0  0  0  0  0  0
  1  2  1  0
  2  3  1  0
  3  4  1  0
  3  5  1  0
  3  6  1  0
  6  7  2  0
  7  8  1  0
  7  9  1  0
  9 10  1  0
  9 11  2  0
 11 12  1  0
 12 13  1  0
 13 14  1  0
 14 15  2  0
 15 16  1  0
 15 17  1  0
 17 18  2  0
 18 19  1  0
 18 20  1  0
 20 21  1  0
 20 22  2  0
 22 23  1  0
 13 24  2  0
 24 25  1  0
 25 26  1  0
 25 27  1  0
 27 28  2  0
 11 29  1  0
 29 30  1  0
 29 31  2  0
 31 32  1  0
 31  6  1  0
 27 12  1  0
 22 14  1  0
M  END
>  <cnnaffinity>  (1) 
-4.84843

>  <filename>  (1) 
O=c1[nH]nc(-c2cccnc2)n1-c1ccc(CO)cc1

$$$$
