
     RDKit          3D

 39 41  0  0  0  0  0  0  0  0999 V2000
   10.0093   -1.5127   23.3320 H   0  0  0  0  0  0  0  0  0  0  0  0
   10.8747   -1.1329   23.1158 O   0  0  0  0  0  0  0  0  0  0  0  0
   10.8314    0.1895   23.4188 C   0  0  0  0  0  0  0  0  0  0  0  0
   11.9862    0.9438   23.1938 C   0  0  0  0  0  0  0  0  0  0  0  0
   12.8464    0.4320   22.7841 H   0  0  0  0  0  0  0  0  0  0  0  0
   12.0059    2.3015   23.5164 C   0  0  0  0  0  0  0  0  0  0  0  0
   13.4607    3.2083   23.2494 Cl  0  0  0  0  0  0  0  0  0  0  0  0
   10.8920    2.9331   24.0710 C   0  0  0  0  0  0  0  0  0  0  0  0
   10.9463    3.9899   24.3125 H   0  0  0  0  0  0  0  0  0  0  0  0
    9.7457    2.1721   24.3206 C   0  0  0  0  0  0  0  0  0  0  0  0
    8.8426    2.6014   24.7469 H   0  0  0  0  0  0  0  0  0  0  0  0
    9.7107    0.8185   23.9941 C   0  0  0  0  0  0  0  0  0  0  0  0
    8.5614    0.1329   24.3538 O   0  0  0  0  0  0  0  0  0  0  0  0
    8.0415   -0.6937   23.3315 N   0  0  0  0  0  0  0  0  0  0  0  0
    7.3031    0.1181   22.3734 C   0  0  0  0  0  0  0  0  0  0  0  0
    6.9393    1.2490   22.6156 O   0  0  0  0  0  0  0  0  0  0  0  0
    7.1313   -0.4991   21.1300 N   0  0  0  0  0  0  0  0  0  0  0  0
    6.5761    0.2376   20.0209 C   0  0  0  0  0  0  0  0  0  0  0  0
    7.1594    0.1921   18.7278 C   0  0  0  0  0  0  0  0  0  0  0  0
    8.1028   -0.3296   18.5785 H   0  0  0  0  0  0  0  0  0  0  0  0
    6.6299    0.7665   17.6409 N   0  0  0  0  0  0  0  0  0  0  0  0
    5.4740    1.4296   17.7944 C   0  0  0  0  0  0  0  0  0  0  0  0
    5.0487    1.8605   16.8912 H   0  0  0  0  0  0  0  0  0  0  0  0
    4.8286    1.5611   19.0293 C   0  0  0  0  0  0  0  0  0  0  0  0
    3.9140    2.1395   19.0915 H   0  0  0  0  0  0  0  0  0  0  0  0
    5.3885    0.9648   20.1641 C   0  0  0  0  0  0  0  0  0  0  0  0
    4.9267    1.0514   21.1472 H   0  0  0  0  0  0  0  0  0  0  0  0
    7.3843   -1.9368   20.9238 C   0  0  0  0  0  0  0  0  0  0  0  0
    7.1473   -2.1455   19.8818 H   0  0  0  0  0  0  0  0  0  0  0  0
    8.4543   -2.1497   21.0627 H   0  0  0  0  0  0  0  0  0  0  0  0
    6.5548   -2.8787   21.8088 C   0  0  0  0  0  0  0  0  0  0  0  0
    6.5549   -3.8632   21.3174 H   0  0  0  0  0  0  0  0  0  0  0  0
    5.5103   -2.5399   21.8323 H   0  0  0  0  0  0  0  0  0  0  0  0
    7.1398   -3.0460   23.2170 C   0  0  0  0  0  0  0  0  0  0  0  0
    6.5186   -3.7370   23.8015 H   0  0  0  0  0  0  0  0  0  0  0  0
    8.1293   -3.5269   23.1312 H   0  0  0  0  0  0  0  0  0  0  0  0
    7.2888   -1.7700   24.0480 C   0  0  0  0  0  0  0  0  0  0  0  0
    6.3166   -1.3852   24.3989 H   0  0  0  0  0  0  0  0  0  0  0  0
    7.8822   -2.0255   24.9392 H   0  0  0  0  0  0  0  0  0  0  0  0
  1  2  1  0
  2  3  1  0
  3  4  2  0
  4  5  1  0
  4  6  1  0
  6  7  1  0
  6  8  2  0
  8  9  1  0
  8 10  1  0
 10 11  1  0
 10 12  2  0
 12 13  1  0
 13 14  1  0
 14 15  1  0
 15 16  2  0
 15 17  1  0
 17 18  1  0
 18 19  2  0
 19 20  1  0
 19 21  1  0
 21 22  2  0
 22 23  1  0
 22 24  1  0
 24 25  1  0
 24 26  2  0
 26 27  1  0
 17 28  1  0
 28 29  1  0
 28 30  1  0
 28 31  1  0
 31 32  1  0
 31 33  1  0
 31 34  1  0
 34 35  1  0
 34 36  1  0
 34 37  1  0
 37 38  1  0
 37 39  1  0
 12  3  1  0
 37 14  1  0
 26 18  1  0
M  END
>  <cnnaffinity>  (1) 
-5.38018

>  <filename>  (1) 
O=C1N(Oc2ccc(Cl)cc2O)CCCCN1c1cccnc1

$$$$
