
     RDKit          3D

 23 24  0  0  0  0  0  0  0  0999 V2000
    4.9236    1.7563   16.9190 H   0  0  0  0  0  0  0  0  0  0  0  0
    5.3697    1.3617   17.8296 C   0  0  0  0  0  0  0  0  0  0  0  0
    6.5876    0.8247   17.6829 N   0  0  0  0  0  0  0  0  0  0  0  0
    7.1681    0.3145   18.7717 C   0  0  0  0  0  0  0  0  0  0  0  0
    8.1540   -0.1162   18.6008 H   0  0  0  0  0  0  0  0  0  0  0  0
    6.5918    0.3201   20.0621 C   0  0  0  0  0  0  0  0  0  0  0  0
    7.2769   -0.4260   21.1612 C   0  0  0  0  0  0  0  0  0  0  0  0
    7.5253    0.4050   22.6922 S   0  0  0  0  0  0  0  0  0  0  0  0
    8.2539   -0.8620   23.6768 C   0  0  0  0  0  0  0  0  0  0  0  0
    8.5014   -0.4401   25.1357 C   0  0  0  0  0  0  0  0  0  0  0  0
    9.7698   -0.0198   25.2849 F   0  0  0  0  0  0  0  0  0  0  0  0
    8.3270   -1.4897   25.9630 F   0  0  0  0  0  0  0  0  0  0  0  0
    7.6950    0.5347   25.5601 F   0  0  0  0  0  0  0  0  0  0  0  0
    8.6129   -2.0863   23.2321 C   0  0  0  0  0  0  0  0  0  0  0  0
    9.1149   -2.8147   23.8679 H   0  0  0  0  0  0  0  0  0  0  0  0
    8.3141   -2.6103   21.8791 C   0  0  0  0  0  0  0  0  0  0  0  0
    8.5589   -3.7660   21.5669 O   0  0  0  0  0  0  0  0  0  0  0  0
    7.6784   -1.6902   20.9325 C   0  0  0  0  0  0  0  0  0  0  0  0
    7.5241   -2.1193   19.9575 H   0  0  0  0  0  0  0  0  0  0  0  0
    5.3377    0.9400   20.2001 C   0  0  0  0  0  0  0  0  0  0  0  0
    4.8698    1.0241   21.1820 H   0  0  0  0  0  0  0  0  0  0  0  0
    4.7095    1.4425   19.0576 C   0  0  0  0  0  0  0  0  0  0  0  0
    3.7356    1.9172   19.1011 H   0  0  0  0  0  0  0  0  0  0  0  0
  1  2  1  0
  2  3  2  0
  3  4  1  0
  4  5  1  0
  4  6  2  0
  6  7  1  0
  7  8  1  0
  8  9  1  0
  9 10  1  0
 10 11  1  0
 10 12  1  0
 10 13  1  0
  9 14  2  0
 14 15  1  0
 14 16  1  0
 16 17  2  0
 16 18  1  0
 18 19  1  0
  6 20  1  0
 20 21  1  0
 20 22  2  0
 22 23  1  0
 22  2  1  0
 18  7  2  0
M  END
>  <cnnaffinity>  (1) 
-4.97381

>  <filename>  (1) 
O=c1cc(-c2cccnc2)sc(C(F)(F)F)c1

$$$$
