
     RDKit          3D

 34 36  0  0  0  0  0  0  0  0999 V2000
    4.9387    1.7859   16.9867 H   0  0  0  0  0  0  0  0  0  0  0  0
    5.4025    1.2940   17.8387 C   0  0  0  0  0  0  0  0  0  0  0  0
    6.5632    0.6683   17.5893 N   0  0  0  0  0  0  0  0  0  0  0  0
    7.1582    0.0536   18.6167 C   0  0  0  0  0  0  0  0  0  0  0  0
    8.1028   -0.4298   18.3727 H   0  0  0  0  0  0  0  0  0  0  0  0
    6.6296   -0.0003   19.9167 C   0  0  0  0  0  0  0  0  0  0  0  0
    7.3322   -0.7356   21.0005 C   0  0  0  0  0  0  0  0  0  0  0  0
    6.5777   -1.3211   21.9043 N   0  0  0  0  0  0  0  0  0  0  0  0
    7.1661   -1.9679   22.9587 N   0  0  0  0  0  0  0  0  0  0  0  0
    6.2686   -2.5555   23.9334 C   0  0  0  0  0  0  0  0  0  0  0  0
    6.4995   -2.3485   25.3013 C   0  0  0  0  0  0  0  0  0  0  0  0
    7.3614   -1.7732   25.6119 H   0  0  0  0  0  0  0  0  0  0  0  0
    5.6323   -2.9160   26.2364 C   0  0  0  0  0  0  0  0  0  0  0  0
    5.8185   -2.7610   27.2950 H   0  0  0  0  0  0  0  0  0  0  0  0
    4.5402   -3.6959   25.8438 C   0  0  0  0  0  0  0  0  0  0  0  0
    3.8707   -4.1321   26.5790 H   0  0  0  0  0  0  0  0  0  0  0  0
    4.3323   -3.8920   24.4782 C   0  0  0  0  0  0  0  0  0  0  0  0
    3.2614   -4.6238   23.9660 O   0  0  0  0  0  0  0  0  0  0  0  0
    2.3447   -5.2259   24.7546 C   0  0  0  0  0  0  0  0  0  0  0  0
    1.4912   -5.8307   23.9380 F   0  0  0  0  0  0  0  0  0  0  0  0
    2.8741   -6.1421   25.5836 F   0  0  0  0  0  0  0  0  0  0  0  0
    1.6622   -4.3664   25.5322 F   0  0  0  0  0  0  0  0  0  0  0  0
    5.1807   -3.3318   23.5158 C   0  0  0  0  0  0  0  0  0  0  0  0
    4.9783   -3.4624   22.4599 H   0  0  0  0  0  0  0  0  0  0  0  0
    8.5834   -2.1211   23.1279 C   0  0  0  0  0  0  0  0  0  0  0  0
    9.0761   -2.7522   24.0476 O   0  0  0  0  0  0  0  0  0  0  0  0
    9.3680   -1.4538   22.0852 C   0  0  0  0  0  0  0  0  0  0  0  0
   10.4428   -1.5532   22.2020 H   0  0  0  0  0  0  0  0  0  0  0  0
    8.7702   -0.7874   21.0640 C   0  0  0  0  0  0  0  0  0  0  0  0
    9.3373   -0.2591   20.2990 H   0  0  0  0  0  0  0  0  0  0  0  0
    5.4118    0.6534   20.1604 C   0  0  0  0  0  0  0  0  0  0  0  0
    4.9853    0.6260   21.1671 H   0  0  0  0  0  0  0  0  0  0  0  0
    4.7986    1.3196   19.1006 C   0  0  0  0  0  0  0  0  0  0  0  0
    3.8673    1.8534   19.2389 H   0  0  0  0  0  0  0  0  0  0  0  0
  1  2  1  0
  2  3  2  0
  3  4  1  0
  4  5  1  0
  4  6  2  0
  6  7  1  0
  7  8  2  0
  8  9  1  0
  9 10  1  0
 10 11  2  0
 11 12  1  0
 11 13  1  0
 13 14  1  0
 13 15  2  0
 15 16  1  0
 15 17  1  0
 17 18  1  0
 18 19  1  0
 19 20  1  0
 19 21  1  0
 19 22  1  0
 17 23  2  0
 23 24  1  0
  9 25  1  0
 25 26  2  0
 25 27  1  0
 27 28  1  0
 27 29  2  0
 29 30  1  0
  6 31  1  0
 31 32  1  0
 31 33  2  0
 33 34  1  0
 33  2  1  0
 29  7  1  0
 23 10  1  0
M  END
>  <cnnaffinity>  (1) 
-5.34014

>  <filename>  (1) 
O=c1ccc(-c2cccnc2)nn1-c1cccc(OC(F)(F)F)c1

$$$$
