
     RDKit          3D

 31 33  0  0  0  0  0  0  0  0999 V2000
    9.8600   -1.6101   27.8049 H   0  0  0  0  0  0  0  0  0  0  0  0
    9.2693   -0.9642   27.1565 C   0  0  0  0  0  0  0  0  0  0  0  0
    9.2219   -1.3079   25.8701 N   0  0  0  0  0  0  0  0  0  0  0  0
    8.4964   -0.5123   25.0729 C   0  0  0  0  0  0  0  0  0  0  0  0
    8.3167   -0.9152   23.6296 C   0  0  0  0  0  0  0  0  0  0  0  0
    7.5300    0.3358   22.6744 S   0  0  0  0  0  0  0  0  0  0  0  0
    7.2826   -0.4659   21.1426 C   0  0  0  0  0  0  0  0  0  0  0  0
    6.5991    0.2775   20.0412 C   0  0  0  0  0  0  0  0  0  0  0  0
    7.1747    0.2869   18.7530 C   0  0  0  0  0  0  0  0  0  0  0  0
    8.1642   -0.1375   18.5747 H   0  0  0  0  0  0  0  0  0  0  0  0
    6.5954    0.8127   17.6716 N   0  0  0  0  0  0  0  0  0  0  0  0
    5.3774    1.3506   17.8261 C   0  0  0  0  0  0  0  0  0  0  0  0
    4.9292    1.7576   16.9233 H   0  0  0  0  0  0  0  0  0  0  0  0
    4.7199    1.4187   19.0588 C   0  0  0  0  0  0  0  0  0  0  0  0
    3.7559    1.9083   19.1132 H   0  0  0  0  0  0  0  0  0  0  0  0
    5.3495    0.8975   20.1925 C   0  0  0  0  0  0  0  0  0  0  0  0
    4.8931    0.9834   21.1781 H   0  0  0  0  0  0  0  0  0  0  0  0
    7.6752   -1.7261   20.8973 C   0  0  0  0  0  0  0  0  0  0  0  0
    7.5108   -2.1311   19.9151 H   0  0  0  0  0  0  0  0  0  0  0  0
    8.3182   -2.6519   21.8261 C   0  0  0  0  0  0  0  0  0  0  0  0
    8.5554   -3.8073   21.5098 O   0  0  0  0  0  0  0  0  0  0  0  0
    8.6675   -2.1346   23.1564 C   0  0  0  0  0  0  0  0  0  0  0  0
    9.2157   -2.8608   23.7589 H   0  0  0  0  0  0  0  0  0  0  0  0
    7.8738    0.6007   25.4733 N   0  0  0  0  0  0  0  0  0  0  0  0
    7.8906    0.9348   26.7604 C   0  0  0  0  0  0  0  0  0  0  0  0
    7.1339    2.2326   27.1927 C   0  0  0  0  0  0  0  0  0  0  0  0
    6.4113    2.0009   28.3086 F   0  0  0  0  0  0  0  0  0  0  0  0
    6.2959    2.7110   26.2673 F   0  0  0  0  0  0  0  0  0  0  0  0
    8.0030    3.2165   27.4881 F   0  0  0  0  0  0  0  0  0  0  0  0
    8.5909    0.1390   27.6732 C   0  0  0  0  0  0  0  0  0  0  0  0
    8.6370    0.3607   28.7293 H   0  0  0  0  0  0  0  0  0  0  0  0
  1  2  1  0
  2  3  2  0
  3  4  1  0
  4  5  1  0
  5  6  1  0
  6  7  1  0
  7  8  1  0
  8  9  2  0
  9 10  1  0
  9 11  1  0
 11 12  2  0
 12 13  1  0
 12 14  1  0
 14 15  1  0
 14 16  2  0
 16 17  1  0
  7 18  2  0
 18 19  1  0
 18 20  1  0
 20 21  2  0
 20 22  1  0
 22 23  1  0
  4 24  2  0
 24 25  1  0
 25 26  1  0
 26 27  1  0
 26 28  1  0
 26 29  1  0
 25 30  2  0
 30 31  1  0
 30  2  1  0
 22  5  2  0
 16  8  1  0
M  END
>  <cnnaffinity>  (1) 
-5.65724

>  <filename>  (1) 
O=c1cc(-c2cccnc2)sc(-c2nccc(C(F)(F)F)n2)c1

$$$$
