
     RDKit          3D

 19 20  0  0  0  0  0  0  0  0999 V2000
    4.9820    1.8395   16.9621 H   0  0  0  0  0  0  0  0  0  0  0  0
    5.4784    1.3290   17.7876 C   0  0  0  0  0  0  0  0  0  0  0  0
    6.6574    0.7458   17.5099 N   0  0  0  0  0  0  0  0  0  0  0  0
    7.2612    0.0753   18.4964 C   0  0  0  0  0  0  0  0  0  0  0  0
    8.2158   -0.3839   18.2613 H   0  0  0  0  0  0  0  0  0  0  0  0
    6.7273   -0.0815   19.7925 C   0  0  0  0  0  0  0  0  0  0  0  0
    7.4015   -0.8662   20.7682 N   0  0  0  0  0  0  0  0  0  0  0  0
    6.8653   -1.8189   21.6667 C   0  0  0  0  0  0  0  0  0  0  0  0
    5.7435   -2.2813   21.6406 O   0  0  0  0  0  0  0  0  0  0  0  0
    8.0151   -2.0881   22.5459 C   0  0  0  0  0  0  0  0  0  0  0  0
    7.9112   -3.0002   23.9890 Cl  0  0  0  0  0  0  0  0  0  0  0  0
    9.0904   -1.4116   22.0950 C   0  0  0  0  0  0  0  0  0  0  0  0
   10.0914   -1.3968   22.5067 H   0  0  0  0  0  0  0  0  0  0  0  0
    8.7869   -0.7490   20.9189 N   0  0  0  0  0  0  0  0  0  0  0  0
    9.1619    0.1776   20.7344 H   0  0  0  0  0  0  0  0  0  0  0  0
    5.5191    0.5728   20.0838 C   0  0  0  0  0  0  0  0  0  0  0  0
    5.1038    0.5509   21.0906 H   0  0  0  0  0  0  0  0  0  0  0  0
    4.8849    1.2816   19.0540 C   0  0  0  0  0  0  0  0  0  0  0  0
    3.9447    1.7997   19.2207 H   0  0  0  0  0  0  0  0  0  0  0  0
  1  2  1  0
  2  3  2  0
  3  4  1  0
  4  5  1  0
  4  6  2  0
  6  7  1  0
  7  8  1  0
  8  9  2  0
  8 10  1  0
 10 11  1  0
 10 12  2  0
 12 13  1  0
 12 14  1  0
 14 15  1  0
  6 16  1  0
 16 17  1  0
 16 18  2  0
 18 19  1  0
 18  2  1  0
 14  7  1  0
M  END
>  <cnnaffinity>  (1) 
-4.3779

>  <filename>  (1) 
O=c1c(Cl)c[nH]n1-c1cccnc1

$$$$
