
     RDKit          3D

 39 42  0  0  0  0  0  0  0  0999 V2000
    4.9920    1.7874   16.9713 H   0  0  0  0  0  0  0  0  0  0  0  0
    5.4318    1.3145   17.8459 C   0  0  0  0  0  0  0  0  0  0  0  0
    6.6107    0.7011   17.6515 N   0  0  0  0  0  0  0  0  0  0  0  0
    7.1773    0.0988   18.7053 C   0  0  0  0  0  0  0  0  0  0  0  0
    8.1518   -0.3593   18.5419 H   0  0  0  0  0  0  0  0  0  0  0  0
    6.5831    0.0655   19.9799 C   0  0  0  0  0  0  0  0  0  0  0  0
    7.1438   -0.6912   21.0582 N   0  0  0  0  0  0  0  0  0  0  0  0
    7.4050    0.0472   22.1787 N   0  0  0  0  0  0  0  0  0  0  0  0
    8.1177   -0.5011   23.1214 C   0  0  0  0  0  0  0  0  0  0  0  0
    8.3395    0.3284   24.3678 C   0  0  0  0  0  0  0  0  0  0  0  0
    7.4680    0.9779   24.4896 H   0  0  0  0  0  0  0  0  0  0  0  0
    8.3713   -0.3224   25.2486 H   0  0  0  0  0  0  0  0  0  0  0  0
    9.6126    1.1391   24.2687 C   0  0  0  0  0  0  0  0  0  0  0  0
   10.8316    0.5647   24.7270 C   0  0  0  0  0  0  0  0  0  0  0  0
   10.8018   -0.3661   25.2911 H   0  0  0  0  0  0  0  0  0  0  0  0
   12.0293    1.1689   24.4534 C   0  0  0  0  0  0  0  0  0  0  0  0
   12.9607    0.7148   24.7704 H   0  0  0  0  0  0  0  0  0  0  0  0
   12.0738    2.4064   23.7481 C   0  0  0  0  0  0  0  0  0  0  0  0
   13.3087    3.0042   23.3822 C   0  0  0  0  0  0  0  0  0  0  0  0
   14.1915    2.3915   23.5040 H   0  0  0  0  0  0  0  0  0  0  0  0
   13.3501    4.2599   22.8294 C   0  0  0  0  0  0  0  0  0  0  0  0
   14.3019    4.7367   22.6105 H   0  0  0  0  0  0  0  0  0  0  0  0
   12.1323    4.9335   22.5193 C   0  0  0  0  0  0  0  0  0  0  0  0
   12.1754    5.9012   22.0317 H   0  0  0  0  0  0  0  0  0  0  0  0
   10.9163    4.3431   22.7762 C   0  0  0  0  0  0  0  0  0  0  0  0
    9.9885    4.8355   22.4918 H   0  0  0  0  0  0  0  0  0  0  0  0
   10.8520    3.0553   23.3908 C   0  0  0  0  0  0  0  0  0  0  0  0
    9.6301    2.3591   23.6275 C   0  0  0  0  0  0  0  0  0  0  0  0
    8.7034    2.7934   23.2609 H   0  0  0  0  0  0  0  0  0  0  0  0
    8.6586   -1.8326   22.9683 C   0  0  0  0  0  0  0  0  0  0  0  0
    9.4079   -2.1675   23.6803 H   0  0  0  0  0  0  0  0  0  0  0  0
    8.1768   -2.6483   21.9903 C   0  0  0  0  0  0  0  0  0  0  0  0
    8.4162   -3.7008   21.8993 H   0  0  0  0  0  0  0  0  0  0  0  0
    7.1883   -2.1436   21.0328 C   0  0  0  0  0  0  0  0  0  0  0  0
    6.5151   -2.8193   20.2841 O   0  0  0  0  0  0  0  0  0  0  0  0
    5.4042    0.7822   20.1919 C   0  0  0  0  0  0  0  0  0  0  0  0
    5.0131    0.8652   21.2078 H   0  0  0  0  0  0  0  0  0  0  0  0
    4.7896    1.3826   19.0892 C   0  0  0  0  0  0  0  0  0  0  0  0
    3.8517    1.9215   19.1922 H   0  0  0  0  0  0  0  0  0  0  0  0
  1  2  1  0
  2  3  2  0
  3  4  1  0
  4  5  1  0
  4  6  2  0
  6  7  1  0
  7  8  1  0
  8  9  2  0
  9 10  1  0
 10 11  1  0
 10 12  1  0
 10 13  1  0
 13 14  2  0
 14 15  1  0
 14 16  1  0
 16 17  1  0
 16 18  2  0
 18 19  1  0
 19 20  1  0
 19 21  2  0
 21 22  1  0
 21 23  1  0
 23 24  1  0
 23 25  2  0
 25 26  1  0
 25 27  1  0
 27 28  2  0
 28 29  1  0
  9 30  1  0
 30 31  1  0
 30 32  2  0
 32 33  1  0
 32 34  1  0
 34 35  2  0
  6 36  1  0
 36 37  1  0
 36 38  2  0
 38 39  1  0
 38  2  1  0
 34  7  1  0
 28 13  1  0
 27 18  1  0
M  END
>  <cnnaffinity>  (1) 
-5.73526

>  <filename>  (1) 
O=c1ccc(Cc2ccc3ccccc3c2)nn1-c1cccnc1

$$$$
