
     RDKit          3D

 28 30  0  0  0  0  0  0  0  0999 V2000
    4.9016    1.7999   16.8587 H   0  0  0  0  0  0  0  0  0  0  0  0
    5.3445    1.3866   17.7615 C   0  0  0  0  0  0  0  0  0  0  0  0
    6.5602    0.8450   17.6033 N   0  0  0  0  0  0  0  0  0  0  0  0
    7.1482    0.3386   18.6922 C   0  0  0  0  0  0  0  0  0  0  0  0
    8.1369   -0.0852   18.5174 H   0  0  0  0  0  0  0  0  0  0  0  0
    6.5777    0.3515   19.9817 C   0  0  0  0  0  0  0  0  0  0  0  0
    7.2606   -0.3782   21.0877 C   0  0  0  0  0  0  0  0  0  0  0  0
    7.6033    0.4997   22.5620 S   0  0  0  0  0  0  0  0  0  0  0  0
    8.2345   -0.7651   23.6064 C   0  0  0  0  0  0  0  0  0  0  0  0
    8.4063   -0.3942   25.0458 C   0  0  0  0  0  0  0  0  0  0  0  0
    7.3224    0.0982   25.8080 C   0  0  0  0  0  0  0  0  0  0  0  0
    6.3761    0.3383   25.3339 H   0  0  0  0  0  0  0  0  0  0  0  0
    7.3848    0.2819   27.1305 N   0  0  0  0  0  0  0  0  0  0  0  0
    8.5178    0.0212   27.7935 N   0  0  0  0  0  0  0  0  0  0  0  0
    9.5934   -0.4093   27.1271 C   0  0  0  0  0  0  0  0  0  0  0  0
   10.4718   -0.5848   27.7349 H   0  0  0  0  0  0  0  0  0  0  0  0
    9.5899   -0.6360   25.7391 C   0  0  0  0  0  0  0  0  0  0  0  0
   10.4871   -0.9785   25.2293 H   0  0  0  0  0  0  0  0  0  0  0  0
    8.5024   -2.0273   23.2098 C   0  0  0  0  0  0  0  0  0  0  0  0
    8.9238   -2.7395   23.9180 H   0  0  0  0  0  0  0  0  0  0  0  0
    8.2048   -2.5702   21.8875 C   0  0  0  0  0  0  0  0  0  0  0  0
    8.4487   -3.7341   21.6062 O   0  0  0  0  0  0  0  0  0  0  0  0
    7.5869   -1.6722   20.9097 C   0  0  0  0  0  0  0  0  0  0  0  0
    7.3813   -2.1460   19.9602 H   0  0  0  0  0  0  0  0  0  0  0  0
    5.3184    0.9537   20.1305 C   0  0  0  0  0  0  0  0  0  0  0  0
    4.8616    1.0228   21.1198 H   0  0  0  0  0  0  0  0  0  0  0  0
    4.6837    1.4618   18.9923 C   0  0  0  0  0  0  0  0  0  0  0  0
    3.7164    1.9511   19.0491 H   0  0  0  0  0  0  0  0  0  0  0  0
  1  2  1  0
  2  3  2  0
  3  4  1  0
  4  5  1  0
  4  6  2  0
  6  7  1  0
  7  8  1  0
  8  9  1  0
  9 10  1  0
 10 11  2  0
 11 12  1  0
 11 13  1  0
 13 14  2  0
 14 15  1  0
 15 16  1  0
 15 17  2  0
 17 18  1  0
  9 19  2  0
 19 20  1  0
 19 21  1  0
 21 22  2  0
 21 23  1  0
 23 24  1  0
  6 25  1  0
 25 26  1  0
 25 27  2  0
 27 28  1  0
 27  2  1  0
 23  7  2  0
 17 10  1  0
M  END
>  <cnnaffinity>  (1) 
-5.06958

>  <filename>  (1) 
O=c1cc(-c2cccnc2)sc(-c2ccnnc2)c1

$$$$
