
     RDKit          3D

 32 34  0  0  0  0  0  0  0  0999 V2000
   15.2619    0.2130   22.8084 H   0  0  0  0  0  0  0  0  0  0  0  0
   14.7142    0.9462   22.5060 O   0  0  0  0  0  0  0  0  0  0  0  0
   13.4511    0.4558   22.3057 C   0  0  0  0  0  0  0  0  0  0  0  0
   13.1694   -0.9081   22.3690 C   0  0  0  0  0  0  0  0  0  0  0  0
   13.9878   -1.6121   22.4775 H   0  0  0  0  0  0  0  0  0  0  0  0
   11.8556   -1.3757   22.2583 C   0  0  0  0  0  0  0  0  0  0  0  0
   11.6591   -2.4415   22.3432 H   0  0  0  0  0  0  0  0  0  0  0  0
   10.8122   -0.4766   22.0193 C   0  0  0  0  0  0  0  0  0  0  0  0
    9.4000   -0.9393   21.9383 C   0  0  0  0  0  0  0  0  0  0  0  0
    8.6866   -0.4107   20.9754 N   0  0  0  0  0  0  0  0  0  0  0  0
    7.3641   -0.7413   20.8870 N   0  0  0  0  0  0  0  0  0  0  0  0
    6.6675   -0.0137   19.8772 C   0  0  0  0  0  0  0  0  0  0  0  0
    7.2555    0.1131   18.6079 C   0  0  0  0  0  0  0  0  0  0  0  0
    8.2394   -0.3170   18.4461 H   0  0  0  0  0  0  0  0  0  0  0  0
    6.6647    0.7297   17.5820 N   0  0  0  0  0  0  0  0  0  0  0  0
    5.4695    1.3028   17.8162 C   0  0  0  0  0  0  0  0  0  0  0  0
    5.0030    1.7983   16.9677 H   0  0  0  0  0  0  0  0  0  0  0  0
    4.8406    1.2903   19.0663 C   0  0  0  0  0  0  0  0  0  0  0  0
    3.8989    1.8146   19.1977 H   0  0  0  0  0  0  0  0  0  0  0  0
    5.4445    0.6102   20.1300 C   0  0  0  0  0  0  0  0  0  0  0  0
    4.9967    0.5684   21.1230 H   0  0  0  0  0  0  0  0  0  0  0  0
    6.7027   -1.7713   21.6501 C   0  0  0  0  0  0  0  0  0  0  0  0
    5.5841   -2.1799   21.3896 O   0  0  0  0  0  0  0  0  0  0  0  0
    7.5353   -2.2618   22.7411 C   0  0  0  0  0  0  0  0  0  0  0  0
    7.0404   -2.9582   23.4045 H   0  0  0  0  0  0  0  0  0  0  0  0
    8.8331   -1.8691   22.8801 C   0  0  0  0  0  0  0  0  0  0  0  0
    9.4599   -2.2403   23.6870 H   0  0  0  0  0  0  0  0  0  0  0  0
   11.1057    0.8876   21.8457 C   0  0  0  0  0  0  0  0  0  0  0  0
   10.3183    1.5922   21.5863 H   0  0  0  0  0  0  0  0  0  0  0  0
   12.4025    1.3647   22.0019 C   0  0  0  0  0  0  0  0  0  0  0  0
   12.5885    2.7044   21.8536 O   0  0  0  0  0  0  0  0  0  0  0  0
   13.5382    2.8718   21.7533 H   0  0  0  0  0  0  0  0  0  0  0  0
  1  2  1  0
  2  3  1  0
  3  4  2  0
  4  5  1  0
  4  6  1  0
  6  7  1  0
  6  8  2  0
  8  9  1  0
  9 10  2  0
 10 11  1  0
 11 12  1  0
 12 13  2  0
 13 14  1  0
 13 15  1  0
 15 16  2  0
 16 17  1  0
 16 18  1  0
 18 19  1  0
 18 20  2  0
 20 21  1  0
 11 22  1  0
 22 23  2  0
 22 24  1  0
 24 25  1  0
 24 26  2  0
 26 27  1  0
  8 28  1  0
 28 29  1  0
 28 30  2  0
 30 31  1  0
 31 32  1  0
 30  3  1  0
 26  9  1  0
 20 12  1  0
M  END
>  <cnnaffinity>  (1) 
-5.66236

>  <filename>  (1) 
O=c1ccc(-c2ccc(O)c(O)c2)nn1-c1cccnc1

$$$$
