
     RDKit          3D

 30 32  0  0  0  0  0  0  0  0999 V2000
    4.9282    1.7901   16.9904 H   0  0  0  0  0  0  0  0  0  0  0  0
    5.3962    1.2959   17.8394 C   0  0  0  0  0  0  0  0  0  0  0  0
    6.5524    0.6695   17.5814 N   0  0  0  0  0  0  0  0  0  0  0  0
    7.1433    0.0388   18.5980 C   0  0  0  0  0  0  0  0  0  0  0  0
    8.1123   -0.4112   18.3921 H   0  0  0  0  0  0  0  0  0  0  0  0
    6.6053   -0.0290   19.8979 C   0  0  0  0  0  0  0  0  0  0  0  0
    7.3222   -0.7397   20.9937 C   0  0  0  0  0  0  0  0  0  0  0  0
    6.5812   -1.4914   21.7640 N   0  0  0  0  0  0  0  0  0  0  0  0
    7.1657   -2.1775   22.8033 N   0  0  0  0  0  0  0  0  0  0  0  0
    6.3017   -2.9846   23.6140 C   0  0  0  0  0  0  0  0  0  0  0  0
    6.3478   -2.8569   25.0164 C   0  0  0  0  0  0  0  0  0  0  0  0
    7.0350   -2.1224   25.4245 H   0  0  0  0  0  0  0  0  0  0  0  0
    5.5190   -3.6078   25.8507 C   0  0  0  0  0  0  0  0  0  0  0  0
    5.5511   -3.4978   26.9306 H   0  0  0  0  0  0  0  0  0  0  0  0
    4.6389   -4.5239   25.2744 C   0  0  0  0  0  0  0  0  0  0  0  0
    3.6027   -5.4743   26.2902 Cl  0  0  0  0  0  0  0  0  0  0  0  0
    4.5770   -4.6946   23.8925 C   0  0  0  0  0  0  0  0  0  0  0  0
    3.8929   -5.4173   23.4572 H   0  0  0  0  0  0  0  0  0  0  0  0
    5.4049   -3.9262   23.0623 C   0  0  0  0  0  0  0  0  0  0  0  0
    5.3251   -4.2532   21.3637 Cl  0  0  0  0  0  0  0  0  0  0  0  0
    8.5268   -2.1031   23.0281 C   0  0  0  0  0  0  0  0  0  0  0  0
    8.8867   -2.7153   23.8546 H   0  0  0  0  0  0  0  0  0  0  0  0
    9.3522   -1.3521   22.2799 C   0  0  0  0  0  0  0  0  0  0  0  0
   10.4184   -1.2792   22.4556 H   0  0  0  0  0  0  0  0  0  0  0  0
    8.8120   -0.5576   21.1869 C   0  0  0  0  0  0  0  0  0  0  0  0
    9.5143    0.1737   20.4946 O   0  0  0  0  0  0  0  0  0  0  0  0
    5.4022    0.6369   20.1556 C   0  0  0  0  0  0  0  0  0  0  0  0
    4.9952    0.6137   21.1689 H   0  0  0  0  0  0  0  0  0  0  0  0
    4.7945    1.3207   19.1034 C   0  0  0  0  0  0  0  0  0  0  0  0
    3.8665    1.8589   19.2442 H   0  0  0  0  0  0  0  0  0  0  0  0
  1  2  1  0
  2  3  2  0
  3  4  1  0
  4  5  1  0
  4  6  2  0
  6  7  1  0
  7  8  2  0
  8  9  1  0
  9 10  1  0
 10 11  2  0
 11 12  1  0
 11 13  1  0
 13 14  1  0
 13 15  2  0
 15 16  1  0
 15 17  1  0
 17 18  1  0
 17 19  2  0
 19 20  1  0
  9 21  1  0
 21 22  1  0
 21 23  2  0
 23 24  1  0
 23 25  1  0
 25 26  2  0
  6 27  1  0
 27 28  1  0
 27 29  2  0
 29 30  1  0
 29  2  1  0
 25  7  1  0
 19 10  1  0
M  END
>  <cnnaffinity>  (1) 
-5.53542

>  <filename>  (1) 
O=c1ccn(-c2ccc(Cl)cc2Cl)nc1-c1cccnc1

$$$$
