
     RDKit          3D

 33 35  0  0  0  0  0  0  0  0999 V2000
    4.9561    1.8161   16.9580 H   0  0  0  0  0  0  0  0  0  0  0  0
    5.4028    1.3001   17.8041 C   0  0  0  0  0  0  0  0  0  0  0  0
    6.5535    0.6597   17.5612 N   0  0  0  0  0  0  0  0  0  0  0  0
    7.1420    0.0428   18.5890 C   0  0  0  0  0  0  0  0  0  0  0  0
    8.0862   -0.4552   18.3738 H   0  0  0  0  0  0  0  0  0  0  0  0
    6.6193    0.0230   19.8925 C   0  0  0  0  0  0  0  0  0  0  0  0
    7.3500   -0.6381   20.9837 C   0  0  0  0  0  0  0  0  0  0  0  0
    6.6305   -1.3385   21.8373 N   0  0  0  0  0  0  0  0  0  0  0  0
    7.2473   -1.9983   22.8680 C   0  0  0  0  0  0  0  0  0  0  0  0
    6.3674   -2.8927   23.6996 C   0  0  0  0  0  0  0  0  0  0  0  0
    5.3438   -2.5272   23.6921 H   0  0  0  0  0  0  0  0  0  0  0  0
    6.6901   -2.8960   24.7487 H   0  0  0  0  0  0  0  0  0  0  0  0
    6.4301   -4.2966   23.1459 C   0  0  0  0  0  0  0  0  0  0  0  0
    5.4582   -4.8022   22.2743 C   0  0  0  0  0  0  0  0  0  0  0  0
    4.7134   -4.1260   21.8655 H   0  0  0  0  0  0  0  0  0  0  0  0
    5.4870   -6.1470   21.9043 C   0  0  0  0  0  0  0  0  0  0  0  0
    4.6995   -6.5933   21.3066 H   0  0  0  0  0  0  0  0  0  0  0  0
    6.5655   -6.9399   22.2975 C   0  0  0  0  0  0  0  0  0  0  0  0
    6.5709   -8.6223   21.9761 Cl  0  0  0  0  0  0  0  0  0  0  0  0
    7.6627   -6.3629   22.9457 C   0  0  0  0  0  0  0  0  0  0  0  0
    9.1506   -7.2258   23.0298 Cl  0  0  0  0  0  0  0  0  0  0  0  0
    7.5528   -5.0740   23.4397 C   0  0  0  0  0  0  0  0  0  0  0  0
    8.3576   -4.6695   24.0408 H   0  0  0  0  0  0  0  0  0  0  0  0
    8.6019   -1.9625   23.0622 C   0  0  0  0  0  0  0  0  0  0  0  0
    9.0982   -2.5007   23.8652 H   0  0  0  0  0  0  0  0  0  0  0  0
    9.3737   -1.2310   22.1977 N   0  0  0  0  0  0  0  0  0  0  0  0
   10.3792   -1.1313   22.2542 H   0  0  0  0  0  0  0  0  0  0  0  0
    8.8561   -0.5079   21.1294 C   0  0  0  0  0  0  0  0  0  0  0  0
    9.6522    0.1320   20.4599 O   0  0  0  0  0  0  0  0  0  0  0  0
    5.3807    0.6467   20.1161 C   0  0  0  0  0  0  0  0  0  0  0  0
    4.9108    0.6041   21.1010 H   0  0  0  0  0  0  0  0  0  0  0  0
    4.7783    1.3178   19.0561 C   0  0  0  0  0  0  0  0  0  0  0  0
    3.8469    1.8562   19.1846 H   0  0  0  0  0  0  0  0  0  0  0  0
  1  2  1  0
  2  3  2  0
  3  4  1  0
  4  5  1  0
  4  6  2  0
  6  7  1  0
  7  8  2  0
  8  9  1  0
  9 10  1  0
 10 11  1  0
 10 12  1  0
 10 13  1  0
 13 14  2  0
 14 15  1  0
 14 16  1  0
 16 17  1  0
 16 18  2  0
 18 19  1  0
 18 20  1  0
 20 21  1  0
 20 22  2  0
 22 23  1  0
  9 24  2  0
 24 25  1  0
 24 26  1  0
 26 27  1  0
 26 28  1  0
 28 29  2  0
  6 30  1  0
 30 31  1  0
 30 32  2  0
 32 33  1  0
 32  2  1  0
 28  7  1  0
 22 13  1  0
M  END
>  <cnnaffinity>  (1) 
-5.83575

>  <filename>  (1) 
O=c1[nH]cc(Cc2ccc(Cl)c(Cl)c2)nc1-c1cccnc1

$$$$
