
     RDKit          3D

 36 39  0  0  0  0  0  0  0  0999 V2000
    4.9155    1.7975   16.9820 H   0  0  0  0  0  0  0  0  0  0  0  0
    5.3931    1.3033   17.8246 C   0  0  0  0  0  0  0  0  0  0  0  0
    6.5578    0.6892   17.5618 N   0  0  0  0  0  0  0  0  0  0  0  0
    7.1775    0.0776   18.5771 C   0  0  0  0  0  0  0  0  0  0  0  0
    8.1206   -0.4224   18.3504 H   0  0  0  0  0  0  0  0  0  0  0  0
    6.6571    0.0219   19.8842 C   0  0  0  0  0  0  0  0  0  0  0  0
    7.3512   -0.6835   20.9323 N   0  0  0  0  0  0  0  0  0  0  0  0
    8.6405   -0.3003   21.2673 C   0  0  0  0  0  0  0  0  0  0  0  0
    9.0353    0.5462   20.7090 H   0  0  0  0  0  0  0  0  0  0  0  0
    9.3531   -0.9032   22.2546 C   0  0  0  0  0  0  0  0  0  0  0  0
   10.7240   -0.4687   22.5831 C   0  0  0  0  0  0  0  0  0  0  0  0
   11.8081   -1.3022   22.3513 C   0  0  0  0  0  0  0  0  0  0  0  0
   11.6260   -2.3167   21.9971 H   0  0  0  0  0  0  0  0  0  0  0  0
   13.1097   -0.9659   22.5651 N   0  0  0  0  0  0  0  0  0  0  0  0
   13.3550    0.2236   23.0657 C   0  0  0  0  0  0  0  0  0  0  0  0
   14.4021    0.4559   23.2734 H   0  0  0  0  0  0  0  0  0  0  0  0
   12.3454    1.1910   23.3600 C   0  0  0  0  0  0  0  0  0  0  0  0
   12.6608    2.4848   23.8567 C   0  0  0  0  0  0  0  0  0  0  0  0
   13.7138    2.7269   23.9735 H   0  0  0  0  0  0  0  0  0  0  0  0
   11.6641    3.3853   24.1520 C   0  0  0  0  0  0  0  0  0  0  0  0
   11.9097    4.3651   24.5502 H   0  0  0  0  0  0  0  0  0  0  0  0
   10.3015    3.0428   23.9458 C   0  0  0  0  0  0  0  0  0  0  0  0
    9.5188    3.7647   24.1723 H   0  0  0  0  0  0  0  0  0  0  0  0
    9.9700    1.7997   23.4457 C   0  0  0  0  0  0  0  0  0  0  0  0
    8.9271    1.5294   23.2945 H   0  0  0  0  0  0  0  0  0  0  0  0
   10.9839    0.8410   23.1208 C   0  0  0  0  0  0  0  0  0  0  0  0
    8.7273   -2.0215   22.9960 C   0  0  0  0  0  0  0  0  0  0  0  0
    9.1774   -2.6916   23.9006 O   0  0  0  0  0  0  0  0  0  0  0  0
    7.4586   -2.3101   22.5858 N   0  0  0  0  0  0  0  0  0  0  0  0
    7.0145   -3.0623   23.0657 H   0  0  0  0  0  0  0  0  0  0  0  0
    6.7207   -1.7491   21.6069 C   0  0  0  0  0  0  0  0  0  0  0  0
    5.6238   -2.1980   21.3658 O   0  0  0  0  0  0  0  0  0  0  0  0
    5.4409    0.6546   20.1481 C   0  0  0  0  0  0  0  0  0  0  0  0
    5.0175    0.6101   21.1508 H   0  0  0  0  0  0  0  0  0  0  0  0
    4.8073    1.3191   19.0942 C   0  0  0  0  0  0  0  0  0  0  0  0
    3.8738    1.8433   19.2477 H   0  0  0  0  0  0  0  0  0  0  0  0
  1  2  1  0
  2  3  2  0
  3  4  1  0
  4  5  1  0
  4  6  2  0
  6  7  1  0
  7  8  1  0
  8  9  1  0
  8 10  2  0
 10 11  1  0
 11 12  2  0
 12 13  1  0
 12 14  1  0
 14 15  2  0
 15 16  1  0
 15 17  1  0
 17 18  2  0
 18 19  1  0
 18 20  1  0
 20 21  1  0
 20 22  2  0
 22 23  1  0
 22 24  1  0
 24 25  1  0
 24 26  2  0
 10 27  1  0
 27 28  2  0
 27 29  1  0
 29 30  1  0
 29 31  1  0
 31 32  2  0
  6 33  1  0
 33 34  1  0
 33 35  2  0
 35 36  1  0
 35  2  1  0
 31  7  1  0
 26 11  1  0
 26 17  1  0
M  END
>  <cnnaffinity>  (1) 
-5.47427

>  <filename>  (1) 
O=c1[nH]c(=O)n(-c2cccnc2)cc1-c1cncc2ccccc12

$$$$
