
     RDKit          3D

 35 38  0  0  0  0  0  0  0  0999 V2000
    4.9485    1.8027   16.9725 H   0  0  0  0  0  0  0  0  0  0  0  0
    5.4163    1.3084   17.8216 C   0  0  0  0  0  0  0  0  0  0  0  0
    6.5789    0.6848   17.5768 N   0  0  0  0  0  0  0  0  0  0  0  0
    7.1806    0.0659   18.5982 C   0  0  0  0  0  0  0  0  0  0  0  0
    8.1211   -0.4240   18.3491 H   0  0  0  0  0  0  0  0  0  0  0  0
    6.6500    0.0038   19.9010 C   0  0  0  0  0  0  0  0  0  0  0  0
    7.3170   -0.7572   20.9723 C   0  0  0  0  0  0  0  0  0  0  0  0
    6.6720   -1.5391   21.8925 C   0  0  0  0  0  0  0  0  0  0  0  0
    5.6094   -1.7232   21.8336 H   0  0  0  0  0  0  0  0  0  0  0  0
    7.4456   -2.1855   22.9002 C   0  0  0  0  0  0  0  0  0  0  0  0
    6.7939   -3.0321   23.9205 C   0  0  0  0  0  0  0  0  0  0  0  0
    7.1660   -4.3522   23.9419 C   0  0  0  0  0  0  0  0  0  0  0  0
    7.9944   -4.6995   23.3283 H   0  0  0  0  0  0  0  0  0  0  0  0
    6.5337   -5.3115   24.6616 N   0  0  0  0  0  0  0  0  0  0  0  0
    5.5345   -4.9414   25.4358 C   0  0  0  0  0  0  0  0  0  0  0  0
    5.0460   -5.7302   26.0109 H   0  0  0  0  0  0  0  0  0  0  0  0
    5.0615   -3.5969   25.5478 C   0  0  0  0  0  0  0  0  0  0  0  0
    3.9204   -3.2309   26.3320 C   0  0  0  0  0  0  0  0  0  0  0  0
    3.3577   -4.0035   26.8544 H   0  0  0  0  0  0  0  0  0  0  0  0
    3.4771   -1.9283   26.3440 C   0  0  0  0  0  0  0  0  0  0  0  0
    2.5668   -1.6632   26.8789 H   0  0  0  0  0  0  0  0  0  0  0  0
    4.2045   -0.9141   25.6635 C   0  0  0  0  0  0  0  0  0  0  0  0
    3.8286    0.1077   25.6688 H   0  0  0  0  0  0  0  0  0  0  0  0
    5.3672   -1.2275   24.9900 C   0  0  0  0  0  0  0  0  0  0  0  0
    5.9362   -0.4483   24.4880 H   0  0  0  0  0  0  0  0  0  0  0  0
    5.7567   -2.5921   24.8086 C   0  0  0  0  0  0  0  0  0  0  0  0
    8.7536   -2.1596   22.9366 N   0  0  0  0  0  0  0  0  0  0  0  0
    9.4029   -1.3082   22.0916 C   0  0  0  0  0  0  0  0  0  0  0  0
   10.5843   -1.0363   22.1344 O   0  0  0  0  0  0  0  0  0  0  0  0
    8.6685   -0.7088   21.0673 N   0  0  0  0  0  0  0  0  0  0  0  0
    9.2648   -0.0423   20.6158 H   0  0  0  0  0  0  0  0  0  0  0  0
    5.4315    0.6672   20.1361 C   0  0  0  0  0  0  0  0  0  0  0  0
    5.0014    0.6694   21.1398 H   0  0  0  0  0  0  0  0  0  0  0  0
    4.8074    1.3308   19.0801 C   0  0  0  0  0  0  0  0  0  0  0  0
    3.8670    1.8540   19.2140 H   0  0  0  0  0  0  0  0  0  0  0  0
  1  2  1  0
  2  3  2  0
  3  4  1  0
  4  5  1  0
  4  6  2  0
  6  7  1  0
  7  8  2  0
  8  9  1  0
  8 10  1  0
 10 11  1  0
 11 12  2  0
 12 13  1  0
 12 14  1  0
 14 15  2  0
 15 16  1  0
 15 17  1  0
 17 18  2  0
 18 19  1  0
 18 20  1  0
 20 21  1  0
 20 22  2  0
 22 23  1  0
 22 24  1  0
 24 25  1  0
 24 26  2  0
 10 27  2  0
 27 28  1  0
 28 29  2  0
 28 30  1  0
 30 31  1  0
  6 32  1  0
 32 33  1  0
 32 34  2  0
 34 35  1  0
 34  2  1  0
 30  7  1  0
 26 11  1  0
 26 17  1  0
M  END
>  <cnnaffinity>  (1) 
-5.52063

>  <filename>  (1) 
O=c1nc(-c2cncc3ccccc23)cc(-c2cccnc2)[nH]1

$$$$
