
     RDKit          3D

 42 45  0  0  0  0  0  0  0  0999 V2000
    4.9692    1.9104   16.9472 H   0  0  0  0  0  0  0  0  0  0  0  0
    5.4341    1.3700   17.7691 C   0  0  0  0  0  0  0  0  0  0  0  0
    6.5994    0.7580   17.4940 N   0  0  0  0  0  0  0  0  0  0  0  0
    7.1961    0.0878   18.4899 C   0  0  0  0  0  0  0  0  0  0  0  0
    8.1404   -0.3971   18.2390 H   0  0  0  0  0  0  0  0  0  0  0  0
    6.6655   -0.0337   19.7921 C   0  0  0  0  0  0  0  0  0  0  0  0
    7.3791   -0.7110   20.8491 N   0  0  0  0  0  0  0  0  0  0  0  0
    6.8030   -1.8337   21.4547 C   0  0  0  0  0  0  0  0  0  0  0  0
    5.6678   -2.1963   21.2083 O   0  0  0  0  0  0  0  0  0  0  0  0
    7.6474   -2.5363   22.3532 N   0  0  0  0  0  0  0  0  0  0  0  0
    7.0924   -3.2484   23.4760 C   0  0  0  0  0  0  0  0  0  0  0  0
    7.2603   -2.7418   24.7509 C   0  0  0  0  0  0  0  0  0  0  0  0
    7.7550   -1.7784   24.8739 H   0  0  0  0  0  0  0  0  0  0  0  0
    6.8507   -3.3476   25.8990 N   0  0  0  0  0  0  0  0  0  0  0  0
    6.2446   -4.5106   25.7930 C   0  0  0  0  0  0  0  0  0  0  0  0
    5.9384   -5.0042   26.7172 H   0  0  0  0  0  0  0  0  0  0  0  0
    5.9812   -5.1639   24.5458 C   0  0  0  0  0  0  0  0  0  0  0  0
    5.2463   -6.3868   24.4625 C   0  0  0  0  0  0  0  0  0  0  0  0
    4.8412   -6.8260   25.3722 H   0  0  0  0  0  0  0  0  0  0  0  0
    5.0705   -7.0102   23.2505 C   0  0  0  0  0  0  0  0  0  0  0  0
    4.4623   -7.9094   23.1927 H   0  0  0  0  0  0  0  0  0  0  0  0
    5.6614   -6.4668   22.0760 C   0  0  0  0  0  0  0  0  0  0  0  0
    5.5617   -6.9879   21.1296 H   0  0  0  0  0  0  0  0  0  0  0  0
    6.3358   -5.2646   22.1170 C   0  0  0  0  0  0  0  0  0  0  0  0
    6.7440   -4.8340   21.2064 H   0  0  0  0  0  0  0  0  0  0  0  0
    6.4734   -4.5495   23.3512 C   0  0  0  0  0  0  0  0  0  0  0  0
    8.9940   -2.9719   21.9355 C   0  0  0  0  0  0  0  0  0  0  0  0
    9.2534   -3.8440   22.5471 H   0  0  0  0  0  0  0  0  0  0  0  0
    8.9754   -3.3144   20.8912 H   0  0  0  0  0  0  0  0  0  0  0  0
   10.0707   -1.9034   22.1056 C   0  0  0  0  0  0  0  0  0  0  0  0
   10.1537   -1.6643   23.1744 H   0  0  0  0  0  0  0  0  0  0  0  0
   11.0325   -2.3442   21.8070 H   0  0  0  0  0  0  0  0  0  0  0  0
    9.8397   -0.6308   21.2876 C   0  0  0  0  0  0  0  0  0  0  0  0
    9.9344   -0.8433   20.2153 H   0  0  0  0  0  0  0  0  0  0  0  0
   10.6287    0.0904   21.5378 H   0  0  0  0  0  0  0  0  0  0  0  0
    8.4768    0.0317   21.4976 C   0  0  0  0  0  0  0  0  0  0  0  0
    8.2697    0.1465   22.5721 H   0  0  0  0  0  0  0  0  0  0  0  0
    8.4933    1.0401   21.0720 H   0  0  0  0  0  0  0  0  0  0  0  0
    5.4462    0.6039   20.0572 C   0  0  0  0  0  0  0  0  0  0  0  0
    5.0094    0.5248   21.0510 H   0  0  0  0  0  0  0  0  0  0  0  0
    4.8273    1.3248   19.0289 C   0  0  0  0  0  0  0  0  0  0  0  0
    3.8913    1.8492   19.1917 H   0  0  0  0  0  0  0  0  0  0  0  0
  1  2  1  0
  2  3  2  0
  3  4  1  0
  4  5  1  0
  4  6  2  0
  6  7  1  0
  7  8  1  0
  8  9  2  0
  8 10  1  0
 10 11  1  0
 11 12  2  0
 12 13  1  0
 12 14  1  0
 14 15  2  0
 15 16  1  0
 15 17  1  0
 17 18  2  0
 18 19  1  0
 18 20  1  0
 20 21  1  0
 20 22  2  0
 22 23  1  0
 22 24  1  0
 24 25  1  0
 24 26  2  0
 10 27  1  0
 27 28  1  0
 27 29  1  0
 27 30  1  0
 30 31  1  0
 30 32  1  0
 30 33  1  0
 33 34  1  0
 33 35  1  0
 33 36  1  0
 36 37  1  0
 36 38  1  0
  6 39  1  0
 39 40  1  0
 39 41  2  0
 41 42  1  0
 41  2  1  0
 36  7  1  0
 26 11  1  0
 26 17  1  0
M  END
>  <cnnaffinity>  (1) 
-5.56845

>  <filename>  (1) 
O=C1N(c2cccnc2)CCCCN1c1cncc2ccccc12

$$$$
