
     RDKit          3D

 33 35  0  0  0  0  0  0  0  0999 V2000
    7.9481    0.9056   28.6453 H   0  0  0  0  0  0  0  0  0  0  0  0
    8.2687    0.2358   28.0313 O   0  0  0  0  0  0  0  0  0  0  0  0
    7.3605    0.1248   26.9479 C   0  0  2  0  0  0  0  0  0  0  0  0
    6.4540   -0.4282   27.2533 H   0  0  0  0  0  0  0  0  0  0  0  0
    8.0502   -0.6339   25.8209 C   0  0  0  0  0  0  0  0  0  0  0  0
    9.1351   -0.4546   25.8704 H   0  0  0  0  0  0  0  0  0  0  0  0
    7.8728   -1.7126   25.9216 H   0  0  0  0  0  0  0  0  0  0  0  0
    7.4646   -0.0870   24.6001 N   0  0  0  0  0  0  0  0  0  0  0  0
    7.7330   -0.6453   23.4046 C   0  0  0  0  0  0  0  0  0  0  0  0
    7.1044   -0.0343   22.3550 O   0  0  0  0  0  0  0  0  0  0  0  0
    7.3609   -0.4734   21.0842 C   0  0  0  0  0  0  0  0  0  0  0  0
    6.5942    0.2057   20.0245 C   0  0  0  0  0  0  0  0  0  0  0  0
    7.1257    0.1729   18.7233 C   0  0  0  0  0  0  0  0  0  0  0  0
    8.0822   -0.3091   18.5389 H   0  0  0  0  0  0  0  0  0  0  0  0
    6.5532    0.7221   17.6497 N   0  0  0  0  0  0  0  0  0  0  0  0
    5.3730    1.3313   17.8385 C   0  0  0  0  0  0  0  0  0  0  0  0
    4.9099    1.7649   16.9539 H   0  0  0  0  0  0  0  0  0  0  0  0
    4.7348    1.4006   19.0832 C   0  0  0  0  0  0  0  0  0  0  0  0
    3.7702    1.8914   19.1550 H   0  0  0  0  0  0  0  0  0  0  0  0
    5.3494    0.8384   20.2043 C   0  0  0  0  0  0  0  0  0  0  0  0
    4.8785    0.8922   21.1887 H   0  0  0  0  0  0  0  0  0  0  0  0
    8.1891   -1.5058   20.8654 C   0  0  0  0  0  0  0  0  0  0  0  0
    8.4926   -1.8297   19.8902 H   0  0  0  0  0  0  0  0  0  0  0  0
    8.6432   -2.3368   21.9719 C   0  0  0  0  0  0  0  0  0  0  0  0
    9.0553   -3.4734   21.7904 O   0  0  0  0  0  0  0  0  0  0  0  0
    8.5170   -1.7384   23.2602 C   0  0  0  0  0  0  0  0  0  0  0  0
    8.9822   -2.2321   24.0997 H   0  0  0  0  0  0  0  0  0  0  0  0
    6.6963    1.1363   24.8149 C   0  0  0  0  0  0  0  0  0  0  0  0
    5.6340    0.9505   24.5890 H   0  0  0  0  0  0  0  0  0  0  0  0
    7.0469    1.9426   24.1546 H   0  0  0  0  0  0  0  0  0  0  0  0
    6.9695    1.4581   26.2931 C   0  0  0  0  0  0  0  0  0  0  0  0
    6.1068    1.9210   26.7781 H   0  0  0  0  0  0  0  0  0  0  0  0
    7.8197    2.1498   26.3722 H   0  0  0  0  0  0  0  0  0  0  0  0
  1  2  1  0
  2  3  1  0
  3  4  1  1
  3  5  1  0
  5  6  1  0
  5  7  1  0
  5  8  1  0
  8  9  1  0
  9 10  1  0
 10 11  1  0
 11 12  1  0
 12 13  2  0
 13 14  1  0
 13 15  1  0
 15 16  2  0
 16 17  1  0
 16 18  1  0
 18 19  1  0
 18 20  2  0
 20 21  1  0
 11 22  2  0
 22 23  1  0
 22 24  1  0
 24 25  2  0
 24 26  1  0
 26 27  1  0
  8 28  1  0
 28 29  1  0
 28 30  1  0
 28 31  1  0
 31 32  1  0
 31 33  1  0
 31  3  1  0
 26  9  2  0
 20 12  1  0
M  END
>  <cnnaffinity>  (1) 
-4.72813

>  <filename>  (1) 
O=c1cc(-c2cccnc2)oc(N2CC[C@H](O)C2)c1

$$$$
