
     RDKit          3D

 38 40  0  0  0  0  0  0  0  0999 V2000
    4.9220    1.8085   16.9621 H   0  0  0  0  0  0  0  0  0  0  0  0
    5.3917    1.3077   17.8087 C   0  0  0  0  0  0  0  0  0  0  0  0
    6.5552    0.6871   17.5540 N   0  0  0  0  0  0  0  0  0  0  0  0
    7.1696    0.0747   18.5738 C   0  0  0  0  0  0  0  0  0  0  0  0
    8.1044   -0.4202   18.3166 H   0  0  0  0  0  0  0  0  0  0  0  0
    6.6680    0.0277   19.8874 C   0  0  0  0  0  0  0  0  0  0  0  0
    7.3496   -0.6890   20.9609 C   0  0  0  0  0  0  0  0  0  0  0  0
    6.8263   -1.2285   22.0847 C   0  0  0  0  0  0  0  0  0  0  0  0
    5.8109   -1.3041   22.4046 H   0  0  0  0  0  0  0  0  0  0  0  0
    7.8392   -1.8146   22.8126 N   0  0  0  0  0  0  0  0  0  0  0  0
    7.7140   -2.4073   24.1275 C   0  0  0  0  0  0  0  0  0  0  0  0
    6.6616   -2.7012   24.2442 H   0  0  0  0  0  0  0  0  0  0  0  0
    8.3280   -3.3156   24.1403 H   0  0  0  0  0  0  0  0  0  0  0  0
    8.1530   -1.4678   25.2711 C   0  0  0  0  0  0  0  0  0  0  0  0
    9.1850   -1.1836   25.0265 H   0  0  0  0  0  0  0  0  0  0  0  0
    7.3051   -0.1708   25.3706 C   0  0  0  0  0  0  0  0  0  0  0  0
    7.8347    0.5262   26.0376 H   0  0  0  0  0  0  0  0  0  0  0  0
    7.2571    0.3161   24.3840 H   0  0  0  0  0  0  0  0  0  0  0  0
    5.8831   -0.4090   25.9271 C   0  0  0  0  0  0  0  0  0  0  0  0
    5.3564    0.5457   26.0289 H   0  0  0  0  0  0  0  0  0  0  0  0
    5.2965   -0.9871   25.1964 H   0  0  0  0  0  0  0  0  0  0  0  0
    5.9131   -1.1806   27.2615 C   0  0  0  0  0  0  0  0  0  0  0  0
    4.8988   -1.3520   27.6465 H   0  0  0  0  0  0  0  0  0  0  0  0
    6.4280   -0.5701   28.0213 H   0  0  0  0  0  0  0  0  0  0  0  0
    6.6614   -2.5099   27.0411 C   0  0  0  0  0  0  0  0  0  0  0  0
    6.5733   -3.2137   27.8769 H   0  0  0  0  0  0  0  0  0  0  0  0
    6.1585   -3.0443   26.2250 H   0  0  0  0  0  0  0  0  0  0  0  0
    8.1215   -2.2356   26.6136 C   0  0  0  0  0  0  0  0  0  0  0  0
    8.6966   -3.1674   26.5240 H   0  0  0  0  0  0  0  0  0  0  0  0
    8.6377   -1.6270   27.3707 H   0  0  0  0  0  0  0  0  0  0  0  0
    9.0436   -1.6290   22.1652 C   0  0  0  0  0  0  0  0  0  0  0  0
   10.1600   -1.9557   22.5227 O   0  0  0  0  0  0  0  0  0  0  0  0
    8.7081   -0.9813   20.9977 N   0  0  0  0  0  0  0  0  0  0  0  0
    9.4657   -0.6758   20.4173 H   0  0  0  0  0  0  0  0  0  0  0  0
    5.4411    0.6732   20.1264 C   0  0  0  0  0  0  0  0  0  0  0  0
    5.0088    0.6699   21.1280 H   0  0  0  0  0  0  0  0  0  0  0  0
    4.7966    1.3249   19.0757 C   0  0  0  0  0  0  0  0  0  0  0  0
    3.8607    1.8537   19.2202 H   0  0  0  0  0  0  0  0  0  0  0  0
  1  2  1  0
  2  3  2  0
  3  4  1  0
  4  5  1  0
  4  6  2  0
  6  7  1  0
  7  8  2  0
  8  9  1  0
  8 10  1  0
 10 11  1  0
 11 12  1  0
 11 13  1  0
 11 14  1  0
 14 15  1  0
 14 16  1  0
 16 17  1  0
 16 18  1  0
 16 19  1  0
 19 20  1  0
 19 21  1  0
 19 22  1  0
 22 23  1  0
 22 24  1  0
 22 25  1  0
 25 26  1  0
 25 27  1  0
 25 28  1  0
 28 29  1  0
 28 30  1  0
 10 31  1  0
 31 32  2  0
 31 33  1  0
 33 34  1  0
  6 35  1  0
 35 36  1  0
 35 37  2  0
 37 38  1  0
 37  2  1  0
 33  7  1  0
 28 14  1  0
M  END
>  <cnnaffinity>  (1) 
-5.46866

>  <filename>  (1) 
O=c1[nH]c(-c2cccnc2)cn1CC1CCCCC1

$$$$
