
     RDKit          3D

 35 38  0  0  0  0  0  0  0  0999 V2000
    5.6854    2.0138   16.5113 H   0  0  0  0  0  0  0  0  0  0  0  0
    5.9903    1.4894   17.4152 C   0  0  0  0  0  0  0  0  0  0  0  0
    7.2302    0.9762   17.4007 N   0  0  0  0  0  0  0  0  0  0  0  0
    7.6460    0.3421   18.4998 C   0  0  0  0  0  0  0  0  0  0  0  0
    8.6584   -0.0538   18.4895 H   0  0  0  0  0  0  0  0  0  0  0  0
    6.8522    0.1573   19.6455 C   0  0  0  0  0  0  0  0  0  0  0  0
    7.3936   -0.6292   20.7750 C   0  0  0  0  0  0  0  0  0  0  0  0
    8.7399   -0.4265   20.9640 O   0  0  0  0  0  0  0  0  0  0  0  0
    9.3975   -1.1442   21.9154 C   0  0  0  0  0  0  0  0  0  0  0  0
   10.8216   -0.7953   22.0493 C   0  0  0  0  0  0  0  0  0  0  0  0
   11.7540   -1.8310   22.1239 C   0  0  0  0  0  0  0  0  0  0  0  0
   11.4285   -2.8642   22.1072 H   0  0  0  0  0  0  0  0  0  0  0  0
   13.0932   -1.6315   22.2396 N   0  0  0  0  0  0  0  0  0  0  0  0
   13.5324   -0.4049   22.3563 C   0  0  0  0  0  0  0  0  0  0  0  0
   14.6135   -0.2801   22.4635 H   0  0  0  0  0  0  0  0  0  0  0  0
   12.6649    0.7692   22.3665 C   0  0  0  0  0  0  0  0  0  0  0  0
   13.2117    2.0555   22.5451 C   0  0  0  0  0  0  0  0  0  0  0  0
   14.2735    2.2303   22.6440 H   0  0  0  0  0  0  0  0  0  0  0  0
   10.9053    3.0057   22.6164 C   0  0  0  0  0  0  0  0  0  0  0  0
   12.2001    3.0653   22.5235 H   0  0  0  0  0  0  0  0  0  0  0  0
   10.5707    2.8250   22.6551 C   0  0  0  0  0  0  0  0  0  0  0  0
   10.5543    3.1420   23.7754 H   0  0  0  0  0  0  0  0  0  0  0  0
   10.4233    1.7510   21.9300 C   0  0  0  0  0  0  0  0  0  0  0  0
    9.4035    1.6384   22.1627 H   0  0  0  0  0  0  0  0  0  0  0  0
   11.2792    0.5275   22.1700 C   0  0  0  0  0  0  0  0  0  0  0  0
    8.7864   -2.0907   22.6559 C   0  0  0  0  0  0  0  0  0  0  0  0
    9.3156   -2.6515   23.4122 H   0  0  0  0  0  0  0  0  0  0  0  0
    7.3530   -2.3290   22.5302 C   0  0  0  0  0  0  0  0  0  0  0  0
    6.7534   -3.1550   23.2007 O   0  0  0  0  0  0  0  0  0  0  0  0
    6.6946   -1.5024   21.5207 C   0  0  0  0  0  0  0  0  0  0  0  0
    5.6336   -1.6420   21.3940 H   0  0  0  0  0  0  0  0  0  0  0  0
    5.5536    0.6888   19.6399 C   0  0  0  0  0  0  0  0  0  0  0  0
    4.9052    0.5975   20.5123 H   0  0  0  0  0  0  0  0  0  0  0  0
    5.1196    1.3712   18.5029 C   0  0  0  0  0  0  0  0  0  0  0  0
    4.1322    1.8172   18.4431 H   0  0  0  0  0  0  0  0  0  0  0  0
  1  2  1  0
  2  3  2  0
  3  4  1  0
  4  5  1  0
  4  6  2  0
  6  7  1  0
  7  8  1  0
  8  9  1  0
  9 10  1  0
 10 11  2  0
 11 12  1  0
 11 13  1  0
 13 14  2  0
 14 15  1  0
 14 16  1  0
 16 17  2  0
 17 18  1  0
 17 19  1  0
 19 20  1  0
 19 21  2  0
 21 22  1  0
 21 23  1  0
 23 24  1  0
 23 25  2  0
  9 26  2  0
 26 27  1  0
 26 28  1  0
 28 29  2  0
 28 30  1  0
 30 31  1  0
  6 32  1  0
 32 33  1  0
 32 34  2  0
 34 35  1  0
 34  2  1  0
 30  7  2  0
 25 10  1  0
 25 16  1  0
M  END
>  <cnnaffinity>  (1) 
-6.024

>  <filename>  (1) 
O=c1cc(-c2cccnc2)oc(-c2cncc3ccccc23)c1

$$$$
