
     RDKit          3D

 32 34  0  0  0  0  0  0  0  0999 V2000
    5.1209    2.0039   16.7762 H   0  0  0  0  0  0  0  0  0  0  0  0
    5.5220    1.4488   17.6225 C   0  0  0  0  0  0  0  0  0  0  0  0
    6.7560    0.9342   17.4631 N   0  0  0  0  0  0  0  0  0  0  0  0
    7.2811    0.2651   18.4967 C   0  0  0  0  0  0  0  0  0  0  0  0
    8.2962   -0.1168   18.3923 H   0  0  0  0  0  0  0  0  0  0  0  0
    6.5788    0.0150   19.6921 C   0  0  0  0  0  0  0  0  0  0  0  0
    7.2170   -0.7250   20.7377 N   0  0  0  0  0  0  0  0  0  0  0  0
    8.5214   -0.3482   20.9670 N   0  0  0  0  0  0  0  0  0  0  0  0
    9.1140   -0.7961   22.0566 C   0  0  0  0  0  0  0  0  0  0  0  0
   10.3639   -0.3354   22.3318 N   0  0  0  0  0  0  0  0  0  0  0  0
   11.2777   -0.8920   23.3116 C   0  0  0  0  0  0  0  0  0  0  0  0
   10.9058   -0.7167   24.3318 H   0  0  0  0  0  0  0  0  0  0  0  0
   11.4079   -1.9761   23.1443 H   0  0  0  0  0  0  0  0  0  0  0  0
   12.5937   -0.1207   23.0651 C   0  0  0  0  0  0  0  0  0  0  0  0
   13.2675   -0.7162   22.4333 H   0  0  0  0  0  0  0  0  0  0  0  0
   13.1202    0.1062   23.9927 H   0  0  0  0  0  0  0  0  0  0  0  0
   12.1379    1.1276   22.3037 C   0  0  0  0  0  0  0  0  0  0  0  0
   11.6907    1.8699   22.9788 H   0  0  0  0  0  0  0  0  0  0  0  0
   12.9231    1.6188   21.7290 H   0  0  0  0  0  0  0  0  0  0  0  0
   11.0789    0.5195   21.4057 C   0  0  0  0  0  0  0  0  0  0  0  0
   11.5668   -0.1112   20.6465 H   0  0  0  0  0  0  0  0  0  0  0  0
   10.4089    1.2169   20.9048 H   0  0  0  0  0  0  0  0  0  0  0  0
    8.4691   -1.7502   22.9410 C   0  0  0  0  0  0  0  0  0  0  0  0
    8.9728   -2.0253   23.8647 H   0  0  0  0  0  0  0  0  0  0  0  0
    7.2666   -2.2647   22.5907 C   0  0  0  0  0  0  0  0  0  0  0  0
    6.7626   -3.0510   23.1399 H   0  0  0  0  0  0  0  0  0  0  0  0
    6.5440   -1.8168   21.3971 C   0  0  0  0  0  0  0  0  0  0  0  0
    5.5079   -2.3191   20.9963 O   0  0  0  0  0  0  0  0  0  0  0  0
    5.2893    0.5403   19.8475 C   0  0  0  0  0  0  0  0  0  0  0  0
    4.7269    0.3767   20.7688 H   0  0  0  0  0  0  0  0  0  0  0  0
    4.7651    1.2951   18.7906 C   0  0  0  0  0  0  0  0  0  0  0  0
    3.7924    1.7759   18.8676 H   0  0  0  0  0  0  0  0  0  0  0  0
  1  2  1  0
  2  3  2  0
  3  4  1  0
  4  5  1  0
  4  6  2  0
  6  7  1  0
  7  8  1  0
  8  9  2  0
  9 10  1  0
 10 11  1  0
 11 12  1  0
 11 13  1  0
 11 14  1  0
 14 15  1  0
 14 16  1  0
 14 17  1  0
 17 18  1  0
 17 19  1  0
 17 20  1  0
 20 21  1  0
 20 22  1  0
  9 23  1  0
 23 24  1  0
 23 25  2  0
 25 26  1  0
 25 27  1  0
 27 28  2  0
  6 29  1  0
 29 30  1  0
 29 31  2  0
 31 32  1  0
 31  2  1  0
 27  7  1  0
 20 10  1  0
M  END
>  <cnnaffinity>  (1) 
-4.51065

>  <filename>  (1) 
O=c1ccc(N2CCCC2)nn1-c1cccnc1

$$$$
