
     RDKit          3D

 31 33  0  0  0  0  0  0  0  0999 V2000
   12.1615    2.3893   21.0858 H   0  0  0  0  0  0  0  0  0  0  0  0
   11.1487    2.2038   21.4344 C   0  0  0  0  0  0  0  0  0  0  0  0
   10.6125    1.0308   21.1035 N   0  0  0  0  0  0  0  0  0  0  0  0
    9.3570    0.8116   21.5080 C   0  0  0  0  0  0  0  0  0  0  0  0
    8.8293   -0.5517   21.1616 C   0  0  1  0  0  0  0  0  0  0  0  0
    9.4962   -0.9559   20.3919 H   0  0  0  0  0  0  0  0  0  0  0  0
    8.9979   -1.3488   22.4320 C   0  0  0  0  0  0  0  0  0  0  0  0
    9.9876   -1.4980   23.0976 O   0  0  0  0  0  0  0  0  0  0  0  0
    7.7815   -1.9014   22.6959 N   0  0  0  0  0  0  0  0  0  0  0  0
    7.6178   -2.5351   23.4500 H   0  0  0  0  0  0  0  0  0  0  0  0
    6.8295   -1.6767   21.7271 C   0  0  0  0  0  0  0  0  0  0  0  0
    5.7582   -2.2221   21.6784 O   0  0  0  0  0  0  0  0  0  0  0  0
    7.4055   -0.7599   20.8385 N   0  0  0  0  0  0  0  0  0  0  0  0
    6.7047   -0.0792   19.8087 C   0  0  0  0  0  0  0  0  0  0  0  0
    7.1928    0.0118   18.4824 C   0  0  0  0  0  0  0  0  0  0  0  0
    8.1182   -0.4946   18.2133 H   0  0  0  0  0  0  0  0  0  0  0  0
    6.5729    0.6831   17.5046 N   0  0  0  0  0  0  0  0  0  0  0  0
    5.4310    1.3168   17.8172 C   0  0  0  0  0  0  0  0  0  0  0  0
    4.9774    1.8960   17.0178 H   0  0  0  0  0  0  0  0  0  0  0  0
    4.8404    1.2597   19.0856 C   0  0  0  0  0  0  0  0  0  0  0  0
    3.9178    1.8004   19.2758 H   0  0  0  0  0  0  0  0  0  0  0  0
    5.4719    0.5255   20.0944 C   0  0  0  0  0  0  0  0  0  0  0  0
    5.0351    0.4067   21.0871 H   0  0  0  0  0  0  0  0  0  0  0  0
    8.6346    1.6097   22.2795 N   0  0  0  0  0  0  0  0  0  0  0  0
    9.1607    2.8099   22.5827 C   0  0  0  0  0  0  0  0  0  0  0  0
    8.3321    3.8309   23.4044 C   0  0  0  0  0  0  0  0  0  0  0  0
    9.1054    4.3673   24.3779 F   0  0  0  0  0  0  0  0  0  0  0  0
    7.9297    4.8553   22.6266 F   0  0  0  0  0  0  0  0  0  0  0  0
    7.2440    3.3215   23.9854 F   0  0  0  0  0  0  0  0  0  0  0  0
   10.4564    3.1446   22.1878 C   0  0  0  0  0  0  0  0  0  0  0  0
   10.8962    4.0960   22.4323 H   0  0  0  0  0  0  0  0  0  0  0  0
  1  2  1  0
  2  3  2  0
  3  4  1  0
  4  5  1  0
  5  6  1  6
  5  7  1  0
  7  8  2  0
  7  9  1  0
  9 10  1  0
  9 11  1  0
 11 12  2  0
 11 13  1  0
 13 14  1  0
 14 15  2  0
 15 16  1  0
 15 17  1  0
 17 18  2  0
 18 19  1  0
 18 20  1  0
 20 21  1  0
 20 22  2  0
 22 23  1  0
  4 24  2  0
 24 25  1  0
 25 26  1  0
 26 27  1  0
 26 28  1  0
 26 29  1  0
 25 30  2  0
 30 31  1  0
 30  2  1  0
 13  5  1  0
 22 14  1  0
M  END
>  <cnnaffinity>  (1) 
-5.10287

>  <filename>  (1) 
O=C1NC(=O)N(c2cccnc2)[C@H]1c1nccc(C(F)(F)F)n1

$$$$
