
     RDKit          3D

 38 40  0  0  0  0  0  0  0  0999 V2000
    4.9257    1.9020   16.8680 H   0  0  0  0  0  0  0  0  0  0  0  0
    5.3686    1.3714   17.7064 C   0  0  0  0  0  0  0  0  0  0  0  0
    6.4914    0.6910   17.4244 N   0  0  0  0  0  0  0  0  0  0  0  0
    7.0597    0.0190   18.4245 C   0  0  0  0  0  0  0  0  0  0  0  0
    7.9880   -0.5055   18.1967 H   0  0  0  0  0  0  0  0  0  0  0  0
    6.5451   -0.0593   19.7368 C   0  0  0  0  0  0  0  0  0  0  0  0
    7.2299   -0.9308   20.7333 C   0  0  0  0  0  0  0  0  0  0  0  0
    8.9654   -1.0741   20.4822 S   0  0  0  0  0  0  0  0  0  0  0  0
    9.5236   -1.8735   21.9156 C   0  0  0  0  0  0  0  0  0  0  0  0
   11.0196   -1.6922   22.1670 C   0  0  0  0  0  0  0  0  0  0  0  0
   11.5599   -1.6220   21.2164 H   0  0  0  0  0  0  0  0  0  0  0  0
   11.4017   -2.5856   22.6814 H   0  0  0  0  0  0  0  0  0  0  0  0
   11.3713   -0.5160   22.9638 N   0  0  0  0  0  0  0  0  0  0  0  0
   11.2400    0.7696   22.2676 C   0  0  0  0  0  0  0  0  0  0  0  0
   10.1770    1.0420   22.0984 H   0  0  0  0  0  0  0  0  0  0  0  0
   11.6885    0.6736   21.2723 H   0  0  0  0  0  0  0  0  0  0  0  0
   11.9549    1.8670   23.0686 C   0  0  0  0  0  0  0  0  0  0  0  0
   13.0365    1.6788   23.0381 H   0  0  0  0  0  0  0  0  0  0  0  0
   11.7948    2.8359   22.5803 H   0  0  0  0  0  0  0  0  0  0  0  0
   11.4732    1.9204   24.5297 C   0  0  0  0  0  0  0  0  0  0  0  0
   10.4579    2.3443   24.5686 H   0  0  0  0  0  0  0  0  0  0  0  0
   12.1094    2.5911   25.1069 H   0  0  0  0  0  0  0  0  0  0  0  0
   11.4497    0.5238   25.1724 C   0  0  0  0  0  0  0  0  0  0  0  0
   10.9466    0.5593   26.1448 H   0  0  0  0  0  0  0  0  0  0  0  0
   12.4624    0.1391   25.3433 H   0  0  0  0  0  0  0  0  0  0  0  0
   10.7028   -0.4477   24.2668 C   0  0  0  0  0  0  0  0  0  0  0  0
    9.6598   -0.0897   24.1673 H   0  0  0  0  0  0  0  0  0  0  0  0
   10.6263   -1.4459   24.7150 H   0  0  0  0  0  0  0  0  0  0  0  0
    8.6847   -2.5211   22.7564 C   0  0  0  0  0  0  0  0  0  0  0  0
    9.0651   -3.0801   23.6041 H   0  0  0  0  0  0  0  0  0  0  0  0
    7.2163   -2.4405   22.7310 C   0  0  0  0  0  0  0  0  0  0  0  0
    6.5543   -3.0275   23.5755 O   0  0  0  0  0  0  0  0  0  0  0  0
    6.5778   -1.6296   21.6884 C   0  0  0  0  0  0  0  0  0  0  0  0
    5.4991   -1.6311   21.7238 H   0  0  0  0  0  0  0  0  0  0  0  0
    5.3839    0.6878   20.0182 C   0  0  0  0  0  0  0  0  0  0  0  0
    4.9676    0.7436   21.0263 H   0  0  0  0  0  0  0  0  0  0  0  0
    4.7863    1.4066   18.9772 C   0  0  0  0  0  0  0  0  0  0  0  0
    3.8864    1.9962   19.1259 H   0  0  0  0  0  0  0  0  0  0  0  0
  1  2  1  0
  2  3  2  0
  3  4  1  0
  4  5  1  0
  4  6  2  0
  6  7  1  0
  7  8  1  0
  8  9  1  0
  9 10  1  0
 10 11  1  0
 10 12  1  0
 10 13  1  0
 13 14  1  0
 14 15  1  0
 14 16  1  0
 14 17  1  0
 17 18  1  0
 17 19  1  0
 17 20  1  0
 20 21  1  0
 20 22  1  0
 20 23  1  0
 23 24  1  0
 23 25  1  0
 23 26  1  0
 26 27  1  0
 26 28  1  0
  9 29  2  0
 29 30  1  0
 29 31  1  0
 31 32  2  0
 31 33  1  0
 33 34  1  0
  6 35  1  0
 35 36  1  0
 35 37  2  0
 37 38  1  0
 37  2  1  0
 33  7  2  0
 26 13  1  0
M  END
>  <cnnaffinity>  (1) 
-4.99708

>  <filename>  (1) 
O=c1cc(CN2CCCCC2)sc(-c2cccnc2)c1

$$$$
