
     RDKit          3D

 39 41  0  0  0  0  0  0  0  0999 V2000
    5.4098    1.7153   16.8670 H   0  0  0  0  0  0  0  0  0  0  0  0
    5.7752    1.2096   17.7610 C   0  0  0  0  0  0  0  0  0  0  0  0
    6.9366    0.5487   17.6356 N   0  0  0  0  0  0  0  0  0  0  0  0
    7.4180   -0.0730   18.7223 C   0  0  0  0  0  0  0  0  0  0  0  0
    8.3718   -0.5853   18.6005 H   0  0  0  0  0  0  0  0  0  0  0  0
    6.7605   -0.1076   19.9640 C   0  0  0  0  0  0  0  0  0  0  0  0
    7.3458   -0.8757   21.0952 C   0  0  0  0  0  0  0  0  0  0  0  0
    8.7223   -0.7707   21.2607 N   0  0  0  0  0  0  0  0  0  0  0  0
    9.2638   -1.3650   22.2932 C   0  0  0  0  0  0  0  0  0  0  0  0
   10.5604   -1.2409   22.5824 O   0  0  0  0  0  0  0  0  0  0  0  0
   11.4590   -0.4916   21.7405 C   0  0  0  0  0  0  0  0  0  0  0  0
   11.3645   -0.8557   20.7127 H   0  0  0  0  0  0  0  0  0  0  0  0
   12.4432   -0.7686   22.1287 H   0  0  0  0  0  0  0  0  0  0  0  0
   11.2638    1.0300   21.7895 C   0  0  0  0  0  0  0  0  0  0  0  0
   10.1892    1.2154   21.7048 H   0  0  0  0  0  0  0  0  0  0  0  0
   11.7077    1.4663   20.8751 H   0  0  0  0  0  0  0  0  0  0  0  0
   11.7830    1.6473   23.0160 N   0  0  0  0  0  0  0  0  0  0  0  0
   13.2609    1.7374   23.0759 C   0  0  0  0  0  0  0  0  0  0  0  0
   13.6210    1.3086   24.0195 H   0  0  0  0  0  0  0  0  0  0  0  0
   13.7206    1.1372   22.2811 H   0  0  0  0  0  0  0  0  0  0  0  0
   13.6476    3.2361   22.9320 C   0  0  0  0  0  0  0  0  0  0  0  0
   14.4290    3.4004   22.1871 H   0  0  0  0  0  0  0  0  0  0  0  0
   14.0368    3.6365   23.8704 H   0  0  0  0  0  0  0  0  0  0  0  0
   12.3270    3.9292   22.5732 C   0  0  0  0  0  0  0  0  0  0  0  0
   12.2485    4.9630   22.9203 H   0  0  0  0  0  0  0  0  0  0  0  0
   12.1831    3.9392   21.4849 H   0  0  0  0  0  0  0  0  0  0  0  0
   11.2989    3.0119   23.2416 C   0  0  0  0  0  0  0  0  0  0  0  0
   10.2724    3.1412   22.8819 H   0  0  0  0  0  0  0  0  0  0  0  0
   11.2733    3.2035   24.3251 H   0  0  0  0  0  0  0  0  0  0  0  0
    8.4979   -2.2481   23.2824 C   0  0  0  0  0  0  0  0  0  0  0  0
    8.8959   -2.8638   24.2548 O   0  0  0  0  0  0  0  0  0  0  0  0
    7.1431   -2.3217   22.9690 N   0  0  0  0  0  0  0  0  0  0  0  0
    6.6391   -2.8605   23.6685 H   0  0  0  0  0  0  0  0  0  0  0  0
    6.5627   -1.6463   21.9049 C   0  0  0  0  0  0  0  0  0  0  0  0
    5.5009   -1.7943   21.7325 H   0  0  0  0  0  0  0  0  0  0  0  0
    5.5461    0.5955   20.0752 C   0  0  0  0  0  0  0  0  0  0  0  0
    5.0070    0.6413   21.0238 H   0  0  0  0  0  0  0  0  0  0  0  0
    5.0555    1.2711   18.9578 C   0  0  0  0  0  0  0  0  0  0  0  0
    4.1433    1.8570   19.0040 H   0  0  0  0  0  0  0  0  0  0  0  0
  1  2  1  0
  2  3  2  0
  3  4  1  0
  4  5  1  0
  4  6  2  0
  6  7  1  0
  7  8  1  0
  8  9  2  0
  9 10  1  0
 10 11  1  0
 11 12  1  0
 11 13  1  0
 11 14  1  0
 14 15  1  0
 14 16  1  0
 14 17  1  0
 17 18  1  0
 18 19  1  0
 18 20  1  0
 18 21  1  0
 21 22  1  0
 21 23  1  0
 21 24  1  0
 24 25  1  0
 24 26  1  0
 24 27  1  0
 27 28  1  0
 27 29  1  0
  9 30  1  0
 30 31  2  0
 30 32  1  0
 32 33  1  0
 32 34  1  0
 34 35  1  0
  6 36  1  0
 36 37  1  0
 36 38  2  0
 38 39  1  0
 38  2  1  0
 34  7  2  0
 27 17  1  0
M  END
>  <cnnaffinity>  (1) 
-4.86004

>  <filename>  (1) 
O=c1[nH]cc(-c2cccnc2)nc1OCCN1CCCC1

$$$$
