
     RDKit          3D

 34 37  0  0  0  0  0  0  0  0999 V2000
    5.2544    2.0060   17.2465 H   0  0  0  0  0  0  0  0  0  0  0  0
    5.5572    1.4512   18.1332 C   0  0  0  0  0  0  0  0  0  0  0  0
    6.6866    0.7270   18.0149 N   0  0  0  0  0  0  0  0  0  0  0  0
    7.0602    0.0069   19.0708 C   0  0  0  0  0  0  0  0  0  0  0  0
    7.9501   -0.6199   18.9694 H   0  0  0  0  0  0  0  0  0  0  0  0
    6.3471   -0.0471   20.3087 C   0  0  0  0  0  0  0  0  0  0  0  0
    6.8001   -0.9234   21.2945 N   0  0  0  0  0  0  0  0  0  0  0  0
    6.8828   -0.6676   22.5510 C   0  0  0  0  0  0  0  0  0  0  0  0
    6.5375    0.5382   23.3314 C   0  0  0  0  0  0  0  0  0  0  0  0
    5.6457    0.5053   24.3865 C   0  0  0  0  0  0  0  0  0  0  0  0
    5.3114   -0.4613   24.7522 H   0  0  0  0  0  0  0  0  0  0  0  0
    5.1683    1.7127   24.9529 C   0  0  0  0  0  0  0  0  0  0  0  0
    4.4083    1.6554   25.7286 H   0  0  0  0  0  0  0  0  0  0  0  0
    5.6188    2.9333   24.4857 C   0  0  0  0  0  0  0  0  0  0  0  0
    5.2433    3.8620   24.9083 H   0  0  0  0  0  0  0  0  0  0  0  0
    6.6204    2.9941   23.4662 C   0  0  0  0  0  0  0  0  0  0  0  0
    7.1043    4.2238   22.9200 C   0  0  0  0  0  0  0  0  0  0  0  0
    6.6205    5.1482   23.2204 H   0  0  0  0  0  0  0  0  0  0  0  0
    8.1241    4.2347   21.9987 C   0  0  0  0  0  0  0  0  0  0  0  0
    8.4537    5.1767   21.5648 H   0  0  0  0  0  0  0  0  0  0  0  0
    8.7343    3.0182   21.5984 C   0  0  0  0  0  0  0  0  0  0  0  0
    9.5819    2.9992   20.9298 H   0  0  0  0  0  0  0  0  0  0  0  0
    8.2605    1.8167   22.0575 C   0  0  0  0  0  0  0  0  0  0  0  0
    8.6977    0.8870   21.7087 H   0  0  0  0  0  0  0  0  0  0  0  0
    7.1494    1.7763   22.9474 C   0  0  0  0  0  0  0  0  0  0  0  0
    7.5452   -1.6549   23.3931 N   0  0  0  0  0  0  0  0  0  0  0  0
    8.5269   -2.0560   22.7512 N   0  0  0  0  0  0  0  0  0  0  0  0
    8.8631   -2.9587   23.1162 H   0  0  0  0  0  0  0  0  0  0  0  0
    6.6364   -3.4082   21.7308 C   0  0  0  0  0  0  0  0  0  0  0  0
    6.5109   -3.7557   21.6494 O   0  0  0  0  0  0  0  0  0  0  0  0
    5.1830    0.7253   20.4141 C   0  0  0  0  0  0  0  0  0  0  0  0
    4.6312    0.7081   21.3601 H   0  0  0  0  0  0  0  0  0  0  0  0
    4.7819    1.4768   19.2988 C   0  0  0  0  0  0  0  0  0  0  0  0
    3.8790    2.0799   19.3211 H   0  0  0  0  0  0  0  0  0  0  0  0
  1  2  1  0
  2  3  2  0
  3  4  1  0
  4  5  1  0
  4  6  2  0
  6  7  1  0
  7  8  1  0
  8  9  1  0
  9 10  2  0
 10 11  1  0
 10 12  1  0
 12 13  1  0
 12 14  2  0
 14 15  1  0
 14 16  1  0
 16 17  2  0
 17 18  1  0
 17 19  1  0
 19 20  1  0
 19 21  2  0
 21 22  1  0
 21 23  1  0
 23 24  1  0
 23 25  2  0
  8 26  2  0
 26 27  1  0
 27 28  1  0
 27 29  1  0
 29 30  2  0
  6 31  1  0
 31 32  1  0
 31 33  2  0
 33 34  1  0
 33  2  1  0
 29  7  1  0
 25  9  1  0
 25 16  1  0
M  END
>  <cnnaffinity>  (1) 
-5.00342

>  <filename>  (1) 
O=c1[nH]nc(-c2cccc3ccccc23)n1-c1cccnc1

$$$$
