
     RDKit          3D

 34 36  0  0  0  0  0  0  0  0999 V2000
    4.9185    1.8066   16.9118 H   0  0  0  0  0  0  0  0  0  0  0  0
    5.3805    1.3460   17.7874 C   0  0  0  0  0  0  0  0  0  0  0  0
    6.5564    0.7242   17.5955 N   0  0  0  0  0  0  0  0  0  0  0  0
    7.1265    0.1465   18.6626 C   0  0  0  0  0  0  0  0  0  0  0  0
    8.0709   -0.3601   18.4661 H   0  0  0  0  0  0  0  0  0  0  0  0
    6.5975    0.1628   19.9746 C   0  0  0  0  0  0  0  0  0  0  0  0
    7.2979   -0.5244   21.1060 C   0  0  0  0  0  0  0  0  0  0  0  0
    7.6936   -1.8839   20.9294 C   0  0  0  0  0  0  0  0  0  0  0  0
    7.3311   -2.3957   20.0418 H   0  0  0  0  0  0  0  0  0  0  0  0
    8.4308   -2.5389   21.8598 C   0  0  0  0  0  0  0  0  0  0  0  0
    8.8052   -3.5394   21.7226 H   0  0  0  0  0  0  0  0  0  0  0  0
    8.7601   -1.9360   23.1401 C   0  0  0  0  0  0  0  0  0  0  0  0
    9.3924   -2.5199   24.0091 O   0  0  0  0  0  0  0  0  0  0  0  0
    8.2667   -0.6073   23.3116 N   0  0  0  0  0  0  0  0  0  0  0  0
    8.2559   -0.0863   24.6928 C   0  0  0  0  0  0  0  0  0  0  0  0
    9.1782   -0.4158   25.1770 H   0  0  0  0  0  0  0  0  0  0  0  0
    8.2842    1.0125   24.6653 H   0  0  0  0  0  0  0  0  0  0  0  0
    7.0395   -0.5607   25.4795 C   0  0  0  0  0  0  0  0  0  0  0  0
    7.1105   -1.6551   26.3581 C   0  0  0  0  0  0  0  0  0  0  0  0
    8.0450   -2.1994   26.4761 H   0  0  0  0  0  0  0  0  0  0  0  0
    5.9862   -2.0670   27.0755 C   0  0  0  0  0  0  0  0  0  0  0  0
    6.0415   -2.9052   27.7628 H   0  0  0  0  0  0  0  0  0  0  0  0
    4.7634   -1.4075   26.9115 C   0  0  0  0  0  0  0  0  0  0  0  0
    3.3975   -1.9419   27.8320 Cl  0  0  0  0  0  0  0  0  0  0  0  0
    4.6706   -0.3334   26.0119 C   0  0  0  0  0  0  0  0  0  0  0  0
    3.1759    0.4975   25.7396 Cl  0  0  0  0  0  0  0  0  0  0  0  0
    5.8049    0.0799   25.3048 C   0  0  0  0  0  0  0  0  0  0  0  0
    5.7080    0.9060   24.6030 H   0  0  0  0  0  0  0  0  0  0  0  0
    7.5746    0.0630   22.3140 C   0  0  0  0  0  0  0  0  0  0  0  0
    7.2486    1.0788   22.5417 H   0  0  0  0  0  0  0  0  0  0  0  0
    5.3642    0.8100   20.1384 C   0  0  0  0  0  0  0  0  0  0  0  0
    4.8915    0.8319   21.1202 H   0  0  0  0  0  0  0  0  0  0  0  0
    4.7435    1.3969   19.0315 C   0  0  0  0  0  0  0  0  0  0  0  0
    3.7828    1.8917   19.1187 H   0  0  0  0  0  0  0  0  0  0  0  0
  1  2  1  0
  2  3  2  0
  3  4  1  0
  4  5  1  0
  4  6  2  0
  6  7  1  0
  7  8  1  0
  8  9  1  0
  8 10  2  0
 10 11  1  0
 10 12  1  0
 12 13  2  0
 12 14  1  0
 14 15  1  0
 15 16  1  0
 15 17  1  0
 15 18  1  0
 18 19  2  0
 19 20  1  0
 19 21  1  0
 21 22  1  0
 21 23  2  0
 23 24  1  0
 23 25  1  0
 25 26  1  0
 25 27  2  0
 27 28  1  0
 14 29  1  0
 29 30  1  0
  6 31  1  0
 31 32  1  0
 31 33  2  0
 33 34  1  0
 33  2  1  0
 29  7  2  0
 27 18  1  0
M  END
>  <cnnaffinity>  (1) 
-5.23687

>  <filename>  (1) 
O=c1ccc(-c2cccnc2)cn1Cc1ccc(Cl)c(Cl)c1

$$$$
