
     RDKit          3D

 38 41  0  0  0  0  0  0  0  0999 V2000
   10.4373   -0.7444   22.2816 H   0  0  0  0  0  0  0  0  0  0  0  0
    9.4256   -1.0724   22.1093 C   0  0  0  0  0  0  0  0  0  0  0  0
    8.8651   -2.1118   22.7628 C   0  0  0  0  0  0  0  0  0  0  0  0
    9.6169   -2.8051   23.8093 C   0  0  0  0  0  0  0  0  0  0  0  0
   10.8831   -3.2650   23.5173 C   0  0  0  0  0  0  0  0  0  0  0  0
   11.3941   -2.9148   22.6220 H   0  0  0  0  0  0  0  0  0  0  0  0
   11.5498   -4.1816   24.2539 N   0  0  0  0  0  0  0  0  0  0  0  0
   10.9795   -4.6082   25.3595 C   0  0  0  0  0  0  0  0  0  0  0  0
   11.5162   -5.3681   25.9103 H   0  0  0  0  0  0  0  0  0  0  0  0
    9.7527   -4.1105   25.8747 C   0  0  0  0  0  0  0  0  0  0  0  0
    9.2014   -4.5544   27.1138 C   0  0  0  0  0  0  0  0  0  0  0  0
    9.6935   -5.3557   27.6675 H   0  0  0  0  0  0  0  0  0  0  0  0
    8.0576   -3.9778   27.6001 C   0  0  0  0  0  0  0  0  0  0  0  0
    7.6480   -4.3373   28.5397 H   0  0  0  0  0  0  0  0  0  0  0  0
    7.4188   -2.9184   26.8963 C   0  0  0  0  0  0  0  0  0  0  0  0
    6.5015   -2.4826   27.2931 H   0  0  0  0  0  0  0  0  0  0  0  0
    7.9347   -2.4901   25.6902 C   0  0  0  0  0  0  0  0  0  0  0  0
    7.5058   -1.6499   25.1529 H   0  0  0  0  0  0  0  0  0  0  0  0
    9.0770   -3.1158   25.1106 C   0  0  0  0  0  0  0  0  0  0  0  0
    7.5416   -2.6541   22.2744 C   0  0  0  0  0  0  0  0  0  0  0  0
    7.7226   -3.3090   21.4132 H   0  0  0  0  0  0  0  0  0  0  0  0
    7.0558   -3.2722   23.0341 H   0  0  0  0  0  0  0  0  0  0  0  0
    6.6592   -1.4941   21.8258 C   0  0  0  0  0  0  0  0  0  0  0  0
    5.7426   -1.8701   21.3523 H   0  0  0  0  0  0  0  0  0  0  0  0
    6.3817   -0.8846   22.7043 H   0  0  0  0  0  0  0  0  0  0  0  0
    7.3891   -0.6759   20.8453 N   0  0  0  0  0  0  0  0  0  0  0  0
    6.6623   -0.0214   19.8092 C   0  0  0  0  0  0  0  0  0  0  0  0
    7.1518    0.0339   18.4832 C   0  0  0  0  0  0  0  0  0  0  0  0
    8.0980   -0.4437   18.2346 H   0  0  0  0  0  0  0  0  0  0  0  0
    6.5279    0.6748   17.4881 N   0  0  0  0  0  0  0  0  0  0  0  0
    5.3814    1.3135   17.7782 C   0  0  0  0  0  0  0  0  0  0  0  0
    4.9088    1.8355   16.9506 H   0  0  0  0  0  0  0  0  0  0  0  0
    4.8029    1.3174   19.0523 C   0  0  0  0  0  0  0  0  0  0  0  0
    3.8754    1.8558   19.2251 H   0  0  0  0  0  0  0  0  0  0  0  0
    5.4531    0.6320   20.0852 C   0  0  0  0  0  0  0  0  0  0  0  0
    5.0634    0.6137   21.1038 H   0  0  0  0  0  0  0  0  0  0  0  0
    8.7221   -0.2858   21.0974 C   0  0  0  0  0  0  0  0  0  0  0  0
    9.2704    0.6230   20.4887 O   0  0  0  0  0  0  0  0  0  0  0  0
  1  2  1  0
  2  3  2  0
  3  4  1  0
  4  5  2  0
  5  6  1  0
  5  7  1  0
  7  8  2  0
  8  9  1  0
  8 10  1  0
 10 11  2  0
 11 12  1  0
 11 13  1  0
 13 14  1  0
 13 15  2  0
 15 16  1  0
 15 17  1  0
 17 18  1  0
 17 19  2  0
  3 20  1  0
 20 21  1  0
 20 22  1  0
 20 23  1  0
 23 24  1  0
 23 25  1  0
 23 26  1  0
 26 27  1  0
 27 28  2  0
 28 29  1  0
 28 30  1  0
 30 31  2  0
 31 32  1  0
 31 33  1  0
 33 34  1  0
 33 35  2  0
 35 36  1  0
 26 37  1  0
 37 38  2  0
 37  2  1  0
 19  4  1  0
 35 27  1  0
 19 10  1  0
M  END
>  <cnnaffinity>  (1) 
-5.80448

>  <filename>  (1) 
O=C1C=C(c2cncc3ccccc23)CCN1c1cccnc1

$$$$
