
     RDKit          3D

 35 38  0  0  0  0  0  0  0  0999 V2000
    4.9613    1.7952   16.9930 H   0  0  0  0  0  0  0  0  0  0  0  0
    5.4215    1.2811   17.8318 C   0  0  0  0  0  0  0  0  0  0  0  0
    6.5748    0.6409   17.5780 N   0  0  0  0  0  0  0  0  0  0  0  0
    7.1718    0.0272   18.6055 C   0  0  0  0  0  0  0  0  0  0  0  0
    8.1073   -0.4863   18.3929 H   0  0  0  0  0  0  0  0  0  0  0  0
    6.6703    0.0273   19.9291 C   0  0  0  0  0  0  0  0  0  0  0  0
    7.3499   -0.6366   20.9743 N   0  0  0  0  0  0  0  0  0  0  0  0
    7.3079   -0.2845   22.3155 C   0  0  0  0  0  0  0  0  0  0  0  0
    6.7554    0.6598   22.8237 O   0  0  0  0  0  0  0  0  0  0  0  0
    8.0569   -1.2385   23.0138 N   0  0  0  0  0  0  0  0  0  0  0  0
    8.4859   -1.0366   24.3681 C   0  0  0  0  0  0  0  0  0  0  0  0
    9.8363   -0.9013   24.6545 C   0  0  0  0  0  0  0  0  0  0  0  0
   10.5718   -1.0364   23.8621 H   0  0  0  0  0  0  0  0  0  0  0  0
   10.3330   -0.5733   25.8750 N   0  0  0  0  0  0  0  0  0  0  0  0
    9.4701   -0.3829   26.8504 C   0  0  0  0  0  0  0  0  0  0  0  0
    9.8714   -0.1438   27.8331 H   0  0  0  0  0  0  0  0  0  0  0  0
    8.0519   -0.4861   26.6997 C   0  0  0  0  0  0  0  0  0  0  0  0
    7.1662   -0.2405   27.7888 C   0  0  0  0  0  0  0  0  0  0  0  0
    7.5805    0.1313   28.7207 H   0  0  0  0  0  0  0  0  0  0  0  0
    5.8183   -0.4571   27.6502 C   0  0  0  0  0  0  0  0  0  0  0  0
    5.1561   -0.2900   28.4919 H   0  0  0  0  0  0  0  0  0  0  0  0
    5.2875   -0.8942   26.4112 C   0  0  0  0  0  0  0  0  0  0  0  0
    4.2227   -1.0846   26.3229 H   0  0  0  0  0  0  0  0  0  0  0  0
    6.1099   -1.0721   25.3193 C   0  0  0  0  0  0  0  0  0  0  0  0
    5.6912   -1.4205   24.3845 H   0  0  0  0  0  0  0  0  0  0  0  0
    7.5267   -0.8625   25.4286 C   0  0  0  0  0  0  0  0  0  0  0  0
    8.4654   -2.2678   22.1812 C   0  0  0  0  0  0  0  0  0  0  0  0
    9.0544   -3.2641   22.5082 O   0  0  0  0  0  0  0  0  0  0  0  0
    8.0136   -1.9102   20.7942 C   0  0  0  0  0  0  0  0  0  0  0  0
    8.8848   -1.8544   20.1331 H   0  0  0  0  0  0  0  0  0  0  0  0
    7.3293   -2.6837   20.4360 H   0  0  0  0  0  0  0  0  0  0  0  0
    5.4620    0.6951   20.1764 C   0  0  0  0  0  0  0  0  0  0  0  0
    5.0680    0.7334   21.1903 H   0  0  0  0  0  0  0  0  0  0  0  0
    4.8255    1.3136   19.0982 C   0  0  0  0  0  0  0  0  0  0  0  0
    3.8838    1.8321   19.2409 H   0  0  0  0  0  0  0  0  0  0  0  0
  1  2  1  0
  2  3  2  0
  3  4  1  0
  4  5  1  0
  4  6  2  0
  6  7  1  0
  7  8  1  0
  8  9  2  0
  8 10  1  0
 10 11  1  0
 11 12  2  0
 12 13  1  0
 12 14  1  0
 14 15  2  0
 15 16  1  0
 15 17  1  0
 17 18  2  0
 18 19  1  0
 18 20  1  0
 20 21  1  0
 20 22  2  0
 22 23  1  0
 22 24  1  0
 24 25  1  0
 24 26  2  0
 10 27  1  0
 27 28  2  0
 27 29  1  0
 29 30  1  0
 29 31  1  0
  6 32  1  0
 32 33  1  0
 32 34  2  0
 34 35  1  0
 34  2  1  0
 29  7  1  0
 26 11  1  0
 26 17  1  0
M  END
>  <cnnaffinity>  (1) 
-4.85321

>  <filename>  (1) 
O=C1CN(c2cccnc2)C(=O)N1c1cncc2ccccc12

$$$$
