
     RDKit          3D

 35 37  0  0  0  0  0  0  0  0999 V2000
    6.5841   -2.8654   23.2863 H   0  0  0  0  0  0  0  0  0  0  0  0
    7.2369   -2.2548   22.6708 C   0  0  0  0  0  0  0  0  0  0  0  0
    8.5594   -2.1343   22.9094 C   0  0  0  0  0  0  0  0  0  0  0  0
    9.2582   -2.9633   23.9499 C   0  0  0  0  0  0  0  0  0  0  0  0
    8.5070   -3.4497   24.9546 N   0  0  0  0  0  0  0  0  0  0  0  0
    9.0757   -4.2313   25.8882 C   0  0  0  0  0  0  0  0  0  0  0  0
    8.1590   -4.7834   27.0056 C   0  0  0  0  0  0  0  0  0  0  0  0
    7.3997   -3.8248   27.5509 F   0  0  0  0  0  0  0  0  0  0  0  0
    7.3207   -5.7363   26.5555 F   0  0  0  0  0  0  0  0  0  0  0  0
    8.8808   -5.3369   28.0066 F   0  0  0  0  0  0  0  0  0  0  0  0
   10.4208   -4.6062   25.8353 C   0  0  0  0  0  0  0  0  0  0  0  0
   10.8460   -5.2421   26.6037 H   0  0  0  0  0  0  0  0  0  0  0  0
   11.1841   -4.1331   24.7737 C   0  0  0  0  0  0  0  0  0  0  0  0
   12.2164   -4.4174   24.6936 H   0  0  0  0  0  0  0  0  0  0  0  0
   10.6188   -3.2929   23.8257 C   0  0  0  0  0  0  0  0  0  0  0  0
   11.2038   -2.8893   23.0064 H   0  0  0  0  0  0  0  0  0  0  0  0
    9.3644   -1.2449   21.9678 C   0  0  0  0  0  0  0  0  0  0  0  0
   10.2277   -0.8095   22.4800 H   0  0  0  0  0  0  0  0  0  0  0  0
    9.7488   -1.8421   21.1281 H   0  0  0  0  0  0  0  0  0  0  0  0
    8.4964   -0.1274   21.3794 C   0  0  0  0  0  0  0  0  0  0  0  0
    9.0436    0.3951   20.5900 H   0  0  0  0  0  0  0  0  0  0  0  0
    8.2562    0.6193   22.1528 H   0  0  0  0  0  0  0  0  0  0  0  0
    7.2703   -0.6830   20.7980 N   0  0  0  0  0  0  0  0  0  0  0  0
    6.6164    0.0368   19.7421 C   0  0  0  0  0  0  0  0  0  0  0  0
    7.1691    0.1292   18.4469 C   0  0  0  0  0  0  0  0  0  0  0  0
    8.1120   -0.3748   18.2332 H   0  0  0  0  0  0  0  0  0  0  0  0
    6.5882    0.7830   17.4309 N   0  0  0  0  0  0  0  0  0  0  0  0
    5.4230    1.4036   17.6787 C   0  0  0  0  0  0  0  0  0  0  0  0
    4.9732    1.9341   16.8430 H   0  0  0  0  0  0  0  0  0  0  0  0
    4.7965    1.3829   18.9302 C   0  0  0  0  0  0  0  0  0  0  0  0
    3.8607    1.9109   19.0720 H   0  0  0  0  0  0  0  0  0  0  0  0
    5.3940    0.6780   19.9776 C   0  0  0  0  0  0  0  0  0  0  0  0
    4.9323    0.6098   20.9622 H   0  0  0  0  0  0  0  0  0  0  0  0
    6.5469   -1.6585   21.5093 C   0  0  0  0  0  0  0  0  0  0  0  0
    5.4439   -2.0444   21.1701 O   0  0  0  0  0  0  0  0  0  0  0  0
  1  2  1  0
  2  3  2  0
  3  4  1  0
  4  5  2  0
  5  6  1  0
  6  7  1  0
  7  8  1  0
  7  9  1  0
  7 10  1  0
  6 11  2  0
 11 12  1  0
 11 13  1  0
 13 14  1  0
 13 15  2  0
 15 16  1  0
  3 17  1  0
 17 18  1  0
 17 19  1  0
 17 20  1  0
 20 21  1  0
 20 22  1  0
 20 23  1  0
 23 24  1  0
 24 25  2  0
 25 26  1  0
 25 27  1  0
 27 28  2  0
 28 29  1  0
 28 30  1  0
 30 31  1  0
 30 32  2  0
 32 33  1  0
 23 34  1  0
 34 35  2  0
 34  2  1  0
 15  4  1  0
 32 24  1  0
M  END
>  <cnnaffinity>  (1) 
-5.44374

>  <filename>  (1) 
O=C1C=C(c2cccc(C(F)(F)F)n2)CCN1c1cccnc1

$$$$
