
     RDKit          3D

 31 33  0  0  0  0  0  0  0  0999 V2000
    5.2768    1.7596   17.0507 H   0  0  0  0  0  0  0  0  0  0  0  0
    5.7305    1.2846   17.9188 C   0  0  0  0  0  0  0  0  0  0  0  0
    6.9113    0.6797   17.7197 N   0  0  0  0  0  0  0  0  0  0  0  0
    7.4906    0.0775   18.7716 C   0  0  0  0  0  0  0  0  0  0  0  0
    8.4401   -0.4183   18.5670 H   0  0  0  0  0  0  0  0  0  0  0  0
    6.9100    0.0307   20.0606 C   0  0  0  0  0  0  0  0  0  0  0  0
    7.4503   -0.7289   21.1564 N   0  0  0  0  0  0  0  0  0  0  0  0
    8.6222   -0.5167   21.9230 C   0  0  0  0  0  0  0  0  0  0  0  0
    9.6153    0.6098   21.7791 C   0  0  0  0  0  0  0  0  0  0  0  0
    9.3617    1.4191   22.4752 H   0  0  0  0  0  0  0  0  0  0  0  0
    9.5164    1.0194   20.7636 H   0  0  0  0  0  0  0  0  0  0  0  0
   11.0421    0.1042   21.9974 C   0  0  0  0  0  0  0  0  0  0  0  0
   11.4439   -0.9800   21.2056 C   0  0  0  0  0  0  0  0  0  0  0  0
   10.6599   -1.4545   20.6247 H   0  0  0  0  0  0  0  0  0  0  0  0
   12.7562   -1.4456   21.1940 C   0  0  0  0  0  0  0  0  0  0  0  0
   13.0498   -2.1809   20.4502 H   0  0  0  0  0  0  0  0  0  0  0  0
   13.6742   -0.9239   22.1124 C   0  0  0  0  0  0  0  0  0  0  0  0
   14.6780   -1.3316   22.1523 H   0  0  0  0  0  0  0  0  0  0  0  0
   13.2868    0.0965   22.9858 C   0  0  0  0  0  0  0  0  0  0  0  0
   13.9798    0.5045   23.7175 H   0  0  0  0  0  0  0  0  0  0  0  0
   11.9920    0.6283   22.8888 C   0  0  0  0  0  0  0  0  0  0  0  0
   11.6092    1.9763   23.9249 Cl  0  0  0  0  0  0  0  0  0  0  0  0
    8.6598   -1.5252   22.8098 C   0  0  0  0  0  0  0  0  0  0  0  0
    9.4113   -1.8348   23.5269 H   0  0  0  0  0  0  0  0  0  0  0  0
    7.5583   -2.3282   22.6727 O   0  0  0  0  0  0  0  0  0  0  0  0
    6.7811   -1.8617   21.6510 C   0  0  0  0  0  0  0  0  0  0  0  0
    5.7621   -2.3893   21.2784 O   0  0  0  0  0  0  0  0  0  0  0  0
    5.6784    0.6720   20.2463 C   0  0  0  0  0  0  0  0  0  0  0  0
    5.2103    0.6375   21.2309 H   0  0  0  0  0  0  0  0  0  0  0  0
    5.0816    1.3124   19.1582 C   0  0  0  0  0  0  0  0  0  0  0  0
    4.1287    1.8206   19.2589 H   0  0  0  0  0  0  0  0  0  0  0  0
  1  2  1  0
  2  3  2  0
  3  4  1  0
  4  5  1  0
  4  6  2  0
  6  7  1  0
  7  8  1  0
  8  9  1  0
  9 10  1  0
  9 11  1  0
  9 12  1  0
 12 13  2  0
 13 14  1  0
 13 15  1  0
 15 16  1  0
 15 17  2  0
 17 18  1  0
 17 19  1  0
 19 20  1  0
 19 21  2  0
 21 22  1  0
  8 23  2  0
 23 24  1  0
 23 25  1  0
 25 26  1  0
 26 27  2  0
  6 28  1  0
 28 29  1  0
 28 30  2  0
 30 31  1  0
 30  2  1  0
 26  7  1  0
 21 12  1  0
M  END
>  <cnnaffinity>  (1) 
-5.79097

>  <filename>  (1) 
O=c1occ(Cc2ccccc2Cl)n1-c1cccnc1

$$$$
