
     RDKit          3D

 28 30  0  0  0  0  0  0  0  0999 V2000
    4.8934    1.7935   17.0189 H   0  0  0  0  0  0  0  0  0  0  0  0
    5.4071    1.2928   17.8343 C   0  0  0  0  0  0  0  0  0  0  0  0
    6.5713    0.6665   17.5833 N   0  0  0  0  0  0  0  0  0  0  0  0
    7.1831    0.0414   18.5999 C   0  0  0  0  0  0  0  0  0  0  0  0
    8.1310   -0.4511   18.4002 H   0  0  0  0  0  0  0  0  0  0  0  0
    6.6606    0.0207   19.8961 C   0  0  0  0  0  0  0  0  0  0  0  0
    7.3754   -0.7068   20.9204 C   0  0  0  0  0  0  0  0  0  0  0  0
    7.9530   -1.8617   20.6702 N   0  0  0  0  0  0  0  0  0  0  0  0
    8.4288   -2.2411   21.8918 N   0  0  0  0  0  0  0  0  0  0  0  0
    8.9550   -3.0855   22.0866 H   0  0  0  0  0  0  0  0  0  0  0  0
    8.1740   -1.3244   22.8768 C   0  0  0  0  0  0  0  0  0  0  0  0
    8.5605   -1.4069   24.0345 O   0  0  0  0  0  0  0  0  0  0  0  0
    7.4863   -0.3220   22.2525 N   0  0  0  0  0  0  0  0  0  0  0  0
    7.1282    0.8991   22.8357 C   0  0  0  0  0  0  0  0  0  0  0  0
    7.4072    2.1244   22.2075 C   0  0  0  0  0  0  0  0  0  0  0  0
    7.9203    2.1375   21.2523 H   0  0  0  0  0  0  0  0  0  0  0  0
    7.0629    3.3429   22.8185 C   0  0  0  0  0  0  0  0  0  0  0  0
    7.2901    4.2902   22.3355 H   0  0  0  0  0  0  0  0  0  0  0  0
    6.4236    3.3557   24.0635 C   0  0  0  0  0  0  0  0  0  0  0  0
    5.9382    5.0151   24.8927 Br  0  0  0  0  0  0  0  0  0  0  0  0
    6.1419    2.1402   24.6941 C   0  0  0  0  0  0  0  0  0  0  0  0
    5.6432    2.1513   25.6597 H   0  0  0  0  0  0  0  0  0  0  0  0
    6.4984    0.9253   24.0874 C   0  0  0  0  0  0  0  0  0  0  0  0
    6.2711   -0.0108   24.5850 H   0  0  0  0  0  0  0  0  0  0  0  0
    5.4527    0.6636   20.1699 C   0  0  0  0  0  0  0  0  0  0  0  0
    5.0036    0.6455   21.1676 H   0  0  0  0  0  0  0  0  0  0  0  0
    4.8262    1.3098   19.1084 C   0  0  0  0  0  0  0  0  0  0  0  0
    3.8881    1.8288   19.2596 H   0  0  0  0  0  0  0  0  0  0  0  0
  1  2  1  0
  2  3  2  0
  3  4  1  0
  4  5  1  0
  4  6  2  0
  6  7  1  0
  7  8  2  0
  8  9  1  0
  9 10  1  0
  9 11  1  0
 11 12  2  0
 11 13  1  0
 13 14  1  0
 14 15  2  0
 15 16  1  0
 15 17  1  0
 17 18  1  0
 17 19  2  0
 19 20  1  0
 19 21  1  0
 21 22  1  0
 21 23  2  0
 23 24  1  0
  6 25  1  0
 25 26  1  0
 25 27  2  0
 27 28  1  0
 27  2  1  0
 13  7  1  0
 23 14  1  0
M  END
>  <cnnaffinity>  (1) 
-5.08363

>  <filename>  (1) 
O=c1[nH]nc(-c2cccnc2)n1-c1ccc(Br)cc1

$$$$
