
     RDKit          3D

 31 33  0  0  0  0  0  0  0  0999 V2000
    4.9404    1.7918   16.9966 H   0  0  0  0  0  0  0  0  0  0  0  0
    5.4158    1.3092   17.8513 C   0  0  0  0  0  0  0  0  0  0  0  0
    6.5941    0.7043   17.6247 N   0  0  0  0  0  0  0  0  0  0  0  0
    7.1861    0.0628   18.6418 C   0  0  0  0  0  0  0  0  0  0  0  0
    8.1463   -0.4099   18.4335 H   0  0  0  0  0  0  0  0  0  0  0  0
    6.6268   -0.0062   19.9395 C   0  0  0  0  0  0  0  0  0  0  0  0
    7.2383   -0.7006   21.0379 N   0  0  0  0  0  0  0  0  0  0  0  0
    7.7333   -0.2134   22.2569 C   0  0  0  0  0  0  0  0  0  0  0  0
    7.4466    1.1314   22.8118 C   0  0  0  0  0  0  0  0  0  0  0  0
    7.6355    2.2949   22.0447 C   0  0  0  0  0  0  0  0  0  0  0  0
    7.9574    2.2067   21.0086 H   0  0  0  0  0  0  0  0  0  0  0  0
    7.3861    3.5489   22.6004 C   0  0  0  0  0  0  0  0  0  0  0  0
    7.5436    4.4411   22.0017 H   0  0  0  0  0  0  0  0  0  0  0  0
    6.9298    3.6682   23.9167 C   0  0  0  0  0  0  0  0  0  0  0  0
    6.7322    4.6561   24.3276 H   0  0  0  0  0  0  0  0  0  0  0  0
    6.7143    2.5133   24.6865 C   0  0  0  0  0  0  0  0  0  0  0  0
    6.2767    2.6171   26.1367 C   0  0  0  0  0  0  0  0  0  0  0  0
    5.5102    1.5748   26.5121 F   0  0  0  0  0  0  0  0  0  0  0  0
    5.5640    3.7327   26.3830 F   0  0  0  0  0  0  0  0  0  0  0  0
    7.3329    2.6410   26.9735 F   0  0  0  0  0  0  0  0  0  0  0  0
    6.9693    1.2521   24.1322 C   0  0  0  0  0  0  0  0  0  0  0  0
    6.7894    0.3491   24.7121 H   0  0  0  0  0  0  0  0  0  0  0  0
    8.3792   -1.1357   22.9068 N   0  0  0  0  0  0  0  0  0  0  0  0
    8.2444   -2.2596   22.1263 N   0  0  0  0  0  0  0  0  0  0  0  0
    8.3977   -3.1817   22.4961 H   0  0  0  0  0  0  0  0  0  0  0  0
    7.3612   -2.1003   21.1002 C   0  0  0  0  0  0  0  0  0  0  0  0
    6.8024   -2.9598   20.4473 O   0  0  0  0  0  0  0  0  0  0  0  0
    5.4216    0.6513   20.1650 C   0  0  0  0  0  0  0  0  0  0  0  0
    5.0357    0.6588   21.1832 H   0  0  0  0  0  0  0  0  0  0  0  0
    4.7989    1.3151   19.1059 C   0  0  0  0  0  0  0  0  0  0  0  0
    3.8524    1.8236   19.2418 H   0  0  0  0  0  0  0  0  0  0  0  0
  1  2  1  0
  2  3  2  0
  3  4  1  0
  4  5  1  0
  4  6  2  0
  6  7  1  0
  7  8  1  0
  8  9  1  0
  9 10  2  0
 10 11  1  0
 10 12  1  0
 12 13  1  0
 12 14  2  0
 14 15  1  0
 14 16  1  0
 16 17  1  0
 17 18  1  0
 17 19  1  0
 17 20  1  0
 16 21  2  0
 21 22  1  0
  8 23  2  0
 23 24  1  0
 24 25  1  0
 24 26  1  0
 26 27  2  0
  6 28  1  0
 28 29  1  0
 28 30  2  0
 30 31  1  0
 30  2  1  0
 26  7  1  0
 21  9  1  0
M  END
>  <cnnaffinity>  (1) 
-5.03327

>  <filename>  (1) 
O=c1[nH]nc(-c2cccc(C(F)(F)F)c2)n1-c1cccnc1

$$$$
