
     RDKit          3D

 35 38  0  0  0  0  0  0  0  0999 V2000
    4.8962    1.7814   16.8859 H   0  0  0  0  0  0  0  0  0  0  0  0
    5.3502    1.3727   17.7838 C   0  0  0  0  0  0  0  0  0  0  0  0
    6.5635    0.8255   17.6156 N   0  0  0  0  0  0  0  0  0  0  0  0
    7.1516    0.3042   18.6967 C   0  0  0  0  0  0  0  0  0  0  0  0
    8.1328   -0.1363   18.5144 H   0  0  0  0  0  0  0  0  0  0  0  0
    6.5904    0.3119   19.9922 C   0  0  0  0  0  0  0  0  0  0  0  0
    7.2737   -0.4290   21.0934 C   0  0  0  0  0  0  0  0  0  0  0  0
    7.5456    0.4114   22.6073 S   0  0  0  0  0  0  0  0  0  0  0  0
    8.2658   -0.8505   23.6052 C   0  0  0  0  0  0  0  0  0  0  0  0
    8.4353   -0.5436   25.0468 C   0  0  0  0  0  0  0  0  0  0  0  0
    9.7099   -0.4676   25.5767 C   0  0  0  0  0  0  0  0  0  0  0  0
   10.5797   -0.5391   24.9257 H   0  0  0  0  0  0  0  0  0  0  0  0
    9.9894   -0.2967   26.8950 N   0  0  0  0  0  0  0  0  0  0  0  0
    8.9744   -0.1554   27.7265 C   0  0  0  0  0  0  0  0  0  0  0  0
    9.2201   -0.0425   28.7830 H   0  0  0  0  0  0  0  0  0  0  0  0
    7.5991   -0.1807   27.3258 C   0  0  0  0  0  0  0  0  0  0  0  0
    6.5079    0.0328   28.2230 C   0  0  0  0  0  0  0  0  0  0  0  0
    6.7093    0.3395   29.2470 H   0  0  0  0  0  0  0  0  0  0  0  0
    5.2146   -0.1575   27.7958 C   0  0  0  0  0  0  0  0  0  0  0  0
    4.3842    0.0044   28.4771 H   0  0  0  0  0  0  0  0  0  0  0  0
    4.9417   -0.5724   26.4645 C   0  0  0  0  0  0  0  0  0  0  0  0
    3.9218   -0.7748   26.1538 H   0  0  0  0  0  0  0  0  0  0  0  0
    5.9763   -0.7157   25.5625 C   0  0  0  0  0  0  0  0  0  0  0  0
    5.8144   -1.0204   24.5319 H   0  0  0  0  0  0  0  0  0  0  0  0
    7.3220   -0.4669   25.9541 C   0  0  0  0  0  0  0  0  0  0  0  0
    8.6584   -2.0589   23.1394 C   0  0  0  0  0  0  0  0  0  0  0  0
    9.2081   -2.7425   23.7807 H   0  0  0  0  0  0  0  0  0  0  0  0
    8.3058   -2.6052   21.8299 C   0  0  0  0  0  0  0  0  0  0  0  0
    8.5478   -3.7671   21.5348 O   0  0  0  0  0  0  0  0  0  0  0  0
    7.6311   -1.7105   20.8856 C   0  0  0  0  0  0  0  0  0  0  0  0
    7.4217   -2.1611   19.9293 H   0  0  0  0  0  0  0  0  0  0  0  0
    5.3385    0.9286   20.1499 C   0  0  0  0  0  0  0  0  0  0  0  0
    4.8827    0.9916   21.1385 H   0  0  0  0  0  0  0  0  0  0  0  0
    4.7018    1.4467   19.0202 C   0  0  0  0  0  0  0  0  0  0  0  0
    3.7315    1.9270   19.0831 H   0  0  0  0  0  0  0  0  0  0  0  0
  1  2  1  0
  2  3  2  0
  3  4  1  0
  4  5  1  0
  4  6  2  0
  6  7  1  0
  7  8  1  0
  8  9  1  0
  9 10  1  0
 10 11  2  0
 11 12  1  0
 11 13  1  0
 13 14  2  0
 14 15  1  0
 14 16  1  0
 16 17  2  0
 17 18  1  0
 17 19  1  0
 19 20  1  0
 19 21  2  0
 21 22  1  0
 21 23  1  0
 23 24  1  0
 23 25  2  0
  9 26  2  0
 26 27  1  0
 26 28  1  0
 28 29  2  0
 28 30  1  0
 30 31  1  0
  6 32  1  0
 32 33  1  0
 32 34  2  0
 34 35  1  0
 34  2  1  0
 30  7  2  0
 25 10  1  0
 25 16  1  0
M  END
>  <cnnaffinity>  (1) 
-5.68143

>  <filename>  (1) 
O=c1cc(-c2cccnc2)sc(-c2cncc3ccccc23)c1

$$$$
