
     RDKit          3D

 36 39  0  0  0  0  0  0  0  0999 V2000
    4.8932    1.8011   16.8742 H   0  0  0  0  0  0  0  0  0  0  0  0
    5.3476    1.3902   17.7716 C   0  0  0  0  0  0  0  0  0  0  0  0
    6.5590    0.8394   17.6068 N   0  0  0  0  0  0  0  0  0  0  0  0
    7.1493    0.3335   18.6947 C   0  0  0  0  0  0  0  0  0  0  0  0
    8.1384   -0.0898   18.5189 H   0  0  0  0  0  0  0  0  0  0  0  0
    6.5827    0.3465   19.9892 C   0  0  0  0  0  0  0  0  0  0  0  0
    7.2497   -0.4214   21.0828 C   0  0  0  0  0  0  0  0  0  0  0  0
    7.5275    0.3900   22.6115 S   0  0  0  0  0  0  0  0  0  0  0  0
    8.2305   -0.8894   23.5925 C   0  0  0  0  0  0  0  0  0  0  0  0
    8.4286   -0.5596   25.0313 C   0  0  0  0  0  0  0  0  0  0  0  0
    9.7140   -0.3997   25.5255 C   0  0  0  0  0  0  0  0  0  0  0  0
   10.5608   -0.4140   24.8449 H   0  0  0  0  0  0  0  0  0  0  0  0
    9.9458   -0.2067   26.9096 C   0  0  0  0  0  0  0  0  0  0  0  0
   10.9646   -0.0976   27.2656 H   0  0  0  0  0  0  0  0  0  0  0  0
    8.8937   -0.1195   27.7922 C   0  0  0  0  0  0  0  0  0  0  0  0
    9.0807    0.0334   28.8539 H   0  0  0  0  0  0  0  0  0  0  0  0
    7.5498   -0.2242   27.3287 C   0  0  0  0  0  0  0  0  0  0  0  0
    6.4384   -0.0573   28.2092 C   0  0  0  0  0  0  0  0  0  0  0  0
    6.6385    0.2273   29.2410 H   0  0  0  0  0  0  0  0  0  0  0  0
    5.1533   -0.2571   27.7618 C   0  0  0  0  0  0  0  0  0  0  0  0
    4.3167   -0.1223   28.4428 H   0  0  0  0  0  0  0  0  0  0  0  0
    4.9116   -0.6551   26.4203 C   0  0  0  0  0  0  0  0  0  0  0  0
    3.8956   -0.8644   26.0933 H   0  0  0  0  0  0  0  0  0  0  0  0
    5.9643   -0.7787   25.5362 C   0  0  0  0  0  0  0  0  0  0  0  0
    5.8045   -1.0842   24.5065 H   0  0  0  0  0  0  0  0  0  0  0  0
    7.3077   -0.5113   25.9438 C   0  0  0  0  0  0  0  0  0  0  0  0
    8.5942   -2.1041   23.1177 C   0  0  0  0  0  0  0  0  0  0  0  0
    9.1202   -2.8028   23.7627 H   0  0  0  0  0  0  0  0  0  0  0  0
    8.2421   -2.6220   21.7951 C   0  0  0  0  0  0  0  0  0  0  0  0
    8.4791   -3.7847   21.4850 O   0  0  0  0  0  0  0  0  0  0  0  0
    7.5675   -1.7135   20.8654 C   0  0  0  0  0  0  0  0  0  0  0  0
    7.3134   -2.1728   19.9189 H   0  0  0  0  0  0  0  0  0  0  0  0
    5.3287    0.9600   20.1437 C   0  0  0  0  0  0  0  0  0  0  0  0
    4.8720    1.0198   21.1341 H   0  0  0  0  0  0  0  0  0  0  0  0
    4.6934    1.4725   19.0076 C   0  0  0  0  0  0  0  0  0  0  0  0
    3.7224    1.9520   19.0743 H   0  0  0  0  0  0  0  0  0  0  0  0
  1  2  1  0
  2  3  2  0
  3  4  1  0
  4  5  1  0
  4  6  2  0
  6  7  1  0
  7  8  1  0
  8  9  1  0
  9 10  1  0
 10 11  2  0
 11 12  1  0
 11 13  1  0
 13 14  1  0
 13 15  2  0
 15 16  1  0
 15 17  1  0
 17 18  2  0
 18 19  1  0
 18 20  1  0
 20 21  1  0
 20 22  2  0
 22 23  1  0
 22 24  1  0
 24 25  1  0
 24 26  2  0
  9 27  2  0
 27 28  1  0
 27 29  1  0
 29 30  2  0
 29 31  1  0
 31 32  1  0
  6 33  1  0
 33 34  1  0
 33 35  2  0
 35 36  1  0
 35  2  1  0
 31  7  2  0
 26 10  1  0
 26 17  1  0
M  END
>  <cnnaffinity>  (1) 
-5.48532

>  <filename>  (1) 
O=c1cc(-c2cccnc2)sc(-c2cccc3ccccc23)c1

$$$$
