
     RDKit          3D

 41 43  0  0  0  0  0  0  0  0999 V2000
    8.4789   -0.2175   24.1572 H   0  0  0  0  0  0  0  0  0  0  0  0
    8.3736   -0.7431   23.2161 C   0  0  0  0  0  0  0  0  0  0  0  0
    8.8100   -1.9972   22.9919 C   0  0  0  0  0  0  0  0  0  0  0  0
    9.3819   -2.8947   24.0764 C   0  0  0  0  0  0  0  0  0  0  0  0
   10.3585   -3.2608   23.7437 H   0  0  0  0  0  0  0  0  0  0  0  0
    9.5680   -2.2798   24.9748 H   0  0  0  0  0  0  0  0  0  0  0  0
    8.5497   -4.0759   24.3454 N   0  0  0  0  0  0  0  0  0  0  0  0
    9.2434   -5.1437   25.0806 C   0  0  0  0  0  0  0  0  0  0  0  0
    8.6381   -6.0570   24.9868 H   0  0  0  0  0  0  0  0  0  0  0  0
   10.1947   -5.3639   24.5813 H   0  0  0  0  0  0  0  0  0  0  0  0
    9.4635   -4.8317   26.5738 C   0  0  0  0  0  0  0  0  0  0  0  0
    9.9803   -5.6656   27.0641 H   0  0  0  0  0  0  0  0  0  0  0  0
   10.1374   -3.9690   26.6473 H   0  0  0  0  0  0  0  0  0  0  0  0
    8.1291   -4.5032   27.2670 C   0  0  0  0  0  0  0  0  0  0  0  0
    7.5072   -5.4086   27.3217 H   0  0  0  0  0  0  0  0  0  0  0  0
    8.2927   -4.1975   28.3046 H   0  0  0  0  0  0  0  0  0  0  0  0
    7.3831   -3.4061   26.4866 C   0  0  0  0  0  0  0  0  0  0  0  0
    6.3845   -3.2277   26.9024 H   0  0  0  0  0  0  0  0  0  0  0  0
    7.9272   -2.4554   26.5752 H   0  0  0  0  0  0  0  0  0  0  0  0
    7.2656   -3.7643   24.9923 C   0  0  0  0  0  0  0  0  0  0  0  0
    6.7821   -2.9560   24.4351 H   0  0  0  0  0  0  0  0  0  0  0  0
    6.6208   -4.6475   24.8783 H   0  0  0  0  0  0  0  0  0  0  0  0
    8.6847   -2.5486   21.5840 C   0  0  0  0  0  0  0  0  0  0  0  0
    8.6648   -3.6395   21.5964 H   0  0  0  0  0  0  0  0  0  0  0  0
    9.5380   -2.2338   20.9650 H   0  0  0  0  0  0  0  0  0  0  0  0
    7.3832   -2.0353   20.9707 C   0  0  0  0  0  0  0  0  0  0  0  0
    7.2265   -2.3721   19.9499 H   0  0  0  0  0  0  0  0  0  0  0  0
    6.5257   -2.4393   21.5308 H   0  0  0  0  0  0  0  0  0  0  0  0
    7.3676   -0.5742   20.9970 N   0  0  0  0  0  0  0  0  0  0  0  0
    6.6841    0.0911   19.9292 C   0  0  0  0  0  0  0  0  0  0  0  0
    7.1844    0.0664   18.6100 C   0  0  0  0  0  0  0  0  0  0  0  0
    8.1270   -0.4465   18.4053 H   0  0  0  0  0  0  0  0  0  0  0  0
    6.5699    0.6583   17.5762 N   0  0  0  0  0  0  0  0  0  0  0  0
    5.4063    1.2838   17.8243 C   0  0  0  0  0  0  0  0  0  0  0  0
    4.9509    1.7882   16.9764 H   0  0  0  0  0  0  0  0  0  0  0  0
    4.7995    1.3198   19.0854 C   0  0  0  0  0  0  0  0  0  0  0  0
    3.8484    1.8280   19.2179 H   0  0  0  0  0  0  0  0  0  0  0  0
    5.4551    0.7148   20.1622 C   0  0  0  0  0  0  0  0  0  0  0  0
    5.0453    0.7124   21.1720 H   0  0  0  0  0  0  0  0  0  0  0  0
    7.6477    0.0809   22.2064 C   0  0  0  0  0  0  0  0  0  0  0  0
    7.3543    1.2399   22.4281 O   0  0  0  0  0  0  0  0  0  0  0  0
  1  2  1  0
  2  3  2  0
  3  4  1  0
  4  5  1  0
  4  6  1  0
  4  7  1  0
  7  8  1  0
  8  9  1  0
  8 10  1  0
  8 11  1  0
 11 12  1  0
 11 13  1  0
 11 14  1  0
 14 15  1  0
 14 16  1  0
 14 17  1  0
 17 18  1  0
 17 19  1  0
 17 20  1  0
 20 21  1  0
 20 22  1  0
  3 23  1  0
 23 24  1  0
 23 25  1  0
 23 26  1  0
 26 27  1  0
 26 28  1  0
 26 29  1  0
 29 30  1  0
 30 31  2  0
 31 32  1  0
 31 33  1  0
 33 34  2  0
 34 35  1  0
 34 36  1  0
 36 37  1  0
 36 38  2  0
 38 39  1  0
 29 40  1  0
 40 41  2  0
 40  2  1  0
 20  7  1  0
 38 30  1  0
M  END
>  <cnnaffinity>  (1) 
-4.87066

>  <filename>  (1) 
O=C1C=C(CN2CCCCC2)CCN1c1cccnc1

$$$$
