
     RDKit          3D

 33 36  0  0  0  0  0  0  0  0999 V2000
    4.9330    1.7935   16.9875 H   0  0  0  0  0  0  0  0  0  0  0  0
    5.3944    1.2964   17.8392 C   0  0  0  0  0  0  0  0  0  0  0  0
    6.5496    0.6666   17.5844 N   0  0  0  0  0  0  0  0  0  0  0  0
    7.1362    0.0332   18.6015 C   0  0  0  0  0  0  0  0  0  0  0  0
    8.1088   -0.4098   18.3971 H   0  0  0  0  0  0  0  0  0  0  0  0
    6.5960   -0.0382   19.9005 C   0  0  0  0  0  0  0  0  0  0  0  0
    7.3138   -0.7519   20.9929 C   0  0  0  0  0  0  0  0  0  0  0  0
    6.5734   -1.5141   21.7581 N   0  0  0  0  0  0  0  0  0  0  0  0
    7.1491   -2.1945   22.8032 N   0  0  0  0  0  0  0  0  0  0  0  0
    6.2733   -3.0069   23.6236 C   0  0  0  0  0  0  0  0  0  0  0  0
    6.4962   -3.1412   25.0071 C   0  0  0  0  0  0  0  0  0  0  0  0
    7.3212   -2.6034   25.4550 H   0  0  0  0  0  0  0  0  0  0  0  0
    5.6553   -3.9290   25.8210 C   0  0  0  0  0  0  0  0  0  0  0  0
    5.8211   -4.0421   26.8897 H   0  0  0  0  0  0  0  0  0  0  0  0
    4.6038   -4.5688   25.2019 C   0  0  0  0  0  0  0  0  0  0  0  0
    4.3745   -4.4415   23.8270 C   0  0  0  0  0  0  0  0  0  0  0  0
    5.1835   -3.6693   23.0152 C   0  0  0  0  0  0  0  0  0  0  0  0
    5.0099   -3.5368   21.9555 H   0  0  0  0  0  0  0  0  0  0  0  0
    3.2640   -5.1621   23.4880 O   0  0  0  0  0  0  0  0  0  0  0  0
    2.7942   -5.7668   24.6927 C   0  0  0  0  0  0  0  0  0  0  0  0
    1.7753   -5.4192   24.9022 H   0  0  0  0  0  0  0  0  0  0  0  0
    2.8187   -6.8580   24.5862 H   0  0  0  0  0  0  0  0  0  0  0  0
    3.6541   -5.3764   25.7579 O   0  0  0  0  0  0  0  0  0  0  0  0
    8.5121   -2.1243   23.0219 C   0  0  0  0  0  0  0  0  0  0  0  0
    8.8802   -2.7408   23.8370 H   0  0  0  0  0  0  0  0  0  0  0  0
    9.3396   -1.3684   22.2804 C   0  0  0  0  0  0  0  0  0  0  0  0
   10.4087   -1.2944   22.4530 H   0  0  0  0  0  0  0  0  0  0  0  0
    8.8027   -0.5680   21.1891 C   0  0  0  0  0  0  0  0  0  0  0  0
    9.5104    0.1668   20.5054 O   0  0  0  0  0  0  0  0  0  0  0  0
    5.3947    0.6332   20.1558 C   0  0  0  0  0  0  0  0  0  0  0  0
    4.9885    0.6193   21.1701 H   0  0  0  0  0  0  0  0  0  0  0  0
    4.7917    1.3211   19.1025 C   0  0  0  0  0  0  0  0  0  0  0  0
    3.8656    1.8625   19.2387 H   0  0  0  0  0  0  0  0  0  0  0  0
  1  2  1  0
  2  3  2  0
  3  4  1  0
  4  5  1  0
  4  6  2  0
  6  7  1  0
  7  8  2  0
  8  9  1  0
  9 10  1  0
 10 11  2  0
 11 12  1  0
 11 13  1  0
 13 14  1  0
 13 15  2  0
 15 16  1  0
 16 17  2  0
 17 18  1  0
 16 19  1  0
 19 20  1  0
 20 21  1  0
 20 22  1  0
 20 23  1  0
  9 24  1  0
 24 25  1  0
 24 26  2  0
 26 27  1  0
 26 28  1  0
 28 29  2  0
  6 30  1  0
 30 31  1  0
 30 32  2  0
 32 33  1  0
 32  2  1  0
 28  7  1  0
 17 10  1  0
 23 15  1  0
M  END
>  <cnnaffinity>  (1) 
-5.2853

>  <filename>  (1) 
O=c1ccn(-c2ccc3c(c2)OCO3)nc1-c1cccnc1

$$$$
