
     RDKit          3D

 36 39  0  0  0  0  0  0  0  0999 V2000
    5.5586    1.9307   16.6672 H   0  0  0  0  0  0  0  0  0  0  0  0
    5.8800    1.3410   17.5238 C   0  0  0  0  0  0  0  0  0  0  0  0
    7.1199    0.8317   17.4562 N   0  0  0  0  0  0  0  0  0  0  0  0
    7.5471    0.1187   18.5027 C   0  0  0  0  0  0  0  0  0  0  0  0
    8.5589   -0.2779   18.4333 H   0  0  0  0  0  0  0  0  0  0  0  0
    6.7694   -0.1456   19.6483 C   0  0  0  0  0  0  0  0  0  0  0  0
    7.3489   -0.9642   20.7424 C   0  0  0  0  0  0  0  0  0  0  0  0
    8.6706   -0.6813   20.9401 O   0  0  0  0  0  0  0  0  0  0  0  0
    9.3888   -1.3894   21.8592 C   0  0  0  0  0  0  0  0  0  0  0  0
   10.8049   -0.8713   21.9736 C   0  0  0  0  0  0  0  0  0  0  0  0
   11.8935   -1.7993   22.1224 C   0  0  0  0  0  0  0  0  0  0  0  0
   11.6662   -2.8615   22.1390 H   0  0  0  0  0  0  0  0  0  0  0  0
   13.2223   -1.3898   22.1541 C   0  0  0  0  0  0  0  0  0  0  0  0
   13.9716   -2.1583   21.9121 H   0  0  0  0  0  0  0  0  0  0  0  0
   13.5384   -0.0675   22.5138 C   0  0  0  0  0  0  0  0  0  0  0  0
   14.2328    0.5691   21.9837 H   0  0  0  0  0  0  0  0  0  0  0  0
   12.8767    0.4548   23.6805 C   0  0  0  0  0  0  0  0  0  0  0  0
   12.7122    1.7493   23.6989 C   0  0  0  0  0  0  0  0  0  0  0  0
   12.6130   -0.1673   24.5497 H   0  0  0  0  0  0  0  0  0  0  0  0
   12.6668    2.4222   22.4129 C   0  0  0  0  0  0  0  0  0  0  0  0
   13.5005    3.4972   22.7013 H   0  0  0  0  0  0  0  0  0  0  0  0
   12.5751    2.8371   22.4065 C   0  0  0  0  0  0  0  0  0  0  0  0
   11.8921    3.7153   22.4662 H   0  0  0  0  0  0  0  0  0  0  0  0
   11.3039    1.6705   21.4759 C   0  0  0  0  0  0  0  0  0  0  0  0
   10.8372    2.2766   20.6718 H   0  0  0  0  0  0  0  0  0  0  0  0
   11.0519    0.4682   21.7849 C   0  0  0  0  0  0  0  0  0  0  0  0
    8.8499   -2.4086   22.5591 C   0  0  0  0  0  0  0  0  0  0  0  0
    9.4195   -2.9779   23.2775 H   0  0  0  0  0  0  0  0  0  0  0  0
    7.4416   -2.7707   22.3809 C   0  0  0  0  0  0  0  0  0  0  0  0
    6.9176   -3.7073   22.9609 O   0  0  0  0  0  0  0  0  0  0  0  0
    6.7151   -1.9299   21.4306 C   0  0  0  0  0  0  0  0  0  0  0  0
    5.6695   -2.1475   21.2792 H   0  0  0  0  0  0  0  0  0  0  0  0
    5.4677    0.3743   19.6895 C   0  0  0  0  0  0  0  0  0  0  0  0
    4.8276    0.2086   20.5579 H   0  0  0  0  0  0  0  0  0  0  0  0
    5.0232    1.1415   18.6101 C   0  0  0  0  0  0  0  0  0  0  0  0
    4.0360    1.5906   18.5985 H   0  0  0  0  0  0  0  0  0  0  0  0
  1  2  1  0
  2  3  2  0
  3  4  1  0
  4  5  1  0
  4  6  2  0
  6  7  1  0
  7  8  1  0
  8  9  1  0
  9 10  1  0
 10 11  2  0
 11 12  1  0
 11 13  1  0
 13 14  1  0
 13 15  2  0
 15 16  1  0
 15 17  1  0
 17 18  2  0
 18 19  1  0
 18 20  1  0
 20 21  1  0
 20 22  2  0
 22 23  1  0
 22 24  1  0
 24 25  1  0
 24 26  2  0
  9 27  2  0
 27 28  1  0
 27 29  1  0
 29 30  2  0
 29 31  1  0
 31 32  1  0
  6 33  1  0
 33 34  1  0
 33 35  2  0
 35 36  1  0
 35  2  1  0
 31  7  2  0
 26 10  1  0
 26 17  1  0
M  END
>  <cnnaffinity>  (1) 
-5.94594

>  <filename>  (1) 
O=c1cc(-c2cccnc2)oc(-c2cccc3ccccc23)c1

$$$$
