
     RDKit          3D

 31 33  0  0  0  0  0  0  0  0999 V2000
    3.1436   -3.9189   23.9606 H   0  0  0  0  0  0  0  0  0  0  0  0
    4.2142   -3.9122   24.1724 C   0  0  0  0  0  0  0  0  0  0  0  0
    4.9758   -3.2037   23.3500 N   0  0  0  0  0  0  0  0  0  0  0  0
    6.2756   -3.0913   23.6461 C   0  0  0  0  0  0  0  0  0  0  0  0
    7.1567   -2.2117   22.7850 C   0  0  0  0  0  0  0  0  0  0  0  0
    6.5902   -1.4805   21.7570 N   0  0  0  0  0  0  0  0  0  0  0  0
    7.3247   -0.7242   20.9741 C   0  0  0  0  0  0  0  0  0  0  0  0
    6.6231   -0.0021   19.8992 C   0  0  0  0  0  0  0  0  0  0  0  0
    7.1462    0.0436   18.5978 C   0  0  0  0  0  0  0  0  0  0  0  0
    8.1101   -0.4196   18.3871 H   0  0  0  0  0  0  0  0  0  0  0  0
    6.5449    0.6634   17.5776 N   0  0  0  0  0  0  0  0  0  0  0  0
    5.3914    1.2945   17.8337 C   0  0  0  0  0  0  0  0  0  0  0  0
    4.9355    1.8004   16.9860 H   0  0  0  0  0  0  0  0  0  0  0  0
    4.7847    1.3176   19.0947 C   0  0  0  0  0  0  0  0  0  0  0  0
    3.8600    1.8664   19.2350 H   0  0  0  0  0  0  0  0  0  0  0  0
    5.4005    0.6432   20.1452 C   0  0  0  0  0  0  0  0  0  0  0  0
    4.9618    0.6285   21.1444 H   0  0  0  0  0  0  0  0  0  0  0  0
    8.8119   -0.5773   21.1970 C   0  0  0  0  0  0  0  0  0  0  0  0
    9.6417    0.0997   20.6099 O   0  0  0  0  0  0  0  0  0  0  0  0
    9.2741   -1.3404   22.2592 N   0  0  0  0  0  0  0  0  0  0  0  0
   10.2721   -1.1712   22.3358 H   0  0  0  0  0  0  0  0  0  0  0  0
    8.5062   -2.1410   23.0569 C   0  0  0  0  0  0  0  0  0  0  0  0
    9.0028   -2.6750   23.8610 H   0  0  0  0  0  0  0  0  0  0  0  0
    6.8723   -3.7326   24.6733 N   0  0  0  0  0  0  0  0  0  0  0  0
    6.1159   -4.5026   25.4642 C   0  0  0  0  0  0  0  0  0  0  0  0
    6.7617   -5.3086   26.6345 C   0  0  0  0  0  0  0  0  0  0  0  0
    6.5261   -6.6281   26.4803 F   0  0  0  0  0  0  0  0  0  0  0  0
    6.2099   -4.9591   27.8149 F   0  0  0  0  0  0  0  0  0  0  0  0
    8.0797   -5.1519   26.7521 F   0  0  0  0  0  0  0  0  0  0  0  0
    4.7380   -4.6106   25.2553 C   0  0  0  0  0  0  0  0  0  0  0  0
    4.1070   -5.2176   25.8866 H   0  0  0  0  0  0  0  0  0  0  0  0
  1  2  1  0
  2  3  2  0
  3  4  1  0
  4  5  1  0
  5  6  1  0
  6  7  2  0
  7  8  1  0
  8  9  2  0
  9 10  1  0
  9 11  1  0
 11 12  2  0
 12 13  1  0
 12 14  1  0
 14 15  1  0
 14 16  2  0
 16 17  1  0
  7 18  1  0
 18 19  2  0
 18 20  1  0
 20 21  1  0
 20 22  1  0
 22 23  1  0
  4 24  2  0
 24 25  1  0
 25 26  1  0
 26 27  1  0
 26 28  1  0
 26 29  1  0
 25 30  2  0
 30 31  1  0
 30  2  1  0
 22  5  2  0
 16  8  1  0
M  END
>  <cnnaffinity>  (1) 
-5.50144

>  <filename>  (1) 
O=c1[nH]cc(-c2nccc(C(F)(F)F)n2)nc1-c1cccnc1

$$$$
