
     RDKit          3D

 36 39  0  0  0  0  0  0  0  0999 V2000
    9.7511   -2.5456   22.1138 O   0  0  0  0  0  0  0  0  0  0  0  0
    8.7366   -1.9400   21.9245 C   0  0  0  0  0  0  0  0  0  0  0  0
    8.4551   -1.2484   20.7631 O   0  0  0  0  0  0  0  0  0  0  0  0
    7.2229   -0.7282   20.9303 C   0  0  0  0  0  0  0  0  0  0  0  0
    6.5956    0.0321   19.8639 C   0  0  0  0  0  0  0  0  0  0  0  0
    5.3831    0.7072   20.0784 C   0  0  0  0  0  0  0  0  0  0  0  0
    4.8051    1.3597   18.9958 C   0  0  0  0  0  0  0  0  0  0  0  0
    5.4596    1.3164   17.7577 C   0  0  0  0  0  0  0  0  0  0  0  0
    6.6211    0.6783   17.5470 N   0  0  0  0  0  0  0  0  0  0  0  0
    7.1752    0.0518   18.5887 C   0  0  0  0  0  0  0  0  0  0  0  0
    8.1158   -0.4604   18.3912 H   0  0  0  0  0  0  0  0  0  0  0  0
    5.0266    1.8070   16.8919 H   0  0  0  0  0  0  0  0  0  0  0  0
    3.8688    1.8987   19.0936 H   0  0  0  0  0  0  0  0  0  0  0  0
    4.9225    0.7107   21.0709 H   0  0  0  0  0  0  0  0  0  0  0  0
    6.6946   -0.9853   22.0718 N   0  0  0  0  0  0  0  0  0  0  0  0
    7.6208   -1.7798   22.7097 N   0  0  0  0  0  0  0  0  0  0  0  0
    7.5855   -1.8864   24.1710 C   0  0  0  0  0  0  0  0  0  0  0  0
    8.4819   -0.8525   24.8252 C   0  0  0  0  0  0  0  0  0  0  0  0
    9.8195   -1.1632   25.0026 C   0  0  0  0  0  0  0  0  0  0  0  0
   10.7585   -0.1857   25.4242 C   0  0  0  0  0  0  0  0  0  0  0  0
   10.3408    1.0869   25.7241 C   0  0  0  0  0  0  0  0  0  0  0  0
    8.9598    1.4361   25.6408 C   0  0  0  0  0  0  0  0  0  0  0  0
    8.5157    2.7260   26.0572 C   0  0  0  0  0  0  0  0  0  0  0  0
    7.2066    3.1086   25.8895 C   0  0  0  0  0  0  0  0  0  0  0  0
    6.2779    2.2114   25.2999 C   0  0  0  0  0  0  0  0  0  0  0  0
    6.6633    0.9367   24.9346 C   0  0  0  0  0  0  0  0  0  0  0  0
    8.0151    0.4814   25.1308 C   0  0  0  0  0  0  0  0  0  0  0  0
    5.9358    0.2699   24.4766 H   0  0  0  0  0  0  0  0  0  0  0  0
    5.2537    2.5454   25.1454 H   0  0  0  0  0  0  0  0  0  0  0  0
    6.8858    4.1013   26.1964 H   0  0  0  0  0  0  0  0  0  0  0  0
    9.2439    3.3835   26.5265 H   0  0  0  0  0  0  0  0  0  0  0  0
   11.0543    1.8573   25.9946 H   0  0  0  0  0  0  0  0  0  0  0  0
   11.8087   -0.4550   25.4985 H   0  0  0  0  0  0  0  0  0  0  0  0
   10.1952   -2.1550   24.7543 H   0  0  0  0  0  0  0  0  0  0  0  0
    6.5314   -1.7752   24.4463 H   0  0  0  0  0  0  0  0  0  0  0  0
    7.8877   -2.9044   24.4454 H   0  0  0  0  0  0  0  0  0  0  0  0
  1  2  2  0
  2  3  1  0
  3  4  1  0
  4  5  1  0
  5  6  2  0
  6  7  1  0
  7  8  2  0
  8  9  1  0
  9 10  2  0
 10 11  1  0
  8 12  1  0
  7 13  1  0
  6 14  1  0
  4 15  2  0
 15 16  1  0
 16 17  1  0
 17 18  1  0
 18 19  2  0
 19 20  1  0
 20 21  2  0
 21 22  1  0
 22 23  2  0
 23 24  1  0
 24 25  2  0
 25 26  1  0
 26 27  2  0
 26 28  1  0
 25 29  1  0
 24 30  1  0
 23 31  1  0
 21 32  1  0
 20 33  1  0
 19 34  1  0
 17 35  1  0
 17 36  1  0
 16  2  1  0
 27 18  1  0
 10  5  1  0
 27 22  1  0
M  END
>  <cnnaffinity>  (1) 
-5.22873

>  <filename>  (1) 
O=c1oc(-c2cccnc2)nn1Cc1cccc2ccccc12

$$$$
