
     RDKit          3D

 33 35  0  0  0  0  0  0  0  0999 V2000
    5.1505    2.0606   16.9243 H   0  0  0  0  0  0  0  0  0  0  0  0
    5.5696    1.4284   17.7054 C   0  0  0  0  0  0  0  0  0  0  0  0
    6.7672    0.8807   17.4370 N   0  0  0  0  0  0  0  0  0  0  0  0
    7.3206    0.1218   18.3858 C   0  0  0  0  0  0  0  0  0  0  0  0
    8.3050   -0.2908   18.1701 H   0  0  0  0  0  0  0  0  0  0  0  0
    6.6884   -0.1816   19.6084 C   0  0  0  0  0  0  0  0  0  0  0  0
    7.4058   -1.0082   20.5926 C   0  0  0  0  0  0  0  0  0  0  0  0
    8.7081   -0.8323   20.6859 N   0  0  0  0  0  0  0  0  0  0  0  0
    9.4003   -1.3596   21.7532 C   0  0  0  0  0  0  0  0  0  0  0  0
   10.8683   -0.9724   21.8215 C   0  0  0  0  0  0  0  0  0  0  0  0
   11.2193   -0.8657   20.7908 H   0  0  0  0  0  0  0  0  0  0  0  0
   11.4591   -1.7782   22.2795 H   0  0  0  0  0  0  0  0  0  0  0  0
   11.1208    0.3260   22.5854 C   0  0  0  0  0  0  0  0  0  0  0  0
   10.9939    0.3491   23.9828 C   0  0  0  0  0  0  0  0  0  0  0  0
   10.8145   -0.5803   24.5178 H   0  0  0  0  0  0  0  0  0  0  0  0
   11.1436    1.5425   24.7008 C   0  0  0  0  0  0  0  0  0  0  0  0
   11.0031    1.5541   25.7777 H   0  0  0  0  0  0  0  0  0  0  0  0
   11.4757    2.7257   24.0357 C   0  0  0  0  0  0  0  0  0  0  0  0
   11.5808    3.6651   24.5740 H   0  0  0  0  0  0  0  0  0  0  0  0
   11.6765    2.6883   22.6562 C   0  0  0  0  0  0  0  0  0  0  0  0
   12.2220    4.1277   21.8365 Cl  0  0  0  0  0  0  0  0  0  0  0  0
   11.4807    1.5123   21.9229 C   0  0  0  0  0  0  0  0  0  0  0  0
   11.6463    1.5509   20.8492 H   0  0  0  0  0  0  0  0  0  0  0  0
    8.7872   -2.1601   22.6865 C   0  0  0  0  0  0  0  0  0  0  0  0
    9.2866   -2.5738   23.5576 H   0  0  0  0  0  0  0  0  0  0  0  0
    7.4452   -2.4583   22.5241 N   0  0  0  0  0  0  0  0  0  0  0  0
    6.9026   -3.0970   23.0942 H   0  0  0  0  0  0  0  0  0  0  0  0
    6.6479   -1.9747   21.4963 C   0  0  0  0  0  0  0  0  0  0  0  0
    5.4974   -2.3812   21.4373 O   0  0  0  0  0  0  0  0  0  0  0  0
    5.4253    0.3824   19.8638 C   0  0  0  0  0  0  0  0  0  0  0  0
    4.8968    0.1685   20.7964 H   0  0  0  0  0  0  0  0  0  0  0  0
    4.8709    1.2211   18.8990 C   0  0  0  0  0  0  0  0  0  0  0  0
    3.9269    1.7357   19.0656 H   0  0  0  0  0  0  0  0  0  0  0  0
  1  2  1  0
  2  3  2  0
  3  4  1  0
  4  5  1  0
  4  6  2  0
  6  7  1  0
  7  8  2  0
  8  9  1  0
  9 10  1  0
 10 11  1  0
 10 12  1  0
 10 13  1  0
 13 14  2  0
 14 15  1  0
 14 16  1  0
 16 17  1  0
 16 18  2  0
 18 19  1  0
 18 20  1  0
 20 21  1  0
 20 22  2  0
 22 23  1  0
  9 24  2  0
 24 25  1  0
 24 26  1  0
 26 27  1  0
 26 28  1  0
 28 29  2  0
  6 30  1  0
 30 31  1  0
 30 32  2  0
 32 33  1  0
 32  2  1  0
 28  7  1  0
 22 13  1  0
M  END
>  <cnnaffinity>  (1) 
-5.37687

>  <filename>  (1) 
O=c1[nH]cc(Cc2cccc(Cl)c2)nc1-c1cccnc1

$$$$
