
     RDKit          3D

 33 35  0  0  0  0  0  0  0  0999 V2000
    4.9523    1.7655   16.9408 H   0  0  0  0  0  0  0  0  0  0  0  0
    5.4013    1.3180   17.8294 C   0  0  0  0  0  0  0  0  0  0  0  0
    6.5863    0.7114   17.6622 N   0  0  0  0  0  0  0  0  0  0  0  0
    7.1506    0.1623   18.7389 C   0  0  0  0  0  0  0  0  0  0  0  0
    8.1093   -0.3155   18.5565 H   0  0  0  0  0  0  0  0  0  0  0  0
    6.6019    0.1783   20.0356 C   0  0  0  0  0  0  0  0  0  0  0  0
    7.3470   -0.4806   21.1507 C   0  0  0  0  0  0  0  0  0  0  0  0
    7.1597   -0.0661   22.3841 N   0  0  0  0  0  0  0  0  0  0  0  0
    7.8494   -0.6852   23.3876 N   0  0  0  0  0  0  0  0  0  0  0  0
    7.6228   -0.1455   24.7366 C   0  0  0  0  0  0  0  0  0  0  0  0
    7.4575    0.9337   24.6222 H   0  0  0  0  0  0  0  0  0  0  0  0
    8.5424   -0.3101   25.3031 H   0  0  0  0  0  0  0  0  0  0  0  0
    6.4449   -0.7914   25.4417 C   0  0  0  0  0  0  0  0  0  0  0  0
    6.6025   -1.9009   26.2880 C   0  0  0  0  0  0  0  0  0  0  0  0
    7.5936   -2.3049   26.4806 H   0  0  0  0  0  0  0  0  0  0  0  0
    5.4891   -2.5266   26.8484 C   0  0  0  0  0  0  0  0  0  0  0  0
    5.6016   -3.3937   27.4913 H   0  0  0  0  0  0  0  0  0  0  0  0
    4.2004   -2.0500   26.5805 C   0  0  0  0  0  0  0  0  0  0  0  0
    2.8425   -2.9079   27.2265 Cl  0  0  0  0  0  0  0  0  0  0  0  0
    4.0381   -0.9077   25.7823 C   0  0  0  0  0  0  0  0  0  0  0  0
    2.4815   -0.2280   25.4578 Cl  0  0  0  0  0  0  0  0  0  0  0  0
    5.1583   -0.2945   25.2105 C   0  0  0  0  0  0  0  0  0  0  0  0
    5.0132    0.5515   24.5428 H   0  0  0  0  0  0  0  0  0  0  0  0
    8.5993   -1.8816   23.2767 C   0  0  0  0  0  0  0  0  0  0  0  0
    9.0913   -2.4582   24.2362 O   0  0  0  0  0  0  0  0  0  0  0  0
    8.7545   -2.3148   21.8915 C   0  0  0  0  0  0  0  0  0  0  0  0
    9.3254   -3.2231   21.7626 H   0  0  0  0  0  0  0  0  0  0  0  0
    8.2261   -1.5905   20.8751 C   0  0  0  0  0  0  0  0  0  0  0  0
    8.4602   -1.8256   19.8495 H   0  0  0  0  0  0  0  0  0  0  0  0
    5.3536    0.8053   20.1896 C   0  0  0  0  0  0  0  0  0  0  0  0
    4.8753    0.8493   21.1679 H   0  0  0  0  0  0  0  0  0  0  0  0
    4.7456    1.3744   19.0653 C   0  0  0  0  0  0  0  0  0  0  0  0
    3.7837    1.8700   19.1300 H   0  0  0  0  0  0  0  0  0  0  0  0
  1  2  1  0
  2  3  2  0
  3  4  1  0
  4  5  1  0
  4  6  2  0
  6  7  1  0
  7  8  2  0
  8  9  1  0
  9 10  1  0
 10 11  1  0
 10 12  1  0
 10 13  1  0
 13 14  2  0
 14 15  1  0
 14 16  1  0
 16 17  1  0
 16 18  2  0
 18 19  1  0
 18 20  1  0
 20 21  1  0
 20 22  2  0
 22 23  1  0
  9 24  1  0
 24 25  2  0
 24 26  1  0
 26 27  1  0
 26 28  2  0
 28 29  1  0
  6 30  1  0
 30 31  1  0
 30 32  2  0
 32 33  1  0
 32  2  1  0
 28  7  1  0
 22 13  1  0
M  END
>  <cnnaffinity>  (1) 
-5.08829

>  <filename>  (1) 
O=c1ccc(-c2cccnc2)nn1Cc1ccc(Cl)c(Cl)c1

$$$$
