
     RDKit          3D

 30 32  0  0  0  0  0  0  0  0999 V2000
    4.9313    1.8180   16.9333 H   0  0  0  0  0  0  0  0  0  0  0  0
    5.4125    1.3225   17.7709 C   0  0  0  0  0  0  0  0  0  0  0  0
    6.5771    0.6740   17.5801 N   0  0  0  0  0  0  0  0  0  0  0  0
    7.1471    0.0816   18.6399 C   0  0  0  0  0  0  0  0  0  0  0  0
    8.1161   -0.3869   18.4963 H   0  0  0  0  0  0  0  0  0  0  0  0
    6.5711    0.0751   19.9150 C   0  0  0  0  0  0  0  0  0  0  0  0
    7.2414   -0.6191   21.0189 C   0  0  0  0  0  0  0  0  0  0  0  0
    7.5777    0.1350   22.0466 N   0  0  0  0  0  0  0  0  0  0  0  0
    8.2364   -0.4564   23.1308 C   0  0  0  0  0  0  0  0  0  0  0  0
    8.2161    0.2177   24.4361 C   0  0  0  0  0  0  0  0  0  0  0  0
    7.1840    1.1227   24.7476 C   0  0  0  0  0  0  0  0  0  0  0  0
    6.4497    1.3937   23.9925 H   0  0  0  0  0  0  0  0  0  0  0  0
    7.0574    1.6359   26.0461 C   0  0  0  0  0  0  0  0  0  0  0  0
    6.2354    2.2942   26.3137 H   0  0  0  0  0  0  0  0  0  0  0  0
    7.9629    1.2594   27.0415 C   0  0  0  0  0  0  0  0  0  0  0  0
    7.7529    1.9118   28.8236 Br  0  0  0  0  0  0  0  0  0  0  0  0
    8.9871    0.3579   26.7414 C   0  0  0  0  0  0  0  0  0  0  0  0
    9.6553    0.0186   27.5296 H   0  0  0  0  0  0  0  0  0  0  0  0
    9.1303   -0.1346   25.4414 C   0  0  0  0  0  0  0  0  0  0  0  0
    9.9405   -0.8157   25.2065 H   0  0  0  0  0  0  0  0  0  0  0  0
    8.7763   -1.7347   23.0415 C   0  0  0  0  0  0  0  0  0  0  0  0
    9.2876   -2.1222   23.9216 H   0  0  0  0  0  0  0  0  0  0  0  0
    8.5373   -2.5336   21.9096 N   0  0  0  0  0  0  0  0  0  0  0  0
    8.6210   -3.5464   21.9784 H   0  0  0  0  0  0  0  0  0  0  0  0
    7.5646   -2.0917   21.0325 C   0  0  0  0  0  0  0  0  0  0  0  0
    6.8858   -2.9656   20.4953 O   0  0  0  0  0  0  0  0  0  0  0  0
    5.3822    0.7773   20.1216 C   0  0  0  0  0  0  0  0  0  0  0  0
    4.9324    0.8299   21.1147 H   0  0  0  0  0  0  0  0  0  0  0  0
    4.7978    1.4006   19.0249 C   0  0  0  0  0  0  0  0  0  0  0  0
    3.8710    1.9521   19.1432 H   0  0  0  0  0  0  0  0  0  0  0  0
  1  2  1  0
  2  3  2  0
  3  4  1  0
  4  5  1  0
  4  6  2  0
  6  7  1  0
  7  8  2  0
  8  9  1  0
  9 10  1  0
 10 11  2  0
 11 12  1  0
 11 13  1  0
 13 14  1  0
 13 15  2  0
 15 16  1  0
 15 17  1  0
 17 18  1  0
 17 19  2  0
 19 20  1  0
  9 21  2  0
 21 22  1  0
 21 23  1  0
 23 24  1  0
 23 25  1  0
 25 26  2  0
  6 27  1  0
 27 28  1  0
 27 29  2  0
 29 30  1  0
 29  2  1  0
 25  7  1  0
 19 10  1  0
M  END
>  <cnnaffinity>  (1) 
-5.09363

>  <filename>  (1) 
O=c1[nH]cc(-c2ccc(Br)cc2)nc1-c1cccnc1

$$$$
