
     RDKit          3D

 33 35  0  0  0  0  0  0  0  0999 V2000
    4.9126    1.7739   17.0020 H   0  0  0  0  0  0  0  0  0  0  0  0
    5.4039    1.2902   17.8440 C   0  0  0  0  0  0  0  0  0  0  0  0
    6.5695    0.6768   17.5834 N   0  0  0  0  0  0  0  0  0  0  0  0
    7.1802    0.0649   18.6078 C   0  0  0  0  0  0  0  0  0  0  0  0
    8.1215   -0.4316   18.3704 H   0  0  0  0  0  0  0  0  0  0  0  0
    6.6610    0.0016   19.9146 C   0  0  0  0  0  0  0  0  0  0  0  0
    7.4017   -0.7176   20.9890 C   0  0  0  0  0  0  0  0  0  0  0  0
    6.3954   -1.6382   22.0988 S   0  0  0  0  0  0  0  0  0  0  0  0
    7.5447   -2.3426   23.2301 C   0  0  0  0  0  0  0  0  0  0  0  0
    6.9510   -3.2019   24.3059 C   0  0  0  0  0  0  0  0  0  0  0  0
    7.6345   -4.3473   24.7584 C   0  0  0  0  0  0  0  0  0  0  0  0
    8.5868   -4.6294   24.3169 H   0  0  0  0  0  0  0  0  0  0  0  0
    7.0897   -5.1595   25.7561 C   0  0  0  0  0  0  0  0  0  0  0  0
    7.6226   -6.0444   26.0884 H   0  0  0  0  0  0  0  0  0  0  0  0
    5.8616   -4.8396   26.3344 C   0  0  0  0  0  0  0  0  0  0  0  0
    5.4432   -5.4850   27.1039 H   0  0  0  0  0  0  0  0  0  0  0  0
    5.1796   -3.6907   25.9124 C   0  0  0  0  0  0  0  0  0  0  0  0
    3.8230   -3.3597   26.4933 C   0  0  0  0  0  0  0  0  0  0  0  0
    2.8334   -3.9099   25.7625 F   0  0  0  0  0  0  0  0  0  0  0  0
    3.6764   -3.8176   27.7495 F   0  0  0  0  0  0  0  0  0  0  0  0
    3.5869   -2.0361   26.5306 F   0  0  0  0  0  0  0  0  0  0  0  0
    5.7136   -2.8864   24.8960 C   0  0  0  0  0  0  0  0  0  0  0  0
    5.1766   -2.0066   24.5576 H   0  0  0  0  0  0  0  0  0  0  0  0
    8.8746   -2.1347   23.1282 C   0  0  0  0  0  0  0  0  0  0  0  0
    9.5667   -2.5609   23.8457 H   0  0  0  0  0  0  0  0  0  0  0  0
    9.5500   -1.3154   22.1086 C   0  0  0  0  0  0  0  0  0  0  0  0
   10.7647   -1.1951   22.1159 O   0  0  0  0  0  0  0  0  0  0  0  0
    8.7427   -0.6525   21.0773 C   0  0  0  0  0  0  0  0  0  0  0  0
    9.3319   -0.0567   20.3889 H   0  0  0  0  0  0  0  0  0  0  0  0
    5.4393    0.6519   20.1589 C   0  0  0  0  0  0  0  0  0  0  0  0
    5.0103    0.6315   21.1619 H   0  0  0  0  0  0  0  0  0  0  0  0
    4.8052    1.3134   19.1085 C   0  0  0  0  0  0  0  0  0  0  0  0
    3.8735    1.8448   19.2641 H   0  0  0  0  0  0  0  0  0  0  0  0
  1  2  1  0
  2  3  2  0
  3  4  1  0
  4  5  1  0
  4  6  2  0
  6  7  1  0
  7  8  1  0
  8  9  1  0
  9 10  1  0
 10 11  2  0
 11 12  1  0
 11 13  1  0
 13 14  1  0
 13 15  2  0
 15 16  1  0
 15 17  1  0
 17 18  1  0
 18 19  1  0
 18 20  1  0
 18 21  1  0
 17 22  2  0
 22 23  1  0
  9 24  2  0
 24 25  1  0
 24 26  1  0
 26 27  2  0
 26 28  1  0
 28 29  1  0
  6 30  1  0
 30 31  1  0
 30 32  2  0
 32 33  1  0
 32  2  1  0
 28  7  2  0
 22 10  1  0
M  END
>  <cnnaffinity>  (1) 
-5.47204

>  <filename>  (1) 
O=c1cc(-c2cccnc2)sc(-c2cccc(C(F)(F)F)c2)c1

$$$$
