
     RDKit          3D

 30 32  0  0  0  0  0  0  0  0999 V2000
    4.9728    1.9387   16.9663 H   0  0  0  0  0  0  0  0  0  0  0  0
    5.4318    1.3679   17.7682 C   0  0  0  0  0  0  0  0  0  0  0  0
    6.6215    0.7840   17.5418 N   0  0  0  0  0  0  0  0  0  0  0  0
    7.1726    0.0899   18.5553 C   0  0  0  0  0  0  0  0  0  0  0  0
    8.1526   -0.3511   18.4068 H   0  0  0  0  0  0  0  0  0  0  0  0
    6.5439   -0.1045   19.7999 C   0  0  0  0  0  0  0  0  0  0  0  0
    7.2000   -0.8265   20.8020 N   0  0  0  0  0  0  0  0  0  0  0  0
    8.5224   -0.4813   20.9007 N   0  0  0  0  0  0  0  0  0  0  0  0
    9.2879   -0.9925   21.8365 C   0  0  0  0  0  0  0  0  0  0  0  0
   10.6437   -0.4809   21.9360 C   0  0  0  0  0  0  0  0  0  0  0  0
   11.7197   -1.3405   22.2003 C   0  0  0  0  0  0  0  0  0  0  0  0
   11.5613   -2.4149   22.2459 H   0  0  0  0  0  0  0  0  0  0  0  0
   12.9920   -0.8040   22.3824 C   0  0  0  0  0  0  0  0  0  0  0  0
   13.8531   -1.4264   22.6040 H   0  0  0  0  0  0  0  0  0  0  0  0
   13.1662    0.5695   22.2823 C   0  0  0  0  0  0  0  0  0  0  0  0
   14.8259    1.2930   22.6978 Br  0  0  0  0  0  0  0  0  0  0  0  0
   12.1338    1.4189   21.9087 C   0  0  0  0  0  0  0  0  0  0  0  0
   12.3250    2.4777   21.7709 H   0  0  0  0  0  0  0  0  0  0  0  0
   10.8592    0.8998   21.7502 C   0  0  0  0  0  0  0  0  0  0  0  0
   10.0400    1.5749   21.5123 H   0  0  0  0  0  0  0  0  0  0  0  0
    8.7472   -1.9637   22.8071 C   0  0  0  0  0  0  0  0  0  0  0  0
    9.3991   -2.3270   23.5994 H   0  0  0  0  0  0  0  0  0  0  0  0
    7.4167   -2.3555   22.7054 C   0  0  0  0  0  0  0  0  0  0  0  0
    6.9699   -3.0607   23.4007 H   0  0  0  0  0  0  0  0  0  0  0  0
    6.5859   -1.7839   21.6371 C   0  0  0  0  0  0  0  0  0  0  0  0
    5.4604   -2.2443   21.4350 O   0  0  0  0  0  0  0  0  0  0  0  0
    5.3189    0.5080   20.0337 C   0  0  0  0  0  0  0  0  0  0  0  0
    4.8432    0.4298   21.0087 H   0  0  0  0  0  0  0  0  0  0  0  0
    4.7689    1.2678   18.9984 C   0  0  0  0  0  0  0  0  0  0  0  0
    3.8343    1.7956   19.1425 H   0  0  0  0  0  0  0  0  0  0  0  0
  1  2  1  0
  2  3  2  0
  3  4  1  0
  4  5  1  0
  4  6  2  0
  6  7  1  0
  7  8  1  0
  8  9  2  0
  9 10  1  0
 10 11  2  0
 11 12  1  0
 11 13  1  0
 13 14  1  0
 13 15  2  0
 15 16  1  0
 15 17  1  0
 17 18  1  0
 17 19  2  0
 19 20  1  0
  9 21  1  0
 21 22  1  0
 21 23  2  0
 23 24  1  0
 23 25  1  0
 25 26  2  0
  6 27  1  0
 27 28  1  0
 27 29  2  0
 29 30  1  0
 29  2  1  0
 25  7  1  0
 19 10  1  0
M  END
>  <cnnaffinity>  (1) 
-5.2992

>  <filename>  (1) 
O=c1ccc(-c2ccc(Br)cc2)nn1-c1cccnc1

$$$$
