
     RDKit          3D

 36 39  0  0  0  0  0  0  0  0999 V2000
    4.9141    1.7758   17.0001 H   0  0  0  0  0  0  0  0  0  0  0  0
    5.4039    1.2898   17.8425 C   0  0  0  0  0  0  0  0  0  0  0  0
    6.5709    0.6724   17.5793 N   0  0  0  0  0  0  0  0  0  0  0  0
    7.2000    0.0761   18.6007 C   0  0  0  0  0  0  0  0  0  0  0  0
    8.1402   -0.4261   18.3887 H   0  0  0  0  0  0  0  0  0  0  0  0
    6.6798    0.0320   19.9058 C   0  0  0  0  0  0  0  0  0  0  0  0
    7.3838   -0.6554   20.9502 N   0  0  0  0  0  0  0  0  0  0  0  0
    8.7132   -0.3320   21.0700 N   0  0  0  0  0  0  0  0  0  0  0  0
    9.4098   -0.9042   22.0337 C   0  0  0  0  0  0  0  0  0  0  0  0
   10.8526   -0.5522   22.1706 C   0  0  0  0  0  0  0  0  0  0  0  0
   11.7972   -1.5685   22.1718 C   0  0  0  0  0  0  0  0  0  0  0  0
   11.4895   -2.6109   22.1060 H   0  0  0  0  0  0  0  0  0  0  0  0
   13.1839   -1.2787   22.2286 C   0  0  0  0  0  0  0  0  0  0  0  0
   13.9021   -2.0941   22.2055 H   0  0  0  0  0  0  0  0  0  0  0  0
   13.6185    0.0213   22.3262 C   0  0  0  0  0  0  0  0  0  0  0  0
   14.6803    0.2590   22.3639 H   0  0  0  0  0  0  0  0  0  0  0  0
   12.6803    1.0948   22.3696 C   0  0  0  0  0  0  0  0  0  0  0  0
   13.1151    2.4500   22.4762 C   0  0  0  0  0  0  0  0  0  0  0  0
   14.1853    2.6478   22.5033 H   0  0  0  0  0  0  0  0  0  0  0  0
   12.2125    3.4818   22.5277 C   0  0  0  0  0  0  0  0  0  0  0  0
   12.5543    4.5109   22.5949 H   0  0  0  0  0  0  0  0  0  0  0  0
   10.8189    3.2111   22.5079 C   0  0  0  0  0  0  0  0  0  0  0  0
   10.1093    4.0322   22.5611 H   0  0  0  0  0  0  0  0  0  0  0  0
   10.3594    1.9190   22.4116 C   0  0  0  0  0  0  0  0  0  0  0  0
    9.2914    1.7174   22.3997 H   0  0  0  0  0  0  0  0  0  0  0  0
   11.2727    0.8159   22.3061 C   0  0  0  0  0  0  0  0  0  0  0  0
    8.8323   -1.8991   22.8992 C   0  0  0  0  0  0  0  0  0  0  0  0
    9.4497   -2.3444   23.6820 H   0  0  0  0  0  0  0  0  0  0  0  0
    7.5256   -2.2418   22.7603 C   0  0  0  0  0  0  0  0  0  0  0  0
    7.0202   -2.9858   23.3634 H   0  0  0  0  0  0  0  0  0  0  0  0
    6.6878   -1.6508   21.7276 C   0  0  0  0  0  0  0  0  0  0  0  0
    5.5356   -1.9765   21.4937 O   0  0  0  0  0  0  0  0  0  0  0  0
    5.4496    0.6481   20.1662 C   0  0  0  0  0  0  0  0  0  0  0  0
    5.0134    0.6139   21.1645 H   0  0  0  0  0  0  0  0  0  0  0  0
    4.8135    1.3099   19.1113 C   0  0  0  0  0  0  0  0  0  0  0  0
    3.8770    1.8405   19.2640 H   0  0  0  0  0  0  0  0  0  0  0  0
  1  2  1  0
  2  3  2  0
  3  4  1  0
  4  5  1  0
  4  6  2  0
  6  7  1  0
  7  8  1  0
  8  9  2  0
  9 10  1  0
 10 11  2  0
 11 12  1  0
 11 13  1  0
 13 14  1  0
 13 15  2  0
 15 16  1  0
 15 17  1  0
 17 18  2  0
 18 19  1  0
 18 20  1  0
 20 21  1  0
 20 22  2  0
 22 23  1  0
 22 24  1  0
 24 25  1  0
 24 26  2  0
  9 27  1  0
 27 28  1  0
 27 29  2  0
 29 30  1  0
 29 31  1  0
 31 32  2  0
  6 33  1  0
 33 34  1  0
 33 35  2  0
 35 36  1  0
 35  2  1  0
 31  7  1  0
 26 10  1  0
 26 17  1  0
M  END
>  <cnnaffinity>  (1) 
-5.29918

>  <filename>  (1) 
O=c1ccc(-c2cccc3ccccc23)nn1-c1cccnc1

$$$$
