
     RDKit          3D

 29 31  0  0  0  0  0  0  0  0999 V2000
    5.0545    1.8770   16.9125 H   0  0  0  0  0  0  0  0  0  0  0  0
    5.4961    1.3402   17.7517 C   0  0  0  0  0  0  0  0  0  0  0  0
    6.6933    0.7716   17.5293 N   0  0  0  0  0  0  0  0  0  0  0  0
    7.2938    0.1552   18.5529 C   0  0  0  0  0  0  0  0  0  0  0  0
    8.2951   -0.2245   18.3677 H   0  0  0  0  0  0  0  0  0  0  0  0
    6.6855   -0.0100   19.8114 C   0  0  0  0  0  0  0  0  0  0  0  0
    7.3722   -0.6980   20.8544 N   0  0  0  0  0  0  0  0  0  0  0  0
    8.6676   -0.2743   21.0377 N   0  0  0  0  0  0  0  0  0  0  0  0
    9.2859   -0.6835   22.1191 C   0  0  0  0  0  0  0  0  0  0  0  0
   10.4756   -0.0814   22.4223 N   0  0  0  0  0  0  0  0  0  0  0  0
   11.4083    0.3768   21.3867 C   0  0  0  0  0  0  0  0  0  0  0  0
   11.4288   -0.3282   20.5447 H   0  0  0  0  0  0  0  0  0  0  0  0
   11.2409    1.3966   21.0165 H   0  0  0  0  0  0  0  0  0  0  0  0
   12.5566    0.1539   22.3983 C   0  0  0  0  0  0  0  0  0  0  0  0
   12.8213    1.0888   22.9020 H   0  0  0  0  0  0  0  0  0  0  0  0
   13.4688   -0.3552   22.0703 H   0  0  0  0  0  0  0  0  0  0  0  0
   11.5480   -0.6954   23.1945 C   0  0  0  0  0  0  0  0  0  0  0  0
   11.4808   -0.5452   24.2789 H   0  0  0  0  0  0  0  0  0  0  0  0
   11.6512   -1.7690   22.9587 H   0  0  0  0  0  0  0  0  0  0  0  0
    8.7607   -1.7285   22.9772 C   0  0  0  0  0  0  0  0  0  0  0  0
    9.3695   -2.0752   23.8088 H   0  0  0  0  0  0  0  0  0  0  0  0
    7.5486   -2.2607   22.6896 C   0  0  0  0  0  0  0  0  0  0  0  0
    7.0933   -3.0830   23.2269 H   0  0  0  0  0  0  0  0  0  0  0  0
    6.7344   -1.7694   21.5751 C   0  0  0  0  0  0  0  0  0  0  0  0
    5.6496   -2.2360   21.2744 O   0  0  0  0  0  0  0  0  0  0  0  0
    5.4299    0.5617   20.0321 C   0  0  0  0  0  0  0  0  0  0  0  0
    4.9472    0.4633   21.0025 H   0  0  0  0  0  0  0  0  0  0  0  0
    4.8383    1.2762   18.9847 C   0  0  0  0  0  0  0  0  0  0  0  0
    3.8908    1.7864   19.1136 H   0  0  0  0  0  0  0  0  0  0  0  0
  1  2  1  0
  2  3  2  0
  3  4  1  0
  4  5  1  0
  4  6  2  0
  6  7  1  0
  7  8  1  0
  8  9  2  0
  9 10  1  0
 10 11  1  0
 11 12  1  0
 11 13  1  0
 11 14  1  0
 14 15  1  0
 14 16  1  0
 14 17  1  0
 17 18  1  0
 17 19  1  0
  9 20  1  0
 20 21  1  0
 20 22  2  0
 22 23  1  0
 22 24  1  0
 24 25  2  0
  6 26  1  0
 26 27  1  0
 26 28  2  0
 28 29  1  0
 28  2  1  0
 24  7  1  0
 17 10  1  0
M  END
>  <cnnaffinity>  (1) 
-4.41608

>  <filename>  (1) 
O=c1ccc(N2CCC2)nn1-c1cccnc1

$$$$
