
     RDKit          3D

 45 47  0  0  0  0  0  0  0  0999 V2000
    4.8301    1.9435   16.8472 H   0  0  0  0  0  0  0  0  0  0  0  0
    5.3067    1.4719   17.7015 C   0  0  0  0  0  0  0  0  0  0  0  0
    6.4901    0.8818   17.4583 N   0  0  0  0  0  0  0  0  0  0  0  0
    7.1044    0.3040   18.4961 C   0  0  0  0  0  0  0  0  0  0  0  0
    8.0524   -0.1915   18.2917 H   0  0  0  0  0  0  0  0  0  0  0  0
    6.5969    0.2927   19.8139 C   0  0  0  0  0  0  0  0  0  0  0  0
    7.3125   -0.3503   20.8702 N   0  0  0  0  0  0  0  0  0  0  0  0
    7.3052   -1.7559   20.8675 C   0  0  0  0  0  0  0  0  0  0  0  0
    6.3351   -2.3999   20.4956 O   0  0  0  0  0  0  0  0  0  0  0  0
    8.5006   -2.3539   21.2860 N   0  0  0  0  0  0  0  0  0  0  0  0
    8.5284   -3.7257   21.6585 N   0  0  0  0  0  0  0  0  0  0  0  0
    8.0377   -4.2510   20.9297 H   0  0  0  0  0  0  0  0  0  0  0  0
    7.8517   -3.9272   22.9500 C   0  0  0  0  0  0  0  0  0  0  0  0
    6.7562   -3.8934   22.8292 H   0  0  0  0  0  0  0  0  0  0  0  0
    8.1189   -3.0871   23.6009 H   0  0  0  0  0  0  0  0  0  0  0  0
    8.3017   -5.2460   23.5813 C   0  0  0  0  0  0  0  0  0  0  0  0
    8.1341   -6.0535   22.8526 H   0  0  0  0  0  0  0  0  0  0  0  0
    9.3816   -5.1905   23.7559 H   0  0  0  0  0  0  0  0  0  0  0  0
    7.5628   -5.5736   24.8603 C   0  0  0  0  0  0  0  0  0  0  0  0
    6.1899   -5.8709   24.8030 C   0  0  0  0  0  0  0  0  0  0  0  0
    5.6860   -5.8397   23.8392 H   0  0  0  0  0  0  0  0  0  0  0  0
    5.4833   -6.2422   25.9486 C   0  0  0  0  0  0  0  0  0  0  0  0
    4.4194   -6.4604   25.8844 H   0  0  0  0  0  0  0  0  0  0  0  0
    6.1440   -6.3240   27.1788 C   0  0  0  0  0  0  0  0  0  0  0  0
    5.6073   -6.6460   28.0679 H   0  0  0  0  0  0  0  0  0  0  0  0
    7.5015   -5.9967   27.2563 C   0  0  0  0  0  0  0  0  0  0  0  0
    8.0272   -6.0780   28.2020 H   0  0  0  0  0  0  0  0  0  0  0  0
    8.2047   -5.6195   26.1060 C   0  0  0  0  0  0  0  0  0  0  0  0
    9.2596   -5.3594   26.1772 H   0  0  0  0  0  0  0  0  0  0  0  0
    9.8086   -1.6878   21.2856 C   0  0  0  0  0  0  0  0  0  0  0  0
    9.9831   -1.1888   20.3239 H   0  0  0  0  0  0  0  0  0  0  0  0
   10.5536   -2.4856   21.3761 H   0  0  0  0  0  0  0  0  0  0  0  0
    9.9874   -0.6712   22.4208 C   0  0  0  0  0  0  0  0  0  0  0  0
   11.0466   -0.3857   22.4547 H   0  0  0  0  0  0  0  0  0  0  0  0
    9.7626   -1.1852   23.3683 H   0  0  0  0  0  0  0  0  0  0  0  0
    9.1467    0.6076   22.2819 C   0  0  0  0  0  0  0  0  0  0  0  0
    9.5003    1.2234   21.4433 H   0  0  0  0  0  0  0  0  0  0  0  0
    9.2929    1.2197   23.1822 H   0  0  0  0  0  0  0  0  0  0  0  0
    7.6412    0.3786   22.1056 C   0  0  0  0  0  0  0  0  0  0  0  0
    7.1370    1.3538   22.0720 H   0  0  0  0  0  0  0  0  0  0  0  0
    7.2446   -0.1730   22.9735 H   0  0  0  0  0  0  0  0  0  0  0  0
    5.3503    0.8859   20.0395 C   0  0  0  0  0  0  0  0  0  0  0  0
    4.9158    0.8478   21.0404 H   0  0  0  0  0  0  0  0  0  0  0  0
    4.6902    1.4851   18.9586 C   0  0  0  0  0  0  0  0  0  0  0  0
    3.7260    1.9667   19.0860 H   0  0  0  0  0  0  0  0  0  0  0  0
  1  2  1  0
  2  3  2  0
  3  4  1  0
  4  5  1  0
  4  6  2  0
  6  7  1  0
  7  8  1  0
  8  9  2  0
  8 10  1  0
 10 11  1  0
 11 12  1  0
 11 13  1  0
 13 14  1  0
 13 15  1  0
 13 16  1  0
 16 17  1  0
 16 18  1  0
 16 19  1  0
 19 20  2  0
 20 21  1  0
 20 22  1  0
 22 23  1  0
 22 24  2  0
 24 25  1  0
 24 26  1  0
 26 27  1  0
 26 28  2  0
 28 29  1  0
 10 30  1  0
 30 31  1  0
 30 32  1  0
 30 33  1  0
 33 34  1  0
 33 35  1  0
 33 36  1  0
 36 37  1  0
 36 38  1  0
 36 39  1  0
 39 40  1  0
 39 41  1  0
  6 42  1  0
 42 43  1  0
 42 44  2  0
 44 45  1  0
 44  2  1  0
 39  7  1  0
 28 19  1  0
M  END
>  <cnnaffinity>  (1) 
-5.30064

>  <filename>  (1) 
O=C1N(NCCc2ccccc2)CCCCN1c1cccnc1

$$$$
