
     RDKit          3D

 35 37  0  0  0  0  0  0  0  0999 V2000
    4.9644    1.8602   16.8067 H   0  0  0  0  0  0  0  0  0  0  0  0
    5.4608    1.3648   17.6383 C   0  0  0  0  0  0  0  0  0  0  0  0
    6.6073    0.7223   17.3631 N   0  0  0  0  0  0  0  0  0  0  0  0
    7.2394    0.1239   18.3828 C   0  0  0  0  0  0  0  0  0  0  0  0
    8.1655   -0.3858   18.1109 H   0  0  0  0  0  0  0  0  0  0  0  0
    6.7631    0.1073   19.7047 C   0  0  0  0  0  0  0  0  0  0  0  0
    7.5265   -0.5646   20.7963 C   0  0  0  0  0  0  0  0  0  0  0  0
    6.5396   -1.4860   21.9159 S   0  0  0  0  0  0  0  0  0  0  0  0
    7.6384   -1.8761   23.2143 C   0  0  0  0  0  0  0  0  0  0  0  0
    6.9697   -2.7184   24.2958 C   0  0  0  0  0  0  0  0  0  0  0  0
    7.6789   -2.9174   25.1260 H   0  0  0  0  0  0  0  0  0  0  0  0
    6.1441   -2.1425   24.7379 H   0  0  0  0  0  0  0  0  0  0  0  0
    6.4402   -3.9423   23.7075 N   0  0  0  0  0  0  0  0  0  0  0  0
    5.5855   -4.7653   24.5430 C   0  0  0  0  0  0  0  0  0  0  0  0
    4.6552   -4.2361   24.7989 H   0  0  0  0  0  0  0  0  0  0  0  0
    6.0855   -5.0499   25.4914 H   0  0  0  0  0  0  0  0  0  0  0  0
    5.3593   -6.0197   23.6797 C   0  0  0  0  0  0  0  0  0  0  0  0
    4.4472   -5.9304   23.0824 H   0  0  0  0  0  0  0  0  0  0  0  0
    5.2494   -6.9108   24.2988 H   0  0  0  0  0  0  0  0  0  0  0  0
    6.6019   -6.0945   22.7611 C   0  0  0  0  0  0  0  0  0  0  0  0
    7.1998   -6.9980   22.9186 H   0  0  0  0  0  0  0  0  0  0  0  0
    6.3057   -6.0797   21.7085 H   0  0  0  0  0  0  0  0  0  0  0  0
    7.4225   -4.8422   23.1106 C   0  0  0  0  0  0  0  0  0  0  0  0
    8.2424   -5.0950   23.8124 H   0  0  0  0  0  0  0  0  0  0  0  0
    7.8975   -4.3784   22.2370 H   0  0  0  0  0  0  0  0  0  0  0  0
    8.9530   -1.5816   23.1823 C   0  0  0  0  0  0  0  0  0  0  0  0
    9.6045   -1.8572   24.0064 H   0  0  0  0  0  0  0  0  0  0  0  0
    9.6613   -0.9761   22.0364 C   0  0  0  0  0  0  0  0  0  0  0  0
   10.8809   -0.8972   22.0292 O   0  0  0  0  0  0  0  0  0  0  0  0
    8.8688   -0.4762   20.9059 C   0  0  0  0  0  0  0  0  0  0  0  0
    9.4616    0.0285   20.1544 H   0  0  0  0  0  0  0  0  0  0  0  0
    5.5559    0.7812   19.9678 C   0  0  0  0  0  0  0  0  0  0  0  0
    5.1765    0.8108   20.9898 H   0  0  0  0  0  0  0  0  0  0  0  0
    4.8973    1.4210   18.9176 C   0  0  0  0  0  0  0  0  0  0  0  0
    3.9734    1.9597   19.0899 H   0  0  0  0  0  0  0  0  0  0  0  0
  1  2  1  0
  2  3  2  0
  3  4  1  0
  4  5  1  0
  4  6  2  0
  6  7  1  0
  7  8  1  0
  8  9  1  0
  9 10  1  0
 10 11  1  0
 10 12  1  0
 10 13  1  0
 13 14  1  0
 14 15  1  0
 14 16  1  0
 14 17  1  0
 17 18  1  0
 17 19  1  0
 17 20  1  0
 20 21  1  0
 20 22  1  0
 20 23  1  0
 23 24  1  0
 23 25  1  0
  9 26  2  0
 26 27  1  0
 26 28  1  0
 28 29  2  0
 28 30  1  0
 30 31  1  0
  6 32  1  0
 32 33  1  0
 32 34  2  0
 34 35  1  0
 34  2  1  0
 30  7  2  0
 23 13  1  0
M  END
>  <cnnaffinity>  (1) 
-5.26557

>  <filename>  (1) 
O=c1cc(CN2CCCC2)sc(-c2cccnc2)c1

$$$$
