
     RDKit          3D

 35 38  0  0  0  0  0  0  0  0999 V2000
    4.9105    1.7748   17.0022 H   0  0  0  0  0  0  0  0  0  0  0  0
    5.4018    1.2928   17.8441 C   0  0  0  0  0  0  0  0  0  0  0  0
    6.5662    0.6756   17.5842 N   0  0  0  0  0  0  0  0  0  0  0  0
    7.1765    0.0542   18.5998 C   0  0  0  0  0  0  0  0  0  0  0  0
    8.1263   -0.4295   18.3831 H   0  0  0  0  0  0  0  0  0  0  0  0
    6.6444   -0.0096   19.9025 C   0  0  0  0  0  0  0  0  0  0  0  0
    7.3259   -0.7175   20.9481 N   0  0  0  0  0  0  0  0  0  0  0  0
    6.5634   -1.6226   21.6535 N   0  0  0  0  0  0  0  0  0  0  0  0
    7.1381   -2.2966   22.6237 C   0  0  0  0  0  0  0  0  0  0  0  0
    6.3122   -3.2689   23.3936 C   0  0  0  0  0  0  0  0  0  0  0  0
    5.1843   -3.8860   22.7664 C   0  0  0  0  0  0  0  0  0  0  0  0
    4.9668   -3.6319   21.7316 H   0  0  0  0  0  0  0  0  0  0  0  0
    4.3913   -4.7605   23.3484 N   0  0  0  0  0  0  0  0  0  0  0  0
    4.6567   -5.0948   24.6589 C   0  0  0  0  0  0  0  0  0  0  0  0
    3.8110   -6.0333   25.3316 C   0  0  0  0  0  0  0  0  0  0  0  0
    2.9792   -6.4535   24.7790 H   0  0  0  0  0  0  0  0  0  0  0  0
    4.0510   -6.3862   26.6463 C   0  0  0  0  0  0  0  0  0  0  0  0
    3.4063   -7.1008   27.1580 H   0  0  0  0  0  0  0  0  0  0  0  0
    5.1486   -5.8194   27.3563 C   0  0  0  0  0  0  0  0  0  0  0  0
    5.3237   -6.1072   28.3912 H   0  0  0  0  0  0  0  0  0  0  0  0
    5.9835   -4.9156   26.7441 C   0  0  0  0  0  0  0  0  0  0  0  0
    6.8252   -4.4754   27.2770 H   0  0  0  0  0  0  0  0  0  0  0  0
    5.7554   -4.5344   25.3840 C   0  0  0  0  0  0  0  0  0  0  0  0
    6.5823   -3.6044   24.7057 C   0  0  0  0  0  0  0  0  0  0  0  0
    7.4046   -3.1592   25.2650 H   0  0  0  0  0  0  0  0  0  0  0  0
    8.5319   -2.1170   22.9598 C   0  0  0  0  0  0  0  0  0  0  0  0
    8.9931   -2.7145   23.7427 H   0  0  0  0  0  0  0  0  0  0  0  0
    9.2783   -1.2107   22.2729 C   0  0  0  0  0  0  0  0  0  0  0  0
   10.3208   -1.0117   22.4720 H   0  0  0  0  0  0  0  0  0  0  0  0
    8.7122   -0.4049   21.2041 C   0  0  0  0  0  0  0  0  0  0  0  0
    9.3270    0.4356   20.5702 O   0  0  0  0  0  0  0  0  0  0  0  0
    5.4383    0.6451   20.1643 C   0  0  0  0  0  0  0  0  0  0  0  0
    5.0169    0.6110   21.1687 H   0  0  0  0  0  0  0  0  0  0  0  0
    4.8079    1.3156   19.1128 C   0  0  0  0  0  0  0  0  0  0  0  0
    3.8722    1.8462   19.2662 H   0  0  0  0  0  0  0  0  0  0  0  0
  1  2  1  0
  2  3  2  0
  3  4  1  0
  4  5  1  0
  4  6  2  0
  6  7  1  0
  7  8  1  0
  8  9  2  0
  9 10  1  0
 10 11  2  0
 11 12  1  0
 11 13  1  0
 13 14  2  0
 14 15  1  0
 15 16  1  0
 15 17  2  0
 17 18  1  0
 17 19  1  0
 19 20  1  0
 19 21  2  0
 21 22  1  0
 21 23  1  0
 23 24  2  0
 24 25  1  0
  9 26  1  0
 26 27  1  0
 26 28  2  0
 28 29  1  0
 28 30  1  0
 30 31  2  0
  6 32  1  0
 32 33  1  0
 32 34  2  0
 34 35  1  0
 34  2  1  0
 30  7  1  0
 24 10  1  0
 23 14  1  0
M  END
>  <cnnaffinity>  (1) 
-5.60499

>  <filename>  (1) 
O=c1ccc(-c2cnc3ccccc3c2)nn1-c1cccnc1

$$$$
