
     RDKit          3D

 30 32  0  0  0  0  0  0  0  0999 V2000
    4.9832    1.9566   16.9100 H   0  0  0  0  0  0  0  0  0  0  0  0
    5.4458    1.3841   17.7091 C   0  0  0  0  0  0  0  0  0  0  0  0
    6.6483    0.8194   17.4933 N   0  0  0  0  0  0  0  0  0  0  0  0
    7.2210    0.1406   18.4995 C   0  0  0  0  0  0  0  0  0  0  0  0
    8.2181   -0.2667   18.3525 H   0  0  0  0  0  0  0  0  0  0  0  0
    6.5900   -0.0614   19.7320 C   0  0  0  0  0  0  0  0  0  0  0  0
    7.2954   -0.7905   20.7767 C   0  0  0  0  0  0  0  0  0  0  0  0
    8.5258   -0.3747   20.9978 N   0  0  0  0  0  0  0  0  0  0  0  0
    9.2571   -0.8988   22.0305 N   0  0  0  0  0  0  0  0  0  0  0  0
   10.5943   -0.5027   22.1260 C   0  0  0  0  0  0  0  0  0  0  0  0
   10.9638    0.8269   22.3875 C   0  0  0  0  0  0  0  0  0  0  0  0
   10.1975    1.5718   22.5700 H   0  0  0  0  0  0  0  0  0  0  0  0
   12.3165    1.2047   22.4073 C   0  0  0  0  0  0  0  0  0  0  0  0
   12.5867    2.2474   22.5611 H   0  0  0  0  0  0  0  0  0  0  0  0
   13.3105    0.2405   22.1958 C   0  0  0  0  0  0  0  0  0  0  0  0
   14.3644    0.5131   22.2192 H   0  0  0  0  0  0  0  0  0  0  0  0
   12.9319   -1.0660   21.8724 C   0  0  0  0  0  0  0  0  0  0  0  0
   14.1994   -2.3681   21.3781 Br  0  0  0  0  0  0  0  0  0  0  0  0
   11.5919   -1.4297   21.8498 C   0  0  0  0  0  0  0  0  0  0  0  0
   11.3288   -2.4446   21.5853 H   0  0  0  0  0  0  0  0  0  0  0  0
    8.7508   -1.8758   22.9037 C   0  0  0  0  0  0  0  0  0  0  0  0
    9.3692   -2.1901   23.7388 H   0  0  0  0  0  0  0  0  0  0  0  0
    7.4877   -2.3960   22.7094 C   0  0  0  0  0  0  0  0  0  0  0  0
    7.0733   -3.1629   23.3551 H   0  0  0  0  0  0  0  0  0  0  0  0
    6.6924   -1.8840   21.5999 C   0  0  0  0  0  0  0  0  0  0  0  0
    5.6137   -2.4255   21.3491 O   0  0  0  0  0  0  0  0  0  0  0  0
    5.3477    0.5237   19.9688 C   0  0  0  0  0  0  0  0  0  0  0  0
    4.8553    0.4372   20.9368 H   0  0  0  0  0  0  0  0  0  0  0  0
    4.7874    1.2710   18.9377 C   0  0  0  0  0  0  0  0  0  0  0  0
    3.8456    1.7848   19.0809 H   0  0  0  0  0  0  0  0  0  0  0  0
  1  2  1  0
  2  3  2  0
  3  4  1  0
  4  5  1  0
  4  6  2  0
  6  7  1  0
  7  8  2  0
  8  9  1  0
  9 10  1  0
 10 11  2  0
 11 12  1  0
 11 13  1  0
 13 14  1  0
 13 15  2  0
 15 16  1  0
 15 17  1  0
 17 18  1  0
 17 19  2  0
 19 20  1  0
  9 21  1  0
 21 22  1  0
 21 23  2  0
 23 24  1  0
 23 25  1  0
 25 26  2  0
  6 27  1  0
 27 28  1  0
 27 29  2  0
 29 30  1  0
 29  2  1  0
 25  7  1  0
 19 10  1  0
M  END
>  <cnnaffinity>  (1) 
-5.58321

>  <filename>  (1) 
O=c1ccn(-c2cccc(Br)c2)nc1-c1cccnc1

$$$$
