
     RDKit          3D

 32 35  0  0  0  0  0  0  0  0999 V2000
    4.9130    1.7768   17.0002 H   0  0  0  0  0  0  0  0  0  0  0  0
    5.4019    1.2934   17.8431 C   0  0  0  0  0  0  0  0  0  0  0  0
    6.5647    0.6741   17.5829 N   0  0  0  0  0  0  0  0  0  0  0  0
    7.1735    0.0525   18.5987 C   0  0  0  0  0  0  0  0  0  0  0  0
    8.1242   -0.4281   18.3840 H   0  0  0  0  0  0  0  0  0  0  0  0
    6.6422   -0.0094   19.8982 C   0  0  0  0  0  0  0  0  0  0  0  0
    7.3265   -0.7190   20.9453 N   0  0  0  0  0  0  0  0  0  0  0  0
    6.5716   -1.6045   21.6537 N   0  0  0  0  0  0  0  0  0  0  0  0
    7.1594   -2.2815   22.6138 C   0  0  0  0  0  0  0  0  0  0  0  0
    6.3625   -3.2668   23.3857 C   0  0  0  0  0  0  0  0  0  0  0  0
    6.8104   -3.9971   24.3578 N   0  0  0  0  0  0  0  0  0  0  0  0
    5.7144   -4.7492   24.7527 C   0  0  0  0  0  0  0  0  0  0  0  0
    5.5586   -5.7185   25.7549 C   0  0  0  0  0  0  0  0  0  0  0  0
    6.4093   -5.9794   26.3792 H   0  0  0  0  0  0  0  0  0  0  0  0
    4.3006   -6.3079   25.9047 C   0  0  0  0  0  0  0  0  0  0  0  0
    4.1558   -7.0614   26.6774 H   0  0  0  0  0  0  0  0  0  0  0  0
    3.2191   -5.9372   25.0710 C   0  0  0  0  0  0  0  0  0  0  0  0
    2.2502   -6.4101   25.2092 H   0  0  0  0  0  0  0  0  0  0  0  0
    3.3682   -4.9711   24.0687 C   0  0  0  0  0  0  0  0  0  0  0  0
    2.5599   -4.6652   23.4135 H   0  0  0  0  0  0  0  0  0  0  0  0
    4.6280   -4.4025   23.9415 C   0  0  0  0  0  0  0  0  0  0  0  0
    5.0506   -3.4546   23.0595 O   0  0  0  0  0  0  0  0  0  0  0  0
    8.5464   -2.1037   22.9678 C   0  0  0  0  0  0  0  0  0  0  0  0
    8.9779   -2.6897   23.7813 H   0  0  0  0  0  0  0  0  0  0  0  0
    9.2823   -1.1973   22.2830 C   0  0  0  0  0  0  0  0  0  0  0  0
   10.3249   -0.9893   22.4840 H   0  0  0  0  0  0  0  0  0  0  0  0
    8.7144   -0.4005   21.2068 C   0  0  0  0  0  0  0  0  0  0  0  0
    9.3254    0.4383   20.5688 O   0  0  0  0  0  0  0  0  0  0  0  0
    5.4364    0.6451   20.1644 C   0  0  0  0  0  0  0  0  0  0  0  0
    5.0157    0.6096   21.1697 H   0  0  0  0  0  0  0  0  0  0  0  0
    4.8084    1.3165   19.1115 C   0  0  0  0  0  0  0  0  0  0  0  0
    3.8731    1.8460   19.2649 H   0  0  0  0  0  0  0  0  0  0  0  0
  1  2  1  0
  2  3  2  0
  3  4  1  0
  4  5  1  0
  4  6  2  0
  6  7  1  0
  7  8  1  0
  8  9  2  0
  9 10  1  0
 10 11  2  0
 11 12  1  0
 12 13  2  0
 13 14  1  0
 13 15  1  0
 15 16  1  0
 15 17  2  0
 17 18  1  0
 17 19  1  0
 19 20  1  0
 19 21  2  0
 21 22  1  0
  9 23  1  0
 23 24  1  0
 23 25  2  0
 25 26  1  0
 25 27  1  0
 27 28  2  0
  6 29  1  0
 29 30  1  0
 29 31  2  0
 31 32  1  0
 31  2  1  0
 27  7  1  0
 22 10  1  0
 21 12  1  0
M  END
>  <cnnaffinity>  (1) 
-5.51851

>  <filename>  (1) 
O=c1ccc(-c2nc3ccccc3o2)nn1-c1cccnc1

$$$$
