
     RDKit          3D

 37 39  0  0  0  0  0  0  0  0999 V2000
    5.0184    1.8496   16.9762 H   0  0  0  0  0  0  0  0  0  0  0  0
    5.4912    1.3128   17.7949 C   0  0  0  0  0  0  0  0  0  0  0  0
    6.6705    0.7290   17.5195 N   0  0  0  0  0  0  0  0  0  0  0  0
    7.2762    0.0604   18.5050 C   0  0  0  0  0  0  0  0  0  0  0  0
    8.2406   -0.3876   18.2705 H   0  0  0  0  0  0  0  0  0  0  0  0
    6.7267   -0.0942   19.7961 C   0  0  0  0  0  0  0  0  0  0  0  0
    7.4002   -0.8401   20.7970 N   0  0  0  0  0  0  0  0  0  0  0  0
    6.8824   -1.7520   21.7433 C   0  0  0  0  0  0  0  0  0  0  0  0
    5.7596   -2.2196   21.7520 O   0  0  0  0  0  0  0  0  0  0  0  0
    8.0267   -2.0449   22.6017 C   0  0  0  0  0  0  0  0  0  0  0  0
    7.8310   -2.8555   23.8429 C   0  0  0  0  0  0  0  0  0  0  0  0
    7.2446   -3.7466   23.5708 H   0  0  0  0  0  0  0  0  0  0  0  0
    8.8027   -3.2354   24.2363 H   0  0  0  0  0  0  0  0  0  0  0  0
    7.0518   -2.1302   24.8515 N   0  0  0  0  0  0  0  0  0  0  0  0
    7.8024   -1.0176   25.4580 C   0  0  0  0  0  0  0  0  0  0  0  0
    8.1529   -0.3512   24.6636 H   0  0  0  0  0  0  0  0  0  0  0  0
    8.7075   -1.3800   25.9932 H   0  0  0  0  0  0  0  0  0  0  0  0
    6.9405   -0.2364   26.4561 C   0  0  0  0  0  0  0  0  0  0  0  0
    6.0962    0.2267   25.9339 H   0  0  0  0  0  0  0  0  0  0  0  0
    7.5270    0.5780   26.8974 H   0  0  0  0  0  0  0  0  0  0  0  0
    6.4258   -1.1838   27.5391 C   0  0  0  0  0  0  0  0  0  0  0  0
    7.2999   -1.6137   28.0351 H   0  0  0  0  0  0  0  0  0  0  0  0
    5.8498   -0.6688   28.3133 H   0  0  0  0  0  0  0  0  0  0  0  0
    5.6392   -2.3221   26.8923 C   0  0  0  0  0  0  0  0  0  0  0  0
    5.2930   -3.0406   27.6443 H   0  0  0  0  0  0  0  0  0  0  0  0
    4.7469   -1.9253   26.3957 H   0  0  0  0  0  0  0  0  0  0  0  0
    6.5178   -3.0429   25.8698 C   0  0  0  0  0  0  0  0  0  0  0  0
    7.3314   -3.5638   26.4195 H   0  0  0  0  0  0  0  0  0  0  0  0
    5.9275   -3.8167   25.3659 H   0  0  0  0  0  0  0  0  0  0  0  0
    9.1024   -1.4200   22.0898 C   0  0  0  0  0  0  0  0  0  0  0  0
   10.1157   -1.3919   22.4696 H   0  0  0  0  0  0  0  0  0  0  0  0
    8.7968   -0.7547   20.8980 N   0  0  0  0  0  0  0  0  0  0  0  0
    9.1136    0.2067   20.8105 H   0  0  0  0  0  0  0  0  0  0  0  0
    5.5070    0.5380   20.0781 C   0  0  0  0  0  0  0  0  0  0  0  0
    5.0884    0.4819   21.0826 H   0  0  0  0  0  0  0  0  0  0  0  0
    4.8818    1.2558   19.0529 C   0  0  0  0  0  0  0  0  0  0  0  0
    3.9489    1.7849   19.2203 H   0  0  0  0  0  0  0  0  0  0  0  0
  1  2  1  0
  2  3  2  0
  3  4  1  0
  4  5  1  0
  4  6  2  0
  6  7  1  0
  7  8  1  0
  8  9  2  0
  8 10  1  0
 10 11  1  0
 11 12  1  0
 11 13  1  0
 11 14  1  0
 14 15  1  0
 15 16  1  0
 15 17  1  0
 15 18  1  0
 18 19  1  0
 18 20  1  0
 18 21  1  0
 21 22  1  0
 21 23  1  0
 21 24  1  0
 24 25  1  0
 24 26  1  0
 24 27  1  0
 27 28  1  0
 27 29  1  0
 10 30  2  0
 30 31  1  0
 30 32  1  0
 32 33  1  0
  6 34  1  0
 34 35  1  0
 34 36  2  0
 36 37  1  0
 36  2  1  0
 32  7  1  0
 27 14  1  0
M  END
>  <cnnaffinity>  (1) 
-4.96033

>  <filename>  (1) 
O=c1c(CN2CCCCC2)c[nH]n1-c1cccnc1

$$$$
