
     RDKit          3D

 31 33  0  0  0  0  0  0  0  0999 V2000
    4.9202    1.7815   16.9967 H   0  0  0  0  0  0  0  0  0  0  0  0
    5.4055    1.2901   17.8363 C   0  0  0  0  0  0  0  0  0  0  0  0
    6.5719    0.6752   17.5727 N   0  0  0  0  0  0  0  0  0  0  0  0
    7.1645    0.0419   18.5901 C   0  0  0  0  0  0  0  0  0  0  0  0
    8.1234   -0.4281   18.3680 H   0  0  0  0  0  0  0  0  0  0  0  0
    6.6420   -0.0117   19.8934 C   0  0  0  0  0  0  0  0  0  0  0  0
    7.3730   -0.6720   20.9797 C   0  0  0  0  0  0  0  0  0  0  0  0
    7.7103   -0.0601   22.1759 C   0  0  0  0  0  0  0  0  0  0  0  0
    7.4832    1.3872   22.4195 C   0  0  0  0  0  0  0  0  0  0  0  0
    7.9916    2.3561   21.5401 C   0  0  0  0  0  0  0  0  0  0  0  0
    8.5415    2.0269   20.6632 H   0  0  0  0  0  0  0  0  0  0  0  0
    7.7876    3.7075   21.8051 C   0  0  0  0  0  0  0  0  0  0  0  0
    8.2004    4.4950   21.1885 H   0  0  0  0  0  0  0  0  0  0  0  0
    7.0386    4.1109   22.9088 C   0  0  0  0  0  0  0  0  0  0  0  0
    6.7876    5.8069   23.1387 Cl  0  0  0  0  0  0  0  0  0  0  0  0
    6.5365    3.1499   23.7956 C   0  0  0  0  0  0  0  0  0  0  0  0
    5.6479    3.6098   25.2032 Cl  0  0  0  0  0  0  0  0  0  0  0  0
    6.7747    1.7970   23.5546 C   0  0  0  0  0  0  0  0  0  0  0  0
    6.3826    1.0651   24.2533 H   0  0  0  0  0  0  0  0  0  0  0  0
    8.3391   -0.8549   23.1900 C   0  0  0  0  0  0  0  0  0  0  0  0
    8.6005   -0.3618   24.1323 H   0  0  0  0  0  0  0  0  0  0  0  0
    8.6289   -2.1658   22.9718 C   0  0  0  0  0  0  0  0  0  0  0  0
    9.1066   -2.7990   23.7030 H   0  0  0  0  0  0  0  0  0  0  0  0
    8.3023   -2.8242   21.7137 C   0  0  0  0  0  0  0  0  0  0  0  0
    8.4873   -3.9947   21.4269 O   0  0  0  0  0  0  0  0  0  0  0  0
    7.7178   -1.9861   20.7811 N   0  0  0  0  0  0  0  0  0  0  0  0
    7.4630   -2.4757   19.9397 H   0  0  0  0  0  0  0  0  0  0  0  0
    5.4293    0.6498   20.1575 C   0  0  0  0  0  0  0  0  0  0  0  0
    5.0119    0.6380   21.1715 H   0  0  0  0  0  0  0  0  0  0  0  0
    4.8016    1.3050   19.1010 C   0  0  0  0  0  0  0  0  0  0  0  0
    3.8726    1.8446   19.2552 H   0  0  0  0  0  0  0  0  0  0  0  0
  1  2  1  0
  2  3  2  0
  3  4  1  0
  4  5  1  0
  4  6  2  0
  6  7  1  0
  7  8  2  0
  8  9  1  0
  9 10  2  0
 10 11  1  0
 10 12  1  0
 12 13  1  0
 12 14  2  0
 14 15  1  0
 14 16  1  0
 16 17  1  0
 16 18  2  0
 18 19  1  0
  8 20  1  0
 20 21  1  0
 20 22  2  0
 22 23  1  0
 22 24  1  0
 24 25  2  0
 24 26  1  0
 26 27  1  0
  6 28  1  0
 28 29  1  0
 28 30  2  0
 30 31  1  0
 30  2  1  0
 26  7  1  0
 18  9  1  0
M  END
>  <cnnaffinity>  (1) 
-5.45171

>  <filename>  (1) 
O=c1ccc(-c2ccc(Cl)c(Cl)c2)c(-c2cccnc2)[nH]1

$$$$
