
     RDKit          3D

 28 30  0  0  0  0  0  0  0  0999 V2000
    4.9351    1.7936   16.9873 H   0  0  0  0  0  0  0  0  0  0  0  0
    5.4043    1.2974   17.8348 C   0  0  0  0  0  0  0  0  0  0  0  0
    6.5671    0.6770   17.5814 N   0  0  0  0  0  0  0  0  0  0  0  0
    7.1636    0.0512   18.5998 C   0  0  0  0  0  0  0  0  0  0  0  0
    8.1103   -0.4357   18.3682 H   0  0  0  0  0  0  0  0  0  0  0  0
    6.6448    0.0164   19.9028 C   0  0  0  0  0  0  0  0  0  0  0  0
    7.3906   -0.7057   20.9269 C   0  0  0  0  0  0  0  0  0  0  0  0
    8.0407   -1.8039   20.6878 N   0  0  0  0  0  0  0  0  0  0  0  0
    8.5200   -2.1778   21.9104 N   0  0  0  0  0  0  0  0  0  0  0  0
    9.0657   -3.0043   22.0760 H   0  0  0  0  0  0  0  0  0  0  0  0
    8.2267   -1.3191   22.9200 C   0  0  0  0  0  0  0  0  0  0  0  0
    8.5714   -1.4042   24.0818 O   0  0  0  0  0  0  0  0  0  0  0  0
    7.4583   -0.3442   22.2615 N   0  0  0  0  0  0  0  0  0  0  0  0
    7.0355    0.8667   22.8778 C   0  0  0  0  0  0  0  0  0  0  0  0
    6.1174    0.7784   23.9304 C   0  0  0  0  0  0  0  0  0  0  0  0
    5.8159   -0.2154   24.2466 H   0  0  0  0  0  0  0  0  0  0  0  0
    5.6283    1.9224   24.5579 C   0  0  0  0  0  0  0  0  0  0  0  0
    4.9238    1.8588   25.3778 H   0  0  0  0  0  0  0  0  0  0  0  0
    6.0783    3.1718   24.1295 C   0  0  0  0  0  0  0  0  0  0  0  0
    5.4840    4.6043   24.9090 Cl  0  0  0  0  0  0  0  0  0  0  0  0
    7.0044    3.2910   23.0955 C   0  0  0  0  0  0  0  0  0  0  0  0
    7.3411    4.2697   22.7740 H   0  0  0  0  0  0  0  0  0  0  0  0
    7.4898    2.1382   22.4708 C   0  0  0  0  0  0  0  0  0  0  0  0
    8.6477    2.3273   21.1938 Cl  0  0  0  0  0  0  0  0  0  0  0  0
    5.4275    0.6624   20.1544 C   0  0  0  0  0  0  0  0  0  0  0  0
    4.9965    0.6493   21.1578 H   0  0  0  0  0  0  0  0  0  0  0  0
    4.8006    1.3148   19.0978 C   0  0  0  0  0  0  0  0  0  0  0  0
    3.8689    1.8467   19.2416 H   0  0  0  0  0  0  0  0  0  0  0  0
  1  2  1  0
  2  3  2  0
  3  4  1  0
  4  5  1  0
  4  6  2  0
  6  7  1  0
  7  8  2  0
  8  9  1  0
  9 10  1  0
  9 11  1  0
 11 12  2  0
 11 13  1  0
 13 14  1  0
 14 15  2  0
 15 16  1  0
 15 17  1  0
 17 18  1  0
 17 19  2  0
 19 20  1  0
 19 21  1  0
 21 22  1  0
 21 23  2  0
 23 24  1  0
  6 25  1  0
 25 26  1  0
 25 27  2  0
 27 28  1  0
 27  2  1  0
 13  7  1  0
 23 14  1  0
M  END
>  <cnnaffinity>  (1) 
-5.2474

>  <filename>  (1) 
O=c1[nH]nc(-c2cccnc2)n1-c1ccc(Cl)cc1Cl

$$$$
