
     RDKit          3D

 34 36  0  0  0  0  0  0  0  0999 V2000
    4.9118    1.7752   17.0025 H   0  0  0  0  0  0  0  0  0  0  0  0
    5.4018    1.2895   17.8423 C   0  0  0  0  0  0  0  0  0  0  0  0
    6.5627    0.6773   17.5772 N   0  0  0  0  0  0  0  0  0  0  0  0
    7.1958    0.0799   18.5867 C   0  0  0  0  0  0  0  0  0  0  0  0
    8.1325   -0.4253   18.3694 H   0  0  0  0  0  0  0  0  0  0  0  0
    6.6982    0.0540   19.8933 C   0  0  0  0  0  0  0  0  0  0  0  0
    7.4780   -0.6473   20.9404 C   0  0  0  0  0  0  0  0  0  0  0  0
    8.7784   -0.4684   20.9961 N   0  0  0  0  0  0  0  0  0  0  0  0
    9.4650   -1.0885   21.9894 N   0  0  0  0  0  0  0  0  0  0  0  0
   10.8087   -0.8585   21.9107 N   0  0  0  0  0  0  0  0  0  0  0  0
   11.1075   -0.1584   21.2435 H   0  0  0  0  0  0  0  0  0  0  0  0
   11.7068   -1.4171   22.8538 C   0  0  0  0  0  0  0  0  0  0  0  0
   11.6930   -2.5210   22.8864 H   0  0  0  0  0  0  0  0  0  0  0  0
   11.3754   -1.0286   23.8523 H   0  0  0  0  0  0  0  0  0  0  0  0
   13.1417   -1.0174   22.5684 C   0  0  0  0  0  0  0  0  0  0  0  0
   13.4381    0.1731   23.3321 C   0  0  0  0  0  0  0  0  0  0  0  0
   12.8775    0.7738   23.9909 H   0  0  0  0  0  0  0  0  0  0  0  0
   14.8341    0.6677   23.1324 C   0  0  0  0  0  0  0  0  0  0  0  0
   15.2856    1.6603   23.1916 H   0  0  0  0  0  0  0  0  0  0  0  0
   14.8339    0.6678   23.1323 N   0  0  0  0  0  0  0  0  0  0  0  0
   14.1445   -1.8960   21.8291 C   0  0  0  0  0  0  0  0  0  0  0  0
   15.0348   -1.5998   20.9949 H   0  0  0  0  0  0  0  0  0  0  0  0
   14.1381   -1.7026   21.7727 C   0  0  0  0  0  0  0  0  0  0  0  0
   13.5662   -2.6303   21.2087 H   0  0  0  0  0  0  0  0  0  0  0  0
    8.8789   -1.9319   22.9057 C   0  0  0  0  0  0  0  0  0  0  0  0
    9.5349   -2.3853   23.6540 H   0  0  0  0  0  0  0  0  0  0  0  0
    7.5618   -2.1861   22.8882 C   0  0  0  0  0  0  0  0  0  0  0  0
    7.0643   -2.8542   23.5797 H   0  0  0  0  0  0  0  0  0  0  0  0
    6.7564   -1.5878   21.8510 C   0  0  0  0  0  0  0  0  0  0  0  0
    5.5770   -1.8900   21.7000 O   0  0  0  0  0  0  0  0  0  0  0  0
    5.4548    0.6598   20.1571 C   0  0  0  0  0  0  0  0  0  0  0  0
    5.0081    0.6152   21.1541 H   0  0  0  0  0  0  0  0  0  0  0  0
    4.8126    1.3105   19.1097 C   0  0  0  0  0  0  0  0  0  0  0  0
    3.8777    1.8397   19.2619 H   0  0  0  0  0  0  0  0  0  0  0  0
  1  2  1  0
  2  3  2  0
  3  4  1  0
  4  5  1  0
  4  6  2  0
  6  7  1  0
  7  8  2  0
  8  9  1  0
  9 10  1  0
 10 11  1  0
 10 12  1  0
 12 13  1  0
 12 14  1  0
 12 15  1  0
 15 16  2  0
 16 17  1  0
 16 18  1  0
 18 19  1  0
 18 20  2  0
 20 21  1  0
 21 22  1  0
 21 23  2  0
 23 24  1  0
  9 25  1  0
 25 26  1  0
 25 27  2  0
 27 28  1  0
 27 29  1  0
 29 30  2  0
  6 31  1  0
 31 32  1  0
 31 33  2  0
 33 34  1  0
 33  2  1  0
 29  7  1  0
 23 15  1  0
M  END
>  <cnnaffinity>  (1) 
-5.50473

>  <filename>  (1) 
O=c1ccn(NCc2ccncc2)nc1-c1cccnc1

$$$$
