
     RDKit          3D

 26 28  0  0  0  0  0  0  0  0999 V2000
   13.5247   -0.4562   23.3783 H   0  0  0  0  0  0  0  0  0  0  0  0
   12.6178   -0.2564   22.8208 C   0  0  0  0  0  0  0  0  0  0  0  0
   12.4215    0.8584   22.0565 N   0  0  0  0  0  0  0  0  0  0  0  0
   11.2072    0.6950   21.5965 C   0  0  0  0  0  0  0  0  0  0  0  0
   10.6547    1.3379   20.9233 H   0  0  0  0  0  0  0  0  0  0  0  0
   10.6832   -0.4602   22.0674 N   0  0  0  0  0  0  0  0  0  0  0  0
    9.3537   -0.8986   21.9299 C   0  0  0  0  0  0  0  0  0  0  0  0
    8.6714   -0.3645   20.9639 N   0  0  0  0  0  0  0  0  0  0  0  0
    7.3532   -0.7284   20.8667 N   0  0  0  0  0  0  0  0  0  0  0  0
    6.6631   -0.0012   19.8656 C   0  0  0  0  0  0  0  0  0  0  0  0
    7.2611    0.1395   18.6019 C   0  0  0  0  0  0  0  0  0  0  0  0
    8.2512   -0.2863   18.4536 H   0  0  0  0  0  0  0  0  0  0  0  0
    6.6677    0.7470   17.5729 N   0  0  0  0  0  0  0  0  0  0  0  0
    5.4691    1.3144   17.8058 C   0  0  0  0  0  0  0  0  0  0  0  0
    4.9949    1.7953   16.9519 H   0  0  0  0  0  0  0  0  0  0  0  0
    4.8423    1.2980   19.0572 C   0  0  0  0  0  0  0  0  0  0  0  0
    3.9031    1.8196   19.1908 H   0  0  0  0  0  0  0  0  0  0  0  0
    5.4435    0.6210   20.1228 C   0  0  0  0  0  0  0  0  0  0  0  0
    5.0108    0.5939   21.1237 H   0  0  0  0  0  0  0  0  0  0  0  0
    6.6926   -1.7610   21.6244 C   0  0  0  0  0  0  0  0  0  0  0  0
    5.5780   -2.1666   21.3631 O   0  0  0  0  0  0  0  0  0  0  0  0
    7.5309   -2.2630   22.7149 C   0  0  0  0  0  0  0  0  0  0  0  0
    7.0421   -2.9758   23.3668 H   0  0  0  0  0  0  0  0  0  0  0  0
    8.8170   -1.8598   22.8578 C   0  0  0  0  0  0  0  0  0  0  0  0
    9.4777   -2.2382   23.6301 H   0  0  0  0  0  0  0  0  0  0  0  0
   11.5922   -1.0815   22.8569 N   0  0  0  0  0  0  0  0  0  0  0  0
  1  2  1  0
  2  3  1  0
  3  4  2  0
  4  5  1  0
  4  6  1  0
  6  7  1  0
  7  8  2  0
  8  9  1  0
  9 10  1  0
 10 11  2  0
 11 12  1  0
 11 13  1  0
 13 14  2  0
 14 15  1  0
 14 16  1  0
 16 17  1  0
 16 18  2  0
 18 19  1  0
  9 20  1  0
 20 21  2  0
 20 22  1  0
 22 23  1  0
 22 24  2  0
 24 25  1  0
  6 26  1  0
 26  2  2  0
 24  7  1  0
 18 10  1  0
M  END
>  <cnnaffinity>  (1) 
-4.25634

>  <filename>  (1) 
O=c1ccc(-n2cncn2)nn1-c1cccnc1

$$$$
