
     RDKit          3D

 34 36  0  0  0  0  0  0  0  0999 V2000
    5.0844    1.8574   16.9459 H   0  0  0  0  0  0  0  0  0  0  0  0
    5.5284    1.3334   17.7905 C   0  0  0  0  0  0  0  0  0  0  0  0
    6.7328    0.7762   17.5716 N   0  0  0  0  0  0  0  0  0  0  0  0
    7.3120    0.1387   18.5916 C   0  0  0  0  0  0  0  0  0  0  0  0
    8.3110   -0.2566   18.4261 H   0  0  0  0  0  0  0  0  0  0  0  0
    6.6942   -0.0368   19.8441 C   0  0  0  0  0  0  0  0  0  0  0  0
    7.3847   -0.7563   20.8688 N   0  0  0  0  0  0  0  0  0  0  0  0
    8.7107   -0.4228   20.9714 N   0  0  0  0  0  0  0  0  0  0  0  0
    9.4198   -0.9638   21.9296 C   0  0  0  0  0  0  0  0  0  0  0  0
   10.8501   -0.5165   22.0230 C   0  0  0  0  0  0  0  0  0  0  0  0
   11.8988   -1.4505   22.0879 C   0  0  0  0  0  0  0  0  0  0  0  0
   11.6826   -2.5160   22.0130 H   0  0  0  0  0  0  0  0  0  0  0  0
   13.2208   -1.0141   22.2487 C   0  0  0  0  0  0  0  0  0  0  0  0
   14.0325   -1.7322   22.3508 H   0  0  0  0  0  0  0  0  0  0  0  0
   13.5064    0.3515   22.3269 C   0  0  0  0  0  0  0  0  0  0  0  0
   14.5048    0.7516   22.4770 H   0  0  0  0  0  0  0  0  0  0  0  0
   12.4675    1.2708   22.2095 C   0  0  0  0  0  0  0  0  0  0  0  0
   12.8776    2.6055   22.2904 O   0  0  0  0  0  0  0  0  0  0  0  0
   12.1891    3.5661   21.6395 C   0  0  0  0  0  0  0  0  0  0  0  0
   12.9821    4.6213   21.4766 F   0  0  0  0  0  0  0  0  0  0  0  0
   11.1200    3.9403   22.3619 F   0  0  0  0  0  0  0  0  0  0  0  0
   11.7467    3.1763   20.4349 F   0  0  0  0  0  0  0  0  0  0  0  0
   11.1406    0.8618   22.0510 C   0  0  0  0  0  0  0  0  0  0  0  0
   10.3446    1.5949   21.9606 H   0  0  0  0  0  0  0  0  0  0  0  0
    8.8508   -1.9095   22.8605 C   0  0  0  0  0  0  0  0  0  0  0  0
    9.4718   -2.2803   23.6731 H   0  0  0  0  0  0  0  0  0  0  0  0
    7.5506   -2.2917   22.7193 C   0  0  0  0  0  0  0  0  0  0  0  0
    7.0473   -3.0068   23.3578 H   0  0  0  0  0  0  0  0  0  0  0  0
    6.7236   -1.7922   21.6265 C   0  0  0  0  0  0  0  0  0  0  0  0
    5.6097   -2.2064   21.3578 O   0  0  0  0  0  0  0  0  0  0  0  0
    5.4431    0.5424   20.0694 C   0  0  0  0  0  0  0  0  0  0  0  0
    4.9533    0.4340   21.0359 H   0  0  0  0  0  0  0  0  0  0  0  0
    4.8622    1.2627   19.0183 C   0  0  0  0  0  0  0  0  0  0  0  0
    3.9039    1.7584   19.1357 H   0  0  0  0  0  0  0  0  0  0  0  0
  1  2  1  0
  2  3  2  0
  3  4  1  0
  4  5  1  0
  4  6  2  0
  6  7  1  0
  7  8  1  0
  8  9  2  0
  9 10  1  0
 10 11  2  0
 11 12  1  0
 11 13  1  0
 13 14  1  0
 13 15  2  0
 15 16  1  0
 15 17  1  0
 17 18  1  0
 18 19  1  0
 19 20  1  0
 19 21  1  0
 19 22  1  0
 17 23  2  0
 23 24  1  0
  9 25  1  0
 25 26  1  0
 25 27  2  0
 27 28  1  0
 27 29  1  0
 29 30  2  0
  6 31  1  0
 31 32  1  0
 31 33  2  0
 33 34  1  0
 33  2  1  0
 29  7  1  0
 23 10  1  0
M  END
>  <cnnaffinity>  (1) 
-5.985

>  <filename>  (1) 
O=c1ccc(-c2cccc(OC(F)(F)F)c2)nn1-c1cccnc1

$$$$
