
     RDKit          3D

 40 42  0  0  0  0  0  0  0  0999 V2000
    4.9945    1.7609   16.8202 H   0  0  0  0  0  0  0  0  0  0  0  0
    5.4201    1.2772   17.6984 C   0  0  0  0  0  0  0  0  0  0  0  0
    6.5551    0.5872   17.5021 N   0  0  0  0  0  0  0  0  0  0  0  0
    7.1219    0.0089   18.5686 C   0  0  0  0  0  0  0  0  0  0  0  0
    8.0584   -0.5156   18.3892 H   0  0  0  0  0  0  0  0  0  0  0  0
    6.5960    0.0911   19.8757 C   0  0  0  0  0  0  0  0  0  0  0  0
    7.2521   -0.5140   21.0086 N   0  0  0  0  0  0  0  0  0  0  0  0
    7.5114   -1.8656   20.9867 C   0  0  0  0  0  0  0  0  0  0  0  0
    7.0949   -2.4069   20.1436 H   0  0  0  0  0  0  0  0  0  0  0  0
    8.2193   -2.4783   21.9710 C   0  0  0  0  0  0  0  0  0  0  0  0
    8.4147   -3.5381   21.9366 H   0  0  0  0  0  0  0  0  0  0  0  0
    8.7031   -1.6968   23.0656 C   0  0  0  0  0  0  0  0  0  0  0  0
    9.4070   -2.2135   24.0959 O   0  0  0  0  0  0  0  0  0  0  0  0
    9.6350   -3.6194   24.2056 C   0  0  0  0  0  0  0  0  0  0  0  0
   10.3528   -3.7116   25.0283 H   0  0  0  0  0  0  0  0  0  0  0  0
   10.1262   -3.9925   23.2958 H   0  0  0  0  0  0  0  0  0  0  0  0
    8.3692   -4.4623   24.5081 C   0  0  0  0  0  0  0  0  0  0  0  0
    7.6504   -4.3119   23.6952 H   0  0  0  0  0  0  0  0  0  0  0  0
    8.7219   -5.9797   24.5669 C   0  0  0  0  0  0  0  0  0  0  0  0
    9.7410   -6.1171   24.2117 H   0  0  0  0  0  0  0  0  0  0  0  0
    8.0715   -6.5424   23.8906 H   0  0  0  0  0  0  0  0  0  0  0  0
    8.6837   -6.5627   25.9869 C   0  0  0  0  0  0  0  0  0  0  0  0
    9.2403   -7.5063   26.0295 H   0  0  0  0  0  0  0  0  0  0  0  0
    7.6370   -6.7855   26.2600 H   0  0  0  0  0  0  0  0  0  0  0  0
    9.3199   -5.5921   26.8665 N   0  0  0  0  0  0  0  0  0  0  0  0
    9.5925   -6.0107   27.7490 H   0  0  0  0  0  0  0  0  0  0  0  0
    8.5521   -4.3550   27.0627 C   0  0  0  0  0  0  0  0  0  0  0  0
    7.8819   -4.4043   27.9394 H   0  0  0  0  0  0  0  0  0  0  0  0
    9.2636   -3.5353   27.2432 H   0  0  0  0  0  0  0  0  0  0  0  0
    7.7087   -3.9885   25.8185 C   0  0  0  0  0  0  0  0  0  0  0  0
    7.5506   -2.9050   25.7852 H   0  0  0  0  0  0  0  0  0  0  0  0
    6.7113   -4.4396   25.8898 H   0  0  0  0  0  0  0  0  0  0  0  0
    8.4549   -0.3583   23.1150 C   0  0  0  0  0  0  0  0  0  0  0  0
    8.8168    0.2651   23.9139 H   0  0  0  0  0  0  0  0  0  0  0  0
    7.6315    0.2985   22.1487 C   0  0  0  0  0  0  0  0  0  0  0  0
    7.2758    1.4628   22.2423 O   0  0  0  0  0  0  0  0  0  0  0  0
    5.4115    0.8070   20.0653 C   0  0  0  0  0  0  0  0  0  0  0  0
    5.0101    0.9077   21.0726 H   0  0  0  0  0  0  0  0  0  0  0  0
    4.8084    1.3987   18.9513 C   0  0  0  0  0  0  0  0  0  0  0  0
    3.8988    1.9801   19.0518 H   0  0  0  0  0  0  0  0  0  0  0  0
  1  2  1  0
  2  3  2  0
  3  4  1  0
  4  5  1  0
  4  6  2  0
  6  7  1  0
  7  8  1  0
  8  9  1  0
  8 10  2  0
 10 11  1  0
 10 12  1  0
 12 13  1  0
 13 14  1  0
 14 15  1  0
 14 16  1  0
 14 17  1  0
 17 18  1  0
 17 19  1  0
 19 20  1  0
 19 21  1  0
 19 22  1  0
 22 23  1  0
 22 24  1  0
 22 25  1  0
 25 26  1  0
 25 27  1  0
 27 28  1  0
 27 29  1  0
 27 30  1  0
 30 31  1  0
 30 32  1  0
 12 33  2  0
 33 34  1  0
 33 35  1  0
 35 36  2  0
  6 37  1  0
 37 38  1  0
 37 39  2  0
 39 40  1  0
 39  2  1  0
 35  7  1  0
 30 17  1  0
M  END
>  <cnnaffinity>  (1) 
-4.63634

>  <filename>  (1) 
O=c1cc(OCC2CCNCC2)ccn1-c1cccnc1

$$$$
