
     RDKit          3D

 36 39  0  0  0  0  0  0  0  0999 V2000
    5.0733    2.0384   16.3258 H   0  0  0  0  0  0  0  0  0  0  0  0
    5.3149    1.4285   17.1963 C   0  0  0  0  0  0  0  0  0  0  0  0
    6.3026    0.5351   17.0369 N   0  0  0  0  0  0  0  0  0  0  0  0
    6.6217   -0.2186   18.0972 C   0  0  0  0  0  0  0  0  0  0  0  0
    7.4129   -0.9514   17.9486 H   0  0  0  0  0  0  0  0  0  0  0  0
    6.0161   -0.1113   19.3685 C   0  0  0  0  0  0  0  0  0  0  0  0
    6.4828   -0.9074   20.5308 C   0  0  0  0  0  0  0  0  0  0  0  0
    6.9865   -0.2913   21.6586 C   0  0  0  0  0  0  0  0  0  0  0  0
    6.9840    0.7953   21.7226 H   0  0  0  0  0  0  0  0  0  0  0  0
    7.5773   -1.0235   22.7295 C   0  0  0  0  0  0  0  0  0  0  0  0
    7.9445   -0.3683   24.0278 C   0  0  0  0  0  0  0  0  0  0  0  0
    6.9074   -0.0845   24.9262 C   0  0  0  0  0  0  0  0  0  0  0  0
    5.8805   -0.2207   24.6052 H   0  0  0  0  0  0  0  0  0  0  0  0
    7.0677    0.3596   26.2125 N   0  0  0  0  0  0  0  0  0  0  0  0
    8.2788    0.5233   26.6747 C   0  0  0  0  0  0  0  0  0  0  0  0
    8.3747    0.8665   27.7078 H   0  0  0  0  0  0  0  0  0  0  0  0
    9.4636    0.2703   25.8466 C   0  0  0  0  0  0  0  0  0  0  0  0
   10.7758    0.3758   26.1962 C   0  0  0  0  0  0  0  0  0  0  0  0
   11.2450    0.3922   27.1785 H   0  0  0  0  0  0  0  0  0  0  0  0
   11.8744    0.1593   24.3667 C   0  0  0  0  0  0  0  0  0  0  0  0
   12.6572    0.0258   25.3232 H   0  0  0  0  0  0  0  0  0  0  0  0
   11.7922    0.2650   24.3368 C   0  0  0  0  0  0  0  0  0  0  0  0
   12.4295    0.9404   23.4538 H   0  0  0  0  0  0  0  0  0  0  0  0
   10.4963    0.0679   23.6696 C   0  0  0  0  0  0  0  0  0  0  0  0
   10.5562    0.9142   23.0888 H   0  0  0  0  0  0  0  0  0  0  0  0
    9.2581   -0.0988   24.4610 C   0  0  0  0  0  0  0  0  0  0  0  0
    7.6101   -2.3906   22.6401 C   0  0  0  0  0  0  0  0  0  0  0  0
    8.0752   -3.0065   23.4049 H   0  0  0  0  0  0  0  0  0  0  0  0
    7.0754   -3.0064   21.5497 N   0  0  0  0  0  0  0  0  0  0  0  0
    6.9594   -4.0025   21.4430 H   0  0  0  0  0  0  0  0  0  0  0  0
    6.4161   -2.3814   20.4874 C   0  0  0  0  0  0  0  0  0  0  0  0
    5.8745   -3.1156   19.6755 O   0  0  0  0  0  0  0  0  0  0  0  0
    4.9797    0.8239   19.5037 C   0  0  0  0  0  0  0  0  0  0  0  0
    4.4749    0.9381   20.4652 H   0  0  0  0  0  0  0  0  0  0  0  0
    4.6142    1.5936   18.3958 C   0  0  0  0  0  0  0  0  0  0  0  0
    3.8190    2.3304   18.4485 H   0  0  0  0  0  0  0  0  0  0  0  0
  1  2  1  0
  2  3  2  0
  3  4  1  0
  4  5  1  0
  4  6  2  0
  6  7  1  0
  7  8  2  0
  8  9  1  0
  8 10  1  0
 10 11  1  0
 11 12  2  0
 12 13  1  0
 12 14  1  0
 14 15  2  0
 15 16  1  0
 15 17  1  0
 17 18  2  0
 18 19  1  0
 18 20  1  0
 20 21  1  0
 20 22  2  0
 22 23  1  0
 22 24  1  0
 24 25  1  0
 24 26  2  0
 10 27  2  0
 27 28  1  0
 27 29  1  0
 29 30  1  0
 29 31  1  0
 31 32  2  0
  6 33  1  0
 33 34  1  0
 33 35  2  0
 35 36  1  0
 35  2  1  0
 31  7  1  0
 26 11  1  0
 26 17  1  0
M  END
>  <cnnaffinity>  (1) 
-5.3531

>  <filename>  (1) 
O=c1[nH]cc(-c2cncc3ccccc23)cc1-c1cccnc1

$$$$
