
     RDKit          3D

 20 21  0  0  0  0  0  0  0  0999 V2000
    4.8949    1.7883   17.0198 H   0  0  0  0  0  0  0  0  0  0  0  0
    5.4068    1.2878   17.8401 C   0  0  0  0  0  0  0  0  0  0  0  0
    6.5753    0.6668   17.5983 N   0  0  0  0  0  0  0  0  0  0  0  0
    7.2011    0.0579   18.6145 C   0  0  0  0  0  0  0  0  0  0  0  0
    8.1404   -0.4375   18.3994 H   0  0  0  0  0  0  0  0  0  0  0  0
    6.6845    0.0100   19.9089 C   0  0  0  0  0  0  0  0  0  0  0  0
    7.4628   -0.6790   20.9216 C   0  0  0  0  0  0  0  0  0  0  0  0
    8.7657   -0.6711   20.8399 N   0  0  0  0  0  0  0  0  0  0  0  0
    9.4448   -1.3251   21.8445 C   0  0  0  0  0  0  0  0  0  0  0  0
   10.6562   -1.3472   21.8545 O   0  0  0  0  0  0  0  0  0  0  0  0
    8.8219   -1.9831   22.8749 N   0  0  0  0  0  0  0  0  0  0  0  0
    9.4026   -2.4448   23.5603 H   0  0  0  0  0  0  0  0  0  0  0  0
    7.4547   -2.0290   22.9669 C   0  0  0  0  0  0  0  0  0  0  0  0
    6.4289   -3.1325   24.6276 I   0  0  0  0  0  0  0  0  0  0  0  0
    6.7667   -1.3833   21.9862 C   0  0  0  0  0  0  0  0  0  0  0  0
    5.6947   -1.4085   21.9753 H   0  0  0  0  0  0  0  0  0  0  0  0
    5.4524    0.6321   20.1710 C   0  0  0  0  0  0  0  0  0  0  0  0
    4.9968    0.6389   21.1655 H   0  0  0  0  0  0  0  0  0  0  0  0
    4.8235    1.2944   19.1136 C   0  0  0  0  0  0  0  0  0  0  0  0
    3.8890    1.8283   19.2620 H   0  0  0  0  0  0  0  0  0  0  0  0
  1  2  1  0
  2  3  2  0
  3  4  1  0
  4  5  1  0
  4  6  2  0
  6  7  1  0
  7  8  2  0
  8  9  1  0
  9 10  2  0
  9 11  1  0
 11 12  1  0
 11 13  1  0
 13 14  1  0
 13 15  2  0
 15 16  1  0
  6 17  1  0
 17 18  1  0
 17 19  2  0
 19 20  1  0
 19  2  1  0
 15  7  1  0
M  END
>  <cnnaffinity>  (1) 
-4.63197

>  <filename>  (1) 
O=c1nc(-c2cccnc2)cc(I)[nH]1

$$$$
