
     RDKit          3D

 33 35  0  0  0  0  0  0  0  0999 V2000
    4.9197    1.9477   16.8529 H   0  0  0  0  0  0  0  0  0  0  0  0
    5.3800    1.4098   17.6792 C   0  0  0  0  0  0  0  0  0  0  0  0
    6.5307    0.7769   17.3960 N   0  0  0  0  0  0  0  0  0  0  0  0
    7.1449    0.1247   18.3925 C   0  0  0  0  0  0  0  0  0  0  0  0
    8.0853   -0.3690   18.1520 H   0  0  0  0  0  0  0  0  0  0  0  0
    6.6298    0.0472   19.7055 C   0  0  0  0  0  0  0  0  0  0  0  0
    7.2929   -0.6823   20.7827 N   0  0  0  0  0  0  0  0  0  0  0  0
    6.6397   -1.7920   21.3851 C   0  0  0  0  0  0  0  0  0  0  0  0
    5.5984   -2.2272   20.9420 O   0  0  0  0  0  0  0  0  0  0  0  0
    7.2998   -2.4027   22.5273 C   0  0  0  0  0  0  0  0  0  0  0  0
    6.7665   -3.2517   22.9214 H   0  0  0  0  0  0  0  0  0  0  0  0
    8.4829   -1.9782   23.0064 C   0  0  0  0  0  0  0  0  0  0  0  0
    9.2486   -2.6821   24.1120 C   0  0  0  0  0  0  0  0  0  0  0  0
   10.4363   -3.1843   23.7428 N   0  0  0  0  0  0  0  0  0  0  0  0
   11.0198   -4.0744   24.5417 C   0  0  0  0  0  0  0  0  0  0  0  0
   11.9324   -4.5064   24.1579 H   0  0  0  0  0  0  0  0  0  0  0  0
   10.4994   -4.4684   25.7763 C   0  0  0  0  0  0  0  0  0  0  0  0
   11.0097   -5.2237   26.3604 H   0  0  0  0  0  0  0  0  0  0  0  0
    9.3431   -3.8524   26.2336 C   0  0  0  0  0  0  0  0  0  0  0  0
    8.9156   -4.0995   27.2068 H   0  0  0  0  0  0  0  0  0  0  0  0
    8.7342   -2.9049   25.4053 C   0  0  0  0  0  0  0  0  0  0  0  0
    7.5017   -2.1866   25.8632 C   0  0  0  0  0  0  0  0  0  0  0  0
    7.4548   -0.9165   25.4381 F   0  0  0  0  0  0  0  0  0  0  0  0
    7.3883   -2.1651   27.2028 F   0  0  0  0  0  0  0  0  0  0  0  0
    6.3991   -2.8063   25.3866 F   0  0  0  0  0  0  0  0  0  0  0  0
    9.0360   -0.8806   22.3599 N   0  0  0  0  0  0  0  0  0  0  0  0
    9.9646   -0.5206   22.5145 H   0  0  0  0  0  0  0  0  0  0  0  0
    8.5292   -0.2441   21.2477 C   0  0  0  0  0  0  0  0  0  0  0  0
    9.1826    0.6407   20.7358 O   0  0  0  0  0  0  0  0  0  0  0  0
    5.4173    0.6859   19.9735 C   0  0  0  0  0  0  0  0  0  0  0  0
    4.9845    0.6142   20.9699 H   0  0  0  0  0  0  0  0  0  0  0  0
    4.7865    1.3947   18.9439 C   0  0  0  0  0  0  0  0  0  0  0  0
    3.8557    1.9271   19.1090 H   0  0  0  0  0  0  0  0  0  0  0  0
  1  2  1  0
  2  3  2  0
  3  4  1  0
  4  5  1  0
  4  6  2  0
  6  7  1  0
  7  8  1  0
  8  9  2  0
  8 10  1  0
 10 11  1  0
 10 12  2  0
 12 13  1  0
 13 14  2  0
 14 15  1  0
 15 16  1  0
 15 17  2  0
 17 18  1  0
 17 19  1  0
 19 20  1  0
 19 21  2  0
 21 22  1  0
 22 23  1  0
 22 24  1  0
 22 25  1  0
 12 26  1  0
 26 27  1  0
 26 28  1  0
 28 29  2  0
  6 30  1  0
 30 31  1  0
 30 32  2  0
 32 33  1  0
 32  2  1  0
 28  7  1  0
 21 13  1  0
M  END
>  <cnnaffinity>  (1) 
-5.76044

>  <filename>  (1) 
O=c1cc(-c2ncccc2C(F)(F)F)[nH]c(=O)n1-c1cccnc1

$$$$
