
     RDKit          3D

 32 34  0  0  0  0  0  0  0  0999 V2000
    4.9091    1.7916   16.8933 H   0  0  0  0  0  0  0  0  0  0  0  0
    5.3663    1.3715   17.7857 C   0  0  0  0  0  0  0  0  0  0  0  0
    6.5710    0.8058   17.6132 N   0  0  0  0  0  0  0  0  0  0  0  0
    7.1697    0.3144   18.7030 C   0  0  0  0  0  0  0  0  0  0  0  0
    8.1561   -0.1160   18.5307 H   0  0  0  0  0  0  0  0  0  0  0  0
    6.6193    0.3420   20.0012 C   0  0  0  0  0  0  0  0  0  0  0  0
    7.3265   -0.3856   21.0974 C   0  0  0  0  0  0  0  0  0  0  0  0
    7.6864    0.4969   22.5627 S   0  0  0  0  0  0  0  0  0  0  0  0
    8.2628   -0.7690   23.6490 C   0  0  0  0  0  0  0  0  0  0  0  0
    8.2841   -0.3667   25.0842 C   0  0  0  0  0  0  0  0  0  0  0  0
    7.0957    0.1507   25.6375 C   0  0  0  0  0  0  0  0  0  0  0  0
    6.2377    0.2749   24.9842 H   0  0  0  0  0  0  0  0  0  0  0  0
    7.0044    0.4875   26.9822 C   0  0  0  0  0  0  0  0  0  0  0  0
    6.0937    0.8960   27.4076 H   0  0  0  0  0  0  0  0  0  0  0  0
    8.1272    0.3041   27.7994 C   0  0  0  0  0  0  0  0  0  0  0  0
    8.0585    0.6943   29.2375 N   0  0  0  0  0  4  0  0  0  0  0  0
    9.0412    0.5080   29.9392 O   0  0  0  0  0  0  0  0  0  0  0  0
    7.0164    1.1693   29.6534 O   0  0  0  0  0  1  0  0  0  0  0  0
    9.3160   -0.2282   27.2853 C   0  0  0  0  0  0  0  0  0  0  0  0
   10.1541   -0.3638   27.9624 H   0  0  0  0  0  0  0  0  0  0  0  0
    9.3969   -0.5522   25.9289 C   0  0  0  0  0  0  0  0  0  0  0  0
   10.3351   -0.9310   25.5372 H   0  0  0  0  0  0  0  0  0  0  0  0
    8.5900   -2.0092   23.2373 C   0  0  0  0  0  0  0  0  0  0  0  0
    9.0176   -2.7291   23.9303 H   0  0  0  0  0  0  0  0  0  0  0  0
    8.2903   -2.5587   21.9099 C   0  0  0  0  0  0  0  0  0  0  0  0
    8.5257   -3.7273   21.6402 O   0  0  0  0  0  0  0  0  0  0  0  0
    7.6562   -1.6787   20.9232 C   0  0  0  0  0  0  0  0  0  0  0  0
    7.3922   -2.1683   19.9986 H   0  0  0  0  0  0  0  0  0  0  0  0
    5.3574    0.9423   20.1596 C   0  0  0  0  0  0  0  0  0  0  0  0
    4.8947    0.9875   21.1483 H   0  0  0  0  0  0  0  0  0  0  0  0
    4.7186    1.4533   19.0247 C   0  0  0  0  0  0  0  0  0  0  0  0
    3.7477    1.9355   19.0938 H   0  0  0  0  0  0  0  0  0  0  0  0
  1  2  1  0
  2  3  2  0
  3  4  1  0
  4  5  1  0
  4  6  2  0
  6  7  1  0
  7  8  1  0
  8  9  1  0
  9 10  1  0
 10 11  2  0
 11 12  1  0
 11 13  1  0
 13 14  1  0
 13 15  2  0
 15 16  1  0
 16 17  2  0
 16 18  1  0
 15 19  1  0
 19 20  1  0
 19 21  2  0
 21 22  1  0
  9 23  2  0
 23 24  1  0
 23 25  1  0
 25 26  2  0
 25 27  1  0
 27 28  1  0
  6 29  1  0
 29 30  1  0
 29 31  2  0
 31 32  1  0
 31  2  1  0
 27  7  2  0
 21 10  1  0
M  CHG  2  16   1  18  -1
M  END
>  <cnnaffinity>  (1) 
-5.1847

>  <filename>  (1) 
O=c1cc(-c2ccc([N+](=O)[O-])cc2)sc(-c2cccnc2)c1

$$$$
