
     RDKit          3D

 47 50  0  0  0  0  0  0  0  0999 V2000
    4.9555    1.8201   17.0258 H   0  0  0  0  0  0  0  0  0  0  0  0
    5.4053    1.2771   17.8537 C   0  0  0  0  0  0  0  0  0  0  0  0
    6.5518    0.6330   17.5845 N   0  0  0  0  0  0  0  0  0  0  0  0
    7.1598    0.0002   18.5934 C   0  0  0  0  0  0  0  0  0  0  0  0
    8.1180   -0.4666   18.3746 H   0  0  0  0  0  0  0  0  0  0  0  0
    6.6336   -0.0621   19.8961 C   0  0  0  0  0  0  0  0  0  0  0  0
    7.3321   -0.7496   20.9367 N   0  0  0  0  0  0  0  0  0  0  0  0
    6.5712   -1.6827   21.6200 N   0  0  0  0  0  0  0  0  0  0  0  0
    7.1366   -2.3271   22.6128 C   0  0  0  0  0  0  0  0  0  0  0  0
    6.4447   -3.3146   23.2952 N   0  0  0  0  0  0  0  0  0  0  0  0
    5.2774   -3.9272   22.6719 C   0  0  0  0  0  0  0  0  0  0  0  0
    5.4062   -3.9125   21.5860 H   0  0  0  0  0  0  0  0  0  0  0  0
    4.3738   -3.3331   22.8922 H   0  0  0  0  0  0  0  0  0  0  0  0
    5.1207   -5.3509   23.2042 C   0  0  0  0  0  0  0  0  0  0  0  0
    4.2575   -5.8326   22.7372 H   0  0  0  0  0  0  0  0  0  0  0  0
    5.9992   -5.9431   22.9292 H   0  0  0  0  0  0  0  0  0  0  0  0
    4.9942   -5.3555   24.7361 C   0  0  0  0  0  0  0  0  0  0  0  0
    4.0868   -4.7844   25.0145 H   0  0  0  0  0  0  0  0  0  0  0  0
    4.8913   -6.7411   25.2204 N   0  0  0  0  0  0  0  0  0  0  0  0
    3.5621   -7.3508   25.0150 C   0  0  0  0  0  0  0  0  0  0  0  0
    3.0406   -6.8827   24.1702 H   0  0  0  0  0  0  0  0  0  0  0  0
    3.6699   -8.4171   24.7633 H   0  0  0  0  0  0  0  0  0  0  0  0
    2.7687   -7.1931   26.3363 C   0  0  0  0  0  0  0  0  0  0  0  0
    2.0205   -6.3975   26.2432 H   0  0  0  0  0  0  0  0  0  0  0  0
    2.2339   -8.1165   26.5824 H   0  0  0  0  0  0  0  0  0  0  0  0
    3.8382   -6.8387   27.3966 C   0  0  0  0  0  0  0  0  0  0  0  0
    3.7119   -5.8112   27.7562 H   0  0  0  0  0  0  0  0  0  0  0  0
    3.8085   -7.4869   28.2791 H   0  0  0  0  0  0  0  0  0  0  0  0
    5.1732   -6.9670   26.6487 C   0  0  0  0  0  0  0  0  0  0  0  0
    5.9289   -6.2765   27.0240 H   0  0  0  0  0  0  0  0  0  0  0  0
    5.6187   -7.9557   26.7815 H   0  0  0  0  0  0  0  0  0  0  0  0
    6.2101   -4.6342   25.3256 C   0  0  0  0  0  0  0  0  0  0  0  0
    7.0967   -5.2467   25.1280 H   0  0  0  0  0  0  0  0  0  0  0  0
    6.1093   -4.5244   26.4068 H   0  0  0  0  0  0  0  0  0  0  0  0
    6.3696   -3.2435   24.7510 C   0  0  0  0  0  0  0  0  0  0  0  0
    7.2601   -2.7657   25.1736 H   0  0  0  0  0  0  0  0  0  0  0  0
    5.5092   -2.6266   25.0707 H   0  0  0  0  0  0  0  0  0  0  0  0
    8.5158   -2.1061   22.9942 C   0  0  0  0  0  0  0  0  0  0  0  0
    8.9063   -2.7269   23.7988 H   0  0  0  0  0  0  0  0  0  0  0  0
    9.2695   -1.2141   22.3089 C   0  0  0  0  0  0  0  0  0  0  0  0
   10.3175   -1.0076   22.5026 H   0  0  0  0  0  0  0  0  0  0  0  0
    8.7087   -0.4249   21.2088 C   0  0  0  0  0  0  0  0  0  0  0  0
    9.3292    0.4076   20.5678 O   0  0  0  0  0  0  0  0  0  0  0  0
    5.4207    0.5845   20.1614 C   0  0  0  0  0  0  0  0  0  0  0  0
    5.0004    0.5350   21.1656 H   0  0  0  0  0  0  0  0  0  0  0  0
    4.8049    1.2853   19.1195 C   0  0  0  0  0  0  0  0  0  0  0  0
    3.8885    1.8469   19.2752 H   0  0  0  0  0  0  0  0  0  0  0  0
  1  2  1  0
  2  3  2  0
  3  4  1  0
  4  5  1  0
  4  6  2  0
  6  7  1  0
  7  8  1  0
  8  9  2  0
  9 10  1  0
 10 11  1  0
 11 12  1  0
 11 13  1  0
 11 14  1  0
 14 15  1  0
 14 16  1  0
 14 17  1  0
 17 18  1  0
 17 19  1  0
 19 20  1  0
 20 21  1  0
 20 22  1  0
 20 23  1  0
 23 24  1  0
 23 25  1  0
 23 26  1  0
 26 27  1  0
 26 28  1  0
 26 29  1  0
 29 30  1  0
 29 31  1  0
 17 32  1  0
 32 33  1  0
 32 34  1  0
 32 35  1  0
 35 36  1  0
 35 37  1  0
  9 38  1  0
 38 39  1  0
 38 40  2  0
 40 41  1  0
 40 42  1  0
 42 43  2  0
  6 44  1  0
 44 45  1  0
 44 46  2  0
 46 47  1  0
 46  2  1  0
 42  7  1  0
 35 10  1  0
 29 19  1  0
M  END
>  <cnnaffinity>  (1) 
-5.57438

>  <filename>  (1) 
O=c1ccc(N2CCC(N3CCCC3)CC2)nn1-c1cccnc1

$$$$
