
     RDKit          3D

 36 39  0  0  0  0  0  0  0  0999 V2000
    4.9171    1.7794   16.9990 H   0  0  0  0  0  0  0  0  0  0  0  0
    5.4048    1.2911   17.8387 C   0  0  0  0  0  0  0  0  0  0  0  0
    6.5707    0.6765   17.5730 N   0  0  0  0  0  0  0  0  0  0  0  0
    7.1662    0.0412   18.5871 C   0  0  0  0  0  0  0  0  0  0  0  0
    8.1266   -0.4285   18.3704 H   0  0  0  0  0  0  0  0  0  0  0  0
    6.6436   -0.0140   19.8898 C   0  0  0  0  0  0  0  0  0  0  0  0
    7.3806   -0.6711   20.9699 C   0  0  0  0  0  0  0  0  0  0  0  0
    7.7506   -0.0413   22.1454 C   0  0  0  0  0  0  0  0  0  0  0  0
    7.5344    1.4078   22.3623 C   0  0  0  0  0  0  0  0  0  0  0  0
    8.2118    2.3428   21.6022 C   0  0  0  0  0  0  0  0  0  0  0  0
    8.9036    1.9974   20.8379 H   0  0  0  0  0  0  0  0  0  0  0  0
    8.1064    3.6880   21.7494 N   0  0  0  0  0  0  0  0  0  0  0  0
    7.2603    4.1248   22.6560 C   0  0  0  0  0  0  0  0  0  0  0  0
    7.1601    5.2021   22.7657 H   0  0  0  0  0  0  0  0  0  0  0  0
    6.4793    3.2875   23.5092 C   0  0  0  0  0  0  0  0  0  0  0  0
    5.5768    3.8078   24.4889 C   0  0  0  0  0  0  0  0  0  0  0  0
    5.4813    4.8879   24.6029 H   0  0  0  0  0  0  0  0  0  0  0  0
    4.8377    2.9524   25.2698 C   0  0  0  0  0  0  0  0  0  0  0  0
    4.1505    3.3466   26.0154 H   0  0  0  0  0  0  0  0  0  0  0  0
    4.9560    1.5441   25.1130 C   0  0  0  0  0  0  0  0  0  0  0  0
    4.3634    0.8772   25.7318 H   0  0  0  0  0  0  0  0  0  0  0  0
    5.8211    1.0179   24.1786 C   0  0  0  0  0  0  0  0  0  0  0  0
    5.9123   -0.0577   24.0423 H   0  0  0  0  0  0  0  0  0  0  0  0
    6.6212    1.8758   23.3641 C   0  0  0  0  0  0  0  0  0  0  0  0
    8.4298   -0.8100   23.1479 C   0  0  0  0  0  0  0  0  0  0  0  0
    8.7051   -0.2988   24.0746 H   0  0  0  0  0  0  0  0  0  0  0  0
    8.7091   -2.1257   22.9485 C   0  0  0  0  0  0  0  0  0  0  0  0
    9.2151   -2.7387   23.6738 H   0  0  0  0  0  0  0  0  0  0  0  0
    8.3360   -2.8033   21.7160 C   0  0  0  0  0  0  0  0  0  0  0  0
    8.5206   -3.9802   21.4536 O   0  0  0  0  0  0  0  0  0  0  0  0
    7.7107   -1.9926   20.7859 N   0  0  0  0  0  0  0  0  0  0  0  0
    7.4389   -2.4892   19.9538 H   0  0  0  0  0  0  0  0  0  0  0  0
    5.4345    0.6531   20.1556 C   0  0  0  0  0  0  0  0  0  0  0  0
    5.0184    0.6437   21.1718 H   0  0  0  0  0  0  0  0  0  0  0  0
    4.8008    1.3072   19.1031 C   0  0  0  0  0  0  0  0  0  0  0  0
    3.8720    1.8450   19.2589 H   0  0  0  0  0  0  0  0  0  0  0  0
  1  2  1  0
  2  3  2  0
  3  4  1  0
  4  5  1  0
  4  6  2  0
  6  7  1  0
  7  8  2  0
  8  9  1  0
  9 10  2  0
 10 11  1  0
 10 12  1  0
 12 13  2  0
 13 14  1  0
 13 15  1  0
 15 16  2  0
 16 17  1  0
 16 18  1  0
 18 19  1  0
 18 20  2  0
 20 21  1  0
 20 22  1  0
 22 23  1  0
 22 24  2  0
  8 25  1  0
 25 26  1  0
 25 27  2  0
 27 28  1  0
 27 29  1  0
 29 30  2  0
 29 31  1  0
 31 32  1  0
  6 33  1  0
 33 34  1  0
 33 35  2  0
 35 36  1  0
 35  2  1  0
 31  7  1  0
 24  9  1  0
 24 15  1  0
M  END
>  <cnnaffinity>  (1) 
-5.50626

>  <filename>  (1) 
O=c1ccc(-c2cncc3ccccc23)c(-c2cccnc2)[nH]1

$$$$
