
     RDKit          3D

 32 34  0  0  0  0  0  0  0  0999 V2000
    4.9556    1.7800   16.9763 H   0  0  0  0  0  0  0  0  0  0  0  0
    5.4161    1.3121   17.8450 C   0  0  0  0  0  0  0  0  0  0  0  0
    6.6055    0.7218   17.6432 N   0  0  0  0  0  0  0  0  0  0  0  0
    7.1890    0.1205   18.6886 C   0  0  0  0  0  0  0  0  0  0  0  0
    8.1520   -0.3485   18.5001 H   0  0  0  0  0  0  0  0  0  0  0  0
    6.6164    0.0822   19.9756 C   0  0  0  0  0  0  0  0  0  0  0  0
    7.2117   -0.6385   21.0598 N   0  0  0  0  0  0  0  0  0  0  0  0
    7.5120    0.1098   22.1684 N   0  0  0  0  0  0  0  0  0  0  0  0
    8.2091   -0.4518   23.1162 C   0  0  0  0  0  0  0  0  0  0  0  0
    8.4999    0.3687   24.3579 C   0  0  0  0  0  0  0  0  0  0  0  0
    7.6777    1.0837   24.4865 H   0  0  0  0  0  0  0  0  0  0  0  0
    8.4920   -0.2994   25.2271 H   0  0  0  0  0  0  0  0  0  0  0  0
    9.8188    1.1128   24.2680 C   0  0  0  0  0  0  0  0  0  0  0  0
   11.0334    0.6022   24.7591 C   0  0  0  0  0  0  0  0  0  0  0  0
   11.0486   -0.3361   25.3176 H   0  0  0  0  0  0  0  0  0  0  0  0
   12.2224    1.1946   24.5847 N   0  0  0  0  0  0  0  0  0  0  0  0
   12.2420    2.3474   23.9042 C   0  0  0  0  0  0  0  0  0  0  0  0
   13.2208    2.7990   23.7468 H   0  0  0  0  0  0  0  0  0  0  0  0
   11.0923    2.9640   23.4058 C   0  0  0  0  0  0  0  0  0  0  0  0
   11.1632    3.9062   22.8778 H   0  0  0  0  0  0  0  0  0  0  0  0
    9.8622    2.3355   23.5890 C   0  0  0  0  0  0  0  0  0  0  0  0
    8.9380    2.7790   23.2102 H   0  0  0  0  0  0  0  0  0  0  0  0
    8.7030   -1.8097   22.9953 C   0  0  0  0  0  0  0  0  0  0  0  0
    9.4059   -2.1748   23.7457 H   0  0  0  0  0  0  0  0  0  0  0  0
    8.2426   -2.5983   21.9868 C   0  0  0  0  0  0  0  0  0  0  0  0
    8.5037   -3.6405   21.8531 H   0  0  0  0  0  0  0  0  0  0  0  0
    7.2608   -2.0800   21.0282 C   0  0  0  0  0  0  0  0  0  0  0  0
    6.5829   -2.7405   20.2656 O   0  0  0  0  0  0  0  0  0  0  0  0
    5.4201    0.7649   20.1919 C   0  0  0  0  0  0  0  0  0  0  0  0
    5.0385    0.8509   21.2093 H   0  0  0  0  0  0  0  0  0  0  0  0
    4.7877    1.3584   19.0957 C   0  0  0  0  0  0  0  0  0  0  0  0
    3.8475    1.8822   19.2132 H   0  0  0  0  0  0  0  0  0  0  0  0
  1  2  1  0
  2  3  2  0
  3  4  1  0
  4  5  1  0
  4  6  2  0
  6  7  1  0
  7  8  1  0
  8  9  2  0
  9 10  1  0
 10 11  1  0
 10 12  1  0
 10 13  1  0
 13 14  2  0
 14 15  1  0
 14 16  1  0
 16 17  2  0
 17 18  1  0
 17 19  1  0
 19 20  1  0
 19 21  2  0
 21 22  1  0
  9 23  1  0
 23 24  1  0
 23 25  2  0
 25 26  1  0
 25 27  1  0
 27 28  2  0
  6 29  1  0
 29 30  1  0
 29 31  2  0
 31 32  1  0
 31  2  1  0
 27  7  1  0
 21 13  1  0
M  END
>  <cnnaffinity>  (1) 
-5.30896

>  <filename>  (1) 
O=c1ccc(Cc2cccnc2)nn1-c1cccnc1

$$$$
