
     RDKit          3D

 33 35  0  0  0  0  0  0  0  0999 V2000
    5.1801    2.0926   16.9201 H   0  0  0  0  0  0  0  0  0  0  0  0
    5.5861    1.4609   17.7053 C   0  0  0  0  0  0  0  0  0  0  0  0
    6.7709    0.8874   17.4359 N   0  0  0  0  0  0  0  0  0  0  0  0
    7.2957    0.1098   18.3869 C   0  0  0  0  0  0  0  0  0  0  0  0
    8.2611   -0.3487   18.1796 H   0  0  0  0  0  0  0  0  0  0  0  0
    6.6525   -0.1751   19.6063 C   0  0  0  0  0  0  0  0  0  0  0  0
    7.3665   -1.0247   20.6019 C   0  0  0  0  0  0  0  0  0  0  0  0
    8.6599   -0.8193   20.6610 N   0  0  0  0  0  0  0  0  0  0  0  0
    9.3816   -1.3879   21.6592 N   0  0  0  0  0  0  0  0  0  0  0  0
   10.7848   -0.9357   21.7284 C   0  0  0  0  0  0  0  0  0  0  0  0
   11.0697   -0.7584   20.6916 H   0  0  0  0  0  0  0  0  0  0  0  0
   11.3882   -1.7728   22.0941 H   0  0  0  0  0  0  0  0  0  0  0  0
   11.0296    0.3291   22.5498 C   0  0  0  0  0  0  0  0  0  0  0  0
   10.9540    0.2900   23.9517 C   0  0  0  0  0  0  0  0  0  0  0  0
   10.7563   -0.6537   24.4602 H   0  0  0  0  0  0  0  0  0  0  0  0
   11.1416    1.4542   24.7037 C   0  0  0  0  0  0  0  0  0  0  0  0
   11.0150    1.4197   25.7829 H   0  0  0  0  0  0  0  0  0  0  0  0
   11.4621    2.6600   24.0732 C   0  0  0  0  0  0  0  0  0  0  0  0
   11.6121    3.5748   24.6394 H   0  0  0  0  0  0  0  0  0  0  0  0
   11.6113    2.6816   22.6879 C   0  0  0  0  0  0  0  0  0  0  0  0
   12.1739    4.1429   21.9159 Cl  0  0  0  0  0  0  0  0  0  0  0  0
   11.3578    1.5448   21.9167 C   0  0  0  0  0  0  0  0  0  0  0  0
   11.4539    1.6378   20.8364 H   0  0  0  0  0  0  0  0  0  0  0  0
    8.8032   -2.1632   22.6297 C   0  0  0  0  0  0  0  0  0  0  0  0
    9.4681   -2.5226   23.4210 H   0  0  0  0  0  0  0  0  0  0  0  0
    7.4950   -2.4951   22.5985 C   0  0  0  0  0  0  0  0  0  0  0  0
    7.0148   -3.1349   23.3301 H   0  0  0  0  0  0  0  0  0  0  0  0
    6.6460   -2.0098   21.5203 C   0  0  0  0  0  0  0  0  0  0  0  0
    5.4805   -2.3740   21.3925 O   0  0  0  0  0  0  0  0  0  0  0  0
    5.4003    0.4107   19.8579 C   0  0  0  0  0  0  0  0  0  0  0  0
    4.8668    0.1925   20.7885 H   0  0  0  0  0  0  0  0  0  0  0  0
    4.8705    1.2670   18.8932 C   0  0  0  0  0  0  0  0  0  0  0  0
    3.9368    1.8001   19.0533 H   0  0  0  0  0  0  0  0  0  0  0  0
  1  2  1  0
  2  3  2  0
  3  4  1  0
  4  5  1  0
  4  6  2  0
  6  7  1  0
  7  8  2  0
  8  9  1  0
  9 10  1  0
 10 11  1  0
 10 12  1  0
 10 13  1  0
 13 14  2  0
 14 15  1  0
 14 16  1  0
 16 17  1  0
 16 18  2  0
 18 19  1  0
 18 20  1  0
 20 21  1  0
 20 22  2  0
 22 23  1  0
  9 24  1  0
 24 25  1  0
 24 26  2  0
 26 27  1  0
 26 28  1  0
 28 29  2  0
  6 30  1  0
 30 31  1  0
 30 32  2  0
 32 33  1  0
 32  2  1  0
 28  7  1  0
 22 13  1  0
M  END
>  <cnnaffinity>  (1) 
-5.35864

>  <filename>  (1) 
O=c1ccn(Cc2cccc(Cl)c2)nc1-c1cccnc1

$$$$
