
     RDKit          3D

 32 34  0  0  0  0  0  0  0  0999 V2000
    4.9611    1.7919   16.7291 H   0  0  0  0  0  0  0  0  0  0  0  0
    5.4781    1.4250   17.6130 C   0  0  0  0  0  0  0  0  0  0  0  0
    6.6205    0.7531   17.3875 N   0  0  0  0  0  0  0  0  0  0  0  0
    7.2844    0.2842   18.4530 C   0  0  0  0  0  0  0  0  0  0  0  0
    8.2231   -0.2277   18.2475 H   0  0  0  0  0  0  0  0  0  0  0  0
    6.8271    0.4199   19.7833 C   0  0  0  0  0  0  0  0  0  0  0  0
    7.4789   -0.2307   20.9012 N   0  0  0  0  0  0  0  0  0  0  0  0
    6.7387   -1.1020   21.7026 C   0  0  0  0  0  0  0  0  0  0  0  0
    5.6549   -0.9816   21.6490 H   0  0  0  0  0  0  0  0  0  0  0  0
    7.3183   -2.0721   22.4508 C   0  0  0  0  0  0  0  0  0  0  0  0
    6.3221   -3.1693   23.4343 S   0  0  0  0  0  0  0  0  0  0  0  0
    6.7152   -4.7084   22.6039 C   0  0  0  0  0  0  0  0  0  0  0  0
    5.8618   -4.8176   21.3555 C   0  0  0  0  0  0  0  0  0  0  0  0
    4.8473   -4.8675   21.5336 H   0  0  0  0  0  0  0  0  0  0  0  0
    5.8721   -5.8965   20.6314 C   0  0  0  0  0  0  0  0  0  0  0  0
    5.3186   -6.5963   19.8410 H   0  0  0  0  0  0  0  0  0  0  0  0
    6.1758   -5.9621   20.4313 C   0  0  0  0  0  0  0  0  0  0  0  0
    7.3399   -6.1527   20.1637 H   0  0  0  0  0  0  0  0  0  0  0  0
    7.9635   -5.2758   22.7124 C   0  0  0  0  0  0  0  0  0  0  0  0
    8.0508   -6.9593   23.3090 H   0  0  0  0  0  0  0  0  0  0  0  0
    7.9628   -5.5283   22.8955 C   0  0  0  0  0  0  0  0  0  0  0  0
    8.6642   -4.8590   23.5740 H   0  0  0  0  0  0  0  0  0  0  0  0
    8.8004   -2.1695   22.4373 C   0  0  0  0  0  0  0  0  0  0  0  0
    9.5045   -3.0824   22.8205 O   0  0  0  0  0  0  0  0  0  0  0  0
    9.4104   -1.0368   21.9356 N   0  0  0  0  0  0  0  0  0  0  0  0
   10.4110   -1.0485   21.8934 H   0  0  0  0  0  0  0  0  0  0  0  0
    8.8789   -0.1270   21.0772 C   0  0  0  0  0  0  0  0  0  0  0  0
    9.5939    0.6681   20.5169 O   0  0  0  0  0  0  0  0  0  0  0  0
    5.6526    1.1470   19.9981 C   0  0  0  0  0  0  0  0  0  0  0  0
    5.3005    1.3124   21.0183 H   0  0  0  0  0  0  0  0  0  0  0  0
    4.9661    1.6589   18.8917 C   0  0  0  0  0  0  0  0  0  0  0  0
    4.0513    2.2249   19.0129 H   0  0  0  0  0  0  0  0  0  0  0  0
  1  2  1  0
  2  3  2  0
  3  4  1  0
  4  5  1  0
  4  6  2  0
  6  7  1  0
  7  8  1  0
  8  9  1  0
  8 10  2  0
 10 11  1  0
 11 12  1  0
 12 13  2  0
 13 14  1  0
 13 15  1  0
 15 16  1  0
 15 17  2  0
 17 18  1  0
 17 19  1  0
 19 20  1  0
 19 21  2  0
 21 22  1  0
 10 23  1  0
 23 24  2  0
 23 25  1  0
 25 26  1  0
 25 27  1  0
 27 28  2  0
  6 29  1  0
 29 30  1  0
 29 31  2  0
 31 32  1  0
 31  2  1  0
 27  7  1  0
 21 12  1  0
M  END
>  <cnnaffinity>  (1) 
-5.13938

>  <filename>  (1) 
O=c1[nH]c(=O)n(-c2cccnc2)cc1Sc1ccccc1

$$$$
