
     RDKit          3D

 35 37  0  0  0  0  0  0  0  0999 V2000
    4.8453    1.8211   16.8331 H   0  0  0  0  0  0  0  0  0  0  0  0
    5.3817    1.3653   17.6613 C   0  0  0  0  0  0  0  0  0  0  0  0
    6.5487    0.7734   17.3615 N   0  0  0  0  0  0  0  0  0  0  0  0
    7.2365    0.1939   18.3557 C   0  0  0  0  0  0  0  0  0  0  0  0
    8.1783   -0.2789   18.0848 H   0  0  0  0  0  0  0  0  0  0  0  0
    6.7891    0.1699   19.6944 C   0  0  0  0  0  0  0  0  0  0  0  0
    7.4406   -0.5286   20.7490 N   0  0  0  0  0  0  0  0  0  0  0  0
    6.7097   -1.3511   21.6069 C   0  0  0  0  0  0  0  0  0  0  0  0
    5.6533   -1.5225   21.5276 H   0  0  0  0  0  0  0  0  0  0  0  0
    7.5560   -1.8708   22.4967 C   0  0  0  0  0  0  0  0  0  0  0  0
    7.3517   -2.7307   23.5632 N   0  0  0  0  0  0  0  0  0  0  0  0
    7.8736   -2.5368   24.4031 H   0  0  0  0  0  0  0  0  0  0  0  0
    6.2614   -3.5240   23.7577 C   0  0  0  0  0  0  0  0  0  0  0  0
    5.0715   -3.8990   22.6683 S   0  0  0  0  0  0  0  0  0  0  0  0
    6.1932   -4.0469   25.0185 N   0  0  0  0  0  0  0  0  0  0  0  0
    5.3106   -4.5237   25.1183 H   0  0  0  0  0  0  0  0  0  0  0  0
    7.2278   -4.4629   25.8912 C   0  0  0  0  0  0  0  0  0  0  0  0
    8.5517   -4.6764   25.4710 C   0  0  0  0  0  0  0  0  0  0  0  0
    8.8416   -4.4909   24.4466 H   0  0  0  0  0  0  0  0  0  0  0  0
    9.5039   -5.1216   26.3862 C   0  0  0  0  0  0  0  0  0  0  0  0
   10.5285   -5.2867   26.0608 H   0  0  0  0  0  0  0  0  0  0  0  0
    9.1543   -5.3319   27.7184 C   0  0  0  0  0  0  0  0  0  0  0  0
    9.9188   -5.6322   28.4182 H   0  0  0  0  0  0  0  0  0  0  0  0
    7.8314   -5.1421   28.1332 C   0  0  0  0  0  0  0  0  0  0  0  0
    7.5497   -5.3342   29.1620 H   0  0  0  0  0  0  0  0  0  0  0  0
    6.8686   -4.7140   27.2207 C   0  0  0  0  0  0  0  0  0  0  0  0
    5.8442   -4.5185   27.5210 H   0  0  0  0  0  0  0  0  0  0  0  0
    8.8111   -1.3699   22.2525 N   0  0  0  0  0  0  0  0  0  0  0  0
    9.6951   -1.7254   22.5669 H   0  0  0  0  0  0  0  0  0  0  0  0
    8.7950   -0.5348   21.1466 C   0  0  0  0  0  0  0  0  0  0  0  0
    9.7477    0.0286   20.6606 O   0  0  0  0  0  0  0  0  0  0  0  0
    5.5703    0.7932   19.9878 C   0  0  0  0  0  0  0  0  0  0  0  0
    5.2075    0.7956   21.0164 H   0  0  0  0  0  0  0  0  0  0  0  0
    4.8567    1.4003   18.9557 C   0  0  0  0  0  0  0  0  0  0  0  0
    3.9074    1.8835   19.1461 H   0  0  0  0  0  0  0  0  0  0  0  0
  1  2  1  0
  2  3  2  0
  3  4  1  0
  4  5  1  0
  4  6  2  0
  6  7  1  0
  7  8  1  0
  8  9  1  0
  8 10  2  0
 10 11  1  0
 11 12  1  0
 11 13  1  0
 13 14  2  0
 13 15  1  0
 15 16  1  0
 15 17  1  0
 17 18  2  0
 18 19  1  0
 18 20  1  0
 20 21  1  0
 20 22  2  0
 22 23  1  0
 22 24  1  0
 24 25  1  0
 24 26  2  0
 26 27  1  0
 10 28  1  0
 28 29  1  0
 28 30  1  0
 30 31  2  0
  6 32  1  0
 32 33  1  0
 32 34  2  0
 34 35  1  0
 34  2  1  0
 30  7  1  0
 26 17  1  0
M  END
>  <cnnaffinity>  (1) 
-5.25968

>  <filename>  (1) 
O=c1[nH]c(NC(=S)Nc2ccccc2)cn1-c1cccnc1

$$$$
