
     RDKit          3D

 34 37  0  0  0  0  0  0  0  0999 V2000
    4.9505    1.7908   16.9930 H   0  0  0  0  0  0  0  0  0  0  0  0
    5.4144    1.2891   17.8393 C   0  0  0  0  0  0  0  0  0  0  0  0
    6.5735    0.6654   17.5826 N   0  0  0  0  0  0  0  0  0  0  0  0
    7.1771    0.0517   18.6079 C   0  0  0  0  0  0  0  0  0  0  0  0
    8.1168   -0.4381   18.3571 H   0  0  0  0  0  0  0  0  0  0  0  0
    6.6604   -0.0061   19.9163 C   0  0  0  0  0  0  0  0  0  0  0  0
    7.4044   -0.7334   20.9836 C   0  0  0  0  0  0  0  0  0  0  0  0
    6.4024   -1.7022   22.0424 S   0  0  0  0  0  0  0  0  0  0  0  0
    7.5261   -2.3074   23.2323 C   0  0  0  0  0  0  0  0  0  0  0  0
    6.9104   -3.1387   24.2998 C   0  0  0  0  0  0  0  0  0  0  0  0
    5.8112   -2.7015   25.0596 C   0  0  0  0  0  0  0  0  0  0  0  0
    5.3746   -1.7290   24.8521 H   0  0  0  0  0  0  0  0  0  0  0  0
    5.2783   -3.4930   26.0968 C   0  0  0  0  0  0  0  0  0  0  0  0
    4.4304   -3.1188   26.6683 H   0  0  0  0  0  0  0  0  0  0  0  0
    5.8216   -4.7376   26.4096 C   0  0  0  0  0  0  0  0  0  0  0  0
    5.4077   -5.3346   27.2182 H   0  0  0  0  0  0  0  0  0  0  0  0
    6.9272   -5.1755   25.6566 C   0  0  0  0  0  0  0  0  0  0  0  0
    7.4671   -4.4108   24.5903 C   0  0  0  0  0  0  0  0  0  0  0  0
    8.5842   -5.1632   24.0688 C   0  0  0  0  0  0  0  0  0  0  0  0
    9.1702   -4.9156   23.1926 H   0  0  0  0  0  0  0  0  0  0  0  0
    8.7191   -6.2727   24.8462 C   0  0  0  0  0  0  0  0  0  0  0  0
    9.5141   -7.0076   24.8407 H   0  0  0  0  0  0  0  0  0  0  0  0
    7.7179   -6.2927   25.7968 N   0  0  0  0  0  0  0  0  0  0  0  0
    7.4785   -7.0831   26.3762 H   0  0  0  0  0  0  0  0  0  0  0  0
    8.8634   -2.0927   23.1522 C   0  0  0  0  0  0  0  0  0  0  0  0
    9.5344   -2.5481   23.8702 H   0  0  0  0  0  0  0  0  0  0  0  0
    9.5468   -1.3019   22.1253 C   0  0  0  0  0  0  0  0  0  0  0  0
   10.7654   -1.1896   22.1394 O   0  0  0  0  0  0  0  0  0  0  0  0
    8.7480   -0.6595   21.0822 C   0  0  0  0  0  0  0  0  0  0  0  0
    9.3205   -0.0589   20.3862 H   0  0  0  0  0  0  0  0  0  0  0  0
    5.4406    0.6537   20.1595 C   0  0  0  0  0  0  0  0  0  0  0  0
    5.0062    0.6567   21.1607 H   0  0  0  0  0  0  0  0  0  0  0  0
    4.8095    1.3108   19.1017 C   0  0  0  0  0  0  0  0  0  0  0  0
    3.8745    1.8454   19.2426 H   0  0  0  0  0  0  0  0  0  0  0  0
  1  2  1  0
  2  3  2  0
  3  4  1  0
  4  5  1  0
  4  6  2  0
  6  7  1  0
  7  8  1  0
  8  9  1  0
  9 10  1  0
 10 11  2  0
 11 12  1  0
 11 13  1  0
 13 14  1  0
 13 15  2  0
 15 16  1  0
 15 17  1  0
 17 18  2  0
 18 19  1  0
 19 20  1  0
 19 21  2  0
 21 22  1  0
 21 23  1  0
 23 24  1  0
  9 25  2  0
 25 26  1  0
 25 27  1  0
 27 28  2  0
 27 29  1  0
 29 30  1  0
  6 31  1  0
 31 32  1  0
 31 33  2  0
 33 34  1  0
 33  2  1  0
 29  7  2  0
 18 10  1  0
 23 17  1  0
M  END
>  <cnnaffinity>  (1) 
-5.5709

>  <filename>  (1) 
O=c1cc(-c2cccnc2)sc(-c2cccc3[nH]ccc23)c1

$$$$
