
     RDKit          3D

 32 34  0  0  0  0  0  0  0  0999 V2000
    3.8288   -5.0542   23.0429 H   0  0  0  0  0  0  0  0  0  0  0  0
    4.8039   -4.7960   23.4440 C   0  0  0  0  0  0  0  0  0  0  0  0
    5.4516   -3.8358   22.8001 N   0  0  0  0  0  0  0  0  0  0  0  0
    6.6576   -3.4892   23.2814 C   0  0  0  0  0  0  0  0  0  0  0  0
    7.3165   -2.4269   22.5762 C   0  0  0  0  0  0  0  0  0  0  0  0
    6.7130   -1.7359   21.5757 C   0  0  0  0  0  0  0  0  0  0  0  0
    5.6900   -1.9263   21.2511 H   0  0  0  0  0  0  0  0  0  0  0  0
    7.3710   -0.7400   20.8865 N   0  0  0  0  0  0  0  0  0  0  0  0
    6.6768   -0.0601   19.8191 C   0  0  0  0  0  0  0  0  0  0  0  0
    7.1787   -0.0336   18.5048 C   0  0  0  0  0  0  0  0  0  0  0  0
    8.1100   -0.5495   18.2803 H   0  0  0  0  0  0  0  0  0  0  0  0
    6.5734    0.6109   17.5003 N   0  0  0  0  0  0  0  0  0  0  0  0
    5.4453    1.2825   17.7836 C   0  0  0  0  0  0  0  0  0  0  0  0
    4.9921    1.8212   16.9555 H   0  0  0  0  0  0  0  0  0  0  0  0
    4.8600    1.3078   19.0556 C   0  0  0  0  0  0  0  0  0  0  0  0
    3.9507    1.8741   19.2241 H   0  0  0  0  0  0  0  0  0  0  0  0
    5.4783    0.6036   20.0930 C   0  0  0  0  0  0  0  0  0  0  0  0
    5.0726    0.5745   21.1073 H   0  0  0  0  0  0  0  0  0  0  0  0
    8.6857   -0.3565   21.2447 C   0  0  0  0  0  0  0  0  0  0  0  0
    9.3576    0.4445   20.6375 O   0  0  0  0  0  0  0  0  0  0  0  0
    9.1599   -0.9713   22.3521 N   0  0  0  0  0  0  0  0  0  0  0  0
   10.1336   -0.8101   22.5095 H   0  0  0  0  0  0  0  0  0  0  0  0
    8.6766   -2.1154   22.9595 C   0  0  0  0  0  0  0  0  0  0  0  0
    9.4404   -2.6880   23.6964 O   0  0  0  0  0  0  0  0  0  0  0  0
    7.2411   -4.0631   24.3389 N   0  0  0  0  0  0  0  0  0  0  0  0
    6.5919   -5.0345   24.9716 C   0  0  0  0  0  0  0  0  0  0  0  0
    7.3099   -5.6756   26.1984 C   0  0  0  0  0  0  0  0  0  0  0  0
    6.6168   -6.7356   26.6589 F   0  0  0  0  0  0  0  0  0  0  0  0
    7.4223   -4.8100   27.2167 F   0  0  0  0  0  0  0  0  0  0  0  0
    8.5471   -6.1021   25.9075 F   0  0  0  0  0  0  0  0  0  0  0  0
    5.3235   -5.4491   24.5592 C   0  0  0  0  0  0  0  0  0  0  0  0
    4.7714   -6.2271   25.0664 H   0  0  0  0  0  0  0  0  0  0  0  0
  1  2  1  0
  2  3  2  0
  3  4  1  0
  4  5  1  0
  5  6  2  0
  6  7  1  0
  6  8  1  0
  8  9  1  0
  9 10  2  0
 10 11  1  0
 10 12  1  0
 12 13  2  0
 13 14  1  0
 13 15  1  0
 15 16  1  0
 15 17  2  0
 17 18  1  0
  8 19  1  0
 19 20  2  0
 19 21  1  0
 21 22  1  0
 21 23  1  0
 23 24  2  0
  4 25  2  0
 25 26  1  0
 26 27  1  0
 27 28  1  0
 27 29  1  0
 27 30  1  0
 26 31  2  0
 31 32  1  0
 31  2  1  0
 23  5  1  0
 17  9  1  0
M  END
>  <cnnaffinity>  (1) 
-5.55145

>  <filename>  (1) 
O=c1[nH]c(=O)n(-c2cccnc2)cc1-c1nccc(C(F)(F)F)n1

$$$$
