
     RDKit          3D

 32 34  0  0  0  0  0  0  0  0999 V2000
    4.9105    1.8015   16.9801 H   0  0  0  0  0  0  0  0  0  0  0  0
    5.3866    1.3047   17.8225 C   0  0  0  0  0  0  0  0  0  0  0  0
    6.5458    0.6842   17.5496 N   0  0  0  0  0  0  0  0  0  0  0  0
    7.1605    0.0654   18.5618 C   0  0  0  0  0  0  0  0  0  0  0  0
    8.1176   -0.4080   18.3548 H   0  0  0  0  0  0  0  0  0  0  0  0
    6.6347    0.0035   19.8684 C   0  0  0  0  0  0  0  0  0  0  0  0
    7.3378   -0.6794   20.9311 N   0  0  0  0  0  0  0  0  0  0  0  0
    8.6053   -0.1842   21.3612 C   0  0  0  0  0  0  0  0  0  0  0  0
    9.0863    0.8018   20.8471 O   0  0  0  0  0  0  0  0  0  0  0  0
    9.2791   -0.9267   22.4028 C   0  0  0  0  0  0  0  0  0  0  0  0
   10.2182   -0.5019   22.7157 H   0  0  0  0  0  0  0  0  0  0  0  0
    8.7397   -2.0326   22.9353 C   0  0  0  0  0  0  0  0  0  0  0  0
    9.4358   -2.9427   24.2843 S   0  0  0  0  0  0  0  0  0  0  0  0
    8.6930   -1.9567   25.5878 C   0  0  0  0  0  0  0  0  0  0  0  0
    9.2787   -0.7588   26.0217 C   0  0  0  0  0  0  0  0  0  0  0  0
   10.2218   -0.4188   25.5949 H   0  0  0  0  0  0  0  0  0  0  0  0
    8.6216    0.0165   26.9813 C   0  0  0  0  0  0  0  0  0  0  0  0
    9.0418    0.9640   27.2842 H   0  0  0  0  0  0  0  0  0  0  0  0
    7.4018   -0.3953   27.5261 C   0  0  0  0  0  0  0  0  0  0  0  0
    6.9203    0.2099   28.2911 H   0  0  0  0  0  0  0  0  0  0  0  0
    6.8115   -1.5814   27.0817 C   0  0  0  0  0  0  0  0  0  0  0  0
    5.8543   -1.9056   27.4816 H   0  0  0  0  0  0  0  0  0  0  0  0
    7.4547   -2.3523   26.1093 C   0  0  0  0  0  0  0  0  0  0  0  0
    6.9940   -3.2612   25.7321 H   0  0  0  0  0  0  0  0  0  0  0  0
    7.5143   -2.4262   22.4737 N   0  0  0  0  0  0  0  0  0  0  0  0
    6.9868   -3.2095   22.8103 H   0  0  0  0  0  0  0  0  0  0  0  0
    6.7714   -1.8132   21.4948 C   0  0  0  0  0  0  0  0  0  0  0  0
    5.7172   -2.3218   21.1915 O   0  0  0  0  0  0  0  0  0  0  0  0
    5.4324    0.6468   20.1454 C   0  0  0  0  0  0  0  0  0  0  0  0
    5.0267    0.6106   21.1556 H   0  0  0  0  0  0  0  0  0  0  0  0
    4.8017    1.3209   19.0940 C   0  0  0  0  0  0  0  0  0  0  0  0
    3.8721    1.8488   19.2496 H   0  0  0  0  0  0  0  0  0  0  0  0
  1  2  1  0
  2  3  2  0
  3  4  1  0
  4  5  1  0
  4  6  2  0
  6  7  1  0
  7  8  1  0
  8  9  2  0
  8 10  1  0
 10 11  1  0
 10 12  2  0
 12 13  1  0
 13 14  1  0
 14 15  2  0
 15 16  1  0
 15 17  1  0
 17 18  1  0
 17 19  2  0
 19 20  1  0
 19 21  1  0
 21 22  1  0
 21 23  2  0
 23 24  1  0
 12 25  1  0
 25 26  1  0
 25 27  1  0
 27 28  2  0
  6 29  1  0
 29 30  1  0
 29 31  2  0
 31 32  1  0
 31  2  1  0
 27  7  1  0
 23 14  1  0
M  END
>  <cnnaffinity>  (1) 
-5.50935

>  <filename>  (1) 
O=c1cc(Sc2ccccc2)[nH]c(=O)n1-c1cccnc1

$$$$
