
     RDKit          3D

 33 36  0  0  0  0  0  0  0  0999 V2000
    5.3587    2.1181   17.3804 H   0  0  0  0  0  0  0  0  0  0  0  0
    5.6230    1.4806   18.2207 C   0  0  0  0  0  0  0  0  0  0  0  0
    6.7255    0.7236   18.0818 N   0  0  0  0  0  0  0  0  0  0  0  0
    7.0600   -0.0660   19.1016 C   0  0  0  0  0  0  0  0  0  0  0  0
    7.9438   -0.6858   18.9673 H   0  0  0  0  0  0  0  0  0  0  0  0
    6.3382   -0.1659   20.3254 C   0  0  0  0  0  0  0  0  0  0  0  0
    6.7727   -1.0677   21.3064 N   0  0  0  0  0  0  0  0  0  0  0  0
    6.8316   -0.7763   22.5587 C   0  0  0  0  0  0  0  0  0  0  0  0
    6.4812    0.4578   23.2685 C   0  0  0  0  0  0  0  0  0  0  0  0
    5.5636    0.4655   24.2867 C   0  0  0  0  0  0  0  0  0  0  0  0
    5.1704   -0.4643   24.6884 H   0  0  0  0  0  0  0  0  0  0  0  0
    5.0613    1.5978   24.8433 N   0  0  0  0  0  0  0  0  0  0  0  0
    5.5250    2.7620   24.4196 C   0  0  0  0  0  0  0  0  0  0  0  0
    5.0943    3.6629   24.8674 H   0  0  0  0  0  0  0  0  0  0  0  0
    6.5465    2.8976   23.4289 C   0  0  0  0  0  0  0  0  0  0  0  0
    7.0713    4.1466   22.9722 C   0  0  0  0  0  0  0  0  0  0  0  0
    6.6152    5.0721   23.3269 H   0  0  0  0  0  0  0  0  0  0  0  0
    8.1205    4.1731   22.0800 C   0  0  0  0  0  0  0  0  0  0  0  0
    8.4899    5.1271   21.7084 H   0  0  0  0  0  0  0  0  0  0  0  0
    8.7022    2.9610   21.6086 C   0  0  0  0  0  0  0  0  0  0  0  0
    9.5469    2.9675   20.9283 H   0  0  0  0  0  0  0  0  0  0  0  0
    8.1822    1.7506   21.9954 C   0  0  0  0  0  0  0  0  0  0  0  0
    8.5915    0.8075   21.6420 H   0  0  0  0  0  0  0  0  0  0  0  0
    7.0728    1.6983   22.8752 C   0  0  0  0  0  0  0  0  0  0  0  0
    7.3864   -1.7641   23.4710 N   0  0  0  0  0  0  0  0  0  0  0  0
    8.3877   -2.2387   22.9083 N   0  0  0  0  0  0  0  0  0  0  0  0
    8.6522   -3.1518   23.3105 H   0  0  0  0  0  0  0  0  0  0  0  0
    6.5869   -3.5414   21.7198 C   0  0  0  0  0  0  0  0  0  0  0  0
    6.4584   -3.8875   21.6356 O   0  0  0  0  0  0  0  0  0  0  0  0
    5.1751    0.6085   20.4275 C   0  0  0  0  0  0  0  0  0  0  0  0
    4.5877    0.5592   21.3435 H   0  0  0  0  0  0  0  0  0  0  0  0
    4.8145    1.4409   19.3591 C   0  0  0  0  0  0  0  0  0  0  0  0
    3.9368    2.0796   19.4022 H   0  0  0  0  0  0  0  0  0  0  0  0
  1  2  1  0
  2  3  2  0
  3  4  1  0
  4  5  1  0
  4  6  2  0
  6  7  1  0
  7  8  1  0
  8  9  1  0
  9 10  2  0
 10 11  1  0
 10 12  1  0
 12 13  2  0
 13 14  1  0
 13 15  1  0
 15 16  2  0
 16 17  1  0
 16 18  1  0
 18 19  1  0
 18 20  2  0
 20 21  1  0
 20 22  1  0
 22 23  1  0
 22 24  2  0
  8 25  2  0
 25 26  1  0
 26 27  1  0
 26 28  1  0
 28 29  2  0
  6 30  1  0
 30 31  1  0
 30 32  2  0
 32 33  1  0
 32  2  1  0
 28  7  1  0
 24  9  1  0
 24 15  1  0
M  END
>  <cnnaffinity>  (1) 
-5.01781

>  <filename>  (1) 
O=c1[nH]nc(-c2cncc3ccccc23)n1-c1cccnc1

$$$$
