
     RDKit          3D

 32 35  0  0  0  0  0  0  0  0999 V2000
    4.9299    1.7896   16.8936 H   0  0  0  0  0  0  0  0  0  0  0  0
    5.3981    1.3336   17.7639 C   0  0  0  0  0  0  0  0  0  0  0  0
    6.5862    0.7469   17.5528 N   0  0  0  0  0  0  0  0  0  0  0  0
    7.1824    0.1698   18.6028 C   0  0  0  0  0  0  0  0  0  0  0  0
    8.1518   -0.2687   18.3757 H   0  0  0  0  0  0  0  0  0  0  0  0
    6.6485    0.1349   19.9054 C   0  0  0  0  0  0  0  0  0  0  0  0
    7.3749   -0.5277   21.0329 C   0  0  0  0  0  0  0  0  0  0  0  0
    7.0318   -0.1306   22.2991 N   0  0  0  0  0  0  0  0  0  0  0  0
    7.6731   -0.6391   23.3369 C   0  0  0  0  0  0  0  0  0  0  0  0
    7.5403   -0.0132   24.6489 C   0  0  0  0  0  0  0  0  0  0  0  0
    6.8104    1.0057   24.9706 N   0  0  0  0  0  0  0  0  0  0  0  0
    7.0554    1.2024   26.3235 C   0  0  0  0  0  0  0  0  0  0  0  0
    6.5370    2.1392   27.2412 C   0  0  0  0  0  0  0  0  0  0  0  0
    5.8449    2.9057   26.8974 H   0  0  0  0  0  0  0  0  0  0  0  0
    6.9423    2.0307   28.5743 C   0  0  0  0  0  0  0  0  0  0  0  0
    6.5328    2.7140   29.3141 H   0  0  0  0  0  0  0  0  0  0  0  0
    7.8602    1.0365   28.9809 C   0  0  0  0  0  0  0  0  0  0  0  0
    8.1595    0.9729   30.0248 H   0  0  0  0  0  0  0  0  0  0  0  0
    8.4037    0.1239   28.0679 C   0  0  0  0  0  0  0  0  0  0  0  0
    9.1260   -0.6306   28.3642 H   0  0  0  0  0  0  0  0  0  0  0  0
    7.9720    0.2343   26.7491 C   0  0  0  0  0  0  0  0  0  0  0  0
    8.2930   -0.5295   25.6768 O   0  0  0  0  0  0  0  0  0  0  0  0
    8.5796   -1.8161   23.2409 C   0  0  0  0  0  0  0  0  0  0  0  0
    9.0591   -2.5130   24.1064 O   0  0  0  0  0  0  0  0  0  0  0  0
    8.9036   -2.1084   21.9124 N   0  0  0  0  0  0  0  0  0  0  0  0
    9.5351   -2.9042   21.8946 H   0  0  0  0  0  0  0  0  0  0  0  0
    8.3508   -1.4754   20.8260 C   0  0  0  0  0  0  0  0  0  0  0  0
    8.7385   -1.7355   19.8493 H   0  0  0  0  0  0  0  0  0  0  0  0
    5.4120    0.7779   20.1050 C   0  0  0  0  0  0  0  0  0  0  0  0
    4.9914    0.8249   21.1112 H   0  0  0  0  0  0  0  0  0  0  0  0
    4.7755    1.3770   19.0168 C   0  0  0  0  0  0  0  0  0  0  0  0
    3.8289    1.8995   19.1286 H   0  0  0  0  0  0  0  0  0  0  0  0
  1  2  1  0
  2  3  2  0
  3  4  1  0
  4  5  1  0
  4  6  2  0
  6  7  1  0
  7  8  1  0
  8  9  2  0
  9 10  1  0
 10 11  2  0
 11 12  1  0
 12 13  2  0
 13 14  1  0
 13 15  1  0
 15 16  1  0
 15 17  2  0
 17 18  1  0
 17 19  1  0
 19 20  1  0
 19 21  2  0
 21 22  1  0
  9 23  1  0
 23 24  2  0
 23 25  1  0
 25 26  1  0
 25 27  1  0
 27 28  1  0
  6 29  1  0
 29 30  1  0
 29 31  2  0
 31 32  1  0
 31  2  1  0
 27  7  2  0
 22 10  1  0
 21 12  1  0
M  END
>  <cnnaffinity>  (1) 
-5.27192

>  <filename>  (1) 
O=c1[nH]cc(-c2cccnc2)nc1-c1nc2ccccc2o1

$$$$
