
     RDKit          3D

 28 30  0  0  0  0  0  0  0  0999 V2000
   11.4959    2.1569   24.5417 H   0  0  0  0  0  0  0  0  0  0  0  0
   11.5047    1.4750   23.6972 C   0  0  0  0  0  0  0  0  0  0  0  0
   12.2866    0.4497   23.3755 C   0  0  0  0  0  0  0  0  0  0  0  0
   13.1428    0.0013   23.8691 H   0  0  0  0  0  0  0  0  0  0  0  0
   11.8100   -0.1244   22.0752 C   0  0  0  0  0  0  0  0  0  0  0  0
   12.2204   -1.0887   21.4898 O   0  0  0  0  0  0  0  0  0  0  0  0
   10.7376    0.6634   21.6693 N   0  0  0  0  0  0  0  0  0  0  0  0
    9.7087    0.2030   20.7481 C   0  0  0  0  0  0  0  0  0  0  0  0
   10.1911   -0.4420   20.0097 H   0  0  0  0  0  0  0  0  0  0  0  0
    9.2750    1.0820   20.2639 H   0  0  0  0  0  0  0  0  0  0  0  0
    8.6365   -0.6371   21.3883 C   0  0  0  0  0  0  0  0  0  0  0  0
    8.8491   -1.4849   22.3540 N   0  0  0  0  0  0  0  0  0  0  0  0
    7.6567   -2.0970   22.6423 N   0  0  0  0  0  0  0  0  0  0  0  0
    6.7684   -1.6032   21.8269 C   0  0  0  0  0  0  0  0  0  0  0  0
    5.7258   -1.8736   21.8148 H   0  0  0  0  0  0  0  0  0  0  0  0
    7.3229   -0.6857   20.9657 N   0  0  0  0  0  0  0  0  0  0  0  0
    6.6595    0.0077   19.8983 C   0  0  0  0  0  0  0  0  0  0  0  0
    7.1674    0.0567   18.5800 C   0  0  0  0  0  0  0  0  0  0  0  0
    8.1082   -0.4329   18.3360 H   0  0  0  0  0  0  0  0  0  0  0  0
    6.5512    0.6799   17.5689 N   0  0  0  0  0  0  0  0  0  0  0  0
    5.3916    1.3011   17.8272 C   0  0  0  0  0  0  0  0  0  0  0  0
    4.9179    1.8022   16.9847 H   0  0  0  0  0  0  0  0  0  0  0  0
    4.8069    1.3132   19.0972 C   0  0  0  0  0  0  0  0  0  0  0  0
    3.8764    1.8434   19.2483 H   0  0  0  0  0  0  0  0  0  0  0  0
    5.4430    0.6498   20.1508 C   0  0  0  0  0  0  0  0  0  0  0  0
    5.0334    0.6352   21.1624 H   0  0  0  0  0  0  0  0  0  0  0  0
   10.4674    1.6288   22.6296 C   0  0  0  0  0  0  0  0  0  0  0  0
    9.5447    2.3996   22.5916 O   0  0  0  0  0  0  0  0  0  0  0  0
  1  2  1  0
  2  3  2  0
  3  4  1  0
  3  5  1  0
  5  6  2  0
  5  7  1  0
  7  8  1  0
  8  9  1  0
  8 10  1  0
  8 11  1  0
 11 12  2  0
 12 13  1  0
 13 14  2  0
 14 15  1  0
 14 16  1  0
 16 17  1  0
 17 18  2  0
 18 19  1  0
 18 20  1  0
 20 21  2  0
 21 22  1  0
 21 23  1  0
 23 24  1  0
 23 25  2  0
 25 26  1  0
  7 27  1  0
 27 28  2  0
 27  2  1  0
 16 11  1  0
 25 17  1  0
M  END
>  <cnnaffinity>  (1) 
-5.17868

>  <filename>  (1) 
O=C1C=CC(=O)N1Cc1nncn1-c1cccnc1

$$$$
