
     RDKit          3D

 20 20  0  0  0  0  0  0  0  0999 V2000
    8.8885   -3.7523   23.2671 H   0  0  0  0  0  0  0  0  0  0  0  0
    8.7764   -3.4131   22.2278 C   0  0  0  0  0  0  0  0  0  0  0  0
    8.2803   -4.0553   21.3464 O   0  0  0  0  0  0  0  0  0  0  0  0
    9.5039   -1.6803   22.0895 S   0  0  0  0  0  0  0  0  0  0  0  0
   10.8603   -1.6497   21.5708 O   0  0  0  0  0  0  0  0  0  0  0  0
    9.1693   -0.9724   23.3105 O   0  0  0  0  0  0  0  0  0  0  0  0
    8.6943   -1.0256   20.7919 N   0  0  0  0  0  0  0  0  0  0  0  0
    9.2813   -0.2710   20.4683 H   0  0  0  0  0  0  0  0  0  0  0  0
    7.3483   -0.7891   21.0063 C   0  0  0  0  0  0  0  0  0  0  0  0
    6.7813   -1.3035   21.9433 O   0  0  0  0  0  0  0  0  0  0  0  0
    6.7176    0.0283   19.9595 C   0  0  0  0  0  0  0  0  0  0  0  0
    7.2606    0.0555   18.6722 C   0  0  0  0  0  0  0  0  0  0  0  0
    8.1904   -0.4655   18.4558 H   0  0  0  0  0  0  0  0  0  0  0  0
    6.6776    0.6575   17.6332 N   0  0  0  0  0  0  0  0  0  0  0  0
    5.5080    1.2769   17.8522 C   0  0  0  0  0  0  0  0  0  0  0  0
    5.0453    1.7647   16.9929 H   0  0  0  0  0  0  0  0  0  0  0  0
    4.8823    1.3104   19.1059 C   0  0  0  0  0  0  0  0  0  0  0  0
    3.9353    1.8259   19.2238 H   0  0  0  0  0  0  0  0  0  0  0  0
    5.4949    0.6743   20.1819 C   0  0  0  0  0  0  0  0  0  0  0  0
    5.0472    0.6484   21.1766 H   0  0  0  0  0  0  0  0  0  0  0  0
  1  2  1  0
  2  3  2  0
  2  4  1  0
  4  5  2  0
  4  6  2  0
  4  7  1  0
  7  8  1  0
  7  9  1  0
  9 10  2  0
  9 11  1  0
 11 12  2  0
 12 13  1  0
 12 14  1  0
 14 15  2  0
 15 16  1  0
 15 17  1  0
 17 18  1  0
 17 19  2  0
 19 20  1  0
 19 11  1  0
M  END
>  <cnnaffinity>  (1) 
-4.38541

>  <filename>  (1) 
O=CS(=O)(=O)NC(=O)c1cccnc1

$$$$
