
     RDKit          3D

 26 27  0  0  0  0  0  0  0  0999 V2000
    6.0778   -3.9646   24.2540 H   0  0  0  0  0  0  0  0  0  0  0  0
    6.4511   -3.3169   23.6445 O   0  0  0  0  0  0  0  0  0  0  0  0
    6.0783   -3.9699   22.2571 P   0  0  0  0  0  0  0  0  0  0  0  0
    4.7331   -4.5444   22.4669 O   0  0  0  0  0  0  0  0  0  0  0  0
    7.0276   -5.2281   22.1376 O   0  0  0  0  0  0  0  0  0  0  0  0
    6.7075   -5.7319   22.8957 H   0  0  0  0  0  0  0  0  0  0  0  0
    6.2462   -2.7800   20.8436 C   0  0  0  0  0  0  0  0  0  0  0  0
    6.0526   -3.3466   19.6093 F   0  0  0  0  0  0  0  0  0  0  0  0
    5.3782   -1.7411   20.9769 F   0  0  0  0  0  0  0  0  0  0  0  0
    7.6250   -2.2174   21.0335 C   0  0  0  0  0  0  0  0  0  0  0  0
    8.4759   -2.6392   21.9477 N   0  0  0  0  0  0  0  0  0  0  0  0
    9.5072   -1.7423   21.9390 N   0  0  0  0  0  0  0  0  0  0  0  0
   10.0093   -1.5275   22.7998 H   0  0  0  0  0  0  0  0  0  0  0  0
    9.2244   -0.7028   21.0742 C   0  0  0  0  0  0  0  0  0  0  0  0
   10.0376    0.7526   21.0489 S   0  0  0  0  0  0  0  0  0  0  0  0
    8.0956   -1.0846   20.3657 N   0  0  0  0  0  0  0  0  0  0  0  0
    7.3097   -0.2563   19.5380 C   0  0  0  0  0  0  0  0  0  0  0  0
    7.6157   -0.0469   18.1734 C   0  0  0  0  0  0  0  0  0  0  0  0
    8.4983   -0.5303   17.7613 H   0  0  0  0  0  0  0  0  0  0  0  0
    6.8432    0.6853   17.3458 N   0  0  0  0  0  0  0  0  0  0  0  0
    5.7286    1.2438   17.8479 C   0  0  0  0  0  0  0  0  0  0  0  0
    5.1020    1.8323   17.1877 H   0  0  0  0  0  0  0  0  0  0  0  0
    5.3613    1.0945   19.1887 C   0  0  0  0  0  0  0  0  0  0  0  0
    4.4472    1.5595   19.5383 H   0  0  0  0  0  0  0  0  0  0  0  0
    6.1629    0.3509   20.0520 C   0  0  0  0  0  0  0  0  0  0  0  0
    5.8916    0.2284   21.1012 H   0  0  0  0  0  0  0  0  0  0  0  0
  1  2  1  0
  2  3  1  0
  3  4  2  0
  3  5  1  0
  5  6  1  0
  3  7  1  0
  7  8  1  0
  7  9  1  0
  7 10  1  0
 10 11  2  0
 11 12  1  0
 12 13  1  0
 12 14  1  0
 14 15  2  0
 14 16  1  0
 16 17  1  0
 17 18  2  0
 18 19  1  0
 18 20  1  0
 20 21  2  0
 21 22  1  0
 21 23  1  0
 23 24  1  0
 23 25  2  0
 25 26  1  0
 16 10  1  0
 25 17  1  0
M  END
>  <cnnaffinity>  (1) 
-4.76875

>  <filename>  (1) 
O=P(O)(O)C(F)(F)c1n[nH]c(=S)n1-c1cccnc1

$$$$
