
     RDKit          3D

 36 38  0  0  0  0  0  0  0  0999 V2000
    4.9335    1.7872   16.9839 H   0  0  0  0  0  0  0  0  0  0  0  0
    5.4061    1.2965   17.8342 C   0  0  0  0  0  0  0  0  0  0  0  0
    6.5684    0.6737   17.5851 N   0  0  0  0  0  0  0  0  0  0  0  0
    7.1845    0.0799   18.6143 C   0  0  0  0  0  0  0  0  0  0  0  0
    8.1133   -0.4365   18.3699 H   0  0  0  0  0  0  0  0  0  0  0  0
    6.6843    0.0670   19.9220 C   0  0  0  0  0  0  0  0  0  0  0  0
    7.3725   -0.6617   21.0008 C   0  0  0  0  0  0  0  0  0  0  0  0
    6.7886   -1.5963   21.7084 N   0  0  0  0  0  0  0  0  0  0  0  0
    7.7359   -2.0514   22.5903 C   0  0  0  0  0  0  0  0  0  0  0  0
    7.4796   -2.8110   23.3188 H   0  0  0  0  0  0  0  0  0  0  0  0
    8.9097   -1.3821   22.4060 C   0  0  0  0  0  0  0  0  0  0  0  0
    9.8444   -1.3757   22.9549 H   0  0  0  0  0  0  0  0  0  0  0  0
    8.6734   -0.4948   21.3680 N   0  0  0  0  0  0  0  0  0  0  0  0
    9.5634    0.5397   20.9227 C   0  0  0  0  0  0  0  0  0  0  0  0
   10.5478    0.3279   21.3521 H   0  0  0  0  0  0  0  0  0  0  0  0
    9.6455    0.5008   19.8372 H   0  0  0  0  0  0  0  0  0  0  0  0
    9.1393    1.8940   21.2393 N   0  0  0  0  0  0  0  0  0  0  0  0
    8.1776    2.0952   20.9762 H   0  0  0  0  0  0  0  0  0  0  0  0
    8.8929    2.2411   22.8495 S   0  0  0  0  0  0  0  0  0  0  0  0
    8.7947    3.6811   22.8670 O   0  0  0  0  0  0  0  0  0  0  0  0
    7.7603    1.4339   23.2601 O   0  0  0  0  0  0  0  0  0  0  0  0
   10.3590    1.6904   23.6785 C   0  0  0  0  0  0  0  0  0  0  0  0
   11.6109    2.2105   23.3115 C   0  0  0  0  0  0  0  0  0  0  0  0
   11.7195    2.9442   22.5115 H   0  0  0  0  0  0  0  0  0  0  0  0
   12.7508    1.7973   24.0055 C   0  0  0  0  0  0  0  0  0  0  0  0
   13.7158    2.2143   23.7396 H   0  0  0  0  0  0  0  0  0  0  0  0
   12.6521    0.8789   25.0535 C   0  0  0  0  0  0  0  0  0  0  0  0
   13.5306    0.5541   25.6018 H   0  0  0  0  0  0  0  0  0  0  0  0
   11.3956    0.4027   25.4340 C   0  0  0  0  0  0  0  0  0  0  0  0
   11.2934   -0.2542   26.2889 H   0  0  0  0  0  0  0  0  0  0  0  0
   10.2450    0.7955   24.7562 C   0  0  0  0  0  0  0  0  0  0  0  0
    9.2827    0.4158   25.0983 H   0  0  0  0  0  0  0  0  0  0  0  0
    5.4453    0.6778   20.1593 C   0  0  0  0  0  0  0  0  0  0  0  0
    4.9949    0.6335   21.1520 H   0  0  0  0  0  0  0  0  0  0  0  0
    4.8094    1.3205   19.0998 C   0  0  0  0  0  0  0  0  0  0  0  0
    3.8699    1.8435   19.2380 H   0  0  0  0  0  0  0  0  0  0  0  0
  1  2  1  0
  2  3  2  0
  3  4  1  0
  4  5  1  0
  4  6  2  0
  6  7  1  0
  7  8  2  0
  8  9  1  0
  9 10  1  0
  9 11  2  0
 11 12  1  0
 11 13  1  0
 13 14  1  0
 14 15  1  0
 14 16  1  0
 14 17  1  0
 17 18  1  0
 17 19  1  0
 19 20  2  0
 19 21  2  0
 19 22  1  0
 22 23  2  0
 23 24  1  0
 23 25  1  0
 25 26  1  0
 25 27  2  0
 27 28  1  0
 27 29  1  0
 29 30  1  0
 29 31  2  0
 31 32  1  0
  6 33  1  0
 33 34  1  0
 33 35  2  0
 35 36  1  0
 35  2  1  0
 13  7  1  0
 31 22  1  0
M  END
>  <cnnaffinity>  (1) 
-5.30836

>  <filename>  (1) 
O=S(=O)(NCn1ccnc1-c1cccnc1)c1ccccc1

$$$$
