
     RDKit          3D

 33 35  0  0  0  0  0  0  0  0999 V2000
    4.9815    1.8010   16.9270 H   0  0  0  0  0  0  0  0  0  0  0  0
    5.4475    1.3023   17.7737 C   0  0  0  0  0  0  0  0  0  0  0  0
    6.6175    0.6905   17.5260 N   0  0  0  0  0  0  0  0  0  0  0  0
    7.2178    0.0861   18.5574 C   0  0  0  0  0  0  0  0  0  0  0  0
    8.1783   -0.3852   18.3404 H   0  0  0  0  0  0  0  0  0  0  0  0
    6.6817    0.0167   19.8591 C   0  0  0  0  0  0  0  0  0  0  0  0
    7.4538   -0.6565   20.9170 C   0  0  0  0  0  0  0  0  0  0  0  0
    8.7960   -0.5343   21.1808 C   0  0  0  0  0  0  0  0  0  0  0  0
    9.4840    0.1194   20.6724 H   0  0  0  0  0  0  0  0  0  0  0  0
    9.0360   -1.3799   22.2774 C   0  0  0  0  0  0  0  0  0  0  0  0
    9.9706   -1.5586   22.7901 H   0  0  0  0  0  0  0  0  0  0  0  0
    7.9339   -2.0049   22.6591 N   0  0  0  0  0  0  0  0  0  0  0  0
    6.9771   -1.5176   21.8749 N   0  0  0  0  0  0  0  0  0  0  0  0
    5.7784   -2.2679   21.8171 N   0  0  0  0  0  0  0  0  0  0  0  0
    5.0112   -1.6373   22.0345 H   0  0  0  0  0  0  0  0  0  0  0  0
    5.5016   -3.2006   23.2238 S   0  0  0  0  0  0  0  0  0  0  0  0
    5.7808   -2.3775   24.3813 O   0  0  0  0  0  0  0  0  0  0  0  0
    4.1739   -3.6971   22.9356 O   0  0  0  0  0  0  0  0  0  0  0  0
    6.6898   -4.4819   23.0788 C   0  0  0  0  0  0  0  0  0  0  0  0
    6.7915   -5.1068   21.8363 C   0  0  0  0  0  0  0  0  0  0  0  0
    6.2737   -4.7352   20.9511 H   0  0  0  0  0  0  0  0  0  0  0  0
    7.6119   -6.2179   21.7245 C   0  0  0  0  0  0  0  0  0  0  0  0
    7.5946   -6.6960   20.7564 H   0  0  0  0  0  0  0  0  0  0  0  0
    8.3664   -6.6737   22.8176 C   0  0  0  0  0  0  0  0  0  0  0  0
    9.0207   -7.5395   22.7336 H   0  0  0  0  0  0  0  0  0  0  0  0
    8.2978   -5.9905   24.0416 C   0  0  0  0  0  0  0  0  0  0  0  0
    8.8905   -6.3306   24.8930 H   0  0  0  0  0  0  0  0  0  0  0  0
    7.4541   -4.8840   24.1825 C   0  0  0  0  0  0  0  0  0  0  0  0
    7.3960   -4.3464   25.1313 H   0  0  0  0  0  0  0  0  0  0  0  0
    5.4641    0.6723   20.0958 C   0  0  0  0  0  0  0  0  0  0  0  0
    5.0563    0.7218   21.1070 H   0  0  0  0  0  0  0  0  0  0  0  0
    4.8367    1.3196   19.0308 C   0  0  0  0  0  0  0  0  0  0  0  0
    3.9097    1.8641   19.1676 H   0  0  0  0  0  0  0  0  0  0  0  0
  1  2  1  0
  2  3  2  0
  3  4  1  0
  4  5  1  0
  4  6  2  0
  6  7  1  0
  7  8  2  0
  8  9  1  0
  8 10  1  0
 10 11  1  0
 10 12  2  0
 12 13  1  0
 13 14  1  0
 14 15  1  0
 14 16  1  0
 16 17  2  0
 16 18  2  0
 16 19  1  0
 19 20  2  0
 20 21  1  0
 20 22  1  0
 22 23  1  0
 22 24  2  0
 24 25  1  0
 24 26  1  0
 26 27  1  0
 26 28  2  0
 28 29  1  0
  6 30  1  0
 30 31  1  0
 30 32  2  0
 32 33  1  0
 32  2  1  0
 13  7  1  0
 28 19  1  0
M  END
>  <cnnaffinity>  (1) 
-4.90843

>  <filename>  (1) 
O=S(=O)(Nn1nccc1-c1cccnc1)c1ccccc1

$$$$
