
     RDKit          3D

 30 31  0  0  0  0  0  0  0  0999 V2000
    5.3749    1.7296   16.8564 H   0  0  0  0  0  0  0  0  0  0  0  0
    5.6646    1.1718   17.7492 C   0  0  0  0  0  0  0  0  0  0  0  0
    6.7679    0.4189   17.6493 N   0  0  0  0  0  0  0  0  0  0  0  0
    7.1717   -0.2462   18.7272 C   0  0  0  0  0  0  0  0  0  0  0  0
    8.0648   -0.8568   18.6094 H   0  0  0  0  0  0  0  0  0  0  0  0
    6.4931   -0.1629   19.9338 C   0  0  0  0  0  0  0  0  0  0  0  0
    7.4681   -0.6530   21.2611 S   0  0  0  0  0  0  0  0  0  0  0  0
    7.8100    0.5021   22.0578 O   0  0  0  0  0  0  0  0  0  0  0  0
    8.4884   -1.5875   20.8350 O   0  0  0  0  0  0  0  0  0  0  0  0
    6.3483   -1.3999   22.1856 N   0  0  0  0  0  0  0  0  0  0  0  0
    6.7385   -1.3513   23.1151 H   0  0  0  0  0  0  0  0  0  0  0  0
    5.8648   -2.6329   21.7889 C   0  0  0  0  0  0  0  0  0  0  0  0
    5.8005   -3.1652   20.2571 S   0  0  0  0  0  0  0  0  0  0  0  0
    5.3584   -3.2285   22.8974 N   0  0  0  0  0  0  0  0  0  0  0  0
    4.9655   -2.5341   23.5173 H   0  0  0  0  0  0  0  0  0  0  0  0
    4.8453   -4.5450   22.9833 C   0  0  0  0  0  0  0  0  0  0  0  0
    3.5806   -4.7371   23.5409 C   0  0  0  0  0  0  0  0  0  0  0  0
    2.9994   -3.8802   23.8619 H   0  0  0  0  0  0  0  0  0  0  0  0
    3.0618   -6.0288   23.6699 C   0  0  0  0  0  0  0  0  0  0  0  0
    2.0584   -6.1612   24.0610 H   0  0  0  0  0  0  0  0  0  0  0  0
    3.8167   -7.1390   23.2793 C   0  0  0  0  0  0  0  0  0  0  0  0
    3.4134   -8.1449   23.3894 H   0  0  0  0  0  0  0  0  0  0  0  0
    5.0942   -6.9416   22.7384 C   0  0  0  0  0  0  0  0  0  0  0  0
    5.7024   -7.7914   22.4378 H   0  0  0  0  0  0  0  0  0  0  0  0
    5.5984   -5.6465   22.5606 C   0  0  0  0  0  0  0  0  0  0  0  0
    6.5601   -5.4712   22.0939 H   0  0  0  0  0  0  0  0  0  0  0  0
    5.3139    0.5781   20.0658 C   0  0  0  0  0  0  0  0  0  0  0  0
    4.7346    0.6489   20.9961 H   0  0  0  0  0  0  0  0  0  0  0  0
    4.9142    1.2748   18.9275 C   0  0  0  0  0  0  0  0  0  0  0  0
    4.0447    1.9195   18.9426 H   0  0  0  0  0  0  0  0  0  0  0  0
  1  2  1  0
  2  3  2  0
  3  4  1  0
  4  5  1  0
  4  6  2  0
  6  7  1  0
  7  8  2  0
  7  9  2  0
  7 10  1  0
 10 11  1  0
 10 12  1  0
 12 13  2  0
 12 14  1  0
 14 15  1  0
 14 16  1  0
 16 17  2  0
 17 18  1  0
 17 19  1  0
 19 20  1  0
 19 21  2  0
 21 22  1  0
 21 23  1  0
 23 24  1  0
 23 25  2  0
 25 26  1  0
  6 27  1  0
 27 28  1  0
 27 29  2  0
 29 30  1  0
 29  2  1  0
 25 16  1  0
M  END
>  <cnnaffinity>  (1) 
-4.77695

>  <filename>  (1) 
O=S(=O)(NC(=S)Nc1ccccc1)c1cccnc1

$$$$
