
     RDKit          3D

 29 30  0  0  0  0  0  0  0  0999 V2000
    4.9414    1.5742   16.9142 H   0  0  0  0  0  0  0  0  0  0  0  0
    5.4586    1.1957   17.7948 C   0  0  0  0  0  0  0  0  0  0  0  0
    6.6304    0.5797   17.5783 N   0  0  0  0  0  0  0  0  0  0  0  0
    7.3126    0.1292   18.6290 C   0  0  0  0  0  0  0  0  0  0  0  0
    8.2421   -0.3989   18.4095 H   0  0  0  0  0  0  0  0  0  0  0  0
    6.8584    0.3347   19.9194 C   0  0  0  0  0  0  0  0  0  0  0  0
    7.8375   -0.3699   21.1459 S   0  0  0  0  0  0  0  0  0  0  0  0
    7.4805    0.2160   22.4148 O   0  0  0  0  0  0  0  0  0  0  0  0
    9.1959   -0.5036   20.6549 O   0  0  0  0  0  0  0  0  0  0  0  0
    7.3567   -1.9342   21.0917 N   0  0  0  0  0  0  0  0  0  0  0  0
    8.0432   -2.2831   20.4436 H   0  0  0  0  0  0  0  0  0  0  0  0
    5.9478   -2.2798   20.9806 C   0  0  0  0  0  0  0  0  0  0  0  0
    5.4451   -1.9273   21.8816 H   0  0  0  0  0  0  0  0  0  0  0  0
    5.4638   -1.7806   20.1291 H   0  0  0  0  0  0  0  0  0  0  0  0
    5.7464   -3.7671   20.8498 C   0  0  0  0  0  0  0  0  0  0  0  0
    5.8383   -4.3833   19.5900 C   0  0  0  0  0  0  0  0  0  0  0  0
    6.0896   -3.7873   18.7148 H   0  0  0  0  0  0  0  0  0  0  0  0
    5.6176   -5.7569   19.4683 C   0  0  0  0  0  0  0  0  0  0  0  0
    5.6637   -6.2464   18.5003 H   0  0  0  0  0  0  0  0  0  0  0  0
    5.3056   -6.5184   20.5930 C   0  0  0  0  0  0  0  0  0  0  0  0
    5.0679   -7.5710   20.5025 H   0  0  0  0  0  0  0  0  0  0  0  0
    5.2697   -5.9144   21.8481 C   0  0  0  0  0  0  0  0  0  0  0  0
    4.9912   -6.9151   23.2427 Cl  0  0  0  0  0  0  0  0  0  0  0  0
    5.4603   -4.5397   21.9843 C   0  0  0  0  0  0  0  0  0  0  0  0
    5.3920   -4.0811   22.9716 H   0  0  0  0  0  0  0  0  0  0  0  0
    5.6181    0.9246   20.1825 C   0  0  0  0  0  0  0  0  0  0  0  0
    5.2167    0.9969   21.1977 H   0  0  0  0  0  0  0  0  0  0  0  0
    4.9096    1.3704   19.0724 C   0  0  0  0  0  0  0  0  0  0  0  0
    3.9436    1.8448   19.1851 H   0  0  0  0  0  0  0  0  0  0  0  0
  1  2  1  0
  2  3  2  0
  3  4  1  0
  4  5  1  0
  4  6  2  0
  6  7  1  0
  7  8  2  0
  7  9  2  0
  7 10  1  0
 10 11  1  0
 10 12  1  0
 12 13  1  0
 12 14  1  0
 12 15  1  0
 15 16  2  0
 16 17  1  0
 16 18  1  0
 18 19  1  0
 18 20  2  0
 20 21  1  0
 20 22  1  0
 22 23  1  0
 22 24  2  0
 24 25  1  0
  6 26  1  0
 26 27  1  0
 26 28  2  0
 28 29  1  0
 28  2  1  0
 24 15  1  0
M  END
>  <cnnaffinity>  (1) 
-4.82709

>  <filename>  (1) 
O=S(=O)(NCc1cccc(Cl)c1)c1cccnc1

$$$$
