
     RDKit          3D

 31 32  0  0  0  0  0  0  0  0999 V2000
    5.1412    1.6351   17.0791 H   0  0  0  0  0  0  0  0  0  0  0  0
    5.5173    1.1248   17.9659 C   0  0  0  0  0  0  0  0  0  0  0  0
    6.6438    0.4123   17.8093 N   0  0  0  0  0  0  0  0  0  0  0  0
    7.1437   -0.2135   18.8691 C   0  0  0  0  0  0  0  0  0  0  0  0
    8.0699   -0.7640   18.7099 H   0  0  0  0  0  0  0  0  0  0  0  0
    6.5468   -0.1192   20.1140 C   0  0  0  0  0  0  0  0  0  0  0  0
    7.4402   -0.8413   21.3783 S   0  0  0  0  0  0  0  0  0  0  0  0
    8.8317   -0.9643   20.9739 O   0  0  0  0  0  0  0  0  0  0  0  0
    7.0378   -0.2424   22.6305 O   0  0  0  0  0  0  0  0  0  0  0  0
    6.8870   -2.4123   21.2135 N   0  0  0  0  0  0  0  0  0  0  0  0
    7.2982   -2.5735   20.3059 H   0  0  0  0  0  0  0  0  0  0  0  0
    7.5543   -3.2295   22.2161 C   0  0  0  0  0  0  0  0  0  0  0  0
    7.3905   -4.2998   21.9952 H   0  0  0  0  0  0  0  0  0  0  0  0
    8.6553   -3.1068   22.2652 H   0  0  0  0  0  0  0  0  0  0  0  0
    6.9168   -2.8340   23.3980 N   0  0  0  0  0  0  0  0  0  0  0  0
    6.3742   -1.9916   23.2722 H   0  0  0  0  0  0  0  0  0  0  0  0
    7.1756   -3.3363   24.6404 C   0  0  0  0  0  0  0  0  0  0  0  0
    6.3470   -2.9681   25.7153 C   0  0  0  0  0  0  0  0  0  0  0  0
    5.5343   -2.2710   25.5274 H   0  0  0  0  0  0  0  0  0  0  0  0
    6.5755   -3.5032   26.9832 C   0  0  0  0  0  0  0  0  0  0  0  0
    5.9229   -3.2241   27.8047 H   0  0  0  0  0  0  0  0  0  0  0  0
    7.6345   -4.3917   27.2085 C   0  0  0  0  0  0  0  0  0  0  0  0
    7.8175   -4.7989   28.2003 H   0  0  0  0  0  0  0  0  0  0  0  0
    8.4597   -4.7515   26.1382 C   0  0  0  0  0  0  0  0  0  0  0  0
    9.2843   -5.4417   26.2921 H   0  0  0  0  0  0  0  0  0  0  0  0
    8.2386   -4.2328   24.8622 C   0  0  0  0  0  0  0  0  0  0  0  0
    8.8709   -4.4987   24.0216 H   0  0  0  0  0  0  0  0  0  0  0  0
    5.3487    0.5741   20.3058 C   0  0  0  0  0  0  0  0  0  0  0  0
    4.8507    0.6203   21.2767 H   0  0  0  0  0  0  0  0  0  0  0  0
    4.8346    1.2169   19.1837 C   0  0  0  0  0  0  0  0  0  0  0  0
    3.9276    1.8047   19.2436 H   0  0  0  0  0  0  0  0  0  0  0  0
  1  2  1  0
  2  3  2  0
  3  4  1  0
  4  5  1  0
  4  6  2  0
  6  7  1  0
  7  8  2  0
  7  9  2  0
  7 10  1  0
 10 11  1  0
 10 12  1  0
 12 13  1  0
 12 14  1  0
 12 15  1  0
 15 16  1  0
 15 17  1  0
 17 18  2  0
 18 19  1  0
 18 20  1  0
 20 21  1  0
 20 22  2  0
 22 23  1  0
 22 24  1  0
 24 25  1  0
 24 26  2  0
 26 27  1  0
  6 28  1  0
 28 29  1  0
 28 30  2  0
 30 31  1  0
 30  2  1  0
 26 17  1  0
M  END
>  <cnnaffinity>  (1) 
-4.44245

>  <filename>  (1) 
O=S(=O)(NCNc1ccccc1)c1cccnc1

$$$$
