
     RDKit          3D

 32 33  0  0  0  0  0  0  0  0999 V2000
    4.9796    1.7588   17.0202 H   0  0  0  0  0  0  0  0  0  0  0  0
    5.4312    1.2566   17.8712 C   0  0  0  0  0  0  0  0  0  0  0  0
    6.5921    0.6290   17.6353 N   0  0  0  0  0  0  0  0  0  0  0  0
    7.1851    0.0102   18.6534 C   0  0  0  0  0  0  0  0  0  0  0  0
    8.1490   -0.4460   18.4375 H   0  0  0  0  0  0  0  0  0  0  0  0
    6.6074   -0.0319   19.9174 C   0  0  0  0  0  0  0  0  0  0  0  0
    7.5284   -0.8327   21.1633 S   0  0  0  0  0  0  0  0  0  0  0  0
    8.9133   -0.8653   20.7056 O   0  0  0  0  0  0  0  0  0  0  0  0
    7.1463   -0.2282   22.4354 O   0  0  0  0  0  0  0  0  0  0  0  0
    6.9203   -2.5188   21.1754 C   0  0  0  0  0  0  0  0  0  0  0  0
    5.9601   -2.4489   21.6946 H   0  0  0  0  0  0  0  0  0  0  0  0
    6.7654   -2.7481   20.1186 H   0  0  0  0  0  0  0  0  0  0  0  0
    7.9094   -3.5076   21.8382 C   0  0  0  0  0  0  0  0  0  0  0  0
    8.8806   -3.3461   21.3477 H   0  0  0  0  0  0  0  0  0  0  0  0
    8.0869   -3.2622   23.3534 C   0  0  0  0  0  0  0  0  0  0  0  0
    8.2783   -2.2030   23.5523 H   0  0  0  0  0  0  0  0  0  0  0  0
    8.9687   -3.8277   23.6920 H   0  0  0  0  0  0  0  0  0  0  0  0
    6.8772   -3.7426   24.1732 C   0  0  0  0  0  0  0  0  0  0  0  0
    5.9928   -3.1208   23.9626 H   0  0  0  0  0  0  0  0  0  0  0  0
    7.0755   -3.6374   25.2469 H   0  0  0  0  0  0  0  0  0  0  0  0
    6.5310   -5.1396   23.9099 N   0  0  0  0  0  0  0  0  0  0  0  0
    7.3236   -5.7132   24.2008 H   0  0  0  0  0  0  0  0  0  0  0  0
    6.2849   -5.3844   22.4893 C   0  0  0  0  0  0  0  0  0  0  0  0
    6.0578   -6.4504   22.3642 H   0  0  0  0  0  0  0  0  0  0  0  0
    5.3734   -4.8382   22.1994 H   0  0  0  0  0  0  0  0  0  0  0  0
    7.4702   -4.9686   21.6006 C   0  0  0  0  0  0  0  0  0  0  0  0
    7.2337   -5.1305   20.5432 H   0  0  0  0  0  0  0  0  0  0  0  0
    8.3162   -5.6288   21.8425 H   0  0  0  0  0  0  0  0  0  0  0  0
    5.4100    0.6345   20.1935 C   0  0  0  0  0  0  0  0  0  0  0  0
    4.9764    0.6622   21.1977 H   0  0  0  0  0  0  0  0  0  0  0  0
    4.8091    1.2868   19.1248 C   0  0  0  0  0  0  0  0  0  0  0  0
    3.8845    1.8373   19.2528 H   0  0  0  0  0  0  0  0  0  0  0  0
  1  2  1  0
  2  3  2  0
  3  4  1  0
  4  5  1  0
  4  6  2  0
  6  7  1  0
  7  8  2  0
  7  9  2  0
  7 10  1  0
 10 11  1  0
 10 12  1  0
 10 13  1  0
 13 14  1  0
 13 15  1  0
 15 16  1  0
 15 17  1  0
 15 18  1  0
 18 19  1  0
 18 20  1  0
 18 21  1  0
 21 22  1  0
 21 23  1  0
 23 24  1  0
 23 25  1  0
 23 26  1  0
 26 27  1  0
 26 28  1  0
  6 29  1  0
 29 30  1  0
 29 31  2  0
 31 32  1  0
 31  2  1  0
 26 13  1  0
M  END
>  <cnnaffinity>  (1) 
-4.33425

>  <filename>  (1) 
O=S(=O)(CC1CCNCC1)c1cccnc1

$$$$
