
     RDKit          3D

 35 36  0  0  0  0  0  0  0  0999 V2000
    5.1003    1.7809   16.9590 H   0  0  0  0  0  0  0  0  0  0  0  0
    5.5214    1.3052   17.8412 C   0  0  0  0  0  0  0  0  0  0  0  0
    6.7018    0.6920   17.6712 N   0  0  0  0  0  0  0  0  0  0  0  0
    7.2483    0.0754   18.7169 C   0  0  0  0  0  0  0  0  0  0  0  0
    8.2091   -0.4084   18.5437 H   0  0  0  0  0  0  0  0  0  0  0  0
    6.6007    0.0455   19.9378 C   0  0  0  0  0  0  0  0  0  0  0  0
    7.4091   -0.8597   21.1386 S   0  0  0  0  0  0  0  0  0  0  0  0
    8.1963   -1.9224   20.5467 O   0  0  0  0  0  0  0  0  0  0  0  0
    6.4651   -1.1087   22.2114 O   0  0  0  0  0  0  0  0  0  0  0  0
    8.4401    0.3040   21.7508 N   0  0  0  0  0  0  0  0  0  0  0  0
    7.7601    0.6592   22.4221 H   0  0  0  0  0  0  0  0  0  0  0  0
    9.5663   -0.2884   22.5073 C   0  0  0  0  0  0  0  0  0  0  0  0
   10.1930    0.5492   22.8443 H   0  0  0  0  0  0  0  0  0  0  0  0
   10.1796   -0.8591   21.8008 H   0  0  0  0  0  0  0  0  0  0  0  0
    9.1242   -1.1799   23.6841 C   0  0  0  0  0  0  0  0  0  0  0  0
    8.4163   -1.9080   23.2593 H   0  0  0  0  0  0  0  0  0  0  0  0
    8.3882   -0.4211   24.8163 C   0  0  0  0  0  0  0  0  0  0  0  0
    7.5619    0.1792   24.4131 H   0  0  0  0  0  0  0  0  0  0  0  0
    9.0791    0.3007   25.2764 H   0  0  0  0  0  0  0  0  0  0  0  0
    7.8521   -1.3635   25.9104 C   0  0  0  0  0  0  0  0  0  0  0  0
    6.9991   -1.9338   25.5078 H   0  0  0  0  0  0  0  0  0  0  0  0
    7.4433   -0.7700   26.7390 H   0  0  0  0  0  0  0  0  0  0  0  0
    8.9323   -2.3299   26.4222 C   0  0  0  0  0  0  0  0  0  0  0  0
    8.4923   -3.0534   27.1220 H   0  0  0  0  0  0  0  0  0  0  0  0
    9.6792   -1.7586   26.9943 H   0  0  0  0  0  0  0  0  0  0  0  0
    9.6541   -3.0366   25.2636 C   0  0  0  0  0  0  0  0  0  0  0  0
   10.4117   -3.7280   25.6474 H   0  0  0  0  0  0  0  0  0  0  0  0
    8.9300   -3.6470   24.7034 H   0  0  0  0  0  0  0  0  0  0  0  0
   10.2596   -2.0214   24.2795 C   0  0  0  0  0  0  0  0  0  0  0  0
   10.9680   -1.3410   24.7782 H   0  0  0  0  0  0  0  0  0  0  0  0
   10.8057   -2.5493   23.4830 H   0  0  0  0  0  0  0  0  0  0  0  0
    5.3912    0.7099   20.1648 C   0  0  0  0  0  0  0  0  0  0  0  0
    4.9048    0.7380   21.1454 H   0  0  0  0  0  0  0  0  0  0  0  0
    4.8363    1.3438   19.0616 C   0  0  0  0  0  0  0  0  0  0  0  0
    3.8963    1.8748   19.1299 H   0  0  0  0  0  0  0  0  0  0  0  0
  1  2  1  0
  2  3  2  0
  3  4  1  0
  4  5  1  0
  4  6  2  0
  6  7  1  0
  7  8  2  0
  7  9  2  0
  7 10  1  0
 10 11  1  0
 10 12  1  0
 12 13  1  0
 12 14  1  0
 12 15  1  0
 15 16  1  0
 15 17  1  0
 17 18  1  0
 17 19  1  0
 17 20  1  0
 20 21  1  0
 20 22  1  0
 20 23  1  0
 23 24  1  0
 23 25  1  0
 23 26  1  0
 26 27  1  0
 26 28  1  0
 26 29  1  0
 29 30  1  0
 29 31  1  0
  6 32  1  0
 32 33  1  0
 32 34  2  0
 34 35  1  0
 34  2  1  0
 29 15  1  0
M  END
>  <cnnaffinity>  (1) 
-4.51722

>  <filename>  (1) 
O=S(=O)(NCC1CCCCC1)c1cccnc1

$$$$
