
     RDKit          3D

 32 34  0  0  0  0  0  0  0  0999 V2000
    4.9213    1.9172   16.9160 H   0  0  0  0  0  0  0  0  0  0  0  0
    5.4218    1.3464   17.6965 C   0  0  0  0  0  0  0  0  0  0  0  0
    6.5837    0.7632   17.3498 N   0  0  0  0  0  0  0  0  0  0  0  0
    7.2444    0.0720   18.2856 C   0  0  0  0  0  0  0  0  0  0  0  0
    8.1931   -0.3848   18.0014 H   0  0  0  0  0  0  0  0  0  0  0  0
    6.7652   -0.0874   19.5972 C   0  0  0  0  0  0  0  0  0  0  0  0
    7.6055   -0.7237   20.5274 O   0  0  0  0  0  0  0  0  0  0  0  0
    7.1163   -1.5653   21.4530 C   0  0  0  0  0  0  0  0  0  0  0  0
    5.9451   -2.1551   21.4910 N   0  0  0  0  0  0  0  0  0  0  0  0
    5.9939   -2.9771   22.5706 N   0  0  0  0  0  0  0  0  0  0  0  0
    7.1175   -2.8971   23.1742 N   0  0  0  0  0  0  0  0  0  0  0  0
    7.8598   -1.9693   22.5268 N   0  0  0  0  0  0  0  0  0  0  0  0
    9.1692   -1.6566   22.9647 N   0  0  0  0  0  0  0  0  0  0  0  0
    9.4383   -0.2166   23.0305 C   0  0  0  0  0  0  0  0  0  0  0  0
    8.9698    0.2600   22.1644 H   0  0  0  0  0  0  0  0  0  0  0  0
   10.5190   -0.0578   22.9182 H   0  0  0  0  0  0  0  0  0  0  0  0
    8.8783    0.3995   24.3132 C   0  0  0  0  0  0  0  0  0  0  0  0
    7.7951    0.2882   24.3753 H   0  0  0  0  0  0  0  0  0  0  0  0
    9.1637    1.4384   24.4727 H   0  0  0  0  0  0  0  0  0  0  0  0
    9.5425   -0.4160   25.7307 S   0  0  0  0  0  0  0  0  0  0  0  0
    8.8065    0.0334   26.8998 O   0  0  0  0  0  0  0  0  0  0  0  0
   10.9943   -0.2779   25.6298 O   0  0  0  0  0  0  0  0  0  0  0  0
    9.1430   -2.1132   25.4018 C   0  0  0  0  0  0  0  0  0  0  0  0
    8.0529   -2.1953   25.4013 H   0  0  0  0  0  0  0  0  0  0  0  0
    9.5450   -2.6751   26.2443 H   0  0  0  0  0  0  0  0  0  0  0  0
    9.7299   -2.4999   24.0380 C   0  0  0  0  0  0  0  0  0  0  0  0
    9.5599   -3.5621   23.8209 H   0  0  0  0  0  0  0  0  0  0  0  0
   10.8113   -2.3428   24.0079 H   0  0  0  0  0  0  0  0  0  0  0  0
    5.5373    0.4833   19.9501 C   0  0  0  0  0  0  0  0  0  0  0  0
    5.1257    0.3331   20.9476 H   0  0  0  0  0  0  0  0  0  0  0  0
    4.8601    1.2245   18.9712 C   0  0  0  0  0  0  0  0  0  0  0  0
    3.9153    1.7165   19.1918 H   0  0  0  0  0  0  0  0  0  0  0  0
  1  2  1  0
  2  3  2  0
  3  4  1  0
  4  5  1  0
  4  6  2  0
  6  7  1  0
  7  8  1  0
  8  9  2  0
  9 10  1  0
 10 11  2  0
 11 12  1  0
 12 13  1  0
 13 14  1  0
 14 15  1  0
 14 16  1  0
 14 17  1  0
 17 18  1  0
 17 19  1  0
 17 20  1  0
 20 21  2  0
 20 22  2  0
 20 23  1  0
 23 24  1  0
 23 25  1  0
 23 26  1  0
 26 27  1  0
 26 28  1  0
  6 29  1  0
 29 30  1  0
 29 31  2  0
 31 32  1  0
 31  2  1  0
 12  8  1  0
 26 13  1  0
M  END
>  <cnnaffinity>  (1) 
-4.77155

>  <filename>  (1) 
O=S1(=O)CCN(n2nnnc2Oc2cccnc2)CC1

$$$$
