
     RDKit          3D

 29 31  0  0  0  0  0  0  0  0999 V2000
    5.2710   -1.4808   23.7729 H   0  0  0  0  0  0  0  0  0  0  0  0
    5.6308   -1.6242   24.6662 O   0  0  0  0  0  0  0  0  0  0  0  0
    6.0553   -0.4266   25.1576 C   0  0  0  0  0  0  0  0  0  0  0  0
    5.9874   -0.2864   26.5416 C   0  0  0  0  0  0  0  0  0  0  0  0
    5.5425   -1.0998   27.1049 H   0  0  0  0  0  0  0  0  0  0  0  0
    6.4917    0.8627   27.1437 C   0  0  0  0  0  0  0  0  0  0  0  0
    6.4599    0.9824   28.8781 Cl  0  0  0  0  0  0  0  0  0  0  0  0
    7.0476    1.8891   26.3753 C   0  0  0  0  0  0  0  0  0  0  0  0
    7.4425    2.7683   26.8681 H   0  0  0  0  0  0  0  0  0  0  0  0
    7.0832    1.7630   24.9793 C   0  0  0  0  0  0  0  0  0  0  0  0
    7.4957    2.5444   24.3459 H   0  0  0  0  0  0  0  0  0  0  0  0
    6.5963    0.6108   24.3671 C   0  0  0  0  0  0  0  0  0  0  0  0
    6.6130    0.5404   22.9746 O   0  0  0  0  0  0  0  0  0  0  0  0
    7.3699   -0.4298   22.3767 C   0  0  0  0  0  0  0  0  0  0  0  0
    7.3965   -0.6818   20.9662 C   0  0  0  0  0  0  0  0  0  0  0  0
    6.6560    0.0056   19.8959 C   0  0  0  0  0  0  0  0  0  0  0  0
    7.1705    0.0443   18.5891 C   0  0  0  0  0  0  0  0  0  0  0  0
    8.1174   -0.4359   18.3465 H   0  0  0  0  0  0  0  0  0  0  0  0
    6.5637    0.6692   17.5752 N   0  0  0  0  0  0  0  0  0  0  0  0
    5.4020    1.2891   17.8317 C   0  0  0  0  0  0  0  0  0  0  0  0
    4.9339    1.7962   16.9897 H   0  0  0  0  0  0  0  0  0  0  0  0
    4.8012    1.3032   19.0950 C   0  0  0  0  0  0  0  0  0  0  0  0
    3.8709    1.8414   19.2410 H   0  0  0  0  0  0  0  0  0  0  0  0
    5.4385    0.6528   20.1485 C   0  0  0  0  0  0  0  0  0  0  0  0
    5.0196    0.6580   21.1549 H   0  0  0  0  0  0  0  0  0  0  0  0
    8.1966   -1.6894   20.7074 N   0  0  0  0  0  0  0  0  0  0  0  0
    8.6927   -2.1221   21.9029 O   0  0  0  0  0  0  0  0  0  0  0  0
    8.2040   -1.3679   22.8990 C   0  0  0  0  0  0  0  0  0  0  0  0
    8.5398   -1.6296   23.8921 H   0  0  0  0  0  0  0  0  0  0  0  0
  1  2  1  0
  2  3  1  0
  3  4  2  0
  4  5  1  0
  4  6  1  0
  6  7  1  0
  6  8  2  0
  8  9  1  0
  8 10  1  0
 10 11  1  0
 10 12  2  0
 12 13  1  0
 13 14  1  0
 14 15  1  0
 15 16  1  0
 16 17  2  0
 17 18  1  0
 17 19  1  0
 19 20  2  0
 20 21  1  0
 20 22  1  0
 22 23  1  0
 22 24  2  0
 24 25  1  0
 15 26  2  0
 26 27  1  0
 27 28  1  0
 28 29  1  0
 12  3  1  0
 28 14  2  0
 24 16  1  0
M  END
>  <cnnaffinity>  (1) 
-5.36905

>  <filename>  (1) 
Oc1cc(Cl)ccc1Oc1conc1-c1cccnc1

$$$$
