
     RDKit          3D

 29 31  0  0  0  0  0  0  0  0999 V2000
    8.2311   -3.3177   28.6287 H   0  0  0  0  0  0  0  0  0  0  0  0
    7.7570   -2.5831   27.2601 O   0  0  0  0  0  0  0  0  0  0  0  0
    7.7570   -2.5831   27.2601 C   0  0  0  0  0  0  0  0  0  0  0  0
    6.7338   -1.8347   26.4622 C   0  0  0  0  0  0  0  0  0  0  0  0
    5.8510   -1.4517   27.0525 H   0  0  0  0  0  0  0  0  0  0  0  0
    6.7847   -1.4751   25.1019 C   0  0  0  0  0  0  0  0  0  0  0  0
    5.9637   -0.8622   24.6237 H   0  0  0  0  0  0  0  0  0  0  0  0
    7.8477   -1.8891   24.3266 C   0  0  0  0  0  0  0  0  0  0  0  0
    7.9129   -1.5311   22.8720 C   0  0  0  0  0  0  0  0  0  0  0  0
    6.9435   -0.7842   22.2136 N   0  0  0  0  0  0  0  0  0  0  0  0
    7.3376   -0.6839   20.9962 C   0  0  0  0  0  0  0  0  0  0  0  0
    6.6594    0.0125   19.8938 C   0  0  0  0  0  0  0  0  0  0  0  0
    7.1867    0.0522   18.6020 C   0  0  0  0  0  0  0  0  0  0  0  0
    8.1291   -0.4329   18.3781 H   0  0  0  0  0  0  0  0  0  0  0  0
    6.5684    0.6720   17.6062 N   0  0  0  0  0  0  0  0  0  0  0  0
    5.4071    1.2856   17.8440 C   0  0  0  0  0  0  0  0  0  0  0  0
    4.9223    1.7725   17.0044 H   0  0  0  0  0  0  0  0  0  0  0  0
    4.8071    1.3122   19.1028 C   0  0  0  0  0  0  0  0  0  0  0  0
    3.8765    1.8423   19.2593 H   0  0  0  0  0  0  0  0  0  0  0  0
    5.4302    0.6581   20.1573 C   0  0  0  0  0  0  0  0  0  0  0  0
    5.0072    0.6305   21.1687 H   0  0  0  0  0  0  0  0  0  0  0  0
    8.5177   -1.3139   20.7625 O   0  0  0  0  0  0  0  0  0  0  0  0
    8.8644   -1.8407   21.9572 C   0  0  0  0  0  0  0  0  0  0  0  0
    9.7845   -2.3988   22.0254 H   0  0  0  0  0  0  0  0  0  0  0  0
    8.9047   -2.6755   24.9450 C   0  0  0  0  0  0  0  0  0  0  0  0
    9.7302   -2.9936   24.2986 H   0  0  0  0  0  0  0  0  0  0  0  0
    8.8248   -2.9926   26.2563 C   0  0  0  0  0  0  0  0  0  0  0  0
    9.9474   -3.8502   26.7872 O   0  0  0  0  0  0  0  0  0  0  0  0
   10.6072   -4.0093   26.1324 H   0  0  0  0  0  0  0  0  0  0  0  0
  1  2  1  0
  2  3  1  0
  3  4  2  0
  4  5  1  0
  4  6  1  0
  6  7  1  0
  6  8  2  0
  8  9  1  0
  9 10  1  0
 10 11  2  0
 11 12  1  0
 12 13  2  0
 13 14  1  0
 13 15  1  0
 15 16  2  0
 16 17  1  0
 16 18  1  0
 18 19  1  0
 18 20  2  0
 20 21  1  0
 11 22  1  0
 22 23  1  0
 23 24  1  0
  8 25  1  0
 25 26  1  0
 25 27  2  0
 27 28  1  0
 28 29  1  0
 27  3  1  0
 23  9  2  0
 20 12  1  0
M  END
>  <cnnaffinity>  (1) 
-4.97488

>  <filename>  (1) 
Oc1ccc(-c2coc(-c3cccnc3)n2)cc1O

$$$$
