
     RDKit          3D

 33 35  0  0  0  0  0  0  0  0999 V2000
    7.7794   -3.3542   27.8330 H   0  0  0  0  0  0  0  0  0  0  0  0
    7.3062   -2.6503   27.3760 O   0  0  0  0  0  0  0  0  0  0  0  0
    8.2416   -1.6232   27.0912 C   0  0  0  0  0  0  0  0  0  0  0  0
    8.7148   -1.2422   28.0134 H   0  0  0  0  0  0  0  0  0  0  0  0
    9.3267   -2.1463   26.1608 C   0  0  0  0  0  0  0  0  0  0  0  0
    9.8836   -2.9563   26.6460 H   0  0  0  0  0  0  0  0  0  0  0  0
   10.0079   -1.3165   25.9452 H   0  0  0  0  0  0  0  0  0  0  0  0
    8.7614   -2.6126   24.8320 C   0  0  0  0  0  0  0  0  0  0  0  0
    8.1213   -3.4977   24.9581 H   0  0  0  0  0  0  0  0  0  0  0  0
    9.5724   -2.9025   24.1562 H   0  0  0  0  0  0  0  0  0  0  0  0
    7.9984   -1.5027   24.2622 N   0  0  0  0  0  0  0  0  0  0  0  0
    7.9497   -1.3645   22.9082 C   0  0  0  0  0  0  0  0  0  0  0  0
    7.0683   -0.5269   22.3022 N   0  0  0  0  0  0  0  0  0  0  0  0
    7.3364   -0.6658   21.0277 C   0  0  0  0  0  0  0  0  0  0  0  0
    6.6312    0.0136   19.9398 C   0  0  0  0  0  0  0  0  0  0  0  0
    7.1746    0.0394   18.6495 C   0  0  0  0  0  0  0  0  0  0  0  0
    8.1352   -0.4324   18.4306 H   0  0  0  0  0  0  0  0  0  0  0  0
    6.5969    0.6467   17.6111 N   0  0  0  0  0  0  0  0  0  0  0  0
    5.4330    1.2750   17.8428 C   0  0  0  0  0  0  0  0  0  0  0  0
    4.9961    1.7876   16.9922 H   0  0  0  0  0  0  0  0  0  0  0  0
    4.7989    1.3060   19.0893 C   0  0  0  0  0  0  0  0  0  0  0  0
    3.8618    1.8393   19.2058 H   0  0  0  0  0  0  0  0  0  0  0  0
    5.4062    0.6706   20.1675 C   0  0  0  0  0  0  0  0  0  0  0  0
    4.9579    0.6932   21.1650 H   0  0  0  0  0  0  0  0  0  0  0  0
    8.3445   -1.5404   20.8742 N   0  0  0  0  0  0  0  0  0  0  0  0
    8.7551   -1.9068   20.0305 H   0  0  0  0  0  0  0  0  0  0  0  0
    8.7539   -2.0189   22.0841 N   0  0  0  0  0  0  0  0  0  0  0  0
    6.8991   -0.9817   25.0724 C   0  0  0  0  0  0  0  0  0  0  0  0
    6.1413   -1.7624   25.2367 H   0  0  0  0  0  0  0  0  0  0  0  0
    6.4171   -0.1683   24.5230 H   0  0  0  0  0  0  0  0  0  0  0  0
    7.4478   -0.5102   26.4184 C   0  0  0  0  0  0  0  0  0  0  0  0
    6.6335   -0.1927   27.0741 H   0  0  0  0  0  0  0  0  0  0  0  0
    8.0935    0.3607   26.2740 H   0  0  0  0  0  0  0  0  0  0  0  0
  1  2  1  0
  2  3  1  0
  3  4  1  0
  3  5  1  0
  5  6  1  0
  5  7  1  0
  5  8  1  0
  8  9  1  0
  8 10  1  0
  8 11  1  0
 11 12  1  0
 12 13  1  0
 13 14  2  0
 14 15  1  0
 15 16  2  0
 16 17  1  0
 16 18  1  0
 18 19  2  0
 19 20  1  0
 19 21  1  0
 21 22  1  0
 21 23  2  0
 23 24  1  0
 14 25  1  0
 25 26  1  0
 25 27  1  0
 11 28  1  0
 28 29  1  0
 28 30  1  0
 28 31  1  0
 31 32  1  0
 31 33  1  0
 31  3  1  0
 27 12  2  0
 23 15  1  0
M  END
>  <cnnaffinity>  (1) 
-4.56715

>  <filename>  (1) 
OC1CCN(c2n[nH]c(-c3cccnc3)n2)CC1

$$$$
