
     RDKit          3D

 31 33  0  0  0  0  0  0  0  0999 V2000
    8.1471   -3.2259   24.8167 H   0  0  0  0  0  0  0  0  0  0  0  0
    7.3370   -3.7507   24.8871 O   0  0  0  0  0  0  0  0  0  0  0  0
    6.8309   -3.8872   23.6406 C   0  0  0  0  0  0  0  0  0  0  0  0
    5.6821   -4.6602   23.5099 C   0  0  0  0  0  0  0  0  0  0  0  0
    5.2442   -5.0802   24.4077 H   0  0  0  0  0  0  0  0  0  0  0  0
    5.1722   -4.9198   22.2354 C   0  0  0  0  0  0  0  0  0  0  0  0
    3.8028   -5.9737   22.0831 Cl  0  0  0  0  0  0  0  0  0  0  0  0
    5.7512   -4.3568   21.0975 C   0  0  0  0  0  0  0  0  0  0  0  0
    5.3468   -4.5608   20.1125 H   0  0  0  0  0  0  0  0  0  0  0  0
    6.8689   -3.5231   21.2391 C   0  0  0  0  0  0  0  0  0  0  0  0
    7.2804   -2.9957   20.3888 H   0  0  0  0  0  0  0  0  0  0  0  0
    7.4409   -3.3314   22.4925 C   0  0  0  0  0  0  0  0  0  0  0  0
    8.6911   -2.7578   22.7168 O   0  0  0  0  0  0  0  0  0  0  0  0
    9.1404   -1.7531   21.9218 C   0  0  0  0  0  0  0  0  0  0  0  0
    8.5669   -0.7377   21.1817 C   0  0  0  0  0  0  0  0  0  0  0  0
    7.2140   -0.5319   21.0443 O   0  0  0  0  0  0  0  0  0  0  0  0
    6.6575    0.0841   19.9489 C   0  0  0  0  0  0  0  0  0  0  0  0
    7.1909    0.0457   18.6448 C   0  0  0  0  0  0  0  0  0  0  0  0
    8.1137   -0.4944   18.4425 H   0  0  0  0  0  0  0  0  0  0  0  0
    6.6107    0.6379   17.5903 N   0  0  0  0  0  0  0  0  0  0  0  0
    5.4529    1.2837   17.7927 C   0  0  0  0  0  0  0  0  0  0  0  0
    5.0099    1.7737   16.9285 H   0  0  0  0  0  0  0  0  0  0  0  0
    4.8210    1.3370   19.0414 C   0  0  0  0  0  0  0  0  0  0  0  0
    3.8789    1.8668   19.1429 H   0  0  0  0  0  0  0  0  0  0  0  0
    5.4249    0.7240   20.1413 C   0  0  0  0  0  0  0  0  0  0  0  0
    4.9657    0.7322   21.1301 H   0  0  0  0  0  0  0  0  0  0  0  0
    9.6682    0.0204   20.7156 C   0  0  0  0  0  0  0  0  0  0  0  0
    9.6506    0.9225   20.1203 H   0  0  0  0  0  0  0  0  0  0  0  0
   10.8221   -0.4996   21.1090 N   0  0  0  0  0  0  0  0  0  0  0  0
   10.4733   -1.5778   21.8450 N   0  0  0  0  0  0  0  0  0  0  0  0
   11.1823   -2.1976   22.2118 H   0  0  0  0  0  0  0  0  0  0  0  0
  1  2  1  0
  2  3  1  0
  3  4  2  0
  4  5  1  0
  4  6  1  0
  6  7  1  0
  6  8  2  0
  8  9  1  0
  8 10  1  0
 10 11  1  0
 10 12  2  0
 12 13  1  0
 13 14  1  0
 14 15  2  0
 15 16  1  0
 16 17  1  0
 17 18  2  0
 18 19  1  0
 18 20  1  0
 20 21  2  0
 21 22  1  0
 21 23  1  0
 23 24  1  0
 23 25  2  0
 25 26  1  0
 15 27  1  0
 27 28  1  0
 27 29  2  0
 29 30  1  0
 30 31  1  0
 12  3  1  0
 30 14  1  0
 25 17  1  0
M  END
>  <cnnaffinity>  (1) 
-5.13433

>  <filename>  (1) 
Oc1cc(Cl)ccc1Oc1[nH]ncc1Oc1cccnc1

$$$$
