
     RDKit          3D

 39 42  0  0  0  0  0  0  0  0999 V2000
    4.2945   -7.2942   25.9224 H   0  0  0  0  0  0  0  0  0  0  0  0
    3.5118   -7.4150   25.3686 O   0  0  0  0  0  0  0  0  0  0  0  0
    3.7019   -6.6117   24.2268 C   0  0  0  0  0  0  0  0  0  0  0  0
    2.8122   -6.7855   23.6083 H   0  0  0  0  0  0  0  0  0  0  0  0
    4.9546   -7.0084   23.4594 C   0  0  0  0  0  0  0  0  0  0  0  0
    5.8132   -6.7595   24.0893 H   0  0  0  0  0  0  0  0  0  0  0  0
    4.9720   -8.0839   23.2651 H   0  0  0  0  0  0  0  0  0  0  0  0
    5.0861   -6.2121   22.1698 C   0  0  0  0  0  0  0  0  0  0  0  0
    6.0189   -6.4598   21.6544 H   0  0  0  0  0  0  0  0  0  0  0  0
    4.2615   -6.4644   21.4887 H   0  0  0  0  0  0  0  0  0  0  0  0
    5.0629   -4.7758   22.4639 N   0  0  0  0  0  0  0  0  0  0  0  0
    6.0755   -3.9925   22.0208 C   0  0  0  0  0  0  0  0  0  0  0  0
    7.2838   -4.3557   21.6989 N   0  0  0  0  0  0  0  0  0  0  0  0
    7.9339   -3.1899   21.3103 N   0  0  0  0  0  0  0  0  0  0  0  0
    7.0796   -2.2277   21.3891 C   0  0  0  0  0  0  0  0  0  0  0  0
    7.3169   -0.7681   21.1165 C   0  0  0  0  0  0  0  0  0  0  0  0
    6.5637   -0.0831   19.9922 C   0  0  0  0  0  0  0  0  0  0  0  0
    7.1224   -0.0456   18.7023 C   0  0  0  0  0  0  0  0  0  0  0  0
    8.0691   -0.5591   18.5338 H   0  0  0  0  0  0  0  0  0  0  0  0
    6.5954    0.5986   17.6534 N   0  0  0  0  0  0  0  0  0  0  0  0
    5.4455    1.2594   17.8625 C   0  0  0  0  0  0  0  0  0  0  0  0
    5.0299    1.7708   16.9967 H   0  0  0  0  0  0  0  0  0  0  0  0
    4.7851    1.2855   19.0945 C   0  0  0  0  0  0  0  0  0  0  0  0
    3.8567    1.8428   19.1886 H   0  0  0  0  0  0  0  0  0  0  0  0
    5.3547    0.6076   20.1780 C   0  0  0  0  0  0  0  0  0  0  0  0
    4.8915    0.6353   21.1653 H   0  0  0  0  0  0  0  0  0  0  0  0
    7.7145    0.0904   22.3113 C   0  0  0  0  0  0  0  0  0  0  0  0
    7.4012    1.1343   22.3011 H   0  0  0  0  0  0  0  0  0  0  0  0
    7.7148   -0.3793   23.2916 H   0  0  0  0  0  0  0  0  0  0  0  0
    8.7528   -0.3301   21.3249 C   0  0  0  0  0  0  0  0  0  0  0  0
    9.1684    0.4204   20.6547 H   0  0  0  0  0  0  0  0  0  0  0  0
    9.4472   -1.1147   21.6237 H   0  0  0  0  0  0  0  0  0  0  0  0
    5.8580   -2.6635   21.8354 O   0  0  0  0  0  0  0  0  0  0  0  0
    3.9502   -4.2949   23.2866 C   0  0  0  0  0  0  0  0  0  0  0  0
    3.0222   -4.4031   22.7093 H   0  0  0  0  0  0  0  0  0  0  0  0
    4.0846   -3.2336   23.5211 H   0  0  0  0  0  0  0  0  0  0  0  0
    3.8137   -5.1255   24.5660 C   0  0  0  0  0  0  0  0  0  0  0  0
    2.9465   -4.8054   25.1520 H   0  0  0  0  0  0  0  0  0  0  0  0
    4.7025   -4.9776   25.1953 H   0  0  0  0  0  0  0  0  0  0  0  0
  1  2  1  0
  2  3  1  0
  3  4  1  0
  3  5  1  0
  5  6  1  0
  5  7  1  0
  5  8  1  0
  8  9  1  0
  8 10  1  0
  8 11  1  0
 11 12  1  0
 12 13  2  0
 13 14  1  0
 14 15  2  0
 15 16  1  0
 16 17  1  0
 17 18  2  0
 18 19  1  0
 18 20  1  0
 20 21  2  0
 21 22  1  0
 21 23  1  0
 23 24  1  0
 23 25  2  0
 25 26  1  0
 16 27  1  0
 27 28  1  0
 27 29  1  0
 27 30  1  0
 30 31  1  0
 30 32  1  0
 15 33  1  0
 11 34  1  0
 34 35  1  0
 34 36  1  0
 34 37  1  0
 37 38  1  0
 37 39  1  0
 37  3  1  0
 33 12  1  0
 30 16  1  0
 25 17  1  0
M  END
>  <cnnaffinity>  (1) 
-4.78126

>  <filename>  (1) 
OC1CCN(c2nnc(C3(c4cccnc4)CC3)o2)CC1

$$$$
