
     RDKit          3D

 31 33  0  0  0  0  0  0  0  0999 V2000
    6.3472    1.8768   28.5014 H   0  0  0  0  0  0  0  0  0  0  0  0
    7.1876    1.4002   28.5360 O   0  0  0  0  0  0  0  0  0  0  0  0
    7.3558    0.8229   27.3119 C   0  0  0  0  0  0  0  0  0  0  0  0
    6.4067    1.0570   26.3157 C   0  0  0  0  0  0  0  0  0  0  0  0
    5.5318    1.6506   26.5738 H   0  0  0  0  0  0  0  0  0  0  0  0
    6.5510    0.5485   25.0284 C   0  0  0  0  0  0  0  0  0  0  0  0
    5.7842    0.6989   24.2713 H   0  0  0  0  0  0  0  0  0  0  0  0
    7.6914   -0.1917   24.6964 C   0  0  0  0  0  0  0  0  0  0  0  0
    7.8376   -0.7443   23.3250 C   0  0  0  0  0  0  0  0  0  0  0  0
    7.1741   -0.1118   22.3288 N   0  0  0  0  0  0  0  0  0  0  0  0
    7.3683   -0.5778   21.0871 C   0  0  0  0  0  0  0  0  0  0  0  0
    6.6369    0.0934   19.9792 C   0  0  0  0  0  0  0  0  0  0  0  0
    7.1693    0.0917   18.6796 C   0  0  0  0  0  0  0  0  0  0  0  0
    8.1240   -0.3926   18.4701 H   0  0  0  0  0  0  0  0  0  0  0  0
    6.5834    0.6663   17.6283 N   0  0  0  0  0  0  0  0  0  0  0  0
    5.4118    1.2846   17.8415 C   0  0  0  0  0  0  0  0  0  0  0  0
    4.9681    1.7704   16.9775 H   0  0  0  0  0  0  0  0  0  0  0  0
    4.7769    1.3266   19.0869 C   0  0  0  0  0  0  0  0  0  0  0  0
    3.8301    1.8454   19.1936 H   0  0  0  0  0  0  0  0  0  0  0  0
    5.3961    0.7221   20.1782 C   0  0  0  0  0  0  0  0  0  0  0  0
    4.9422    0.7288   21.1713 H   0  0  0  0  0  0  0  0  0  0  0  0
    8.2136   -1.6916   20.8608 C   0  0  0  0  0  0  0  0  0  0  0  0
    8.4078   -1.9773   19.8482 H   0  0  0  0  0  0  0  0  0  0  0  0
    8.8043   -2.4027   21.8352 N   0  0  0  0  0  0  0  0  0  0  0  0
    8.6063   -1.9103   23.0709 C   0  0  0  0  0  0  0  0  0  0  0  0
    9.0614   -2.4664   23.8834 H   0  0  0  0  0  0  0  0  0  0  0  0
    8.6601   -0.4303   25.6919 C   0  0  0  0  0  0  0  0  0  0  0  0
    9.6012   -0.9363   25.4704 H   0  0  0  0  0  0  0  0  0  0  0  0
    8.4835    0.0032   27.0043 C   0  0  0  0  0  0  0  0  0  0  0  0
    9.3767   -0.3951   27.9651 O   0  0  0  0  0  0  0  0  0  0  0  0
   10.2317   -0.5098   27.5361 H   0  0  0  0  0  0  0  0  0  0  0  0
  1  2  1  0
  2  3  1  0
  3  4  2  0
  4  5  1  0
  4  6  1  0
  6  7  1  0
  6  8  2  0
  8  9  1  0
  9 10  2  0
 10 11  1  0
 11 12  1  0
 12 13  2  0
 13 14  1  0
 13 15  1  0
 15 16  2  0
 16 17  1  0
 16 18  1  0
 18 19  1  0
 18 20  2  0
 20 21  1  0
 11 22  2  0
 22 23  1  0
 22 24  1  0
 24 25  2  0
 25 26  1  0
  8 27  1  0
 27 28  1  0
 27 29  2  0
 29 30  1  0
 30 31  1  0
 29  3  1  0
 25  9  1  0
 20 12  1  0
M  END
>  <cnnaffinity>  (1) 
-5.06675

>  <filename>  (1) 
Oc1ccc(-c2cncc(-c3cccnc3)n2)cc1O

$$$$
