
     RDKit          3D

 33 35  0  0  0  0  0  0  0  0999 V2000
    3.2091    2.8186   25.7484 H   0  0  0  0  0  0  0  0  0  0  0  0
    3.3685    3.3155   24.9371 O   0  0  0  0  0  0  0  0  0  0  0  0
    4.5041    2.8199   24.3385 C   0  0  0  0  0  0  0  0  0  0  0  0
    5.2439    1.7556   24.8674 C   0  0  0  0  0  0  0  0  0  0  0  0
    4.9426    1.2774   25.7988 H   0  0  0  0  0  0  0  0  0  0  0  0
    6.3916    1.2870   24.2116 C   0  0  0  0  0  0  0  0  0  0  0  0
    6.9653    0.4561   24.6236 H   0  0  0  0  0  0  0  0  0  0  0  0
    6.8193    1.8677   23.0152 C   0  0  0  0  0  0  0  0  0  0  0  0
    8.0529    1.3294   22.2993 C   0  0  0  0  0  0  0  0  0  0  0  0
    8.9386    1.4827   22.9252 H   0  0  0  0  0  0  0  0  0  0  0  0
    8.2350    1.8728   21.3671 H   0  0  0  0  0  0  0  0  0  0  0  0
    8.0025   -0.1041   21.9965 N   0  0  0  0  0  0  0  0  0  0  0  0
    7.3891   -0.7078   20.9280 C   0  0  0  0  0  0  0  0  0  0  0  0
    6.6500    0.0233   19.8965 C   0  0  0  0  0  0  0  0  0  0  0  0
    7.1681    0.0555   18.5974 C   0  0  0  0  0  0  0  0  0  0  0  0
    8.1155   -0.4316   18.3743 H   0  0  0  0  0  0  0  0  0  0  0  0
    6.5666    0.6781   17.5793 N   0  0  0  0  0  0  0  0  0  0  0  0
    5.4031    1.2948   17.8389 C   0  0  0  0  0  0  0  0  0  0  0  0
    4.9210    1.7812   16.9953 H   0  0  0  0  0  0  0  0  0  0  0  0
    4.7961    1.3164   19.1004 C   0  0  0  0  0  0  0  0  0  0  0  0
    3.8652    1.8514   19.2550 H   0  0  0  0  0  0  0  0  0  0  0  0
    5.4263    0.6555   20.1514 C   0  0  0  0  0  0  0  0  0  0  0  0
    4.9982    0.6267   21.1573 H   0  0  0  0  0  0  0  0  0  0  0  0
    7.5441   -2.0104   20.9423 N   0  0  0  0  0  0  0  0  0  0  0  0
    8.2527   -2.2808   22.0837 C   0  0  0  0  0  0  0  0  0  0  0  0
    8.5333   -3.2931   22.3502 H   0  0  0  0  0  0  0  0  0  0  0  0
    8.5482   -1.1272   22.7501 C   0  0  0  0  0  0  0  0  0  0  0  0
    9.0978   -0.9429   23.6637 H   0  0  0  0  0  0  0  0  0  0  0  0
    6.0893    2.9507   22.5060 C   0  0  0  0  0  0  0  0  0  0  0  0
    6.3714    3.4154   21.5676 H   0  0  0  0  0  0  0  0  0  0  0  0
    4.9367    3.4283   23.1303 C   0  0  0  0  0  0  0  0  0  0  0  0
    4.3024    4.4658   22.5130 O   0  0  0  0  0  0  0  0  0  0  0  0
    3.5310    4.7165   23.0353 H   0  0  0  0  0  0  0  0  0  0  0  0
  1  2  1  0
  2  3  1  0
  3  4  2  0
  4  5  1  0
  4  6  1  0
  6  7  1  0
  6  8  2  0
  8  9  1  0
  9 10  1  0
  9 11  1  0
  9 12  1  0
 12 13  1  0
 13 14  1  0
 14 15  2  0
 15 16  1  0
 15 17  1  0
 17 18  2  0
 18 19  1  0
 18 20  1  0
 20 21  1  0
 20 22  2  0
 22 23  1  0
 13 24  2  0
 24 25  1  0
 25 26  1  0
 25 27  2  0
 27 28  1  0
  8 29  1  0
 29 30  1  0
 29 31  2  0
 31 32  1  0
 32 33  1  0
 31  3  1  0
 27 12  1  0
 22 14  1  0
M  END
>  <cnnaffinity>  (1) 
-5.12234

>  <filename>  (1) 
Oc1ccc(Cn2ccnc2-c2cccnc2)cc1O

$$$$
