
     RDKit          3D

 29 31  0  0  0  0  0  0  0  0999 V2000
    8.9985   -3.8656   22.7349 H   0  0  0  0  0  0  0  0  0  0  0  0
    8.9596   -4.3288   23.5907 O   0  0  0  0  0  0  0  0  0  0  0  0
    8.3623   -3.5250   24.4954 C   0  0  0  0  0  0  0  0  0  0  0  0
    8.3045   -3.9989   25.8115 C   0  0  0  0  0  0  0  0  0  0  0  0
    8.8076   -4.9453   26.0038 H   0  0  0  0  0  0  0  0  0  0  0  0
    7.6239   -3.2760   26.7925 C   0  0  0  0  0  0  0  0  0  0  0  0
    7.5912   -3.6754   27.8037 H   0  0  0  0  0  0  0  0  0  0  0  0
    6.9948   -2.0663   26.4638 C   0  0  0  0  0  0  0  0  0  0  0  0
    6.4475   -1.5049   27.2137 H   0  0  0  0  0  0  0  0  0  0  0  0
    7.0644   -1.5777   25.1559 C   0  0  0  0  0  0  0  0  0  0  0  0
    6.5803   -0.6406   24.8831 H   0  0  0  0  0  0  0  0  0  0  0  0
    7.7726   -2.2833   24.1723 C   0  0  0  0  0  0  0  0  0  0  0  0
    7.8741   -1.7827   22.8410 N   0  0  0  0  0  0  0  0  0  0  0  0
    9.0302   -1.7896   22.1479 N   0  0  0  0  0  0  0  0  0  0  0  0
    8.7662   -1.1236   21.0332 C   0  0  0  0  0  0  0  0  0  0  0  0
    9.5722   -0.9272   20.3381 H   0  0  0  0  0  0  0  0  0  0  0  0
    7.4029   -0.7045   20.9620 C   0  0  0  0  0  0  0  0  0  0  0  0
    6.6726    0.0101   19.8905 C   0  0  0  0  0  0  0  0  0  0  0  0
    7.1590    0.0687   18.5664 C   0  0  0  0  0  0  0  0  0  0  0  0
    8.1016   -0.4175   18.3189 H   0  0  0  0  0  0  0  0  0  0  0  0
    6.5455    0.6866   17.5484 N   0  0  0  0  0  0  0  0  0  0  0  0
    5.3835    1.3075   17.8101 C   0  0  0  0  0  0  0  0  0  0  0  0
    4.9132    1.8164   16.9687 H   0  0  0  0  0  0  0  0  0  0  0  0
    4.7976    1.3176   19.0797 C   0  0  0  0  0  0  0  0  0  0  0  0
    3.8638    1.8483   19.2310 H   0  0  0  0  0  0  0  0  0  0  0  0
    5.4475    0.6607   20.1282 C   0  0  0  0  0  0  0  0  0  0  0  0
    5.0137    0.6632   21.1266 H   0  0  0  0  0  0  0  0  0  0  0  0
    6.8950   -1.1524   22.1586 C   0  0  0  0  0  0  0  0  0  0  0  0
    5.9119   -1.1167   22.5847 H   0  0  0  0  0  0  0  0  0  0  0  0
  1  2  1  0
  2  3  1  0
  3  4  2  0
  4  5  1  0
  4  6  1  0
  6  7  1  0
  6  8  2  0
  8  9  1  0
  8 10  1  0
 10 11  1  0
 10 12  2  0
 12 13  1  0
 13 14  1  0
 14 15  2  0
 15 16  1  0
 15 17  1  0
 17 18  1  0
 18 19  2  0
 19 20  1  0
 19 21  1  0
 21 22  2  0
 22 23  1  0
 22 24  1  0
 24 25  1  0
 24 26  2  0
 26 27  1  0
 17 28  2  0
 28 29  1  0
 12  3  1  0
 28 13  1  0
 26 18  1  0
M  END
>  <cnnaffinity>  (1) 
-4.89907

>  <filename>  (1) 
Oc1ccccc1-n1cc(-c2cccnc2)cn1

$$$$
