
     RDKit          3D

 32 34  0  0  0  0  0  0  0  0999 V2000
    8.7662    5.1841   23.0927 O   0  0  0  0  0  0  0  0  0  0  0  0
    7.5848    4.7811   22.4233 C   0  0  0  0  0  0  0  0  0  0  0  0
    7.0897    3.4312   22.9028 C   0  0  0  0  0  0  0  0  0  0  0  0
    6.2165    3.3469   23.9990 C   0  0  0  0  0  0  0  0  0  0  0  0
    5.7903    2.1203   24.5107 C   0  0  0  0  0  0  0  0  0  0  0  0
    6.2335    0.9425   23.9177 C   0  0  0  0  0  0  0  0  0  0  0  0
    7.0999    0.9718   22.8155 C   0  0  0  0  0  0  0  0  0  0  0  0
    7.5294   -0.3163   22.2407 C   0  0  0  0  0  0  0  0  0  0  0  0
    8.2143   -1.3265   22.8727 C   0  0  0  0  0  0  0  0  0  0  0  0
    8.4564   -2.2699   21.8631 C   0  0  0  0  0  0  0  0  0  0  0  0
    7.9620   -1.8897   20.6930 N   0  0  0  0  0  0  0  0  0  0  0  0
    7.3691   -0.7034   20.9300 N   0  0  0  0  0  0  0  0  0  0  0  0
    6.6552   -0.0157   19.9086 C   0  0  0  0  0  0  0  0  0  0  0  0
    5.4431    0.6404   20.1713 C   0  0  0  0  0  0  0  0  0  0  0  0
    4.8144    1.2996   19.1092 C   0  0  0  0  0  0  0  0  0  0  0  0
    5.4101    1.2898   17.8426 C   0  0  0  0  0  0  0  0  0  0  0  0
    6.5759    0.6708   17.5949 N   0  0  0  0  0  0  0  0  0  0  0  0
    7.1753    0.0366   18.6042 C   0  0  0  0  0  0  0  0  0  0  0  0
    8.1222   -0.4440   18.3786 H   0  0  0  0  0  0  0  0  0  0  0  0
    4.9275    1.7808   16.9961 H   0  0  0  0  0  0  0  0  0  0  0  0
    3.8821    1.8366   19.2597 H   0  0  0  0  0  0  0  0  0  0  0  0
    5.0099    0.6373   21.1741 H   0  0  0  0  0  0  0  0  0  0  0  0
    8.9714   -3.2140   21.9484 H   0  0  0  0  0  0  0  0  0  0  0  0
    8.5151   -1.3205   23.9114 H   0  0  0  0  0  0  0  0  0  0  0  0
    7.5473    2.2267   22.3504 C   0  0  0  0  0  0  0  0  0  0  0  0
    8.7441    2.2984   21.0885 Cl  0  0  0  0  0  0  0  0  0  0  0  0
    5.9080   -0.0254   24.2869 H   0  0  0  0  0  0  0  0  0  0  0  0
    5.1173    2.0787   25.3628 H   0  0  0  0  0  0  0  0  0  0  0  0
    5.8888    4.2676   24.4644 H   0  0  0  0  0  0  0  0  0  0  0  0
    6.8256    5.5311   22.6509 H   0  0  0  0  0  0  0  0  0  0  0  0
    7.7255    4.7774   21.3344 H   0  0  0  0  0  0  0  0  0  0  0  0
    9.4733    4.6388   22.7193 H   0  0  0  0  0  0  0  0  0  0  0  0
  1  2  1  0
  2  3  1  0
  3  4  2  0
  4  5  1  0
  5  6  2  0
  6  7  1  0
  7  8  1  0
  8  9  2  0
  9 10  1  0
 10 11  2  0
 11 12  1  0
 12 13  1  0
 13 14  2  0
 14 15  1  0
 15 16  2  0
 16 17  1  0
 17 18  2  0
 18 19  1  0
 16 20  1  0
 15 21  1  0
 14 22  1  0
 10 23  1  0
  9 24  1  0
  7 25  2  0
 25 26  1  0
  6 27  1  0
  5 28  1  0
  4 29  1  0
  2 30  1  0
  2 31  1  0
  1 32  1  0
 25  3  1  0
 12  8  1  0
 18 13  1  0
M  END
>  <cnnaffinity>  (1) 
-4.67715

>  <filename>  (1) 
OCc1cccc(-c2ccnn2-c2cccnc2)c1Cl

$$$$
