
     RDKit          3D

 36 37  0  0  0  0  0  0  0  0999 V2000
   10.1236   -6.6795   26.4402 H   0  0  0  0  0  0  0  0  0  0  0  0
    9.6007   -6.1509   25.8075 O   0  0  0  0  0  0  0  0  0  0  0  0
   10.3402   -5.0090   25.3245 C   0  0  0  0  0  0  0  0  0  0  0  0
   11.1701   -5.3371   24.6910 H   0  0  0  0  0  0  0  0  0  0  0  0
   10.7689   -4.4598   26.1692 H   0  0  0  0  0  0  0  0  0  0  0  0
    9.4119   -4.0692   24.5357 C   0  0  0  0  0  0  0  0  0  0  0  0
    9.1703   -4.5123   23.5607 H   0  0  0  0  0  0  0  0  0  0  0  0
    8.4751   -3.9872   25.0966 H   0  0  0  0  0  0  0  0  0  0  0  0
    9.9937   -2.7128   24.3523 N   0  0  0  0  0  0  0  0  0  0  0  0
   10.6528   -2.4770   23.0487 C   0  0  0  0  0  0  0  0  0  0  0  0
   11.2130   -1.5405   23.1011 H   0  0  0  0  0  0  0  0  0  0  0  0
   11.3537   -3.2849   22.8267 H   0  0  0  0  0  0  0  0  0  0  0  0
    9.6463   -2.3479   21.8929 C   0  0  0  0  0  0  0  0  0  0  0  0
    9.2331   -3.3287   21.6542 H   0  0  0  0  0  0  0  0  0  0  0  0
   10.1936   -2.0063   21.0108 H   0  0  0  0  0  0  0  0  0  0  0  0
    8.5285   -1.4303   22.2104 N   0  0  0  0  0  0  0  0  0  0  0  0
    8.0145   -0.6169   21.1946 C   0  0  0  0  0  0  0  0  0  0  0  0
    9.2545    0.3948   20.1544 Br  0  0  0  0  0  0  0  0  0  0  0  0
    6.6675   -0.5661   20.8998 C   0  0  0  0  0  0  0  0  0  0  0  0
    5.9861   -1.1094   21.5441 H   0  0  0  0  0  0  0  0  0  0  0  0
    6.1399    0.1701   19.7308 C   0  0  0  0  0  0  0  0  0  0  0  0
    6.9142    0.3173   18.5633 C   0  0  0  0  0  0  0  0  0  0  0  0
    7.8916   -0.1507   18.5234 H   0  0  0  0  0  0  0  0  0  0  0  0
    6.5137    0.9916   17.4734 N   0  0  0  0  0  0  0  0  0  0  0  0
    5.3056    1.5771   17.5129 C   0  0  0  0  0  0  0  0  0  0  0  0
    4.9933    2.1656   16.6571 H   0  0  0  0  0  0  0  0  0  0  0  0
    4.4568    1.4608   18.6161 C   0  0  0  0  0  0  0  0  0  0  0  0
    3.4915    1.9528   18.5825 H   0  0  0  0  0  0  0  0  0  0  0  0
    4.8630    0.7380   19.7413 C   0  0  0  0  0  0  0  0  0  0  0  0
    4.2141    0.6433   20.6071 H   0  0  0  0  0  0  0  0  0  0  0  0
    7.9582   -1.4972   23.5778 C   0  0  0  0  0  0  0  0  0  0  0  0
    7.3471   -0.6166   23.7880 H   0  0  0  0  0  0  0  0  0  0  0  0
    7.3234   -2.3828   23.6552 H   0  0  0  0  0  0  0  0  0  0  0  0
    9.0688   -1.5943   24.6487 C   0  0  0  0  0  0  0  0  0  0  0  0
    9.6262   -0.6513   24.6822 H   0  0  0  0  0  0  0  0  0  0  0  0
    8.6183   -1.7443   25.6337 H   0  0  0  0  0  0  0  0  0  0  0  0
  1  2  1  0
  2  3  1  0
  3  4  1  0
  3  5  1  0
  3  6  1  0
  6  7  1  0
  6  8  1  0
  6  9  1  0
  9 10  1  0
 10 11  1  0
 10 12  1  0
 10 13  1  0
 13 14  1  0
 13 15  1  0
 13 16  1  0
 16 17  1  0
 17 18  1  0
 17 19  2  3
 19 20  1  0
 19 21  1  0
 21 22  2  0
 22 23  1  0
 22 24  1  0
 24 25  2  0
 25 26  1  0
 25 27  1  0
 27 28  1  0
 27 29  2  0
 29 30  1  0
 16 31  1  0
 31 32  1  0
 31 33  1  0
 31 34  1  0
 34 35  1  0
 34 36  1  0
 34  9  1  0
 29 21  1  0
M  END
>  <cnnaffinity>  (1) 
-4.5394

>  <filename>  (1) 
OCCN1CCN(C(Br)=Cc2cccnc2)CC1

$$$$
