
     RDKit          3D

 36 38  0  0  0  0  0  0  0  0999 V2000
    4.9155    1.8103   16.9899 H   0  0  0  0  0  0  0  0  0  0  0  0
    5.3889    1.3003   17.8272 C   0  0  0  0  0  0  0  0  0  0  0  0
    6.5463    0.6769   17.5647 N   0  0  0  0  0  0  0  0  0  0  0  0
    7.1604    0.0490   18.5755 C   0  0  0  0  0  0  0  0  0  0  0  0
    8.1039   -0.4380   18.3324 H   0  0  0  0  0  0  0  0  0  0  0  0
    6.6516    0.0027   19.8919 C   0  0  0  0  0  0  0  0  0  0  0  0
    7.3090   -0.6745   20.9657 N   0  0  0  0  0  0  0  0  0  0  0  0
    6.7596   -1.6075   21.8125 C   0  0  0  0  0  0  0  0  0  0  0  0
    5.7189   -1.9053   21.7844 H   0  0  0  0  0  0  0  0  0  0  0  0
    7.6565   -2.0960   22.6204 N   0  0  0  0  0  0  0  0  0  0  0  0
    8.8412   -1.4639   22.3392 N   0  0  0  0  0  0  0  0  0  0  0  0
    8.6246   -0.5968   21.3839 C   0  0  0  0  0  0  0  0  0  0  0  0
    9.6582    0.3680   20.8296 C   0  0  0  0  0  0  0  0  0  0  0  0
    9.2873    0.7647   19.8813 H   0  0  0  0  0  0  0  0  0  0  0  0
   10.5474   -0.2241   20.6092 H   0  0  0  0  0  0  0  0  0  0  0  0
   10.0770    1.4918   21.6907 N   0  0  0  0  0  0  0  0  0  0  0  0
   10.8096    1.2768   22.3631 H   0  0  0  0  0  0  0  0  0  0  0  0
    9.2124    2.2992   22.3928 C   0  0  0  0  0  0  0  0  0  0  0  0
    9.7090    2.9095   23.8459 S   0  0  0  0  0  0  0  0  0  0  0  0
    8.0378    2.5382   21.7533 N   0  0  0  0  0  0  0  0  0  0  0  0
    8.1294    2.6701   20.7612 H   0  0  0  0  0  0  0  0  0  0  0  0
    6.7795    2.8005   22.3309 C   0  0  0  0  0  0  0  0  0  0  0  0
    5.8794    3.6660   21.6942 C   0  0  0  0  0  0  0  0  0  0  0  0
    6.1785    4.1803   20.7860 H   0  0  0  0  0  0  0  0  0  0  0  0
    4.6043    3.8652   22.2348 C   0  0  0  0  0  0  0  0  0  0  0  0
    3.9105    4.5327   21.7244 H   0  0  0  0  0  0  0  0  0  0  0  0
    4.2292    3.2081   23.4125 C   0  0  0  0  0  0  0  0  0  0  0  0
    3.2426    3.3715   23.8314 H   0  0  0  0  0  0  0  0  0  0  0  0
    5.1327    2.3485   24.0511 C   0  0  0  0  0  0  0  0  0  0  0  0
    4.8565    1.8385   24.9722 H   0  0  0  0  0  0  0  0  0  0  0  0
    6.4040    2.1458   23.5091 C   0  0  0  0  0  0  0  0  0  0  0  0
    7.1268    1.4868   23.9816 H   0  0  0  0  0  0  0  0  0  0  0  0
    5.4399    0.6423   20.1452 C   0  0  0  0  0  0  0  0  0  0  0  0
    5.0530    0.6523   21.1639 H   0  0  0  0  0  0  0  0  0  0  0  0
    4.7984    1.3088   19.0956 C   0  0  0  0  0  0  0  0  0  0  0  0
    3.8649    1.8434   19.2471 H   0  0  0  0  0  0  0  0  0  0  0  0
  1  2  1  0
  2  3  2  0
  3  4  1  0
  4  5  1  0
  4  6  2  0
  6  7  1  0
  7  8  1  0
  8  9  1  0
  8 10  2  0
 10 11  1  0
 11 12  2  0
 12 13  1  0
 13 14  1  0
 13 15  1  0
 13 16  1  0
 16 17  1  0
 16 18  1  0
 18 19  2  0
 18 20  1  0
 20 21  1  0
 20 22  1  0
 22 23  2  0
 23 24  1  0
 23 25  1  0
 25 26  1  0
 25 27  2  0
 27 28  1  0
 27 29  1  0
 29 30  1  0
 29 31  2  0
 31 32  1  0
  6 33  1  0
 33 34  1  0
 33 35  2  0
 35 36  1  0
 35  2  1  0
 12  7  1  0
 31 22  1  0
M  END
>  <cnnaffinity>  (1) 
-5.16882

>  <filename>  (1) 
S=C(NCc1nncn1-c1cccnc1)Nc1ccccc1

$$$$
