
     RDKit          3D

 27 28  0  0  0  0  0  0  0  0999 V2000
    4.9224    1.7784   16.9973 H   0  0  0  0  0  0  0  0  0  0  0  0
    5.4053    1.2917   17.8424 C   0  0  0  0  0  0  0  0  0  0  0  0
    6.5701    0.6775   17.5827 N   0  0  0  0  0  0  0  0  0  0  0  0
    7.1822    0.0695   18.5994 C   0  0  0  0  0  0  0  0  0  0  0  0
    8.1240   -0.4253   18.3627 H   0  0  0  0  0  0  0  0  0  0  0  0
    6.6721    0.0086   19.9039 C   0  0  0  0  0  0  0  0  0  0  0  0
    7.3749   -0.7703   20.9622 C   0  0  0  0  0  0  0  0  0  0  0  0
    6.5838   -1.4818   22.1868 S   0  0  0  0  0  0  0  0  0  0  0  0
    9.1724   -0.7488   20.9000 S   0  0  0  0  0  0  0  0  0  0  0  0
    9.4532    0.9176   21.6463 C   0  0  0  0  0  0  0  0  0  0  0  0
    8.9431    1.6432   21.0077 H   0  0  0  0  0  0  0  0  0  0  0  0
   10.5313    1.0982   21.5595 H   0  0  0  0  0  0  0  0  0  0  0  0
    8.9903    1.0096   23.0795 C   0  0  0  0  0  0  0  0  0  0  0  0
    7.8073    1.6784   23.4142 C   0  0  0  0  0  0  0  0  0  0  0  0
    7.2320    2.1675   22.6343 H   0  0  0  0  0  0  0  0  0  0  0  0
    7.3567    1.7200   24.7302 C   0  0  0  0  0  0  0  0  0  0  0  0
    6.4450    2.2465   24.9909 H   0  0  0  0  0  0  0  0  0  0  0  0
    8.0832    1.0773   25.7353 C   0  0  0  0  0  0  0  0  0  0  0  0
    7.4991    1.1593   27.3615 Cl  0  0  0  0  0  0  0  0  0  0  0  0
    9.2595    0.3837   25.4082 C   0  0  0  0  0  0  0  0  0  0  0  0
   10.1899   -0.4168   26.6221 Cl  0  0  0  0  0  0  0  0  0  0  0  0
    9.7038    0.3474   24.0856 C   0  0  0  0  0  0  0  0  0  0  0  0
   10.6027   -0.2125   23.8431 H   0  0  0  0  0  0  0  0  0  0  0  0
    5.4471    0.6546   20.1607 C   0  0  0  0  0  0  0  0  0  0  0  0
    5.0040    0.6249   21.1599 H   0  0  0  0  0  0  0  0  0  0  0  0
    4.8125    1.3110   19.1083 C   0  0  0  0  0  0  0  0  0  0  0  0
    3.8767    1.8397   19.2604 H   0  0  0  0  0  0  0  0  0  0  0  0
  1  2  1  0
  2  3  2  0
  3  4  1  0
  4  5  1  0
  4  6  2  0
  6  7  1  0
  7  8  2  0
  7  9  1  0
  9 10  1  0
 10 11  1  0
 10 12  1  0
 10 13  1  0
 13 14  2  0
 14 15  1  0
 14 16  1  0
 16 17  1  0
 16 18  2  0
 18 19  1  0
 18 20  1  0
 20 21  1  0
 20 22  2  0
 22 23  1  0
  6 24  1  0
 24 25  1  0
 24 26  2  0
 26 27  1  0
 26  2  1  0
 22 13  1  0
M  END
>  <cnnaffinity>  (1) 
-5.24563

>  <filename>  (1) 
S=C(SCc1ccc(Cl)c(Cl)c1)c1cccnc1

$$$$
