
     RDKit          3D

 28 29  0  0  0  0  0  0  0  0999 V2000
    4.9153    1.7837   16.9945 H   0  0  0  0  0  0  0  0  0  0  0  0
    5.3970    1.2947   17.8381 C   0  0  0  0  0  0  0  0  0  0  0  0
    6.5619    0.6797   17.5769 N   0  0  0  0  0  0  0  0  0  0  0  0
    7.1674    0.0485   18.5903 C   0  0  0  0  0  0  0  0  0  0  0  0
    8.1258   -0.4268   18.3788 H   0  0  0  0  0  0  0  0  0  0  0  0
    6.6287   -0.0144   19.8868 C   0  0  0  0  0  0  0  0  0  0  0  0
    7.5058   -0.8369   21.2081 S   0  0  0  0  0  0  0  0  0  0  0  0
    8.5058    0.5684   21.7029 C   0  0  0  0  0  0  0  0  0  0  0  0
    9.9560    0.8356   21.0310 S   0  0  0  0  0  0  0  0  0  0  0  0
    7.8674    1.5754   22.6575 C   0  0  0  0  0  0  0  0  0  0  0  0
    8.6546    1.9236   23.3391 H   0  0  0  0  0  0  0  0  0  0  0  0
    7.5803    2.4563   22.0718 H   0  0  0  0  0  0  0  0  0  0  0  0
    6.6980    1.1816   23.3512 O   0  0  0  0  0  0  0  0  0  0  0  0
    6.7614    0.2175   24.3296 C   0  0  0  0  0  0  0  0  0  0  0  0
    5.5258   -0.1578   24.8789 C   0  0  0  0  0  0  0  0  0  0  0  0
    4.6292    0.3089   24.4844 H   0  0  0  0  0  0  0  0  0  0  0  0
    5.4614   -1.1198   25.8850 C   0  0  0  0  0  0  0  0  0  0  0  0
    4.4963   -1.4054   26.2929 H   0  0  0  0  0  0  0  0  0  0  0  0
    6.6316   -1.7119   26.3725 C   0  0  0  0  0  0  0  0  0  0  0  0
    6.5796   -2.4519   27.1670 H   0  0  0  0  0  0  0  0  0  0  0  0
    7.8601   -1.3372   25.8282 C   0  0  0  0  0  0  0  0  0  0  0  0
    8.7757   -1.7883   26.2043 H   0  0  0  0  0  0  0  0  0  0  0  0
    7.9402   -0.3809   24.8052 C   0  0  0  0  0  0  0  0  0  0  0  0
    8.9113   -0.1057   24.4044 H   0  0  0  0  0  0  0  0  0  0  0  0
    5.4286    0.6470   20.1562 C   0  0  0  0  0  0  0  0  0  0  0  0
    5.0198    0.6356   21.1693 H   0  0  0  0  0  0  0  0  0  0  0  0
    4.7984    1.3148   19.1025 C   0  0  0  0  0  0  0  0  0  0  0  0
    3.8683    1.8489   19.2559 H   0  0  0  0  0  0  0  0  0  0  0  0
  1  2  1  0
  2  3  2  0
  3  4  1  0
  4  5  1  0
  4  6  2  0
  6  7  1  0
  7  8  1  0
  8  9  2  0
  8 10  1  0
 10 11  1  0
 10 12  1  0
 10 13  1  0
 13 14  1  0
 14 15  2  0
 15 16  1  0
 15 17  1  0
 17 18  1  0
 17 19  2  0
 19 20  1  0
 19 21  1  0
 21 22  1  0
 21 23  2  0
 23 24  1  0
  6 25  1  0
 25 26  1  0
 25 27  2  0
 27 28  1  0
 27  2  1  0
 23 14  1  0
M  END
>  <cnnaffinity>  (1) 
-4.27684

>  <filename>  (1) 
S=C(COc1ccccc1)Sc1cccnc1

$$$$
