
     RDKit          3D

 35 36  0  0  0  0  0  0  0  0999 V2000
    5.1970    1.7320   16.9926 H   0  0  0  0  0  0  0  0  0  0  0  0
    5.5703    1.2183   17.8771 C   0  0  0  0  0  0  0  0  0  0  0  0
    6.6879    0.4944   17.7107 N   0  0  0  0  0  0  0  0  0  0  0  0
    7.1648   -0.1512   18.7770 C   0  0  0  0  0  0  0  0  0  0  0  0
    8.0652   -0.7412   18.6178 H   0  0  0  0  0  0  0  0  0  0  0  0
    6.5824   -0.1062   20.0600 C   0  0  0  0  0  0  0  0  0  0  0  0
    7.2405   -0.7919   21.1993 C   0  0  0  0  0  0  0  0  0  0  0  0
    8.1030   -2.1616   21.0100 S   0  0  0  0  0  0  0  0  0  0  0  0
    7.1452   -0.1053   22.5452 C   0  0  0  0  0  0  0  0  0  0  0  0
    6.0887    0.0526   22.7825 H   0  0  0  0  0  0  0  0  0  0  0  0
    7.5315   -0.7823   23.3098 H   0  0  0  0  0  0  0  0  0  0  0  0
    7.8746    1.2539   22.5474 C   0  0  0  0  0  0  0  0  0  0  0  0
    7.3254    1.9397   21.8867 H   0  0  0  0  0  0  0  0  0  0  0  0
    7.8178    1.6887   23.5538 H   0  0  0  0  0  0  0  0  0  0  0  0
    9.3414    1.2212   22.0757 C   0  0  0  0  0  0  0  0  0  0  0  0
    9.3501    0.8108   21.0528 H   0  0  0  0  0  0  0  0  0  0  0  0
   10.2473    0.3139   22.9312 C   0  0  0  0  0  0  0  0  0  0  0  0
   10.1203    0.5686   23.9940 H   0  0  0  0  0  0  0  0  0  0  0  0
    9.9299   -0.7302   22.8222 H   0  0  0  0  0  0  0  0  0  0  0  0
   11.7329    0.4611   22.5632 C   0  0  0  0  0  0  0  0  0  0  0  0
   12.3621   -0.2070   23.1622 H   0  0  0  0  0  0  0  0  0  0  0  0
   11.8860    0.1570   21.5138 H   0  0  0  0  0  0  0  0  0  0  0  0
   12.1798    1.9215   22.7095 C   0  0  0  0  0  0  0  0  0  0  0  0
   13.2564    2.0118   22.5244 H   0  0  0  0  0  0  0  0  0  0  0  0
   12.0175    2.2694   23.7442 H   0  0  0  0  0  0  0  0  0  0  0  0
   11.3855    2.7694   21.7044 C   0  0  0  0  0  0  0  0  0  0  0  0
   11.7130    3.8146   21.7334 H   0  0  0  0  0  0  0  0  0  0  0  0
   11.6466    2.4027   20.6976 H   0  0  0  0  0  0  0  0  0  0  0  0
    9.8662    2.6661   21.9499 C   0  0  0  0  0  0  0  0  0  0  0  0
    9.6033    3.2395   22.8533 H   0  0  0  0  0  0  0  0  0  0  0  0
    9.2954    3.1163   21.1282 H   0  0  0  0  0  0  0  0  0  0  0  0
    5.4017    0.6442   20.2079 C   0  0  0  0  0  0  0  0  0  0  0  0
    4.8869    0.7064   21.1702 H   0  0  0  0  0  0  0  0  0  0  0  0
    4.8928    1.3108   19.0959 C   0  0  0  0  0  0  0  0  0  0  0  0
    3.9907    1.9070   19.1660 H   0  0  0  0  0  0  0  0  0  0  0  0
  1  2  1  0
  2  3  2  0
  3  4  1  0
  4  5  1  0
  4  6  2  0
  6  7  1  0
  7  8  2  0
  7  9  1  0
  9 10  1  0
  9 11  1  0
  9 12  1  0
 12 13  1  0
 12 14  1  0
 12 15  1  0
 15 16  1  0
 15 17  1  0
 17 18  1  0
 17 19  1  0
 17 20  1  0
 20 21  1  0
 20 22  1  0
 20 23  1  0
 23 24  1  0
 23 25  1  0
 23 26  1  0
 26 27  1  0
 26 28  1  0
 26 29  1  0
 29 30  1  0
 29 31  1  0
  6 32  1  0
 32 33  1  0
 32 34  2  0
 34 35  1  0
 34  2  1  0
 29 15  1  0
M  END
>  <cnnaffinity>  (1) 
-5.15987

>  <filename>  (1) 
S=C(CCC1CCCCC1)c1cccnc1

$$$$
