
     RDKit          3D

 34 36  0  0  0  0  0  0  0  0999 V2000
    4.9542    1.9402   16.3457 H   0  0  0  0  0  0  0  0  0  0  0  0
    5.2323    1.3757   17.2356 C   0  0  0  0  0  0  0  0  0  0  0  0
    6.2039    0.4642   17.0808 N   0  0  0  0  0  0  0  0  0  0  0  0
    6.5942   -0.2197   18.1649 C   0  0  0  0  0  0  0  0  0  0  0  0
    7.3741   -0.9651   18.0221 H   0  0  0  0  0  0  0  0  0  0  0  0
    6.0482   -0.0280   19.4476 C   0  0  0  0  0  0  0  0  0  0  0  0
    6.5432   -0.7764   20.5827 N   0  0  0  0  0  0  0  0  0  0  0  0
    7.4605   -0.4032   21.5370 C   0  0  0  0  0  0  0  0  0  0  0  0
    8.1720    0.7574   21.3953 N   0  0  0  0  0  0  0  0  0  0  0  0
    7.9629    1.3000   20.5772 H   0  0  0  0  0  0  0  0  0  0  0  0
    9.4491    0.9881   21.8246 C   0  0  0  0  0  0  0  0  0  0  0  0
   10.3107    2.1596   21.0499 S   0  0  0  0  0  0  0  0  0  0  0  0
    9.8636    0.2304   22.8492 N   0  0  0  0  0  0  0  0  0  0  0  0
    9.1922   -0.4554   23.1790 H   0  0  0  0  0  0  0  0  0  0  0  0
   11.2258    0.1557   23.2491 C   0  0  0  0  0  0  0  0  0  0  0  0
   11.6039    0.4639   24.5553 C   0  0  0  0  0  0  0  0  0  0  0  0
   10.8380    0.6775   25.2938 H   0  0  0  0  0  0  0  0  0  0  0  0
   12.9675    0.4607   24.8798 C   0  0  0  0  0  0  0  0  0  0  0  0
   13.3067    0.6419   25.8892 H   0  0  0  0  0  0  0  0  0  0  0  0
   13.9198    0.1760   23.9000 C   0  0  0  0  0  0  0  0  0  0  0  0
   14.9558    0.1305   24.1891 H   0  0  0  0  0  0  0  0  0  0  0  0
   13.5330   -0.1827   22.6123 C   0  0  0  0  0  0  0  0  0  0  0  0
   14.2810   -0.4544   21.8731 H   0  0  0  0  0  0  0  0  0  0  0  0
   12.1799   -0.1939   22.2881 C   0  0  0  0  0  0  0  0  0  0  0  0
   11.8427   -0.4469   21.2917 H   0  0  0  0  0  0  0  0  0  0  0  0
    7.5858   -1.2631   22.5046 N   0  0  0  0  0  0  0  0  0  0  0  0
    6.7185   -2.2897   22.1709 C   0  0  0  0  0  0  0  0  0  0  0  0
    6.6339   -3.1700   22.7936 H   0  0  0  0  0  0  0  0  0  0  0  0
    6.0911   -2.0276   20.9929 C   0  0  0  0  0  0  0  0  0  0  0  0
    5.4316   -2.6188   20.3801 H   0  0  0  0  0  0  0  0  0  0  0  0
    5.0283    0.9242   19.5962 C   0  0  0  0  0  0  0  0  0  0  0  0
    4.5826    1.0943   20.5773 H   0  0  0  0  0  0  0  0  0  0  0  0
    4.6109    1.6319   18.4620 C   0  0  0  0  0  0  0  0  0  0  0  0
    3.8118    2.3654   18.5153 H   0  0  0  0  0  0  0  0  0  0  0  0
  1  2  1  0
  2  3  2  0
  3  4  1  0
  4  5  1  0
  4  6  2  0
  6  7  1  0
  7  8  1  0
  8  9  1  0
  9 10  1  0
  9 11  1  0
 11 12  2  0
 11 13  1  0
 13 14  1  0
 13 15  1  0
 15 16  2  0
 16 17  1  0
 16 18  1  0
 18 19  1  0
 18 20  2  0
 20 21  1  0
 20 22  1  0
 22 23  1  0
 22 24  2  0
 24 25  1  0
  8 26  2  0
 26 27  1  0
 27 28  1  0
 27 29  2  0
 29 30  1  0
  6 31  1  0
 31 32  1  0
 31 33  2  0
 33 34  1  0
 33  2  1  0
 29  7  1  0
 24 15  1  0
M  END
>  <cnnaffinity>  (1) 
-5.52696

>  <filename>  (1) 
S=C(Nc1ccccc1)Nc1nccn1-c1cccnc1

$$$$
