
     RDKit          3D

 35 37  0  0  0  0  0  0  0  0999 V2000
    4.9679    1.8462   16.9055 H   0  0  0  0  0  0  0  0  0  0  0  0
    5.4157    1.3475   17.7625 C   0  0  0  0  0  0  0  0  0  0  0  0
    6.5825    0.7231   17.5410 N   0  0  0  0  0  0  0  0  0  0  0  0
    7.1578    0.1053   18.5815 C   0  0  0  0  0  0  0  0  0  0  0  0
    8.0947   -0.4155   18.3800 H   0  0  0  0  0  0  0  0  0  0  0  0
    6.6202    0.0773   19.8848 C   0  0  0  0  0  0  0  0  0  0  0  0
    7.2894   -0.7001   21.0116 C   0  0  0  0  0  0  0  0  0  0  0  0
    7.4926   -1.7165   20.6496 H   0  0  0  0  0  0  0  0  0  0  0  0
    6.5917   -0.8014   21.8545 H   0  0  0  0  0  0  0  0  0  0  0  0
    8.6275   -0.1689   21.5650 C   0  0  0  0  0  0  0  0  0  0  0  0
   10.0554   -0.6840   20.9109 S   0  0  0  0  0  0  0  0  0  0  0  0
    8.5665    0.6739   22.6318 N   0  0  0  0  0  0  0  0  0  0  0  0
    9.5725    0.6446   23.7058 C   0  0  0  0  0  0  0  0  0  0  0  0
   10.1825    1.5615   23.6456 H   0  0  0  0  0  0  0  0  0  0  0  0
   10.2532   -0.1979   23.5439 H   0  0  0  0  0  0  0  0  0  0  0  0
    8.9161    0.5572   25.0776 C   0  0  0  0  0  0  0  0  0  0  0  0
    9.5631   -0.0885   26.1404 C   0  0  0  0  0  0  0  0  0  0  0  0
   10.4850   -0.6346   25.9529 H   0  0  0  0  0  0  0  0  0  0  0  0
    9.0396   -0.0383   27.4279 C   0  0  0  0  0  0  0  0  0  0  0  0
    9.5800   -0.5154   28.2470 H   0  0  0  0  0  0  0  0  0  0  0  0
    7.8762    0.6971   27.6716 C   0  0  0  0  0  0  0  0  0  0  0  0
    7.4738    0.7826   28.6765 H   0  0  0  0  0  0  0  0  0  0  0  0
    7.1953    1.2996   26.6119 C   0  0  0  0  0  0  0  0  0  0  0  0
    6.2787    1.8559   26.8064 H   0  0  0  0  0  0  0  0  0  0  0  0
    7.6712    1.1831   25.2996 C   0  0  0  0  0  0  0  0  0  0  0  0
    6.8075    1.5907   24.1151 C   0  0  0  0  0  0  0  0  0  0  0  0
    6.0497    0.8061   23.9611 H   0  0  0  0  0  0  0  0  0  0  0  0
    6.2684    2.5179   24.3380 H   0  0  0  0  0  0  0  0  0  0  0  0
    7.5988    1.7683   22.8138 C   0  0  0  0  0  0  0  0  0  0  0  0
    8.1749    2.7051   22.8690 H   0  0  0  0  0  0  0  0  0  0  0  0
    6.9352    1.8447   21.9459 H   0  0  0  0  0  0  0  0  0  0  0  0
    5.3961    0.7230   20.0796 C   0  0  0  0  0  0  0  0  0  0  0  0
    4.9336    0.7030   21.0681 H   0  0  0  0  0  0  0  0  0  0  0  0
    4.7778    1.3693   19.0055 C   0  0  0  0  0  0  0  0  0  0  0  0
    3.8339    1.8886   19.1267 H   0  0  0  0  0  0  0  0  0  0  0  0
  1  2  1  0
  2  3  2  0
  3  4  1  0
  4  5  1  0
  4  6  2  0
  6  7  1  0
  7  8  1  0
  7  9  1  0
  7 10  1  0
 10 11  2  0
 10 12  1  0
 12 13  1  0
 13 14  1  0
 13 15  1  0
 13 16  1  0
 16 17  2  0
 17 18  1  0
 17 19  1  0
 19 20  1  0
 19 21  2  0
 21 22  1  0
 21 23  1  0
 23 24  1  0
 23 25  2  0
 25 26  1  0
 26 27  1  0
 26 28  1  0
 26 29  1  0
 29 30  1  0
 29 31  1  0
  6 32  1  0
 32 33  1  0
 32 34  2  0
 34 35  1  0
 34  2  1  0
 29 12  1  0
 25 16  1  0
M  END
>  <cnnaffinity>  (1) 
-4.68991

>  <filename>  (1) 
S=C(Cc1cccnc1)N1CCc2ccccc2C1

$$$$
