
     RDKit          3D

 33 34  0  0  0  0  0  0  0  0999 V2000
    5.0283    1.6897   16.9425 H   0  0  0  0  0  0  0  0  0  0  0  0
    5.4463    1.2456   17.8452 C   0  0  0  0  0  0  0  0  0  0  0  0
    6.6299    0.6373   17.6885 N   0  0  0  0  0  0  0  0  0  0  0  0
    7.1973    0.1074   18.7770 C   0  0  0  0  0  0  0  0  0  0  0  0
    8.1598   -0.3806   18.6132 H   0  0  0  0  0  0  0  0  0  0  0  0
    6.6345    0.1581   20.0641 C   0  0  0  0  0  0  0  0  0  0  0  0
    7.3554   -0.4443   21.2513 C   0  0  2  0  0  0  0  0  0  0  0  0
    6.8218   -0.2286   22.1839 H   0  0  0  0  0  0  0  0  0  0  0  0
    8.9707    0.3475   21.4175 Cl  0  0  0  0  0  0  0  0  0  0  0  0
    7.5238   -1.9706   21.0953 C   0  0  0  0  0  0  0  0  0  0  0  0
    6.5740   -2.3670   20.7121 H   0  0  0  0  0  0  0  0  0  0  0  0
    8.3005   -2.1280   20.3415 H   0  0  0  0  0  0  0  0  0  0  0  0
    7.8732   -2.6821   22.3186 N   0  0  0  0  0  0  0  0  0  0  0  0
    8.8407   -2.9346   22.4376 H   0  0  0  0  0  0  0  0  0  0  0  0
    6.9981   -3.4229   23.0633 C   0  0  0  0  0  0  0  0  0  0  0  0
    5.3734   -3.5060   22.7403 S   0  0  0  0  0  0  0  0  0  0  0  0
    7.6781   -4.0851   24.0530 N   0  0  0  0  0  0  0  0  0  0  0  0
    8.5608   -3.6510   24.2645 H   0  0  0  0  0  0  0  0  0  0  0  0
    7.1520   -4.8321   25.1293 C   0  0  0  0  0  0  0  0  0  0  0  0
    6.1033   -5.7496   24.9681 C   0  0  0  0  0  0  0  0  0  0  0  0
    5.7350   -5.9702   23.9730 H   0  0  0  0  0  0  0  0  0  0  0  0
    5.5688   -6.3825   26.0960 C   0  0  0  0  0  0  0  0  0  0  0  0
    4.7329   -7.0685   25.9840 H   0  0  0  0  0  0  0  0  0  0  0  0
    6.0963   -6.1408   27.3692 C   0  0  0  0  0  0  0  0  0  0  0  0
    5.6660   -6.6241   28.2411 H   0  0  0  0  0  0  0  0  0  0  0  0
    7.2003   -5.2888   27.5093 C   0  0  0  0  0  0  0  0  0  0  0  0
    7.6498   -5.1293   28.4862 H   0  0  0  0  0  0  0  0  0  0  0  0
    7.7343   -4.6460   26.3909 C   0  0  0  0  0  0  0  0  0  0  0  0
    8.6100   -4.0057   26.4796 H   0  0  0  0  0  0  0  0  0  0  0  0
    5.3786    0.7595   20.2017 C   0  0  0  0  0  0  0  0  0  0  0  0
    4.8917    0.7904   21.1816 H   0  0  0  0  0  0  0  0  0  0  0  0
    4.7775    1.3230   19.0712 C   0  0  0  0  0  0  0  0  0  0  0  0
    3.8239    1.8345   19.1242 H   0  0  0  0  0  0  0  0  0  0  0  0
  1  2  1  0
  2  3  2  0
  3  4  1  0
  4  5  1  0
  4  6  2  0
  6  7  1  0
  7  8  1  1
  7  9  1  0
  7 10  1  0
 10 11  1  0
 10 12  1  0
 10 13  1  0
 13 14  1  0
 13 15  1  0
 15 16  2  0
 15 17  1  0
 17 18  1  0
 17 19  1  0
 19 20  2  0
 20 21  1  0
 20 22  1  0
 22 23  1  0
 22 24  2  0
 24 25  1  0
 24 26  1  0
 26 27  1  0
 26 28  2  0
 28 29  1  0
  6 30  1  0
 30 31  1  0
 30 32  2  0
 32 33  1  0
 32  2  1  0
 28 19  1  0
M  END
>  <cnnaffinity>  (1) 
-4.84925

>  <filename>  (1) 
S=C(NC[C@@H](Cl)c1cccnc1)Nc1ccccc1

$$$$
