
     RDKit          3D

 31 32  0  0  0  0  0  0  0  0999 V2000
    4.9147    1.7762   16.9993 H   0  0  0  0  0  0  0  0  0  0  0  0
    5.4049    1.2922   17.8406 C   0  0  0  0  0  0  0  0  0  0  0  0
    6.5687    0.6758   17.5799 N   0  0  0  0  0  0  0  0  0  0  0  0
    7.1812    0.0687   18.5993 C   0  0  0  0  0  0  0  0  0  0  0  0
    8.1233   -0.4290   18.3733 H   0  0  0  0  0  0  0  0  0  0  0  0
    6.6671    0.0195   19.9055 C   0  0  0  0  0  0  0  0  0  0  0  0
    7.3734   -0.7150   20.9831 C   0  0  0  0  0  0  0  0  0  0  0  0
    6.5560   -1.7086   21.9819 S   0  0  0  0  0  0  0  0  0  0  0  0
    8.8442   -0.4411   21.2129 C   0  0  0  0  0  0  0  0  0  0  0  0
    9.3225   -1.3956   21.4515 H   0  0  0  0  0  0  0  0  0  0  0  0
    9.3247   -0.0405   20.3109 H   0  0  0  0  0  0  0  0  0  0  0  0
    9.0669    0.5483   22.3770 C   0  0  0  0  0  0  0  0  0  0  0  0
    8.5213    0.1748   23.2593 H   0  0  0  0  0  0  0  0  0  0  0  0
    8.5326    1.9561   22.0566 C   0  0  0  0  0  0  0  0  0  0  0  0
    7.4471    1.9375   21.8966 H   0  0  0  0  0  0  0  0  0  0  0  0
    8.9832    2.3149   21.1195 H   0  0  0  0  0  0  0  0  0  0  0  0
    8.8818    2.9539   23.1656 C   0  0  0  0  0  0  0  0  0  0  0  0
    8.3401    2.6822   24.0805 H   0  0  0  0  0  0  0  0  0  0  0  0
    8.5458    3.9626   22.8995 H   0  0  0  0  0  0  0  0  0  0  0  0
   10.3130    2.9926   23.4859 N   0  0  0  0  0  0  0  0  0  0  0  0
   10.7914    3.2773   22.6308 H   0  0  0  0  0  0  0  0  0  0  0  0
   10.8182    1.6615   23.8364 C   0  0  0  0  0  0  0  0  0  0  0  0
   10.3273    1.3521   24.7685 H   0  0  0  0  0  0  0  0  0  0  0  0
   11.8885    1.7293   24.0596 H   0  0  0  0  0  0  0  0  0  0  0  0
   10.5547    0.6147   22.7507 C   0  0  0  0  0  0  0  0  0  0  0  0
   10.9087   -0.3712   23.0800 H   0  0  0  0  0  0  0  0  0  0  0  0
   11.1412    0.8840   21.8600 H   0  0  0  0  0  0  0  0  0  0  0  0
    5.4390    0.6563   20.1551 C   0  0  0  0  0  0  0  0  0  0  0  0
    5.0056    0.6290   21.1620 H   0  0  0  0  0  0  0  0  0  0  0  0
    4.8058    1.3130   19.1058 C   0  0  0  0  0  0  0  0  0  0  0  0
    3.8725    1.8442   19.2624 H   0  0  0  0  0  0  0  0  0  0  0  0
  1  2  1  0
  2  3  2  0
  3  4  1  0
  4  5  1  0
  4  6  2  0
  6  7  1  0
  7  8  2  0
  7  9  1  0
  9 10  1  0
  9 11  1  0
  9 12  1  0
 12 13  1  0
 12 14  1  0
 14 15  1  0
 14 16  1  0
 14 17  1  0
 17 18  1  0
 17 19  1  0
 17 20  1  0
 20 21  1  0
 20 22  1  0
 22 23  1  0
 22 24  1  0
 22 25  1  0
 25 26  1  0
 25 27  1  0
  6 28  1  0
 28 29  1  0
 28 30  2  0
 30 31  1  0
 30  2  1  0
 25 12  1  0
M  END
>  <cnnaffinity>  (1) 
-4.68532

>  <filename>  (1) 
S=C(CC1CCNCC1)c1cccnc1

$$$$
