
     RDKit          3D

 28 30  0  0  0  0  0  0  0  0999 V2000
    4.9206    1.8061   16.9651 H   0  0  0  0  0  0  0  0  0  0  0  0
    5.3926    1.3063   17.8116 C   0  0  0  0  0  0  0  0  0  0  0  0
    6.5569    0.6862   17.5585 N   0  0  0  0  0  0  0  0  0  0  0  0
    7.1705    0.0714   18.5773 C   0  0  0  0  0  0  0  0  0  0  0  0
    8.1059   -0.4218   18.3200 H   0  0  0  0  0  0  0  0  0  0  0  0
    6.6669    0.0183   19.8899 C   0  0  0  0  0  0  0  0  0  0  0  0
    7.3409   -0.7025   20.9738 C   0  0  0  0  0  0  0  0  0  0  0  0
    6.8231   -1.2292   22.0995 C   0  0  0  0  0  0  0  0  0  0  0  0
    5.8069   -1.3113   22.4108 H   0  0  0  0  0  0  0  0  0  0  0  0
    7.8445   -1.7868   22.8520 N   0  0  0  0  0  0  0  0  0  0  0  0
    7.6465   -2.4364   24.1001 C   0  0  0  0  0  0  0  0  0  0  0  0
    6.8299   -1.8527   25.0728 C   0  0  0  0  0  0  0  0  0  0  0  0
    6.3334   -0.9047   24.9011 H   0  0  0  0  0  0  0  0  0  0  0  0
    6.6853   -2.5209   26.2861 C   0  0  0  0  0  0  0  0  0  0  0  0
    6.0646   -2.1012   27.0754 H   0  0  0  0  0  0  0  0  0  0  0  0
    7.2704   -3.6917   26.5633 N   0  0  0  0  0  0  0  0  0  0  0  0
    8.0344   -4.2404   25.6091 C   0  0  0  0  0  0  0  0  0  0  0  0
    8.5015   -5.1892   25.8620 H   0  0  0  0  0  0  0  0  0  0  0  0
    8.2547   -3.6628   24.3605 C   0  0  0  0  0  0  0  0  0  0  0  0
    8.8956   -4.1335   23.6252 H   0  0  0  0  0  0  0  0  0  0  0  0
    9.0410   -1.6083   22.1948 C   0  0  0  0  0  0  0  0  0  0  0  0
   10.6085   -1.9844   22.5979 S   0  0  0  0  0  0  0  0  0  0  0  0
    8.6975   -0.9756   21.0402 N   0  0  0  0  0  0  0  0  0  0  0  0
    9.4407   -0.6714   20.4378 H   0  0  0  0  0  0  0  0  0  0  0  0
    5.4416    0.6673   20.1277 C   0  0  0  0  0  0  0  0  0  0  0  0
    5.0098    0.6656   21.1289 H   0  0  0  0  0  0  0  0  0  0  0  0
    4.7988    1.3224   19.0787 C   0  0  0  0  0  0  0  0  0  0  0  0
    3.8632    1.8530   19.2254 H   0  0  0  0  0  0  0  0  0  0  0  0
  1  2  1  0
  2  3  2  0
  3  4  1  0
  4  5  1  0
  4  6  2  0
  6  7  1  0
  7  8  2  0
  8  9  1  0
  8 10  1  0
 10 11  1  0
 11 12  2  0
 12 13  1  0
 12 14  1  0
 14 15  1  0
 14 16  2  0
 16 17  1  0
 17 18  1  0
 17 19  2  0
 19 20  1  0
 10 21  1  0
 21 22  2  0
 21 23  1  0
 23 24  1  0
  6 25  1  0
 25 26  1  0
 25 27  2  0
 27 28  1  0
 27  2  1  0
 23  7  1  0
 19 11  1  0
M  END
>  <cnnaffinity>  (1) 
-5.42921

>  <filename>  (1) 
S=c1[nH]c(-c2cccnc2)cn1-c1ccncc1

$$$$
