
     RDKit          3D

 31 33  0  0  0  0  0  0  0  0999 V2000
    4.9210    1.8112   16.9601 H   0  0  0  0  0  0  0  0  0  0  0  0
    5.3915    1.3095   17.8073 C   0  0  0  0  0  0  0  0  0  0  0  0
    6.5550    0.6878   17.5574 N   0  0  0  0  0  0  0  0  0  0  0  0
    7.1716    0.0744   18.5756 C   0  0  0  0  0  0  0  0  0  0  0  0
    8.1041   -0.4185   18.3106 H   0  0  0  0  0  0  0  0  0  0  0  0
    6.6731    0.0265   19.8905 C   0  0  0  0  0  0  0  0  0  0  0  0
    7.3448   -0.6946   20.9739 C   0  0  0  0  0  0  0  0  0  0  0  0
    6.8079   -1.2382   22.0810 C   0  0  0  0  0  0  0  0  0  0  0  0
    5.7870   -1.3182   22.3844 H   0  0  0  0  0  0  0  0  0  0  0  0
    7.8111   -1.8513   22.8100 N   0  0  0  0  0  0  0  0  0  0  0  0
    7.5997   -2.4865   24.1081 C   0  0  1  0  0  0  0  0  0  0  0  0
    6.5191   -2.3849   24.2894 H   0  0  0  0  0  0  0  0  0  0  0  0
    7.9723   -3.8857   24.0128 N   0  0  0  0  0  0  0  0  0  0  0  0
    8.6745   -3.9034   23.2783 H   0  0  0  0  0  0  0  0  0  0  0  0
    8.5437   -4.2931   25.2965 C   0  0  0  0  0  0  0  0  0  0  0  0
    9.2347   -5.1335   25.1439 H   0  0  0  0  0  0  0  0  0  0  0  0
    7.7503   -4.6529   25.9709 H   0  0  0  0  0  0  0  0  0  0  0  0
    9.2354   -3.0304   25.8456 C   0  0  0  0  0  0  0  0  0  0  0  0
   10.2410   -3.0110   25.4144 H   0  0  0  0  0  0  0  0  0  0  0  0
    9.3201   -3.0086   26.9386 H   0  0  0  0  0  0  0  0  0  0  0  0
    8.4091   -1.8578   25.2737 C   0  0  0  0  0  0  0  0  0  0  0  0
    7.7077   -1.4208   25.9943 H   0  0  0  0  0  0  0  0  0  0  0  0
    9.0459   -1.0367   24.9202 H   0  0  0  0  0  0  0  0  0  0  0  0
    8.9984   -1.6891   22.1744 C   0  0  0  0  0  0  0  0  0  0  0  0
   10.5404   -2.1553   22.5900 S   0  0  0  0  0  0  0  0  0  0  0  0
    8.6981   -1.0012   21.0431 N   0  0  0  0  0  0  0  0  0  0  0  0
    9.4692   -0.7176   20.4617 H   0  0  0  0  0  0  0  0  0  0  0  0
    5.4451    0.6736   20.1243 C   0  0  0  0  0  0  0  0  0  0  0  0
    5.0109    0.6689   21.1231 H   0  0  0  0  0  0  0  0  0  0  0  0
    4.7980    1.3257   19.0737 C   0  0  0  0  0  0  0  0  0  0  0  0
    3.8610    1.8537   19.2178 H   0  0  0  0  0  0  0  0  0  0  0  0
  1  2  1  0
  2  3  2  0
  3  4  1  0
  4  5  1  0
  4  6  2  0
  6  7  1  0
  7  8  2  0
  8  9  1  0
  8 10  1  0
 10 11  1  0
 11 12  1  1
 11 13  1  0
 13 14  1  0
 13 15  1  0
 15 16  1  0
 15 17  1  0
 15 18  1  0
 18 19  1  0
 18 20  1  0
 18 21  1  0
 21 22  1  0
 21 23  1  0
 10 24  1  0
 24 25  2  0
 24 26  1  0
 26 27  1  0
  6 28  1  0
 28 29  1  0
 28 30  2  0
 30 31  1  0
 30  2  1  0
 26  7  1  0
 21 11  1  0
M  END
>  <cnnaffinity>  (1) 
-5.14511

>  <filename>  (1) 
S=c1[nH]c(-c2cccnc2)cn1[C@@H]1CCCN1

$$$$
