
     RDKit          3D

 33 36  0  0  0  0  0  0  0  0999 V2000
    4.9450    1.8502   16.8782 H   0  0  0  0  0  0  0  0  0  0  0  0
    5.4368    1.3479   17.7084 C   0  0  0  0  0  0  0  0  0  0  0  0
    6.5943    0.7250   17.4339 N   0  0  0  0  0  0  0  0  0  0  0  0
    7.2207    0.1013   18.4395 C   0  0  0  0  0  0  0  0  0  0  0  0
    8.1390   -0.4171   18.1692 H   0  0  0  0  0  0  0  0  0  0  0  0
    6.7405    0.0611   19.7583 C   0  0  0  0  0  0  0  0  0  0  0  0
    7.4098   -0.6685   20.8360 C   0  0  0  0  0  0  0  0  0  0  0  0
    6.8549   -1.1936   21.9367 C   0  0  0  0  0  0  0  0  0  0  0  0
    5.8253   -1.1648   22.2356 H   0  0  0  0  0  0  0  0  0  0  0  0
    7.8447   -1.7832   22.7092 N   0  0  0  0  0  0  0  0  0  0  0  0
    7.5433   -2.4894   23.8829 C   0  0  0  0  0  0  0  0  0  0  0  0
    6.3618   -3.0931   24.2108 C   0  0  0  0  0  0  0  0  0  0  0  0
    5.5059   -3.2250   23.5712 H   0  0  0  0  0  0  0  0  0  0  0  0
    6.5091   -3.6426   25.5129 C   0  0  0  0  0  0  0  0  0  0  0  0
    5.6652   -4.3862   26.3663 C   0  0  0  0  0  0  0  0  0  0  0  0
    4.6314   -4.5818   26.0878 H   0  0  0  0  0  0  0  0  0  0  0  0
    6.1888   -4.8801   27.5523 C   0  0  0  0  0  0  0  0  0  0  0  0
    5.5665   -5.4702   28.2180 H   0  0  0  0  0  0  0  0  0  0  0  0
    7.5447   -4.6530   27.8963 C   0  0  0  0  0  0  0  0  0  0  0  0
    7.9511   -5.1241   28.7808 H   0  0  0  0  0  0  0  0  0  0  0  0
    8.3745   -3.8662   27.1073 C   0  0  0  0  0  0  0  0  0  0  0  0
    9.4090   -3.6792   27.3800 H   0  0  0  0  0  0  0  0  0  0  0  0
    7.8435   -3.3601   25.9185 C   0  0  0  0  0  0  0  0  0  0  0  0
    8.4349   -2.6227   24.9130 N   0  0  0  0  0  0  0  0  0  0  0  0
    9.4220   -2.4269   24.8264 H   0  0  0  0  0  0  0  0  0  0  0  0
    9.0665   -1.5984   22.0929 C   0  0  0  0  0  0  0  0  0  0  0  0
   10.6049   -1.9942   22.5836 S   0  0  0  0  0  0  0  0  0  0  0  0
    8.7651   -0.9537   20.9331 N   0  0  0  0  0  0  0  0  0  0  0  0
    9.5157   -0.6754   20.3269 H   0  0  0  0  0  0  0  0  0  0  0  0
    5.5229    0.7148   20.0177 C   0  0  0  0  0  0  0  0  0  0  0  0
    5.1154    0.7174   21.0269 H   0  0  0  0  0  0  0  0  0  0  0  0
    4.8594    1.3605   18.9804 C   0  0  0  0  0  0  0  0  0  0  0  0
    3.9181    1.8691   19.1461 H   0  0  0  0  0  0  0  0  0  0  0  0
  1  2  1  0
  2  3  2  0
  3  4  1  0
  4  5  1  0
  4  6  2  0
  6  7  1  0
  7  8  2  0
  8  9  1  0
  8 10  1  0
 10 11  1  0
 11 12  2  0
 12 13  1  0
 12 14  1  0
 14 15  2  0
 15 16  1  0
 15 17  1  0
 17 18  1  0
 17 19  2  0
 19 20  1  0
 19 21  1  0
 21 22  1  0
 21 23  2  0
 23 24  1  0
 24 25  1  0
 10 26  1  0
 26 27  2  0
 26 28  1  0
 28 29  1  0
  6 30  1  0
 30 31  1  0
 30 32  2  0
 32 33  1  0
 32  2  1  0
 28  7  1  0
 24 11  1  0
 23 14  1  0
M  END
>  <cnnaffinity>  (1) 
-5.39993

>  <filename>  (1) 
S=c1[nH]c(-c2cccnc2)cn1-c1cc2ccccc2[nH]1

$$$$
