
     RDKit          3D

 34 37  0  0  0  0  0  0  0  0999 V2000
    4.9607    1.9776   16.7327 H   0  0  0  0  0  0  0  0  0  0  0  0
    5.4551    1.4480   17.5424 C   0  0  0  0  0  0  0  0  0  0  0  0
    6.5910    0.8111   17.2095 N   0  0  0  0  0  0  0  0  0  0  0  0
    7.2361    0.1539   18.1789 C   0  0  0  0  0  0  0  0  0  0  0  0
    8.1470   -0.3674   17.8758 H   0  0  0  0  0  0  0  0  0  0  0  0
    6.7809    0.0876   19.5088 C   0  0  0  0  0  0  0  0  0  0  0  0
    7.4569   -0.6868   20.5393 C   0  0  0  0  0  0  0  0  0  0  0  0
    6.9417   -1.3396   21.5993 C   0  0  0  0  0  0  0  0  0  0  0  0
    5.9241   -1.4750   21.9266 H   0  0  0  0  0  0  0  0  0  0  0  0
    7.9830   -1.9243   22.3005 N   0  0  0  0  0  0  0  0  0  0  0  0
    7.7267   -2.6735   23.4936 C   0  0  0  0  0  0  0  0  0  0  0  0
    6.9395   -3.8036   23.4344 C   0  0  0  0  0  0  0  0  0  0  0  0
    6.5230   -4.1128   22.4769 H   0  0  0  0  0  0  0  0  0  0  0  0
    6.6136   -4.5786   24.5042 N   0  0  0  0  0  0  0  0  0  0  0  0
    7.0799   -4.2217   25.6844 C   0  0  0  0  0  0  0  0  0  0  0  0
    6.7902   -4.8344   26.5376 H   0  0  0  0  0  0  0  0  0  0  0  0
    7.8916   -3.0621   25.9044 C   0  0  0  0  0  0  0  0  0  0  0  0
    8.4050   -2.6932   27.1862 C   0  0  0  0  0  0  0  0  0  0  0  0
    8.2689   -3.3864   28.0143 H   0  0  0  0  0  0  0  0  0  0  0  0
    9.0307   -1.4775   27.3538 C   0  0  0  0  0  0  0  0  0  0  0  0
    9.4177   -1.1793   28.3251 H   0  0  0  0  0  0  0  0  0  0  0  0
    9.1603   -0.5638   26.2732 C   0  0  0  0  0  0  0  0  0  0  0  0
    9.6013    0.4174   26.4530 H   0  0  0  0  0  0  0  0  0  0  0  0
    8.7253   -0.9218   25.0144 C   0  0  0  0  0  0  0  0  0  0  0  0
    8.7965   -0.2290   24.1826 H   0  0  0  0  0  0  0  0  0  0  0  0
    8.1421   -2.2071   24.7875 C   0  0  0  0  0  0  0  0  0  0  0  0
    9.1853   -1.6352   21.6719 C   0  0  0  0  0  0  0  0  0  0  0  0
   10.7590   -1.9976   22.0501 S   0  0  0  0  0  0  0  0  0  0  0  0
    8.8208   -0.8982   20.5881 N   0  0  0  0  0  0  0  0  0  0  0  0
    9.5530   -0.4596   20.0553 H   0  0  0  0  0  0  0  0  0  0  0  0
    5.5934    0.7614   19.8380 C   0  0  0  0  0  0  0  0  0  0  0  0
    5.2345    0.7520   20.8696 H   0  0  0  0  0  0  0  0  0  0  0  0
    4.9175    1.4468   18.8344 C   0  0  0  0  0  0  0  0  0  0  0  0
    3.9957    1.9791   19.0371 H   0  0  0  0  0  0  0  0  0  0  0  0
  1  2  1  0
  2  3  2  0
  3  4  1  0
  4  5  1  0
  4  6  2  0
  6  7  1  0
  7  8  2  0
  8  9  1  0
  8 10  1  0
 10 11  1  0
 11 12  2  0
 12 13  1  0
 12 14  1  0
 14 15  2  0
 15 16  1  0
 15 17  1  0
 17 18  2  0
 18 19  1  0
 18 20  1  0
 20 21  1  0
 20 22  2  0
 22 23  1  0
 22 24  1  0
 24 25  1  0
 24 26  2  0
 10 27  1  0
 27 28  2  0
 27 29  1  0
 29 30  1  0
  6 31  1  0
 31 32  1  0
 31 33  2  0
 33 34  1  0
 33  2  1  0
 29  7  1  0
 26 11  1  0
 26 17  1  0
M  END
>  <cnnaffinity>  (1) 
-5.74346

>  <filename>  (1) 
S=c1[nH]c(-c2cccnc2)cn1-c1cncc2ccccc12

$$$$
