
     RDKit          3D

 36 38  0  0  0  0  0  0  0  0999 V2000
    4.9422    1.8067   17.0007 H   0  0  0  0  0  0  0  0  0  0  0  0
    5.4325    1.3031   17.8318 C   0  0  0  0  0  0  0  0  0  0  0  0
    6.5893    0.6823   17.5535 N   0  0  0  0  0  0  0  0  0  0  0  0
    7.2112    0.0533   18.5587 C   0  0  0  0  0  0  0  0  0  0  0  0
    8.1510   -0.4421   18.3267 H   0  0  0  0  0  0  0  0  0  0  0  0
    6.7221    0.0087   19.8780 C   0  0  0  0  0  0  0  0  0  0  0  0
    7.4442   -0.6657   20.9317 N   0  0  0  0  0  0  0  0  0  0  0  0
    8.6499   -0.3193   21.5288 C   0  0  0  0  0  0  0  0  0  0  0  0
    9.4171    0.6745   20.9875 N   0  0  0  0  0  0  0  0  0  0  0  0
    8.7757    1.3184   20.5469 H   0  0  0  0  0  0  0  0  0  0  0  0
   10.3556    1.3701   21.8689 C   0  0  0  0  0  0  0  0  0  0  0  0
   10.8967    2.1004   21.2558 H   0  0  0  0  0  0  0  0  0  0  0  0
   11.0984    0.6541   22.2386 H   0  0  0  0  0  0  0  0  0  0  0  0
    9.6756    2.0648   23.0665 C   0  0  0  0  0  0  0  0  0  0  0  0
    9.2182    1.2674   23.6628 H   0  0  0  0  0  0  0  0  0  0  0  0
   10.4668    2.5341   23.6613 H   0  0  0  0  0  0  0  0  0  0  0  0
    8.6327    3.0991   22.6890 C   0  0  0  0  0  0  0  0  0  0  0  0
    7.2763    2.7621   22.5207 C   0  0  0  0  0  0  0  0  0  0  0  0
    6.9270    1.7672   22.8073 H   0  0  0  0  0  0  0  0  0  0  0  0
    6.3754    3.6810   21.9681 C   0  0  0  0  0  0  0  0  0  0  0  0
    5.3297    3.4142   21.8360 H   0  0  0  0  0  0  0  0  0  0  0  0
    6.8125    4.9587   21.5903 C   0  0  0  0  0  0  0  0  0  0  0  0
    6.1298    5.6500   21.1023 H   0  0  0  0  0  0  0  0  0  0  0  0
    8.1373    5.3306   21.8233 C   0  0  0  0  0  0  0  0  0  0  0  0
    8.4980    6.3159   21.5258 H   0  0  0  0  0  0  0  0  0  0  0  0
    9.0236    4.4233   22.4143 C   0  0  0  0  0  0  0  0  0  0  0  0
   10.0402    4.7491   22.6268 H   0  0  0  0  0  0  0  0  0  0  0  0
    8.9174   -1.0355   22.5821 N   0  0  0  0  0  0  0  0  0  0  0  0
    7.8205   -1.8656   22.6664 N   0  0  0  0  0  0  0  0  0  0  0  0
    7.7515   -2.6146   23.3387 H   0  0  0  0  0  0  0  0  0  0  0  0
    6.9364   -1.7245   21.6663 C   0  0  0  0  0  0  0  0  0  0  0  0
    5.6045   -2.6772   21.3720 S   0  0  0  0  0  0  0  0  0  0  0  0
    5.4961    0.6223   20.1472 C   0  0  0  0  0  0  0  0  0  0  0  0
    5.0580    0.5722   21.1475 H   0  0  0  0  0  0  0  0  0  0  0  0
    4.8519    1.2966   19.1031 C   0  0  0  0  0  0  0  0  0  0  0  0
    3.9108    1.8104   19.2588 H   0  0  0  0  0  0  0  0  0  0  0  0
  1  2  1  0
  2  3  2  0
  3  4  1  0
  4  5  1  0
  4  6  2  0
  6  7  1  0
  7  8  1  0
  8  9  1  0
  9 10  1  0
  9 11  1  0
 11 12  1  0
 11 13  1  0
 11 14  1  0
 14 15  1  0
 14 16  1  0
 14 17  1  0
 17 18  2  0
 18 19  1  0
 18 20  1  0
 20 21  1  0
 20 22  2  0
 22 23  1  0
 22 24  1  0
 24 25  1  0
 24 26  2  0
 26 27  1  0
  8 28  2  0
 28 29  1  0
 29 30  1  0
 29 31  1  0
 31 32  2  0
  6 33  1  0
 33 34  1  0
 33 35  2  0
 35 36  1  0
 35  2  1  0
 31  7  1  0
 26 17  1  0
M  END
>  <cnnaffinity>  (1) 
-5.20736

>  <filename>  (1) 
S=c1[nH]nc(NCCc2ccccc2)n1-c1cccnc1

$$$$
