
     RDKit          3D

 29 31  0  0  0  0  0  0  0  0999 V2000
    4.9167    1.8027   16.9685 H   0  0  0  0  0  0  0  0  0  0  0  0
    5.3904    1.3052   17.8142 C   0  0  0  0  0  0  0  0  0  0  0  0
    6.5552    0.6871   17.5569 N   0  0  0  0  0  0  0  0  0  0  0  0
    7.1700    0.0749   18.5772 C   0  0  0  0  0  0  0  0  0  0  0  0
    8.1060   -0.4201   18.3243 H   0  0  0  0  0  0  0  0  0  0  0  0
    6.6686    0.0255   19.8915 C   0  0  0  0  0  0  0  0  0  0  0  0
    7.3457   -0.6866   20.9792 C   0  0  0  0  0  0  0  0  0  0  0  0
    6.8258   -1.2055   22.1090 C   0  0  0  0  0  0  0  0  0  0  0  0
    5.8102   -1.2997   22.4142 H   0  0  0  0  0  0  0  0  0  0  0  0
    7.8441   -1.7894   22.8456 N   0  0  0  0  0  0  0  0  0  0  0  0
    7.6554   -2.4326   24.1013 C   0  0  0  0  0  0  0  0  0  0  0  0
    8.3428   -1.9410   25.2213 C   0  0  0  0  0  0  0  0  0  0  0  0
    9.0054   -1.0920   25.0729 H   0  0  0  0  0  0  0  0  0  0  0  0
    8.1939   -2.5392   26.4749 C   0  0  0  0  0  0  0  0  0  0  0  0
    8.7356   -2.1623   27.3335 H   0  0  0  0  0  0  0  0  0  0  0  0
    7.3549   -3.6498   26.5956 C   0  0  0  0  0  0  0  0  0  0  0  0
    7.1910   -4.5150   28.0899 Cl  0  0  0  0  0  0  0  0  0  0  0  0
    6.6462   -4.1397   25.5037 C   0  0  0  0  0  0  0  0  0  0  0  0
    5.9893   -4.9901   25.6311 H   0  0  0  0  0  0  0  0  0  0  0  0
    6.7938   -3.5401   24.2547 C   0  0  0  0  0  0  0  0  0  0  0  0
    5.9086   -4.2476   22.9374 Cl  0  0  0  0  0  0  0  0  0  0  0  0
    9.0372   -1.6435   22.1713 C   0  0  0  0  0  0  0  0  0  0  0  0
   10.5735   -2.1242   22.5602 S   0  0  0  0  0  0  0  0  0  0  0  0
    8.6952   -0.9890   21.0276 N   0  0  0  0  0  0  0  0  0  0  0  0
    9.4272   -0.7043   20.4004 H   0  0  0  0  0  0  0  0  0  0  0  0
    5.4396    0.6674   20.1326 C   0  0  0  0  0  0  0  0  0  0  0  0
    5.0119    0.6614   21.1351 H   0  0  0  0  0  0  0  0  0  0  0  0
    4.7967    1.3223   19.0811 C   0  0  0  0  0  0  0  0  0  0  0  0
    3.8628    1.8522   19.2317 H   0  0  0  0  0  0  0  0  0  0  0  0
  1  2  1  0
  2  3  2  0
  3  4  1  0
  4  5  1  0
  4  6  2  0
  6  7  1  0
  7  8  2  0
  8  9  1  0
  8 10  1  0
 10 11  1  0
 11 12  2  0
 12 13  1  0
 12 14  1  0
 14 15  1  0
 14 16  2  0
 16 17  1  0
 16 18  1  0
 18 19  1  0
 18 20  2  0
 20 21  1  0
 10 22  1  0
 22 23  2  0
 22 24  1  0
 24 25  1  0
  6 26  1  0
 26 27  1  0
 26 28  2  0
 28 29  1  0
 28  2  1  0
 24  7  1  0
 20 11  1  0
M  END
>  <cnnaffinity>  (1) 
-5.92165

>  <filename>  (1) 
S=c1[nH]c(-c2cccnc2)cn1-c1ccc(Cl)cc1Cl

$$$$
