
     RDKit          3D

 32 34  0  0  0  0  0  0  0  0999 V2000
    4.9305    1.7954   16.9963 H   0  0  0  0  0  0  0  0  0  0  0  0
    5.3966    1.2899   17.8369 C   0  0  0  0  0  0  0  0  0  0  0  0
    6.5518    0.6610   17.5707 N   0  0  0  0  0  0  0  0  0  0  0  0
    7.1728    0.0446   18.5815 C   0  0  0  0  0  0  0  0  0  0  0  0
    8.1257   -0.4301   18.3554 H   0  0  0  0  0  0  0  0  0  0  0  0
    6.6542   -0.0000   19.8922 C   0  0  0  0  0  0  0  0  0  0  0  0
    7.3343   -0.6777   20.9446 N   0  0  0  0  0  0  0  0  0  0  0  0
    6.7357   -1.6038   21.7951 C   0  0  0  0  0  0  0  0  0  0  0  0
    5.6828   -1.8169   21.7179 H   0  0  0  0  0  0  0  0  0  0  0  0
    7.6761   -2.0565   22.6584 C   0  0  0  0  0  0  0  0  0  0  0  0
    7.5359   -2.9096   23.8768 C   0  0  0  0  0  0  0  0  0  0  0  0
    6.7524   -3.6515   23.6958 H   0  0  0  0  0  0  0  0  0  0  0  0
    8.4539   -3.4779   24.0670 H   0  0  0  0  0  0  0  0  0  0  0  0
    7.1678   -2.0710   25.0925 C   0  0  0  0  0  0  0  0  0  0  0  0
    8.1586   -1.5395   25.9267 C   0  0  0  0  0  0  0  0  0  0  0  0
    9.2035   -1.7625   25.7231 H   0  0  0  0  0  0  0  0  0  0  0  0
    7.8263   -0.7125   27.0028 C   0  0  0  0  0  0  0  0  0  0  0  0
    8.5888   -0.3057   27.6632 H   0  0  0  0  0  0  0  0  0  0  0  0
    6.4857   -0.3947   27.2530 C   0  0  0  0  0  0  0  0  0  0  0  0
    6.1135    0.6065   28.6172 Cl  0  0  0  0  0  0  0  0  0  0  0  0
    5.4833   -0.8985   26.4059 C   0  0  0  0  0  0  0  0  0  0  0  0
    3.8067   -0.5291   26.6478 Cl  0  0  0  0  0  0  0  0  0  0  0  0
    5.8321   -1.7302   25.3377 C   0  0  0  0  0  0  0  0  0  0  0  0
    5.0330   -2.0945   24.6989 H   0  0  0  0  0  0  0  0  0  0  0  0
    8.8386   -1.3889   22.3188 N   0  0  0  0  0  0  0  0  0  0  0  0
    9.7516   -1.3888   22.7454 H   0  0  0  0  0  0  0  0  0  0  0  0
    8.6523   -0.5041   21.3105 C   0  0  0  0  0  0  0  0  0  0  0  0
    9.8215    0.5427   20.7773 S   0  0  0  0  0  0  0  0  0  0  0  0
    5.4427    0.6449   20.1575 C   0  0  0  0  0  0  0  0  0  0  0  0
    5.0422    0.6282   21.1742 H   0  0  0  0  0  0  0  0  0  0  0  0
    4.8076    1.3099   19.1058 C   0  0  0  0  0  0  0  0  0  0  0  0
    3.8783    1.8424   19.2586 H   0  0  0  0  0  0  0  0  0  0  0  0
  1  2  1  0
  2  3  2  0
  3  4  1  0
  4  5  1  0
  4  6  2  0
  6  7  1  0
  7  8  1  0
  8  9  1  0
  8 10  2  0
 10 11  1  0
 11 12  1  0
 11 13  1  0
 11 14  1  0
 14 15  2  0
 15 16  1  0
 15 17  1  0
 17 18  1  0
 17 19  2  0
 19 20  1  0
 19 21  1  0
 21 22  1  0
 21 23  2  0
 23 24  1  0
 10 25  1  0
 25 26  1  0
 25 27  1  0
 27 28  2  0
  6 29  1  0
 29 30  1  0
 29 31  2  0
 31 32  1  0
 31  2  1  0
 27  7  1  0
 23 14  1  0
M  END
>  <cnnaffinity>  (1) 
-5.81264

>  <filename>  (1) 
S=c1[nH]c(Cc2ccc(Cl)c(Cl)c2)cn1-c1cccnc1

$$$$
