
     RDKit          3D

 33 36  0  0  0  0  0  0  0  0999 V2000
    4.9295    1.8046   16.9914 H   0  0  0  0  0  0  0  0  0  0  0  0
    5.3917    1.2931   17.8270 C   0  0  0  0  0  0  0  0  0  0  0  0
    6.5459    0.6638   17.5527 N   0  0  0  0  0  0  0  0  0  0  0  0
    7.1717    0.0523   18.5645 C   0  0  0  0  0  0  0  0  0  0  0  0
    8.1255   -0.4301   18.3478 H   0  0  0  0  0  0  0  0  0  0  0  0
    6.6558    0.0193   19.8744 C   0  0  0  0  0  0  0  0  0  0  0  0
    7.3441   -0.6512   20.9258 N   0  0  0  0  0  0  0  0  0  0  0  0
    6.7525   -1.5733   21.7670 C   0  0  0  0  0  0  0  0  0  0  0  0
    5.7021   -1.7968   21.6795 H   0  0  0  0  0  0  0  0  0  0  0  0
    7.6897   -2.0383   22.6314 C   0  0  0  0  0  0  0  0  0  0  0  0
    7.5253   -2.9745   23.7145 C   0  0  0  0  0  0  0  0  0  0  0  0
    6.3611   -3.6001   24.0841 C   0  0  0  0  0  0  0  0  0  0  0  0
    5.4032   -3.4531   23.6060 H   0  0  0  0  0  0  0  0  0  0  0  0
    6.6411   -4.4417   25.1968 C   0  0  0  0  0  0  0  0  0  0  0  0
    5.8552   -5.3166   25.9809 C   0  0  0  0  0  0  0  0  0  0  0  0
    4.7972   -5.4237   25.7509 H   0  0  0  0  0  0  0  0  0  0  0  0
    6.4596   -6.0102   27.0203 C   0  0  0  0  0  0  0  0  0  0  0  0
    5.8666   -6.6890   27.6273 H   0  0  0  0  0  0  0  0  0  0  0  0
    7.8414   -5.8464   27.2984 C   0  0  0  0  0  0  0  0  0  0  0  0
    8.2856   -6.4085   28.1177 H   0  0  0  0  0  0  0  0  0  0  0  0
    8.6357   -4.9885   26.5418 C   0  0  0  0  0  0  0  0  0  0  0  0
    9.6944   -4.8728   26.7630 H   0  0  0  0  0  0  0  0  0  0  0  0
    8.0229   -4.2878   25.4855 C   0  0  0  0  0  0  0  0  0  0  0  0
    8.5323   -3.3911   24.5721 N   0  0  0  0  0  0  0  0  0  0  0  0
    9.4911   -3.0928   24.5500 H   0  0  0  0  0  0  0  0  0  0  0  0
    8.8628   -1.3724   22.2875 N   0  0  0  0  0  0  0  0  0  0  0  0
    9.7868   -1.3773   22.6858 H   0  0  0  0  0  0  0  0  0  0  0  0
    8.6638   -0.4825   21.2907 C   0  0  0  0  0  0  0  0  0  0  0  0
    9.8156    0.5859   20.7747 S   0  0  0  0  0  0  0  0  0  0  0  0
    5.4408    0.6534   20.1452 C   0  0  0  0  0  0  0  0  0  0  0  0
    5.0455    0.6322   21.1645 H   0  0  0  0  0  0  0  0  0  0  0  0
    4.8003    1.3148   19.0963 C   0  0  0  0  0  0  0  0  0  0  0  0
    3.8698    1.8482   19.2537 H   0  0  0  0  0  0  0  0  0  0  0  0
  1  2  1  0
  2  3  2  0
  3  4  1  0
  4  5  1  0
  4  6  2  0
  6  7  1  0
  7  8  1  0
  8  9  1  0
  8 10  2  0
 10 11  1  0
 11 12  2  0
 12 13  1  0
 12 14  1  0
 14 15  2  0
 15 16  1  0
 15 17  1  0
 17 18  1  0
 17 19  2  0
 19 20  1  0
 19 21  1  0
 21 22  1  0
 21 23  2  0
 23 24  1  0
 24 25  1  0
 10 26  1  0
 26 27  1  0
 26 28  1  0
 28 29  2  0
  6 30  1  0
 30 31  1  0
 30 32  2  0
 32 33  1  0
 32  2  1  0
 28  7  1  0
 24 11  1  0
 23 14  1  0
M  END
>  <cnnaffinity>  (1) 
-5.71678

>  <filename>  (1) 
S=c1[nH]c(-c2cc3ccccc3[nH]2)cn1-c1cccnc1

$$$$
