
     RDKit          3D

 35 37  0  0  0  0  0  0  0  0999 V2000
    8.5630    1.0292   21.7528 H   0  0  0  0  0  0  0  0  0  0  0  0
    7.8779    0.2498   22.0387 C   0  0  0  0  0  0  0  0  0  0  0  0
    7.2882    0.2751   23.2462 C   0  0  0  0  0  0  0  0  0  0  0  0
    7.4645    1.4338   24.2025 C   0  0  0  0  0  0  0  0  0  0  0  0
    8.5367    1.5288   24.4356 H   0  0  0  0  0  0  0  0  0  0  0  0
    6.9575    1.2220   25.1481 H   0  0  0  0  0  0  0  0  0  0  0  0
    6.9833    2.7692   23.6256 C   0  0  0  0  0  0  0  0  0  0  0  0
    7.8829    3.6395   22.9802 C   0  0  0  0  0  0  0  0  0  0  0  0
    8.9373    3.3759   22.9334 H   0  0  0  0  0  0  0  0  0  0  0  0
    7.4676    4.8448   22.4075 C   0  0  0  0  0  0  0  0  0  0  0  0
    8.1894    5.4863   21.9070 H   0  0  0  0  0  0  0  0  0  0  0  0
    6.1228    5.2150   22.4752 C   0  0  0  0  0  0  0  0  0  0  0  0
    5.7916    6.1447   22.0178 H   0  0  0  0  0  0  0  0  0  0  0  0
    5.2013    4.3791   23.1113 C   0  0  0  0  0  0  0  0  0  0  0  0
    4.1531    4.6567   23.1712 H   0  0  0  0  0  0  0  0  0  0  0  0
    5.6340    3.1703   23.6714 C   0  0  0  0  0  0  0  0  0  0  0  0
    4.4337    2.1541   24.4406 Cl  0  0  0  0  0  0  0  0  0  0  0  0
    6.5163   -0.8352   23.5934 N   0  0  0  0  0  0  0  0  0  0  0  0
    5.8099   -0.8165   24.3139 H   0  0  0  0  0  0  0  0  0  0  0  0
    6.3333   -1.9345   22.7988 C   0  0  0  0  0  0  0  0  0  0  0  0
    5.4992   -3.2645   23.3559 S   0  0  0  0  0  0  0  0  0  0  0  0
    6.8149   -1.8606   21.5466 N   0  0  0  0  0  0  0  0  0  0  0  0
    6.4035   -2.5440   20.9372 H   0  0  0  0  0  0  0  0  0  0  0  0
    7.4958   -0.6985   20.9698 C   0  0  1  0  0  0  0  0  0  0  0  0
    8.4124   -1.0525   20.4619 H   0  0  0  0  0  0  0  0  0  0  0  0
    6.6551   -0.0142   19.8784 C   0  0  0  0  0  0  0  0  0  0  0  0
    7.1579    0.0419   18.5737 C   0  0  0  0  0  0  0  0  0  0  0  0
    8.1127   -0.4352   18.3442 H   0  0  0  0  0  0  0  0  0  0  0  0
    6.5591    0.6664   17.5517 N   0  0  0  0  0  0  0  0  0  0  0  0
    5.4015    1.2893   17.8181 C   0  0  0  0  0  0  0  0  0  0  0  0
    4.9363    1.8085   16.9828 H   0  0  0  0  0  0  0  0  0  0  0  0
    4.8002    1.2949   19.0827 C   0  0  0  0  0  0  0  0  0  0  0  0
    3.8711    1.8381   19.2257 H   0  0  0  0  0  0  0  0  0  0  0  0
    5.4367    0.6329   20.1358 C   0  0  0  0  0  0  0  0  0  0  0  0
    4.9987    0.6449   21.1380 H   0  0  0  0  0  0  0  0  0  0  0  0
  1  2  1  0
  2  3  2  0
  3  4  1  0
  4  5  1  0
  4  6  1  0
  4  7  1  0
  7  8  2  0
  8  9  1  0
  8 10  1  0
 10 11  1  0
 10 12  2  0
 12 13  1  0
 12 14  1  0
 14 15  1  0
 14 16  2  0
 16 17  1  0
  3 18  1  0
 18 19  1  0
 18 20  1  0
 20 21  2  0
 20 22  1  0
 22 23  1  0
 22 24  1  0
 24 25  1  6
 24 26  1  0
 26 27  2  0
 27 28  1  0
 27 29  1  0
 29 30  2  0
 30 31  1  0
 30 32  1  0
 32 33  1  0
 32 34  2  0
 34 35  1  0
 24  2  1  0
 34 26  1  0
 16  7  1  0
M  END
>  <cnnaffinity>  (1) 
-5.15113

>  <filename>  (1) 
S=C1NC(Cc2ccccc2Cl)=C[C@H](c2cccnc2)N1

$$$$
