
     RDKit          3D

 35 37  0  0  0  0  0  0  0  0999 V2000
    8.6017    1.0954   21.6862 H   0  0  0  0  0  0  0  0  0  0  0  0
    7.9395    0.2982   21.9916 C   0  0  0  0  0  0  0  0  0  0  0  0
    7.3659    0.2576   23.2111 C   0  0  0  0  0  0  0  0  0  0  0  0
    7.3979    1.3646   24.2316 C   0  0  0  0  0  0  0  0  0  0  0  0
    7.1262    0.9646   25.2191 H   0  0  0  0  0  0  0  0  0  0  0  0
    8.4315    1.7128   24.3140 H   0  0  0  0  0  0  0  0  0  0  0  0
    6.5101    2.5478   23.8619 C   0  0  0  0  0  0  0  0  0  0  0  0
    6.9517    3.5224   22.9507 C   0  0  0  0  0  0  0  0  0  0  0  0
    7.9557    3.4596   22.5331 H   0  0  0  0  0  0  0  0  0  0  0  0
    6.1235    4.5908   22.5939 C   0  0  0  0  0  0  0  0  0  0  0  0
    6.4744    5.3457   21.8922 H   0  0  0  0  0  0  0  0  0  0  0  0
    4.8420    4.7036   23.1439 C   0  0  0  0  0  0  0  0  0  0  0  0
    4.1897    5.5327   22.8888 H   0  0  0  0  0  0  0  0  0  0  0  0
    4.4092    3.7380   24.0545 C   0  0  0  0  0  0  0  0  0  0  0  0
    2.8309    3.8842   24.7753 Cl  0  0  0  0  0  0  0  0  0  0  0  0
    5.2288    2.6660   24.4156 C   0  0  0  0  0  0  0  0  0  0  0  0
    4.8753    1.9391   25.1416 H   0  0  0  0  0  0  0  0  0  0  0  0
    6.6350   -0.8818   23.5398 N   0  0  0  0  0  0  0  0  0  0  0  0
    6.2337   -1.0443   24.4532 H   0  0  0  0  0  0  0  0  0  0  0  0
    6.4558   -1.9586   22.7324 C   0  0  0  0  0  0  0  0  0  0  0  0
    5.6498   -3.3155   23.2546 S   0  0  0  0  0  0  0  0  0  0  0  0
    6.9514   -1.8591   21.4881 N   0  0  0  0  0  0  0  0  0  0  0  0
    6.5923   -2.5727   20.8803 H   0  0  0  0  0  0  0  0  0  0  0  0
    7.5711   -0.6677   20.9191 C   0  0  1  0  0  0  0  0  0  0  0  0
    8.4899   -1.0067   20.4136 H   0  0  0  0  0  0  0  0  0  0  0  0
    6.6874   -0.0351   19.8361 C   0  0  0  0  0  0  0  0  0  0  0  0
    7.1652    0.0102   18.5229 C   0  0  0  0  0  0  0  0  0  0  0  0
    8.1046   -0.4851   18.2802 H   0  0  0  0  0  0  0  0  0  0  0  0
    6.5613    0.6481   17.5120 N   0  0  0  0  0  0  0  0  0  0  0  0
    5.4127    1.2771   17.7962 C   0  0  0  0  0  0  0  0  0  0  0  0
    4.9474    1.8147   16.9701 H   0  0  0  0  0  0  0  0  0  0  0  0
    4.8167    1.2607   19.0643 C   0  0  0  0  0  0  0  0  0  0  0  0
    3.8859    1.7935   19.2215 H   0  0  0  0  0  0  0  0  0  0  0  0
    5.4612    0.5881   20.1075 C   0  0  0  0  0  0  0  0  0  0  0  0
    5.0348    0.5745   21.1147 H   0  0  0  0  0  0  0  0  0  0  0  0
  1  2  1  0
  2  3  2  0
  3  4  1  0
  4  5  1  0
  4  6  1  0
  4  7  1  0
  7  8  2  0
  8  9  1  0
  8 10  1  0
 10 11  1  0
 10 12  2  0
 12 13  1  0
 12 14  1  0
 14 15  1  0
 14 16  2  0
 16 17  1  0
  3 18  1  0
 18 19  1  0
 18 20  1  0
 20 21  2  0
 20 22  1  0
 22 23  1  0
 22 24  1  0
 24 25  1  6
 24 26  1  0
 26 27  2  0
 27 28  1  0
 27 29  1  0
 29 30  2  0
 30 31  1  0
 30 32  1  0
 32 33  1  0
 32 34  2  0
 34 35  1  0
 24  2  1  0
 34 26  1  0
 16  7  1  0
M  END
>  <cnnaffinity>  (1) 
-4.94139

>  <filename>  (1) 
S=C1NC(Cc2cccc(Cl)c2)=C[C@H](c2cccnc2)N1

$$$$
