
     RDKit          3D

 34 37  0  0  0  0  0  0  0  0999 V2000
    5.0946    1.9727   16.5137 H   0  0  0  0  0  0  0  0  0  0  0  0
    5.5162    1.4588   17.3782 C   0  0  0  0  0  0  0  0  0  0  0  0
    6.6453    0.7639   17.1658 N   0  0  0  0  0  0  0  0  0  0  0  0
    7.1935    0.1252   18.2089 C   0  0  0  0  0  0  0  0  0  0  0  0
    8.1056   -0.4200   17.9695 H   0  0  0  0  0  0  0  0  0  0  0  0
    6.6543    0.1107   19.5129 C   0  0  0  0  0  0  0  0  0  0  0  0
    7.2755   -0.6217   20.6414 C   0  0  0  0  0  0  0  0  0  0  0  0
    6.7284   -1.2089   21.7285 C   0  0  0  0  0  0  0  0  0  0  0  0
    5.6900   -1.3988   21.9375 H   0  0  0  0  0  0  0  0  0  0  0  0
    7.7590   -1.6386   22.5768 N   0  0  0  0  0  0  0  0  0  0  0  0
    7.6395   -2.3147   23.8192 C   0  0  0  0  0  0  0  0  0  0  0  0
    8.5246   -3.2366   24.0608 N   0  0  0  0  0  0  0  0  0  0  0  0
    8.4725   -3.8834   25.2596 C   0  0  0  0  0  0  0  0  0  0  0  0
    9.5859   -4.7071   25.5851 C   0  0  0  0  0  0  0  0  0  0  0  0
   10.4051   -4.7431   24.8712 H   0  0  0  0  0  0  0  0  0  0  0  0
    9.6310   -5.3703   26.7881 C   0  0  0  0  0  0  0  0  0  0  0  0
   10.5164   -5.9455   27.0559 H   0  0  0  0  0  0  0  0  0  0  0  0
    8.5337   -5.2841   27.6940 C   0  0  0  0  0  0  0  0  0  0  0  0
    8.5740   -5.8501   28.6227 H   0  0  0  0  0  0  0  0  0  0  0  0
    7.4473   -4.4808   27.4116 C   0  0  0  0  0  0  0  0  0  0  0  0
    6.6136   -4.3893   28.1083 H   0  0  0  0  0  0  0  0  0  0  0  0
    7.4124   -3.7150   26.2058 C   0  0  0  0  0  0  0  0  0  0  0  0
    6.4463   -2.7008   25.8959 C   0  0  0  0  0  0  0  0  0  0  0  0
    5.6419   -2.4848   26.6022 H   0  0  0  0  0  0  0  0  0  0  0  0
    6.5731   -1.9947   24.7209 C   0  0  0  0  0  0  0  0  0  0  0  0
    5.8980   -1.1940   24.4582 H   0  0  0  0  0  0  0  0  0  0  0  0
    8.9763   -1.2878   22.0234 C   0  0  0  0  0  0  0  0  0  0  0  0
   10.5320   -1.3214   22.5907 S   0  0  0  0  0  0  0  0  0  0  0  0
    8.6446   -0.7470   20.8141 N   0  0  0  0  0  0  0  0  0  0  0  0
    9.3926   -0.3527   20.2712 H   0  0  0  0  0  0  0  0  0  0  0  0
    5.4680    0.8477   19.7032 C   0  0  0  0  0  0  0  0  0  0  0  0
    5.0214    0.9035   20.6959 H   0  0  0  0  0  0  0  0  0  0  0  0
    4.8927    1.5263   18.6266 C   0  0  0  0  0  0  0  0  0  0  0  0
    3.9916    2.1243   18.7317 H   0  0  0  0  0  0  0  0  0  0  0  0
  1  2  1  0
  2  3  2  0
  3  4  1  0
  4  5  1  0
  4  6  2  0
  6  7  1  0
  7  8  2  0
  8  9  1  0
  8 10  1  0
 10 11  1  0
 11 12  2  0
 12 13  1  0
 13 14  2  0
 14 15  1  0
 14 16  1  0
 16 17  1  0
 16 18  2  0
 18 19  1  0
 18 20  1  0
 20 21  1  0
 20 22  2  0
 22 23  1  0
 23 24  1  0
 23 25  2  0
 25 26  1  0
 10 27  1  0
 27 28  2  0
 27 29  1  0
 29 30  1  0
  6 31  1  0
 31 32  1  0
 31 33  2  0
 33 34  1  0
 33  2  1  0
 29  7  1  0
 25 11  1  0
 22 13  1  0
M  END
>  <cnnaffinity>  (1) 
-5.50643

>  <filename>  (1) 
S=c1[nH]c(-c2cccnc2)cn1-c1ccc2ccccc2n1

$$$$
