
     RDKit          3D

 32 34  0  0  0  0  0  0  0  0999 V2000
    4.9187    1.7376   16.8573 H   0  0  0  0  0  0  0  0  0  0  0  0
    5.3698    1.3452   17.7680 C   0  0  0  0  0  0  0  0  0  0  0  0
    6.5519    0.7282   17.6158 N   0  0  0  0  0  0  0  0  0  0  0  0
    7.1224    0.1944   18.6991 C   0  0  0  0  0  0  0  0  0  0  0  0
    8.0650   -0.3378   18.5511 H   0  0  0  0  0  0  0  0  0  0  0  0
    6.5541    0.2617   19.9888 C   0  0  0  0  0  0  0  0  0  0  0  0
    7.1712   -0.4234   21.0805 N   0  0  0  0  0  0  0  0  0  0  0  0
    7.5324   -1.7627   21.0121 C   0  0  0  0  0  0  0  0  0  0  0  0
    7.1979   -2.3850   20.1947 H   0  0  0  0  0  0  0  0  0  0  0  0
    8.2118   -2.0848   22.1356 C   0  0  0  0  0  0  0  0  0  0  0  0
    8.8245   -3.4010   22.4809 C   0  0  0  0  0  0  0  0  0  0  0  0
    8.9534   -3.8977   21.5202 H   0  0  0  0  0  0  0  0  0  0  0  0
    9.8273   -3.2512   22.8991 H   0  0  0  0  0  0  0  0  0  0  0  0
    7.9964   -4.3040   23.3827 C   0  0  0  0  0  0  0  0  0  0  0  0
    8.1992   -4.2816   24.7713 C   0  0  0  0  0  0  0  0  0  0  0  0
    9.0188   -3.6847   25.1596 H   0  0  0  0  0  0  0  0  0  0  0  0
    7.4014   -5.0216   25.6468 C   0  0  0  0  0  0  0  0  0  0  0  0
    7.5783   -4.9633   26.7179 H   0  0  0  0  0  0  0  0  0  0  0  0
    6.3732   -5.8169   25.1410 C   0  0  0  0  0  0  0  0  0  0  0  0
    5.7366   -6.3818   25.8174 H   0  0  0  0  0  0  0  0  0  0  0  0
    6.1852   -5.9129   23.7585 C   0  0  0  0  0  0  0  0  0  0  0  0
    5.4166   -6.5551   23.3445 H   0  0  0  0  0  0  0  0  0  0  0  0
    6.9960   -5.1677   22.8959 C   0  0  0  0  0  0  0  0  0  0  0  0
    6.7410   -5.3867   21.1812 Cl  0  0  0  0  0  0  0  0  0  0  0  0
    8.2544   -0.9192   22.8850 N   0  0  0  0  0  0  0  0  0  0  0  0
    8.6110   -0.7731   23.8148 H   0  0  0  0  0  0  0  0  0  0  0  0
    7.5668    0.1026   22.2953 C   0  0  0  0  0  0  0  0  0  0  0  0
    7.2909    1.5845   23.0000 S   0  0  0  0  0  0  0  0  0  0  0  0
    5.3559    0.9664   20.1523 C   0  0  0  0  0  0  0  0  0  0  0  0
    4.9333    1.0980   21.1480 H   0  0  0  0  0  0  0  0  0  0  0  0
    4.7340    1.4803   19.0070 C   0  0  0  0  0  0  0  0  0  0  0  0
    3.7713    1.9785   19.0579 H   0  0  0  0  0  0  0  0  0  0  0  0
  1  2  1  0
  2  3  2  0
  3  4  1  0
  4  5  1  0
  4  6  2  0
  6  7  1  0
  7  8  1  0
  8  9  1  0
  8 10  2  0
 10 11  1  0
 11 12  1  0
 11 13  1  0
 11 14  1  0
 14 15  2  0
 15 16  1  0
 15 17  1  0
 17 18  1  0
 17 19  2  0
 19 20  1  0
 19 21  1  0
 21 22  1  0
 21 23  2  0
 23 24  1  0
 10 25  1  0
 25 26  1  0
 25 27  1  0
 27 28  2  0
  6 29  1  0
 29 30  1  0
 29 31  2  0
 31 32  1  0
 31  2  1  0
 27  7  1  0
 23 14  1  0
M  END
>  <cnnaffinity>  (1) 
-5.57456

>  <filename>  (1) 
S=c1[nH]c(Cc2ccccc2Cl)cn1-c1cccnc1

$$$$
