
     RDKit          3D

 30 32  0  0  0  0  0  0  0  0999 V2000
    4.9396    1.8264   16.9934 H   0  0  0  0  0  0  0  0  0  0  0  0
    5.4183    1.3127   17.8260 C   0  0  0  0  0  0  0  0  0  0  0  0
    6.5818    0.7036   17.5480 N   0  0  0  0  0  0  0  0  0  0  0  0
    7.1870    0.0451   18.5416 C   0  0  0  0  0  0  0  0  0  0  0  0
    8.1369   -0.4469   18.3307 H   0  0  0  0  0  0  0  0  0  0  0  0
    6.6630   -0.0589   19.8407 C   0  0  0  0  0  0  0  0  0  0  0  0
    7.3980   -0.7978   20.8223 N   0  0  0  0  0  0  0  0  0  0  0  0
    8.7196   -0.5080   21.1698 C   0  0  0  0  0  0  0  0  0  0  0  0
    9.2945    0.2323   20.6338 H   0  0  0  0  0  0  0  0  0  0  0  0
    9.0664   -1.3366   22.1855 C   0  0  0  0  0  0  0  0  0  0  0  0
   10.5718   -1.5324   23.0824 S   0  0  0  0  0  0  0  0  0  0  0  0
   10.3198   -0.2184   24.2666 C   0  0  0  0  0  0  0  0  0  0  0  0
    9.7028   -0.4933   25.4943 C   0  0  0  0  0  0  0  0  0  0  0  0
    9.4815   -1.5221   25.7677 H   0  0  0  0  0  0  0  0  0  0  0  0
    9.3426    0.5622   26.3359 C   0  0  0  0  0  0  0  0  0  0  0  0
    8.8604    0.3536   27.2868 H   0  0  0  0  0  0  0  0  0  0  0  0
    9.5948    1.8839   25.9545 C   0  0  0  0  0  0  0  0  0  0  0  0
    9.2337    2.7001   26.5740 H   0  0  0  0  0  0  0  0  0  0  0  0
   10.2828    2.1497   24.7669 C   0  0  0  0  0  0  0  0  0  0  0  0
   10.5208    3.1704   24.4842 H   0  0  0  0  0  0  0  0  0  0  0  0
   10.6505    1.0994   23.9233 C   0  0  0  0  0  0  0  0  0  0  0  0
   11.1652    1.2940   22.9858 H   0  0  0  0  0  0  0  0  0  0  0  0
    7.9422   -2.1081   22.4391 N   0  0  0  0  0  0  0  0  0  0  0  0
    7.7983   -2.7581   23.1932 H   0  0  0  0  0  0  0  0  0  0  0  0
    6.9185   -1.8510   21.5809 C   0  0  0  0  0  0  0  0  0  0  0  0
    5.5122   -2.7331   21.4779 S   0  0  0  0  0  0  0  0  0  0  0  0
    5.4583    0.5937   20.1355 C   0  0  0  0  0  0  0  0  0  0  0  0
    5.0400    0.5649   21.1434 H   0  0  0  0  0  0  0  0  0  0  0  0
    4.8277    1.2937   19.0959 C   0  0  0  0  0  0  0  0  0  0  0  0
    3.8929    1.8212   19.2473 H   0  0  0  0  0  0  0  0  0  0  0  0
  1  2  1  0
  2  3  2  0
  3  4  1  0
  4  5  1  0
  4  6  2  0
  6  7  1  0
  7  8  1  0
  8  9  1  0
  8 10  2  0
 10 11  1  0
 11 12  1  0
 12 13  2  0
 13 14  1  0
 13 15  1  0
 15 16  1  0
 15 17  2  0
 17 18  1  0
 17 19  1  0
 19 20  1  0
 19 21  2  0
 21 22  1  0
 10 23  1  0
 23 24  1  0
 23 25  1  0
 25 26  2  0
  6 27  1  0
 27 28  1  0
 27 29  2  0
 29 30  1  0
 29  2  1  0
 25  7  1  0
 21 12  1  0
M  END
>  <cnnaffinity>  (1) 
-5.42198

>  <filename>  (1) 
S=c1[nH]c(Sc2ccccc2)cn1-c1cccnc1

$$$$
