
     RDKit          3D

 36 39  0  0  0  0  0  0  0  0999 V2000
    7.0033    0.8488   22.4949 H   0  0  0  0  0  0  0  0  0  0  0  0
    7.2713   -0.1682   22.2715 C   0  0  0  0  0  0  0  0  0  0  0  0
    7.1489   -0.6701   21.0320 C   0  0  0  0  0  0  0  0  0  0  0  0
    6.5371    0.0174   19.8838 C   0  0  0  0  0  0  0  0  0  0  0  0
    7.1421   -0.0198   18.6143 C   0  0  0  0  0  0  0  0  0  0  0  0
    8.0941   -0.5311   18.4789 H   0  0  0  0  0  0  0  0  0  0  0  0
    6.6423    0.5781   17.5275 N   0  0  0  0  0  0  0  0  0  0  0  0
    5.4935    1.2561   17.6721 C   0  0  0  0  0  0  0  0  0  0  0  0
    5.1015    1.7212   16.7698 H   0  0  0  0  0  0  0  0  0  0  0  0
    4.8129    1.3703   18.8892 C   0  0  0  0  0  0  0  0  0  0  0  0
    3.8991    1.9499   18.9364 H   0  0  0  0  0  0  0  0  0  0  0  0
    5.3489    0.7528   20.0201 C   0  0  0  0  0  0  0  0  0  0  0  0
    4.8585    0.8316   20.9924 H   0  0  0  0  0  0  0  0  0  0  0  0
    7.6444   -1.9532   20.7964 N   0  0  0  0  0  0  0  0  0  0  0  0
    7.4987   -2.4060   19.9133 H   0  0  0  0  0  0  0  0  0  0  0  0
    7.9055   -2.8486   21.7821 C   0  0  0  0  0  0  0  0  0  0  0  0
    8.0654   -4.4675   21.4715 S   0  0  0  0  0  0  0  0  0  0  0  0
    8.0083   -2.3391   23.0196 N   0  0  0  0  0  0  0  0  0  0  0  0
    8.3271   -3.0073   23.6948 H   0  0  0  0  0  0  0  0  0  0  0  0
    8.0395   -0.9077   23.3244 C   0  0  1  0  0  0  0  0  0  0  0  0
    7.5719   -0.7527   24.3085 H   0  0  0  0  0  0  0  0  0  0  0  0
    9.4638   -0.3612   23.4729 C   0  0  0  0  0  0  0  0  0  0  0  0
    9.8400    0.7790   24.1350 C   0  0  0  0  0  0  0  0  0  0  0  0
    9.2540    1.3302   24.8602 H   0  0  0  0  0  0  0  0  0  0  0  0
   11.1758    1.0873   23.7348 C   0  0  0  0  0  0  0  0  0  0  0  0
   12.0434    2.1651   24.0014 C   0  0  0  0  0  0  0  0  0  0  0  0
   11.7072    3.0040   24.6053 H   0  0  0  0  0  0  0  0  0  0  0  0
   13.3289    2.1291   23.4826 C   0  0  0  0  0  0  0  0  0  0  0  0
   13.9807    2.9715   23.6704 H   0  0  0  0  0  0  0  0  0  0  0  0
   13.7721    1.0352   22.6945 C   0  0  0  0  0  0  0  0  0  0  0  0
   14.7950    1.0201   22.3212 H   0  0  0  0  0  0  0  0  0  0  0  0
   12.9167   -0.0140   22.3765 C   0  0  0  0  0  0  0  0  0  0  0  0
   13.2582   -0.8576   21.7831 H   0  0  0  0  0  0  0  0  0  0  0  0
   11.6024    0.0363   22.8834 C   0  0  0  0  0  0  0  0  0  0  0  0
   10.5395   -0.8283   22.7457 N   0  0  0  0  0  0  0  0  0  0  0  0
   10.5217   -1.6117   22.1148 H   0  0  0  0  0  0  0  0  0  0  0  0
  1  2  1  0
  2  3  2  0
  3  4  1  0
  4  5  2  0
  5  6  1  0
  5  7  1  0
  7  8  2  0
  8  9  1  0
  8 10  1  0
 10 11  1  0
 10 12  2  0
 12 13  1  0
  3 14  1  0
 14 15  1  0
 14 16  1  0
 16 17  2  0
 16 18  1  0
 18 19  1  0
 18 20  1  0
 20 21  1  1
 20 22  1  0
 22 23  2  0
 23 24  1  0
 23 25  1  0
 25 26  2  0
 26 27  1  0
 26 28  1  0
 28 29  1  0
 28 30  2  0
 30 31  1  0
 30 32  1  0
 32 33  1  0
 32 34  2  0
 34 35  1  0
 35 36  1  0
 20  2  1  0
 35 22  1  0
 12  4  1  0
 34 25  1  0
M  END
>  <cnnaffinity>  (1) 
-5.36287

>  <filename>  (1) 
S=C1NC(c2cccnc2)=C[C@H](c2cc3ccccc3[nH]2)N1

$$$$
