
     RDKit          3D

 34 37  0  0  0  0  0  0  0  0999 V2000
    4.9801    1.8366   16.9221 H   0  0  0  0  0  0  0  0  0  0  0  0
    5.4409    1.3167   17.7644 C   0  0  0  0  0  0  0  0  0  0  0  0
    6.5958    0.6772   17.5169 N   0  0  0  0  0  0  0  0  0  0  0  0
    7.1953    0.0512   18.5371 C   0  0  0  0  0  0  0  0  0  0  0  0
    8.1159   -0.4705   18.2818 H   0  0  0  0  0  0  0  0  0  0  0  0
    6.6944    0.0157   19.8518 C   0  0  0  0  0  0  0  0  0  0  0  0
    7.3775   -0.6877   20.9444 C   0  0  0  0  0  0  0  0  0  0  0  0
    6.8846   -1.2403   22.0743 C   0  0  0  0  0  0  0  0  0  0  0  0
    5.8740   -1.4418   22.3788 H   0  0  0  0  0  0  0  0  0  0  0  0
    7.9385   -1.7273   22.8355 N   0  0  0  0  0  0  0  0  0  0  0  0
    7.7396   -2.4068   24.0830 C   0  0  0  0  0  0  0  0  0  0  0  0
    6.8409   -1.8671   25.0748 C   0  0  0  0  0  0  0  0  0  0  0  0
    6.3678   -0.8964   24.9136 H   0  0  0  0  0  0  0  0  0  0  0  0
    6.5447   -2.4718   26.2008 N   0  0  0  0  0  0  0  0  0  0  0  0
    7.1280   -3.6930   26.4423 C   0  0  0  0  0  0  0  0  0  0  0  0
    6.8227   -4.3386   27.6696 C   0  0  0  0  0  0  0  0  0  0  0  0
    6.1355   -3.8244   28.3301 H   0  0  0  0  0  0  0  0  0  0  0  0
    7.3894   -5.5520   27.9806 C   0  0  0  0  0  0  0  0  0  0  0  0
    7.1855   -6.0504   28.9265 H   0  0  0  0  0  0  0  0  0  0  0  0
    8.2693   -6.1744   27.0555 C   0  0  0  0  0  0  0  0  0  0  0  0
    8.6945   -7.1334   27.3032 H   0  0  0  0  0  0  0  0  0  0  0  0
    8.5936   -5.5840   25.8594 C   0  0  0  0  0  0  0  0  0  0  0  0
    9.2915   -6.0556   25.1674 H   0  0  0  0  0  0  0  0  0  0  0  0
    8.0371   -4.3155   25.5246 C   0  0  0  0  0  0  0  0  0  0  0  0
    8.3480   -3.6160   24.3228 C   0  0  0  0  0  0  0  0  0  0  0  0
    9.0566   -4.0202   23.6013 H   0  0  0  0  0  0  0  0  0  0  0  0
    9.1208   -1.5607   22.1372 C   0  0  0  0  0  0  0  0  0  0  0  0
   10.6815   -2.0288   22.4716 S   0  0  0  0  0  0  0  0  0  0  0  0
    8.7472   -0.9033   21.0055 N   0  0  0  0  0  0  0  0  0  0  0  0
    9.4673   -0.6186   20.3704 H   0  0  0  0  0  0  0  0  0  0  0  0
    5.4742    0.6774   20.0826 C   0  0  0  0  0  0  0  0  0  0  0  0
    5.0439    0.6926   21.0836 H   0  0  0  0  0  0  0  0  0  0  0  0
    4.8400    1.3293   19.0257 C   0  0  0  0  0  0  0  0  0  0  0  0
    3.9039    1.8582   19.1584 H   0  0  0  0  0  0  0  0  0  0  0  0
  1  2  1  0
  2  3  2  0
  3  4  1  0
  4  5  1  0
  4  6  2  0
  6  7  1  0
  7  8  2  0
  8  9  1  0
  8 10  1  0
 10 11  1  0
 11 12  2  0
 12 13  1  0
 12 14  1  0
 14 15  2  0
 15 16  1  0
 16 17  1  0
 16 18  2  0
 18 19  1  0
 18 20  1  0
 20 21  1  0
 20 22  2  0
 22 23  1  0
 22 24  1  0
 24 25  2  0
 25 26  1  0
 10 27  1  0
 27 28  2  0
 27 29  1  0
 29 30  1  0
  6 31  1  0
 31 32  1  0
 31 33  2  0
 33 34  1  0
 33  2  1  0
 29  7  1  0
 25 11  1  0
 24 15  1  0
M  END
>  <cnnaffinity>  (1) 
-5.5156

>  <filename>  (1) 
S=c1[nH]c(-c2cccnc2)cn1-c1cnc2ccccc2c1

$$$$
