
     RDKit          3D

 26 28  0  0  0  0  0  0  0  0999 V2000
    5.0126    1.8136   16.8800 H   0  0  0  0  0  0  0  0  0  0  0  0
    5.4305    1.3026   17.7520 C   0  0  0  0  0  0  0  0  0  0  0  0
    6.5929    0.6543   17.5650 N   0  0  0  0  0  0  0  0  0  0  0  0
    7.1391    0.0402   18.6235 C   0  0  0  0  0  0  0  0  0  0  0  0
    8.0897   -0.4478   18.4207 H   0  0  0  0  0  0  0  0  0  0  0  0
    6.5775    0.0159   19.9193 C   0  0  0  0  0  0  0  0  0  0  0  0
    7.2332   -0.5968   21.0884 C   0  0  0  0  0  0  0  0  0  0  0  0
    7.0742   -0.3703   22.4103 C   0  0  0  0  0  0  0  0  0  0  0  0
    6.3976    0.2994   22.9204 H   0  0  0  0  0  0  0  0  0  0  0  0
    8.0313   -1.1096   23.1054 N   0  0  0  0  0  0  0  0  0  0  0  0
    8.1415   -1.2283   24.5154 C   0  0  0  0  0  0  0  0  0  0  0  0
    8.0563    0.1559   25.5515 S   0  0  0  0  0  0  0  0  0  0  0  0
    8.3873   -0.8245   26.9335 C   0  0  0  0  0  0  0  0  0  0  0  0
    8.4958   -0.3616   27.9048 H   0  0  0  0  0  0  0  0  0  0  0  0
    8.5212   -2.1406   26.6154 C   0  0  0  0  0  0  0  0  0  0  0  0
    8.7417   -2.9229   27.3371 H   0  0  0  0  0  0  0  0  0  0  0  0
    8.3740   -2.3721   25.2170 C   0  0  0  0  0  0  0  0  0  0  0  0
    8.4688   -3.3376   24.7329 H   0  0  0  0  0  0  0  0  0  0  0  0
    8.8399   -1.7741   22.1960 C   0  0  0  0  0  0  0  0  0  0  0  0
   10.2222   -2.6546   22.4041 S   0  0  0  0  0  0  0  0  0  0  0  0
    8.2901   -1.4912   20.9892 N   0  0  0  0  0  0  0  0  0  0  0  0
    8.6082   -1.9951   20.1833 H   0  0  0  0  0  0  0  0  0  0  0  0
    5.3513    0.6834   20.0832 C   0  0  0  0  0  0  0  0  0  0  0  0
    4.8641    0.6864   21.0592 H   0  0  0  0  0  0  0  0  0  0  0  0
    4.7754    1.3314   18.9884 C   0  0  0  0  0  0  0  0  0  0  0  0
    3.8402    1.8701   19.0787 H   0  0  0  0  0  0  0  0  0  0  0  0
  1  2  1  0
  2  3  2  0
  3  4  1  0
  4  5  1  0
  4  6  2  0
  6  7  1  0
  7  8  2  0
  8  9  1  0
  8 10  1  0
 10 11  1  0
 11 12  1  0
 12 13  1  0
 13 14  1  0
 13 15  2  0
 15 16  1  0
 15 17  1  0
 17 18  1  0
 10 19  1  0
 19 20  2  0
 19 21  1  0
 21 22  1  0
  6 23  1  0
 23 24  1  0
 23 25  2  0
 25 26  1  0
 25  2  1  0
 21  7  1  0
 17 11  2  0
M  END
>  <cnnaffinity>  (1) 
-5.24278

>  <filename>  (1) 
S=c1[nH]c(-c2cccnc2)cn1-c1cccs1

$$$$
