
     RDKit          3D

 33 35  0  0  0  0  0  0  0  0999 V2000
    7.6002    1.0832   22.2780 H   0  0  0  0  0  0  0  0  0  0  0  0
    7.7007    0.0225   22.1439 C   0  0  0  0  0  0  0  0  0  0  0  0
    7.3360   -0.5937   21.0119 C   0  0  0  0  0  0  0  0  0  0  0  0
    6.6625    0.0641   19.8909 C   0  0  0  0  0  0  0  0  0  0  0  0
    7.1923    0.0230   18.5908 C   0  0  0  0  0  0  0  0  0  0  0  0
    8.1364   -0.4893   18.4032 H   0  0  0  0  0  0  0  0  0  0  0  0
    6.6141    0.6117   17.5389 N   0  0  0  0  0  0  0  0  0  0  0  0
    5.4564    1.2586   17.7444 C   0  0  0  0  0  0  0  0  0  0  0  0
    5.0047    1.7183   16.8673 H   0  0  0  0  0  0  0  0  0  0  0  0
    4.8360    1.3444   18.9955 C   0  0  0  0  0  0  0  0  0  0  0  0
    3.8940    1.8683   19.0957 H   0  0  0  0  0  0  0  0  0  0  0  0
    5.4609    0.7590   20.0943 C   0  0  0  0  0  0  0  0  0  0  0  0
    5.0335    0.8185   21.0942 H   0  0  0  0  0  0  0  0  0  0  0  0
    7.5466   -1.9614   20.8871 N   0  0  0  0  0  0  0  0  0  0  0  0
    7.1360   -2.5063   20.1480 H   0  0  0  0  0  0  0  0  0  0  0  0
    8.0760   -2.7358   21.8710 C   0  0  0  0  0  0  0  0  0  0  0  0
    8.0821   -4.3827   21.7524 S   0  0  0  0  0  0  0  0  0  0  0  0
    8.6005   -2.0754   22.9103 N   0  0  0  0  0  0  0  0  0  0  0  0
    8.9788   -2.6531   23.6375 H   0  0  0  0  0  0  0  0  0  0  0  0
    8.3306   -0.7072   23.2719 C   0  0  1  0  0  0  0  0  0  0  0  0
    7.6871   -0.6716   24.1713 H   0  0  0  0  0  0  0  0  0  0  0  0
    9.6480   -0.2287   23.6415 N   0  0  0  0  0  0  0  0  0  0  0  0
   10.3082   -0.5797   22.9630 H   0  0  0  0  0  0  0  0  0  0  0  0
    9.8621    1.1004   23.9387 C   0  0  0  0  0  0  0  0  0  0  0  0
   11.1144    1.6565   23.6939 C   0  0  0  0  0  0  0  0  0  0  0  0
   11.9224    1.0313   23.3357 H   0  0  0  0  0  0  0  0  0  0  0  0
   11.2953    3.0063   23.9574 C   0  0  0  0  0  0  0  0  0  0  0  0
   12.2551    3.4814   23.7542 H   0  0  0  0  0  0  0  0  0  0  0  0
   10.3441    3.8126   24.4490 N   0  0  0  0  0  0  0  0  0  0  0  0
    9.1582    3.2484   24.7056 C   0  0  0  0  0  0  0  0  0  0  0  0
    8.3834    3.9092   25.0938 H   0  0  0  0  0  0  0  0  0  0  0  0
    8.8680    1.9074   24.4956 C   0  0  0  0  0  0  0  0  0  0  0  0
    7.9139    1.4904   24.7799 H   0  0  0  0  0  0  0  0  0  0  0  0
  1  2  1  0
  2  3  2  0
  3  4  1  0
  4  5  2  0
  5  6  1  0
  5  7  1  0
  7  8  2  0
  8  9  1  0
  8 10  1  0
 10 11  1  0
 10 12  2  0
 12 13  1  0
  3 14  1  0
 14 15  1  0
 14 16  1  0
 16 17  2  0
 16 18  1  0
 18 19  1  0
 18 20  1  0
 20 21  1  1
 20 22  1  0
 22 23  1  0
 22 24  1  0
 24 25  2  0
 25 26  1  0
 25 27  1  0
 27 28  1  0
 27 29  2  0
 29 30  1  0
 30 31  1  0
 30 32  2  0
 32 33  1  0
 20  2  1  0
 32 24  1  0
 12  4  1  0
M  END
>  <cnnaffinity>  (1) 
-5.27497

>  <filename>  (1) 
S=C1NC(c2cccnc2)=C[C@H](Nc2ccncc2)N1

$$$$
