
     RDKit          3D

 33 36  0  0  0  0  0  0  0  0999 V2000
    4.9170    1.8018   16.9690 H   0  0  0  0  0  0  0  0  0  0  0  0
    5.3909    1.3048   17.8146 C   0  0  0  0  0  0  0  0  0  0  0  0
    6.5563    0.6870   17.5576 N   0  0  0  0  0  0  0  0  0  0  0  0
    7.1702    0.0736   18.5772 C   0  0  0  0  0  0  0  0  0  0  0  0
    8.1072   -0.4221   18.3275 H   0  0  0  0  0  0  0  0  0  0  0  0
    6.6658    0.0207   19.8896 C   0  0  0  0  0  0  0  0  0  0  0  0
    7.3388   -0.7010   20.9740 C   0  0  0  0  0  0  0  0  0  0  0  0
    6.8211   -1.2248   22.1007 C   0  0  0  0  0  0  0  0  0  0  0  0
    5.8012   -1.2927   22.4023 H   0  0  0  0  0  0  0  0  0  0  0  0
    7.8406   -1.7821   22.8568 N   0  0  0  0  0  0  0  0  0  0  0  0
    7.6445   -2.4477   24.1056 C   0  0  0  0  0  0  0  0  0  0  0  0
    6.8146   -1.8324   25.0810 C   0  0  0  0  0  0  0  0  0  0  0  0
    6.3430   -0.8802   24.8494 H   0  0  0  0  0  0  0  0  0  0  0  0
    6.6232   -2.4384   26.3151 C   0  0  0  0  0  0  0  0  0  0  0  0
    5.9924   -1.9764   27.0668 H   0  0  0  0  0  0  0  0  0  0  0  0
    7.2445   -3.6742   26.5872 C   0  0  0  0  0  0  0  0  0  0  0  0
    7.2677   -4.5709   27.7130 C   0  0  0  0  0  0  0  0  0  0  0  0
    6.7353   -4.4515   28.6444 H   0  0  0  0  0  0  0  0  0  0  0  0
    8.0681   -5.6248   27.3723 C   0  0  0  0  0  0  0  0  0  0  0  0
    8.3423   -6.5072   27.9348 H   0  0  0  0  0  0  0  0  0  0  0  0
    8.5417   -5.4392   26.0899 N   0  0  0  0  0  0  0  0  0  0  0  0
    9.1589   -6.0521   25.5856 H   0  0  0  0  0  0  0  0  0  0  0  0
    8.0554   -4.2658   25.5833 C   0  0  0  0  0  0  0  0  0  0  0  0
    8.2619   -3.6705   24.3292 C   0  0  0  0  0  0  0  0  0  0  0  0
    8.8975   -4.1010   23.5614 H   0  0  0  0  0  0  0  0  0  0  0  0
    9.0357   -1.6028   22.1964 C   0  0  0  0  0  0  0  0  0  0  0  0
   10.6030   -1.9794   22.5961 S   0  0  0  0  0  0  0  0  0  0  0  0
    8.6944   -0.9730   21.0376 N   0  0  0  0  0  0  0  0  0  0  0  0
    9.4291   -0.6685   20.4256 H   0  0  0  0  0  0  0  0  0  0  0  0
    5.4382    0.6658   20.1316 C   0  0  0  0  0  0  0  0  0  0  0  0
    5.0098    0.6589   21.1342 H   0  0  0  0  0  0  0  0  0  0  0  0
    4.7972    1.3221   19.0818 C   0  0  0  0  0  0  0  0  0  0  0  0
    3.8631    1.8524   19.2323 H   0  0  0  0  0  0  0  0  0  0  0  0
  1  2  1  0
  2  3  2  0
  3  4  1  0
  4  5  1  0
  4  6  2  0
  6  7  1  0
  7  8  2  0
  8  9  1  0
  8 10  1  0
 10 11  1  0
 11 12  2  0
 12 13  1  0
 12 14  1  0
 14 15  1  0
 14 16  2  0
 16 17  1  0
 17 18  1  0
 17 19  2  0
 19 20  1  0
 19 21  1  0
 21 22  1  0
 21 23  1  0
 23 24  2  0
 24 25  1  0
 10 26  1  0
 26 27  2  0
 26 28  1  0
 28 29  1  0
  6 30  1  0
 30 31  1  0
 30 32  2  0
 32 33  1  0
 32  2  1  0
 28  7  1  0
 24 11  1  0
 23 16  1  0
M  END
>  <cnnaffinity>  (1) 
-5.6105

>  <filename>  (1) 
S=c1[nH]c(-c2cccnc2)cn1-c1ccc2cc[nH]c2c1

$$$$
