
     RDKit          3D

 29 31  0  0  0  0  0  0  0  0999 V2000
    4.8818    2.0542   16.8778 H   0  0  0  0  0  0  0  0  0  0  0  0
    5.4037    1.4178   17.5863 C   0  0  0  0  0  0  0  0  0  0  0  0
    6.5292    0.7797   17.2007 N   0  0  0  0  0  0  0  0  0  0  0  0
    7.1743    0.0355   18.1241 C   0  0  0  0  0  0  0  0  0  0  0  0
    8.0884   -0.4796   17.8313 H   0  0  0  0  0  0  0  0  0  0  0  0
    6.7201   -0.1007   19.4510 C   0  0  0  0  0  0  0  0  0  0  0  0
    7.4044   -0.8413   20.4093 N   0  0  0  0  0  0  0  0  0  0  0  0
    7.9078   -0.2418   21.5703 C   0  0  0  0  0  0  0  0  0  0  0  0
    8.1235    0.8142   21.6984 H   0  0  0  0  0  0  0  0  0  0  0  0
    8.0181   -1.2006   22.5421 C   0  0  0  0  0  0  0  0  0  0  0  0
    8.4237   -1.0470   23.9347 C   0  0  0  0  0  0  0  0  0  0  0  0
    8.7580    0.2089   24.4634 C   0  0  0  0  0  0  0  0  0  0  0  0
    8.7211    1.0956   23.8416 H   0  0  0  0  0  0  0  0  0  0  0  0
    9.1107    0.3340   25.8124 C   0  0  0  0  0  0  0  0  0  0  0  0
    9.3284    1.3059   26.2488 H   0  0  0  0  0  0  0  0  0  0  0  0
    9.1612   -0.8026   26.6224 C   0  0  0  0  0  0  0  0  0  0  0  0
    9.6077   -0.6351   28.4509 Br  0  0  0  0  0  0  0  0  0  0  0  0
    8.8231   -2.0581   26.1108 C   0  0  0  0  0  0  0  0  0  0  0  0
    8.8190   -2.9396   26.7468 H   0  0  0  0  0  0  0  0  0  0  0  0
    8.4420   -2.1694   24.7739 C   0  0  0  0  0  0  0  0  0  0  0  0
    8.1474   -3.1379   24.3823 H   0  0  0  0  0  0  0  0  0  0  0  0
    7.5763   -2.3953   22.0001 N   0  0  0  0  0  0  0  0  0  0  0  0
    7.2026   -3.1383   22.5733 H   0  0  0  0  0  0  0  0  0  0  0  0
    7.0383   -2.1380   20.7660 C   0  0  0  0  0  0  0  0  0  0  0  0
    5.9077   -3.1588   20.0840 S   0  0  0  0  0  0  0  0  0  0  0  0
    5.5413    0.5293   19.8306 C   0  0  0  0  0  0  0  0  0  0  0  0
    5.1860    0.4340   20.8568 H   0  0  0  0  0  0  0  0  0  0  0  0
    4.8799    1.3072   18.8836 C   0  0  0  0  0  0  0  0  0  0  0  0
    3.9891    1.8558   19.1643 H   0  0  0  0  0  0  0  0  0  0  0  0
  1  2  1  0
  2  3  2  0
  3  4  1  0
  4  5  1  0
  4  6  2  0
  6  7  1  0
  7  8  1  0
  8  9  1  0
  8 10  2  0
 10 11  1  0
 11 12  2  0
 12 13  1  0
 12 14  1  0
 14 15  1  0
 14 16  2  0
 16 17  1  0
 16 18  1  0
 18 19  1  0
 18 20  2  0
 20 21  1  0
 10 22  1  0
 22 23  1  0
 22 24  1  0
 24 25  2  0
  6 26  1  0
 26 27  1  0
 26 28  2  0
 28 29  1  0
 28  2  1  0
 24  7  1  0
 20 11  1  0
M  END
>  <cnnaffinity>  (1) 
-5.46425

>  <filename>  (1) 
S=c1[nH]c(-c2ccc(Br)cc2)cn1-c1cccnc1

$$$$
