
     RDKit          3D

 30 32  0  0  0  0  0  0  0  0999 V2000
    4.9340    1.7836   17.0018 H   0  0  0  0  0  0  0  0  0  0  0  0
    5.4083    1.2879   17.8449 C   0  0  0  0  0  0  0  0  0  0  0  0
    6.5704    0.6701   17.5790 N   0  0  0  0  0  0  0  0  0  0  0  0
    7.1882    0.0622   18.5958 C   0  0  0  0  0  0  0  0  0  0  0  0
    8.1264   -0.4417   18.3649 H   0  0  0  0  0  0  0  0  0  0  0  0
    6.6775    0.0149   19.9081 C   0  0  0  0  0  0  0  0  0  0  0  0
    7.3952   -0.6765   20.9307 N   0  0  0  0  0  0  0  0  0  0  0  0
    8.7538   -0.4679   21.1972 C   0  0  0  0  0  0  0  0  0  0  0  0
    9.3674    0.1954   20.6233 H   0  0  0  0  0  0  0  0  0  0  0  0
    9.0631   -1.2715   22.2369 C   0  0  0  0  0  0  0  0  0  0  0  0
   10.1876   -1.5592   22.8990 O   0  0  0  0  0  0  0  0  0  0  0  0
   11.3350   -0.7975   22.5002 C   0  0  0  0  0  0  0  0  0  0  0  0
   12.2041   -1.3298   22.8960 H   0  0  0  0  0  0  0  0  0  0  0  0
   11.4211   -0.8113   21.4055 H   0  0  0  0  0  0  0  0  0  0  0  0
   11.3113    0.6187   23.0322 C   0  0  0  0  0  0  0  0  0  0  0  0
   10.4918    1.2226   22.6393 H   0  0  0  0  0  0  0  0  0  0  0  0
   12.6118    1.3251   23.3188 C   0  0  0  0  0  0  0  0  0  0  0  0
   13.5445    0.7972   23.1277 H   0  0  0  0  0  0  0  0  0  0  0  0
   12.6868    2.3872   23.0992 H   0  0  0  0  0  0  0  0  0  0  0  0
   11.7370    0.8761   24.4575 C   0  0  0  0  0  0  0  0  0  0  0  0
   12.0454    0.0223   25.0576 H   0  0  0  0  0  0  0  0  0  0  0  0
   11.1986    1.6219   25.0387 H   0  0  0  0  0  0  0  0  0  0  0  0
    7.9275   -1.9390   22.5986 N   0  0  0  0  0  0  0  0  0  0  0  0
    7.8310   -2.6461   23.3030 H   0  0  0  0  0  0  0  0  0  0  0  0
    6.9090   -1.6868   21.7319 C   0  0  0  0  0  0  0  0  0  0  0  0
    5.5224   -2.5924   21.6257 S   0  0  0  0  0  0  0  0  0  0  0  0
    5.4521    0.6392   20.1729 C   0  0  0  0  0  0  0  0  0  0  0  0
    5.0186    0.6097   21.1740 H   0  0  0  0  0  0  0  0  0  0  0  0
    4.8187    1.3013   19.1144 C   0  0  0  0  0  0  0  0  0  0  0  0
    3.8839    1.8308   19.2611 H   0  0  0  0  0  0  0  0  0  0  0  0
  1  2  1  0
  2  3  2  0
  3  4  1  0
  4  5  1  0
  4  6  2  0
  6  7  1  0
  7  8  1  0
  8  9  1  0
  8 10  2  0
 10 11  1  0
 11 12  1  0
 12 13  1  0
 12 14  1  0
 12 15  1  0
 15 16  1  0
 15 17  1  0
 17 18  1  0
 17 19  1  0
 17 20  1  0
 20 21  1  0
 20 22  1  0
 10 23  1  0
 23 24  1  0
 23 25  1  0
 25 26  2  0
  6 27  1  0
 27 28  1  0
 27 29  2  0
 29 30  1  0
 29  2  1  0
 25  7  1  0
 20 15  1  0
M  END
>  <cnnaffinity>  (1) 
-5.19195

>  <filename>  (1) 
S=c1[nH]c(OCC2CC2)cn1-c1cccnc1

$$$$
