
     RDKit          3D

 38 40  0  0  0  0  0  0  0  0999 V2000
    4.9358    1.7921   17.0013 H   0  0  0  0  0  0  0  0  0  0  0  0
    5.4031    1.2859   17.8412 C   0  0  0  0  0  0  0  0  0  0  0  0
    6.5591    0.6566   17.5790 N   0  0  0  0  0  0  0  0  0  0  0  0
    7.1771    0.0384   18.5924 C   0  0  0  0  0  0  0  0  0  0  0  0
    8.1288   -0.4360   18.3604 H   0  0  0  0  0  0  0  0  0  0  0  0
    6.6546   -0.0107   19.9034 C   0  0  0  0  0  0  0  0  0  0  0  0
    7.3192   -0.7040   20.9613 N   0  0  0  0  0  0  0  0  0  0  0  0
    6.6860   -1.6302   21.8009 C   0  0  0  0  0  0  0  0  0  0  0  0
    5.6360   -1.8523   21.7292 H   0  0  0  0  0  0  0  0  0  0  0  0
    7.6305   -2.0710   22.6556 C   0  0  0  0  0  0  0  0  0  0  0  0
    7.6592   -2.9172   23.6857 O   0  0  0  0  0  0  0  0  0  0  0  0
    6.3912   -3.5171   23.9917 C   0  0  0  0  0  0  0  0  0  0  0  0
    5.6649   -2.7241   24.2170 H   0  0  0  0  0  0  0  0  0  0  0  0
    6.0457   -4.0686   23.1063 H   0  0  0  0  0  0  0  0  0  0  0  0
    6.5299   -4.4627   25.1810 C   0  0  0  0  0  0  0  0  0  0  0  0
    5.5245   -4.8938   25.3352 H   0  0  0  0  0  0  0  0  0  0  0  0
    6.9470   -3.7305   26.4756 C   0  0  0  0  0  0  0  0  0  0  0  0
    6.1954   -2.9787   26.7478 H   0  0  0  0  0  0  0  0  0  0  0  0
    7.8831   -3.1896   26.2776 H   0  0  0  0  0  0  0  0  0  0  0  0
    7.1693   -4.7202   27.6301 C   0  0  0  0  0  0  0  0  0  0  0  0
    6.2138   -5.1882   27.9161 H   0  0  0  0  0  0  0  0  0  0  0  0
    7.5654   -4.2360   28.5233 H   0  0  0  0  0  0  0  0  0  0  0  0
    8.1107   -5.7809   27.2947 N   0  0  0  0  0  0  0  0  0  0  0  0
    9.0136   -5.3490   27.0997 H   0  0  0  0  0  0  0  0  0  0  0  0
    7.7081   -6.5110   26.1001 C   0  0  0  0  0  0  0  0  0  0  0  0
    8.4857   -7.2563   25.9098 H   0  0  0  0  0  0  0  0  0  0  0  0
    6.7699   -7.0403   26.3352 H   0  0  0  0  0  0  0  0  0  0  0  0
    7.5066   -5.6136   24.8744 C   0  0  0  0  0  0  0  0  0  0  0  0
    7.1446   -6.1888   24.0128 H   0  0  0  0  0  0  0  0  0  0  0  0
    8.4778   -5.1918   24.5820 H   0  0  0  0  0  0  0  0  0  0  0  0
    8.8060   -1.4411   22.3424 N   0  0  0  0  0  0  0  0  0  0  0  0
    9.6935   -1.5138   22.8022 H   0  0  0  0  0  0  0  0  0  0  0  0
    8.6342   -0.5495   21.3362 C   0  0  0  0  0  0  0  0  0  0  0  0
    9.8101    0.4865   20.8024 S   0  0  0  0  0  0  0  0  0  0  0  0
    5.4461    0.6442   20.1619 C   0  0  0  0  0  0  0  0  0  0  0  0
    5.0373    0.6345   21.1753 H   0  0  0  0  0  0  0  0  0  0  0  0
    4.8113    1.3084   19.1094 C   0  0  0  0  0  0  0  0  0  0  0  0
    3.8791    1.8418   19.2620 H   0  0  0  0  0  0  0  0  0  0  0  0
  1  2  1  0
  2  3  2  0
  3  4  1  0
  4  5  1  0
  4  6  2  0
  6  7  1  0
  7  8  1  0
  8  9  1  0
  8 10  2  0
 10 11  1  0
 11 12  1  0
 12 13  1  0
 12 14  1  0
 12 15  1  0
 15 16  1  0
 15 17  1  0
 17 18  1  0
 17 19  1  0
 17 20  1  0
 20 21  1  0
 20 22  1  0
 20 23  1  0
 23 24  1  0
 23 25  1  0
 25 26  1  0
 25 27  1  0
 25 28  1  0
 28 29  1  0
 28 30  1  0
 10 31  1  0
 31 32  1  0
 31 33  1  0
 33 34  2  0
  6 35  1  0
 35 36  1  0
 35 37  2  0
 37 38  1  0
 37  2  1  0
 33  7  1  0
 28 15  1  0
M  END
>  <cnnaffinity>  (1) 
-5.2234

>  <filename>  (1) 
S=c1[nH]c(OCC2CCNCC2)cn1-c1cccnc1

$$$$
