
     RDKit          3D

 32 34  0  0  0  0  0  0  0  0999 V2000
    4.9191    1.8140   16.9568 H   0  0  0  0  0  0  0  0  0  0  0  0
    5.3898    1.3116   17.8033 C   0  0  0  0  0  0  0  0  0  0  0  0
    6.5520    0.6908   17.5513 N   0  0  0  0  0  0  0  0  0  0  0  0
    7.1689    0.0757   18.5690 C   0  0  0  0  0  0  0  0  0  0  0  0
    8.1017   -0.4161   18.3055 H   0  0  0  0  0  0  0  0  0  0  0  0
    6.6677    0.0263   19.8821 C   0  0  0  0  0  0  0  0  0  0  0  0
    7.3424   -0.6915   20.9669 C   0  0  0  0  0  0  0  0  0  0  0  0
    6.8155   -1.2277   22.0842 C   0  0  0  0  0  0  0  0  0  0  0  0
    5.7994   -1.3279   22.3975 H   0  0  0  0  0  0  0  0  0  0  0  0
    7.8300   -1.8068   22.8223 N   0  0  0  0  0  0  0  0  0  0  0  0
    7.6057   -2.4868   24.1042 C   0  0  0  0  0  0  0  0  0  0  0  0
    6.5366   -2.3511   24.3110 H   0  0  0  0  0  0  0  0  0  0  0  0
    7.9416   -3.9949   24.0373 C   0  0  0  0  0  0  0  0  0  0  0  0
    7.0534   -4.5853   23.7827 H   0  0  0  0  0  0  0  0  0  0  0  0
    8.6796   -4.1531   23.2412 H   0  0  0  0  0  0  0  0  0  0  0  0
    8.5426   -4.3526   25.4100 C   0  0  0  0  0  0  0  0  0  0  0  0
    9.2491   -5.1886   25.3372 H   0  0  0  0  0  0  0  0  0  0  0  0
    7.7615   -4.6573   26.1199 H   0  0  0  0  0  0  0  0  0  0  0  0
    9.2448   -3.0583   25.8579 C   0  0  0  0  0  0  0  0  0  0  0  0
   10.2417   -3.0479   25.4034 H   0  0  0  0  0  0  0  0  0  0  0  0
    9.3646   -2.9811   26.9440 H   0  0  0  0  0  0  0  0  0  0  0  0
    8.4212   -1.8893   25.2750 C   0  0  0  0  0  0  0  0  0  0  0  0
    9.0594   -1.0656   24.9333 H   0  0  0  0  0  0  0  0  0  0  0  0
    7.7310   -1.4590   26.0111 H   0  0  0  0  0  0  0  0  0  0  0  0
    9.0162   -1.6494   22.1710 C   0  0  0  0  0  0  0  0  0  0  0  0
   10.5759   -2.0999   22.5505 S   0  0  0  0  0  0  0  0  0  0  0  0
    8.6952   -0.9843   21.0308 N   0  0  0  0  0  0  0  0  0  0  0  0
    9.4599   -0.7068   20.4387 H   0  0  0  0  0  0  0  0  0  0  0  0
    5.4424    0.6741   20.1189 C   0  0  0  0  0  0  0  0  0  0  0  0
    5.0114    0.6691   21.1216 H   0  0  0  0  0  0  0  0  0  0  0  0
    4.7949    1.3282   19.0689 C   0  0  0  0  0  0  0  0  0  0  0  0
    3.8598    1.8554   19.2150 H   0  0  0  0  0  0  0  0  0  0  0  0
  1  2  1  0
  2  3  2  0
  3  4  1  0
  4  5  1  0
  4  6  2  0
  6  7  1  0
  7  8  2  0
  8  9  1  0
  8 10  1  0
 10 11  1  0
 11 12  1  0
 11 13  1  0
 13 14  1  0
 13 15  1  0
 13 16  1  0
 16 17  1  0
 16 18  1  0
 16 19  1  0
 19 20  1  0
 19 21  1  0
 19 22  1  0
 22 23  1  0
 22 24  1  0
 10 25  1  0
 25 26  2  0
 25 27  1  0
 27 28  1  0
  6 29  1  0
 29 30  1  0
 29 31  2  0
 31 32  1  0
 31  2  1  0
 27  7  1  0
 22 11  1  0
M  END
>  <cnnaffinity>  (1) 
-5.41249

>  <filename>  (1) 
S=c1[nH]c(-c2cccnc2)cn1C1CCCC1

$$$$
