
     RDKit          3D

 29 31  0  0  0  0  0  0  0  0999 V2000
    4.9334    1.7985   16.9972 H   0  0  0  0  0  0  0  0  0  0  0  0
    5.3983    1.2891   17.8349 C   0  0  0  0  0  0  0  0  0  0  0  0
    6.5534    0.6588   17.5677 N   0  0  0  0  0  0  0  0  0  0  0  0
    7.1720    0.0423   18.5815 C   0  0  0  0  0  0  0  0  0  0  0  0
    8.1261   -0.4349   18.3635 H   0  0  0  0  0  0  0  0  0  0  0  0
    6.6520   -0.0017   19.8907 C   0  0  0  0  0  0  0  0  0  0  0  0
    7.3341   -0.6871   20.9448 N   0  0  0  0  0  0  0  0  0  0  0  0
    6.7348   -1.6075   21.7948 C   0  0  0  0  0  0  0  0  0  0  0  0
    5.6846   -1.8383   21.6906 H   0  0  0  0  0  0  0  0  0  0  0  0
    7.6750   -2.0689   22.6573 C   0  0  0  0  0  0  0  0  0  0  0  0
    7.5616   -3.0150   23.7761 C   0  0  0  0  0  0  0  0  0  0  0  0
    6.2864   -3.2728   24.3093 C   0  0  0  0  0  0  0  0  0  0  0  0
    5.4343   -2.7396   23.9018 H   0  0  0  0  0  0  0  0  0  0  0  0
    6.1123   -4.1867   25.3497 C   0  0  0  0  0  0  0  0  0  0  0  0
    5.1138   -4.3773   25.7379 H   0  0  0  0  0  0  0  0  0  0  0  0
    7.2165   -4.8576   25.8884 C   0  0  0  0  0  0  0  0  0  0  0  0
    7.1118   -5.5742   26.6990 H   0  0  0  0  0  0  0  0  0  0  0  0
    8.4872   -4.5918   25.3650 C   0  0  0  0  0  0  0  0  0  0  0  0
    9.8711   -5.4183   26.0322 Cl  0  0  0  0  0  0  0  0  0  0  0  0
    8.6719   -3.6850   24.3221 C   0  0  0  0  0  0  0  0  0  0  0  0
    9.6744   -3.5282   23.9378 H   0  0  0  0  0  0  0  0  0  0  0  0
    8.8475   -1.4155   22.3032 N   0  0  0  0  0  0  0  0  0  0  0  0
    9.7475   -1.3993   22.7494 H   0  0  0  0  0  0  0  0  0  0  0  0
    8.6535   -0.5195   21.3070 C   0  0  0  0  0  0  0  0  0  0  0  0
    9.8100    0.5438   20.7832 S   0  0  0  0  0  0  0  0  0  0  0  0
    5.4410    0.6454   20.1546 C   0  0  0  0  0  0  0  0  0  0  0  0
    5.0323    0.6342   21.1678 H   0  0  0  0  0  0  0  0  0  0  0  0
    4.8058    1.3102   19.1030 C   0  0  0  0  0  0  0  0  0  0  0  0
    3.8745    1.8437   19.2610 H   0  0  0  0  0  0  0  0  0  0  0  0
  1  2  1  0
  2  3  2  0
  3  4  1  0
  4  5  1  0
  4  6  2  0
  6  7  1  0
  7  8  1  0
  8  9  1  0
  8 10  2  0
 10 11  1  0
 11 12  2  0
 12 13  1  0
 12 14  1  0
 14 15  1  0
 14 16  2  0
 16 17  1  0
 16 18  1  0
 18 19  1  0
 18 20  2  0
 20 21  1  0
 10 22  1  0
 22 23  1  0
 22 24  1  0
 24 25  2  0
  6 26  1  0
 26 27  1  0
 26 28  2  0
 28 29  1  0
 28  2  1  0
 24  7  1  0
 20 11  1  0
M  END
>  <cnnaffinity>  (1) 
-5.65887

>  <filename>  (1) 
S=c1[nH]c(-c2cccc(Cl)c2)cn1-c1cccnc1

$$$$
