
     RDKit          3D

 34 36  0  0  0  0  0  0  0  0999 V2000
    7.6003    1.0714   22.2730 H   0  0  0  0  0  0  0  0  0  0  0  0
    7.6963    0.0117   22.1362 C   0  0  0  0  0  0  0  0  0  0  0  0
    7.3288   -0.6082   21.0071 C   0  0  0  0  0  0  0  0  0  0  0  0
    6.6493    0.0594   19.8892 C   0  0  0  0  0  0  0  0  0  0  0  0
    7.1863    0.0220   18.5934 C   0  0  0  0  0  0  0  0  0  0  0  0
    8.1326   -0.4837   18.4044 H   0  0  0  0  0  0  0  0  0  0  0  0
    6.6150    0.6049   17.5337 N   0  0  0  0  0  0  0  0  0  0  0  0
    5.4577    1.2555   17.7352 C   0  0  0  0  0  0  0  0  0  0  0  0
    5.0068    1.7213   16.8611 H   0  0  0  0  0  0  0  0  0  0  0  0
    4.8350    1.3525   18.9851 C   0  0  0  0  0  0  0  0  0  0  0  0
    3.8947    1.8818   19.0870 H   0  0  0  0  0  0  0  0  0  0  0  0
    5.4532    0.7660   20.0876 C   0  0  0  0  0  0  0  0  0  0  0  0
    5.0254    0.8282   21.0902 H   0  0  0  0  0  0  0  0  0  0  0  0
    7.5580   -1.9741   20.8821 N   0  0  0  0  0  0  0  0  0  0  0  0
    7.1580   -2.5044   20.1275 H   0  0  0  0  0  0  0  0  0  0  0  0
    8.0898   -2.7527   21.8626 C   0  0  0  0  0  0  0  0  0  0  0  0
    8.1059   -4.3995   21.7387 S   0  0  0  0  0  0  0  0  0  0  0  0
    8.6005   -2.0886   22.9083 N   0  0  0  0  0  0  0  0  0  0  0  0
    8.9789   -2.6486   23.6465 H   0  0  0  0  0  0  0  0  0  0  0  0
    8.3297   -0.7150   23.2623 C   0  0  1  0  0  0  0  0  0  0  0  0
    7.6822   -0.6796   24.1591 H   0  0  0  0  0  0  0  0  0  0  0  0
    9.6452   -0.2341   23.6464 N   0  0  0  0  0  0  0  0  0  0  0  0
   10.3000   -0.5670   22.9522 H   0  0  0  0  0  0  0  0  0  0  0  0
    9.8562    1.1221   23.9375 C   0  0  0  0  0  0  0  0  0  0  0  0
    8.8598    1.9230   24.5118 C   0  0  0  0  0  0  0  0  0  0  0  0
    7.9137    1.4654   24.7838 H   0  0  0  0  0  0  0  0  0  0  0  0
    9.0907    3.2807   24.7403 C   0  0  0  0  0  0  0  0  0  0  0  0
    8.2908    3.8908   25.1500 H   0  0  0  0  0  0  0  0  0  0  0  0
   10.3274    3.8535   24.4232 C   0  0  0  0  0  0  0  0  0  0  0  0
   10.5009    4.9094   24.6105 H   0  0  0  0  0  0  0  0  0  0  0  0
   11.3486    3.0397   23.9181 C   0  0  0  0  0  0  0  0  0  0  0  0
   12.3262    3.4661   23.7036 H   0  0  0  0  0  0  0  0  0  0  0  0
   11.1137    1.6842   23.6685 C   0  0  0  0  0  0  0  0  0  0  0  0
   11.8925    1.0317   23.2867 H   0  0  0  0  0  0  0  0  0  0  0  0
  1  2  1  0
  2  3  2  0
  3  4  1  0
  4  5  2  0
  5  6  1  0
  5  7  1  0
  7  8  2  0
  8  9  1  0
  8 10  1  0
 10 11  1  0
 10 12  2  0
 12 13  1  0
  3 14  1  0
 14 15  1  0
 14 16  1  0
 16 17  2  0
 16 18  1  0
 18 19  1  0
 18 20  1  0
 20 21  1  1
 20 22  1  0
 22 23  1  0
 22 24  1  0
 24 25  2  0
 25 26  1  0
 25 27  1  0
 27 28  1  0
 27 29  2  0
 29 30  1  0
 29 31  1  0
 31 32  1  0
 31 33  2  0
 33 34  1  0
 20  2  1  0
 33 24  1  0
 12  4  1  0
M  END
>  <cnnaffinity>  (1) 
-5.10893

>  <filename>  (1) 
S=C1NC(c2cccnc2)=C[C@H](Nc2ccccc2)N1

$$$$
