
     RDKit          3D

 32 34  0  0  0  0  0  0  0  0999 V2000
    4.9705    1.8963   16.9910 H   0  0  0  0  0  0  0  0  0  0  0  0
    5.4288    1.3301   17.8011 C   0  0  0  0  0  0  0  0  0  0  0  0
    6.5798    0.7052   17.5029 N   0  0  0  0  0  0  0  0  0  0  0  0
    7.1897    0.0156   18.4718 C   0  0  0  0  0  0  0  0  0  0  0  0
    8.1276   -0.4776   18.2120 H   0  0  0  0  0  0  0  0  0  0  0  0
    6.6766   -0.1069   19.7764 C   0  0  0  0  0  0  0  0  0  0  0  0
    7.4019   -0.8429   20.7632 N   0  0  0  0  0  0  0  0  0  0  0  0
    8.7420   -0.6044   21.0685 C   0  0  0  0  0  0  0  0  0  0  0  0
    9.2505    0.2331   20.6164 H   0  0  0  0  0  0  0  0  0  0  0  0
    9.1275   -1.4956   22.0161 C   0  0  0  0  0  0  0  0  0  0  0  0
   10.4183   -1.6149   22.7776 C   0  0  0  0  0  0  0  0  0  0  0  0
   11.2628   -1.4685   22.0930 H   0  0  0  0  0  0  0  0  0  0  0  0
   10.5190   -2.6259   23.1877 H   0  0  0  0  0  0  0  0  0  0  0  0
   10.4809   -0.5913   23.9054 C   0  0  0  0  0  0  0  0  0  0  0  0
   10.9593    0.7102   23.6821 C   0  0  0  0  0  0  0  0  0  0  0  0
   11.5641    0.9164   22.7963 H   0  0  0  0  0  0  0  0  0  0  0  0
   10.6759    1.7267   24.6000 C   0  0  0  0  0  0  0  0  0  0  0  0
   10.9535    2.7578   24.3789 H   0  0  0  0  0  0  0  0  0  0  0  0
    9.9932    1.4348   25.7855 C   0  0  0  0  0  0  0  0  0  0  0  0
    9.6989    2.2249   26.4688 H   0  0  0  0  0  0  0  0  0  0  0  0
    9.6543    0.1095   26.0695 C   0  0  0  0  0  0  0  0  0  0  0  0
    8.8636   -0.3079   27.5643 Cl  0  0  0  0  0  0  0  0  0  0  0  0
    9.9074   -0.9065   25.1466 C   0  0  0  0  0  0  0  0  0  0  0  0
    9.6746   -1.9341   25.4147 H   0  0  0  0  0  0  0  0  0  0  0  0
    7.9997   -2.2642   22.2707 N   0  0  0  0  0  0  0  0  0  0  0  0
    7.8241   -2.9580   22.9808 H   0  0  0  0  0  0  0  0  0  0  0  0
    6.9327   -1.9016   21.5124 C   0  0  0  0  0  0  0  0  0  0  0  0
    5.4736   -2.7016   21.5470 S   0  0  0  0  0  0  0  0  0  0  0  0
    5.4572    0.5123   20.0728 C   0  0  0  0  0  0  0  0  0  0  0  0
    5.0241    0.4086   21.0667 H   0  0  0  0  0  0  0  0  0  0  0  0
    4.8348    1.2603   19.0657 C   0  0  0  0  0  0  0  0  0  0  0  0
    3.9068    1.7912   19.2460 H   0  0  0  0  0  0  0  0  0  0  0  0
  1  2  1  0
  2  3  2  0
  3  4  1  0
  4  5  1  0
  4  6  2  0
  6  7  1  0
  7  8  1  0
  8  9  1  0
  8 10  2  0
 10 11  1  0
 11 12  1  0
 11 13  1  0
 11 14  1  0
 14 15  2  0
 15 16  1  0
 15 17  1  0
 17 18  1  0
 17 19  2  0
 19 20  1  0
 19 21  1  0
 21 22  1  0
 21 23  2  0
 23 24  1  0
 10 25  1  0
 25 26  1  0
 25 27  1  0
 27 28  2  0
  6 29  1  0
 29 30  1  0
 29 31  2  0
 31 32  1  0
 31  2  1  0
 27  7  1  0
 23 14  1  0
M  END
>  <cnnaffinity>  (1) 
-5.48793

>  <filename>  (1) 
S=c1[nH]c(Cc2cccc(Cl)c2)cn1-c1cccnc1

$$$$
