
     RDKit          3D

 35 37  0  0  0  0  0  0  0  0999 V2000
    8.6058    1.0875   21.6887 H   0  0  0  0  0  0  0  0  0  0  0  0
    7.9401    0.2928   21.9939 C   0  0  0  0  0  0  0  0  0  0  0  0
    7.3624    0.2582   23.2096 C   0  0  0  0  0  0  0  0  0  0  0  0
    7.3925    1.3703   24.2256 C   0  0  0  0  0  0  0  0  0  0  0  0
    8.4215    1.7366   24.2856 H   0  0  0  0  0  0  0  0  0  0  0  0
    7.1522    0.9672   25.2193 H   0  0  0  0  0  0  0  0  0  0  0  0
    6.4806    2.5387   23.8729 C   0  0  0  0  0  0  0  0  0  0  0  0
    5.2178    2.6687   24.4653 C   0  0  0  0  0  0  0  0  0  0  0  0
    4.9031    1.9389   25.2097 H   0  0  0  0  0  0  0  0  0  0  0  0
    4.3679    3.7292   24.1334 C   0  0  0  0  0  0  0  0  0  0  0  0
    3.4010    3.8434   24.6134 H   0  0  0  0  0  0  0  0  0  0  0  0
    4.7888    4.6659   23.1870 C   0  0  0  0  0  0  0  0  0  0  0  0
    3.7437    5.9983   22.7797 Cl  0  0  0  0  0  0  0  0  0  0  0  0
    6.0453    4.5648   22.5822 C   0  0  0  0  0  0  0  0  0  0  0  0
    6.3556    5.3146   21.8596 H   0  0  0  0  0  0  0  0  0  0  0  0
    6.8840    3.5034   22.9339 C   0  0  0  0  0  0  0  0  0  0  0  0
    7.8757    3.4415   22.4841 H   0  0  0  0  0  0  0  0  0  0  0  0
    6.6282   -0.8787   23.5401 N   0  0  0  0  0  0  0  0  0  0  0  0
    6.2070   -1.0300   24.4445 H   0  0  0  0  0  0  0  0  0  0  0  0
    6.4489   -1.9580   22.7350 C   0  0  0  0  0  0  0  0  0  0  0  0
    5.6382   -3.3101   23.2597 S   0  0  0  0  0  0  0  0  0  0  0  0
    6.9450   -1.8615   21.4908 N   0  0  0  0  0  0  0  0  0  0  0  0
    6.5812   -2.5735   20.8824 H   0  0  0  0  0  0  0  0  0  0  0  0
    7.5675   -0.6721   20.9213 C   0  0  1  0  0  0  0  0  0  0  0  0
    8.4851   -1.0123   20.4142 H   0  0  0  0  0  0  0  0  0  0  0  0
    6.6859   -0.0341   19.8392 C   0  0  0  0  0  0  0  0  0  0  0  0
    7.1636    0.0119   18.5258 C   0  0  0  0  0  0  0  0  0  0  0  0
    8.1036   -0.4825   18.2829 H   0  0  0  0  0  0  0  0  0  0  0  0
    6.5602    0.6495   17.5147 N   0  0  0  0  0  0  0  0  0  0  0  0
    5.4119    1.2798   17.7989 C   0  0  0  0  0  0  0  0  0  0  0  0
    4.9459    1.8159   16.9727 H   0  0  0  0  0  0  0  0  0  0  0  0
    4.8178    1.2661   19.0678 C   0  0  0  0  0  0  0  0  0  0  0  0
    3.8879    1.8006   19.2255 H   0  0  0  0  0  0  0  0  0  0  0  0
    5.4614    0.5933   20.1112 C   0  0  0  0  0  0  0  0  0  0  0  0
    5.0363    0.5830   21.1189 H   0  0  0  0  0  0  0  0  0  0  0  0
  1  2  1  0
  2  3  2  0
  3  4  1  0
  4  5  1  0
  4  6  1  0
  4  7  1  0
  7  8  2  0
  8  9  1  0
  8 10  1  0
 10 11  1  0
 10 12  2  0
 12 13  1  0
 12 14  1  0
 14 15  1  0
 14 16  2  0
 16 17  1  0
  3 18  1  0
 18 19  1  0
 18 20  1  0
 20 21  2  0
 20 22  1  0
 22 23  1  0
 22 24  1  0
 24 25  1  6
 24 26  1  0
 26 27  2  0
 27 28  1  0
 27 29  1  0
 29 30  2  0
 30 31  1  0
 30 32  1  0
 32 33  1  0
 32 34  2  0
 34 35  1  0
 24  2  1  0
 34 26  1  0
 16  7  1  0
M  END
>  <cnnaffinity>  (1) 
-4.89302

>  <filename>  (1) 
S=C1NC(Cc2ccc(Cl)cc2)=C[C@H](c2cccnc2)N1

$$$$
