
     RDKit          3D

 33 35  0  0  0  0  0  0  0  0999 V2000
    5.6060   -1.5761   21.9413 H   0  0  0  0  0  0  0  0  0  0  0  0
    6.6680   -1.4794   21.9424 C   0  0  0  0  0  0  0  0  0  0  0  0
    7.3157   -0.7433   21.0229 C   0  0  0  0  0  0  0  0  0  0  0  0
    6.6655    0.0267   19.9482 C   0  0  0  0  0  0  0  0  0  0  0  0
    7.2147    0.0604   18.6508 C   0  0  0  0  0  0  0  0  0  0  0  0
    8.1525   -0.4536   18.4295 H   0  0  0  0  0  0  0  0  0  0  0  0
    6.6371    0.6658   17.6089 N   0  0  0  0  0  0  0  0  0  0  0  0
    5.4752    1.3012   17.8299 C   0  0  0  0  0  0  0  0  0  0  0  0
    5.0332    1.7989   16.9695 H   0  0  0  0  0  0  0  0  0  0  0  0
    4.8416    1.3366   19.0753 C   0  0  0  0  0  0  0  0  0  0  0  0
    3.9071    1.8744   19.1839 H   0  0  0  0  0  0  0  0  0  0  0  0
    5.4384    0.6863   20.1541 C   0  0  0  0  0  0  0  0  0  0  0  0
    4.9758    0.6986   21.1451 H   0  0  0  0  0  0  0  0  0  0  0  0
    8.7058   -0.7598   21.0434 N   0  0  0  0  0  0  0  0  0  0  0  0
    9.2652   -0.1298   20.4994 H   0  0  0  0  0  0  0  0  0  0  0  0
    9.4625   -1.3908   21.9764 C   0  0  0  0  0  0  0  0  0  0  0  0
   11.1030   -1.1964   22.0219 S   0  0  0  0  0  0  0  0  0  0  0  0
    8.7996   -2.1692   22.8480 N   0  0  0  0  0  0  0  0  0  0  0  0
    9.2571   -2.2375   23.7371 H   0  0  0  0  0  0  0  0  0  0  0  0
    7.3730   -2.2376   23.0029 C   0  0  1  0  0  0  0  0  0  0  0  0
    7.0260   -3.2898   23.0029 H   0  0  0  0  0  0  0  0  0  0  0  0
    7.2523   -1.7240   24.3474 N   0  0  0  0  0  0  0  0  0  0  0  0
    7.7088   -0.8269   24.4440 H   0  0  0  0  0  0  0  0  0  0  0  0
    6.0550   -1.5900   25.0019 C   0  0  0  0  0  0  0  0  0  0  0  0
    6.0485   -0.5332   25.8163 N   0  0  0  0  0  0  0  0  0  0  0  0
    4.9270   -0.3081   26.5112 C   0  0  0  0  0  0  0  0  0  0  0  0
    4.9442    0.5442   27.1898 H   0  0  0  0  0  0  0  0  0  0  0  0
    3.7667   -1.0743   26.3834 C   0  0  0  0  0  0  0  0  0  0  0  0
    2.8709   -0.7908   26.9196 H   0  0  0  0  0  0  0  0  0  0  0  0
    3.7927   -2.1790   25.5259 C   0  0  0  0  0  0  0  0  0  0  0  0
    2.9070   -2.8007   25.3917 H   0  0  0  0  0  0  0  0  0  0  0  0
    4.9728   -2.4757   24.8513 C   0  0  0  0  0  0  0  0  0  0  0  0
    5.0694   -3.3337   24.1970 H   0  0  0  0  0  0  0  0  0  0  0  0
  1  2  1  0
  2  3  2  0
  3  4  1  0
  4  5  2  0
  5  6  1  0
  5  7  1  0
  7  8  2  0
  8  9  1  0
  8 10  1  0
 10 11  1  0
 10 12  2  0
 12 13  1  0
  3 14  1  0
 14 15  1  0
 14 16  1  0
 16 17  2  0
 16 18  1  0
 18 19  1  0
 18 20  1  0
 20 21  1  1
 20 22  1  0
 22 23  1  0
 22 24  1  0
 24 25  2  0
 25 26  1  0
 26 27  1  0
 26 28  2  0
 28 29  1  0
 28 30  1  0
 30 31  1  0
 30 32  2  0
 32 33  1  0
 20  2  1  0
 32 24  1  0
 12  4  1  0
M  END
>  <cnnaffinity>  (1) 
-4.92011

>  <filename>  (1) 
S=C1NC(c2cccnc2)=C[C@H](Nc2ccccn2)N1

$$$$
