
     RDKit          3D

 26 28  0  0  0  0  0  0  0  0999 V2000
   11.6720    0.1523   23.7025 H   0  0  0  0  0  0  0  0  0  0  0  0
   12.2396   -0.2819   22.5673 S   0  0  0  0  0  0  0  0  0  0  0  0
   11.3433   -1.8808   22.4749 C   0  0  0  0  0  0  0  0  0  0  0  0
   11.2687   -2.1347   21.4131 H   0  0  0  0  0  0  0  0  0  0  0  0
   11.9389   -2.6642   22.9531 H   0  0  0  0  0  0  0  0  0  0  0  0
    9.9901   -1.8554   22.9782 N   0  0  0  0  0  0  0  0  0  0  0  0
    9.4400   -1.8873   24.2774 C   0  0  0  0  0  0  0  0  0  0  0  0
   10.0260   -2.1106   25.1615 H   0  0  0  0  0  0  0  0  0  0  0  0
    8.1245   -1.5512   24.2043 C   0  0  0  0  0  0  0  0  0  0  0  0
    7.3351   -1.4040   24.9225 H   0  0  0  0  0  0  0  0  0  0  0  0
    7.8548   -1.3212   22.8608 N   0  0  0  0  0  0  0  0  0  0  0  0
    6.8205   -0.8046   22.1676 N   0  0  0  0  0  0  0  0  0  0  0  0
    7.3249   -0.6648   20.9342 C   0  0  0  0  0  0  0  0  0  0  0  0
    6.5452   -0.0091   19.8701 C   0  0  0  0  0  0  0  0  0  0  0  0
    7.0838    0.0242   18.5777 C   0  0  0  0  0  0  0  0  0  0  0  0
    8.0237   -0.4837   18.3622 H   0  0  0  0  0  0  0  0  0  0  0  0
    6.5341    0.6606   17.5428 N   0  0  0  0  0  0  0  0  0  0  0  0
    5.3850    1.3154   17.7759 C   0  0  0  0  0  0  0  0  0  0  0  0
    4.9586    1.8547   16.9337 H   0  0  0  0  0  0  0  0  0  0  0  0
    4.7474    1.3279   19.0190 C   0  0  0  0  0  0  0  0  0  0  0  0
    3.8293    1.8901   19.1445 H   0  0  0  0  0  0  0  0  0  0  0  0
    5.3224    0.6556   20.0935 C   0  0  0  0  0  0  0  0  0  0  0  0
    4.8695    0.6693   21.0876 H   0  0  0  0  0  0  0  0  0  0  0  0
    8.6686   -1.1134   20.8307 C   0  0  0  0  0  0  0  0  0  0  0  0
    9.3059   -1.1063   19.9646 H   0  0  0  0  0  0  0  0  0  0  0  0
    8.9674   -1.4968   22.1217 C   0  0  0  0  0  0  0  0  0  0  0  0
  1  2  1  0
  2  3  1  0
  3  4  1  0
  3  5  1  0
  3  6  1  0
  6  7  1  0
  7  8  1  0
  7  9  2  0
  9 10  1  0
  9 11  1  0
 11 12  1  0
 12 13  2  0
 13 14  1  0
 14 15  2  0
 15 16  1  0
 15 17  1  0
 17 18  2  0
 18 19  1  0
 18 20  1  0
 20 21  1  0
 20 22  2  0
 22 23  1  0
 13 24  1  0
 24 25  1  0
 24 26  2  0
 26  6  1  0
 26 11  1  0
 22 14  1  0
M  END
>  <cnnaffinity>  (1) 
-4.93286

>  <filename>  (1) 
SCn1ccn2nc(-c3cccnc3)cc12

$$$$
