
     RDKit          3D

 30 32  0  0  0  0  0  0  0  0999 V2000
    4.9860    1.7873   16.9464 H   0  0  0  0  0  0  0  0  0  0  0  0
    5.4294    1.2977   17.8076 C   0  0  0  0  0  0  0  0  0  0  0  0
    6.5996    0.6522   17.6528 N   0  0  0  0  0  0  0  0  0  0  0  0
    7.1536    0.0916   18.7419 C   0  0  0  0  0  0  0  0  0  0  0  0
    8.0924   -0.4429   18.6335 H   0  0  0  0  0  0  0  0  0  0  0  0
    6.5725    0.1517   20.0174 C   0  0  0  0  0  0  0  0  0  0  0  0
    7.2751   -0.4604   21.1993 C   0  0  2  0  0  0  0  0  0  0  0  0
    6.7160   -0.2399   22.1131 H   0  0  0  0  0  0  0  0  0  0  0  0
    9.1147    0.2774   21.3582 Br  0  0  0  0  0  0  0  0  0  0  0  0
    7.3779   -1.9648   21.0072 C   0  0  0  0  0  0  0  0  0  0  0  0
    8.1222   -2.1454   20.2343 H   0  0  0  0  0  0  0  0  0  0  0  0
    6.4307   -2.3768   20.6554 H   0  0  0  0  0  0  0  0  0  0  0  0
    7.7808   -2.6649   22.2700 C   0  0  0  0  0  0  0  0  0  0  0  0
    6.8273   -3.2221   23.1399 C   0  0  0  0  0  0  0  0  0  0  0  0
    5.7718   -3.1128   22.9257 H   0  0  0  0  0  0  0  0  0  0  0  0
    7.2393   -3.9542   24.2650 C   0  0  0  0  0  0  0  0  0  0  0  0
    6.5197   -4.3979   24.9463 H   0  0  0  0  0  0  0  0  0  0  0  0
    8.6042   -4.1258   24.4902 C   0  0  0  0  0  0  0  0  0  0  0  0
    9.5363   -3.5925   23.6294 C   0  0  0  0  0  0  0  0  0  0  0  0
    9.1394   -2.8341   22.5356 C   0  0  0  0  0  0  0  0  0  0  0  0
    9.8800   -2.4388   21.8538 H   0  0  0  0  0  0  0  0  0  0  0  0
   10.7919   -3.9540   23.9785 O   0  0  0  0  0  0  0  0  0  0  0  0
   10.5938   -4.8732   25.0656 C   0  0  0  0  0  0  0  0  0  0  0  0
   11.2394   -4.6099   25.9035 H   0  0  0  0  0  0  0  0  0  0  0  0
   10.8145   -5.8913   24.7356 H   0  0  0  0  0  0  0  0  0  0  0  0
    9.2211   -4.8185   25.4752 O   0  0  0  0  0  0  0  0  0  0  0  0
    5.3332    0.7772   20.1672 C   0  0  0  0  0  0  0  0  0  0  0  0
    4.8350    0.8168   21.1360 H   0  0  0  0  0  0  0  0  0  0  0  0
    4.7637    1.3611   19.0374 C   0  0  0  0  0  0  0  0  0  0  0  0
    3.8152    1.8808   19.1027 H   0  0  0  0  0  0  0  0  0  0  0  0
  1  2  1  0
  2  3  2  0
  3  4  1  0
  4  5  1  0
  4  6  2  0
  6  7  1  0
  7  8  1  1
  7  9  1  0
  7 10  1  0
 10 11  1  0
 10 12  1  0
 10 13  1  0
 13 14  2  0
 14 15  1  0
 14 16  1  0
 16 17  1  0
 16 18  2  0
 18 19  1  0
 19 20  2  0
 20 21  1  0
 19 22  1  0
 22 23  1  0
 23 24  1  0
 23 25  1  0
 23 26  1  0
  6 27  1  0
 27 28  1  0
 27 29  2  0
 29 30  1  0
 29  2  1  0
 20 13  1  0
 26 18  1  0
M  END
>  <cnnaffinity>  (1) 
-4.92943

>  <filename>  (1) 
Br[C@H](Cc1ccc2c(c1)OCO2)c1cccnc1

$$$$
