
     RDKit          3D

 26 27  0  0  0  0  0  0  0  0999 V2000
    7.7704   -1.7441   20.6432 H   0  0  0  0  0  0  0  0  0  0  0  0
    7.3741   -0.7565   20.8658 C   0  0  0  0  0  0  0  0  0  0  0  0
    7.6029   -0.2371   22.1225 C   0  0  0  0  0  0  0  0  0  0  0  0
    7.0128    1.5303   22.6006 Br  0  0  0  0  0  0  0  0  0  0  0  0
    8.5310   -1.1989   23.2654 S   0  0  0  0  0  0  0  0  0  0  0  0
   10.1642   -0.7748   22.7489 C   0  0  0  0  0  0  0  0  0  0  0  0
   10.8551   -1.5378   21.8046 C   0  0  0  0  0  0  0  0  0  0  0  0
   10.3269   -2.3244   21.2864 H   0  0  0  0  0  0  0  0  0  0  0  0
   12.2097   -1.3032   21.5389 C   0  0  0  0  0  0  0  0  0  0  0  0
   12.7328   -1.9445   20.8308 H   0  0  0  0  0  0  0  0  0  0  0  0
   12.8714   -0.2538   22.1977 C   0  0  0  0  0  0  0  0  0  0  0  0
   13.9195   -0.0489   22.0053 H   0  0  0  0  0  0  0  0  0  0  0  0
   12.1699    0.5526   23.0993 C   0  0  0  0  0  0  0  0  0  0  0  0
   12.6768    1.3738   23.6010 H   0  0  0  0  0  0  0  0  0  0  0  0
   10.8201    0.2934   23.3581 C   0  0  0  0  0  0  0  0  0  0  0  0
   10.2656    0.9098   24.0504 H   0  0  0  0  0  0  0  0  0  0  0  0
    6.6522   -0.0302   19.8117 C   0  0  0  0  0  0  0  0  0  0  0  0
    7.1368   -0.0187   18.4886 C   0  0  0  0  0  0  0  0  0  0  0  0
    8.0574   -0.5551   18.2686 H   0  0  0  0  0  0  0  0  0  0  0  0
    6.5366    0.6574   17.4890 N   0  0  0  0  0  0  0  0  0  0  0  0
    5.4079    1.3317   17.7815 C   0  0  0  0  0  0  0  0  0  0  0  0
    4.9153    1.8927   16.9944 H   0  0  0  0  0  0  0  0  0  0  0  0
    4.8424    1.3481   19.0630 C   0  0  0  0  0  0  0  0  0  0  0  0
    3.9239    1.9019   19.2365 H   0  0  0  0  0  0  0  0  0  0  0  0
    5.4825    0.6777   20.1062 C   0  0  0  0  0  0  0  0  0  0  0  0
    5.0867    0.7034   21.1216 H   0  0  0  0  0  0  0  0  0  0  0  0
  1  2  1  0
  2  3  2  3
  3  4  1  0
  3  5  1  0
  5  6  1  0
  6  7  2  0
  7  8  1  0
  7  9  1  0
  9 10  1  0
  9 11  2  0
 11 12  1  0
 11 13  1  0
 13 14  1  0
 13 15  2  0
 15 16  1  0
  2 17  1  0
 17 18  2  0
 18 19  1  0
 18 20  1  0
 20 21  2  0
 21 22  1  0
 21 23  1  0
 23 24  1  0
 23 25  2  0
 25 26  1  0
 15  6  1  0
 25 17  1  0
M  END
>  <cnnaffinity>  (1) 
-4.65051

>  <filename>  (1) 
BrC(=Cc1cccnc1)Sc1ccccc1

$$$$
