
     RDKit          3D

 27 29  0  0  0  0  0  0  0  0999 V2000
    4.8909    1.8031   17.0180 H   0  0  0  0  0  0  0  0  0  0  0  0
    5.4089    1.2957   17.8254 C   0  0  0  0  0  0  0  0  0  0  0  0
    6.5696    0.6664   17.5660 N   0  0  0  0  0  0  0  0  0  0  0  0
    7.1779    0.0427   18.5907 C   0  0  0  0  0  0  0  0  0  0  0  0
    8.1279   -0.4530   18.4011 H   0  0  0  0  0  0  0  0  0  0  0  0
    6.6530    0.0310   19.8889 C   0  0  0  0  0  0  0  0  0  0  0  0
    7.3589   -0.6833   20.9266 C   0  0  0  0  0  0  0  0  0  0  0  0
    7.9297   -1.8440   20.7386 N   0  0  0  0  0  0  0  0  0  0  0  0
    8.4290   -2.2802   21.9437 N   0  0  0  0  0  0  0  0  0  0  0  0
    8.1625   -1.3642   22.8409 C   0  0  0  0  0  0  0  0  0  0  0  0
    8.4547   -1.4215   23.8865 H   0  0  0  0  0  0  0  0  0  0  0  0
    7.4936   -0.3148   22.2477 N   0  0  0  0  0  0  0  0  0  0  0  0
    7.1450    0.8968   22.8507 C   0  0  0  0  0  0  0  0  0  0  0  0
    7.3770    2.1194   22.2025 C   0  0  0  0  0  0  0  0  0  0  0  0
    7.8360    2.1291   21.2204 H   0  0  0  0  0  0  0  0  0  0  0  0
    7.0596    3.3332   22.8319 C   0  0  0  0  0  0  0  0  0  0  0  0
    7.2566    4.2784   22.3333 H   0  0  0  0  0  0  0  0  0  0  0  0
    6.4927    3.3275   24.1101 C   0  0  0  0  0  0  0  0  0  0  0  0
    6.2346    4.2631   24.6013 H   0  0  0  0  0  0  0  0  0  0  0  0
    6.2533    2.1173   24.7661 C   0  0  0  0  0  0  0  0  0  0  0  0
    5.4728    2.1142   26.5124 Br  0  0  0  0  0  0  0  0  0  0  0  0
    6.5873    0.9118   24.1348 C   0  0  0  0  0  0  0  0  0  0  0  0
    6.3974   -0.0252   24.6434 H   0  0  0  0  0  0  0  0  0  0  0  0
    5.4474    0.6721   20.1661 C   0  0  0  0  0  0  0  0  0  0  0  0
    5.0031    0.6537   21.1653 H   0  0  0  0  0  0  0  0  0  0  0  0
    4.8272    1.3126   19.1007 C   0  0  0  0  0  0  0  0  0  0  0  0
    3.8880    1.8271   19.2553 H   0  0  0  0  0  0  0  0  0  0  0  0
  1  2  1  0
  2  3  2  0
  3  4  1  0
  4  5  1  0
  4  6  2  0
  6  7  1  0
  7  8  2  0
  8  9  1  0
  9 10  2  0
 10 11  1  0
 10 12  1  0
 12 13  1  0
 13 14  2  0
 14 15  1  0
 14 16  1  0
 16 17  1  0
 16 18  2  0
 18 19  1  0
 18 20  1  0
 20 21  1  0
 20 22  2  0
 22 23  1  0
  6 24  1  0
 24 25  1  0
 24 26  2  0
 26 27  1  0
 26  2  1  0
 12  7  1  0
 22 13  1  0
M  END
>  <cnnaffinity>  (1) 
-5.11188

>  <filename>  (1) 
Brc1cccc(-n2cnnc2-c2cccnc2)c1

$$$$
