
     RDKit          3D

 27 29  0  0  0  0  0  0  0  0999 V2000
    4.7078    1.5293   17.2350 H   0  0  0  0  0  0  0  0  0  0  0  0
    5.4495    1.0993   17.9016 C   0  0  0  0  0  0  0  0  0  0  0  0
    6.6592    0.7837   17.4078 N   0  0  0  0  0  0  0  0  0  0  0  0
    7.5742    0.2663   18.2528 C   0  0  0  0  0  0  0  0  0  0  0  0
    8.5545    0.0212   17.8527 H   0  0  0  0  0  0  0  0  0  0  0  0
    7.3112    0.0227   19.6147 C   0  0  0  0  0  0  0  0  0  0  0  0
    8.2942   -0.5074   20.4616 N   0  0  0  0  0  0  0  0  0  0  0  0
    9.6193   -0.4694   20.2195 N   0  0  0  0  0  0  0  0  0  0  0  0
   10.1908   -1.0056   21.2396 N   0  0  0  0  0  0  0  0  0  0  0  0
    9.2797   -1.4276   22.1672 N   0  0  0  0  0  0  0  0  0  0  0  0
    8.1117   -1.1321   21.6776 C   0  0  0  0  0  0  0  0  0  0  0  0
    6.5824   -1.5433   22.4388 S   0  0  0  0  0  0  0  0  0  0  0  0
    6.1657   -2.9498   21.4725 C   0  0  0  0  0  0  0  0  0  0  0  0
    5.8425   -2.8079   20.1176 C   0  0  0  0  0  0  0  0  0  0  0  0
    5.7993   -1.8250   19.6578 H   0  0  0  0  0  0  0  0  0  0  0  0
    5.6209   -3.9497   19.3370 C   0  0  0  0  0  0  0  0  0  0  0  0
    5.4038   -3.8115   18.2867 H   0  0  0  0  0  0  0  0  0  0  0  0
    5.6578   -5.2314   19.9144 C   0  0  0  0  0  0  0  0  0  0  0  0
    5.4248   -6.1130   19.3153 H   0  0  0  0  0  0  0  0  0  0  0  0
    5.9595   -5.3655   21.2781 C   0  0  0  0  0  0  0  0  0  0  0  0
    6.0670   -7.0820   22.1170 Br  0  0  0  0  0  0  0  0  0  0  0  0
    6.2188   -4.2267   22.0438 C   0  0  0  0  0  0  0  0  0  0  0  0
    6.4934   -4.3369   23.0921 H   0  0  0  0  0  0  0  0  0  0  0  0
    6.0501    0.3481   20.1188 C   0  0  0  0  0  0  0  0  0  0  0  0
    5.8043    0.1984   21.1686 H   0  0  0  0  0  0  0  0  0  0  0  0
    5.1150    0.8989   19.2447 C   0  0  0  0  0  0  0  0  0  0  0  0
    4.1319    1.1851   19.5948 H   0  0  0  0  0  0  0  0  0  0  0  0
  1  2  1  0
  2  3  2  0
  3  4  1  0
  4  5  1  0
  4  6  2  0
  6  7  1  0
  7  8  1  0
  8  9  2  0
  9 10  1  0
 10 11  2  0
 11 12  1  0
 12 13  1  0
 13 14  2  0
 14 15  1  0
 14 16  1  0
 16 17  1  0
 16 18  2  0
 18 19  1  0
 18 20  1  0
 20 21  1  0
 20 22  2  0
 22 23  1  0
  6 24  1  0
 24 25  1  0
 24 26  2  0
 26 27  1  0
 26  2  1  0
 11  7  1  0
 22 13  1  0
M  END
>  <cnnaffinity>  (1) 
-5.00037

>  <filename>  (1) 
Brc1cccc(Sc2nnnn2-c2cccnc2)c1

$$$$
