
     RDKit          3D

 32 35  0  0  0  0  0  0  0  0999 V2000
    4.9484    1.8660   16.9725 H   0  0  0  0  0  0  0  0  0  0  0  0
    5.4145    1.3037   17.7742 C   0  0  0  0  0  0  0  0  0  0  0  0
    6.5561    0.6432   17.5146 N   0  0  0  0  0  0  0  0  0  0  0  0
    7.1417   -0.0161   18.5248 C   0  0  0  0  0  0  0  0  0  0  0  0
    8.0795   -0.5302   18.3326 H   0  0  0  0  0  0  0  0  0  0  0  0
    6.6122   -0.0443   19.8171 C   0  0  0  0  0  0  0  0  0  0  0  0
    7.3773   -0.7113   20.8468 C   0  0  0  0  0  0  0  0  0  0  0  0
    8.5086   -1.3598   20.6094 N   0  0  0  0  0  0  0  0  0  0  0  0
    8.9538   -1.6600   21.8620 N   0  0  0  0  0  0  0  0  0  0  0  0
   10.1016   -2.1697   22.4520 C   0  0  0  0  0  0  0  0  0  0  0  0
   10.9471   -2.5937   21.9221 H   0  0  0  0  0  0  0  0  0  0  0  0
    9.9441   -2.0321   23.8315 C   0  0  0  0  0  0  0  0  0  0  0  0
   10.6611   -2.3243   24.5965 H   0  0  0  0  0  0  0  0  0  0  0  0
    8.6853   -1.4624   24.0948 N   0  0  0  0  0  0  0  0  0  0  0  0
    8.1894   -1.0375   25.3306 C   0  0  0  0  0  0  0  0  0  0  0  0
    6.8109   -0.8638   25.5302 C   0  0  0  0  0  0  0  0  0  0  0  0
    6.1182   -1.1040   24.7275 H   0  0  0  0  0  0  0  0  0  0  0  0
    6.3235   -0.3664   26.7393 C   0  0  0  0  0  0  0  0  0  0  0  0
    5.2599   -0.1810   26.8569 H   0  0  0  0  0  0  0  0  0  0  0  0
    7.2028   -0.0605   27.7797 C   0  0  0  0  0  0  0  0  0  0  0  0
    6.5377    0.7085   29.3987 Br  0  0  0  0  0  0  0  0  0  0  0  0
    8.5771   -0.2601   27.5948 C   0  0  0  0  0  0  0  0  0  0  0  0
    9.2682   -0.0183   28.3944 H   0  0  0  0  0  0  0  0  0  0  0  0
    9.0727   -0.7357   26.3788 C   0  0  0  0  0  0  0  0  0  0  0  0
   10.1474   -0.8255   26.2378 H   0  0  0  0  0  0  0  0  0  0  0  0
    8.1335   -1.2270   22.8438 C   0  0  0  0  0  0  0  0  0  0  0  0
    7.0737   -0.6130   22.2734 C   0  0  0  0  0  0  0  0  0  0  0  0
    6.2435   -0.0960   22.7398 H   0  0  0  0  0  0  0  0  0  0  0  0
    5.4170    0.6266   20.0941 C   0  0  0  0  0  0  0  0  0  0  0  0
    4.9779    0.6382   21.0943 H   0  0  0  0  0  0  0  0  0  0  0  0
    4.8188    1.3073   19.0402 C   0  0  0  0  0  0  0  0  0  0  0  0
    3.9027    1.8631   19.1910 H   0  0  0  0  0  0  0  0  0  0  0  0
  1  2  1  0
  2  3  2  0
  3  4  1  0
  4  5  1  0
  4  6  2  0
  6  7  1  0
  7  8  2  0
  8  9  1  0
  9 10  1  0
 10 11  1  0
 10 12  2  0
 12 13  1  0
 12 14  1  0
 14 15  1  0
 15 16  2  0
 16 17  1  0
 16 18  1  0
 18 19  1  0
 18 20  2  0
 20 21  1  0
 20 22  1  0
 22 23  1  0
 22 24  2  0
 24 25  1  0
 14 26  1  0
 26 27  2  0
 27 28  1  0
  6 29  1  0
 29 30  1  0
 29 31  2  0
 31 32  1  0
 31  2  1  0
 27  7  1  0
 26  9  1  0
 24 15  1  0
M  END
>  <cnnaffinity>  (1) 
-5.47287

>  <filename>  (1) 
Brc1ccc(-n2ccn3nc(-c4cccnc4)cc23)cc1

$$$$
