
     RDKit          3D

 34 36  0  0  0  0  0  0  0  0999 V2000
    8.4294   -3.4317   27.2873 Br  0  0  0  0  0  0  0  0  0  0  0  0
    7.6389   -2.1770   26.0874 C   0  0  0  0  0  0  0  0  0  0  0  0
    6.2613   -1.8887   26.1963 C   0  0  0  0  0  0  0  0  0  0  0  0
    5.6017   -1.1307   25.2942 N   0  0  0  0  0  0  0  0  0  0  0  0
    6.3694   -0.6643   24.2755 C   0  0  0  0  0  0  0  0  0  0  0  0
    7.7705   -0.9149   24.1852 C   0  0  0  0  0  0  0  0  0  0  0  0
    8.5726   -0.4315   23.1451 N   0  0  0  0  0  0  0  0  0  0  0  0
   10.0418   -0.5106   23.1899 C   0  0  0  0  0  0  0  0  0  0  0  0
   10.4711    0.1301   21.8757 C   0  0  0  0  0  0  0  0  0  0  0  0
    9.2686    0.9412   21.3864 C   0  0  0  0  0  0  0  0  0  0  0  0
    8.0286    0.2871   21.9893 C   0  0  0  0  0  0  0  0  0  0  0  0
    7.3829   -0.7074   21.0177 C   0  0  0  0  0  0  0  0  0  0  0  0
    6.6601    0.0055   19.8890 C   0  0  0  0  0  0  0  0  0  0  0  0
    5.4508    0.6501   20.1421 C   0  0  0  0  0  0  0  0  0  0  0  0
    4.8210    1.3024   19.0832 C   0  0  0  0  0  0  0  0  0  0  0  0
    5.4015    1.2998   17.8109 C   0  0  0  0  0  0  0  0  0  0  0  0
    6.5667    0.6750   17.5570 N   0  0  0  0  0  0  0  0  0  0  0  0
    7.1796    0.0492   18.5818 C   0  0  0  0  0  0  0  0  0  0  0  0
    8.1278   -0.4396   18.3905 H   0  0  0  0  0  0  0  0  0  0  0  0
    4.8920    1.8271   17.0095 H   0  0  0  0  0  0  0  0  0  0  0  0
    3.8852    1.8251   19.2362 H   0  0  0  0  0  0  0  0  0  0  0  0
    5.0174    0.6491   21.1408 H   0  0  0  0  0  0  0  0  0  0  0  0
    8.1522   -1.3742   20.6199 H   0  0  0  0  0  0  0  0  0  0  0  0
    6.6700   -1.3222   21.5776 H   0  0  0  0  0  0  0  0  0  0  0  0
    7.2913    1.0417   22.2894 H   0  0  0  0  0  0  0  0  0  0  0  0
    9.2163    0.9497   20.2945 H   0  0  0  0  0  0  0  0  0  0  0  0
    9.3452    1.9713   21.7461 H   0  0  0  0  0  0  0  0  0  0  0  0
   10.7143   -0.6502   21.1486 H   0  0  0  0  0  0  0  0  0  0  0  0
   11.3511    0.7651   22.0170 H   0  0  0  0  0  0  0  0  0  0  0  0
   10.4327    0.0531   24.0430 H   0  0  0  0  0  0  0  0  0  0  0  0
   10.4031   -1.5431   23.2593 H   0  0  0  0  0  0  0  0  0  0  0  0
    8.3974   -1.6685   25.1023 N   0  0  0  0  0  0  0  0  0  0  0  0
    5.9002   -0.0766   23.4902 H   0  0  0  0  0  0  0  0  0  0  0  0
    5.7197   -2.3264   27.0309 H   0  0  0  0  0  0  0  0  0  0  0  0
  1  2  1  0
  2  3  2  0
  3  4  1  0
  4  5  2  0
  5  6  1  0
  6  7  1  0
  7  8  1  0
  8  9  1  0
  9 10  1  0
 10 11  1  0
 11 12  1  0
 12 13  1  0
 13 14  2  0
 14 15  1  0
 15 16  2  0
 16 17  1  0
 17 18  2  0
 18 19  1  0
 16 20  1  0
 15 21  1  0
 14 22  1  0
 12 23  1  0
 12 24  1  0
 11 25  1  0
 10 26  1  0
 10 27  1  0
  9 28  1  0
  9 29  1  0
  8 30  1  0
  8 31  1  0
  6 32  2  0
  5 33  1  0
  3 34  1  0
 32  2  1  0
 11  7  1  0
 18 13  1  0
M  END
>  <cnnaffinity>  (1) 
-5.25102

>  <filename>  (1) 
Brc1cncc(N2CCCC2Cc2cccnc2)n1

$$$$
