
     RDKit          3D

 27 29  0  0  0  0  0  0  0  0999 V2000
    4.9223    1.8331   16.9988 H   0  0  0  0  0  0  0  0  0  0  0  0
    5.4197    1.2946   17.7989 C   0  0  0  0  0  0  0  0  0  0  0  0
    6.5553    0.6226   17.5287 N   0  0  0  0  0  0  0  0  0  0  0  0
    7.1575   -0.0286   18.5420 C   0  0  0  0  0  0  0  0  0  0  0  0
    8.0846   -0.5566   18.3427 H   0  0  0  0  0  0  0  0  0  0  0  0
    6.6603   -0.0326   19.8594 C   0  0  0  0  0  0  0  0  0  0  0  0
    7.3276   -0.6971   20.8918 N   0  0  0  0  0  0  0  0  0  0  0  0
    8.2916   -1.6345   20.7367 N   0  0  0  0  0  0  0  0  0  0  0  0
    8.6873   -1.9349   21.9214 N   0  0  0  0  0  0  0  0  0  0  0  0
    8.0298   -1.2042   22.8688 N   0  0  0  0  0  0  0  0  0  0  0  0
    7.2072   -0.4135   22.2350 C   0  0  0  0  0  0  0  0  0  0  0  0
    6.4049    0.5625   22.7949 O   0  0  0  0  0  0  0  0  0  0  0  0
    6.8390    1.0412   24.0043 C   0  0  0  0  0  0  0  0  0  0  0  0
    5.9473    1.6685   24.8731 C   0  0  0  0  0  0  0  0  0  0  0  0
    4.9091    1.7783   24.5705 H   0  0  0  0  0  0  0  0  0  0  0  0
    6.3950    2.1238   26.1222 C   0  0  0  0  0  0  0  0  0  0  0  0
    5.6945    2.5877   26.8083 H   0  0  0  0  0  0  0  0  0  0  0  0
    7.7464    1.9782   26.4869 C   0  0  0  0  0  0  0  0  0  0  0  0
    8.1034    2.3242   27.4513 H   0  0  0  0  0  0  0  0  0  0  0  0
    8.6513    1.3847   25.6011 C   0  0  0  0  0  0  0  0  0  0  0  0
   10.5089    1.1407   25.9902 Br  0  0  0  0  0  0  0  0  0  0  0  0
    8.1836    0.9282   24.3792 C   0  0  0  0  0  0  0  0  0  0  0  0
    8.8783    0.4597   23.6961 H   0  0  0  0  0  0  0  0  0  0  0  0
    5.4832    0.6654   20.1325 C   0  0  0  0  0  0  0  0  0  0  0  0
    5.0670    0.6938   21.1404 H   0  0  0  0  0  0  0  0  0  0  0  0
    4.8551    1.3240   19.0796 C   0  0  0  0  0  0  0  0  0  0  0  0
    3.9357    1.8722   19.2459 H   0  0  0  0  0  0  0  0  0  0  0  0
  1  2  1  0
  2  3  2  0
  3  4  1  0
  4  5  1  0
  4  6  2  0
  6  7  1  0
  7  8  1  0
  8  9  2  0
  9 10  1  0
 10 11  2  0
 11 12  1  0
 12 13  1  0
 13 14  2  0
 14 15  1  0
 14 16  1  0
 16 17  1  0
 16 18  2  0
 18 19  1  0
 18 20  1  0
 20 21  1  0
 20 22  2  0
 22 23  1  0
  6 24  1  0
 24 25  1  0
 24 26  2  0
 26 27  1  0
 26  2  1  0
 11  7  1  0
 22 13  1  0
M  END
>  <cnnaffinity>  (1) 
-5.07643

>  <filename>  (1) 
Brc1cccc(Oc2nnnn2-c2cccnc2)c1

$$$$
