
     RDKit          3D

 28 30  0  0  0  0  0  0  0  0999 V2000
    4.9777    1.7362   16.7539 H   0  0  0  0  0  0  0  0  0  0  0  0
    5.4927    1.2809   17.5940 C   0  0  0  0  0  0  0  0  0  0  0  0
    6.6648    0.6594   17.3784 N   0  0  0  0  0  0  0  0  0  0  0  0
    7.3132    0.1474   18.4357 C   0  0  0  0  0  0  0  0  0  0  0  0
    8.2503   -0.3754   18.2665 H   0  0  0  0  0  0  0  0  0  0  0  0
    6.8199    0.2361   19.7350 C   0  0  0  0  0  0  0  0  0  0  0  0
    7.6178   -0.3306   20.7960 C   0  0  0  0  0  0  0  0  0  0  0  0
    8.7863   -0.9059   20.6216 N   0  0  0  0  0  0  0  0  0  0  0  0
    9.0696   -1.4837   21.8304 N   0  0  0  0  0  0  0  0  0  0  0  0
    9.8982   -2.0567   21.9971 H   0  0  0  0  0  0  0  0  0  0  0  0
    8.0590   -1.2871   22.7687 C   0  0  0  0  0  0  0  0  0  0  0  0
    7.8209   -1.9871   24.0408 C   0  0  0  0  0  0  0  0  0  0  0  0
    6.6344   -1.7675   24.7657 C   0  0  0  0  0  0  0  0  0  0  0  0
    5.9274   -1.0235   24.4172 H   0  0  0  0  0  0  0  0  0  0  0  0
    6.3297   -2.5312   25.8982 C   0  0  0  0  0  0  0  0  0  0  0  0
    5.4202   -2.3630   26.4732 H   0  0  0  0  0  0  0  0  0  0  0  0
    7.1818   -3.5704   26.2786 C   0  0  0  0  0  0  0  0  0  0  0  0
    6.7254   -4.6727   27.7664 Br  0  0  0  0  0  0  0  0  0  0  0  0
    8.3565   -3.8133   25.5633 C   0  0  0  0  0  0  0  0  0  0  0  0
    8.9924   -4.6460   25.8581 H   0  0  0  0  0  0  0  0  0  0  0  0
    8.6886   -3.0020   24.4683 C   0  0  0  0  0  0  0  0  0  0  0  0
    9.6065   -3.1866   23.9238 H   0  0  0  0  0  0  0  0  0  0  0  0
    7.1652   -0.4715   22.1555 C   0  0  0  0  0  0  0  0  0  0  0  0
    6.2237   -0.1087   22.5542 H   0  0  0  0  0  0  0  0  0  0  0  0
    5.5740    0.8283   19.9637 C   0  0  0  0  0  0  0  0  0  0  0  0
    5.1301    0.8658   20.9590 H   0  0  0  0  0  0  0  0  0  0  0  0
    4.9171    1.3716   18.8656 C   0  0  0  0  0  0  0  0  0  0  0  0
    3.9665    1.8746   18.9850 H   0  0  0  0  0  0  0  0  0  0  0  0
  1  2  1  0
  2  3  2  0
  3  4  1  0
  4  5  1  0
  4  6  2  0
  6  7  1  0
  7  8  2  0
  8  9  1  0
  9 10  1  0
  9 11  1  0
 11 12  1  0
 12 13  2  0
 13 14  1  0
 13 15  1  0
 15 16  1  0
 15 17  2  0
 17 18  1  0
 17 19  1  0
 19 20  1  0
 19 21  2  0
 21 22  1  0
 11 23  2  0
 23 24  1  0
  6 25  1  0
 25 26  1  0
 25 27  2  0
 27 28  1  0
 27  2  1  0
 23  7  1  0
 21 12  1  0
M  END
>  <cnnaffinity>  (1) 
-5.03431

>  <filename>  (1) 
Brc1ccc(-c2cc(-c3cccnc3)n[nH]2)cc1

$$$$
