
     RDKit          3D

 29 31  0  0  0  0  0  0  0  0999 V2000
    8.6047   -3.7501   21.4248 H   0  0  0  0  0  0  0  0  0  0  0  0
    8.3166   -2.7226   21.6187 C   0  0  0  0  0  0  0  0  0  0  0  0
    7.7339   -2.0047   20.6392 N   0  0  0  0  0  0  0  0  0  0  0  0
    7.3886   -0.7335   20.9493 C   0  0  0  0  0  0  0  0  0  0  0  0
    6.6729    0.0080   19.9040 C   0  0  0  0  0  0  0  0  0  0  0  0
    7.1818    0.0367   18.5995 C   0  0  0  0  0  0  0  0  0  0  0  0
    8.1316   -0.4497   18.3952 H   0  0  0  0  0  0  0  0  0  0  0  0
    6.5721    0.6662   17.5878 N   0  0  0  0  0  0  0  0  0  0  0  0
    5.4055    1.2924   17.8372 C   0  0  0  0  0  0  0  0  0  0  0  0
    4.8927    1.7885   17.0175 H   0  0  0  0  0  0  0  0  0  0  0  0
    4.8263    1.3084   19.1117 C   0  0  0  0  0  0  0  0  0  0  0  0
    3.8854    1.8307   19.2630 H   0  0  0  0  0  0  0  0  0  0  0  0
    5.4599    0.6592   20.1719 C   0  0  0  0  0  0  0  0  0  0  0  0
    5.0051    0.6413   21.1656 H   0  0  0  0  0  0  0  0  0  0  0  0
    7.6618   -0.1793   22.2463 C   0  0  0  0  0  0  0  0  0  0  0  0
    7.3722    1.2407   22.5596 C   0  0  0  0  0  0  0  0  0  0  0  0
    7.7704    2.2875   21.7012 C   0  0  0  0  0  0  0  0  0  0  0  0
    8.3034    2.0841   20.7781 H   0  0  0  0  0  0  0  0  0  0  0  0
    7.5255    3.6255   22.0494 C   0  0  0  0  0  0  0  0  0  0  0  0
    7.8489    4.4385   21.4046 H   0  0  0  0  0  0  0  0  0  0  0  0
    6.8685    3.9332   23.2436 C   0  0  0  0  0  0  0  0  0  0  0  0
    6.6694    4.9679   23.5061 H   0  0  0  0  0  0  0  0  0  0  0  0
    6.4683    2.9077   24.1034 C   0  0  0  0  0  0  0  0  0  0  0  0
    5.5767    3.3240   25.7446 Br  0  0  0  0  0  0  0  0  0  0  0  0
    6.7262    1.5752   23.7603 C   0  0  0  0  0  0  0  0  0  0  0  0
    6.4141    0.7912   24.4411 H   0  0  0  0  0  0  0  0  0  0  0  0
    8.2382   -0.9240   23.2261 N   0  0  0  0  0  0  0  0  0  0  0  0
    8.5604   -2.1904   22.9016 C   0  0  0  0  0  0  0  0  0  0  0  0
    9.0262   -2.8133   23.6538 H   0  0  0  0  0  0  0  0  0  0  0  0
  1  2  1  0
  2  3  2  0
  3  4  1  0
  4  5  1  0
  5  6  2  0
  6  7  1  0
  6  8  1  0
  8  9  2  0
  9 10  1  0
  9 11  1  0
 11 12  1  0
 11 13  2  0
 13 14  1  0
  4 15  2  0
 15 16  1  0
 16 17  2  0
 17 18  1  0
 17 19  1  0
 19 20  1  0
 19 21  2  0
 21 22  1  0
 21 23  1  0
 23 24  1  0
 23 25  2  0
 25 26  1  0
 15 27  1  0
 27 28  2  0
 28 29  1  0
 28  2  1  0
 13  5  1  0
 25 16  1  0
M  END
>  <cnnaffinity>  (1) 
-5.11757

>  <filename>  (1) 
Brc1cccc(-c2nccnc2-c2cccnc2)c1

$$$$
