
     RDKit          3D

 30 33  0  0  0  0  0  0  0  0999 V2000
    4.8786    1.8133   17.0080 H   0  0  0  0  0  0  0  0  0  0  0  0
    5.3963    1.3032   17.8120 C   0  0  0  0  0  0  0  0  0  0  0  0
    6.5578    0.6786   17.5412 N   0  0  0  0  0  0  0  0  0  0  0  0
    7.1682    0.0476   18.5650 C   0  0  0  0  0  0  0  0  0  0  0  0
    8.1227   -0.4390   18.3842 H   0  0  0  0  0  0  0  0  0  0  0  0
    6.6555    0.0083   19.8802 C   0  0  0  0  0  0  0  0  0  0  0  0
    7.3616   -0.6816   20.9735 C   0  0  0  0  0  0  0  0  0  0  0  0
    8.2868   -1.6928   20.9031 C   0  0  0  0  0  0  0  0  0  0  0  0
    8.6378   -2.0573   19.9608 H   0  0  0  0  0  0  0  0  0  0  0  0
    8.7778   -2.1193   22.1406 N   0  0  0  0  0  0  0  0  0  0  0  0
    8.1782   -1.2764   22.9289 C   0  0  0  0  0  0  0  0  0  0  0  0
    8.2675   -0.9687   24.6174 S   0  0  0  0  0  0  0  0  0  0  0  0
    7.1360    0.3666   24.2965 C   0  0  0  0  0  0  0  0  0  0  0  0
    6.6777    1.2576   25.3718 C   0  0  0  0  0  0  0  0  0  0  0  0
    5.7837    2.3095   25.0976 C   0  0  0  0  0  0  0  0  0  0  0  0
    5.4306    2.4742   24.0829 H   0  0  0  0  0  0  0  0  0  0  0  0
    5.3384    3.1557   26.1177 C   0  0  0  0  0  0  0  0  0  0  0  0
    4.6480    3.9628   25.8878 H   0  0  0  0  0  0  0  0  0  0  0  0
    5.7816    2.9649   27.4287 C   0  0  0  0  0  0  0  0  0  0  0  0
    5.4375    3.6205   28.2237 H   0  0  0  0  0  0  0  0  0  0  0  0
    6.6721    1.9289   27.7237 C   0  0  0  0  0  0  0  0  0  0  0  0
    7.2785    1.6770   29.5212 Br  0  0  0  0  0  0  0  0  0  0  0  0
    7.1149    1.0830   26.6993 C   0  0  0  0  0  0  0  0  0  0  0  0
    7.8072    0.2869   26.9609 H   0  0  0  0  0  0  0  0  0  0  0  0
    6.7212    0.5363   23.0545 N   0  0  0  0  0  0  0  0  0  0  0  0
    7.3157   -0.4221   22.3139 N   0  0  0  0  0  0  0  0  0  0  0  0
    5.4514    0.6563   20.1494 C   0  0  0  0  0  0  0  0  0  0  0  0
    5.0304    0.6393   21.1573 H   0  0  0  0  0  0  0  0  0  0  0  0
    4.8224    1.3107   19.0912 C   0  0  0  0  0  0  0  0  0  0  0  0
    3.8873    1.8297   19.2555 H   0  0  0  0  0  0  0  0  0  0  0  0
  1  2  1  0
  2  3  2  0
  3  4  1  0
  4  5  1  0
  4  6  2  0
  6  7  1  0
  7  8  2  0
  8  9  1  0
  8 10  1  0
 10 11  2  0
 11 12  1  0
 12 13  1  0
 13 14  1  0
 14 15  2  0
 15 16  1  0
 15 17  1  0
 17 18  1  0
 17 19  2  0
 19 20  1  0
 19 21  1  0
 21 22  1  0
 21 23  2  0
 23 24  1  0
 13 25  2  0
 25 26  1  0
  6 27  1  0
 27 28  1  0
 27 29  2  0
 29 30  1  0
 29  2  1  0
 26  7  1  0
 26 11  1  0
 23 14  1  0
M  END
>  <cnnaffinity>  (1) 
-5.27963

>  <filename>  (1) 
Brc1cccc(-c2nn3c(-c4cccnc4)cnc3s2)c1

$$$$
