
     RDKit          3D

 25 27  0  0  0  0  0  0  0  0999 V2000
    9.7719   -4.2792   26.9661 Br  0  0  0  0  0  0  0  0  0  0  0  0
    8.6499   -2.9841   26.1232 C   0  0  0  0  0  0  0  0  0  0  0  0
    7.5815   -2.4418   26.8268 C   0  0  0  0  0  0  0  0  0  0  0  0
    6.6414   -1.6551   26.2772 N   0  0  0  0  0  0  0  0  0  0  0  0
    6.7265   -1.3679   24.9736 C   0  0  0  0  0  0  0  0  0  0  0  0
    7.8151   -1.8141   24.2159 C   0  0  0  0  0  0  0  0  0  0  0  0
    7.8510   -1.4667   22.8249 C   0  0  0  0  0  0  0  0  0  0  0  0
    8.8049   -1.8290   22.0087 N   0  0  0  0  0  0  0  0  0  0  0  0
    8.4804   -1.3146   20.7948 N   0  0  0  0  0  0  0  0  0  0  0  0
    7.3477   -0.6793   20.9500 C   0  0  0  0  0  0  0  0  0  0  0  0
    6.6479    0.0095   19.9011 C   0  0  0  0  0  0  0  0  0  0  0  0
    5.4370    0.6547   20.1535 C   0  0  0  0  0  0  0  0  0  0  0  0
    4.8217    1.2993   19.0917 C   0  0  0  0  0  0  0  0  0  0  0  0
    5.4162    1.2872   17.8291 C   0  0  0  0  0  0  0  0  0  0  0  0
    6.5824    0.6563   17.5915 N   0  0  0  0  0  0  0  0  0  0  0  0
    7.1877    0.0362   18.6147 C   0  0  0  0  0  0  0  0  0  0  0  0
    8.1372   -0.4555   18.4202 H   0  0  0  0  0  0  0  0  0  0  0  0
    4.9156    1.8107   17.0212 H   0  0  0  0  0  0  0  0  0  0  0  0
    3.8886    1.8269   19.2359 H   0  0  0  0  0  0  0  0  0  0  0  0
    4.9884    0.6628   21.1461 H   0  0  0  0  0  0  0  0  0  0  0  0
    6.8862   -0.7432   22.2187 O   0  0  0  0  0  0  0  0  0  0  0  0
    8.8143   -2.6158   24.7963 C   0  0  0  0  0  0  0  0  0  0  0  0
    9.6752   -2.9794   24.2319 H   0  0  0  0  0  0  0  0  0  0  0  0
    5.9161   -0.7940   24.5152 H   0  0  0  0  0  0  0  0  0  0  0  0
    7.5126   -2.7055   27.8626 H   0  0  0  0  0  0  0  0  0  0  0  0
  1  2  1  0
  2  3  2  0
  3  4  1  0
  4  5  2  0
  5  6  1  0
  6  7  1  0
  7  8  2  0
  8  9  1  0
  9 10  2  0
 10 11  1  0
 11 12  2  0
 12 13  1  0
 13 14  2  0
 14 15  1  0
 15 16  2  0
 16 17  1  0
 14 18  1  0
 13 19  1  0
 12 20  1  0
 10 21  1  0
  6 22  2  0
 22 23  1  0
  5 24  1  0
  3 25  1  0
 22  2  1  0
 21  7  1  0
 16 11  1  0
M  END
>  <cnnaffinity>  (1) 
-4.96713

>  <filename>  (1) 
Brc1cncc(-c2nnc(-c3cccnc3)o2)c1

$$$$
