
     RDKit          3D

 30 32  0  0  0  0  0  0  0  0999 V2000
    4.8856    1.7962   17.0103 H   0  0  0  0  0  0  0  0  0  0  0  0
    5.4007    1.2982   17.8230 C   0  0  0  0  0  0  0  0  0  0  0  0
    6.5654    0.6753   17.5587 N   0  0  0  0  0  0  0  0  0  0  0  0
    7.1748    0.0544   18.5842 C   0  0  0  0  0  0  0  0  0  0  0  0
    8.1250   -0.4406   18.3994 H   0  0  0  0  0  0  0  0  0  0  0  0
    6.6531    0.0275   19.8909 C   0  0  0  0  0  0  0  0  0  0  0  0
    7.3566   -0.6670   20.9637 C   0  0  0  0  0  0  0  0  0  0  0  0
    7.4781   -0.3207   22.2760 C   0  0  0  0  0  0  0  0  0  0  0  0
    7.0166    0.8621   22.8991 N   0  0  0  0  0  0  0  0  0  0  0  0
    6.9644    1.7057   22.3279 H   0  0  0  0  0  0  0  0  0  0  0  0
    6.8338    1.0301   24.2769 C   0  0  0  0  0  0  0  0  0  0  0  0
    7.0433    2.2838   24.8671 C   0  0  0  0  0  0  0  0  0  0  0  0
    7.3887    3.1129   24.2602 H   0  0  0  0  0  0  0  0  0  0  0  0
    6.8240    2.4771   26.2422 C   0  0  0  0  0  0  0  0  0  0  0  0
    6.9929    3.4478   26.7014 H   0  0  0  0  0  0  0  0  0  0  0  0
    6.3778    1.4192   27.0408 C   0  0  0  0  0  0  0  0  0  0  0  0
    6.0692    1.6789   28.9152 Br  0  0  0  0  0  0  0  0  0  0  0  0
    6.1536    0.1694   26.4547 C   0  0  0  0  0  0  0  0  0  0  0  0
    5.7920   -0.6480   27.0719 H   0  0  0  0  0  0  0  0  0  0  0  0
    6.3832   -0.0205   25.0832 C   0  0  0  0  0  0  0  0  0  0  0  0
    6.1805   -0.9826   24.6299 H   0  0  0  0  0  0  0  0  0  0  0  0
    8.2771   -1.3991   22.8487 C   0  0  0  0  0  0  0  0  0  0  0  0
    8.5791   -1.4020   23.8858 H   0  0  0  0  0  0  0  0  0  0  0  0
    8.6248   -2.3141   21.9636 N   0  0  0  0  0  0  0  0  0  0  0  0
    8.0554   -1.8521   20.8121 N   0  0  0  0  0  0  0  0  0  0  0  0
    8.1243   -2.3264   19.9139 H   0  0  0  0  0  0  0  0  0  0  0  0
    5.4449    0.6679   20.1600 C   0  0  0  0  0  0  0  0  0  0  0  0
    5.0130    0.6376   21.1636 H   0  0  0  0  0  0  0  0  0  0  0  0
    4.8158    1.3154   19.0995 C   0  0  0  0  0  0  0  0  0  0  0  0
    3.8778    1.8349   19.2602 H   0  0  0  0  0  0  0  0  0  0  0  0
  1  2  1  0
  2  3  2  0
  3  4  1  0
  4  5  1  0
  4  6  2  0
  6  7  1  0
  7  8  2  0
  8  9  1  0
  9 10  1  0
  9 11  1  0
 11 12  2  0
 12 13  1  0
 12 14  1  0
 14 15  1  0
 14 16  2  0
 16 17  1  0
 16 18  1  0
 18 19  1  0
 18 20  2  0
 20 21  1  0
  8 22  1  0
 22 23  1  0
 22 24  2  0
 24 25  1  0
 25 26  1  0
  6 27  1  0
 27 28  1  0
 27 29  2  0
 29 30  1  0
 29  2  1  0
 25  7  1  0
 20 11  1  0
M  END
>  <cnnaffinity>  (1) 
-5.39162

>  <filename>  (1) 
Brc1ccc(Nc2cn[nH]c2-c2cccnc2)cc1

$$$$
