
     RDKit          3D

 29 32  0  0  0  0  0  0  0  0999 V2000
    4.8939    1.7789   17.0144 H   0  0  0  0  0  0  0  0  0  0  0  0
    5.4004    1.2925   17.8413 C   0  0  0  0  0  0  0  0  0  0  0  0
    6.5699    0.6775   17.5911 N   0  0  0  0  0  0  0  0  0  0  0  0
    7.1879    0.0505   18.5982 C   0  0  0  0  0  0  0  0  0  0  0  0
    8.1350   -0.4421   18.3907 H   0  0  0  0  0  0  0  0  0  0  0  0
    6.6569    0.0056   19.8836 C   0  0  0  0  0  0  0  0  0  0  0  0
    7.3889   -0.7013   20.9058 C   0  0  0  0  0  0  0  0  0  0  0  0
    8.3317   -1.6104   20.7039 N   0  0  0  0  0  0  0  0  0  0  0  0
    8.8356   -2.0282   21.9247 N   0  0  0  0  0  0  0  0  0  0  0  0
    8.1742   -1.3228   22.8092 C   0  0  0  0  0  0  0  0  0  0  0  0
    8.2766   -1.1063   24.5233 S   0  0  0  0  0  0  0  0  0  0  0  0
    7.0407    0.1651   24.3247 C   0  0  0  0  0  0  0  0  0  0  0  0
    6.5412    0.9596   25.4652 C   0  0  0  0  0  0  0  0  0  0  0  0
    5.5747    1.9584   25.2580 C   0  0  0  0  0  0  0  0  0  0  0  0
    5.1934    2.1485   24.2586 H   0  0  0  0  0  0  0  0  0  0  0  0
    5.0887    2.7218   26.3215 C   0  0  0  0  0  0  0  0  0  0  0  0
    4.3423    3.4891   26.1413 H   0  0  0  0  0  0  0  0  0  0  0  0
    5.5629    2.4986   27.6162 C   0  0  0  0  0  0  0  0  0  0  0  0
    5.1833    3.0930   28.4409 H   0  0  0  0  0  0  0  0  0  0  0  0
    6.5243    1.5110   27.8493 C   0  0  0  0  0  0  0  0  0  0  0  0
    7.1708    1.2089   29.6244 Br  0  0  0  0  0  0  0  0  0  0  0  0
    7.0099    0.7464   26.7792 C   0  0  0  0  0  0  0  0  0  0  0  0
    7.7571   -0.0142   26.9912 H   0  0  0  0  0  0  0  0  0  0  0  0
    6.6032    0.3700   23.0853 N   0  0  0  0  0  0  0  0  0  0  0  0
    7.2501   -0.5159   22.2617 N   0  0  0  0  0  0  0  0  0  0  0  0
    5.4488    0.6508   20.1627 C   0  0  0  0  0  0  0  0  0  0  0  0
    5.0067    0.6331   21.1583 H   0  0  0  0  0  0  0  0  0  0  0  0
    4.8149    1.3087   19.1136 C   0  0  0  0  0  0  0  0  0  0  0  0
    3.8779    1.8390   19.2669 H   0  0  0  0  0  0  0  0  0  0  0  0
  1  2  1  0
  2  3  2  0
  3  4  1  0
  4  5  1  0
  4  6  2  0
  6  7  1  0
  7  8  2  0
  8  9  1  0
  9 10  2  0
 10 11  1  0
 11 12  1  0
 12 13  1  0
 13 14  2  0
 14 15  1  0
 14 16  1  0
 16 17  1  0
 16 18  2  0
 18 19  1  0
 18 20  1  0
 20 21  1  0
 20 22  2  0
 22 23  1  0
 12 24  2  0
 24 25  1  0
  6 26  1  0
 26 27  1  0
 26 28  2  0
 28 29  1  0
 28  2  1  0
 25  7  1  0
 25 10  1  0
 22 13  1  0
M  END
>  <cnnaffinity>  (1) 
-5.32941

>  <filename>  (1) 
Brc1cccc(-c2nn3c(-c4cccnc4)nnc3s2)c1

$$$$
