
     RDKit          3D

 40 43  0  0  0  0  0  0  0  0999 V2000
    8.5597   -5.8908   28.0274 Br  0  0  0  0  0  0  0  0  0  0  0  0
    7.7625   -4.4278   27.1089 C   0  0  0  0  0  0  0  0  0  0  0  0
    6.4071   -4.1714   27.3016 C   0  0  0  0  0  0  0  0  0  0  0  0
    5.7920   -3.0720   26.7005 C   0  0  0  0  0  0  0  0  0  0  0  0
    6.5534   -2.2688   25.8313 C   0  0  0  0  0  0  0  0  0  0  0  0
    6.0184   -1.1963   25.1413 C   0  0  0  0  0  0  0  0  0  0  0  0
    6.7394   -0.5071   24.2666 N   0  0  0  0  0  0  0  0  0  0  0  0
    8.0038   -0.8736   24.0984 C   0  0  0  0  0  0  0  0  0  0  0  0
    8.7208   -0.2757   23.0978 N   0  0  0  0  0  0  0  0  0  0  0  0
   10.1730   -0.1341   23.1656 C   0  0  0  0  0  0  0  0  0  0  0  0
   10.4096    1.0533   22.2485 C   0  0  0  0  0  0  0  0  0  0  0  0
    9.2680    1.0144   21.2296 C   0  0  0  0  0  0  0  0  0  0  0  0
    8.0804    0.3723   21.9509 C   0  0  0  0  0  0  0  0  0  0  0  0
    7.3529   -0.6631   21.0754 C   0  0  0  0  0  0  0  0  0  0  0  0
    6.6446    0.0015   19.9127 C   0  0  0  0  0  0  0  0  0  0  0  0
    5.4330    0.6589   20.1250 C   0  0  0  0  0  0  0  0  0  0  0  0
    4.8448    1.3055   19.0391 C   0  0  0  0  0  0  0  0  0  0  0  0
    5.4645    1.2727   17.7847 C   0  0  0  0  0  0  0  0  0  0  0  0
    6.6203    0.6181   17.5666 N   0  0  0  0  0  0  0  0  0  0  0  0
    7.1944    0.0001   18.6159 C   0  0  0  0  0  0  0  0  0  0  0  0
    8.1355   -0.5166   18.4542 H   0  0  0  0  0  0  0  0  0  0  0  0
    4.9936    1.7961   16.9582 H   0  0  0  0  0  0  0  0  0  0  0  0
    3.9165    1.8518   19.1595 H   0  0  0  0  0  0  0  0  0  0  0  0
    4.9746    0.6774   21.1130 H   0  0  0  0  0  0  0  0  0  0  0  0
    8.0743   -1.4007   20.7100 H   0  0  0  0  0  0  0  0  0  0  0  0
    6.6243   -1.2011   21.6914 H   0  0  0  0  0  0  0  0  0  0  0  0
    7.3780    1.1460   22.2812 H   0  0  0  0  0  0  0  0  0  0  0  0
    9.0161    2.0194   20.8774 H   0  0  0  0  0  0  0  0  0  0  0  0
    9.5613    0.4056   20.3689 H   0  0  0  0  0  0  0  0  0  0  0  0
   11.3926    1.0088   21.7687 H   0  0  0  0  0  0  0  0  0  0  0  0
   10.3454    1.9756   22.8338 H   0  0  0  0  0  0  0  0  0  0  0  0
   10.5413    0.0706   24.1800 H   0  0  0  0  0  0  0  0  0  0  0  0
   10.6644   -1.0344   22.7837 H   0  0  0  0  0  0  0  0  0  0  0  0
    8.6188   -1.8572   24.7389 N   0  0  0  0  0  0  0  0  0  0  0  0
    7.8983   -2.5530   25.5986 C   0  0  0  0  0  0  0  0  0  0  0  0
    8.5035   -3.6139   26.2515 C   0  0  0  0  0  0  0  0  0  0  0  0
    9.5501   -3.8049   26.0501 H   0  0  0  0  0  0  0  0  0  0  0  0
    4.9720   -0.9365   25.2841 H   0  0  0  0  0  0  0  0  0  0  0  0
    4.7496   -2.8606   26.9345 H   0  0  0  0  0  0  0  0  0  0  0  0
    5.8550   -4.8290   27.9619 H   0  0  0  0  0  0  0  0  0  0  0  0
  1  2  1  0
  2  3  2  0
  3  4  1  0
  4  5  2  0
  5  6  1  0
  6  7  2  0
  7  8  1  0
  8  9  1  0
  9 10  1  0
 10 11  1  0
 11 12  1  0
 12 13  1  0
 13 14  1  0
 14 15  1  0
 15 16  2  0
 16 17  1  0
 17 18  2  0
 18 19  1  0
 19 20  2  0
 20 21  1  0
 18 22  1  0
 17 23  1  0
 16 24  1  0
 14 25  1  0
 14 26  1  0
 13 27  1  0
 12 28  1  0
 12 29  1  0
 11 30  1  0
 11 31  1  0
 10 32  1  0
 10 33  1  0
  8 34  2  0
 34 35  1  0
 35 36  2  0
 36 37  1  0
  6 38  1  0
  4 39  1  0
  3 40  1  0
 36  2  1  0
 35  5  1  0
 13  9  1  0
 20 15  1  0
M  END
>  <cnnaffinity>  (1) 
-5.66497

>  <filename>  (1) 
Brc1ccc2cnc(N3CCCC3Cc3cccnc3)nc2c1

$$$$
