
     RDKit          3D

 40 43  0  0  0  0  0  0  0  0999 V2000
    6.0432   -5.1238   29.1577 Br  0  0  0  0  0  0  0  0  0  0  0  0
    6.7957   -4.1031   27.7352 C   0  0  0  0  0  0  0  0  0  0  0  0
    8.1649   -4.1833   27.4650 C   0  0  0  0  0  0  0  0  0  0  0  0
    8.7704   -3.4544   26.5208 N   0  0  0  0  0  0  0  0  0  0  0  0
    8.0321   -2.6128   25.8004 C   0  0  0  0  0  0  0  0  0  0  0  0
    8.7037   -1.9355   24.8766 N   0  0  0  0  0  0  0  0  0  0  0  0
    8.0195   -1.1019   24.1036 C   0  0  0  0  0  0  0  0  0  0  0  0
    8.7154   -0.4010   23.1220 N   0  0  0  0  0  0  0  0  0  0  0  0
   10.1619   -0.1739   23.2231 C   0  0  0  0  0  0  0  0  0  0  0  0
   10.4136    0.9638   22.2374 C   0  0  0  0  0  0  0  0  0  0  0  0
    9.2406    0.9565   21.2594 C   0  0  0  0  0  0  0  0  0  0  0  0
    8.0739    0.2866   21.9873 C   0  0  0  0  0  0  0  0  0  0  0  0
    7.3777   -0.7023   21.0419 C   0  0  0  0  0  0  0  0  0  0  0  0
    6.6580    0.0010   19.9003 C   0  0  0  0  0  0  0  0  0  0  0  0
    5.4496    0.6512   20.1410 C   0  0  0  0  0  0  0  0  0  0  0  0
    4.8168    1.3023   19.0815 C   0  0  0  0  0  0  0  0  0  0  0  0
    5.4003    1.2983   17.8116 C   0  0  0  0  0  0  0  0  0  0  0  0
    6.5655    0.6711   17.5647 N   0  0  0  0  0  0  0  0  0  0  0  0
    7.1775    0.0462   18.5910 C   0  0  0  0  0  0  0  0  0  0  0  0
    8.1266   -0.4393   18.3914 H   0  0  0  0  0  0  0  0  0  0  0  0
    4.8956    1.8295   17.0079 H   0  0  0  0  0  0  0  0  0  0  0  0
    3.8805    1.8287   19.2297 H   0  0  0  0  0  0  0  0  0  0  0  0
    5.0153    0.6555   21.1357 H   0  0  0  0  0  0  0  0  0  0  0  0
    8.1244   -1.3940   20.6402 H   0  0  0  0  0  0  0  0  0  0  0  0
    6.6626   -1.2911   21.6217 H   0  0  0  0  0  0  0  0  0  0  0  0
    7.3542    1.0361   22.3424 H   0  0  0  0  0  0  0  0  0  0  0  0
    8.9742    1.9742   20.9550 H   0  0  0  0  0  0  0  0  0  0  0  0
    9.5069    0.3755   20.3668 H   0  0  0  0  0  0  0  0  0  0  0  0
   11.3669    0.8292   21.7146 H   0  0  0  0  0  0  0  0  0  0  0  0
   10.4272    1.9202   22.7731 H   0  0  0  0  0  0  0  0  0  0  0  0
   10.4692    0.1176   24.2362 H   0  0  0  0  0  0  0  0  0  0  0  0
   10.7138   -1.0743   22.9298 H   0  0  0  0  0  0  0  0  0  0  0  0
    6.6482   -0.9047   24.2556 C   0  0  0  0  0  0  0  0  0  0  0  0
    5.9252   -1.5801   25.2354 C   0  0  0  0  0  0  0  0  0  0  0  0
    6.6389   -2.4699   26.0187 C   0  0  0  0  0  0  0  0  0  0  0  0
    6.0080   -3.2182   27.0129 C   0  0  0  0  0  0  0  0  0  0  0  0
    4.9449   -3.1187   27.2387 H   0  0  0  0  0  0  0  0  0  0  0  0
    4.8546   -1.4393   25.3929 H   0  0  0  0  0  0  0  0  0  0  0  0
    6.1743   -0.2000   23.5925 H   0  0  0  0  0  0  0  0  0  0  0  0
    8.7725   -4.8525   28.0662 H   0  0  0  0  0  0  0  0  0  0  0  0
  1  2  1  0
  2  3  2  0
  3  4  1  0
  4  5  2  0
  5  6  1  0
  6  7  2  0
  7  8  1  0
  8  9  1  0
  9 10  1  0
 10 11  1  0
 11 12  1  0
 12 13  1  0
 13 14  1  0
 14 15  2  0
 15 16  1  0
 16 17  2  0
 17 18  1  0
 18 19  2  0
 19 20  1  0
 17 21  1  0
 16 22  1  0
 15 23  1  0
 13 24  1  0
 13 25  1  0
 12 26  1  0
 11 27  1  0
 11 28  1  0
 10 29  1  0
 10 30  1  0
  9 31  1  0
  9 32  1  0
  7 33  1  0
 33 34  2  0
 34 35  1  0
 35 36  2  0
 36 37  1  0
 34 38  1  0
 33 39  1  0
  3 40  1  0
 36  2  1  0
 35  5  1  0
 12  8  1  0
 19 14  1  0
M  END
>  <cnnaffinity>  (1) 
-5.63235

>  <filename>  (1) 
Brc1cnc2nc(N3CCCC3Cc3cccnc3)ccc2c1

$$$$
