
     RDKit          3D

 35 38  0  0  0  0  0  0  0  0999 V2000
    4.9767    1.8410   16.9672 H   0  0  0  0  0  0  0  0  0  0  0  0
    5.4316    1.3048   17.7961 C   0  0  0  0  0  0  0  0  0  0  0  0
    6.6101    0.6853   17.6022 N   0  0  0  0  0  0  0  0  0  0  0  0
    7.1721    0.0585   18.6541 C   0  0  0  0  0  0  0  0  0  0  0  0
    8.1345   -0.4162   18.4941 H   0  0  0  0  0  0  0  0  0  0  0  0
    6.5755   -0.0049   19.9273 C   0  0  0  0  0  0  0  0  0  0  0  0
    7.2558   -0.6415   21.0560 C   0  0  0  0  0  0  0  0  0  0  0  0
    8.5784   -0.6476   21.2997 C   0  0  0  0  0  0  0  0  0  0  0  0
    8.7993   -1.1837   22.5611 C   0  0  0  0  0  0  0  0  0  0  0  0
    7.6971   -1.5755   23.1473 N   0  0  0  0  0  0  0  0  0  0  0  0
    6.7452   -1.2612   22.2004 N   0  0  0  0  0  0  0  0  0  0  0  0
    5.7460   -1.4121   22.3498 H   0  0  0  0  0  0  0  0  0  0  0  0
   10.2147   -1.0398   22.9669 C   0  0  0  0  0  0  0  0  0  0  0  0
   10.2647   -0.3695   23.8310 H   0  0  0  0  0  0  0  0  0  0  0  0
   10.6552   -2.0078   23.2301 H   0  0  0  0  0  0  0  0  0  0  0  0
   10.8908   -0.4134   21.6941 C   0  0  2  0  0  0  0  0  0  0  0  0
   11.5646   -1.1608   21.2615 H   0  0  0  0  0  0  0  0  0  0  0  0
   11.7017    0.8143   22.0485 C   0  0  0  0  0  0  0  0  0  0  0  0
   12.4540    0.8046   23.2238 C   0  0  0  0  0  0  0  0  0  0  0  0
   12.4622   -0.0755   23.8596 H   0  0  0  0  0  0  0  0  0  0  0  0
   13.1541    1.9463   23.6066 C   0  0  0  0  0  0  0  0  0  0  0  0
   13.6917    1.9378   24.5322 H   0  0  0  0  0  0  0  0  0  0  0  0
   13.1373    3.1074   22.8369 C   0  0  0  0  0  0  0  0  0  0  0  0
   14.0885    4.6478   23.4487 Br  0  0  0  0  0  0  0  0  0  0  0  0
   12.4033    3.1193   21.6506 C   0  0  0  0  0  0  0  0  0  0  0  0
   12.3571    4.0140   21.0335 H   0  0  0  0  0  0  0  0  0  0  0  0
   11.6903    1.9828   21.2616 C   0  0  0  0  0  0  0  0  0  0  0  0
   11.1234    2.0125   20.3418 H   0  0  0  0  0  0  0  0  0  0  0  0
    9.7731   -0.0743   20.6613 C   0  0  0  0  0  0  0  0  0  0  0  0
    9.6420    1.0043   20.5301 H   0  0  0  0  0  0  0  0  0  0  0  0
    9.9598   -0.5375   19.6914 H   0  0  0  0  0  0  0  0  0  0  0  0
    5.3427    0.6154   20.1177 C   0  0  0  0  0  0  0  0  0  0  0  0
    4.8640    0.6135   21.0967 H   0  0  0  0  0  0  0  0  0  0  0  0
    4.7783    1.2883   19.0340 C   0  0  0  0  0  0  0  0  0  0  0  0
    3.8456    1.8271   19.1477 H   0  0  0  0  0  0  0  0  0  0  0  0
  1  2  1  0
  2  3  2  0
  3  4  1  0
  4  5  1  0
  4  6  2  0
  6  7  1  0
  7  8  2  0
  8  9  1  0
  9 10  2  0
 10 11  1  0
 11 12  1  0
  9 13  1  0
 13 14  1  0
 13 15  1  0
 13 16  1  0
 16 17  1  6
 16 18  1  0
 18 19  2  0
 19 20  1  0
 19 21  1  0
 21 22  1  0
 21 23  2  0
 23 24  1  0
 23 25  1  0
 25 26  1  0
 25 27  2  0
 27 28  1  0
 16 29  1  0
 29 30  1  0
 29 31  1  0
  6 32  1  0
 32 33  1  0
 32 34  2  0
 34 35  1  0
 34  2  1  0
 11  7  1  0
 27 18  1  0
 29  8  1  0
M  END
>  <cnnaffinity>  (1) 
-5.6992

>  <filename>  (1) 
Brc1ccc([C@H]2Cc3n[nH]c(-c4cccnc4)c3C2)cc1

$$$$
