
     RDKit          3D

 32 34  0  0  0  0  0  0  0  0999 V2000
    6.6949   -1.3729   21.6032 H   0  0  0  0  0  0  0  0  0  0  0  0
    7.3066   -0.7148   20.9949 C   0  0  0  0  0  0  0  0  0  0  0  0
    8.6226   -0.5204   21.3497 C   0  0  0  0  0  0  0  0  0  0  0  0
    9.3261   -1.1703   22.4373 C   0  0  0  0  0  0  0  0  0  0  0  0
    8.8462   -2.3239   23.1999 C   0  0  0  0  0  0  0  0  0  0  0  0
    9.0835   -2.3894   24.5821 C   0  0  0  0  0  0  0  0  0  0  0  0
    9.5987   -1.5762   25.0877 H   0  0  0  0  0  0  0  0  0  0  0  0
    8.6644   -3.4948   25.3251 C   0  0  0  0  0  0  0  0  0  0  0  0
    8.8548   -3.5325   26.3942 H   0  0  0  0  0  0  0  0  0  0  0  0
    8.0065   -4.5524   24.6902 C   0  0  0  0  0  0  0  0  0  0  0  0
    7.6815   -5.4120   25.2672 H   0  0  0  0  0  0  0  0  0  0  0  0
    7.7676   -4.5092   23.3119 C   0  0  0  0  0  0  0  0  0  0  0  0
    6.8886   -5.9698   22.4425 Br  0  0  0  0  0  0  0  0  0  0  0  0
    8.1828   -3.3952   22.5712 C   0  0  0  0  0  0  0  0  0  0  0  0
    8.0090   -3.3879   21.4992 H   0  0  0  0  0  0  0  0  0  0  0  0
   10.4702   -0.5852   22.6941 N   0  0  0  0  0  0  0  0  0  0  0  0
   10.6872    0.5151   21.7368 C   0  0  0  0  0  0  0  0  0  0  0  0
   11.6483    0.3881   21.2313 H   0  0  0  0  0  0  0  0  0  0  0  0
   10.7297    1.4690   22.2758 H   0  0  0  0  0  0  0  0  0  0  0  0
    9.5037    0.5028   20.7496 C   0  0  0  0  0  0  0  0  0  0  0  0
    9.7422    0.1585   19.7448 H   0  0  0  0  0  0  0  0  0  0  0  0
    9.0375    1.4898   20.6783 H   0  0  0  0  0  0  0  0  0  0  0  0
    6.6529    0.0101   19.9019 C   0  0  0  0  0  0  0  0  0  0  0  0
    7.1941    0.0712   18.6019 C   0  0  0  0  0  0  0  0  0  0  0  0
    8.1331   -0.4363   18.4051 H   0  0  0  0  0  0  0  0  0  0  0  0
    6.5785    0.6841   17.5713 N   0  0  0  0  0  0  0  0  0  0  0  0
    5.4050    1.2959   17.8239 C   0  0  0  0  0  0  0  0  0  0  0  0
    4.8880    1.7979   17.0120 H   0  0  0  0  0  0  0  0  0  0  0  0
    4.8159    1.3049   19.0972 C   0  0  0  0  0  0  0  0  0  0  0  0
    3.8821    1.8327   19.2578 H   0  0  0  0  0  0  0  0  0  0  0  0
    5.4344    0.6392   20.1551 C   0  0  0  0  0  0  0  0  0  0  0  0
    5.0020    0.6286   21.1593 H   0  0  0  0  0  0  0  0  0  0  0  0
  1  2  1  0
  2  3  2  3
  3  4  1  0
  4  5  1  0
  5  6  2  0
  6  7  1  0
  6  8  1  0
  8  9  1  0
  8 10  2  0
 10 11  1  0
 10 12  1  0
 12 13  1  0
 12 14  2  0
 14 15  1  0
  4 16  2  0
 16 17  1  0
 17 18  1  0
 17 19  1  0
 17 20  1  0
 20 21  1  0
 20 22  1  0
  2 23  1  0
 23 24  2  0
 24 25  1  0
 24 26  1  0
 26 27  2  0
 27 28  1  0
 27 29  1  0
 29 30  1  0
 29 31  2  0
 31 32  1  0
 20  3  1  0
 31 23  1  0
 14  5  1  0
M  END
>  <cnnaffinity>  (1) 
-5.43732

>  <filename>  (1) 
Brc1cccc(C2=NCCC2=Cc2cccnc2)c1

$$$$
