
     RDKit          3D

 33 35  0  0  0  0  0  0  0  0999 V2000
    5.0706    1.8078   17.0421 H   0  0  0  0  0  0  0  0  0  0  0  0
    5.5033    1.2447   17.8631 C   0  0  0  0  0  0  0  0  0  0  0  0
    6.6263    0.5363   17.6455 N   0  0  0  0  0  0  0  0  0  0  0  0
    7.1618   -0.1283   18.6841 C   0  0  0  0  0  0  0  0  0  0  0  0
    8.0640   -0.7091   18.5117 H   0  0  0  0  0  0  0  0  0  0  0  0
    6.6137   -0.0998   19.9693 C   0  0  0  0  0  0  0  0  0  0  0  0
    7.2840   -0.8711   21.0572 C   0  0  0  0  0  0  0  0  0  0  0  0
    6.7131   -2.2026   20.9748 N   0  0  0  0  0  0  0  0  0  0  0  0
    6.2027   -2.3699   20.1160 H   0  0  0  0  0  0  0  0  0  0  0  0
    7.3097   -3.3345   21.4902 C   0  0  0  0  0  0  0  0  0  0  0  0
    7.0983   -4.4895   20.7605 C   0  0  0  0  0  0  0  0  0  0  0  0
    6.5166   -4.4070   19.8484 H   0  0  0  0  0  0  0  0  0  0  0  0
    7.6157   -5.7015   21.2084 C   0  0  0  0  0  0  0  0  0  0  0  0
    7.4055   -6.6146   20.6655 H   0  0  0  0  0  0  0  0  0  0  0  0
    8.3561   -5.7427   22.3900 C   0  0  0  0  0  0  0  0  0  0  0  0
    8.7469   -6.6953   22.7289 H   0  0  0  0  0  0  0  0  0  0  0  0
    8.5681   -4.5797   23.1431 C   0  0  0  0  0  0  0  0  0  0  0  0
    9.5394   -4.6573   24.7885 Br  0  0  0  0  0  0  0  0  0  0  0  0
    8.0255   -3.3744   22.6845 C   0  0  0  0  0  0  0  0  0  0  0  0
    8.1377   -2.4724   23.2700 H   0  0  0  0  0  0  0  0  0  0  0  0
    7.2876   -0.2480   22.4501 C   0  0  0  0  0  0  0  0  0  0  0  0
    6.8735   -0.9103   23.2154 H   0  0  0  0  0  0  0  0  0  0  0  0
    6.7889    0.7244   22.5203 H   0  0  0  0  0  0  0  0  0  0  0  0
    8.8163   -0.1796   22.4195 C   0  0  0  0  0  0  0  0  0  0  0  0
    9.2242    0.8371   22.4500 H   0  0  0  0  0  0  0  0  0  0  0  0
    9.3074   -0.7931   23.1817 H   0  0  0  0  0  0  0  0  0  0  0  0
    8.8115   -0.8094   21.0276 C   0  0  0  0  0  0  0  0  0  0  0  0
    9.2736   -1.7982   20.9686 H   0  0  0  0  0  0  0  0  0  0  0  0
    9.2321   -0.1743   20.2398 H   0  0  0  0  0  0  0  0  0  0  0  0
    5.4161    0.5853   20.1847 C   0  0  0  0  0  0  0  0  0  0  0  0
    4.9365    0.5770   21.1618 H   0  0  0  0  0  0  0  0  0  0  0  0
    4.8662    1.2747   19.1087 C   0  0  0  0  0  0  0  0  0  0  0  0
    3.9555    1.8483   19.2324 H   0  0  0  0  0  0  0  0  0  0  0  0
  1  2  1  0
  2  3  2  0
  3  4  1  0
  4  5  1  0
  4  6  2  0
  6  7  1  0
  7  8  1  0
  8  9  1  0
  8 10  1  0
 10 11  2  0
 11 12  1  0
 11 13  1  0
 13 14  1  0
 13 15  2  0
 15 16  1  0
 15 17  1  0
 17 18  1  0
 17 19  2  0
 19 20  1  0
  7 21  1  0
 21 22  1  0
 21 23  1  0
 21 24  1  0
 24 25  1  0
 24 26  1  0
 24 27  1  0
 27 28  1  0
 27 29  1  0
  6 30  1  0
 30 31  1  0
 30 32  2  0
 32 33  1  0
 32  2  1  0
 27  7  1  0
 19 10  1  0
M  END
>  <cnnaffinity>  (1) 
-4.89262

>  <filename>  (1) 
Brc1cccc(NC2(c3cccnc3)CCC2)c1

$$$$
