
     RDKit          3D

 30 32  0  0  0  0  0  0  0  0999 V2000
    4.8995    1.7966   17.0212 H   0  0  0  0  0  0  0  0  0  0  0  0
    5.4144    1.2875   17.8326 C   0  0  0  0  0  0  0  0  0  0  0  0
    6.5754    0.6487   17.5973 N   0  0  0  0  0  0  0  0  0  0  0  0
    7.1860    0.0444   18.6275 C   0  0  0  0  0  0  0  0  0  0  0  0
    8.1289   -0.4549   18.4225 H   0  0  0  0  0  0  0  0  0  0  0  0
    6.6607    0.0581   19.9210 C   0  0  0  0  0  0  0  0  0  0  0  0
    7.3569   -0.6491   20.9619 C   0  0  0  0  0  0  0  0  0  0  0  0
    7.9920   -1.7598   20.7033 N   0  0  0  0  0  0  0  0  0  0  0  0
    8.5114   -2.3204   21.9635 C   0  0  0  0  0  0  0  0  0  0  0  0
    8.1390   -3.3329   22.1370 H   0  0  0  0  0  0  0  0  0  0  0  0
    9.6007   -2.3877   21.9397 H   0  0  0  0  0  0  0  0  0  0  0  0
    8.0440   -1.3784   23.0687 C   0  0  0  0  0  0  0  0  0  0  0  0
    7.3561   -1.8776   23.7560 H   0  0  0  0  0  0  0  0  0  0  0  0
    8.8930   -0.9928   23.6379 H   0  0  0  0  0  0  0  0  0  0  0  0
    7.3729   -0.3242   22.3088 N   0  0  0  0  0  0  0  0  0  0  0  0
    7.1405    0.9531   22.8345 C   0  0  0  0  0  0  0  0  0  0  0  0
    6.5603    1.1066   24.1004 C   0  0  0  0  0  0  0  0  0  0  0  0
    6.2651    0.2223   24.6510 H   0  0  0  0  0  0  0  0  0  0  0  0
    6.3509    2.3817   24.6526 C   0  0  0  0  0  0  0  0  0  0  0  0
    5.8907    2.5017   25.6287 H   0  0  0  0  0  0  0  0  0  0  0  0
    6.7342    3.5273   23.9504 C   0  0  0  0  0  0  0  0  0  0  0  0
    6.4471    5.2735   24.6981 Br  0  0  0  0  0  0  0  0  0  0  0  0
    7.3283    3.3824   22.6924 C   0  0  0  0  0  0  0  0  0  0  0  0
    7.6388    4.2736   22.1561 H   0  0  0  0  0  0  0  0  0  0  0  0
    7.5239    2.1056   22.1376 C   0  0  0  0  0  0  0  0  0  0  0  0
    8.0090    1.9979   21.1752 H   0  0  0  0  0  0  0  0  0  0  0  0
    5.4428    0.6853   20.1780 C   0  0  0  0  0  0  0  0  0  0  0  0
    4.9864    0.6651   21.1729 H   0  0  0  0  0  0  0  0  0  0  0  0
    4.8265    1.3113   19.1031 C   0  0  0  0  0  0  0  0  0  0  0  0
    3.8868    1.8246   19.2516 H   0  0  0  0  0  0  0  0  0  0  0  0
  1  2  1  0
  2  3  2  0
  3  4  1  0
  4  5  1  0
  4  6  2  0
  6  7  1  0
  7  8  2  0
  8  9  1  0
  9 10  1  0
  9 11  1  0
  9 12  1  0
 12 13  1  0
 12 14  1  0
 12 15  1  0
 15 16  1  0
 16 17  2  0
 17 18  1  0
 17 19  1  0
 19 20  1  0
 19 21  2  0
 21 22  1  0
 21 23  1  0
 23 24  1  0
 23 25  2  0
 25 26  1  0
  6 27  1  0
 27 28  1  0
 27 29  2  0
 29 30  1  0
 29  2  1  0
 15  7  1  0
 25 16  1  0
M  END
>  <cnnaffinity>  (1) 
-4.91448

>  <filename>  (1) 
Brc1ccc(N2CCN=C2c2cccnc2)cc1

$$$$
