
     RDKit          3D

 31 34  0  0  0  0  0  0  0  0999 V2000
    4.9192    1.8094   17.0245 H   0  0  0  0  0  0  0  0  0  0  0  0
    5.4177    1.2837   17.8319 C   0  0  0  0  0  0  0  0  0  0  0  0
    6.5691    0.6305   17.5851 N   0  0  0  0  0  0  0  0  0  0  0  0
    7.1751    0.0239   18.6218 C   0  0  0  0  0  0  0  0  0  0  0  0
    8.1146   -0.4899   18.4437 H   0  0  0  0  0  0  0  0  0  0  0  0
    6.6658    0.0490   19.9238 C   0  0  0  0  0  0  0  0  0  0  0  0
    7.3863   -0.6526   20.9652 C   0  0  0  0  0  0  0  0  0  0  0  0
    8.0312   -1.8658   20.7253 N   0  0  0  0  0  0  0  0  0  0  0  0
    8.4540   -2.1891   21.9249 C   0  0  0  0  0  0  0  0  0  0  0  0
    9.2921   -3.5606   22.5947 S   0  0  0  0  0  0  0  0  0  0  0  0
    9.4001   -2.7365   24.1568 C   0  0  0  0  0  0  0  0  0  0  0  0
    9.9551   -3.1269   25.0086 H   0  0  0  0  0  0  0  0  0  0  0  0
    8.7113   -1.5403   24.1540 C   0  0  0  0  0  0  0  0  0  0  0  0
    8.6037   -0.8894   25.0154 H   0  0  0  0  0  0  0  0  0  0  0  0
    8.1842   -1.2797   22.8906 N   0  0  0  0  0  0  0  0  0  0  0  0
    7.4792   -0.2707   22.2867 C   0  0  0  0  0  0  0  0  0  0  0  0
    7.0227    0.9358   22.9337 C   0  0  0  0  0  0  0  0  0  0  0  0
    7.2381    2.1647   22.3126 C   0  0  0  0  0  0  0  0  0  0  0  0
    7.7244    2.1895   21.3434 H   0  0  0  0  0  0  0  0  0  0  0  0
    6.8807    3.3532   22.9599 C   0  0  0  0  0  0  0  0  0  0  0  0
    7.0798    4.3105   22.4819 H   0  0  0  0  0  0  0  0  0  0  0  0
    6.2836    3.2980   24.2283 C   0  0  0  0  0  0  0  0  0  0  0  0
    5.9899    4.2112   24.7399 H   0  0  0  0  0  0  0  0  0  0  0  0
    6.0594    2.0646   24.8539 C   0  0  0  0  0  0  0  0  0  0  0  0
    5.2357    1.9865   26.5821 Br  0  0  0  0  0  0  0  0  0  0  0  0
    6.4470    0.8868   24.2042 C   0  0  0  0  0  0  0  0  0  0  0  0
    6.2961   -0.0749   24.6828 H   0  0  0  0  0  0  0  0  0  0  0  0
    5.4583    0.7021   20.1785 C   0  0  0  0  0  0  0  0  0  0  0  0
    4.9985    0.7114   21.1674 H   0  0  0  0  0  0  0  0  0  0  0  0
    4.8332    1.3166   19.1012 C   0  0  0  0  0  0  0  0  0  0  0  0
    3.8893    1.8284   19.2291 H   0  0  0  0  0  0  0  0  0  0  0  0
  1  2  1  0
  2  3  2  0
  3  4  1  0
  4  5  1  0
  4  6  2  0
  6  7  1  0
  7  8  1  0
  8  9  2  0
  9 10  1  0
 10 11  1  0
 11 12  1  0
 11 13  2  0
 13 14  1  0
 13 15  1  0
 15 16  1  0
 16 17  1  0
 17 18  2  0
 18 19  1  0
 18 20  1  0
 20 21  1  0
 20 22  2  0
 22 23  1  0
 22 24  1  0
 24 25  1  0
 24 26  2  0
 26 27  1  0
  6 28  1  0
 28 29  1  0
 28 30  2  0
 30 31  1  0
 30  2  1  0
 16  7  2  0
 26 17  1  0
 15  9  1  0
M  END
>  <cnnaffinity>  (1) 
-5.69203

>  <filename>  (1) 
Brc1cccc(-c2c(-c3cccnc3)nc3sccn23)c1

$$$$
