
     RDKit          3D

 40 43  0  0  0  0  0  0  0  0999 V2000
   10.3709   -4.3661   25.9927 Br  0  0  0  0  0  0  0  0  0  0  0  0
    8.6234   -3.7384   26.4379 C   0  0  0  0  0  0  0  0  0  0  0  0
    7.9450   -4.3801   27.4789 C   0  0  0  0  0  0  0  0  0  0  0  0
    6.6054   -4.0786   27.7368 C   0  0  0  0  0  0  0  0  0  0  0  0
    5.9458   -3.1235   26.9589 C   0  0  0  0  0  0  0  0  0  0  0  0
    6.6148   -2.4249   25.9565 C   0  0  0  0  0  0  0  0  0  0  0  0
    5.9096   -1.5148   25.2590 N   0  0  0  0  0  0  0  0  0  0  0  0
    6.6211   -0.8862   24.3000 C   0  0  0  0  0  0  0  0  0  0  0  0
    8.0103   -1.1041   24.0743 C   0  0  0  0  0  0  0  0  0  0  0  0
    8.7200   -0.3849   23.1081 N   0  0  0  0  0  0  0  0  0  0  0  0
   10.1708   -0.1889   23.2071 C   0  0  0  0  0  0  0  0  0  0  0  0
   10.4107    0.9631   22.2450 C   0  0  0  0  0  0  0  0  0  0  0  0
    9.2409    0.9534   21.2632 C   0  0  0  0  0  0  0  0  0  0  0  0
    8.0696    0.2973   21.9816 C   0  0  0  0  0  0  0  0  0  0  0  0
    7.3698   -0.6998   21.0414 C   0  0  0  0  0  0  0  0  0  0  0  0
    6.6506    0.0013   19.8946 C   0  0  0  0  0  0  0  0  0  0  0  0
    5.4385    0.6537   20.1291 C   0  0  0  0  0  0  0  0  0  0  0  0
    4.8143    1.3033   19.0631 C   0  0  0  0  0  0  0  0  0  0  0  0
    5.4133    1.2998   17.8002 C   0  0  0  0  0  0  0  0  0  0  0  0
    6.5751    0.6653   17.5579 N   0  0  0  0  0  0  0  0  0  0  0  0
    7.1789    0.0346   18.5854 C   0  0  0  0  0  0  0  0  0  0  0  0
    8.1260   -0.4577   18.3855 H   0  0  0  0  0  0  0  0  0  0  0  0
    4.9233    1.8391   16.9947 H   0  0  0  0  0  0  0  0  0  0  0  0
    3.8777    1.8336   19.2000 H   0  0  0  0  0  0  0  0  0  0  0  0
    5.0011    0.6695   21.1249 H   0  0  0  0  0  0  0  0  0  0  0  0
    8.1219   -1.3944   20.6523 H   0  0  0  0  0  0  0  0  0  0  0  0
    6.6537   -1.2893   21.6229 H   0  0  0  0  0  0  0  0  0  0  0  0
    7.3584    1.0506   22.3462 H   0  0  0  0  0  0  0  0  0  0  0  0
    9.5084    0.3594   20.3853 H   0  0  0  0  0  0  0  0  0  0  0  0
    8.9780    1.9639   20.9389 H   0  0  0  0  0  0  0  0  0  0  0  0
   10.4108    1.9043   22.8009 H   0  0  0  0  0  0  0  0  0  0  0  0
   11.3685    0.8559   21.7279 H   0  0  0  0  0  0  0  0  0  0  0  0
   10.4920    0.0782   24.2218 H   0  0  0  0  0  0  0  0  0  0  0  0
   10.7048   -1.0924   22.8958 H   0  0  0  0  0  0  0  0  0  0  0  0
    8.6932   -2.0289   24.7688 N   0  0  0  0  0  0  0  0  0  0  0  0
    7.9950   -2.7131   25.7019 C   0  0  0  0  0  0  0  0  0  0  0  0
    6.0892   -0.1941   23.6640 H   0  0  0  0  0  0  0  0  0  0  0  0
    4.9047   -2.8850   27.1389 H   0  0  0  0  0  0  0  0  0  0  0  0
    6.0788   -4.5743   28.5508 H   0  0  0  0  0  0  0  0  0  0  0  0
    8.4652   -5.1275   28.0752 H   0  0  0  0  0  0  0  0  0  0  0  0
  1  2  1  0
  2  3  2  0
  3  4  1  0
  4  5  2  0
  5  6  1  0
  6  7  2  0
  7  8  1  0
  8  9  2  0
  9 10  1  0
 10 11  1  0
 11 12  1  0
 12 13  1  0
 13 14  1  0
 14 15  1  0
 15 16  1  0
 16 17  2  0
 17 18  1  0
 18 19  2  0
 19 20  1  0
 20 21  2  0
 21 22  1  0
 19 23  1  0
 18 24  1  0
 17 25  1  0
 15 26  1  0
 15 27  1  0
 14 28  1  0
 13 29  1  0
 13 30  1  0
 12 31  1  0
 12 32  1  0
 11 33  1  0
 11 34  1  0
  9 35  1  0
 35 36  2  0
  8 37  1  0
  5 38  1  0
  4 39  1  0
  3 40  1  0
 36  2  1  0
 36  6  1  0
 14 10  1  0
 21 16  1  0
M  END
>  <cnnaffinity>  (1) 
-5.69392

>  <filename>  (1) 
Brc1cccc2ncc(N3CCCC3Cc3cccnc3)nc12

$$$$
