
     RDKit          3D

 33 35  0  0  0  0  0  0  0  0999 V2000
    4.8280    1.7471   17.1704 H   0  0  0  0  0  0  0  0  0  0  0  0
    5.4654    1.2230   17.8804 C   0  0  0  0  0  0  0  0  0  0  0  0
    6.5647    0.5935   17.4262 N   0  0  0  0  0  0  0  0  0  0  0  0
    7.3524   -0.0320   18.3367 C   0  0  0  0  0  0  0  0  0  0  0  0
    8.2377   -0.5373   17.9670 H   0  0  0  0  0  0  0  0  0  0  0  0
    7.1058   -0.0488   19.7333 C   0  0  0  0  0  0  0  0  0  0  0  0
    7.9777   -0.6475   20.6788 N   0  0  0  0  0  0  0  0  0  0  0  0
    8.7757   -1.1929   20.3483 H   0  0  0  0  0  0  0  0  0  0  0  0
    7.9299   -0.3362   22.1286 C   0  0  0  0  0  0  0  0  0  0  0  0
    8.2044    1.1357   22.4255 C   0  0  0  0  0  0  0  0  0  0  0  0
    7.1305    1.9614   22.7874 C   0  0  0  0  0  0  0  0  0  0  0  0
    6.1373    1.5397   22.8810 H   0  0  0  0  0  0  0  0  0  0  0  0
    7.3116    3.3248   23.0131 C   0  0  0  0  0  0  0  0  0  0  0  0
    6.4593    3.9430   23.2721 H   0  0  0  0  0  0  0  0  0  0  0  0
    8.5731    3.9021   22.8816 C   0  0  0  0  0  0  0  0  0  0  0  0
    8.7906    5.7864   23.1296 Br  0  0  0  0  0  0  0  0  0  0  0  0
    9.6658    3.0904   22.5563 C   0  0  0  0  0  0  0  0  0  0  0  0
   10.6489    3.5407   22.4572 H   0  0  0  0  0  0  0  0  0  0  0  0
    9.4884    1.7135   22.3392 C   0  0  0  0  0  0  0  0  0  0  0  0
   10.3519    1.1018   22.0891 H   0  0  0  0  0  0  0  0  0  0  0  0
    8.7623   -1.2846   22.9866 C   0  0  0  0  0  0  0  0  0  0  0  0
    9.3011   -2.0418   22.4135 H   0  0  0  0  0  0  0  0  0  0  0  0
    9.4608   -0.7710   23.6489 H   0  0  0  0  0  0  0  0  0  0  0  0
    7.5301   -1.8120   23.7061 C   0  0  0  0  0  0  0  0  0  0  0  0
    7.4775   -1.5449   24.7658 H   0  0  0  0  0  0  0  0  0  0  0  0
    7.3455   -2.8846   23.5903 H   0  0  0  0  0  0  0  0  0  0  0  0
    6.6872   -0.9242   22.8130 C   0  0  0  0  0  0  0  0  0  0  0  0
    6.0380   -1.4774   22.1334 H   0  0  0  0  0  0  0  0  0  0  0  0
    6.0774   -0.2050   23.3670 H   0  0  0  0  0  0  0  0  0  0  0  0
    5.9265    0.5674   20.1669 C   0  0  0  0  0  0  0  0  0  0  0  0
    5.6775    0.5498   21.2215 H   0  0  0  0  0  0  0  0  0  0  0  0
    5.0975    1.2052   19.2321 C   0  0  0  0  0  0  0  0  0  0  0  0
    4.1861    1.7058   19.5493 H   0  0  0  0  0  0  0  0  0  0  0  0
  1  2  1  0
  2  3  2  0
  3  4  1  0
  4  5  1  0
  4  6  2  0
  6  7  1  0
  7  8  1  0
  7  9  1  0
  9 10  1  0
 10 11  2  0
 11 12  1  0
 11 13  1  0
 13 14  1  0
 13 15  2  0
 15 16  1  0
 15 17  1  0
 17 18  1  0
 17 19  2  0
 19 20  1  0
  9 21  1  0
 21 22  1  0
 21 23  1  0
 21 24  1  0
 24 25  1  0
 24 26  1  0
 24 27  1  0
 27 28  1  0
 27 29  1  0
  6 30  1  0
 30 31  1  0
 30 32  2  0
 32 33  1  0
 32  2  1  0
 27  9  1  0
 19 10  1  0
M  END
>  <cnnaffinity>  (1) 
-4.80796

>  <filename>  (1) 
Brc1ccc(C2(Nc3cccnc3)CCC2)cc1

$$$$
