
     RDKit          3D

 30 32  0  0  0  0  0  0  0  0999 V2000
    4.8864    1.7964   17.0126 H   0  0  0  0  0  0  0  0  0  0  0  0
    5.4010    1.2968   17.8274 C   0  0  0  0  0  0  0  0  0  0  0  0
    6.5740    0.6884   17.5681 N   0  0  0  0  0  0  0  0  0  0  0  0
    7.1976    0.0691   18.5975 C   0  0  0  0  0  0  0  0  0  0  0  0
    8.1346   -0.4383   18.3967 H   0  0  0  0  0  0  0  0  0  0  0  0
    6.6783   -0.0046   19.9132 C   0  0  0  0  0  0  0  0  0  0  0  0
    7.3116   -0.7346   20.9411 N   0  0  0  0  0  0  0  0  0  0  0  0
    6.7277   -1.0773   21.7104 H   0  0  0  0  0  0  0  0  0  0  0  0
    8.7093   -0.8043   21.1077 C   0  0  0  0  0  0  0  0  0  0  0  0
    9.7185    0.1433   20.6556 C   0  0  0  0  0  0  0  0  0  0  0  0
    9.4823    1.0121   20.0590 H   0  0  0  0  0  0  0  0  0  0  0  0
   10.9241   -0.1573   21.0907 N   0  0  0  0  0  0  0  0  0  0  0  0
   10.7351   -1.3017   21.8008 N   0  0  0  0  0  0  0  0  0  0  0  0
   11.4866   -1.8061   22.2690 H   0  0  0  0  0  0  0  0  0  0  0  0
    9.4124   -1.7206   21.8340 C   0  0  0  0  0  0  0  0  0  0  0  0
    8.9186   -2.9025   22.5280 C   0  0  0  0  0  0  0  0  0  0  0  0
    9.5022   -3.3098   23.7365 C   0  0  0  0  0  0  0  0  0  0  0  0
   10.3175   -2.7346   24.1647 H   0  0  0  0  0  0  0  0  0  0  0  0
    9.0228   -4.4394   24.4039 C   0  0  0  0  0  0  0  0  0  0  0  0
    9.4684   -4.7440   25.3471 H   0  0  0  0  0  0  0  0  0  0  0  0
    7.9651   -5.1711   23.8553 C   0  0  0  0  0  0  0  0  0  0  0  0
    7.5889   -6.0451   24.3730 H   0  0  0  0  0  0  0  0  0  0  0  0
    7.3853   -4.7845   22.6423 C   0  0  0  0  0  0  0  0  0  0  0  0
    5.9524   -5.7954   21.8836 Br  0  0  0  0  0  0  0  0  0  0  0  0
    7.8648   -3.6485   21.9851 C   0  0  0  0  0  0  0  0  0  0  0  0
    7.4316   -3.3500   21.0346 H   0  0  0  0  0  0  0  0  0  0  0  0
    5.4556    0.6312   20.1643 C   0  0  0  0  0  0  0  0  0  0  0  0
    5.0219    0.6150   21.1635 H   0  0  0  0  0  0  0  0  0  0  0  0
    4.8223    1.3011   19.1059 C   0  0  0  0  0  0  0  0  0  0  0  0
    3.8868    1.8296   19.2612 H   0  0  0  0  0  0  0  0  0  0  0  0
  1  2  1  0
  2  3  2  0
  3  4  1  0
  4  5  1  0
  4  6  2  0
  6  7  1  0
  7  8  1  0
  7  9  1  0
  9 10  1  0
 10 11  1  0
 10 12  2  0
 12 13  1  0
 13 14  1  0
 13 15  1  0
 15 16  1  0
 16 17  2  0
 17 18  1  0
 17 19  1  0
 19 20  1  0
 19 21  2  0
 21 22  1  0
 21 23  1  0
 23 24  1  0
 23 25  2  0
 25 26  1  0
  6 27  1  0
 27 28  1  0
 27 29  2  0
 29 30  1  0
 29  2  1  0
 15  9  2  0
 25 16  1  0
M  END
>  <cnnaffinity>  (1) 
-5.75087

>  <filename>  (1) 
Brc1cccc(-c2[nH]ncc2Nc2cccnc2)c1

$$$$
