
     RDKit          3D

 29 31  0  0  0  0  0  0  0  0999 V2000
    4.8939    1.7948   17.0161 H   0  0  0  0  0  0  0  0  0  0  0  0
    5.4124    1.2932   17.8302 C   0  0  0  0  0  0  0  0  0  0  0  0
    6.5866    0.6786   17.5864 N   0  0  0  0  0  0  0  0  0  0  0  0
    7.2099    0.0595   18.6177 C   0  0  0  0  0  0  0  0  0  0  0  0
    8.1434   -0.4487   18.4040 H   0  0  0  0  0  0  0  0  0  0  0  0
    6.6891    0.0032   19.9304 C   0  0  0  0  0  0  0  0  0  0  0  0
    7.2547   -0.7230   20.9641 O   0  0  0  0  0  0  0  0  0  0  0  0
    8.6311   -0.7968   21.0912 C   0  0  0  0  0  0  0  0  0  0  0  0
    9.6790    0.0841   20.6105 C   0  0  0  0  0  0  0  0  0  0  0  0
    9.5017    0.9410   19.9793 H   0  0  0  0  0  0  0  0  0  0  0  0
   10.8735   -0.2659   21.0528 N   0  0  0  0  0  0  0  0  0  0  0  0
   10.6370   -1.3693   21.8105 N   0  0  0  0  0  0  0  0  0  0  0  0
   11.3681   -1.9075   22.2837 H   0  0  0  0  0  0  0  0  0  0  0  0
    9.2986   -1.7087   21.8581 C   0  0  0  0  0  0  0  0  0  0  0  0
    8.7530   -2.8285   22.6093 C   0  0  0  0  0  0  0  0  0  0  0  0
    9.4003   -3.2817   23.7714 C   0  0  0  0  0  0  0  0  0  0  0  0
   10.3021   -2.7913   24.1381 H   0  0  0  0  0  0  0  0  0  0  0  0
    8.8357   -4.3202   24.5192 C   0  0  0  0  0  0  0  0  0  0  0  0
    9.3073   -4.6567   25.4363 H   0  0  0  0  0  0  0  0  0  0  0  0
    7.6227   -4.8895   24.1389 C   0  0  0  0  0  0  0  0  0  0  0  0
    6.7300   -6.0298   25.3791 Br  0  0  0  0  0  0  0  0  0  0  0  0
    7.0247   -4.5028   22.9328 C   0  0  0  0  0  0  0  0  0  0  0  0
    6.1054   -4.9747   22.6064 H   0  0  0  0  0  0  0  0  0  0  0  0
    7.5774   -3.4587   22.1761 C   0  0  0  0  0  0  0  0  0  0  0  0
    7.0824   -3.1084   21.2701 H   0  0  0  0  0  0  0  0  0  0  0  0
    5.4675    0.6417   20.1649 C   0  0  0  0  0  0  0  0  0  0  0  0
    5.0199    0.6206   21.1581 H   0  0  0  0  0  0  0  0  0  0  0  0
    4.8321    1.3023   19.1054 C   0  0  0  0  0  0  0  0  0  0  0  0
    3.8926    1.8233   19.2571 H   0  0  0  0  0  0  0  0  0  0  0  0
  1  2  1  0
  2  3  2  0
  3  4  1  0
  4  5  1  0
  4  6  2  0
  6  7  1  0
  7  8  1  0
  8  9  1  0
  9 10  1  0
  9 11  2  0
 11 12  1  0
 12 13  1  0
 12 14  1  0
 14 15  1  0
 15 16  2  0
 16 17  1  0
 16 18  1  0
 18 19  1  0
 18 20  2  0
 20 21  1  0
 20 22  1  0
 22 23  1  0
 22 24  2  0
 24 25  1  0
  6 26  1  0
 26 27  1  0
 26 28  2  0
 28 29  1  0
 28  2  1  0
 14  8  2  0
 24 15  1  0
M  END
>  <cnnaffinity>  (1) 
-5.4389

>  <filename>  (1) 
Brc1ccc(-c2[nH]ncc2Oc2cccnc2)cc1

$$$$
