
     RDKit          3D

 29 31  0  0  0  0  0  0  0  0999 V2000
    8.5281   -1.7544   19.7867 H   0  0  0  0  0  0  0  0  0  0  0  0
    8.2904   -1.5274   20.8140 C   0  0  0  0  0  0  0  0  0  0  0  0
    8.9268   -2.2132   21.7835 N   0  0  0  0  0  0  0  0  0  0  0  0
    8.6270   -1.8042   23.0284 C   0  0  0  0  0  0  0  0  0  0  0  0
    9.0979   -2.2829   23.8793 H   0  0  0  0  0  0  0  0  0  0  0  0
    7.7379   -0.7383   23.2911 C   0  0  0  0  0  0  0  0  0  0  0  0
    7.6087   -0.2528   24.6595 C   0  0  0  0  0  0  0  0  0  0  0  0
    6.5612    0.6044   25.0070 C   0  0  0  0  0  0  0  0  0  0  0  0
    5.8295    0.8808   24.2546 H   0  0  0  0  0  0  0  0  0  0  0  0
    6.4210    1.0814   26.3097 C   0  0  0  0  0  0  0  0  0  0  0  0
    5.5927    1.7386   26.5523 H   0  0  0  0  0  0  0  0  0  0  0  0
    7.3349    0.6909   27.2912 C   0  0  0  0  0  0  0  0  0  0  0  0
    7.2455    1.0403   28.3171 H   0  0  0  0  0  0  0  0  0  0  0  0
    8.3823   -0.1644   26.9542 C   0  0  0  0  0  0  0  0  0  0  0  0
    9.6107   -0.7139   28.2856 Br  0  0  0  0  0  0  0  0  0  0  0  0
    8.5333   -0.6232   25.6469 C   0  0  0  0  0  0  0  0  0  0  0  0
    9.3853   -1.2586   25.4107 H   0  0  0  0  0  0  0  0  0  0  0  0
    7.0511   -0.1243   22.3079 N   0  0  0  0  0  0  0  0  0  0  0  0
    7.3216   -0.5226   21.0623 C   0  0  0  0  0  0  0  0  0  0  0  0
    6.6030    0.1111   19.9768 C   0  0  0  0  0  0  0  0  0  0  0  0
    7.1534    0.0413   18.7011 C   0  0  0  0  0  0  0  0  0  0  0  0
    8.0866   -0.5009   18.5759 H   0  0  0  0  0  0  0  0  0  0  0  0
    6.5908    0.6118   17.6309 N   0  0  0  0  0  0  0  0  0  0  0  0
    5.4357    1.2735   17.8142 C   0  0  0  0  0  0  0  0  0  0  0  0
    4.9849    1.7740   16.9645 H   0  0  0  0  0  0  0  0  0  0  0  0
    4.7965    1.3505   19.0566 C   0  0  0  0  0  0  0  0  0  0  0  0
    3.8562    1.8783   19.1442 H   0  0  0  0  0  0  0  0  0  0  0  0
    5.3864    0.7724   20.1730 C   0  0  0  0  0  0  0  0  0  0  0  0
    4.9213    0.8346   21.1597 H   0  0  0  0  0  0  0  0  0  0  0  0
  1  2  1  0
  2  3  2  0
  3  4  1  0
  4  5  1  0
  4  6  2  0
  6  7  1  0
  7  8  2  0
  8  9  1  0
  8 10  1  0
 10 11  1  0
 10 12  2  0
 12 13  1  0
 12 14  1  0
 14 15  1  0
 14 16  2  0
 16 17  1  0
  6 18  1  0
 18 19  2  0
 19 20  1  0
 20 21  2  0
 21 22  1  0
 21 23  1  0
 23 24  2  0
 24 25  1  0
 24 26  1  0
 26 27  1  0
 26 28  2  0
 28 29  1  0
 19  2  1  0
 28 20  1  0
 16  7  1  0
M  END
>  <cnnaffinity>  (1) 
-5.25729

>  <filename>  (1) 
Brc1cccc(-c2cncc(-c3cccnc3)n2)c1

$$$$
