
     RDKit          3D

 30 32  0  0  0  0  0  0  0  0999 V2000
    4.8854    1.7966   17.0101 H   0  0  0  0  0  0  0  0  0  0  0  0
    5.4006    1.2983   17.8226 C   0  0  0  0  0  0  0  0  0  0  0  0
    6.5652    0.6752   17.5582 N   0  0  0  0  0  0  0  0  0  0  0  0
    7.1746    0.0544   18.5841 C   0  0  0  0  0  0  0  0  0  0  0  0
    8.1248   -0.4406   18.3996 H   0  0  0  0  0  0  0  0  0  0  0  0
    6.6533    0.0279   19.8912 C   0  0  0  0  0  0  0  0  0  0  0  0
    7.3567   -0.6662   20.9648 C   0  0  0  0  0  0  0  0  0  0  0  0
    7.4782   -0.3198   22.2772 C   0  0  0  0  0  0  0  0  0  0  0  0
    7.0180    0.8637   22.9004 N   0  0  0  0  0  0  0  0  0  0  0  0
    6.9635    1.7052   22.3257 H   0  0  0  0  0  0  0  0  0  0  0  0
    6.8340    1.0307   24.2797 C   0  0  0  0  0  0  0  0  0  0  0  0
    6.3831   -0.0206   25.0856 C   0  0  0  0  0  0  0  0  0  0  0  0
    6.1804   -0.9822   24.6323 H   0  0  0  0  0  0  0  0  0  0  0  0
    6.1529    0.1655   26.4561 C   0  0  0  0  0  0  0  0  0  0  0  0
    5.7909   -0.6540   27.0715 H   0  0  0  0  0  0  0  0  0  0  0  0
    6.3804    1.4180   27.0338 C   0  0  0  0  0  0  0  0  0  0  0  0
    6.2071    1.5680   28.0953 H   0  0  0  0  0  0  0  0  0  0  0  0
    6.8275    2.4822   26.2439 C   0  0  0  0  0  0  0  0  0  0  0  0
    7.1297    4.1956   27.0426 Br  0  0  0  0  0  0  0  0  0  0  0  0
    7.0441    2.2831   24.8712 C   0  0  0  0  0  0  0  0  0  0  0  0
    7.3890    3.1114   24.2658 H   0  0  0  0  0  0  0  0  0  0  0  0
    8.2772   -1.3985   22.8492 C   0  0  0  0  0  0  0  0  0  0  0  0
    8.5793   -1.4016   23.8861 H   0  0  0  0  0  0  0  0  0  0  0  0
    8.6248   -2.3136   21.9642 N   0  0  0  0  0  0  0  0  0  0  0  0
    8.0553   -1.8517   20.8129 N   0  0  0  0  0  0  0  0  0  0  0  0
    8.1243   -2.3259   19.9146 H   0  0  0  0  0  0  0  0  0  0  0  0
    5.4449    0.6681   20.1600 C   0  0  0  0  0  0  0  0  0  0  0  0
    5.0132    0.6376   21.1637 H   0  0  0  0  0  0  0  0  0  0  0  0
    4.8158    1.3154   19.0993 C   0  0  0  0  0  0  0  0  0  0  0  0
    3.8778    1.8348   19.2600 H   0  0  0  0  0  0  0  0  0  0  0  0
  1  2  1  0
  2  3  2  0
  3  4  1  0
  4  5  1  0
  4  6  2  0
  6  7  1  0
  7  8  2  0
  8  9  1  0
  9 10  1  0
  9 11  1  0
 11 12  2  0
 12 13  1  0
 12 14  1  0
 14 15  1  0
 14 16  2  0
 16 17  1  0
 16 18  1  0
 18 19  1  0
 18 20  2  0
 20 21  1  0
  8 22  1  0
 22 23  1  0
 22 24  2  0
 24 25  1  0
 25 26  1  0
  6 27  1  0
 27 28  1  0
 27 29  2  0
 29 30  1  0
 29  2  1  0
 25  7  1  0
 20 11  1  0
M  END
>  <cnnaffinity>  (1) 
-5.50509

>  <filename>  (1) 
Brc1cccc(Nc2cn[nH]c2-c2cccnc2)c1

$$$$
