
     RDKit          3D

 35 38  0  0  0  0  0  0  0  0999 V2000
    4.9048    1.8193   17.0249 H   0  0  0  0  0  0  0  0  0  0  0  0
    5.4116    1.2950   17.8276 C   0  0  0  0  0  0  0  0  0  0  0  0
    6.5642    0.6555   17.5697 N   0  0  0  0  0  0  0  0  0  0  0  0
    7.1704    0.0282   18.5893 C   0  0  0  0  0  0  0  0  0  0  0  0
    8.1151   -0.4753   18.4044 H   0  0  0  0  0  0  0  0  0  0  0  0
    6.6475    0.0240   19.8830 C   0  0  0  0  0  0  0  0  0  0  0  0
    7.3634   -0.6858   20.9081 C   0  0  0  0  0  0  0  0  0  0  0  0
    8.0245   -1.7943   20.6572 N   0  0  0  0  0  0  0  0  0  0  0  0
    8.5156   -2.1477   21.8736 N   0  0  0  0  0  0  0  0  0  0  0  0
    8.2346   -1.2775   22.8588 C   0  0  0  0  0  0  0  0  0  0  0  0
    7.4811   -0.2990   22.3149 C   0  0  0  0  0  0  0  0  0  0  0  0
    7.1081    0.9262   22.9773 C   0  0  0  0  0  0  0  0  0  0  0  0
    7.2719    2.1398   22.3160 C   0  0  0  0  0  0  0  0  0  0  0  0
    7.6620    2.1296   21.3037 H   0  0  0  0  0  0  0  0  0  0  0  0
    6.9625    3.3377   22.9670 C   0  0  0  0  0  0  0  0  0  0  0  0
    7.1096    4.2834   22.4564 H   0  0  0  0  0  0  0  0  0  0  0  0
    6.4680    3.3209   24.2764 C   0  0  0  0  0  0  0  0  0  0  0  0
    6.0392    4.9605   25.1609 Br  0  0  0  0  0  0  0  0  0  0  0  0
    6.2979    2.0986   24.9366 C   0  0  0  0  0  0  0  0  0  0  0  0
    5.9084    2.0953   25.9497 H   0  0  0  0  0  0  0  0  0  0  0  0
    6.6293    0.9007   24.2914 C   0  0  0  0  0  0  0  0  0  0  0  0
    6.4996   -0.0539   24.7941 H   0  0  0  0  0  0  0  0  0  0  0  0
    9.0303   -1.4635   24.1120 C   0  0  0  0  0  0  0  0  0  0  0  0
    9.6413   -0.5793   24.3235 H   0  0  0  0  0  0  0  0  0  0  0  0
    8.4098   -1.6989   24.9824 H   0  0  0  0  0  0  0  0  0  0  0  0
    9.9098   -2.6746   23.7164 C   0  0  0  0  0  0  0  0  0  0  0  0
    9.7103   -3.5336   24.3659 H   0  0  0  0  0  0  0  0  0  0  0  0
   10.9718   -2.4266   23.7806 H   0  0  0  0  0  0  0  0  0  0  0  0
    9.5702   -3.0553   22.2662 C   0  0  0  0  0  0  0  0  0  0  0  0
    9.1999   -4.0827   22.2186 H   0  0  0  0  0  0  0  0  0  0  0  0
   10.4318   -2.8837   21.6179 H   0  0  0  0  0  0  0  0  0  0  0  0
    5.4524    0.6772   20.1606 C   0  0  0  0  0  0  0  0  0  0  0  0
    5.0176    0.6770   21.1597 H   0  0  0  0  0  0  0  0  0  0  0  0
    4.8306    1.3119   19.0983 C   0  0  0  0  0  0  0  0  0  0  0  0
    3.8953    1.8300   19.2439 H   0  0  0  0  0  0  0  0  0  0  0  0
  1  2  1  0
  2  3  2  0
  3  4  1  0
  4  5  1  0
  4  6  2  0
  6  7  1  0
  7  8  2  0
  8  9  1  0
  9 10  1  0
 10 11  2  0
 11 12  1  0
 12 13  2  0
 13 14  1  0
 13 15  1  0
 15 16  1  0
 15 17  2  0
 17 18  1  0
 17 19  1  0
 19 20  1  0
 19 21  2  0
 21 22  1  0
 10 23  1  0
 23 24  1  0
 23 25  1  0
 23 26  1  0
 26 27  1  0
 26 28  1  0
 26 29  1  0
 29 30  1  0
 29 31  1  0
  6 32  1  0
 32 33  1  0
 32 34  2  0
 34 35  1  0
 34  2  1  0
 11  7  1  0
 21 12  1  0
 29  9  1  0
M  END
>  <cnnaffinity>  (1) 
-5.58923

>  <filename>  (1) 
Brc1ccc(-c2c(-c3cccnc3)nn3c2CCC3)cc1

$$$$
