
     RDKit          3D

 30 33  0  0  0  0  0  0  0  0999 V2000
    4.8949    1.7777   17.0146 H   0  0  0  0  0  0  0  0  0  0  0  0
    5.4023    1.2910   17.8418 C   0  0  0  0  0  0  0  0  0  0  0  0
    6.5729    0.6731   17.6029 N   0  0  0  0  0  0  0  0  0  0  0  0
    7.1930    0.0488   18.6192 C   0  0  0  0  0  0  0  0  0  0  0  0
    8.1369   -0.4429   18.3937 H   0  0  0  0  0  0  0  0  0  0  0  0
    6.6555    0.0101   19.9099 C   0  0  0  0  0  0  0  0  0  0  0  0
    7.3532   -0.6838   20.9695 C   0  0  0  0  0  0  0  0  0  0  0  0
    8.5660   -1.3375   20.7627 N   0  0  0  0  0  0  0  0  0  0  0  0
    8.7789   -1.8065   21.9633 C   0  0  0  0  0  0  0  0  0  0  0  0
   10.0049   -2.8211   22.6814 S   0  0  0  0  0  0  0  0  0  0  0  0
    9.0961   -2.7708   24.2064 C   0  0  0  0  0  0  0  0  0  0  0  0
    9.4372   -3.2917   25.0990 H   0  0  0  0  0  0  0  0  0  0  0  0
    7.9407   -1.9958   24.1240 C   0  0  0  0  0  0  0  0  0  0  0  0
    6.9767   -1.7721   25.2038 C   0  0  0  0  0  0  0  0  0  0  0  0
    6.7707   -2.7555   26.1793 C   0  0  0  0  0  0  0  0  0  0  0  0
    7.3170   -3.6911   26.1349 H   0  0  0  0  0  0  0  0  0  0  0  0
    5.8516   -2.5503   27.2091 C   0  0  0  0  0  0  0  0  0  0  0  0
    5.6985   -3.3184   27.9602 H   0  0  0  0  0  0  0  0  0  0  0  0
    5.1274   -1.3574   27.2724 C   0  0  0  0  0  0  0  0  0  0  0  0
    4.4146   -1.2002   28.0756 H   0  0  0  0  0  0  0  0  0  0  0  0
    5.3202   -0.3660   26.3056 C   0  0  0  0  0  0  0  0  0  0  0  0
    4.3360    1.2697   26.4034 Br  0  0  0  0  0  0  0  0  0  0  0  0
    6.2415   -0.5756   25.2734 C   0  0  0  0  0  0  0  0  0  0  0  0
    6.3936    0.2141   24.5421 H   0  0  0  0  0  0  0  0  0  0  0  0
    7.8069   -1.4591   22.8393 N   0  0  0  0  0  0  0  0  0  0  0  0
    6.8634   -0.7418   22.1985 N   0  0  0  0  0  0  0  0  0  0  0  0
    5.4421    0.6517   20.1592 C   0  0  0  0  0  0  0  0  0  0  0  0
    5.0035    0.6344   21.1549 H   0  0  0  0  0  0  0  0  0  0  0  0
    4.8128    1.3094   19.1102 C   0  0  0  0  0  0  0  0  0  0  0  0
    3.8776    1.8394   19.2668 H   0  0  0  0  0  0  0  0  0  0  0  0
  1  2  1  0
  2  3  2  0
  3  4  1  0
  4  5  1  0
  4  6  2  0
  6  7  1  0
  7  8  1  0
  8  9  2  0
  9 10  1  0
 10 11  1  0
 11 12  1  0
 11 13  2  0
 13 14  1  0
 14 15  2  0
 15 16  1  0
 15 17  1  0
 17 18  1  0
 17 19  2  0
 19 20  1  0
 19 21  1  0
 21 22  1  0
 21 23  2  0
 23 24  1  0
 13 25  1  0
 25 26  1  0
  6 27  1  0
 27 28  1  0
 27 29  2  0
 29 30  1  0
 29  2  1  0
 26  7  2  0
 25  9  1  0
 23 14  1  0
M  END
>  <cnnaffinity>  (1) 
-5.6136

>  <filename>  (1) 
Brc1cccc(-c2csc3nc(-c4cccnc4)nn23)c1

$$$$
