
     RDKit          3D

 23 24  0  0  0  0  0  0  0  0999 V2000
   12.7930    0.2050   23.1365 H   0  0  0  0  0  0  0  0  0  0  0  0
   11.8045   -0.1044   22.8779 C   0  0  0  0  0  0  0  0  0  0  0  0
   10.6881   -0.4401   22.5767 C   0  0  0  0  0  0  0  0  0  0  0  0
    9.3606   -0.8730   22.2570 C   0  0  0  0  0  0  0  0  0  0  0  0
    8.6467   -0.2748   21.2744 C   0  0  0  0  0  0  0  0  0  0  0  0
    9.0564    0.5583   20.7065 H   0  0  0  0  0  0  0  0  0  0  0  0
    7.3595   -0.6729   20.9377 N   0  0  0  0  0  0  0  0  0  0  0  0
    6.6593    0.0217   19.8860 C   0  0  0  0  0  0  0  0  0  0  0  0
    7.1778    0.0759   18.5779 C   0  0  0  0  0  0  0  0  0  0  0  0
    8.1191   -0.4280   18.3575 H   0  0  0  0  0  0  0  0  0  0  0  0
    6.5584    0.6860   17.5626 N   0  0  0  0  0  0  0  0  0  0  0  0
    5.3941    1.3001   17.8303 C   0  0  0  0  0  0  0  0  0  0  0  0
    4.9109    1.7901   16.9889 H   0  0  0  0  0  0  0  0  0  0  0  0
    4.8087    1.3159   19.1009 C   0  0  0  0  0  0  0  0  0  0  0  0
    3.8758    1.8420   19.2563 H   0  0  0  0  0  0  0  0  0  0  0  0
    5.4432    0.6522   20.1550 C   0  0  0  0  0  0  0  0  0  0  0  0
    5.0197    0.6112   21.1587 H   0  0  0  0  0  0  0  0  0  0  0  0
    6.7237   -1.7434   21.6120 C   0  0  0  0  0  0  0  0  0  0  0  0
    5.6248   -2.1809   21.3628 O   0  0  0  0  0  0  0  0  0  0  0  0
    7.4688   -2.3097   22.5849 N   0  0  0  0  0  0  0  0  0  0  0  0
    7.0208   -3.0615   23.0676 H   0  0  0  0  0  0  0  0  0  0  0  0
    8.7432   -1.9994   23.0046 C   0  0  0  0  0  0  0  0  0  0  0  0
    9.2003   -2.6653   23.9056 O   0  0  0  0  0  0  0  0  0  0  0  0
  1  2  1  0
  2  3  3  0
  3  4  1  0
  4  5  2  0
  5  6  1  0
  5  7  1  0
  7  8  1  0
  8  9  2  0
  9 10  1  0
  9 11  1  0
 11 12  2  0
 12 13  1  0
 12 14  1  0
 14 15  1  0
 14 16  2  0
 16 17  1  0
  7 18  1  0
 18 19  2  0
 18 20  1  0
 20 21  1  0
 20 22  1  0
 22 23  2  0
 22  4  1  0
 16  8  1  0
M  END
>  <cnnaffinity>  (1) 
-4.84321

>  <filename>  (1) 
C#Cc1cn(-c2cccnc2)c(=O)[nH]c1=O

$$$$
