
     RDKit          3D

 38 39  0  0  0  0  0  0  0  0999 V2000
    0.3648   -0.1204   26.2234 C   0  0  0  0  0  0  0  0  0  0  0  0
    1.5558   -0.1333   26.0561 C   0  0  0  0  0  0  0  0  0  0  0  0
    3.0138   -0.1232   25.8725 C   0  0  0  0  0  0  0  0  0  0  0  0
    3.5839   -1.5180   25.5165 C   0  0  0  0  0  0  0  0  0  0  0  0
    5.1114   -1.5402   25.2686 C   0  0  0  0  0  0  0  0  0  0  0  0
    5.5871   -2.7683   24.4513 C   0  0  0  0  0  0  0  0  0  0  0  0
    6.9503   -2.6982   23.9778 N   0  0  0  0  0  0  0  0  0  0  0  0
    7.4315   -2.0269   22.9238 C   0  0  0  0  0  0  0  0  0  0  0  0
    6.6773   -1.4325   21.9280 C   0  0  0  0  0  0  0  0  0  0  0  0
    7.3941   -0.7390   20.9794 C   0  0  0  0  0  0  0  0  0  0  0  0
    6.6866    0.0079   19.9291 C   0  0  0  0  0  0  0  0  0  0  0  0
    5.4664    0.6568   20.1645 C   0  0  0  0  0  0  0  0  0  0  0  0
    4.8458    1.3035   19.1007 C   0  0  0  0  0  0  0  0  0  0  0  0
    5.4634    1.2682   17.8430 C   0  0  0  0  0  0  0  0  0  0  0  0
    6.6302    0.6487   17.6058 N   0  0  0  0  0  0  0  0  0  0  0  0
    7.2271    0.0479   18.6403 C   0  0  0  0  0  0  0  0  0  0  0  0
    8.1764   -0.4439   18.4425 H   0  0  0  0  0  0  0  0  0  0  0  0
    4.9949    1.7578   16.9913 H   0  0  0  0  0  0  0  0  0  0  0  0
    3.9013    1.8221   19.2318 H   0  0  0  0  0  0  0  0  0  0  0  0
    5.0236    0.6645   21.1644 H   0  0  0  0  0  0  0  0  0  0  0  0
    8.7257   -0.7321   20.9425 N   0  0  0  0  0  0  0  0  0  0  0  0
    9.3483   -1.3722   21.9338 C   0  0  0  0  0  0  0  0  0  0  0  0
   10.8425   -1.3177   21.9195 C   0  0  0  0  0  0  0  0  0  0  0  0
   11.2558   -2.2161   22.3837 H   0  0  0  0  0  0  0  0  0  0  0  0
   11.1619   -0.4511   22.5079 H   0  0  0  0  0  0  0  0  0  0  0  0
   11.2076   -1.2081   20.8959 H   0  0  0  0  0  0  0  0  0  0  0  0
    8.7672   -2.0124   22.9363 N   0  0  0  0  0  0  0  0  0  0  0  0
    5.6074   -1.5100   21.8687 H   0  0  0  0  0  0  0  0  0  0  0  0
    7.7607   -2.9194   24.5370 H   0  0  0  0  0  0  0  0  0  0  0  0
    4.9500   -2.9229   23.5695 H   0  0  0  0  0  0  0  0  0  0  0  0
    5.4813   -3.6899   25.0388 H   0  0  0  0  0  0  0  0  0  0  0  0
    5.6630   -1.4975   26.2207 H   0  0  0  0  0  0  0  0  0  0  0  0
    5.4028   -0.6330   24.7162 H   0  0  0  0  0  0  0  0  0  0  0  0
    3.0606   -1.8709   24.6157 H   0  0  0  0  0  0  0  0  0  0  0  0
    3.3119   -2.2269   26.3113 H   0  0  0  0  0  0  0  0  0  0  0  0
    3.2520    0.5989   25.0780 H   0  0  0  0  0  0  0  0  0  0  0  0
    3.4671    0.2668   26.7945 H   0  0  0  0  0  0  0  0  0  0  0  0
   -0.6920   -0.1208   26.3751 H   0  0  0  0  0  0  0  0  0  0  0  0
  1  2  3  0
  2  3  1  0
  3  4  1  0
  4  5  1  0
  5  6  1  0
  6  7  1  0
  7  8  1  0
  8  9  2  0
  9 10  1  0
 10 11  1  0
 11 12  2  0
 12 13  1  0
 13 14  2  0
 14 15  1  0
 15 16  2  0
 16 17  1  0
 14 18  1  0
 13 19  1  0
 12 20  1  0
 10 21  2  0
 21 22  1  0
 22 23  1  0
 23 24  1  0
 23 25  1  0
 23 26  1  0
 22 27  2  0
  9 28  1  0
  7 29  1  0
  6 30  1  0
  6 31  1  0
  5 32  1  0
  5 33  1  0
  4 34  1  0
  4 35  1  0
  3 36  1  0
  3 37  1  0
  1 38  1  0
 27  8  1  0
 16 11  1  0
M  END
>  <cnnaffinity>  (1) 
-4.8686

>  <filename>  (1) 
C#CCCCCNc1cc(-c2cccnc2)nc(C)n1

$$$$
