
     RDKit          3D

 32 35  0  0  0  0  0  0  0  0999 V2000
    5.0026    1.8613   17.0768 H   0  0  0  0  0  0  0  0  0  0  0  0
    5.4679    1.2732   17.8640 C   0  0  0  0  0  0  0  0  0  0  0  0
    6.6150    0.6580   17.5323 N   0  0  0  0  0  0  0  0  0  0  0  0
    7.2226   -0.0512   18.4924 C   0  0  0  0  0  0  0  0  0  0  0  0
    8.1654   -0.5217   18.2129 H   0  0  0  0  0  0  0  0  0  0  0  0
    6.7150   -0.2225   19.7942 C   0  0  0  0  0  0  0  0  0  0  0  0
    7.5002   -0.9718   20.7976 C   0  0  0  0  0  0  0  0  0  0  0  0
    8.8001   -0.7516   21.0773 C   0  0  0  0  0  0  0  0  0  0  0  0
    9.4909   -0.1554   20.5004 H   0  0  0  0  0  0  0  0  0  0  0  0
    9.3260   -1.4689   22.5720 S   0  0  0  0  0  0  0  0  0  0  0  0
    7.7313   -2.1431   22.7930 C   0  0  0  0  0  0  0  0  0  0  0  0
    7.0757   -2.8304   23.6983 N   0  0  0  0  0  0  0  0  0  0  0  0
    5.8483   -2.9388   23.1143 C   0  0  0  0  0  0  0  0  0  0  0  0
    4.7308   -3.5313   23.7835 C   0  0  0  0  0  0  0  0  0  0  0  0
    3.7430   -3.8562   24.3992 C   0  0  0  0  0  0  0  0  0  0  0  0
    2.5670   -4.2471   25.1201 C   0  0  0  0  0  0  0  0  0  0  0  0
    1.3308   -4.3501   24.4576 C   0  0  0  0  0  0  0  0  0  0  0  0
    1.2554   -4.0354   23.4224 H   0  0  0  0  0  0  0  0  0  0  0  0
    0.2082   -4.8375   25.1324 C   0  0  0  0  0  0  0  0  0  0  0  0
   -0.7468   -4.9120   24.6156 H   0  0  0  0  0  0  0  0  0  0  0  0
    0.3057   -5.2085   26.4799 C   0  0  0  0  0  0  0  0  0  0  0  0
   -0.5650   -5.6063   27.0000 H   0  0  0  0  0  0  0  0  0  0  0  0
    1.5178   -5.0467   27.1639 C   0  0  0  0  0  0  0  0  0  0  0  0
    1.5811   -5.2867   28.2241 H   0  0  0  0  0  0  0  0  0  0  0  0
    2.6406   -4.5566   26.4901 C   0  0  0  0  0  0  0  0  0  0  0  0
    3.5759   -4.3960   27.0172 H   0  0  0  0  0  0  0  0  0  0  0  0
    5.7084   -2.3657   21.9245 N   0  0  0  0  0  0  0  0  0  0  0  0
    6.9347   -1.8255   21.7478 N   0  0  0  0  0  0  0  0  0  0  0  0
    5.5190    0.4433   20.1194 C   0  0  0  0  0  0  0  0  0  0  0  0
    5.1205    0.3785   21.1327 H   0  0  0  0  0  0  0  0  0  0  0  0
    4.8855    1.2030   19.1357 C   0  0  0  0  0  0  0  0  0  0  0  0
    3.9755    1.7610   19.3456 H   0  0  0  0  0  0  0  0  0  0  0  0
  1  2  1  0
  2  3  2  0
  3  4  1  0
  4  5  1  0
  4  6  2  0
  6  7  1  0
  7  8  2  0
  8  9  1  0
  8 10  1  0
 10 11  1  0
 11 12  2  0
 12 13  1  0
 13 14  1  0
 14 15  3  0
 15 16  1  0
 16 17  2  0
 17 18  1  0
 17 19  1  0
 19 20  1  0
 19 21  2  0
 21 22  1  0
 21 23  1  0
 23 24  1  0
 23 25  2  0
 25 26  1  0
 13 27  2  0
 27 28  1  0
  6 29  1  0
 29 30  1  0
 29 31  2  0
 31 32  1  0
 31  2  1  0
 28  7  1  0
 28 11  1  0
 25 16  1  0
M  END
>  <cnnaffinity>  (1) 
-5.49356

>  <filename>  (1) 
C(#Cc1nc2scc(-c3cccnc3)n2n1)c1ccccc1

$$$$
