
     RDKit          3D

 31 33  0  0  0  0  0  0  0  0999 V2000
    7.0163    1.7382   22.1278 H   0  0  0  0  0  0  0  0  0  0  0  0
    7.2917    0.9347   22.8191 C   0  0  0  0  0  0  0  0  0  0  0  0
    7.5153   -0.3027   22.3361 C   0  0  0  0  0  0  0  0  0  0  0  0
    7.3778   -0.7583   20.9362 C   0  0  0  0  0  0  0  0  0  0  0  0
    6.6571    0.0142   19.9071 C   0  0  0  0  0  0  0  0  0  0  0  0
    7.1754    0.0550   18.6059 C   0  0  0  0  0  0  0  0  0  0  0  0
    8.1184   -0.4357   18.3821 H   0  0  0  0  0  0  0  0  0  0  0  0
    6.5732    0.6783   17.5889 N   0  0  0  0  0  0  0  0  0  0  0  0
    5.4059    1.2905   17.8449 C   0  0  0  0  0  0  0  0  0  0  0  0
    4.9154    1.7743   17.0031 H   0  0  0  0  0  0  0  0  0  0  0  0
    4.8009    1.3107   19.1077 C   0  0  0  0  0  0  0  0  0  0  0  0
    3.8690    1.8461   19.2622 H   0  0  0  0  0  0  0  0  0  0  0  0
    5.4380    0.6583   20.1623 C   0  0  0  0  0  0  0  0  0  0  0  0
    5.0016    0.6362   21.1649 H   0  0  0  0  0  0  0  0  0  0  0  0
    7.9433   -1.8816   20.6876 N   0  0  0  0  0  0  0  0  0  0  0  0
    8.5270   -2.4043   21.9204 C   0  0  0  0  0  0  0  0  0  0  0  0
    9.6077   -2.4744   21.7853 H   0  0  0  0  0  0  0  0  0  0  0  0
    8.1447   -3.4089   22.1045 H   0  0  0  0  0  0  0  0  0  0  0  0
    8.1713   -1.4389   23.0729 C   0  0  0  0  0  0  0  0  0  0  0  0
    7.4794   -1.9101   23.7783 H   0  0  0  0  0  0  0  0  0  0  0  0
    9.0511   -1.0932   23.6207 H   0  0  0  0  0  0  0  0  0  0  0  0
    7.5178    1.3582   24.2126 C   0  0  0  0  0  0  0  0  0  0  0  0
    7.0930    0.6122   25.3301 C   0  0  0  0  0  0  0  0  0  0  0  0
    6.5319   -0.3050   25.1653 H   0  0  0  0  0  0  0  0  0  0  0  0
    7.2948    0.9731   26.6043 N   0  0  0  0  0  0  0  0  0  0  0  0
    7.9571    2.1170   26.8140 C   0  0  0  0  0  0  0  0  0  0  0  0
    8.1137    2.4053   27.8494 H   0  0  0  0  0  0  0  0  0  0  0  0
    8.4276    2.9435   25.7866 C   0  0  0  0  0  0  0  0  0  0  0  0
    8.9449    3.8684   26.0108 H   0  0  0  0  0  0  0  0  0  0  0  0
    8.1976    2.5597   24.4689 C   0  0  0  0  0  0  0  0  0  0  0  0
    8.5512    3.1686   23.6365 H   0  0  0  0  0  0  0  0  0  0  0  0
  1  2  1  0
  2  3  2  3
  3  4  1  0
  4  5  1  0
  5  6  2  0
  6  7  1  0
  6  8  1  0
  8  9  2  0
  9 10  1  0
  9 11  1  0
 11 12  1  0
 11 13  2  0
 13 14  1  0
  4 15  2  0
 15 16  1  0
 16 17  1  0
 16 18  1  0
 16 19  1  0
 19 20  1  0
 19 21  1  0
  2 22  1  0
 22 23  2  0
 23 24  1  0
 23 25  1  0
 25 26  2  0
 26 27  1  0
 26 28  1  0
 28 29  1  0
 28 30  2  0
 30 31  1  0
 19  3  1  0
 30 22  1  0
 13  5  1  0
M  END
>  <cnnaffinity>  (1) 
-5.70663

>  <filename>  (1) 
C(=C1CCN=C1c1cccnc1)c1cccnc1

$$$$
