
     RDKit          3D

 36 39  0  0  0  0  0  0  0  0999 V2000
    5.3587   -2.3469   20.9789 H   0  0  0  0  0  0  0  0  0  0  0  0
    5.9025   -2.3727   21.9272 C   0  0  0  0  0  0  0  0  0  0  0  0
    7.0620   -1.6834   21.9826 C   0  0  0  0  0  0  0  0  0  0  0  0
    7.5564   -0.7100   20.9682 C   0  0  0  0  0  0  0  0  0  0  0  0
    6.7242   -0.0341   19.9366 C   0  0  0  0  0  0  0  0  0  0  0  0
    7.2528    0.0495   18.6384 C   0  0  0  0  0  0  0  0  0  0  0  0
    8.2131   -0.4060   18.4129 H   0  0  0  0  0  0  0  0  0  0  0  0
    6.6406    0.6487   17.6136 N   0  0  0  0  0  0  0  0  0  0  0  0
    5.4669    1.2492   17.8665 C   0  0  0  0  0  0  0  0  0  0  0  0
    4.9883    1.7440   17.0221 H   0  0  0  0  0  0  0  0  0  0  0  0
    4.8556    1.2462   19.1245 C   0  0  0  0  0  0  0  0  0  0  0  0
    3.9174    1.7748   19.2590 H   0  0  0  0  0  0  0  0  0  0  0  0
    5.4888    0.5873   20.1835 C   0  0  0  0  0  0  0  0  0  0  0  0
    5.0397    0.5704   21.1788 H   0  0  0  0  0  0  0  0  0  0  0  0
    8.8176   -0.4811   21.0386 N   0  0  0  0  0  0  0  0  0  0  0  0
    9.3940   -1.2411   22.1500 C   0  0  0  0  0  0  0  0  0  0  0  0
   10.0458   -2.0242   21.7405 H   0  0  0  0  0  0  0  0  0  0  0  0
   10.0153   -0.5910   22.7714 H   0  0  0  0  0  0  0  0  0  0  0  0
    8.2168   -1.8357   22.9590 C   0  0  0  0  0  0  0  0  0  0  0  0
    8.3892   -2.8668   23.2711 H   0  0  0  0  0  0  0  0  0  0  0  0
    8.0573   -1.2293   23.8596 H   0  0  0  0  0  0  0  0  0  0  0  0
    5.2842   -3.2063   22.9934 C   0  0  0  0  0  0  0  0  0  0  0  0
    5.3966   -2.8732   24.3804 C   0  0  0  0  0  0  0  0  0  0  0  0
    5.9780   -1.9977   24.6649 H   0  0  0  0  0  0  0  0  0  0  0  0
    4.7624   -3.6097   25.3729 C   0  0  0  0  0  0  0  0  0  0  0  0
    4.8058   -3.3228   26.4201 H   0  0  0  0  0  0  0  0  0  0  0  0
    4.0361   -4.7462   24.9778 C   0  0  0  0  0  0  0  0  0  0  0  0
    3.8943   -5.1139   23.6138 C   0  0  0  0  0  0  0  0  0  0  0  0
    4.5189   -4.3260   22.6322 C   0  0  0  0  0  0  0  0  0  0  0  0
    4.4342   -4.6116   21.5876 H   0  0  0  0  0  0  0  0  0  0  0  0
    3.0965   -6.3170   23.5994 C   0  0  0  0  0  0  0  0  0  0  0  0
    2.7602   -6.8680   22.7292 H   0  0  0  0  0  0  0  0  0  0  0  0
    2.8238   -6.6346   24.8962 C   0  0  0  0  0  0  0  0  0  0  0  0
    2.2690   -7.4733   25.3027 H   0  0  0  0  0  0  0  0  0  0  0  0
    3.3805   -5.6850   25.7334 N   0  0  0  0  0  0  0  0  0  0  0  0
    3.3970   -5.7095   26.7384 H   0  0  0  0  0  0  0  0  0  0  0  0
  1  2  1  0
  2  3  2  3
  3  4  1  0
  4  5  1  0
  5  6  2  0
  6  7  1  0
  6  8  1  0
  8  9  2  0
  9 10  1  0
  9 11  1  0
 11 12  1  0
 11 13  2  0
 13 14  1  0
  4 15  2  0
 15 16  1  0
 16 17  1  0
 16 18  1  0
 16 19  1  0
 19 20  1  0
 19 21  1  0
  2 22  1  0
 22 23  2  0
 23 24  1  0
 23 25  1  0
 25 26  1  0
 25 27  2  0
 27 28  1  0
 28 29  2  0
 29 30  1  0
 28 31  1  0
 31 32  1  0
 31 33  2  0
 33 34  1  0
 33 35  1  0
 35 36  1  0
 19  3  1  0
 29 22  1  0
 13  5  1  0
 35 27  1  0
M  END
>  <cnnaffinity>  (1) 
-5.26224

>  <filename>  (1) 
C(=C1CCN=C1c1cccnc1)c1ccc2[nH]ccc2c1

$$$$
