
     RDKit          3D

 34 37  0  0  0  0  0  0  0  0999 V2000
    5.2763   -2.3619   20.9651 H   0  0  0  0  0  0  0  0  0  0  0  0
    5.8786   -2.4156   21.8613 C   0  0  0  0  0  0  0  0  0  0  0  0
    7.0427   -1.7456   21.9362 C   0  0  0  0  0  0  0  0  0  0  0  0
    7.5237   -0.7216   20.9641 C   0  0  0  0  0  0  0  0  0  0  0  0
    6.6833   -0.0555   19.9382 C   0  0  0  0  0  0  0  0  0  0  0  0
    7.2228    0.0329   18.6453 C   0  0  0  0  0  0  0  0  0  0  0  0
    8.1891   -0.4185   18.4325 H   0  0  0  0  0  0  0  0  0  0  0  0
    6.6247    0.6441   17.6211 N   0  0  0  0  0  0  0  0  0  0  0  0
    5.4537    1.2498   17.8704 C   0  0  0  0  0  0  0  0  0  0  0  0
    4.9871    1.7518   17.0239 H   0  0  0  0  0  0  0  0  0  0  0  0
    4.8363    1.2441   19.1255 C   0  0  0  0  0  0  0  0  0  0  0  0
    3.9067    1.7834   19.2547 H   0  0  0  0  0  0  0  0  0  0  0  0
    5.4525    0.5728   20.1856 C   0  0  0  0  0  0  0  0  0  0  0  0
    4.9993    0.5684   21.1798 H   0  0  0  0  0  0  0  0  0  0  0  0
    8.7728   -0.4573   21.0722 N   0  0  0  0  0  0  0  0  0  0  0  0
    9.3364   -1.2081   22.2001 C   0  0  0  0  0  0  0  0  0  0  0  0
    9.8526   -0.5283   22.8845 H   0  0  0  0  0  0  0  0  0  0  0  0
   10.0747   -1.9199   21.8060 H   0  0  0  0  0  0  0  0  0  0  0  0
    8.1723   -1.9309   22.9271 C   0  0  0  0  0  0  0  0  0  0  0  0
    7.9323   -1.4314   23.8728 H   0  0  0  0  0  0  0  0  0  0  0  0
    8.4084   -2.9737   23.1589 H   0  0  0  0  0  0  0  0  0  0  0  0
    5.2567   -3.2699   22.8808 C   0  0  0  0  0  0  0  0  0  0  0  0
    4.1606   -3.8990   22.6144 N   0  0  0  0  0  0  0  0  0  0  0  0
    3.6976   -4.5801   23.7250 C   0  0  0  0  0  0  0  0  0  0  0  0
    2.5021   -5.3181   23.7776 C   0  0  0  0  0  0  0  0  0  0  0  0
    1.9077   -5.3675   22.8732 H   0  0  0  0  0  0  0  0  0  0  0  0
    2.1221   -5.9308   24.9678 C   0  0  0  0  0  0  0  0  0  0  0  0
    1.1745   -6.4612   25.0299 H   0  0  0  0  0  0  0  0  0  0  0  0
    2.9461   -5.8336   26.1102 C   0  0  0  0  0  0  0  0  0  0  0  0
    2.6340   -6.2998   27.0388 H   0  0  0  0  0  0  0  0  0  0  0  0
    4.1246   -5.0894   26.0851 C   0  0  0  0  0  0  0  0  0  0  0  0
    4.7132   -4.9439   26.9886 H   0  0  0  0  0  0  0  0  0  0  0  0
    4.4950   -4.4666   24.8831 C   0  0  0  0  0  0  0  0  0  0  0  0
    5.8482   -3.4342   24.5374 S   0  0  0  0  0  0  0  0  0  0  0  0
  1  2  1  0
  2  3  2  3
  3  4  1  0
  4  5  1  0
  5  6  2  0
  6  7  1  0
  6  8  1  0
  8  9  2  0
  9 10  1  0
  9 11  1  0
 11 12  1  0
 11 13  2  0
 13 14  1  0
  4 15  2  0
 15 16  1  0
 16 17  1  0
 16 18  1  0
 16 19  1  0
 19 20  1  0
 19 21  1  0
  2 22  1  0
 22 23  2  0
 23 24  1  0
 24 25  2  0
 25 26  1  0
 25 27  1  0
 27 28  1  0
 27 29  2  0
 29 30  1  0
 29 31  1  0
 31 32  1  0
 31 33  2  0
 33 34  1  0
 19  3  1  0
 34 22  1  0
 13  5  1  0
 33 24  1  0
M  END
>  <cnnaffinity>  (1) 
-5.53668

>  <filename>  (1) 
C(=C1CCN=C1c1cccnc1)c1nc2ccccc2s1

$$$$
