
     RDKit          3D

 38 41  0  0  0  0  0  0  0  0999 V2000
    7.1099    1.7285   22.1361 H   0  0  0  0  0  0  0  0  0  0  0  0
    7.3385    0.9164   22.8310 C   0  0  0  0  0  0  0  0  0  0  0  0
    7.5500   -0.3180   22.3438 C   0  0  0  0  0  0  0  0  0  0  0  0
    7.3762   -0.7606   20.9441 C   0  0  0  0  0  0  0  0  0  0  0  0
    6.6356    0.0078   19.9185 C   0  0  0  0  0  0  0  0  0  0  0  0
    7.1535    0.0223   18.6164 C   0  0  0  0  0  0  0  0  0  0  0  0
    8.0814   -0.5027   18.3933 H   0  0  0  0  0  0  0  0  0  0  0  0
    6.5756    0.6575   17.5929 N   0  0  0  0  0  0  0  0  0  0  0  0
    5.4212    1.3008   17.8319 C   0  0  0  0  0  0  0  0  0  0  0  0
    4.9754    1.8221   16.9863 H   0  0  0  0  0  0  0  0  0  0  0  0
    4.8008    1.3229   19.0827 C   0  0  0  0  0  0  0  0  0  0  0  0
    3.8637    1.8521   19.2071 H   0  0  0  0  0  0  0  0  0  0  0  0
    5.4244    0.6817   20.1528 C   0  0  0  0  0  0  0  0  0  0  0  0
    4.9822    0.7035   21.1496 H   0  0  0  0  0  0  0  0  0  0  0  0
    7.9531   -1.8780   20.6820 N   0  0  0  0  0  0  0  0  0  0  0  0
    8.5586   -2.4233   21.8987 C   0  0  0  0  0  0  0  0  0  0  0  0
    8.1800   -3.4372   22.0556 H   0  0  0  0  0  0  0  0  0  0  0  0
    9.6405   -2.4976   21.7450 H   0  0  0  0  0  0  0  0  0  0  0  0
    8.1971   -1.4785   23.0740 C   0  0  0  0  0  0  0  0  0  0  0  0
    9.0680   -1.1663   23.6616 H   0  0  0  0  0  0  0  0  0  0  0  0
    7.4803   -1.9654   23.7461 H   0  0  0  0  0  0  0  0  0  0  0  0
    7.5013    1.3344   24.2329 C   0  0  0  0  0  0  0  0  0  0  0  0
    8.1736    2.5476   24.4914 C   0  0  0  0  0  0  0  0  0  0  0  0
    8.5445    3.1413   23.6555 H   0  0  0  0  0  0  0  0  0  0  0  0
    8.3604    2.9811   25.8021 C   0  0  0  0  0  0  0  0  0  0  0  0
    8.9229    3.8743   26.0569 H   0  0  0  0  0  0  0  0  0  0  0  0
    7.8175    2.2471   26.8583 C   0  0  0  0  0  0  0  0  0  0  0  0
    7.1807    1.0056   26.6217 C   0  0  0  0  0  0  0  0  0  0  0  0
    7.0226    0.5650   25.3139 C   0  0  0  0  0  0  0  0  0  0  0  0
    6.5072   -0.3774   25.1567 H   0  0  0  0  0  0  0  0  0  0  0  0
    6.7097    0.2416   27.6648 O   0  0  0  0  0  0  0  0  0  0  0  0
    7.3485    0.5449   28.9118 C   0  0  0  0  0  0  0  0  0  0  0  0
    6.7970    0.0028   29.6813 H   0  0  0  0  0  0  0  0  0  0  0  0
    8.3922    0.1936   28.8868 H   0  0  0  0  0  0  0  0  0  0  0  0
    7.3223    2.0478   29.1732 C   0  0  0  0  0  0  0  0  0  0  0  0
    7.8722    2.2997   30.0832 H   0  0  0  0  0  0  0  0  0  0  0  0
    6.2913    2.4055   29.2744 H   0  0  0  0  0  0  0  0  0  0  0  0
    7.9625    2.7577   28.1152 O   0  0  0  0  0  0  0  0  0  0  0  0
  1  2  1  0
  2  3  2  3
  3  4  1  0
  4  5  1  0
  5  6  2  0
  6  7  1  0
  6  8  1  0
  8  9  2  0
  9 10  1  0
  9 11  1  0
 11 12  1  0
 11 13  2  0
 13 14  1  0
  4 15  2  0
 15 16  1  0
 16 17  1  0
 16 18  1  0
 16 19  1  0
 19 20  1  0
 19 21  1  0
  2 22  1  0
 22 23  2  0
 23 24  1  0
 23 25  1  0
 25 26  1  0
 25 27  2  0
 27 28  1  0
 28 29  2  0
 29 30  1  0
 28 31  1  0
 31 32  1  0
 32 33  1  0
 32 34  1  0
 32 35  1  0
 35 36  1  0
 35 37  1  0
 35 38  1  0
 19  3  1  0
 29 22  1  0
 13  5  1  0
 38 27  1  0
M  END
>  <cnnaffinity>  (1) 
-5.25712

>  <filename>  (1) 
C(=C1CCN=C1c1cccnc1)c1ccc2c(c1)OCCO2

$$$$
