
     RDKit          3D

 42 45  0  0  0  0  0  0  0  0999 V2000
    6.7631   -1.5275   21.4569 H   0  0  0  0  0  0  0  0  0  0  0  0
    7.3310   -0.7137   20.9934 C   0  0  0  0  0  0  0  0  0  0  0  0
    8.5621   -0.3976   21.4219 C   0  0  0  0  0  0  0  0  0  0  0  0
    9.3262   -1.0137   22.5290 C   0  0  0  0  0  0  0  0  0  0  0  0
    8.7716   -2.1146   23.3755 C   0  0  0  0  0  0  0  0  0  0  0  0
    9.5785   -3.2316   23.6414 C   0  0  0  0  0  0  0  0  0  0  0  0
   10.5744   -3.2815   23.2095 H   0  0  0  0  0  0  0  0  0  0  0  0
    9.1157   -4.2546   24.4699 C   0  0  0  0  0  0  0  0  0  0  0  0
    9.7498   -5.1119   24.6802 H   0  0  0  0  0  0  0  0  0  0  0  0
    7.8431   -4.1740   25.0412 C   0  0  0  0  0  0  0  0  0  0  0  0
    7.4955   -4.9671   25.6996 H   0  0  0  0  0  0  0  0  0  0  0  0
    7.0156   -3.0625   24.8015 C   0  0  0  0  0  0  0  0  0  0  0  0
    5.6604   -2.9703   25.4177 C   0  0  0  0  0  0  0  0  0  0  0  0
    4.8243   -4.1004   25.4884 C   0  0  0  0  0  0  0  0  0  0  0  0
    5.1739   -5.0442   25.0752 H   0  0  0  0  0  0  0  0  0  0  0  0
    3.5535   -4.0165   26.0620 C   0  0  0  0  0  0  0  0  0  0  0  0
    2.9277   -4.9034   26.1114 H   0  0  0  0  0  0  0  0  0  0  0  0
    3.1007   -2.7985   26.5827 C   0  0  0  0  0  0  0  0  0  0  0  0
    2.1148   -2.7336   27.0333 H   0  0  0  0  0  0  0  0  0  0  0  0
    3.9218   -1.6662   26.5233 C   0  0  0  0  0  0  0  0  0  0  0  0
    3.5752   -0.7157   26.9206 H   0  0  0  0  0  0  0  0  0  0  0  0
    5.1898   -1.7514   25.9407 C   0  0  0  0  0  0  0  0  0  0  0  0
    5.8341   -0.8748   25.9050 H   0  0  0  0  0  0  0  0  0  0  0  0
    7.4980   -2.0395   23.9661 C   0  0  0  0  0  0  0  0  0  0  0  0
    6.8638   -1.1740   23.7773 H   0  0  0  0  0  0  0  0  0  0  0  0
   10.4975   -0.5241   22.6991 N   0  0  0  0  0  0  0  0  0  0  0  0
   10.7024    0.5732   21.7532 C   0  0  0  0  0  0  0  0  0  0  0  0
   11.5762    0.3311   21.1499 H   0  0  0  0  0  0  0  0  0  0  0  0
   10.9269    1.4823   22.3124 H   0  0  0  0  0  0  0  0  0  0  0  0
    9.4280    0.7236   20.8920 C   0  0  0  0  0  0  0  0  0  0  0  0
    9.6159    0.5989   19.8252 H   0  0  0  0  0  0  0  0  0  0  0  0
    8.9484    1.6988   21.0176 H   0  0  0  0  0  0  0  0  0  0  0  0
    6.6413   -0.0040   19.8929 C   0  0  0  0  0  0  0  0  0  0  0  0
    7.1633    0.0697   18.5856 C   0  0  0  0  0  0  0  0  0  0  0  0
    8.1080   -0.4280   18.3753 H   0  0  0  0  0  0  0  0  0  0  0  0
    6.5607    0.6853   17.5611 N   0  0  0  0  0  0  0  0  0  0  0  0
    5.3987    1.3002   17.8322 C   0  0  0  0  0  0  0  0  0  0  0  0
    4.9126    1.7858   16.9914 H   0  0  0  0  0  0  0  0  0  0  0  0
    4.7989    1.3154   19.0995 C   0  0  0  0  0  0  0  0  0  0  0  0
    3.8672    1.8494   19.2559 H   0  0  0  0  0  0  0  0  0  0  0  0
    5.4228    0.6385   20.1456 C   0  0  0  0  0  0  0  0  0  0  0  0
    5.0091    0.6233   21.1608 H   0  0  0  0  0  0  0  0  0  0  0  0
  1  2  1  0
  2  3  2  3
  3  4  1  0
  4  5  1  0
  5  6  2  0
  6  7  1  0
  6  8  1  0
  8  9  1  0
  8 10  2  0
 10 11  1  0
 10 12  1  0
 12 13  1  0
 13 14  2  0
 14 15  1  0
 14 16  1  0
 16 17  1  0
 16 18  2  0
 18 19  1  0
 18 20  1  0
 20 21  1  0
 20 22  2  0
 22 23  1  0
 12 24  2  0
 24 25  1  0
  4 26  2  0
 26 27  1  0
 27 28  1  0
 27 29  1  0
 27 30  1  0
 30 31  1  0
 30 32  1  0
  2 33  1  0
 33 34  2  0
 34 35  1  0
 34 36  1  0
 36 37  2  0
 37 38  1  0
 37 39  1  0
 39 40  1  0
 39 41  2  0
 41 42  1  0
 30  3  1  0
 41 33  1  0
 24  5  1  0
 22 13  1  0
M  END
>  <cnnaffinity>  (1) 
-5.6337

>  <filename>  (1) 
C(=C1CCN=C1c1cccc(-c2ccccc2)c1)c1cccnc1

$$$$
