
     RDKit          3D

 37 40  0  0  0  0  0  0  0  0999 V2000
    5.3349   -2.5132   20.9350 H   0  0  0  0  0  0  0  0  0  0  0  0
    5.8634   -2.4230   21.8852 C   0  0  0  0  0  0  0  0  0  0  0  0
    7.0049   -1.7091   21.9607 C   0  0  0  0  0  0  0  0  0  0  0  0
    7.5158   -0.7204   20.9617 C   0  0  0  0  0  0  0  0  0  0  0  0
    6.6913   -0.0369   19.9327 C   0  0  0  0  0  0  0  0  0  0  0  0
    7.2278    0.0451   18.6384 C   0  0  0  0  0  0  0  0  0  0  0  0
    8.1921   -0.4089   18.4212 H   0  0  0  0  0  0  0  0  0  0  0  0
    6.6261    0.6515   17.6125 N   0  0  0  0  0  0  0  0  0  0  0  0
    5.4540    1.2567   17.8617 C   0  0  0  0  0  0  0  0  0  0  0  0
    4.9831    1.7575   17.0165 H   0  0  0  0  0  0  0  0  0  0  0  0
    4.8379    1.2515   19.1166 C   0  0  0  0  0  0  0  0  0  0  0  0
    3.9063    1.7891   19.2483 H   0  0  0  0  0  0  0  0  0  0  0  0
    5.4564    0.5854   20.1777 C   0  0  0  0  0  0  0  0  0  0  0  0
    5.0089    0.5875   21.1738 H   0  0  0  0  0  0  0  0  0  0  0  0
    8.7773   -0.5010   21.0514 N   0  0  0  0  0  0  0  0  0  0  0  0
    9.3294   -1.2708   22.1722 C   0  0  0  0  0  0  0  0  0  0  0  0
    9.9804   -2.0592   21.7710 H   0  0  0  0  0  0  0  0  0  0  0  0
    9.9462   -0.6306   22.8066 H   0  0  0  0  0  0  0  0  0  0  0  0
    8.1379   -1.8572   22.9665 C   0  0  0  0  0  0  0  0  0  0  0  0
    7.9525   -1.2404   23.8558 H   0  0  0  0  0  0  0  0  0  0  0  0
    8.3039   -2.8854   23.2983 H   0  0  0  0  0  0  0  0  0  0  0  0
    5.2298   -3.1985   22.9798 C   0  0  0  0  0  0  0  0  0  0  0  0
    4.4558   -4.1908   22.5767 N   0  0  0  0  0  0  0  0  0  0  0  0
    3.8809   -4.9808   23.5317 C   0  0  0  0  0  0  0  0  0  0  0  0
    3.1099   -6.0889   23.0726 C   0  0  0  0  0  0  0  0  0  0  0  0
    3.0034   -6.1899   21.9986 H   0  0  0  0  0  0  0  0  0  0  0  0
    2.5373   -6.9598   23.9683 C   0  0  0  0  0  0  0  0  0  0  0  0
    1.9628   -7.8150   23.6155 H   0  0  0  0  0  0  0  0  0  0  0  0
    2.6865   -6.7464   25.3688 C   0  0  0  0  0  0  0  0  0  0  0  0
    2.2400   -7.4581   26.0583 H   0  0  0  0  0  0  0  0  0  0  0  0
    3.3891   -5.6627   25.8487 C   0  0  0  0  0  0  0  0  0  0  0  0
    3.4739   -5.4951   26.9210 H   0  0  0  0  0  0  0  0  0  0  0  0
    4.0093   -4.7476   24.9424 C   0  0  0  0  0  0  0  0  0  0  0  0
    4.7601   -3.6004   25.3362 C   0  0  0  0  0  0  0  0  0  0  0  0
    4.8368   -3.3293   26.3899 H   0  0  0  0  0  0  0  0  0  0  0  0
    5.3886   -2.8567   24.3684 C   0  0  0  0  0  0  0  0  0  0  0  0
    5.9793   -1.9850   24.6241 H   0  0  0  0  0  0  0  0  0  0  0  0
  1  2  1  0
  2  3  2  3
  3  4  1  0
  4  5  1  0
  5  6  2  0
  6  7  1  0
  6  8  1  0
  8  9  2  0
  9 10  1  0
  9 11  1  0
 11 12  1  0
 11 13  2  0
 13 14  1  0
  4 15  2  0
 15 16  1  0
 16 17  1  0
 16 18  1  0
 16 19  1  0
 19 20  1  0
 19 21  1  0
  2 22  1  0
 22 23  2  0
 23 24  1  0
 24 25  2  0
 25 26  1  0
 25 27  1  0
 27 28  1  0
 27 29  2  0
 29 30  1  0
 29 31  1  0
 31 32  1  0
 31 33  2  0
 33 34  1  0
 34 35  1  0
 34 36  2  0
 36 37  1  0
 19  3  1  0
 36 22  1  0
 13  5  1  0
 33 24  1  0
M  END
>  <cnnaffinity>  (1) 
-5.52281

>  <filename>  (1) 
C(=C1CCN=C1c1cccnc1)c1ccc2ccccc2n1

$$$$
