
     RDKit          3D

 35 38  0  0  0  0  0  0  0  0999 V2000
    5.3056   -2.4170   20.9147 H   0  0  0  0  0  0  0  0  0  0  0  0
    5.8572   -2.3905   21.8487 C   0  0  0  0  0  0  0  0  0  0  0  0
    7.0114   -1.6951   21.9488 C   0  0  0  0  0  0  0  0  0  0  0  0
    7.5305   -0.6977   20.9606 C   0  0  0  0  0  0  0  0  0  0  0  0
    6.7106   -0.0147   19.9270 C   0  0  0  0  0  0  0  0  0  0  0  0
    7.2400    0.0571   18.6294 C   0  0  0  0  0  0  0  0  0  0  0  0
    8.2029   -0.3991   18.4109 H   0  0  0  0  0  0  0  0  0  0  0  0
    6.6312    0.6579   17.6036 N   0  0  0  0  0  0  0  0  0  0  0  0
    5.4588    1.2624   17.8534 C   0  0  0  0  0  0  0  0  0  0  0  0
    4.9785    1.7466   17.0035 H   0  0  0  0  0  0  0  0  0  0  0  0
    4.8495    1.2686   19.1120 C   0  0  0  0  0  0  0  0  0  0  0  0
    3.9120    1.7984   19.2405 H   0  0  0  0  0  0  0  0  0  0  0  0
    5.4801    0.6152   20.1739 C   0  0  0  0  0  0  0  0  0  0  0  0
    5.0391    0.6267   21.1729 H   0  0  0  0  0  0  0  0  0  0  0  0
    8.7882   -0.4730   21.0663 N   0  0  0  0  0  0  0  0  0  0  0  0
    9.3322   -1.2559   22.1827 C   0  0  0  0  0  0  0  0  0  0  0  0
    9.9644   -2.0560   21.7707 H   0  0  0  0  0  0  0  0  0  0  0  0
    9.9619   -0.6281   22.8196 H   0  0  0  0  0  0  0  0  0  0  0  0
    8.1278   -1.8360   22.9711 C   0  0  0  0  0  0  0  0  0  0  0  0
    7.9217   -1.2019   23.8438 H   0  0  0  0  0  0  0  0  0  0  0  0
    8.3093   -2.8544   23.3246 H   0  0  0  0  0  0  0  0  0  0  0  0
    5.2209   -3.2110   22.8767 C   0  0  0  0  0  0  0  0  0  0  0  0
    4.2686   -4.0762   22.6299 N   0  0  0  0  0  0  0  0  0  0  0  0
    3.9345   -4.6004   23.8650 C   0  0  0  0  0  0  0  0  0  0  0  0
    2.9684   -5.5669   24.1984 C   0  0  0  0  0  0  0  0  0  0  0  0
    2.3555   -5.9888   23.4066 H   0  0  0  0  0  0  0  0  0  0  0  0
    2.8169   -5.9237   25.5375 C   0  0  0  0  0  0  0  0  0  0  0  0
    2.0791   -6.6731   25.8089 H   0  0  0  0  0  0  0  0  0  0  0  0
    3.5935   -5.3052   26.5480 C   0  0  0  0  0  0  0  0  0  0  0  0
    3.4334   -5.5916   27.5864 H   0  0  0  0  0  0  0  0  0  0  0  0
    4.5383   -4.3272   26.2368 C   0  0  0  0  0  0  0  0  0  0  0  0
    5.0866   -3.8215   27.0266 H   0  0  0  0  0  0  0  0  0  0  0  0
    4.7087   -4.0010   24.8840 C   0  0  0  0  0  0  0  0  0  0  0  0
    5.5489   -3.1341   24.2144 N   0  0  0  0  0  0  0  0  0  0  0  0
    5.9918   -2.3216   24.6087 H   0  0  0  0  0  0  0  0  0  0  0  0
  1  2  1  0
  2  3  2  3
  3  4  1  0
  4  5  1  0
  5  6  2  0
  6  7  1  0
  6  8  1  0
  8  9  2  0
  9 10  1  0
  9 11  1  0
 11 12  1  0
 11 13  2  0
 13 14  1  0
  4 15  2  0
 15 16  1  0
 16 17  1  0
 16 18  1  0
 16 19  1  0
 19 20  1  0
 19 21  1  0
  2 22  1  0
 22 23  2  0
 23 24  1  0
 24 25  2  0
 25 26  1  0
 25 27  1  0
 27 28  1  0
 27 29  2  0
 29 30  1  0
 29 31  1  0
 31 32  1  0
 31 33  2  0
 33 34  1  0
 34 35  1  0
 19  3  1  0
 34 22  1  0
 13  5  1  0
 33 24  1  0
M  END
>  <cnnaffinity>  (1) 
-5.60344

>  <filename>  (1) 
C(=C1CCN=C1c1cccnc1)c1nc2ccccc2[nH]1

$$$$
