
     RDKit          3D

 37 39  0  0  0  0  0  0  0  0999 V2000
    6.9577    1.7439   22.1167 H   0  0  0  0  0  0  0  0  0  0  0  0
    7.3559    0.9687   22.7766 C   0  0  0  0  0  0  0  0  0  0  0  0
    7.5965   -0.2572   22.3006 C   0  0  0  0  0  0  0  0  0  0  0  0
    7.3780   -0.7644   20.9275 C   0  0  0  0  0  0  0  0  0  0  0  0
    6.6524    0.0121   19.9028 C   0  0  0  0  0  0  0  0  0  0  0  0
    7.1715    0.0533   18.6061 C   0  0  0  0  0  0  0  0  0  0  0  0
    8.1159   -0.4375   18.3805 H   0  0  0  0  0  0  0  0  0  0  0  0
    6.5716    0.6780   17.5899 N   0  0  0  0  0  0  0  0  0  0  0  0
    5.4050    1.2911   17.8445 C   0  0  0  0  0  0  0  0  0  0  0  0
    4.9208    1.7769   17.0003 H   0  0  0  0  0  0  0  0  0  0  0  0
    4.8014    1.3103   19.1071 C   0  0  0  0  0  0  0  0  0  0  0  0
    3.8699    1.8450   19.2580 H   0  0  0  0  0  0  0  0  0  0  0  0
    5.4376    0.6593   20.1617 C   0  0  0  0  0  0  0  0  0  0  0  0
    5.0002    0.6378   21.1655 H   0  0  0  0  0  0  0  0  0  0  0  0
    7.8631   -1.9261   20.7044 N   0  0  0  0  0  0  0  0  0  0  0  0
    8.4524   -2.4473   21.9395 C   0  0  0  0  0  0  0  0  0  0  0  0
    7.9738   -3.3961   22.1921 H   0  0  0  0  0  0  0  0  0  0  0  0
    9.5096   -2.6441   21.7540 H   0  0  0  0  0  0  0  0  0  0  0  0
    8.2615   -1.3906   23.0515 C   0  0  0  0  0  0  0  0  0  0  0  0
    7.6277   -1.7600   23.8663 H   0  0  0  0  0  0  0  0  0  0  0  0
    9.2169   -1.0742   23.4848 H   0  0  0  0  0  0  0  0  0  0  0  0
    7.5982    1.3736   24.2117 C   0  0  0  0  0  0  0  0  0  0  0  0
    8.5211    0.8824   24.5681 H   0  0  0  0  0  0  0  0  0  0  0  0
    6.4472    0.9130   25.1285 C   0  0  0  0  0  0  0  0  0  0  0  0
    6.3554   -0.1797   25.1085 H   0  0  0  0  0  0  0  0  0  0  0  0
    5.4998    1.3105   24.7422 H   0  0  0  0  0  0  0  0  0  0  0  0
    6.6424    1.4162   26.5600 C   0  0  0  0  0  0  0  0  0  0  0  0
    7.5264    0.9390   27.0019 H   0  0  0  0  0  0  0  0  0  0  0  0
    5.7923    1.1309   27.1905 H   0  0  0  0  0  0  0  0  0  0  0  0
    6.8332    2.8692   26.6400 N   0  0  0  0  0  0  0  0  0  0  0  0
    5.9900    3.2945   26.2568 H   0  0  0  0  0  0  0  0  0  0  0  0
    7.9488    3.3151   25.7991 C   0  0  0  0  0  0  0  0  0  0  0  0
    8.8720    2.8904   26.2129 H   0  0  0  0  0  0  0  0  0  0  0  0
    8.0460    4.4033   25.8777 H   0  0  0  0  0  0  0  0  0  0  0  0
    7.8055    2.8918   24.3364 C   0  0  0  0  0  0  0  0  0  0  0  0
    8.6805    3.2026   23.7525 H   0  0  0  0  0  0  0  0  0  0  0  0
    6.9348    3.4048   23.9058 H   0  0  0  0  0  0  0  0  0  0  0  0
  1  2  1  0
  2  3  2  3
  3  4  1  0
  4  5  1  0
  5  6  2  0
  6  7  1  0
  6  8  1  0
  8  9  2  0
  9 10  1  0
  9 11  1  0
 11 12  1  0
 11 13  2  0
 13 14  1  0
  4 15  2  0
 15 16  1  0
 16 17  1  0
 16 18  1  0
 16 19  1  0
 19 20  1  0
 19 21  1  0
  2 22  1  0
 22 23  1  0
 22 24  1  0
 24 25  1  0
 24 26  1  0
 24 27  1  0
 27 28  1  0
 27 29  1  0
 27 30  1  0
 30 31  1  0
 30 32  1  0
 32 33  1  0
 32 34  1  0
 32 35  1  0
 35 36  1  0
 35 37  1  0
 19  3  1  0
 35 22  1  0
 13  5  1  0
M  END
>  <cnnaffinity>  (1) 
-4.87111

>  <filename>  (1) 
C(=C1CCN=C1c1cccnc1)C1CCNCC1

$$$$
