
     RDKit          3D

 38 41  0  0  0  0  0  0  0  0999 V2000
    5.3609   -2.3508   20.9720 H   0  0  0  0  0  0  0  0  0  0  0  0
    5.9112   -2.3748   21.9150 C   0  0  0  0  0  0  0  0  0  0  0  0
    7.0667   -1.6839   21.9716 C   0  0  0  0  0  0  0  0  0  0  0  0
    7.5638   -0.7015   20.9657 C   0  0  0  0  0  0  0  0  0  0  0  0
    6.7282   -0.0229   19.9362 C   0  0  0  0  0  0  0  0  0  0  0  0
    7.2537    0.0570   18.6363 C   0  0  0  0  0  0  0  0  0  0  0  0
    8.2145   -0.3971   18.4098 H   0  0  0  0  0  0  0  0  0  0  0  0
    6.6408    0.6515   17.6091 N   0  0  0  0  0  0  0  0  0  0  0  0
    5.4676    1.2526   17.8623 C   0  0  0  0  0  0  0  0  0  0  0  0
    4.9896    1.7471   17.0168 H   0  0  0  0  0  0  0  0  0  0  0  0
    4.8564    1.2474   19.1205 C   0  0  0  0  0  0  0  0  0  0  0  0
    3.9175    1.7744   19.2534 H   0  0  0  0  0  0  0  0  0  0  0  0
    5.4893    0.5918   20.1817 C   0  0  0  0  0  0  0  0  0  0  0  0
    5.0379    0.5760   21.1768 H   0  0  0  0  0  0  0  0  0  0  0  0
    8.8244   -0.4779   21.0375 N   0  0  0  0  0  0  0  0  0  0  0  0
    9.3956   -1.2428   22.1517 C   0  0  0  0  0  0  0  0  0  0  0  0
   10.0133   -0.5975   22.7810 H   0  0  0  0  0  0  0  0  0  0  0  0
   10.0509   -2.0249   21.7452 H   0  0  0  0  0  0  0  0  0  0  0  0
    8.2133   -1.8389   22.9552 C   0  0  0  0  0  0  0  0  0  0  0  0
    8.0447   -1.2383   23.8587 H   0  0  0  0  0  0  0  0  0  0  0  0
    8.3724   -2.8715   23.2696 H   0  0  0  0  0  0  0  0  0  0  0  0
    5.2889   -3.2079   22.9834 C   0  0  0  0  0  0  0  0  0  0  0  0
    5.3941   -2.8714   24.3753 C   0  0  0  0  0  0  0  0  0  0  0  0
    5.9662   -1.9919   24.6584 H   0  0  0  0  0  0  0  0  0  0  0  0
    4.7616   -3.6179   25.3448 C   0  0  0  0  0  0  0  0  0  0  0  0
    4.8118   -3.3161   26.3875 H   0  0  0  0  0  0  0  0  0  0  0  0
    4.0315   -4.7966   25.0015 C   0  0  0  0  0  0  0  0  0  0  0  0
    3.4545   -5.6637   25.9850 C   0  0  0  0  0  0  0  0  0  0  0  0
    3.5536   -5.4070   27.0404 H   0  0  0  0  0  0  0  0  0  0  0  0
    2.7757   -6.7984   25.6011 C   0  0  0  0  0  0  0  0  0  0  0  0
    2.3525   -7.4646   26.3500 H   0  0  0  0  0  0  0  0  0  0  0  0
    2.6039   -7.1139   24.2201 C   0  0  0  0  0  0  0  0  0  0  0  0
    2.0404   -8.0021   23.9405 H   0  0  0  0  0  0  0  0  0  0  0  0
    3.1372   -6.2955   23.2502 C   0  0  0  0  0  0  0  0  0  0  0  0
    2.9870   -6.5156   22.1954 H   0  0  0  0  0  0  0  0  0  0  0  0
    3.8934   -5.1352   23.6137 C   0  0  0  0  0  0  0  0  0  0  0  0
    4.5297   -4.3123   22.6376 C   0  0  0  0  0  0  0  0  0  0  0  0
    4.4480   -4.6054   21.5973 H   0  0  0  0  0  0  0  0  0  0  0  0
  1  2  1  0
  2  3  2  3
  3  4  1  0
  4  5  1  0
  5  6  2  0
  6  7  1  0
  6  8  1  0
  8  9  2  0
  9 10  1  0
  9 11  1  0
 11 12  1  0
 11 13  2  0
 13 14  1  0
  4 15  2  0
 15 16  1  0
 16 17  1  0
 16 18  1  0
 16 19  1  0
 19 20  1  0
 19 21  1  0
  2 22  1  0
 22 23  2  0
 23 24  1  0
 23 25  1  0
 25 26  1  0
 25 27  2  0
 27 28  1  0
 28 29  1  0
 28 30  2  0
 30 31  1  0
 30 32  1  0
 32 33  1  0
 32 34  2  0
 34 35  1  0
 34 36  1  0
 36 37  2  0
 37 38  1  0
 19  3  1  0
 37 22  1  0
 13  5  1  0
 36 27  1  0
M  END
>  <cnnaffinity>  (1) 
-5.31501

>  <filename>  (1) 
C(=C1CCN=C1c1cccnc1)c1ccc2ccccc2c1

$$$$
