
     RDKit          3D

 36 39  0  0  0  0  0  0  0  0999 V2000
    7.0165    1.7381   22.1332 H   0  0  0  0  0  0  0  0  0  0  0  0
    7.3120    0.9351   22.8128 C   0  0  0  0  0  0  0  0  0  0  0  0
    7.5349   -0.3062   22.3244 C   0  0  0  0  0  0  0  0  0  0  0  0
    7.3814   -0.7584   20.9338 C   0  0  0  0  0  0  0  0  0  0  0  0
    6.6535    0.0137   19.9090 C   0  0  0  0  0  0  0  0  0  0  0  0
    7.1710    0.0533   18.6088 C   0  0  0  0  0  0  0  0  0  0  0  0
    8.1134   -0.4368   18.3813 H   0  0  0  0  0  0  0  0  0  0  0  0
    6.5719    0.6761   17.5904 N   0  0  0  0  0  0  0  0  0  0  0  0
    5.4055    1.2911   17.8436 C   0  0  0  0  0  0  0  0  0  0  0  0
    4.9244    1.7782   16.9984 H   0  0  0  0  0  0  0  0  0  0  0  0
    4.8009    1.3100   19.1052 C   0  0  0  0  0  0  0  0  0  0  0  0
    3.8702    1.8443   19.2553 H   0  0  0  0  0  0  0  0  0  0  0  0
    5.4337    0.6596   20.1629 C   0  0  0  0  0  0  0  0  0  0  0  0
    4.9910    0.6402   21.1632 H   0  0  0  0  0  0  0  0  0  0  0  0
    7.9334   -1.8891   20.6866 N   0  0  0  0  0  0  0  0  0  0  0  0
    8.5213   -2.4141   21.9196 C   0  0  0  0  0  0  0  0  0  0  0  0
    8.1433   -3.4207   22.1031 H   0  0  0  0  0  0  0  0  0  0  0  0
    9.6017   -2.4822   21.7794 H   0  0  0  0  0  0  0  0  0  0  0  0
    8.1657   -1.4485   23.0715 C   0  0  0  0  0  0  0  0  0  0  0  0
    7.4541   -1.9096   23.7652 H   0  0  0  0  0  0  0  0  0  0  0  0
    9.0414   -1.1263   23.6434 H   0  0  0  0  0  0  0  0  0  0  0  0
    7.5124    1.3284   24.1857 C   0  0  0  0  0  0  0  0  0  0  0  0
    7.4471    0.5802   25.3423 C   0  0  0  0  0  0  0  0  0  0  0  0
    7.1969   -0.4732   25.4607 H   0  0  0  0  0  0  0  0  0  0  0  0
    7.6969    1.3918   26.4232 N   0  0  0  0  0  0  0  0  0  0  0  0
    7.6897    1.1227   27.3908 H   0  0  0  0  0  0  0  0  0  0  0  0
    7.9311    2.6744   25.9958 C   0  0  0  0  0  0  0  0  0  0  0  0
    8.2078    3.8398   26.7239 C   0  0  0  0  0  0  0  0  0  0  0  0
    8.2249    3.8019   27.8081 H   0  0  0  0  0  0  0  0  0  0  0  0
    8.4061    5.0173   26.0105 C   0  0  0  0  0  0  0  0  0  0  0  0
    8.6220    5.9396   26.5483 H   0  0  0  0  0  0  0  0  0  0  0  0
    8.3222    5.0406   24.5915 C   0  0  0  0  0  0  0  0  0  0  0  0
    8.4716    5.9747   24.0540 H   0  0  0  0  0  0  0  0  0  0  0  0
    8.0388    3.8789   23.8814 C   0  0  0  0  0  0  0  0  0  0  0  0
    7.9773    3.8824   22.7933 H   0  0  0  0  0  0  0  0  0  0  0  0
    7.8296    2.6830   24.5900 C   0  0  0  0  0  0  0  0  0  0  0  0
  1  2  1  0
  2  3  2  3
  3  4  1  0
  4  5  1  0
  5  6  2  0
  6  7  1  0
  6  8  1  0
  8  9  2  0
  9 10  1  0
  9 11  1  0
 11 12  1  0
 11 13  2  0
 13 14  1  0
  4 15  2  0
 15 16  1  0
 16 17  1  0
 16 18  1  0
 16 19  1  0
 19 20  1  0
 19 21  1  0
  2 22  1  0
 22 23  2  0
 23 24  1  0
 23 25  1  0
 25 26  1  0
 25 27  1  0
 27 28  2  0
 28 29  1  0
 28 30  1  0
 30 31  1  0
 30 32  2  0
 32 33  1  0
 32 34  1  0
 34 35  1  0
 34 36  2  0
 19  3  1  0
 36 22  1  0
 13  5  1  0
 36 27  1  0
M  END
>  <cnnaffinity>  (1) 
-5.3533

>  <filename>  (1) 
C(=C1CCN=C1c1cccnc1)c1c[nH]c2ccccc12

$$$$
