
     RDKit          3D

 30 32  0  0  0  0  0  0  0  0999 V2000
    5.9730   -0.9688   22.2379 H   0  0  0  0  0  0  0  0  0  0  0  0
    7.0238   -1.0850   21.9641 C   0  0  0  0  0  0  0  0  0  0  0  0
    7.4591   -0.6767   20.8385 N   0  0  0  0  0  0  0  0  0  0  0  0
    6.6493   -0.0037   19.9010 C   0  0  0  0  0  0  0  0  0  0  0  0
    7.1549    0.0564   18.5772 C   0  0  0  0  0  0  0  0  0  0  0  0
    8.1120   -0.4276   18.3926 H   0  0  0  0  0  0  0  0  0  0  0  0
    6.5499    0.6720   17.5617 N   0  0  0  0  0  0  0  0  0  0  0  0
    5.3853    1.2962   17.8271 C   0  0  0  0  0  0  0  0  0  0  0  0
    4.9325    1.8148   16.9865 H   0  0  0  0  0  0  0  0  0  0  0  0
    4.7945    1.3046   19.0932 C   0  0  0  0  0  0  0  0  0  0  0  0
    3.8648    1.8414   19.2421 H   0  0  0  0  0  0  0  0  0  0  0  0
    5.4314    0.6459   20.1543 C   0  0  0  0  0  0  0  0  0  0  0  0
    5.0116    0.6631   21.1572 H   0  0  0  0  0  0  0  0  0  0  0  0
    7.8643   -1.7795   22.9641 C   0  0  0  0  0  0  0  0  0  0  0  0
    9.2540   -1.9874   22.6899 C   0  0  0  0  0  0  0  0  0  0  0  0
    9.6418   -1.6062   21.7484 H   0  0  0  0  0  0  0  0  0  0  0  0
   10.0429   -2.6596   23.5771 C   0  0  0  0  0  0  0  0  0  0  0  0
   11.0976   -2.8019   23.3583 H   0  0  0  0  0  0  0  0  0  0  0  0
    9.5014   -3.1720   24.7978 C   0  0  0  0  0  0  0  0  0  0  0  0
   10.3020   -3.9080   25.7129 C   0  0  0  0  0  0  0  0  0  0  0  0
   11.3240   -4.1171   25.4144 H   0  0  0  0  0  0  0  0  0  0  0  0
    9.8007   -4.3187   26.9250 C   0  0  0  0  0  0  0  0  0  0  0  0
   10.4458   -4.8068   27.6493 H   0  0  0  0  0  0  0  0  0  0  0  0
    8.4395   -4.0697   27.2589 C   0  0  0  0  0  0  0  0  0  0  0  0
    8.0578   -4.4124   28.2169 H   0  0  0  0  0  0  0  0  0  0  0  0
    7.6181   -3.4060   26.3738 C   0  0  0  0  0  0  0  0  0  0  0  0
    6.5702   -3.2447   26.6127 H   0  0  0  0  0  0  0  0  0  0  0  0
    8.1251   -2.9341   25.1173 C   0  0  0  0  0  0  0  0  0  0  0  0
    7.3271   -2.2382   24.1581 C   0  0  0  0  0  0  0  0  0  0  0  0
    6.2741   -2.0888   24.3895 H   0  0  0  0  0  0  0  0  0  0  0  0
  1  2  1  0
  2  3  2  3
  3  4  1  0
  4  5  2  0
  5  6  1  0
  5  7  1  0
  7  8  2  0
  8  9  1  0
  8 10  1  0
 10 11  1  0
 10 12  2  0
 12 13  1  0
  2 14  1  0
 14 15  2  0
 15 16  1  0
 15 17  1  0
 17 18  1  0
 17 19  2  0
 19 20  1  0
 20 21  1  0
 20 22  2  0
 22 23  1  0
 22 24  1  0
 24 25  1  0
 24 26  2  0
 26 27  1  0
 26 28  1  0
 28 29  2  0
 29 30  1  0
 12  4  1  0
 29 14  1  0
 28 19  1  0
M  END
>  <cnnaffinity>  (1) 
-4.76138

>  <filename>  (1) 
C(=Nc1cccnc1)c1ccc2ccccc2c1

$$$$
