
     RDKit          3D

 24 25  0  0  0  0  0  0  0  0999 V2000
    8.5815   -1.8544   19.9356 H   0  0  0  0  0  0  0  0  0  0  0  0
    8.1992   -1.5289   20.9079 C   0  0  0  0  0  0  0  0  0  0  0  0
    7.2848   -0.6539   21.0279 N   0  0  0  0  0  0  0  0  0  0  0  0
    6.6793   -0.0128   19.9139 C   0  0  0  0  0  0  0  0  0  0  0  0
    7.1816    0.0509   18.5934 C   0  0  0  0  0  0  0  0  0  0  0  0
    8.1320   -0.4191   18.3484 H   0  0  0  0  0  0  0  0  0  0  0  0
    6.5652    0.6759   17.5821 N   0  0  0  0  0  0  0  0  0  0  0  0
    5.4016    1.2914   17.8370 C   0  0  0  0  0  0  0  0  0  0  0  0
    4.9175    1.7834   16.9957 H   0  0  0  0  0  0  0  0  0  0  0  0
    4.8165    1.3030   19.1081 C   0  0  0  0  0  0  0  0  0  0  0  0
    3.8853    1.8340   19.2632 H   0  0  0  0  0  0  0  0  0  0  0  0
    5.4564    0.6421   20.1581 C   0  0  0  0  0  0  0  0  0  0  0  0
    5.0534    0.6078   21.1696 H   0  0  0  0  0  0  0  0  0  0  0  0
    8.8214   -2.1446   22.1287 C   0  0  0  0  0  0  0  0  0  0  0  0
    9.1869   -1.3295   22.7588 H   0  0  0  0  0  0  0  0  0  0  0  0
    9.6641   -2.7778   21.8537 H   0  0  0  0  0  0  0  0  0  0  0  0
    7.8045   -2.9199   22.8872 C   0  0  0  0  0  0  0  0  0  0  0  0
    7.5328   -4.2315   22.6036 N   0  0  0  0  0  0  0  0  0  0  0  0
    6.5394   -4.5573   23.3933 C   0  0  0  0  0  0  0  0  0  0  0  0
    6.0688   -5.5367   23.4671 H   0  0  0  0  0  0  0  0  0  0  0  0
    6.1425   -3.5034   24.1616 N   0  0  0  0  0  0  0  0  0  0  0  0
    5.4021   -3.5103   24.8393 H   0  0  0  0  0  0  0  0  0  0  0  0
    6.9545   -2.4389   23.8339 C   0  0  0  0  0  0  0  0  0  0  0  0
    6.8568   -1.4422   24.2416 H   0  0  0  0  0  0  0  0  0  0  0  0
  1  2  1  0
  2  3  2  3
  3  4  1  0
  4  5  2  0
  5  6  1  0
  5  7  1  0
  7  8  2  0
  8  9  1  0
  8 10  1  0
 10 11  1  0
 10 12  2  0
 12 13  1  0
  2 14  1  0
 14 15  1  0
 14 16  1  0
 14 17  1  0
 17 18  1  0
 18 19  2  0
 19 20  1  0
 19 21  1  0
 21 22  1  0
 21 23  1  0
 23 24  1  0
 12  4  1  0
 23 17  2  0
M  END
>  <cnnaffinity>  (1) 
-4.62305

>  <filename>  (1) 
C(Cc1c[nH]cn1)=Nc1cccnc1

$$$$
