
     RDKit          3D

 35 37  0  0  0  0  0  0  0  0999 V2000
    6.9341    1.7386   22.1363 H   0  0  0  0  0  0  0  0  0  0  0  0
    7.3415    0.9593   22.7843 C   0  0  0  0  0  0  0  0  0  0  0  0
    7.6046   -0.2584   22.2964 C   0  0  0  0  0  0  0  0  0  0  0  0
    7.3826   -0.7667   20.9259 C   0  0  0  0  0  0  0  0  0  0  0  0
    6.6510    0.0095   19.9016 C   0  0  0  0  0  0  0  0  0  0  0  0
    7.1699    0.0528   18.6046 C   0  0  0  0  0  0  0  0  0  0  0  0
    8.1145   -0.4368   18.3801 H   0  0  0  0  0  0  0  0  0  0  0  0
    6.5720    0.6774   17.5869 N   0  0  0  0  0  0  0  0  0  0  0  0
    5.4066    1.2913   17.8421 C   0  0  0  0  0  0  0  0  0  0  0  0
    4.9223    1.7780   16.9983 H   0  0  0  0  0  0  0  0  0  0  0  0
    4.8003    1.3096   19.1046 C   0  0  0  0  0  0  0  0  0  0  0  0
    3.8684    1.8459   19.2568 H   0  0  0  0  0  0  0  0  0  0  0  0
    5.4353    0.6572   20.1596 C   0  0  0  0  0  0  0  0  0  0  0  0
    4.9952    0.6370   21.1627 H   0  0  0  0  0  0  0  0  0  0  0  0
    7.8693   -1.9292   20.7043 N   0  0  0  0  0  0  0  0  0  0  0  0
    8.4625   -2.4414   21.9420 C   0  0  0  0  0  0  0  0  0  0  0  0
    9.5177   -2.6367   21.7514 H   0  0  0  0  0  0  0  0  0  0  0  0
    7.9880   -3.3896   22.1979 H   0  0  0  0  0  0  0  0  0  0  0  0
    8.2710   -1.3820   23.0514 C   0  0  0  0  0  0  0  0  0  0  0  0
    9.2236   -1.0628   23.4906 H   0  0  0  0  0  0  0  0  0  0  0  0
    7.6379   -1.7478   23.8691 H   0  0  0  0  0  0  0  0  0  0  0  0
    7.6433    1.3360   24.2208 C   0  0  0  0  0  0  0  0  0  0  0  0
    7.1487    0.6266   24.9008 H   0  0  0  0  0  0  0  0  0  0  0  0
    8.7196    1.2128   24.4158 H   0  0  0  0  0  0  0  0  0  0  0  0
    7.2186    2.7490   24.5398 C   0  0  0  0  0  0  0  0  0  0  0  0
    5.9025    3.0141   24.9472 C   0  0  0  0  0  0  0  0  0  0  0  0
    5.2115    2.1839   25.0742 H   0  0  0  0  0  0  0  0  0  0  0  0
    5.4803    4.3278   25.1715 C   0  0  0  0  0  0  0  0  0  0  0  0
    4.4613    4.5167   25.4972 H   0  0  0  0  0  0  0  0  0  0  0  0
    6.3733    5.3887   24.9789 C   0  0  0  0  0  0  0  0  0  0  0  0
    6.0493    6.4087   25.1591 H   0  0  0  0  0  0  0  0  0  0  0  0
    7.6814    5.1363   24.5487 C   0  0  0  0  0  0  0  0  0  0  0  0
    8.3768    5.9553   24.3876 H   0  0  0  0  0  0  0  0  0  0  0  0
    8.0990    3.8205   24.3251 C   0  0  0  0  0  0  0  0  0  0  0  0
    9.1068    3.6178   23.9687 H   0  0  0  0  0  0  0  0  0  0  0  0
  1  2  1  0
  2  3  2  3
  3  4  1  0
  4  5  1  0
  5  6  2  0
  6  7  1  0
  6  8  1  0
  8  9  2  0
  9 10  1  0
  9 11  1  0
 11 12  1  0
 11 13  2  0
 13 14  1  0
  4 15  2  0
 15 16  1  0
 16 17  1  0
 16 18  1  0
 16 19  1  0
 19 20  1  0
 19 21  1  0
  2 22  1  0
 22 23  1  0
 22 24  1  0
 22 25  1  0
 25 26  2  0
 26 27  1  0
 26 28  1  0
 28 29  1  0
 28 30  2  0
 30 31  1  0
 30 32  1  0
 32 33  1  0
 32 34  2  0
 34 35  1  0
 19  3  1  0
 34 25  1  0
 13  5  1  0
M  END
>  <cnnaffinity>  (1) 
-5.19033

>  <filename>  (1) 
C(Cc1ccccc1)=C1CCN=C1c1cccnc1

$$$$
