
     RDKit          3D

 38 40  0  0  0  0  0  0  0  0999 V2000
    5.3130   -2.1661   20.9170 H   0  0  0  0  0  0  0  0  0  0  0  0
    5.9444   -2.3543   21.7881 C   0  0  0  0  0  0  0  0  0  0  0  0
    7.1037   -1.6934   21.8734 C   0  0  0  0  0  0  0  0  0  0  0  0
    7.6274   -0.6611   20.9327 C   0  0  0  0  0  0  0  0  0  0  0  0
    6.7935    0.0176   19.9178 C   0  0  0  0  0  0  0  0  0  0  0  0
    7.3186    0.0833   18.6243 C   0  0  0  0  0  0  0  0  0  0  0  0
    8.2776   -0.3825   18.4084 H   0  0  0  0  0  0  0  0  0  0  0  0
    6.6929    0.6616   17.5975 N   0  0  0  0  0  0  0  0  0  0  0  0
    5.5067    1.2382   17.8486 C   0  0  0  0  0  0  0  0  0  0  0  0
    5.0207    1.7063   16.9954 H   0  0  0  0  0  0  0  0  0  0  0  0
    4.9063    1.2628   19.1125 C   0  0  0  0  0  0  0  0  0  0  0  0
    3.9550    1.7707   19.2448 H   0  0  0  0  0  0  0  0  0  0  0  0
    5.5582    0.6337   20.1760 C   0  0  0  0  0  0  0  0  0  0  0  0
    5.1252    0.6218   21.1795 H   0  0  0  0  0  0  0  0  0  0  0  0
    8.8723   -0.4034   21.0629 N   0  0  0  0  0  0  0  0  0  0  0  0
    9.4065   -1.1713   22.1897 C   0  0  0  0  0  0  0  0  0  0  0  0
   10.1560   -1.8567   21.7902 H   0  0  0  0  0  0  0  0  0  0  0  0
    9.9090   -0.4833   22.8726 H   0  0  0  0  0  0  0  0  0  0  0  0
    8.2358   -1.9251   22.8609 C   0  0  0  0  0  0  0  0  0  0  0  0
    8.4474   -2.9900   23.0061 H   0  0  0  0  0  0  0  0  0  0  0  0
    8.0216   -1.4804   23.8367 H   0  0  0  0  0  0  0  0  0  0  0  0
    5.3954   -3.3552   22.7808 C   0  0  0  0  0  0  0  0  0  0  0  0
    4.3343   -3.1345   22.9443 H   0  0  0  0  0  0  0  0  0  0  0  0
    5.8946   -3.2427   23.7518 H   0  0  0  0  0  0  0  0  0  0  0  0
    5.4757   -4.8505   22.3942 C   0  0  0  0  0  0  0  0  0  0  0  0
    6.5208   -5.1220   22.1875 H   0  0  0  0  0  0  0  0  0  0  0  0
    4.9148   -5.0481   21.4736 H   0  0  0  0  0  0  0  0  0  0  0  0
    4.9396   -5.7332   23.5103 C   0  0  0  0  0  0  0  0  0  0  0  0
    3.6002   -6.1574   23.5406 C   0  0  0  0  0  0  0  0  0  0  0  0
    2.9236   -5.8584   22.7425 H   0  0  0  0  0  0  0  0  0  0  0  0
    3.1206   -6.9545   24.5900 C   0  0  0  0  0  0  0  0  0  0  0  0
    2.0836   -7.2793   24.5910 H   0  0  0  0  0  0  0  0  0  0  0  0
    3.9732   -7.3354   25.6313 C   0  0  0  0  0  0  0  0  0  0  0  0
    3.6163   -7.9832   26.4317 H   0  0  0  0  0  0  0  0  0  0  0  0
    5.2981   -6.8898   25.6313 C   0  0  0  0  0  0  0  0  0  0  0  0
    5.9740   -7.1718   26.4345 H   0  0  0  0  0  0  0  0  0  0  0  0
    5.7693   -6.0875   24.5853 C   0  0  0  0  0  0  0  0  0  0  0  0
    6.7983   -5.7340   24.5986 H   0  0  0  0  0  0  0  0  0  0  0  0
  1  2  1  0
  2  3  2  3
  3  4  1  0
  4  5  1  0
  5  6  2  0
  6  7  1  0
  6  8  1  0
  8  9  2  0
  9 10  1  0
  9 11  1  0
 11 12  1  0
 11 13  2  0
 13 14  1  0
  4 15  2  0
 15 16  1  0
 16 17  1  0
 16 18  1  0
 16 19  1  0
 19 20  1  0
 19 21  1  0
  2 22  1  0
 22 23  1  0
 22 24  1  0
 22 25  1  0
 25 26  1  0
 25 27  1  0
 25 28  1  0
 28 29  2  0
 29 30  1  0
 29 31  1  0
 31 32  1  0
 31 33  2  0
 33 34  1  0
 33 35  1  0
 35 36  1  0
 35 37  2  0
 37 38  1  0
 19  3  1  0
 37 28  1  0
 13  5  1  0
M  END
>  <cnnaffinity>  (1) 
-5.12323

>  <filename>  (1) 
C(CCc1ccccc1)=C1CCN=C1c1cccnc1

$$$$
