
     RDKit          3D

 44 46  0  0  0  0  0  0  0  0999 V2000
    5.8699   -1.3916   21.9557 H   0  0  0  0  0  0  0  0  0  0  0  0
    6.9322   -1.2606   21.7854 C   0  0  0  0  0  0  0  0  0  0  0  0
    7.4859   -0.6504   20.7320 C   0  0  0  0  0  0  0  0  0  0  0  0
    6.7693    0.0784   19.6797 C   0  0  0  0  0  0  0  0  0  0  0  0
    7.2801    0.1570   18.3686 C   0  0  0  0  0  0  0  0  0  0  0  0
    8.2365   -0.3115   18.1367 H   0  0  0  0  0  0  0  0  0  0  0  0
    6.6648    0.7661   17.3510 N   0  0  0  0  0  0  0  0  0  0  0  0
    5.4944    1.3679   17.6143 C   0  0  0  0  0  0  0  0  0  0  0  0
    5.0126    1.8675   16.7771 H   0  0  0  0  0  0  0  0  0  0  0  0
    4.9009    1.3746   18.8827 C   0  0  0  0  0  0  0  0  0  0  0  0
    3.9629    1.8974   19.0348 H   0  0  0  0  0  0  0  0  0  0  0  0
    5.5412    0.7184   19.9291 C   0  0  0  0  0  0  0  0  0  0  0  0
    5.1210    0.7173   20.9380 H   0  0  0  0  0  0  0  0  0  0  0  0
    8.9945   -0.8326   20.7438 C   0  0  0  0  0  0  0  0  0  0  0  0
    9.2946   -1.5280   19.9503 H   0  0  0  0  0  0  0  0  0  0  0  0
    9.5135    0.1135   20.5573 H   0  0  0  0  0  0  0  0  0  0  0  0
    9.2860   -1.4027   22.1525 C   0  0  0  0  0  0  0  0  0  0  0  0
   10.0419   -2.1909   22.1486 H   0  0  0  0  0  0  0  0  0  0  0  0
    9.6374   -0.5912   22.8010 H   0  0  0  0  0  0  0  0  0  0  0  0
    7.9245   -1.9153   22.6932 C   0  0  2  0  0  0  0  0  0  0  0  0
    7.7797   -1.6109   23.7428 H   0  0  0  0  0  0  0  0  0  0  0  0
    7.7277   -3.3247   22.5629 O   0  0  0  0  0  0  0  0  0  0  0  0
    7.9448   -4.1206   23.7159 C   0  0  0  0  0  0  0  0  0  0  0  0
    8.0926   -5.1387   23.3426 H   0  0  0  0  0  0  0  0  0  0  0  0
    8.8748   -3.8213   24.2266 H   0  0  0  0  0  0  0  0  0  0  0  0
    6.7637   -4.1156   24.7168 C   0  0  0  0  0  0  0  0  0  0  0  0
    6.4632   -3.0699   24.9461 H   0  0  0  0  0  0  0  0  0  0  0  0
    5.8974   -4.5737   24.2157 H   0  0  0  0  0  0  0  0  0  0  0  0
    7.0795   -4.8955   25.9201 N   0  0  0  0  0  0  0  0  0  0  0  0
    8.1290   -4.3001   26.7611 C   0  0  0  0  0  0  0  0  0  0  0  0
    8.9610   -3.9786   26.1290 H   0  0  0  0  0  0  0  0  0  0  0  0
    7.7676   -3.3850   27.2787 H   0  0  0  0  0  0  0  0  0  0  0  0
    8.6227   -5.3450   27.7595 C   0  0  0  0  0  0  0  0  0  0  0  0
    9.4699   -4.9417   28.3257 H   0  0  0  0  0  0  0  0  0  0  0  0
    9.0147   -6.1832   27.1693 H   0  0  0  0  0  0  0  0  0  0  0  0
    7.4871   -5.8207   28.6806 C   0  0  0  0  0  0  0  0  0  0  0  0
    7.8190   -6.6857   29.2688 H   0  0  0  0  0  0  0  0  0  0  0  0
    7.2323   -5.0242   29.3939 H   0  0  0  0  0  0  0  0  0  0  0  0
    6.2415   -6.2049   27.8663 C   0  0  0  0  0  0  0  0  0  0  0  0
    5.3804   -6.3248   28.5413 H   0  0  0  0  0  0  0  0  0  0  0  0
    6.4133   -7.1862   27.4093 H   0  0  0  0  0  0  0  0  0  0  0  0
    5.9066   -5.1985   26.7527 C   0  0  0  0  0  0  0  0  0  0  0  0
    5.4824   -4.2705   27.1951 H   0  0  0  0  0  0  0  0  0  0  0  0
    5.1263   -5.6446   26.1232 H   0  0  0  0  0  0  0  0  0  0  0  0
  1  2  1  0
  2  3  2  0
  3  4  1  0
  4  5  2  0
  5  6  1  0
  5  7  1  0
  7  8  2  0
  8  9  1  0
  8 10  1  0
 10 11  1  0
 10 12  2  0
 12 13  1  0
  3 14  1  0
 14 15  1  0
 14 16  1  0
 14 17  1  0
 17 18  1  0
 17 19  1  0
 17 20  1  0
 20 21  1  1
 20 22  1  0
 22 23  1  0
 23 24  1  0
 23 25  1  0
 23 26  1  0
 26 27  1  0
 26 28  1  0
 26 29  1  0
 29 30  1  0
 30 31  1  0
 30 32  1  0
 30 33  1  0
 33 34  1  0
 33 35  1  0
 33 36  1  0
 36 37  1  0
 36 38  1  0
 36 39  1  0
 39 40  1  0
 39 41  1  0
 39 42  1  0
 42 43  1  0
 42 44  1  0
 20  2  1  0
 42 29  1  0
 12  4  1  0
M  END
>  <cnnaffinity>  (1) 
-4.74687

>  <filename>  (1) 
C1=C(c2cccnc2)CC[C@@H]1OCCN1CCCCC1

$$$$
