
     RDKit          3D

 33 35  0  0  0  0  0  0  0  0999 V2000
    6.7725    3.0581   24.2402 H   0  0  0  0  0  0  0  0  0  0  0  0
    6.4109    2.1829   24.7790 C   0  0  0  0  0  0  0  0  0  0  0  0
    6.5016    0.9619   24.2420 C   0  0  0  0  0  0  0  0  0  0  0  0
    6.9757    0.8021   22.9488 N   0  0  0  0  0  0  0  0  0  0  0  0
    6.9999    1.6529   22.4043 H   0  0  0  0  0  0  0  0  0  0  0  0
    7.5021   -0.3356   22.3285 C   0  0  0  0  0  0  0  0  0  0  0  0
    8.3001   -1.3737   22.8778 C   0  0  0  0  0  0  0  0  0  0  0  0
    8.6408   -1.4731   23.9023 H   0  0  0  0  0  0  0  0  0  0  0  0
    8.6358   -2.2745   21.9584 N   0  0  0  0  0  0  0  0  0  0  0  0
    8.0778   -1.8159   20.8281 N   0  0  0  0  0  0  0  0  0  0  0  0
    8.1673   -2.3551   19.9761 H   0  0  0  0  0  0  0  0  0  0  0  0
    7.3808   -0.6558   20.9791 C   0  0  0  0  0  0  0  0  0  0  0  0
    6.6562    0.0134   19.8820 C   0  0  0  0  0  0  0  0  0  0  0  0
    7.1556    0.0668   18.5633 C   0  0  0  0  0  0  0  0  0  0  0  0
    8.1122   -0.3923   18.3151 H   0  0  0  0  0  0  0  0  0  0  0  0
    6.5442    0.6897   17.5496 N   0  0  0  0  0  0  0  0  0  0  0  0
    5.3820    1.3090   17.8130 C   0  0  0  0  0  0  0  0  0  0  0  0
    4.9123    1.8127   16.9695 H   0  0  0  0  0  0  0  0  0  0  0  0
    4.7900    1.3184   19.0804 C   0  0  0  0  0  0  0  0  0  0  0  0
    3.8594    1.8513   19.2318 H   0  0  0  0  0  0  0  0  0  0  0  0
    5.4327    0.6585   20.1303 C   0  0  0  0  0  0  0  0  0  0  0  0
    5.0154    0.6250   21.1358 H   0  0  0  0  0  0  0  0  0  0  0  0
    6.0805   -0.2807   24.9902 C   0  0  0  0  0  0  0  0  0  0  0  0
    5.6725   -1.0146   24.2980 H   0  0  0  0  0  0  0  0  0  0  0  0
    6.9831   -0.7555   25.3972 H   0  0  0  0  0  0  0  0  0  0  0  0
    5.1208    0.0700   26.1328 C   0  0  0  0  0  0  0  0  0  0  0  0
    4.1302    0.3669   25.7543 H   0  0  0  0  0  0  0  0  0  0  0  0
    4.9658   -0.8038   26.7750 H   0  0  0  0  0  0  0  0  0  0  0  0
    5.6419    1.1787   26.9341 N   0  0  0  0  0  0  0  0  0  0  0  0
    6.5757    0.9102   27.2438 H   0  0  0  0  0  0  0  0  0  0  0  0
    5.7753    2.3971   26.1318 C   0  0  0  0  0  0  0  0  0  0  0  0
    6.3436    3.1315   26.7152 H   0  0  0  0  0  0  0  0  0  0  0  0
    4.7725    2.8347   25.9997 H   0  0  0  0  0  0  0  0  0  0  0  0
  1  2  1  0
  2  3  2  0
  3  4  1  0
  4  5  1  0
  4  6  1  0
  6  7  1  0
  7  8  1  0
  7  9  2  0
  9 10  1  0
 10 11  1  0
 10 12  1  0
 12 13  1  0
 13 14  2  0
 14 15  1  0
 14 16  1  0
 16 17  2  0
 17 18  1  0
 17 19  1  0
 19 20  1  0
 19 21  2  0
 21 22  1  0
  3 23  1  0
 23 24  1  0
 23 25  1  0
 23 26  1  0
 26 27  1  0
 26 28  1  0
 26 29  1  0
 29 30  1  0
 29 31  1  0
 31 32  1  0
 31 33  1  0
 31  2  1  0
 12  6  2  0
 21 13  1  0
M  END
>  <cnnaffinity>  (1) 
-4.8669

>  <filename>  (1) 
C1=C(Nc2cn[nH]c2-c2cccnc2)CCNC1

$$$$
