
     RDKit          3D

 39 42  0  0  0  0  0  0  0  0999 V2000
    4.9700    1.8264   16.9571 H   0  0  0  0  0  0  0  0  0  0  0  0
    5.4163    1.2945   17.7903 C   0  0  0  0  0  0  0  0  0  0  0  0
    6.5675    0.6564   17.5308 N   0  0  0  0  0  0  0  0  0  0  0  0
    7.1502    0.0014   18.5394 C   0  0  0  0  0  0  0  0  0  0  0  0
    8.1069   -0.4719   18.3174 H   0  0  0  0  0  0  0  0  0  0  0  0
    6.6137   -0.0493   19.8405 C   0  0  0  0  0  0  0  0  0  0  0  0
    7.3777   -0.6372   20.9520 C   0  0  0  0  0  0  0  0  0  0  0  0
    8.5775   -1.2066   20.7454 N   0  0  0  0  0  0  0  0  0  0  0  0
    9.0219   -1.4099   22.0068 N   0  0  0  0  0  0  0  0  0  0  0  0
   10.2476   -1.7679   22.5371 C   0  0  0  0  0  0  0  0  0  0  0  0
   11.0262   -2.1246   21.8885 H   0  0  0  0  0  0  0  0  0  0  0  0
   10.1477   -1.5448   23.8767 C   0  0  0  0  0  0  0  0  0  0  0  0
   10.8610   -1.5831   24.6789 H   0  0  0  0  0  0  0  0  0  0  0  0
    8.8703   -1.1015   24.1371 N   0  0  0  0  0  0  0  0  0  0  0  0
    8.3631   -0.8143   25.3631 O   0  0  0  0  0  0  0  0  0  0  0  0
    9.1286    0.1404   26.1277 C   0  0  0  0  0  0  0  0  0  0  0  0
    8.4072    0.4775   26.8747 H   0  0  0  0  0  0  0  0  0  0  0  0
    9.9265   -0.3913   26.6642 H   0  0  0  0  0  0  0  0  0  0  0  0
    9.7440    1.3293   25.3798 C   0  0  0  0  0  0  0  0  0  0  0  0
   10.2008    1.9307   26.1715 H   0  0  0  0  0  0  0  0  0  0  0  0
   10.5676    0.9766   24.7506 H   0  0  0  0  0  0  0  0  0  0  0  0
    8.8017    2.1624   24.5407 C   0  0  0  0  0  0  0  0  0  0  0  0
    8.8416    2.0863   23.1376 C   0  0  0  0  0  0  0  0  0  0  0  0
    9.5355    1.3984   22.6559 H   0  0  0  0  0  0  0  0  0  0  0  0
    7.9388    2.8184   22.3603 C   0  0  0  0  0  0  0  0  0  0  0  0
    7.9502    2.7342   21.2764 H   0  0  0  0  0  0  0  0  0  0  0  0
    6.9994    3.6520   22.9788 C   0  0  0  0  0  0  0  0  0  0  0  0
    6.2839    4.2088   22.3772 H   0  0  0  0  0  0  0  0  0  0  0  0
    6.9745    3.7581   24.3708 C   0  0  0  0  0  0  0  0  0  0  0  0
    6.2456    4.4040   24.8508 H   0  0  0  0  0  0  0  0  0  0  0  0
    7.8766    3.0258   25.1482 C   0  0  0  0  0  0  0  0  0  0  0  0
    7.8691    3.1345   26.2324 H   0  0  0  0  0  0  0  0  0  0  0  0
    8.1682   -1.0050   22.9697 C   0  0  0  0  0  0  0  0  0  0  0  0
    7.0273   -0.5352   22.3235 C   0  0  0  0  0  0  0  0  0  0  0  0
    6.1366   -0.1181   22.7602 H   0  0  0  0  0  0  0  0  0  0  0  0
    5.4017    0.6153   20.0869 C   0  0  0  0  0  0  0  0  0  0  0  0
    4.9732    0.6510   21.0906 H   0  0  0  0  0  0  0  0  0  0  0  0
    4.7944    1.2986   19.0417 C   0  0  0  0  0  0  0  0  0  0  0  0
    3.8776    1.8545   19.1971 H   0  0  0  0  0  0  0  0  0  0  0  0
  1  2  1  0
  2  3  2  0
  3  4  1  0
  4  5  1  0
  4  6  2  0
  6  7  1  0
  7  8  2  0
  8  9  1  0
  9 10  1  0
 10 11  1  0
 10 12  2  0
 12 13  1  0
 12 14  1  0
 14 15  1  0
 15 16  1  0
 16 17  1  0
 16 18  1  0
 16 19  1  0
 19 20  1  0
 19 21  1  0
 19 22  1  0
 22 23  2  0
 23 24  1  0
 23 25  1  0
 25 26  1  0
 25 27  2  0
 27 28  1  0
 27 29  1  0
 29 30  1  0
 29 31  2  0
 31 32  1  0
 14 33  1  0
 33 34  2  0
 34 35  1  0
  6 36  1  0
 36 37  1  0
 36 38  2  0
 38 39  1  0
 38  2  1  0
 34  7  1  0
 33  9  1  0
 31 22  1  0
M  END
>  <cnnaffinity>  (1) 
-5.54579

>  <filename>  (1) 
c1ccc(CCOn2ccn3nc(-c4cccnc4)cc23)cc1

$$$$
