
     RDKit          3D

 33 36  0  0  0  0  0  0  0  0999 V2000
    4.9524    1.8434   16.9447 H   0  0  0  0  0  0  0  0  0  0  0  0
    5.4032    1.3061   17.7733 C   0  0  0  0  0  0  0  0  0  0  0  0
    6.5545    0.6694   17.5122 N   0  0  0  0  0  0  0  0  0  0  0  0
    7.1447    0.0104   18.5136 C   0  0  0  0  0  0  0  0  0  0  0  0
    8.0993   -0.4579   18.2761 H   0  0  0  0  0  0  0  0  0  0  0  0
    6.6164   -0.0533   19.8159 C   0  0  0  0  0  0  0  0  0  0  0  0
    7.3709   -0.6686   20.9199 C   0  0  0  0  0  0  0  0  0  0  0  0
    8.5053   -1.3654   20.7250 N   0  0  0  0  0  0  0  0  0  0  0  0
    8.9044   -1.6402   21.9910 N   0  0  0  0  0  0  0  0  0  0  0  0
   10.0820   -2.1152   22.5583 C   0  0  0  0  0  0  0  0  0  0  0  0
   10.8702   -2.4858   21.9253 H   0  0  0  0  0  0  0  0  0  0  0  0
    9.9788   -1.8907   23.8927 C   0  0  0  0  0  0  0  0  0  0  0  0
   10.6585   -1.9857   24.7276 H   0  0  0  0  0  0  0  0  0  0  0  0
    8.7213   -1.3608   24.1355 N   0  0  0  0  0  0  0  0  0  0  0  0
    8.4734   -0.6985   25.3025 O   0  0  0  0  0  0  0  0  0  0  0  0
    7.1239   -0.6034   25.6842 C   0  0  0  0  0  0  0  0  0  0  0  0
    6.8469    0.5340   26.4382 C   0  0  0  0  0  0  0  0  0  0  0  0
    7.6636    1.2339   26.5916 H   0  0  0  0  0  0  0  0  0  0  0  0
    5.5517    0.7377   26.9151 C   0  0  0  0  0  0  0  0  0  0  0  0
    5.3301    1.6287   27.5011 H   0  0  0  0  0  0  0  0  0  0  0  0
    4.5472   -0.2018   26.6315 C   0  0  0  0  0  0  0  0  0  0  0  0
    3.5400   -0.0473   27.0022 H   0  0  0  0  0  0  0  0  0  0  0  0
    4.8420   -1.3409   25.8684 C   0  0  0  0  0  0  0  0  0  0  0  0
    4.0576   -2.0626   25.6343 H   0  0  0  0  0  0  0  0  0  0  0  0
    6.1379   -1.5494   25.3815 C   0  0  0  0  0  0  0  0  0  0  0  0
    6.3863   -2.4018   24.7519 H   0  0  0  0  0  0  0  0  0  0  0  0
    8.0944   -1.1295   22.9346 C   0  0  0  0  0  0  0  0  0  0  0  0
    7.0378   -0.5065   22.2867 C   0  0  0  0  0  0  0  0  0  0  0  0
    6.1992   -0.0040   22.7406 H   0  0  0  0  0  0  0  0  0  0  0  0
    5.4041    0.6161   20.0642 C   0  0  0  0  0  0  0  0  0  0  0  0
    4.9682    0.6405   21.0631 H   0  0  0  0  0  0  0  0  0  0  0  0
    4.7880    1.3044   19.0272 C   0  0  0  0  0  0  0  0  0  0  0  0
    3.8696    1.8588   19.1897 H   0  0  0  0  0  0  0  0  0  0  0  0
  1  2  1  0
  2  3  2  0
  3  4  1  0
  4  5  1  0
  4  6  2  0
  6  7  1  0
  7  8  2  0
  8  9  1  0
  9 10  1  0
 10 11  1  0
 10 12  2  0
 12 13  1  0
 12 14  1  0
 14 15  1  0
 15 16  1  0
 16 17  2  0
 17 18  1  0
 17 19  1  0
 19 20  1  0
 19 21  2  0
 21 22  1  0
 21 23  1  0
 23 24  1  0
 23 25  2  0
 25 26  1  0
 14 27  1  0
 27 28  2  0
 28 29  1  0
  6 30  1  0
 30 31  1  0
 30 32  2  0
 32 33  1  0
 32  2  1  0
 28  7  1  0
 27  9  1  0
 25 16  1  0
M  END
>  <cnnaffinity>  (1) 
-5.40728

>  <filename>  (1) 
c1ccc(On2ccn3nc(-c4cccnc4)cc23)cc1

$$$$
