
     RDKit          3D

 35 38  0  0  0  0  0  0  0  0999 V2000
    4.9574    1.7986   16.9186 H   0  0  0  0  0  0  0  0  0  0  0  0
    5.4364    1.3158   17.7686 C   0  0  0  0  0  0  0  0  0  0  0  0
    6.6045    0.7035   17.5206 N   0  0  0  0  0  0  0  0  0  0  0  0
    7.2131    0.0988   18.5455 C   0  0  0  0  0  0  0  0  0  0  0  0
    8.1547   -0.3950   18.3213 H   0  0  0  0  0  0  0  0  0  0  0  0
    6.7005    0.0703   19.8574 C   0  0  0  0  0  0  0  0  0  0  0  0
    7.3937   -0.6696   20.9292 C   0  0  0  0  0  0  0  0  0  0  0  0
    8.6052   -1.2152   20.7463 N   0  0  0  0  0  0  0  0  0  0  0  0
    8.7877   -1.9061   21.8925 N   0  0  0  0  0  0  0  0  0  0  0  0
    9.7551   -2.7670   22.3792 C   0  0  0  0  0  0  0  0  0  0  0  0
   10.7085   -2.8486   21.8916 H   0  0  0  0  0  0  0  0  0  0  0  0
    9.2480   -3.2977   23.5218 C   0  0  0  0  0  0  0  0  0  0  0  0
    9.6753   -4.0567   24.1660 H   0  0  0  0  0  0  0  0  0  0  0  0
    7.9956   -2.7341   23.7734 N   0  0  0  0  0  0  0  0  0  0  0  0
    6.9882   -3.1787   24.7350 C   0  0  0  0  0  0  0  0  0  0  0  0
    7.5084   -3.5976   25.6055 H   0  0  0  0  0  0  0  0  0  0  0  0
    6.4438   -2.2868   25.0688 H   0  0  0  0  0  0  0  0  0  0  0  0
    6.0178   -4.2045   24.1548 C   0  0  0  0  0  0  0  0  0  0  0  0
    4.7157   -3.8453   23.7665 C   0  0  0  0  0  0  0  0  0  0  0  0
    4.3352   -2.8554   24.0177 H   0  0  0  0  0  0  0  0  0  0  0  0
    3.8917   -4.7556   23.0883 C   0  0  0  0  0  0  0  0  0  0  0  0
    2.8888   -4.4768   22.7714 H   0  0  0  0  0  0  0  0  0  0  0  0
    4.3543   -6.0459   22.8144 C   0  0  0  0  0  0  0  0  0  0  0  0
    3.7244   -6.7442   22.2650 H   0  0  0  0  0  0  0  0  0  0  0  0
    5.6222   -6.4332   23.2596 C   0  0  0  0  0  0  0  0  0  0  0  0
    5.9756   -7.4373   23.0531 H   0  0  0  0  0  0  0  0  0  0  0  0
    6.4488   -5.5210   23.9225 C   0  0  0  0  0  0  0  0  0  0  0  0
    7.4507   -5.8142   24.2344 H   0  0  0  0  0  0  0  0  0  0  0  0
    7.7438   -1.8532   22.7446 C   0  0  0  0  0  0  0  0  0  0  0  0
    6.8264   -0.9730   22.1936 C   0  0  0  0  0  0  0  0  0  0  0  0
    5.9976   -0.4682   22.6478 H   0  0  0  0  0  0  0  0  0  0  0  0
    5.4728    0.7142   20.0963 C   0  0  0  0  0  0  0  0  0  0  0  0
    5.0214    0.7276   21.0924 H   0  0  0  0  0  0  0  0  0  0  0  0
    4.8338    1.3429   19.0325 C   0  0  0  0  0  0  0  0  0  0  0  0
    3.8823    1.8468   19.1687 H   0  0  0  0  0  0  0  0  0  0  0  0
  1  2  1  0
  2  3  2  0
  3  4  1  0
  4  5  1  0
  4  6  2  0
  6  7  1  0
  7  8  2  0
  8  9  1  0
  9 10  1  0
 10 11  1  0
 10 12  2  0
 12 13  1  0
 12 14  1  0
 14 15  1  0
 15 16  1  0
 15 17  1  0
 15 18  1  0
 18 19  2  0
 19 20  1  0
 19 21  1  0
 21 22  1  0
 21 23  2  0
 23 24  1  0
 23 25  1  0
 25 26  1  0
 25 27  2  0
 27 28  1  0
 14 29  1  0
 29 30  2  0
 30 31  1  0
  6 32  1  0
 32 33  1  0
 32 34  2  0
 34 35  1  0
 34  2  1  0
 30  7  1  0
 29  9  1  0
 27 18  1  0
M  END
>  <cnnaffinity>  (1) 
-5.54131

>  <filename>  (1) 
c1ccc(Cn2ccn3nc(-c4cccnc4)cc23)cc1

$$$$
