
     RDKit          3D

 40 43  0  0  0  0  0  0  0  0999 V2000
    5.1641    1.7911   16.8691 H   0  0  0  0  0  0  0  0  0  0  0  0
    5.5373    1.2874   17.7588 C   0  0  0  0  0  0  0  0  0  0  0  0
    6.6934    0.6188   17.6212 N   0  0  0  0  0  0  0  0  0  0  0  0
    7.1801   -0.0126   18.6961 C   0  0  0  0  0  0  0  0  0  0  0  0
    8.1040   -0.5705   18.5442 H   0  0  0  0  0  0  0  0  0  0  0  0
    6.5628    0.0131   19.9575 C   0  0  0  0  0  0  0  0  0  0  0  0
    7.1505   -0.7148   21.0869 C   0  0  0  0  0  0  0  0  0  0  0  0
    7.6057   -1.9648   20.9624 N   0  0  0  0  0  0  0  0  0  0  0  0
    7.9483   -2.2917   22.2121 N   0  0  0  0  0  0  0  0  0  0  0  0
    7.7927   -1.3124   23.1099 C   0  0  0  0  0  0  0  0  0  0  0  0
    7.2924   -0.2278   22.4138 C   0  0  0  0  0  0  0  0  0  0  0  0
    6.9969    1.1513   22.9220 C   0  0  0  0  0  0  0  0  0  0  0  0
    6.9744    1.8657   22.0796 H   0  0  0  0  0  0  0  0  0  0  0  0
    5.9867    1.1767   23.3556 H   0  0  0  0  0  0  0  0  0  0  0  0
    7.9527    1.5286   23.9396 N   0  0  0  0  0  0  0  0  0  0  0  0
    8.9040    1.2952   23.7097 H   0  0  0  0  0  0  0  0  0  0  0  0
    7.8230    2.6700   24.7145 C   0  0  0  0  0  0  0  0  0  0  0  0
    6.6005    3.3535   24.8112 C   0  0  0  0  0  0  0  0  0  0  0  0
    5.7670    3.0164   24.2032 H   0  0  0  0  0  0  0  0  0  0  0  0
    6.4732    4.4529   25.6595 C   0  0  0  0  0  0  0  0  0  0  0  0
    5.5048    4.9399   25.7385 H   0  0  0  0  0  0  0  0  0  0  0  0
    7.5673    4.9073   26.4012 C   0  0  0  0  0  0  0  0  0  0  0  0
    7.4676    5.7705   27.0537 H   0  0  0  0  0  0  0  0  0  0  0  0
    8.7906    4.2358   26.2972 C   0  0  0  0  0  0  0  0  0  0  0  0
    9.6381    4.5877   26.8770 H   0  0  0  0  0  0  0  0  0  0  0  0
    8.9263    3.1218   25.4649 C   0  0  0  0  0  0  0  0  0  0  0  0
    9.8717    2.5912   25.3888 H   0  0  0  0  0  0  0  0  0  0  0  0
    8.3023   -1.7514   24.4495 C   0  0  0  0  0  0  0  0  0  0  0  0
    9.2024   -1.1777   24.6907 H   0  0  0  0  0  0  0  0  0  0  0  0
    7.5814   -1.5731   25.2525 H   0  0  0  0  0  0  0  0  0  0  0  0
    8.6002   -3.2695   24.2370 C   0  0  0  0  0  0  0  0  0  0  0  0
    7.8842   -3.8810   24.7888 H   0  0  0  0  0  0  0  0  0  0  0  0
    9.6031   -3.5485   24.5669 H   0  0  0  0  0  0  0  0  0  0  0  0
    8.4395   -3.5524   22.7169 C   0  0  0  0  0  0  0  0  0  0  0  0
    9.3852   -3.8033   22.2384 H   0  0  0  0  0  0  0  0  0  0  0  0
    7.7167   -4.3464   22.5084 H   0  0  0  0  0  0  0  0  0  0  0  0
    5.3676    0.7389   20.0872 C   0  0  0  0  0  0  0  0  0  0  0  0
    4.8633    0.8029   21.0529 H   0  0  0  0  0  0  0  0  0  0  0  0
    4.8341    1.3663   18.9651 C   0  0  0  0  0  0  0  0  0  0  0  0
    3.9085    1.9269   19.0227 H   0  0  0  0  0  0  0  0  0  0  0  0
  1  2  1  0
  2  3  2  0
  3  4  1  0
  4  5  1  0
  4  6  2  0
  6  7  1  0
  7  8  2  0
  8  9  1  0
  9 10  1  0
 10 11  2  0
 11 12  1  0
 12 13  1  0
 12 14  1  0
 12 15  1  0
 15 16  1  0
 15 17  1  0
 17 18  2  0
 18 19  1  0
 18 20  1  0
 20 21  1  0
 20 22  2  0
 22 23  1  0
 22 24  1  0
 24 25  1  0
 24 26  2  0
 26 27  1  0
 10 28  1  0
 28 29  1  0
 28 30  1  0
 28 31  1  0
 31 32  1  0
 31 33  1  0
 31 34  1  0
 34 35  1  0
 34 36  1  0
  6 37  1  0
 37 38  1  0
 37 39  2  0
 39 40  1  0
 39  2  1  0
 11  7  1  0
 26 17  1  0
 34  9  1  0
M  END
>  <cnnaffinity>  (1) 
-5.44711

>  <filename>  (1) 
c1ccc(NCc2c(-c3cccnc3)nn3c2CCC3)cc1

$$$$
