
     RDKit          3D

 39 42  0  0  0  0  0  0  0  0999 V2000
    5.0216    1.8171   16.9428 H   0  0  0  0  0  0  0  0  0  0  0  0
    5.4480    1.3058   17.8034 C   0  0  0  0  0  0  0  0  0  0  0  0
    6.5968    0.6468   17.5862 N   0  0  0  0  0  0  0  0  0  0  0  0
    7.1452    0.0134   18.6257 C   0  0  0  0  0  0  0  0  0  0  0  0
    8.0632   -0.5316   18.4149 H   0  0  0  0  0  0  0  0  0  0  0  0
    6.6077    0.0190   19.9265 C   0  0  0  0  0  0  0  0  0  0  0  0
    7.3263   -0.6579   21.0110 C   0  0  0  0  0  0  0  0  0  0  0  0
    8.0205   -1.7763   20.7917 N   0  0  0  0  0  0  0  0  0  0  0  0
    8.5146   -2.0679   21.9940 N   0  0  0  0  0  0  0  0  0  0  0  0
    8.2450   -1.1896   22.9579 C   0  0  0  0  0  0  0  0  0  0  0  0
    7.4491   -0.2326   22.3636 C   0  0  0  0  0  0  0  0  0  0  0  0
    6.9735    1.0194   23.0094 C   0  0  0  0  0  0  0  0  0  0  0  0
    5.9624    0.9027   23.4385 H   0  0  0  0  0  0  0  0  0  0  0  0
    6.9273    1.8403   22.2740 H   0  0  0  0  0  0  0  0  0  0  0  0
    7.8992    1.3225   24.0416 O   0  0  0  0  0  0  0  0  0  0  0  0
    7.7615    2.4872   24.7210 C   0  0  0  0  0  0  0  0  0  0  0  0
    8.8316    2.8418   25.5555 C   0  0  0  0  0  0  0  0  0  0  0  0
    9.7099    2.2002   25.5853 H   0  0  0  0  0  0  0  0  0  0  0  0
    8.7291    3.9958   26.3284 C   0  0  0  0  0  0  0  0  0  0  0  0
    9.5564    4.2958   26.9636 H   0  0  0  0  0  0  0  0  0  0  0  0
    7.5648    4.7723   26.2951 C   0  0  0  0  0  0  0  0  0  0  0  0
    7.4951    5.6644   26.9074 H   0  0  0  0  0  0  0  0  0  0  0  0
    6.5038    4.4051   25.4705 C   0  0  0  0  0  0  0  0  0  0  0  0
    5.5729    4.9676   25.4699 H   0  0  0  0  0  0  0  0  0  0  0  0
    6.6069    3.2758   24.6547 C   0  0  0  0  0  0  0  0  0  0  0  0
    5.7944    2.9858   24.0005 H   0  0  0  0  0  0  0  0  0  0  0  0
    8.9864   -1.5449   24.2224 C   0  0  0  0  0  0  0  0  0  0  0  0
    9.7006   -0.7569   24.4890 H   0  0  0  0  0  0  0  0  0  0  0  0
    8.3089   -1.6627   25.0725 H   0  0  0  0  0  0  0  0  0  0  0  0
    9.6852   -2.8860   23.8481 C   0  0  0  0  0  0  0  0  0  0  0  0
   10.7512   -2.8629   24.0763 H   0  0  0  0  0  0  0  0  0  0  0  0
    9.2518   -3.7244   24.3982 H   0  0  0  0  0  0  0  0  0  0  0  0
    9.4570   -3.0943   22.3283 C   0  0  0  0  0  0  0  0  0  0  0  0
    9.0100   -4.0617   22.0985 H   0  0  0  0  0  0  0  0  0  0  0  0
   10.3604   -2.9271   21.7366 H   0  0  0  0  0  0  0  0  0  0  0  0
    5.3863    0.6851   20.1265 C   0  0  0  0  0  0  0  0  0  0  0  0
    4.8926    0.6764   21.1010 H   0  0  0  0  0  0  0  0  0  0  0  0
    4.7986    1.3336   19.0418 C   0  0  0  0  0  0  0  0  0  0  0  0
    3.8542    1.8570   19.1418 H   0  0  0  0  0  0  0  0  0  0  0  0
  1  2  1  0
  2  3  2  0
  3  4  1  0
  4  5  1  0
  4  6  2  0
  6  7  1  0
  7  8  2  0
  8  9  1  0
  9 10  1  0
 10 11  2  0
 11 12  1  0
 12 13  1  0
 12 14  1  0
 12 15  1  0
 15 16  1  0
 16 17  2  0
 17 18  1  0
 17 19  1  0
 19 20  1  0
 19 21  2  0
 21 22  1  0
 21 23  1  0
 23 24  1  0
 23 25  2  0
 25 26  1  0
 10 27  1  0
 27 28  1  0
 27 29  1  0
 27 30  1  0
 30 31  1  0
 30 32  1  0
 30 33  1  0
 33 34  1  0
 33 35  1  0
  6 36  1  0
 36 37  1  0
 36 38  2  0
 38 39  1  0
 38  2  1  0
 11  7  1  0
 25 16  1  0
 33  9  1  0
M  END
>  <cnnaffinity>  (1) 
-5.34824

>  <filename>  (1) 
c1ccc(OCc2c(-c3cccnc3)nn3c2CCC3)cc1

$$$$
