
     RDKit          3D

 38 40  0  0  0  0  0  0  0  0999 V2000
   10.9260   -0.3030   22.0799 H   0  0  0  0  0  0  0  0  0  0  0  0
    9.8620   -0.5212   22.0259 C   0  0  0  0  0  0  0  0  0  0  0  0
    9.1903   -0.0488   20.9586 N   0  0  0  0  0  0  0  0  0  0  0  0
    7.8701   -0.3294   20.9038 C   0  0  0  0  0  0  0  0  0  0  0  0
    7.1133    0.3674   19.8215 C   0  0  0  0  0  0  0  0  0  0  0  0
    7.6936    0.4749   18.5436 C   0  0  0  0  0  0  0  0  0  0  0  0
    8.7176    0.1475   18.3855 H   0  0  0  0  0  0  0  0  0  0  0  0
    7.0498    0.9363   17.4677 N   0  0  0  0  0  0  0  0  0  0  0  0
    5.7980    1.3845   17.6430 C   0  0  0  0  0  0  0  0  0  0  0  0
    5.2861    1.7427   16.7519 H   0  0  0  0  0  0  0  0  0  0  0  0
    5.1605    1.4235   18.8856 C   0  0  0  0  0  0  0  0  0  0  0  0
    4.1616    1.8369   18.9725 H   0  0  0  0  0  0  0  0  0  0  0  0
    5.8368    0.9245   19.9992 C   0  0  0  0  0  0  0  0  0  0  0  0
    5.3818    0.9793   20.9904 H   0  0  0  0  0  0  0  0  0  0  0  0
    7.2739   -1.2657   21.8311 C   0  0  0  0  0  0  0  0  0  0  0  0
    5.9553   -1.9737   21.5711 C   0  0  0  0  0  0  0  0  0  0  0  0
    5.6501   -2.4457   22.5115 H   0  0  0  0  0  0  0  0  0  0  0  0
    5.1766   -1.2603   21.2904 H   0  0  0  0  0  0  0  0  0  0  0  0
    6.0836   -3.0392   20.4625 C   0  0  0  0  0  0  0  0  0  0  0  0
    5.0854   -3.3275   20.1224 H   0  0  0  0  0  0  0  0  0  0  0  0
    6.5703   -2.5777   19.5902 H   0  0  0  0  0  0  0  0  0  0  0  0
    6.8588   -4.3013   20.9088 C   0  0  0  0  0  0  0  0  0  0  0  0
    7.8784   -4.0161   21.1880 H   0  0  0  0  0  0  0  0  0  0  0  0
    6.9608   -4.9749   20.0480 H   0  0  0  0  0  0  0  0  0  0  0  0
    6.1944   -5.0599   22.0522 C   0  0  0  0  0  0  0  0  0  0  0  0
    5.1146   -5.9112   21.7733 C   0  0  0  0  0  0  0  0  0  0  0  0
    4.8424   -6.0679   20.7352 H   0  0  0  0  0  0  0  0  0  0  0  0
    4.4154   -6.5683   22.7871 C   0  0  0  0  0  0  0  0  0  0  0  0
    3.5820   -7.2260   22.5396 H   0  0  0  0  0  0  0  0  0  0  0  0
    4.8076   -6.3909   24.1180 C   0  0  0  0  0  0  0  0  0  0  0  0
    4.2583   -6.8990   24.9034 H   0  0  0  0  0  0  0  0  0  0  0  0
    5.8892   -5.5571   24.4234 C   0  0  0  0  0  0  0  0  0  0  0  0
    6.2090   -5.4372   25.4588 H   0  0  0  0  0  0  0  0  0  0  0  0
    6.5747   -4.8915   23.3982 C   0  0  0  0  0  0  0  0  0  0  0  0
    7.3791   -4.2051   23.6419 H   0  0  0  0  0  0  0  0  0  0  0  0
    7.9492   -1.6740   22.9207 N   0  0  0  0  0  0  0  0  0  0  0  0
    9.2335   -1.2766   23.0269 C   0  0  0  0  0  0  0  0  0  0  0  0
    9.7662   -1.5963   23.9160 H   0  0  0  0  0  0  0  0  0  0  0  0
  1  2  1  0
  2  3  2  0
  3  4  1  0
  4  5  1  0
  5  6  2  0
  6  7  1  0
  6  8  1  0
  8  9  2  0
  9 10  1  0
  9 11  1  0
 11 12  1  0
 11 13  2  0
 13 14  1  0
  4 15  2  0
 15 16  1  0
 16 17  1  0
 16 18  1  0
 16 19  1  0
 19 20  1  0
 19 21  1  0
 19 22  1  0
 22 23  1  0
 22 24  1  0
 22 25  1  0
 25 26  2  0
 26 27  1  0
 26 28  1  0
 28 29  1  0
 28 30  2  0
 30 31  1  0
 30 32  1  0
 32 33  1  0
 32 34  2  0
 34 35  1  0
 15 36  1  0
 36 37  2  0
 37 38  1  0
 37  2  1  0
 13  5  1  0
 34 25  1  0
M  END
>  <cnnaffinity>  (1) 
-4.9252

>  <filename>  (1) 
c1ccc(CCCc2nccnc2-c2cccnc2)cc1

$$$$
