
     RDKit          3D

 31 33  0  0  0  0  0  0  0  0999 V2000
    5.4113    2.2270   27.2606 H   0  0  0  0  0  0  0  0  0  0  0  0
    5.9633    2.2396   26.3267 C   0  0  0  0  0  0  0  0  0  0  0  0
    6.5178    1.0804   25.9645 N   0  0  0  0  0  0  0  0  0  0  0  0
    7.1919    1.0928   24.8195 C   0  0  0  0  0  0  0  0  0  0  0  0
    7.7771   -0.1163   24.5893 N   0  0  0  0  0  0  0  0  0  0  0  0
    7.5518   -0.6762   25.3915 H   0  0  0  0  0  0  0  0  0  0  0  0
    7.8163   -0.6907   23.3520 C   0  0  0  0  0  0  0  0  0  0  0  0
    7.2154   -0.0578   22.3505 N   0  0  0  0  0  0  0  0  0  0  0  0
    7.3737   -0.5670   21.1240 C   0  0  0  0  0  0  0  0  0  0  0  0
    6.6336    0.0997   20.0247 C   0  0  0  0  0  0  0  0  0  0  0  0
    7.1711    0.0881   18.7297 C   0  0  0  0  0  0  0  0  0  0  0  0
    8.1259   -0.3970   18.5269 H   0  0  0  0  0  0  0  0  0  0  0  0
    6.5908    0.6602   17.6717 N   0  0  0  0  0  0  0  0  0  0  0  0
    5.4166    1.2770   17.8735 C   0  0  0  0  0  0  0  0  0  0  0  0
    4.9692    1.7498   17.0012 H   0  0  0  0  0  0  0  0  0  0  0  0
    4.7796    1.3290   19.1180 C   0  0  0  0  0  0  0  0  0  0  0  0
    3.8295    1.8416   19.2151 H   0  0  0  0  0  0  0  0  0  0  0  0
    5.3962    0.7352   20.2175 C   0  0  0  0  0  0  0  0  0  0  0  0
    4.9484    0.7558   21.2136 H   0  0  0  0  0  0  0  0  0  0  0  0
    8.1849   -1.6745   20.8715 C   0  0  0  0  0  0  0  0  0  0  0  0
    8.3459   -1.9417   19.8557 H   0  0  0  0  0  0  0  0  0  0  0  0
    8.7690   -2.3786   21.9301 C   0  0  0  0  0  0  0  0  0  0  0  0
    9.3643   -3.2777   21.7658 H   0  0  0  0  0  0  0  0  0  0  0  0
    8.5580   -1.8744   23.2065 C   0  0  0  0  0  0  0  0  0  0  0  0
    8.9994   -2.2840   24.1012 H   0  0  0  0  0  0  0  0  0  0  0  0
    7.3818    2.2129   24.0017 C   0  0  0  0  0  0  0  0  0  0  0  0
    7.9323    2.0863   23.0819 H   0  0  0  0  0  0  0  0  0  0  0  0
    6.8117    3.4078   24.4109 C   0  0  0  0  0  0  0  0  0  0  0  0
    6.9459    4.2990   23.8009 H   0  0  0  0  0  0  0  0  0  0  0  0
    6.0744    3.4251   25.5979 C   0  0  0  0  0  0  0  0  0  0  0  0
    5.6049    4.3318   25.9558 H   0  0  0  0  0  0  0  0  0  0  0  0
  1  2  1  0
  2  3  2  0
  3  4  1  0
  4  5  1  0
  5  6  1  0
  5  7  1  0
  7  8  2  0
  8  9  1  0
  9 10  1  0
 10 11  2  0
 11 12  1  0
 11 13  1  0
 13 14  2  0
 14 15  1  0
 14 16  1  0
 16 17  1  0
 16 18  2  0
 18 19  1  0
  9 20  2  0
 20 21  1  0
 20 22  1  0
 22 23  1  0
 22 24  2  0
 24 25  1  0
  4 26  2  0
 26 27  1  0
 26 28  1  0
 28 29  1  0
 28 30  2  0
 30 31  1  0
 30  2  1  0
 24  7  1  0
 18 10  1  0
M  END
>  <cnnaffinity>  (1) 
-4.85992

>  <filename>  (1) 
c1ccc(Nc2cccc(-c3cccnc3)n2)nc1

$$$$
