
     RDKit          3D

 44 47  0  0  0  0  0  0  0  0999 V2000
    9.9147    6.9405   26.0168 H   0  0  0  0  0  0  0  0  0  0  0  0
    8.9367    6.5343   25.7468 C   0  0  0  0  0  0  0  0  0  0  0  0
    8.9680    5.5070   24.8987 N   0  0  0  0  0  0  0  0  0  0  0  0
    7.7996    4.9337   24.5808 C   0  0  0  0  0  0  0  0  0  0  0  0
    7.8889    3.8099   23.7819 N   0  0  0  0  0  0  0  0  0  0  0  0
    6.7991    2.8326   23.6870 C   0  0  0  0  0  0  0  0  0  0  0  0
    6.0629    3.1424   22.9222 H   0  0  0  0  0  0  0  0  0  0  0  0
    6.2905    2.7585   24.6573 H   0  0  0  0  0  0  0  0  0  0  0  0
    7.3329    1.4310   23.3301 C   0  0  0  0  0  0  0  0  0  0  0  0
    7.9319    1.0554   24.1858 H   0  0  0  0  0  0  0  0  0  0  0  0
    6.4730    0.7634   23.2042 H   0  0  0  0  0  0  0  0  0  0  0  0
    8.1409    1.4534   22.0996 N   0  0  0  0  0  0  0  0  0  0  0  0
    8.5479    0.1207   21.6649 C   0  0  0  0  0  0  0  0  0  0  0  0
    9.3522    0.2281   20.9221 H   0  0  0  0  0  0  0  0  0  0  0  0
    8.9758   -0.4840   22.4917 H   0  0  0  0  0  0  0  0  0  0  0  0
    7.4107   -0.6830   21.0248 C   0  0  0  0  0  0  0  0  0  0  0  0
    6.6588    0.0101   19.9101 C   0  0  0  0  0  0  0  0  0  0  0  0
    7.1671    0.0667   18.5992 C   0  0  0  0  0  0  0  0  0  0  0  0
    8.1144   -0.4191   18.3585 H   0  0  0  0  0  0  0  0  0  0  0  0
    6.5607    0.6819   17.5716 N   0  0  0  0  0  0  0  0  0  0  0  0
    5.3968    1.2991   17.8239 C   0  0  0  0  0  0  0  0  0  0  0  0
    4.9261    1.7984   16.9771 H   0  0  0  0  0  0  0  0  0  0  0  0
    4.7978    1.3192   19.0891 C   0  0  0  0  0  0  0  0  0  0  0  0
    3.8619    1.8454   19.2340 H   0  0  0  0  0  0  0  0  0  0  0  0
    5.4413    0.6621   20.1400 C   0  0  0  0  0  0  0  0  0  0  0  0
    5.0163    0.6385   21.1450 H   0  0  0  0  0  0  0  0  0  0  0  0
    6.6694   -1.6879   21.8872 C   0  0  0  0  0  0  0  0  0  0  0  0
    6.9109   -1.7863   22.9474 H   0  0  0  0  0  0  0  0  0  0  0  0
    5.6192   -1.8560   21.6534 H   0  0  0  0  0  0  0  0  0  0  0  0
    7.6387   -2.1591   20.8397 C   0  0  0  0  0  0  0  0  0  0  0  0
    8.6043   -2.6030   21.0795 H   0  0  0  0  0  0  0  0  0  0  0  0
    7.1308   -2.5804   19.9806 H   0  0  0  0  0  0  0  0  0  0  0  0
    9.2649    2.3814   22.2846 C   0  0  0  0  0  0  0  0  0  0  0  0
    9.9391    2.0453   23.0984 H   0  0  0  0  0  0  0  0  0  0  0  0
    9.8419    2.4281   21.3514 H   0  0  0  0  0  0  0  0  0  0  0  0
    8.7779    3.8034   22.6083 C   0  0  0  0  0  0  0  0  0  0  0  0
    9.6453    4.4397   22.8096 H   0  0  0  0  0  0  0  0  0  0  0  0
    8.2480    4.2011   21.7235 H   0  0  0  0  0  0  0  0  0  0  0  0
    6.5567    5.4255   25.0417 C   0  0  0  0  0  0  0  0  0  0  0  0
    5.6584    4.9380   24.6857 H   0  0  0  0  0  0  0  0  0  0  0  0
    6.5427    6.5246   25.8956 C   0  0  0  0  0  0  0  0  0  0  0  0
    5.5968    6.9360   26.2631 H   0  0  0  0  0  0  0  0  0  0  0  0
    7.7693    7.0879   26.2711 C   0  0  0  0  0  0  0  0  0  0  0  0
    7.8417    7.9414   26.9340 H   0  0  0  0  0  0  0  0  0  0  0  0
  1  2  1  0
  2  3  2  0
  3  4  1  0
  4  5  1  0
  5  6  1  0
  6  7  1  0
  6  8  1  0
  6  9  1  0
  9 10  1  0
  9 11  1  0
  9 12  1  0
 12 13  1  0
 13 14  1  0
 13 15  1  0
 13 16  1  0
 16 17  1  0
 17 18  2  0
 18 19  1  0
 18 20  1  0
 20 21  2  0
 21 22  1  0
 21 23  1  0
 23 24  1  0
 23 25  2  0
 25 26  1  0
 16 27  1  0
 27 28  1  0
 27 29  1  0
 27 30  1  0
 30 31  1  0
 30 32  1  0
 12 33  1  0
 33 34  1  0
 33 35  1  0
 33 36  1  0
 36 37  1  0
 36 38  1  0
  4 39  2  0
 39 40  1  0
 39 41  1  0
 41 42  1  0
 41 43  2  0
 43 44  1  0
 43  2  1  0
 36  5  1  0
 30 16  1  0
 25 17  1  0
M  END
>  <cnnaffinity>  (1) 
-4.79974

>  <filename>  (1) 
c1ccc(N2CCN(CC3(c4cccnc4)CC3)CC2)nc1

$$$$
