
     RDKit          3D

 34 37  0  0  0  0  0  0  0  0999 V2000
    5.0064    1.6409   17.0444 H   0  0  0  0  0  0  0  0  0  0  0  0
    5.5369    1.3354   17.9432 C   0  0  0  0  0  0  0  0  0  0  0  0
    6.8211    0.9802   17.7842 N   0  0  0  0  0  0  0  0  0  0  0  0
    7.4911    0.6055   18.8787 C   0  0  0  0  0  0  0  0  0  0  0  0
    8.5428    0.3728   18.7158 H   0  0  0  0  0  0  0  0  0  0  0  0
    6.9270    0.4984   20.1737 C   0  0  0  0  0  0  0  0  0  0  0  0
    7.7305   -0.0306   21.3339 C   0  0  0  0  0  0  0  0  0  0  0  0
    7.0118   -0.1769   22.6530 C   0  0  0  0  0  0  0  0  0  0  0  0
    6.5243    0.8378   23.3085 N   0  0  0  0  0  0  0  0  0  0  0  0
    5.8762    0.4859   24.4505 N   0  0  0  0  0  0  0  0  0  0  0  0
    5.8641   -0.7958   24.6446 C   0  0  0  0  0  0  0  0  0  0  0  0
    5.0581   -1.5112   26.0384 S   0  0  0  0  0  0  0  0  0  0  0  0
    6.3291   -2.6697   26.4938 C   0  0  0  0  0  0  0  0  0  0  0  0
    7.6310   -2.2051   26.7440 C   0  0  0  0  0  0  0  0  0  0  0  0
    7.8285   -1.1341   26.7687 H   0  0  0  0  0  0  0  0  0  0  0  0
    8.6639   -3.1198   26.9417 C   0  0  0  0  0  0  0  0  0  0  0  0
    9.6778   -2.7553   27.0810 H   0  0  0  0  0  0  0  0  0  0  0  0
    8.3896   -4.4925   26.9351 C   0  0  0  0  0  0  0  0  0  0  0  0
    9.2072   -5.1993   27.0379 H   0  0  0  0  0  0  0  0  0  0  0  0
    7.0767   -4.9498   26.7617 C   0  0  0  0  0  0  0  0  0  0  0  0
    6.8586   -6.0150   26.7884 H   0  0  0  0  0  0  0  0  0  0  0  0
    6.0373   -4.0395   26.5335 C   0  0  0  0  0  0  0  0  0  0  0  0
    5.0134   -4.3750   26.3736 H   0  0  0  0  0  0  0  0  0  0  0  0
    6.6671   -1.7098   23.3975 S   0  0  0  0  0  0  0  0  0  0  0  0
    8.8389   -1.0300   21.0448 C   0  0  0  0  0  0  0  0  0  0  0  0
    9.0087   -1.7687   21.8267 H   0  0  0  0  0  0  0  0  0  0  0  0
    8.9589   -1.4030   20.0273 H   0  0  0  0  0  0  0  0  0  0  0  0
    9.2016    0.3786   21.3523 C   0  0  0  0  0  0  0  0  0  0  0  0
    9.6715    0.6337   22.2975 H   0  0  0  0  0  0  0  0  0  0  0  0
    9.4847    1.0282   20.5256 H   0  0  0  0  0  0  0  0  0  0  0  0
    5.5984    0.9200   20.3127 C   0  0  0  0  0  0  0  0  0  0  0  0
    5.1399    0.9517   21.3019 H   0  0  0  0  0  0  0  0  0  0  0  0
    4.8964    1.3360   19.1848 C   0  0  0  0  0  0  0  0  0  0  0  0
    3.8687    1.6677   19.2633 H   0  0  0  0  0  0  0  0  0  0  0  0
  1  2  1  0
  2  3  2  0
  3  4  1  0
  4  5  1  0
  4  6  2  0
  6  7  1  0
  7  8  1  0
  8  9  2  0
  9 10  1  0
 10 11  2  0
 11 12  1  0
 12 13  1  0
 13 14  2  0
 14 15  1  0
 14 16  1  0
 16 17  1  0
 16 18  2  0
 18 19  1  0
 18 20  1  0
 20 21  1  0
 20 22  2  0
 22 23  1  0
 11 24  1  0
  7 25  1  0
 25 26  1  0
 25 27  1  0
 25 28  1  0
 28 29  1  0
 28 30  1  0
  6 31  1  0
 31 32  1  0
 31 33  2  0
 33 34  1  0
 33  2  1  0
 28  7  1  0
 24  8  1  0
 22 13  1  0
M  END
>  <cnnaffinity>  (1) 
-5.35499

>  <filename>  (1) 
c1ccc(Sc2nnc(C3(c4cccnc4)CC3)s2)cc1

$$$$
