
     RDKit          3D

 40 44  0  0  0  0  0  0  0  0999 V2000
    4.9093    1.7702   17.0073 H   0  0  0  0  0  0  0  0  0  0  0  0
    5.4051    1.2878   17.8488 C   0  0  0  0  0  0  0  0  0  0  0  0
    6.5744    0.6749   17.5947 N   0  0  0  0  0  0  0  0  0  0  0  0
    7.1850    0.0550   18.6125 C   0  0  0  0  0  0  0  0  0  0  0  0
    8.1322   -0.4370   18.3825 H   0  0  0  0  0  0  0  0  0  0  0  0
    6.6541    0.0113   19.9090 C   0  0  0  0  0  0  0  0  0  0  0  0
    7.3619   -0.6898   20.9686 C   0  0  0  0  0  0  0  0  0  0  0  0
    8.5539   -1.3153   20.7679 N   0  0  0  0  0  0  0  0  0  0  0  0
    8.7956   -1.7952   21.9674 C   0  0  0  0  0  0  0  0  0  0  0  0
    9.9966   -2.7967   22.7288 S   0  0  0  0  0  0  0  0  0  0  0  0
    9.0845   -2.7474   24.2144 C   0  0  0  0  0  0  0  0  0  0  0  0
    9.4576   -3.2657   25.0842 H   0  0  0  0  0  0  0  0  0  0  0  0
    7.9561   -2.0108   24.1271 C   0  0  0  0  0  0  0  0  0  0  0  0
    6.9565   -1.7725   25.1904 C   0  0  0  0  0  0  0  0  0  0  0  0
    6.7591   -2.7600   26.1735 C   0  0  0  0  0  0  0  0  0  0  0  0
    7.3188   -3.6898   26.1398 H   0  0  0  0  0  0  0  0  0  0  0  0
    5.8261   -2.5665   27.1891 C   0  0  0  0  0  0  0  0  0  0  0  0
    5.6776   -3.3331   27.9421 H   0  0  0  0  0  0  0  0  0  0  0  0
    5.0822   -1.3888   27.2432 C   0  0  0  0  0  0  0  0  0  0  0  0
    4.3436   -1.2578   28.0299 H   0  0  0  0  0  0  0  0  0  0  0  0
    5.2644   -0.3831   26.2752 C   0  0  0  0  0  0  0  0  0  0  0  0
    4.4662    0.8733   26.3247 C   0  0  0  0  0  0  0  0  0  0  0  0
    3.9594    1.4511   25.1447 C   0  0  0  0  0  0  0  0  0  0  0  0
    4.1459    0.9646   24.1900 H   0  0  0  0  0  0  0  0  0  0  0  0
    3.2103    2.6280   25.1904 C   0  0  0  0  0  0  0  0  0  0  0  0
    2.8278    3.0633   24.2719 H   0  0  0  0  0  0  0  0  0  0  0  0
    2.9611    3.2507   26.4169 C   0  0  0  0  0  0  0  0  0  0  0  0
    2.3820    4.1673   26.4532 H   0  0  0  0  0  0  0  0  0  0  0  0
    3.4595    2.6912   27.5973 C   0  0  0  0  0  0  0  0  0  0  0  0
    3.2660    3.1710   28.5522 H   0  0  0  0  0  0  0  0  0  0  0  0
    4.2032    1.5112   27.5519 C   0  0  0  0  0  0  0  0  0  0  0  0
    4.5987    1.0928   28.4755 H   0  0  0  0  0  0  0  0  0  0  0  0
    6.2104   -0.5833   25.2595 C   0  0  0  0  0  0  0  0  0  0  0  0
    6.3859    0.1982   24.5245 H   0  0  0  0  0  0  0  0  0  0  0  0
    7.8224   -1.4724   22.8415 N   0  0  0  0  0  0  0  0  0  0  0  0
    6.8627   -0.7543   22.2019 N   0  0  0  0  0  0  0  0  0  0  0  0
    5.4381    0.6542   20.1618 C   0  0  0  0  0  0  0  0  0  0  0  0
    5.0082    0.6280   21.1615 H   0  0  0  0  0  0  0  0  0  0  0  0
    4.8055    1.3105   19.1139 C   0  0  0  0  0  0  0  0  0  0  0  0
    3.8715    1.8455   19.2674 H   0  0  0  0  0  0  0  0  0  0  0  0
  1  2  1  0
  2  3  2  0
  3  4  1  0
  4  5  1  0
  4  6  2  0
  6  7  1  0
  7  8  1  0
  8  9  2  0
  9 10  1  0
 10 11  1  0
 11 12  1  0
 11 13  2  0
 13 14  1  0
 14 15  2  0
 15 16  1  0
 15 17  1  0
 17 18  1  0
 17 19  2  0
 19 20  1  0
 19 21  1  0
 21 22  1  0
 22 23  2  0
 23 24  1  0
 23 25  1  0
 25 26  1  0
 25 27  2  0
 27 28  1  0
 27 29  1  0
 29 30  1  0
 29 31  2  0
 31 32  1  0
 21 33  2  0
 33 34  1  0
 13 35  1  0
 35 36  1  0
  6 37  1  0
 37 38  1  0
 37 39  2  0
 39 40  1  0
 39  2  1  0
 36  7  2  0
 35  9  1  0
 33 14  1  0
 31 22  1  0
M  END
>  <cnnaffinity>  (1) 
-5.72371

>  <filename>  (1) 
c1ccc(-c2cccc(-c3csc4nc(-c5cccnc5)nn34)c2)cc1

$$$$
