
     RDKit          3D

 29 31  0  0  0  0  0  0  0  0999 V2000
    6.3002   -4.8786   22.3131 H   0  0  0  0  0  0  0  0  0  0  0  0
    7.2622   -4.5170   22.6664 C   0  0  0  0  0  0  0  0  0  0  0  0
    7.7129   -3.3957   22.0937 N   0  0  0  0  0  0  0  0  0  0  0  0
    8.9148   -2.9358   22.4827 C   0  0  0  0  0  0  0  0  0  0  0  0
    9.4085   -1.7367   21.8075 C   0  0  0  0  0  0  0  0  0  0  0  0
    8.7060   -0.7704   21.1034 C   0  0  0  0  0  0  0  0  0  0  0  0
    7.3273   -0.6948   20.9424 N   0  0  0  0  0  0  0  0  0  0  0  0
    6.7795   -1.1249   21.6776 H   0  0  0  0  0  0  0  0  0  0  0  0
    6.6680   -0.0088   19.9158 C   0  0  0  0  0  0  0  0  0  0  0  0
    7.1734    0.0601   18.5910 C   0  0  0  0  0  0  0  0  0  0  0  0
    8.1203   -0.4306   18.3722 H   0  0  0  0  0  0  0  0  0  0  0  0
    6.5613    0.6817   17.5724 N   0  0  0  0  0  0  0  0  0  0  0  0
    5.3968    1.2965   17.8389 C   0  0  0  0  0  0  0  0  0  0  0  0
    4.9117    1.7843   16.9966 H   0  0  0  0  0  0  0  0  0  0  0  0
    4.8127    1.3051   19.1109 C   0  0  0  0  0  0  0  0  0  0  0  0
    3.8812    1.8375   19.2657 H   0  0  0  0  0  0  0  0  0  0  0  0
    5.4457    0.6331   20.1653 C   0  0  0  0  0  0  0  0  0  0  0  0
    5.0195    0.6225   21.1690 H   0  0  0  0  0  0  0  0  0  0  0  0
    9.6894    0.1461   20.6739 C   0  0  0  0  0  0  0  0  0  0  0  0
    9.5195    1.0343   20.0890 H   0  0  0  0  0  0  0  0  0  0  0  0
   10.9001   -0.1968   21.0852 N   0  0  0  0  0  0  0  0  0  0  0  0
   10.7138   -1.3276   21.7703 N   0  0  0  0  0  0  0  0  0  0  0  0
   11.5420   -1.7640   22.1493 H   0  0  0  0  0  0  0  0  0  0  0  0
    9.6681   -3.5609   23.4975 C   0  0  0  0  0  0  0  0  0  0  0  0
   10.6165   -3.1417   23.8129 H   0  0  0  0  0  0  0  0  0  0  0  0
    9.1715   -4.7093   24.1072 C   0  0  0  0  0  0  0  0  0  0  0  0
    9.7349   -5.2073   24.8978 H   0  0  0  0  0  0  0  0  0  0  0  0
    7.9412   -5.2036   23.6750 C   0  0  0  0  0  0  0  0  0  0  0  0
    7.5058   -6.0887   24.1190 H   0  0  0  0  0  0  0  0  0  0  0  0
  1  2  1  0
  2  3  2  0
  3  4  1  0
  4  5  1  0
  5  6  2  0
  6  7  1  0
  7  8  1  0
  7  9  1  0
  9 10  2  0
 10 11  1  0
 10 12  1  0
 12 13  2  0
 13 14  1  0
 13 15  1  0
 15 16  1  0
 15 17  2  0
 17 18  1  0
  6 19  1  0
 19 20  1  0
 19 21  2  0
 21 22  1  0
 22 23  1  0
  4 24  2  0
 24 25  1  0
 24 26  1  0
 26 27  1  0
 26 28  2  0
 28 29  1  0
 28  2  1  0
 22  5  1  0
 17  9  1  0
M  END
>  <cnnaffinity>  (1) 
-5.609

>  <filename>  (1) 
c1ccc(-c2[nH]ncc2Nc2cccnc2)nc1

$$$$
