
     RDKit          3D

 41 43  0  0  0  0  0  0  0  0999 V2000
    4.9158    1.8494   16.9922 H   0  0  0  0  0  0  0  0  0  0  0  0
    5.4053    1.3314   17.8132 C   0  0  0  0  0  0  0  0  0  0  0  0
    6.5663    0.7188   17.5311 N   0  0  0  0  0  0  0  0  0  0  0  0
    7.1946    0.0808   18.5289 C   0  0  0  0  0  0  0  0  0  0  0  0
    8.1373   -0.4064   18.2717 H   0  0  0  0  0  0  0  0  0  0  0  0
    6.7020   -0.0078   19.8599 C   0  0  0  0  0  0  0  0  0  0  0  0
    7.4003   -0.7371   20.8635 N   0  0  0  0  0  0  0  0  0  0  0  0
    6.6656   -1.5915   21.8044 C   0  0  0  0  0  0  0  0  0  0  0  0
    6.3949   -1.0512   22.7328 H   0  0  0  0  0  0  0  0  0  0  0  0
    5.7260   -1.9179   21.3417 H   0  0  0  0  0  0  0  0  0  0  0  0
    7.5180   -2.8150   22.1651 C   0  0  0  0  0  0  0  0  0  0  0  0
    6.9742   -3.4520   22.8717 H   0  0  0  0  0  0  0  0  0  0  0  0
    7.6804   -3.4110   21.2573 H   0  0  0  0  0  0  0  0  0  0  0  0
    8.8731   -2.3857   22.7367 C   0  0  0  0  0  0  0  0  0  0  0  0
    9.5078   -3.2589   22.9279 H   0  0  0  0  0  0  0  0  0  0  0  0
    8.7377   -1.8947   23.7126 H   0  0  0  0  0  0  0  0  0  0  0  0
    9.5761   -1.4397   21.7542 C   0  0  0  0  0  0  0  0  0  0  0  0
    9.8147   -1.9956   20.8390 H   0  0  0  0  0  0  0  0  0  0  0  0
   10.5250   -1.0822   22.1675 H   0  0  0  0  0  0  0  0  0  0  0  0
    8.7089   -0.2337   21.3457 C   0  0  2  0  0  0  0  0  0  0  0  0
    9.1967    0.2573   20.4937 H   0  0  0  0  0  0  0  0  0  0  0  0
    8.5868    0.8496   22.4534 C   0  0  0  0  0  0  0  0  0  0  0  0
    7.8640    1.6016   22.1007 H   0  0  0  0  0  0  0  0  0  0  0  0
    8.1413    0.3992   23.3509 H   0  0  0  0  0  0  0  0  0  0  0  0
    9.8625    1.4645   22.8077 N   0  0  0  0  0  0  0  0  0  0  0  0
   10.5975    1.4059   22.1134 H   0  0  0  0  0  0  0  0  0  0  0  0
    9.9502    2.5891   23.6152 C   0  0  0  0  0  0  0  0  0  0  0  0
    8.8753    3.0426   24.4057 C   0  0  0  0  0  0  0  0  0  0  0  0
    7.9472    2.4786   24.3987 H   0  0  0  0  0  0  0  0  0  0  0  0
    9.0056    4.1940   25.1924 C   0  0  0  0  0  0  0  0  0  0  0  0
    8.1716    4.5085   25.8192 H   0  0  0  0  0  0  0  0  0  0  0  0
   10.1975    4.9293   25.1808 C   0  0  0  0  0  0  0  0  0  0  0  0
   10.2818    5.8549   25.7429 H   0  0  0  0  0  0  0  0  0  0  0  0
   11.2816    4.4620   24.4229 C   0  0  0  0  0  0  0  0  0  0  0  0
   12.2187    5.0163   24.4074 H   0  0  0  0  0  0  0  0  0  0  0  0
   11.1699    3.2913   23.6717 C   0  0  0  0  0  0  0  0  0  0  0  0
   12.0198    2.8916   23.1233 H   0  0  0  0  0  0  0  0  0  0  0  0
    5.4778    0.6370   20.1176 C   0  0  0  0  0  0  0  0  0  0  0  0
    5.0730    0.6145   21.1290 H   0  0  0  0  0  0  0  0  0  0  0  0
    4.8232    1.3161   19.0845 C   0  0  0  0  0  0  0  0  0  0  0  0
    3.8824    1.8316   19.2547 H   0  0  0  0  0  0  0  0  0  0  0  0
  1  2  1  0
  2  3  2  0
  3  4  1  0
  4  5  1  0
  4  6  2  0
  6  7  1  0
  7  8  1  0
  8  9  1  0
  8 10  1  0
  8 11  1  0
 11 12  1  0
 11 13  1  0
 11 14  1  0
 14 15  1  0
 14 16  1  0
 14 17  1  0
 17 18  1  0
 17 19  1  0
 17 20  1  0
 20 21  1  6
 20 22  1  0
 22 23  1  0
 22 24  1  0
 22 25  1  0
 25 26  1  0
 25 27  1  0
 27 28  2  0
 28 29  1  0
 28 30  1  0
 30 31  1  0
 30 32  2  0
 32 33  1  0
 32 34  1  0
 34 35  1  0
 34 36  2  0
 36 37  1  0
  6 38  1  0
 38 39  1  0
 38 40  2  0
 40 41  1  0
 40  2  1  0
 20  7  1  0
 36 27  1  0
M  END
>  <cnnaffinity>  (1) 
-5.22598

>  <filename>  (1) 
c1ccc(NC[C@H]2CCCCN2c2cccnc2)cc1

$$$$
