
     RDKit          3D

 34 36  0  0  0  0  0  0  0  0999 V2000
    8.0280   -4.4532   26.4231 H   0  0  0  0  0  0  0  0  0  0  0  0
    8.7362   -4.1543   25.6490 C   0  0  0  0  0  0  0  0  0  0  0  0
    8.2142   -3.5390   24.5830 N   0  0  0  0  0  0  0  0  0  0  0  0
    9.0637   -3.0851   23.6447 C   0  0  0  0  0  0  0  0  0  0  0  0
    8.4960   -2.3549   22.6066 N   0  0  0  0  0  0  0  0  0  0  0  0
    7.1220   -2.6305   22.1495 C   0  0  0  0  0  0  0  0  0  0  0  0
    7.1367   -3.3250   21.2917 H   0  0  0  0  0  0  0  0  0  0  0  0
    6.5548   -3.0952   22.9566 H   0  0  0  0  0  0  0  0  0  0  0  0
    6.4026   -1.3563   21.6728 C   0  0  0  0  0  0  0  0  0  0  0  0
    5.4006   -1.6300   21.3148 H   0  0  0  0  0  0  0  0  0  0  0  0
    6.2776   -0.6540   22.5188 H   0  0  0  0  0  0  0  0  0  0  0  0
    7.1849   -0.7419   20.5907 N   0  0  0  0  0  0  0  0  0  0  0  0
    6.5421    0.0598   19.6163 C   0  0  0  0  0  0  0  0  0  0  0  0
    7.0836    0.2068   18.3103 C   0  0  0  0  0  0  0  0  0  0  0  0
    8.0242   -0.2830   18.0690 H   0  0  0  0  0  0  0  0  0  0  0  0
    6.5134    0.9037   17.3157 N   0  0  0  0  0  0  0  0  0  0  0  0
    5.3508    1.5214   17.5839 C   0  0  0  0  0  0  0  0  0  0  0  0
    4.9061    2.0900   16.7700 H   0  0  0  0  0  0  0  0  0  0  0  0
    4.7284    1.4587   18.8348 C   0  0  0  0  0  0  0  0  0  0  0  0
    3.7944    1.9851   18.9960 H   0  0  0  0  0  0  0  0  0  0  0  0
    5.3267    0.7242   19.8655 C   0  0  0  0  0  0  0  0  0  0  0  0
    4.8792    0.6601   20.8564 H   0  0  0  0  0  0  0  0  0  0  0  0
    8.4920   -0.3231   21.1275 C   0  0  0  0  0  0  0  0  0  0  0  0
    8.3532    0.4110   21.9432 H   0  0  0  0  0  0  0  0  0  0  0  0
    9.0805    0.1786   20.3471 H   0  0  0  0  0  0  0  0  0  0  0  0
    9.2764   -1.5525   21.6469 C   0  0  0  0  0  0  0  0  0  0  0  0
   10.1875   -1.1794   22.1228 H   0  0  0  0  0  0  0  0  0  0  0  0
    9.5707   -2.1507   20.7673 H   0  0  0  0  0  0  0  0  0  0  0  0
   10.4563   -3.3397   23.7065 C   0  0  0  0  0  0  0  0  0  0  0  0
   11.1098   -2.9873   22.9190 H   0  0  0  0  0  0  0  0  0  0  0  0
   10.9588   -4.0727   24.7761 C   0  0  0  0  0  0  0  0  0  0  0  0
   11.9996   -4.3882   24.7707 H   0  0  0  0  0  0  0  0  0  0  0  0
   10.0902   -4.4439   25.8103 C   0  0  0  0  0  0  0  0  0  0  0  0
   10.4327   -4.9679   26.6975 H   0  0  0  0  0  0  0  0  0  0  0  0
  1  2  1  0
  2  3  2  0
  3  4  1  0
  4  5  1  0
  5  6  1  0
  6  7  1  0
  6  8  1  0
  6  9  1  0
  9 10  1  0
  9 11  1  0
  9 12  1  0
 12 13  1  0
 13 14  2  0
 14 15  1  0
 14 16  1  0
 16 17  2  0
 17 18  1  0
 17 19  1  0
 19 20  1  0
 19 21  2  0
 21 22  1  0
 12 23  1  0
 23 24  1  0
 23 25  1  0
 23 26  1  0
 26 27  1  0
 26 28  1  0
  4 29  2  0
 29 30  1  0
 29 31  1  0
 31 32  1  0
 31 33  2  0
 33 34  1  0
 33  2  1  0
 26  5  1  0
 21 13  1  0
M  END
>  <cnnaffinity>  (1) 
-4.92482

>  <filename>  (1) 
c1ccc(N2CCN(c3cccnc3)CC2)nc1

$$$$
