
     RDKit          3D

 30 32  0  0  0  0  0  0  0  0999 V2000
    4.9423    1.7871   16.9093 H   0  0  0  0  0  0  0  0  0  0  0  0
    5.3947    1.3465   17.7981 C   0  0  0  0  0  0  0  0  0  0  0  0
    6.5802    0.7426   17.6298 N   0  0  0  0  0  0  0  0  0  0  0  0
    7.1377    0.1693   18.7034 C   0  0  0  0  0  0  0  0  0  0  0  0
    8.0889   -0.3303   18.5293 H   0  0  0  0  0  0  0  0  0  0  0  0
    6.5739    0.1616   20.0003 C   0  0  0  0  0  0  0  0  0  0  0  0
    7.2331   -0.5313   21.1501 C   0  0  0  0  0  0  0  0  0  0  0  0
    7.6932   -1.8705   21.0495 C   0  0  0  0  0  0  0  0  0  0  0  0
    7.4508   -2.4743   20.1867 H   0  0  0  0  0  0  0  0  0  0  0  0
    8.3753   -2.4845   22.0103 N   0  0  0  0  0  0  0  0  0  0  0  0
    8.6298   -1.8550   23.1740 N   0  0  0  0  0  0  0  0  0  0  0  0
    8.1071   -0.6532   23.3883 C   0  0  0  0  0  0  0  0  0  0  0  0
    8.4130    0.0365   25.0045 S   0  0  0  0  0  0  0  0  0  0  0  0
    9.9638    0.8105   24.5870 C   0  0  0  0  0  0  0  0  0  0  0  0
    9.9316    2.0982   24.0400 C   0  0  0  0  0  0  0  0  0  0  0  0
    8.9705    2.5934   23.9260 H   0  0  0  0  0  0  0  0  0  0  0  0
   11.1126    2.7202   23.6366 C   0  0  0  0  0  0  0  0  0  0  0  0
   11.0677    3.7069   23.1865 H   0  0  0  0  0  0  0  0  0  0  0  0
   12.3346    2.0545   23.7865 C   0  0  0  0  0  0  0  0  0  0  0  0
   13.2530    2.5376   23.4679 H   0  0  0  0  0  0  0  0  0  0  0  0
   12.3665    0.7532   24.3037 C   0  0  0  0  0  0  0  0  0  0  0  0
   13.3142    0.2313   24.3959 H   0  0  0  0  0  0  0  0  0  0  0  0
   11.1784    0.1156   24.6826 C   0  0  0  0  0  0  0  0  0  0  0  0
   11.1759   -0.9155   25.0295 H   0  0  0  0  0  0  0  0  0  0  0  0
    7.4072    0.0680   22.3909 C   0  0  0  0  0  0  0  0  0  0  0  0
    7.0174    1.0543   22.6092 H   0  0  0  0  0  0  0  0  0  0  0  0
    5.3489    0.8232   20.1505 C   0  0  0  0  0  0  0  0  0  0  0  0
    4.8709    0.8593   21.1294 H   0  0  0  0  0  0  0  0  0  0  0  0
    4.7427    1.4027   19.0334 C   0  0  0  0  0  0  0  0  0  0  0  0
    3.7791    1.8912   19.1003 H   0  0  0  0  0  0  0  0  0  0  0  0
  1  2  1  0
  2  3  2  0
  3  4  1  0
  4  5  1  0
  4  6  2  0
  6  7  1  0
  7  8  2  0
  8  9  1  0
  8 10  1  0
 10 11  2  0
 11 12  1  0
 12 13  1  0
 13 14  1  0
 14 15  2  0
 15 16  1  0
 15 17  1  0
 17 18  1  0
 17 19  2  0
 19 20  1  0
 19 21  1  0
 21 22  1  0
 21 23  2  0
 23 24  1  0
 12 25  2  0
 25 26  1  0
  6 27  1  0
 27 28  1  0
 27 29  2  0
 29 30  1  0
 29  2  1  0
 25  7  1  0
 23 14  1  0
M  END
>  <cnnaffinity>  (1) 
-5.35698

>  <filename>  (1) 
c1ccc(Sc2cc(-c3cccnc3)cnn2)cc1

$$$$
