
     RDKit          3D

 36 39  0  0  0  0  0  0  0  0999 V2000
    5.1353    1.7888   17.0031 H   0  0  0  0  0  0  0  0  0  0  0  0
    5.4881    1.2456   17.8771 C   0  0  0  0  0  0  0  0  0  0  0  0
    6.6223    0.5447   17.7212 N   0  0  0  0  0  0  0  0  0  0  0  0
    7.0831   -0.1077   18.7908 C   0  0  0  0  0  0  0  0  0  0  0  0
    8.0122   -0.6601   18.6488 H   0  0  0  0  0  0  0  0  0  0  0  0
    6.4568   -0.1160   20.0465 C   0  0  0  0  0  0  0  0  0  0  0  0
    7.1456   -0.8258   21.1403 C   0  0  0  0  0  0  0  0  0  0  0  0
    6.5134   -1.5418   22.0714 N   0  0  0  0  0  0  0  0  0  0  0  0
    7.5097   -2.0166   22.8398 N   0  0  0  0  0  0  0  0  0  0  0  0
    8.7316   -1.6216   22.4608 C   0  0  0  0  0  0  0  0  0  0  0  0
    8.5639   -0.8230   21.3589 C   0  0  0  0  0  0  0  0  0  0  0  0
    9.8403    0.2099   20.7308 S   0  0  0  0  0  0  0  0  0  0  0  0
    9.5838    1.7220   21.6686 C   0  0  0  0  0  0  0  0  0  0  0  0
    8.4976    2.5464   21.3568 C   0  0  0  0  0  0  0  0  0  0  0  0
    7.8059    2.2248   20.5820 H   0  0  0  0  0  0  0  0  0  0  0  0
    8.3044    3.7505   22.0377 C   0  0  0  0  0  0  0  0  0  0  0  0
    7.4857    4.4005   21.7397 H   0  0  0  0  0  0  0  0  0  0  0  0
    9.1895    4.1291   23.0576 C   0  0  0  0  0  0  0  0  0  0  0  0
    9.0484    5.0704   23.5823 H   0  0  0  0  0  0  0  0  0  0  0  0
   10.2558    3.2885   23.3941 C   0  0  0  0  0  0  0  0  0  0  0  0
   10.9405    3.5683   24.1917 H   0  0  0  0  0  0  0  0  0  0  0  0
   10.4599    2.0911   22.7004 C   0  0  0  0  0  0  0  0  0  0  0  0
   11.2854    1.4384   22.9744 H   0  0  0  0  0  0  0  0  0  0  0  0
    9.7696   -1.8986   23.4931 C   0  0  0  0  0  0  0  0  0  0  0  0
   10.2236   -0.9530   23.8088 H   0  0  0  0  0  0  0  0  0  0  0  0
   10.5789   -2.5276   23.1104 H   0  0  0  0  0  0  0  0  0  0  0  0
    8.9543   -2.5782   24.6200 C   0  0  0  0  0  0  0  0  0  0  0  0
    9.1079   -2.0692   25.5704 H   0  0  0  0  0  0  0  0  0  0  0  0
    9.2762   -3.6108   24.7458 H   0  0  0  0  0  0  0  0  0  0  0  0
    7.4552   -2.5210   24.2001 C   0  0  0  0  0  0  0  0  0  0  0  0
    6.9838   -3.5026   24.2368 H   0  0  0  0  0  0  0  0  0  0  0  0
    6.8916   -1.8180   24.8190 H   0  0  0  0  0  0  0  0  0  0  0  0
    5.2456    0.5870   20.1809 C   0  0  0  0  0  0  0  0  0  0  0  0
    4.6879    0.5712   21.1188 H   0  0  0  0  0  0  0  0  0  0  0  0
    4.7692    1.2905   19.0742 C   0  0  0  0  0  0  0  0  0  0  0  0
    3.8559    1.8752   19.1270 H   0  0  0  0  0  0  0  0  0  0  0  0
  1  2  1  0
  2  3  2  0
  3  4  1  0
  4  5  1  0
  4  6  2  0
  6  7  1  0
  7  8  2  0
  8  9  1  0
  9 10  1  0
 10 11  2  0
 11 12  1  0
 12 13  1  0
 13 14  2  0
 14 15  1  0
 14 16  1  0
 16 17  1  0
 16 18  2  0
 18 19  1  0
 18 20  1  0
 20 21  1  0
 20 22  2  0
 22 23  1  0
 10 24  1  0
 24 25  1  0
 24 26  1  0
 24 27  1  0
 27 28  1  0
 27 29  1  0
 27 30  1  0
 30 31  1  0
 30 32  1  0
  6 33  1  0
 33 34  1  0
 33 35  2  0
 35 36  1  0
 35  2  1  0
 11  7  1  0
 22 13  1  0
 30  9  1  0
M  END
>  <cnnaffinity>  (1) 
-5.85495

>  <filename>  (1) 
c1ccc(Sc2c(-c3cccnc3)nn3c2CCC3)cc1

$$$$
