
     RDKit          3D

 35 37  0  0  0  0  0  0  0  0999 V2000
    4.9714    1.8135   16.9871 H   0  0  0  0  0  0  0  0  0  0  0  0
    5.4279    1.2868   17.8215 C   0  0  0  0  0  0  0  0  0  0  0  0
    6.5819    0.6553   17.5631 N   0  0  0  0  0  0  0  0  0  0  0  0
    7.1868    0.0343   18.5795 C   0  0  0  0  0  0  0  0  0  0  0  0
    8.1342   -0.4516   18.3520 H   0  0  0  0  0  0  0  0  0  0  0  0
    6.6634    0.0081   19.8795 C   0  0  0  0  0  0  0  0  0  0  0  0
    7.4143   -0.6781   20.9260 C   0  0  0  0  0  0  0  0  0  0  0  0
    8.5285   -1.3336   20.7222 N   0  0  0  0  0  0  0  0  0  0  0  0
    8.8384   -1.8285   21.9792 O   0  0  0  0  0  0  0  0  0  0  0  0
    7.8841   -1.4103   22.8102 C   0  0  0  0  0  0  0  0  0  0  0  0
    7.9071   -1.8463   24.2315 C   0  0  0  0  0  0  0  0  0  0  0  0
    7.6177   -0.9830   24.8379 H   0  0  0  0  0  0  0  0  0  0  0  0
    8.9347   -2.1068   24.4917 H   0  0  0  0  0  0  0  0  0  0  0  0
    6.9382   -3.0125   24.5167 C   0  0  0  0  0  0  0  0  0  0  0  0
    5.9251   -2.7233   24.2118 H   0  0  0  0  0  0  0  0  0  0  0  0
    6.8895   -3.1877   25.5985 H   0  0  0  0  0  0  0  0  0  0  0  0
    7.2935   -4.3365   23.8264 C   0  0  0  0  0  0  0  0  0  0  0  0
    8.2837   -4.6698   24.1598 H   0  0  0  0  0  0  0  0  0  0  0  0
    7.3702   -4.1948   22.7423 H   0  0  0  0  0  0  0  0  0  0  0  0
    6.2798   -5.4077   24.1523 C   0  0  0  0  0  0  0  0  0  0  0  0
    6.3594   -6.0822   25.3839 C   0  0  0  0  0  0  0  0  0  0  0  0
    7.1853   -5.8584   26.0575 H   0  0  0  0  0  0  0  0  0  0  0  0
    5.4057   -7.0426   25.7380 C   0  0  0  0  0  0  0  0  0  0  0  0
    5.4467   -7.5233   26.7133 H   0  0  0  0  0  0  0  0  0  0  0  0
    4.3866   -7.3725   24.8369 C   0  0  0  0  0  0  0  0  0  0  0  0
    3.6915   -8.1742   25.0767 H   0  0  0  0  0  0  0  0  0  0  0  0
    4.2646   -6.6667   23.6345 C   0  0  0  0  0  0  0  0  0  0  0  0
    3.4822   -6.9310   22.9283 H   0  0  0  0  0  0  0  0  0  0  0  0
    5.1951   -5.6758   23.3007 C   0  0  0  0  0  0  0  0  0  0  0  0
    5.0948   -5.1462   22.3533 H   0  0  0  0  0  0  0  0  0  0  0  0
    6.9756   -0.6937   22.2264 N   0  0  0  0  0  0  0  0  0  0  0  0
    5.4422    0.6534   20.1343 C   0  0  0  0  0  0  0  0  0  0  0  0
    5.0171    0.6572   21.1417 H   0  0  0  0  0  0  0  0  0  0  0  0
    4.8120    1.3013   19.0776 C   0  0  0  0  0  0  0  0  0  0  0  0
    3.8749    1.8336   19.2206 H   0  0  0  0  0  0  0  0  0  0  0  0
  1  2  1  0
  2  3  2  0
  3  4  1  0
  4  5  1  0
  4  6  2  0
  6  7  1  0
  7  8  2  0
  8  9  1  0
  9 10  1  0
 10 11  1  0
 11 12  1  0
 11 13  1  0
 11 14  1  0
 14 15  1  0
 14 16  1  0
 14 17  1  0
 17 18  1  0
 17 19  1  0
 17 20  1  0
 20 21  2  0
 21 22  1  0
 21 23  1  0
 23 24  1  0
 23 25  2  0
 25 26  1  0
 25 27  1  0
 27 28  1  0
 27 29  2  0
 29 30  1  0
 10 31  2  0
  6 32  1  0
 32 33  1  0
 32 34  2  0
 34 35  1  0
 34  2  1  0
 31  7  1  0
 29 20  1  0
M  END
>  <cnnaffinity>  (1) 
-5.28775

>  <filename>  (1) 
c1ccc(CCCc2nc(-c3cccnc3)no2)cc1

$$$$
