
     RDKit          3D

 38 41  0  0  0  0  0  0  0  0999 V2000
    4.9539    1.8470   16.9506 H   0  0  0  0  0  0  0  0  0  0  0  0
    5.3849    1.3135   17.7920 C   0  0  0  0  0  0  0  0  0  0  0  0
    6.5396    0.6671   17.5711 N   0  0  0  0  0  0  0  0  0  0  0  0
    7.1013    0.0384   18.6138 C   0  0  0  0  0  0  0  0  0  0  0  0
    8.0443   -0.4627   18.3886 H   0  0  0  0  0  0  0  0  0  0  0  0
    6.5387   -0.0085   19.9108 C   0  0  0  0  0  0  0  0  0  0  0  0
    7.2856   -0.6281   21.0242 C   0  0  0  0  0  0  0  0  0  0  0  0
    8.6364   -0.5811   21.2537 C   0  0  0  0  0  0  0  0  0  0  0  0
    8.8334   -1.0920   22.5405 C   0  0  0  0  0  0  0  0  0  0  0  0
    7.7250   -1.5494   23.0825 N   0  0  0  0  0  0  0  0  0  0  0  0
    6.7773   -1.2286   22.1502 N   0  0  0  0  0  0  0  0  0  0  0  0
    5.8101   -1.3633   22.4060 H   0  0  0  0  0  0  0  0  0  0  0  0
   10.2485   -0.8583   22.9956 C   0  0  0  0  0  0  0  0  0  0  0  0
   10.3544   -0.5732   24.0466 H   0  0  0  0  0  0  0  0  0  0  0  0
   10.8240   -1.7768   22.8507 H   0  0  0  0  0  0  0  0  0  0  0  0
   10.7101    0.2642   22.0150 C   0  0  2  0  0  0  0  0  0  0  0  0
   11.7795    0.1705   21.8077 H   0  0  0  0  0  0  0  0  0  0  0  0
   10.4716    1.6933   22.5789 C   0  0  0  0  0  0  0  0  0  0  0  0
   10.9248    2.4076   21.8778 H   0  0  0  0  0  0  0  0  0  0  0  0
   11.0231    1.7909   23.5244 H   0  0  0  0  0  0  0  0  0  0  0  0
    9.0180    2.0725   22.7947 C   0  0  0  0  0  0  0  0  0  0  0  0
    8.3495    1.7317   23.9814 C   0  0  0  0  0  0  0  0  0  0  0  0
    8.8792    1.1964   24.7687 H   0  0  0  0  0  0  0  0  0  0  0  0
    7.0017    2.0510   24.1673 C   0  0  0  0  0  0  0  0  0  0  0  0
    6.5016    1.7794   25.0946 H   0  0  0  0  0  0  0  0  0  0  0  0
    6.2994    2.7331   23.1705 C   0  0  0  0  0  0  0  0  0  0  0  0
    5.2573    3.0034   23.3232 H   0  0  0  0  0  0  0  0  0  0  0  0
    6.9497    3.0883   21.9843 C   0  0  0  0  0  0  0  0  0  0  0  0
    6.4089    3.6337   21.2116 H   0  0  0  0  0  0  0  0  0  0  0  0
    8.2956    2.7581   21.8031 C   0  0  0  0  0  0  0  0  0  0  0  0
    8.7945    3.0594   20.8822 H   0  0  0  0  0  0  0  0  0  0  0  0
    9.8918    0.0153   20.7231 C   0  0  0  0  0  0  0  0  0  0  0  0
   10.4180   -0.7077   20.1000 H   0  0  0  0  0  0  0  0  0  0  0  0
    9.7533    0.9216   20.1212 H   0  0  0  0  0  0  0  0  0  0  0  0
    5.3150    0.6572   20.0990 C   0  0  0  0  0  0  0  0  0  0  0  0
    4.8537    0.6741   21.0863 H   0  0  0  0  0  0  0  0  0  0  0  0
    4.7317    1.3318   19.0310 C   0  0  0  0  0  0  0  0  0  0  0  0
    3.8123    1.8966   19.1560 H   0  0  0  0  0  0  0  0  0  0  0  0
  1  2  1  0
  2  3  2  0
  3  4  1  0
  4  5  1  0
  4  6  2  0
  6  7  1  0
  7  8  2  0
  8  9  1  0
  9 10  2  0
 10 11  1  0
 11 12  1  0
  9 13  1  0
 13 14  1  0
 13 15  1  0
 13 16  1  0
 16 17  1  6
 16 18  1  0
 18 19  1  0
 18 20  1  0
 18 21  1  0
 21 22  2  0
 22 23  1  0
 22 24  1  0
 24 25  1  0
 24 26  2  0
 26 27  1  0
 26 28  1  0
 28 29  1  0
 28 30  2  0
 30 31  1  0
 16 32  1  0
 32 33  1  0
 32 34  1  0
  6 35  1  0
 35 36  1  0
 35 37  2  0
 37 38  1  0
 37  2  1  0
 11  7  1  0
 30 21  1  0
 32  8  1  0
M  END
>  <cnnaffinity>  (1) 
-5.677

>  <filename>  (1) 
c1ccc(C[C@H]2Cc3n[nH]c(-c4cccnc4)c3C2)cc1

$$$$
