
     RDKit          3D

 39 42  0  0  0  0  0  0  0  0999 V2000
    3.0500    5.8634   26.0599 H   0  0  0  0  0  0  0  0  0  0  0  0
    4.0375    5.8289   25.6010 C   0  0  0  0  0  0  0  0  0  0  0  0
    4.3825    4.6621   25.0439 N   0  0  0  0  0  0  0  0  0  0  0  0
    5.5825    4.6026   24.4487 C   0  0  0  0  0  0  0  0  0  0  0  0
    5.9684    3.3982   23.8624 N   0  0  0  0  0  0  0  0  0  0  0  0
    6.4884    3.3227   22.4891 C   0  0  0  0  0  0  0  0  0  0  0  0
    5.6860    3.1317   21.7567 H   0  0  0  0  0  0  0  0  0  0  0  0
    6.9486    4.2699   22.1956 H   0  0  0  0  0  0  0  0  0  0  0  0
    7.5349    2.2046   22.3325 C   0  0  0  0  0  0  0  0  0  0  0  0
    8.4509    2.4889   22.8713 H   0  0  0  0  0  0  0  0  0  0  0  0
    7.8007    2.0915   21.2783 H   0  0  0  0  0  0  0  0  0  0  0  0
    7.0228    0.9164   22.8313 N   0  0  0  0  0  0  0  0  0  0  0  0
    7.4663   -0.2688   22.2928 C   0  0  0  0  0  0  0  0  0  0  0  0
    8.3278   -1.4998   23.1392 S   0  0  0  0  0  0  0  0  0  0  0  0
    8.5517   -2.4190   21.7373 N   0  0  0  0  0  0  0  0  0  0  0  0
    8.0149   -1.8697   20.7215 N   0  0  0  0  0  0  0  0  0  0  0  0
    7.3813   -0.6817   20.9680 C   0  0  0  0  0  0  0  0  0  0  0  0
    6.6543    0.0087   19.8911 C   0  0  0  0  0  0  0  0  0  0  0  0
    7.1714    0.0521   18.5852 C   0  0  0  0  0  0  0  0  0  0  0  0
    8.1211   -0.4345   18.3696 H   0  0  0  0  0  0  0  0  0  0  0  0
    6.5669    0.6819   17.5733 N   0  0  0  0  0  0  0  0  0  0  0  0
    5.4016    1.2954   17.8380 C   0  0  0  0  0  0  0  0  0  0  0  0
    4.9176    1.7828   16.9977 H   0  0  0  0  0  0  0  0  0  0  0  0
    4.8035    1.3146   19.1031 C   0  0  0  0  0  0  0  0  0  0  0  0
    3.8713    1.8448   19.2560 H   0  0  0  0  0  0  0  0  0  0  0  0
    5.4390    0.6592   20.1521 C   0  0  0  0  0  0  0  0  0  0  0  0
    5.0142    0.6312   21.1569 H   0  0  0  0  0  0  0  0  0  0  0  0
    6.4957    0.9825   24.1911 C   0  0  0  0  0  0  0  0  0  0  0  0
    7.3037    1.1363   24.9202 H   0  0  0  0  0  0  0  0  0  0  0  0
    6.0278    0.0217   24.4178 H   0  0  0  0  0  0  0  0  0  0  0  0
    5.4544    2.1103   24.3375 C   0  0  0  0  0  0  0  0  0  0  0  0
    5.1786    2.1915   25.3906 H   0  0  0  0  0  0  0  0  0  0  0  0
    4.5392    1.8210   23.7980 H   0  0  0  0  0  0  0  0  0  0  0  0
    6.4846    5.6913   24.4464 C   0  0  0  0  0  0  0  0  0  0  0  0
    7.4578    5.5489   24.0001 H   0  0  0  0  0  0  0  0  0  0  0  0
    6.1214    6.8794   25.0691 C   0  0  0  0  0  0  0  0  0  0  0  0
    6.8050    7.7301   25.0877 H   0  0  0  0  0  0  0  0  0  0  0  0
    4.8540    6.9559   25.6549 C   0  0  0  0  0  0  0  0  0  0  0  0
    4.5151    7.8602   26.1455 H   0  0  0  0  0  0  0  0  0  0  0  0
  1  2  1  0
  2  3  2  0
  3  4  1  0
  4  5  1  0
  5  6  1  0
  6  7  1  0
  6  8  1  0
  6  9  1  0
  9 10  1  0
  9 11  1  0
  9 12  1  0
 12 13  1  0
 13 14  1  0
 14 15  1  0
 15 16  2  0
 16 17  1  0
 17 18  1  0
 18 19  2  0
 19 20  1  0
 19 21  1  0
 21 22  2  0
 22 23  1  0
 22 24  1  0
 24 25  1  0
 24 26  2  0
 26 27  1  0
 12 28  1  0
 28 29  1  0
 28 30  1  0
 28 31  1  0
 31 32  1  0
 31 33  1  0
  4 34  2  0
 34 35  1  0
 34 36  1  0
 36 37  1  0
 36 38  2  0
 38 39  1  0
 38  2  1  0
 31  5  1  0
 17 13  2  0
 26 18  1  0
M  END
>  <cnnaffinity>  (1) 
-5.16171

>  <filename>  (1) 
c1ccc(N2CCN(c3snnc3-c3cccnc3)CC2)nc1

$$$$
