
     RDKit          3D

 30 32  0  0  0  0  0  0  0  0999 V2000
    5.0508    1.7898   16.9191 H   0  0  0  0  0  0  0  0  0  0  0  0
    5.4774    1.2944   17.7896 C   0  0  0  0  0  0  0  0  0  0  0  0
    6.6677    0.7034   17.6062 N   0  0  0  0  0  0  0  0  0  0  0  0
    7.2195    0.0903   18.6638 C   0  0  0  0  0  0  0  0  0  0  0  0
    8.2082   -0.3446   18.5170 H   0  0  0  0  0  0  0  0  0  0  0  0
    6.6039   -0.0090   19.9334 C   0  0  0  0  0  0  0  0  0  0  0  0
    7.2754   -0.7419   21.0120 C   0  0  0  0  0  0  0  0  0  0  0  0
    8.6213   -1.0443   21.2115 C   0  0  0  0  0  0  0  0  0  0  0  0
    9.6446   -0.6700   20.3977 O   0  0  0  0  0  0  0  0  0  0  0  0
   11.3613   -0.3441   21.2498 S   0  0  0  0  0  0  0  0  0  0  0  0
   11.3552    1.0977   22.1017 C   0  0  0  0  0  0  0  0  0  0  0  0
   10.9843    1.1408   23.4782 C   0  0  0  0  0  0  0  0  0  0  0  0
   10.8074    0.1948   23.9782 H   0  0  0  0  0  0  0  0  0  0  0  0
   10.9270    2.3431   24.1651 C   0  0  0  0  0  0  0  0  0  0  0  0
   10.6283    2.3450   25.2088 H   0  0  0  0  0  0  0  0  0  0  0  0
   11.2648    3.5419   23.5204 C   0  0  0  0  0  0  0  0  0  0  0  0
   11.2454    4.4894   24.0514 H   0  0  0  0  0  0  0  0  0  0  0  0
   11.6390    3.5206   22.1697 C   0  0  0  0  0  0  0  0  0  0  0  0
   11.8523    4.4591   21.6667 H   0  0  0  0  0  0  0  0  0  0  0  0
   11.7098    2.3259   21.4677 C   0  0  0  0  0  0  0  0  0  0  0  0
   12.0331    2.2695   20.4347 H   0  0  0  0  0  0  0  0  0  0  0  0
    8.6786   -1.8102   22.3976 C   0  0  0  0  0  0  0  0  0  0  0  0
    9.5444   -2.2490   22.8739 H   0  0  0  0  0  0  0  0  0  0  0  0
    7.4639   -1.9610   22.9190 N   0  0  0  0  0  0  0  0  0  0  0  0
    6.6460   -1.3118   22.0868 N   0  0  0  0  0  0  0  0  0  0  0  0
    5.6614   -1.2776   22.3121 H   0  0  0  0  0  0  0  0  0  0  0  0
    5.3599    0.6320   20.1002 C   0  0  0  0  0  0  0  0  0  0  0  0
    4.8622    0.6437   21.0714 H   0  0  0  0  0  0  0  0  0  0  0  0
    4.7957    1.2962   19.0124 C   0  0  0  0  0  0  0  0  0  0  0  0
    3.8542    1.8298   19.1040 H   0  0  0  0  0  0  0  0  0  0  0  0
  1  2  1  0
  2  3  2  0
  3  4  1  0
  4  5  1  0
  4  6  2  0
  6  7  1  0
  7  8  2  0
  8  9  1  0
  9 10  1  0
 10 11  1  0
 11 12  2  0
 12 13  1  0
 12 14  1  0
 14 15  1  0
 14 16  2  0
 16 17  1  0
 16 18  1  0
 18 19  1  0
 18 20  2  0
 20 21  1  0
  8 22  1  0
 22 23  1  0
 22 24  2  0
 24 25  1  0
 25 26  1  0
  6 27  1  0
 27 28  1  0
 27 29  2  0
 29 30  1  0
 29  2  1  0
 25  7  1  0
 20 11  1  0
M  END
>  <cnnaffinity>  (1) 
-5.58592

>  <filename>  (1) 
c1ccc(SOc2cn[nH]c2-c2cccnc2)cc1

$$$$
