
     RDKit          3D

 36 38  0  0  0  0  0  0  0  0999 V2000
    4.9520    1.8072   16.9782 H   0  0  0  0  0  0  0  0  0  0  0  0
    5.4045    1.2935   17.8242 C   0  0  0  0  0  0  0  0  0  0  0  0
    6.5601    0.6616   17.5669 N   0  0  0  0  0  0  0  0  0  0  0  0
    7.1529    0.0248   18.5815 C   0  0  0  0  0  0  0  0  0  0  0  0
    8.1034   -0.4528   18.3640 H   0  0  0  0  0  0  0  0  0  0  0  0
    6.6363   -0.0128   19.8859 C   0  0  0  0  0  0  0  0  0  0  0  0
    7.3841   -0.6944   20.9338 C   0  0  0  0  0  0  0  0  0  0  0  0
    8.0073   -1.9160   20.7612 N   0  0  0  0  0  0  0  0  0  0  0  0
    8.4941   -2.2260   21.9305 C   0  0  0  0  0  0  0  0  0  0  0  0
    9.0233   -3.1381   22.1738 H   0  0  0  0  0  0  0  0  0  0  0  0
    8.2538   -1.2523   22.8619 N   0  0  0  0  0  0  0  0  0  0  0  0
    8.5164   -1.1989   23.8307 H   0  0  0  0  0  0  0  0  0  0  0  0
    7.5666   -0.2594   22.2396 C   0  0  0  0  0  0  0  0  0  0  0  0
    7.1949    0.8786   22.9087 N   0  0  0  0  0  0  0  0  0  0  0  0
    6.9763    1.6649   22.3088 H   0  0  0  0  0  0  0  0  0  0  0  0
    7.4369    1.1662   24.3051 C   0  0  0  0  0  0  0  0  0  0  0  0
    6.8795    0.4522   24.9291 H   0  0  0  0  0  0  0  0  0  0  0  0
    8.5026    1.0632   24.5752 H   0  0  0  0  0  0  0  0  0  0  0  0
    6.9770    2.5965   24.6273 C   0  0  0  0  0  0  0  0  0  0  0  0
    5.9270    2.7204   24.3302 H   0  0  0  0  0  0  0  0  0  0  0  0
    6.9971    2.7054   25.7179 H   0  0  0  0  0  0  0  0  0  0  0  0
    7.8298    3.6828   23.9903 C   0  0  0  0  0  0  0  0  0  0  0  0
    9.1137    3.9519   24.4932 C   0  0  0  0  0  0  0  0  0  0  0  0
    9.4579    3.3801   25.3526 H   0  0  0  0  0  0  0  0  0  0  0  0
    9.9363    4.9165   23.9002 C   0  0  0  0  0  0  0  0  0  0  0  0
   10.9327    5.0994   24.2977 H   0  0  0  0  0  0  0  0  0  0  0  0
    9.4849    5.6282   22.7810 C   0  0  0  0  0  0  0  0  0  0  0  0
   10.1270    6.3660   22.3028 H   0  0  0  0  0  0  0  0  0  0  0  0
    8.2093    5.3722   22.2658 C   0  0  0  0  0  0  0  0  0  0  0  0
    7.8549    5.9061   21.3849 H   0  0  0  0  0  0  0  0  0  0  0  0
    7.3911    4.4072   22.8697 C   0  0  0  0  0  0  0  0  0  0  0  0
    6.3974    4.2138   22.4696 H   0  0  0  0  0  0  0  0  0  0  0  0
    5.4211    0.6523   20.1413 C   0  0  0  0  0  0  0  0  0  0  0  0
    4.9916    0.6448   21.1468 H   0  0  0  0  0  0  0  0  0  0  0  0
    4.7945    1.3113   19.0848 C   0  0  0  0  0  0  0  0  0  0  0  0
    3.8640    1.8483   19.2252 H   0  0  0  0  0  0  0  0  0  0  0  0
  1  2  1  0
  2  3  2  0
  3  4  1  0
  4  5  1  0
  4  6  2  0
  6  7  1  0
  7  8  1  0
  8  9  2  0
  9 10  1  0
  9 11  1  0
 11 12  1  0
 11 13  1  0
 13 14  1  0
 14 15  1  0
 14 16  1  0
 16 17  1  0
 16 18  1  0
 16 19  1  0
 19 20  1  0
 19 21  1  0
 19 22  1  0
 22 23  2  0
 23 24  1  0
 23 25  1  0
 25 26  1  0
 25 27  2  0
 27 28  1  0
 27 29  1  0
 29 30  1  0
 29 31  2  0
 31 32  1  0
  6 33  1  0
 33 34  1  0
 33 35  2  0
 35 36  1  0
 35  2  1  0
 13  7  2  0
 31 22  1  0
M  END
>  <cnnaffinity>  (1) 
-4.71985

>  <filename>  (1) 
c1ccc(CCNc2[nH]cnc2-c2cccnc2)cc1

$$$$
