
     RDKit          3D

 37 39  0  0  0  0  0  0  0  0999 V2000
    4.9611    1.8073   16.9708 H   0  0  0  0  0  0  0  0  0  0  0  0
    5.4295    1.2999   17.8125 C   0  0  0  0  0  0  0  0  0  0  0  0
    6.5841    0.6637   17.5606 N   0  0  0  0  0  0  0  0  0  0  0  0
    7.1883    0.0385   18.5796 C   0  0  0  0  0  0  0  0  0  0  0  0
    8.1236   -0.4697   18.3549 H   0  0  0  0  0  0  0  0  0  0  0  0
    6.6820    0.0140   19.8918 C   0  0  0  0  0  0  0  0  0  0  0  0
    7.3768   -0.6451   20.9497 N   0  0  0  0  0  0  0  0  0  0  0  0
    6.8131   -1.6418   21.7254 C   0  0  0  0  0  0  0  0  0  0  0  0
    5.8061   -1.9740   21.5213 H   0  0  0  0  0  0  0  0  0  0  0  0
    7.7113   -2.0201   22.6898 C   0  0  0  0  0  0  0  0  0  0  0  0
    7.5481   -2.7767   23.4503 H   0  0  0  0  0  0  0  0  0  0  0  0
    8.8689   -1.2143   22.5172 C   0  0  0  0  0  0  0  0  0  0  0  0
    9.7719   -1.2168   23.1070 H   0  0  0  0  0  0  0  0  0  0  0  0
    8.6421   -0.3668   21.4524 C   0  0  0  0  0  0  0  0  0  0  0  0
    9.4364    0.6352   20.9162 N   0  0  0  0  0  0  0  0  0  0  0  0
    8.8356    1.3133   20.4574 H   0  0  0  0  0  0  0  0  0  0  0  0
   10.3911    1.3209   21.7852 C   0  0  0  0  0  0  0  0  0  0  0  0
   10.8919    2.0834   21.1754 H   0  0  0  0  0  0  0  0  0  0  0  0
   11.1722    0.6134   22.0917 H   0  0  0  0  0  0  0  0  0  0  0  0
    9.7533    1.9944   23.0223 C   0  0  0  0  0  0  0  0  0  0  0  0
   10.5502    2.4439   23.6265 H   0  0  0  0  0  0  0  0  0  0  0  0
    9.2858    1.2086   23.6295 H   0  0  0  0  0  0  0  0  0  0  0  0
    8.7117    3.0381   22.6576 C   0  0  0  0  0  0  0  0  0  0  0  0
    7.3735    2.6700   22.4341 C   0  0  0  0  0  0  0  0  0  0  0  0
    7.0579    1.6644   22.7073 H   0  0  0  0  0  0  0  0  0  0  0  0
    6.4562    3.5745   21.8873 C   0  0  0  0  0  0  0  0  0  0  0  0
    5.4218    3.2632   21.7275 H   0  0  0  0  0  0  0  0  0  0  0  0
    6.8574    4.8846   21.5964 C   0  0  0  0  0  0  0  0  0  0  0  0
    6.1580    5.5745   21.1262 H   0  0  0  0  0  0  0  0  0  0  0  0
    8.1583    5.2953   21.9073 C   0  0  0  0  0  0  0  0  0  0  0  0
    8.4714    6.3238   21.7265 H   0  0  0  0  0  0  0  0  0  0  0  0
    9.0706    4.3759   22.4431 C   0  0  0  0  0  0  0  0  0  0  0  0
   10.0973    4.6808   22.6330 H   0  0  0  0  0  0  0  0  0  0  0  0
    5.4684    0.6671   20.1373 C   0  0  0  0  0  0  0  0  0  0  0  0
    5.0532    0.6735   21.1459 H   0  0  0  0  0  0  0  0  0  0  0  0
    4.8332    1.3192   19.0782 C   0  0  0  0  0  0  0  0  0  0  0  0
    3.8942    1.8422   19.2205 H   0  0  0  0  0  0  0  0  0  0  0  0
  1  2  1  0
  2  3  2  0
  3  4  1  0
  4  5  1  0
  4  6  2  0
  6  7  1  0
  7  8  1  0
  8  9  1  0
  8 10  2  0
 10 11  1  0
 10 12  1  0
 12 13  1  0
 12 14  2  0
 14 15  1  0
 15 16  1  0
 15 17  1  0
 17 18  1  0
 17 19  1  0
 17 20  1  0
 20 21  1  0
 20 22  1  0
 20 23  1  0
 23 24  2  0
 24 25  1  0
 24 26  1  0
 26 27  1  0
 26 28  2  0
 28 29  1  0
 28 30  1  0
 30 31  1  0
 30 32  2  0
 32 33  1  0
  6 34  1  0
 34 35  1  0
 34 36  2  0
 36 37  1  0
 36  2  1  0
 14  7  1  0
 32 23  1  0
M  END
>  <cnnaffinity>  (1) 
-5.06221

>  <filename>  (1) 
c1ccc(CCNc2cccn2-c2cccnc2)cc1

$$$$
