
     RDKit          3D

 39 42  0  0  0  0  0  0  0  0999 V2000
    5.0722    1.7922   16.9050 H   0  0  0  0  0  0  0  0  0  0  0  0
    5.4713    1.3076   17.7919 C   0  0  0  0  0  0  0  0  0  0  0  0
    6.6315    0.6542   17.6270 N   0  0  0  0  0  0  0  0  0  0  0  0
    7.1401    0.0287   18.6951 C   0  0  0  0  0  0  0  0  0  0  0  0
    8.0918   -0.4831   18.5679 H   0  0  0  0  0  0  0  0  0  0  0  0
    6.5114   -0.0128   19.9530 C   0  0  0  0  0  0  0  0  0  0  0  0
    7.0348   -0.8525   21.0449 C   0  0  0  0  0  0  0  0  0  0  0  0
    6.2785   -1.6603   21.8150 C   0  0  0  0  0  0  0  0  0  0  0  0
    5.2324   -1.8920   21.6706 H   0  0  0  0  0  0  0  0  0  0  0  0
    7.1715   -2.4198   23.1009 S   0  0  0  0  0  0  0  0  0  0  0  0
    8.6318   -1.6857   22.5155 C   0  0  0  0  0  0  0  0  0  0  0  0
    9.9194   -1.7038   22.8040 N   0  0  0  0  0  0  0  0  0  0  0  0
   10.4250   -0.8941   21.8320 C   0  0  0  0  0  0  0  0  0  0  0  0
   11.8846   -0.6037   21.6913 C   0  0  0  0  0  0  0  0  0  0  0  0
   12.4402   -1.3701   22.2438 H   0  0  0  0  0  0  0  0  0  0  0  0
   12.1190   -0.7880   20.6420 H   0  0  0  0  0  0  0  0  0  0  0  0
   12.3855    0.7873   22.1685 C   0  0  0  0  0  0  0  0  0  0  0  0
   12.2132    0.8354   23.2497 H   0  0  0  0  0  0  0  0  0  0  0  0
   13.4773    0.8011   22.0512 H   0  0  0  0  0  0  0  0  0  0  0  0
   11.8121    2.0767   21.5259 C   0  0  0  0  0  0  0  0  0  0  0  0
   10.7139    2.0402   21.5065 H   0  0  0  0  0  0  0  0  0  0  0  0
   12.1210    2.1516   20.4776 H   0  0  0  0  0  0  0  0  0  0  0  0
   12.2549    3.3237   22.2894 C   0  0  0  0  0  0  0  0  0  0  0  0
   11.6766    3.5967   23.5406 C   0  0  0  0  0  0  0  0  0  0  0  0
   10.8905    2.9348   23.9000 H   0  0  0  0  0  0  0  0  0  0  0  0
   12.0947    4.6836   24.3137 C   0  0  0  0  0  0  0  0  0  0  0  0
   11.6207    4.8865   25.2671 H   0  0  0  0  0  0  0  0  0  0  0  0
   13.1267    5.5103   23.8632 C   0  0  0  0  0  0  0  0  0  0  0  0
   13.4631    6.3379   24.4824 H   0  0  0  0  0  0  0  0  0  0  0  0
   13.7025    5.2697   22.6131 C   0  0  0  0  0  0  0  0  0  0  0  0
   14.5013    5.9105   22.2482 H   0  0  0  0  0  0  0  0  0  0  0  0
   13.2495    4.2031   21.8247 C   0  0  0  0  0  0  0  0  0  0  0  0
   13.6627    4.0793   20.8282 H   0  0  0  0  0  0  0  0  0  0  0  0
    9.5448   -0.4094   20.9639 N   0  0  0  0  0  0  0  0  0  0  0  0
    8.3778   -0.9265   21.4314 N   0  0  0  0  0  0  0  0  0  0  0  0
    5.3090    0.7035   20.1111 C   0  0  0  0  0  0  0  0  0  0  0  0
    4.8110    0.7529   21.0833 H   0  0  0  0  0  0  0  0  0  0  0  0
    4.7828    1.3737   19.0092 C   0  0  0  0  0  0  0  0  0  0  0  0
    3.8554    1.9330   19.0754 H   0  0  0  0  0  0  0  0  0  0  0  0
  1  2  1  0
  2  3  2  0
  3  4  1  0
  4  5  1  0
  4  6  2  0
  6  7  1  0
  7  8  2  0
  8  9  1  0
  8 10  1  0
 10 11  1  0
 11 12  2  0
 12 13  1  0
 13 14  1  0
 14 15  1  0
 14 16  1  0
 14 17  1  0
 17 18  1  0
 17 19  1  0
 17 20  1  0
 20 21  1  0
 20 22  1  0
 20 23  1  0
 23 24  2  0
 24 25  1  0
 24 26  1  0
 26 27  1  0
 26 28  2  0
 28 29  1  0
 28 30  1  0
 30 31  1  0
 30 32  2  0
 32 33  1  0
 13 34  2  0
 34 35  1  0
  6 36  1  0
 36 37  1  0
 36 38  2  0
 38 39  1  0
 38  2  1  0
 35  7  1  0
 35 11  1  0
 32 23  1  0
M  END
>  <cnnaffinity>  (1) 
-4.95219

>  <filename>  (1) 
c1ccc(CCCc2nc3scc(-c4cccnc4)n3n2)cc1

$$$$
