
     RDKit          3D

 40 43  0  0  0  0  0  0  0  0999 V2000
    5.0577    1.7874   17.0591 H   0  0  0  0  0  0  0  0  0  0  0  0
    5.5338    1.2358   17.8689 C   0  0  0  0  0  0  0  0  0  0  0  0
    6.6838    0.6074   17.5734 N   0  0  0  0  0  0  0  0  0  0  0  0
    7.3167   -0.0476   18.5621 C   0  0  0  0  0  0  0  0  0  0  0  0
    8.2314   -0.5687   18.2799 H   0  0  0  0  0  0  0  0  0  0  0  0
    6.8537   -0.1044   19.9031 C   0  0  0  0  0  0  0  0  0  0  0  0
    7.5381   -0.7680   20.9510 N   0  0  0  0  0  0  0  0  0  0  0  0
    6.9728   -0.9077   21.7828 H   0  0  0  0  0  0  0  0  0  0  0  0
    8.9174   -0.6023   21.2360 C   0  0  0  0  0  0  0  0  0  0  0  0
    9.8015    0.4120   20.7998 C   0  0  0  0  0  0  0  0  0  0  0  0
    9.5403    1.2679   20.2028 H   0  0  0  0  0  0  0  0  0  0  0  0
   11.0442    0.2134   21.2198 N   0  0  0  0  0  0  0  0  0  0  0  0
   10.9678   -0.9037   21.9573 N   0  0  0  0  0  0  0  0  0  0  0  0
   11.8271   -1.3515   22.2490 H   0  0  0  0  0  0  0  0  0  0  0  0
    9.7141   -1.4374   22.0184 C   0  0  0  0  0  0  0  0  0  0  0  0
    9.3717   -2.6136   22.8349 C   0  0  0  0  0  0  0  0  0  0  0  0
   10.0939   -2.9738   23.9884 C   0  0  0  0  0  0  0  0  0  0  0  0
   10.8796   -2.3239   24.3468 H   0  0  0  0  0  0  0  0  0  0  0  0
    9.7548   -4.1089   24.7227 C   0  0  0  0  0  0  0  0  0  0  0  0
   10.3426   -4.3788   25.5984 H   0  0  0  0  0  0  0  0  0  0  0  0
    8.6580   -4.8870   24.3412 C   0  0  0  0  0  0  0  0  0  0  0  0
    8.3921   -5.7685   24.9209 H   0  0  0  0  0  0  0  0  0  0  0  0
    7.8980   -4.5230   23.2161 C   0  0  0  0  0  0  0  0  0  0  0  0
    6.6804   -5.2739   22.8100 C   0  0  0  0  0  0  0  0  0  0  0  0
    5.6648   -5.5670   23.7358 C   0  0  0  0  0  0  0  0  0  0  0  0
    5.7937   -5.2749   24.7740 H   0  0  0  0  0  0  0  0  0  0  0  0
    4.4888   -6.1972   23.3305 C   0  0  0  0  0  0  0  0  0  0  0  0
    3.6968   -6.3818   24.0507 H   0  0  0  0  0  0  0  0  0  0  0  0
    4.3246   -6.5631   21.9911 C   0  0  0  0  0  0  0  0  0  0  0  0
    3.4242   -7.0893   21.6930 H   0  0  0  0  0  0  0  0  0  0  0  0
    5.3255   -6.2792   21.0537 C   0  0  0  0  0  0  0  0  0  0  0  0
    5.2025   -6.5379   20.0049 H   0  0  0  0  0  0  0  0  0  0  0  0
    6.4952   -5.6411   21.4661 C   0  0  0  0  0  0  0  0  0  0  0  0
    7.2723   -5.4037   20.7462 H   0  0  0  0  0  0  0  0  0  0  0  0
    8.2732   -3.3980   22.4696 C   0  0  0  0  0  0  0  0  0  0  0  0
    7.6967   -3.1104   21.5970 H   0  0  0  0  0  0  0  0  0  0  0  0
    5.6211    0.5111   20.1653 C   0  0  0  0  0  0  0  0  0  0  0  0
    5.2008    0.4546   21.1676 H   0  0  0  0  0  0  0  0  0  0  0  0
    4.9573    1.2005   19.1438 C   0  0  0  0  0  0  0  0  0  0  0  0
    4.0200    1.7207   19.3257 H   0  0  0  0  0  0  0  0  0  0  0  0
  1  2  1  0
  2  3  2  0
  3  4  1  0
  4  5  1  0
  4  6  2  0
  6  7  1  0
  7  8  1  0
  7  9  1  0
  9 10  1  0
 10 11  1  0
 10 12  2  0
 12 13  1  0
 13 14  1  0
 13 15  1  0
 15 16  1  0
 16 17  2  0
 17 18  1  0
 17 19  1  0
 19 20  1  0
 19 21  2  0
 21 22  1  0
 21 23  1  0
 23 24  1  0
 24 25  2  0
 25 26  1  0
 25 27  1  0
 27 28  1  0
 27 29  2  0
 29 30  1  0
 29 31  1  0
 31 32  1  0
 31 33  2  0
 33 34  1  0
 23 35  2  0
 35 36  1  0
  6 37  1  0
 37 38  1  0
 37 39  2  0
 39 40  1  0
 39  2  1  0
 15  9  2  0
 35 16  1  0
 33 24  1  0
M  END
>  <cnnaffinity>  (1) 
-5.70398

>  <filename>  (1) 
c1ccc(-c2cccc(-c3[nH]ncc3Nc3cccnc3)c2)cc1

$$$$
