
     RDKit          3D

 37 40  0  0  0  0  0  0  0  0999 V2000
    4.9169    1.7764   16.9995 H   0  0  0  0  0  0  0  0  0  0  0  0
    5.4068    1.2921   17.8396 C   0  0  0  0  0  0  0  0  0  0  0  0
    6.5695    0.6754   17.5775 N   0  0  0  0  0  0  0  0  0  0  0  0
    7.1718    0.0621   18.6014 C   0  0  0  0  0  0  0  0  0  0  0  0
    8.1165   -0.4297   18.3777 H   0  0  0  0  0  0  0  0  0  0  0  0
    6.6478    0.0101   19.8980 C   0  0  0  0  0  0  0  0  0  0  0  0
    7.3762   -0.6731   20.9561 C   0  0  0  0  0  0  0  0  0  0  0  0
    6.7162   -1.5063   21.8279 N   0  0  0  0  0  0  0  0  0  0  0  0
    7.6345   -1.8472   22.6934 C   0  0  0  0  0  0  0  0  0  0  0  0
    7.6837   -2.7384   24.1990 S   0  0  0  0  0  0  0  0  0  0  0  0
    9.3584   -2.2503   24.4236 C   0  0  0  0  0  0  0  0  0  0  0  0
    9.8843   -2.5743   25.3111 H   0  0  0  0  0  0  0  0  0  0  0  0
    9.8181   -1.4883   23.4191 C   0  0  0  0  0  0  0  0  0  0  0  0
   10.7938   -1.0211   23.3146 H   0  0  0  0  0  0  0  0  0  0  0  0
    8.8598   -1.2907   22.4303 N   0  0  0  0  0  0  0  0  0  0  0  0
    8.7137   -0.5219   21.2900 C   0  0  0  0  0  0  0  0  0  0  0  0
    9.6772    0.5279   20.8579 C   0  0  0  0  0  0  0  0  0  0  0  0
   10.6905    0.2543   21.1787 H   0  0  0  0  0  0  0  0  0  0  0  0
    9.6646    0.5526   19.7665 H   0  0  0  0  0  0  0  0  0  0  0  0
    9.3169    1.9352   21.3941 C   0  0  0  0  0  0  0  0  0  0  0  0
    8.3303    2.2120   21.0036 H   0  0  0  0  0  0  0  0  0  0  0  0
   10.0349    2.6599   20.9956 H   0  0  0  0  0  0  0  0  0  0  0  0
    9.3171    1.9763   22.9016 C   0  0  0  0  0  0  0  0  0  0  0  0
    8.1308    1.8022   23.6315 C   0  0  0  0  0  0  0  0  0  0  0  0
    7.1884    1.6877   23.1009 H   0  0  0  0  0  0  0  0  0  0  0  0
    8.1474    1.7602   25.0265 C   0  0  0  0  0  0  0  0  0  0  0  0
    7.2215    1.6352   25.5849 H   0  0  0  0  0  0  0  0  0  0  0  0
    9.3614    1.8880   25.7046 C   0  0  0  0  0  0  0  0  0  0  0  0
    9.3573    1.8591   26.7845 H   0  0  0  0  0  0  0  0  0  0  0  0
   10.5554    2.0394   24.9936 C   0  0  0  0  0  0  0  0  0  0  0  0
   11.5054    2.1185   25.5122 H   0  0  0  0  0  0  0  0  0  0  0  0
   10.5301    2.0787   23.5990 C   0  0  0  0  0  0  0  0  0  0  0  0
   11.4630    2.1905   23.0480 H   0  0  0  0  0  0  0  0  0  0  0  0
    5.4269    0.6502   20.1535 C   0  0  0  0  0  0  0  0  0  0  0  0
    4.9965    0.6227   21.1589 H   0  0  0  0  0  0  0  0  0  0  0  0
    4.8038    1.3140   19.1041 C   0  0  0  0  0  0  0  0  0  0  0  0
    3.8715    1.8453   19.2608 H   0  0  0  0  0  0  0  0  0  0  0  0
  1  2  1  0
  2  3  2  0
  3  4  1  0
  4  5  1  0
  4  6  2  0
  6  7  1  0
  7  8  1  0
  8  9  2  0
  9 10  1  0
 10 11  1  0
 11 12  1  0
 11 13  2  0
 13 14  1  0
 13 15  1  0
 15 16  1  0
 16 17  1  0
 17 18  1  0
 17 19  1  0
 17 20  1  0
 20 21  1  0
 20 22  1  0
 20 23  1  0
 23 24  2  0
 24 25  1  0
 24 26  1  0
 26 27  1  0
 26 28  2  0
 28 29  1  0
 28 30  1  0
 30 31  1  0
 30 32  2  0
 32 33  1  0
  6 34  1  0
 34 35  1  0
 34 36  2  0
 36 37  1  0
 36  2  1  0
 16  7  2  0
 32 23  1  0
 15  9  1  0
M  END
>  <cnnaffinity>  (1) 
-5.65308

>  <filename>  (1) 
c1ccc(CCc2c(-c3cccnc3)nc3sccn23)cc1

$$$$
