
     RDKit          3D

 42 45  0  0  0  0  0  0  0  0999 V2000
    8.5195   -7.5191   28.9464 H   0  0  0  0  0  0  0  0  0  0  0  0
    7.7274   -6.8241   28.6769 C   0  0  0  0  0  0  0  0  0  0  0  0
    7.9980   -5.9926   27.6600 N   0  0  0  0  0  0  0  0  0  0  0  0
    7.0252   -5.1671   27.2745 C   0  0  0  0  0  0  0  0  0  0  0  0
    7.2457   -4.3126   26.1834 N   0  0  0  0  0  0  0  0  0  0  0  0
    6.4538   -4.5332   24.9644 C   0  0  0  0  0  0  0  0  0  0  0  0
    5.4427   -4.8700   25.2079 H   0  0  0  0  0  0  0  0  0  0  0  0
    6.9068   -5.3101   24.3202 H   0  0  0  0  0  0  0  0  0  0  0  0
    6.3643   -3.2539   24.1202 C   0  0  0  0  0  0  0  0  0  0  0  0
    5.8212   -2.4665   24.6758 H   0  0  0  0  0  0  0  0  0  0  0  0
    5.8057   -3.4744   23.2073 H   0  0  0  0  0  0  0  0  0  0  0  0
    7.7129   -2.8081   23.7572 N   0  0  0  0  0  0  0  0  0  0  0  0
    7.8513   -1.9409   22.6663 C   0  0  0  0  0  0  0  0  0  0  0  0
    9.0953   -1.4682   22.1301 C   0  0  0  0  0  0  0  0  0  0  0  0
   10.0738   -1.7098   22.5252 H   0  0  0  0  0  0  0  0  0  0  0  0
    8.8037   -0.7196   21.0219 C   0  0  0  0  0  0  0  0  0  0  0  0
    9.4362   -0.1500   20.3515 H   0  0  0  0  0  0  0  0  0  0  0  0
    7.4326   -0.6972   20.8434 N   0  0  0  0  0  0  0  0  0  0  0  0
    6.7255   -0.0059   19.8246 C   0  0  0  0  0  0  0  0  0  0  0  0
    7.2081   -0.0043   18.5035 C   0  0  0  0  0  0  0  0  0  0  0  0
    8.1078   -0.5630   18.2495 H   0  0  0  0  0  0  0  0  0  0  0  0
    6.6027    0.6307   17.4948 N   0  0  0  0  0  0  0  0  0  0  0  0
    5.4707    1.3011   17.7619 C   0  0  0  0  0  0  0  0  0  0  0  0
    5.0028    1.8073   16.9199 H   0  0  0  0  0  0  0  0  0  0  0  0
    4.8976    1.3472   19.0379 C   0  0  0  0  0  0  0  0  0  0  0  0
    3.9734    1.8944   19.1920 H   0  0  0  0  0  0  0  0  0  0  0  0
    5.5315    0.6844   20.0920 C   0  0  0  0  0  0  0  0  0  0  0  0
    5.1293    0.7164   21.1059 H   0  0  0  0  0  0  0  0  0  0  0  0
    6.8662   -1.4574   21.8451 C   0  0  0  0  0  0  0  0  0  0  0  0
    5.7956   -1.5817   21.9069 H   0  0  0  0  0  0  0  0  0  0  0  0
    8.4984   -2.5502   24.9717 C   0  0  0  0  0  0  0  0  0  0  0  0
    9.5008   -2.2185   24.6882 H   0  0  0  0  0  0  0  0  0  0  0  0
    8.0398   -1.7362   25.5599 H   0  0  0  0  0  0  0  0  0  0  0  0
    8.5899   -3.8251   25.8358 C   0  0  0  0  0  0  0  0  0  0  0  0
    9.1632   -4.5751   25.2674 H   0  0  0  0  0  0  0  0  0  0  0  0
    9.1590   -3.6128   26.7427 H   0  0  0  0  0  0  0  0  0  0  0  0
    5.7707   -5.1070   27.9149 C   0  0  0  0  0  0  0  0  0  0  0  0
    5.0582   -4.3871   27.5388 H   0  0  0  0  0  0  0  0  0  0  0  0
    5.5322   -5.9228   29.0171 C   0  0  0  0  0  0  0  0  0  0  0  0
    4.5848   -5.8728   29.5562 H   0  0  0  0  0  0  0  0  0  0  0  0
    6.5327   -6.8274   29.3967 C   0  0  0  0  0  0  0  0  0  0  0  0
    6.3992   -7.5153   30.2255 H   0  0  0  0  0  0  0  0  0  0  0  0
  1  2  1  0
  2  3  2  0
  3  4  1  0
  4  5  1  0
  5  6  1  0
  6  7  1  0
  6  8  1  0
  6  9  1  0
  9 10  1  0
  9 11  1  0
  9 12  1  0
 12 13  1  0
 13 14  1  0
 14 15  1  0
 14 16  2  0
 16 17  1  0
 16 18  1  0
 18 19  1  0
 19 20  2  0
 20 21  1  0
 20 22  1  0
 22 23  2  0
 23 24  1  0
 23 25  1  0
 25 26  1  0
 25 27  2  0
 27 28  1  0
 18 29  1  0
 29 30  1  0
 12 31  1  0
 31 32  1  0
 31 33  1  0
 31 34  1  0
 34 35  1  0
 34 36  1  0
  4 37  2  0
 37 38  1  0
 37 39  1  0
 39 40  1  0
 39 41  2  0
 41 42  1  0
 41  2  1  0
 34  5  1  0
 29 13  2  0
 27 19  1  0
M  END
>  <cnnaffinity>  (1) 
-5.25712

>  <filename>  (1) 
c1ccc(N2CCN(c3ccn(-c4cccnc4)c3)CC2)nc1

$$$$
