
     RDKit          3D

 42 46  0  0  0  0  0  0  0  0999 V2000
    4.9806    1.8610   16.8917 H   0  0  0  0  0  0  0  0  0  0  0  0
    5.4168    1.3047   17.7207 C   0  0  0  0  0  0  0  0  0  0  0  0
    6.5611    0.6501   17.4706 N   0  0  0  0  0  0  0  0  0  0  0  0
    7.1379   -0.0004   18.4874 C   0  0  0  0  0  0  0  0  0  0  0  0
    8.0698   -0.5132   18.2576 H   0  0  0  0  0  0  0  0  0  0  0  0
    6.6100   -0.0378   19.7921 C   0  0  0  0  0  0  0  0  0  0  0  0
    7.3665   -0.6536   20.8981 C   0  0  0  0  0  0  0  0  0  0  0  0
    8.5003   -1.3360   20.6778 N   0  0  0  0  0  0  0  0  0  0  0  0
    8.9343   -1.6078   21.9256 N   0  0  0  0  0  0  0  0  0  0  0  0
   10.0592   -2.2154   22.4686 C   0  0  0  0  0  0  0  0  0  0  0  0
   10.8057   -2.6698   21.8452 H   0  0  0  0  0  0  0  0  0  0  0  0
    9.9312   -2.0836   23.8143 C   0  0  0  0  0  0  0  0  0  0  0  0
   10.5638   -2.4330   24.6156 H   0  0  0  0  0  0  0  0  0  0  0  0
    8.7555   -1.3977   24.1079 N   0  0  0  0  0  0  0  0  0  0  0  0
    8.2742   -1.0038   25.3782 C   0  0  0  0  0  0  0  0  0  0  0  0
    6.8844   -0.9406   25.6076 C   0  0  0  0  0  0  0  0  0  0  0  0
    6.2002   -1.2635   24.8247 H   0  0  0  0  0  0  0  0  0  0  0  0
    6.4012   -0.4187   26.8024 C   0  0  0  0  0  0  0  0  0  0  0  0
    5.3321   -0.2690   26.9354 H   0  0  0  0  0  0  0  0  0  0  0  0
    7.2736    0.0002   27.8168 C   0  0  0  0  0  0  0  0  0  0  0  0
    6.7829    0.6618   29.0569 C   0  0  0  0  0  0  0  0  0  0  0  0
    5.7528    0.1019   29.8294 C   0  0  0  0  0  0  0  0  0  0  0  0
    5.2791   -0.8166   29.4895 H   0  0  0  0  0  0  0  0  0  0  0  0
    5.3570    0.7032   31.0270 C   0  0  0  0  0  0  0  0  0  0  0  0
    4.5882    0.2368   31.6337 H   0  0  0  0  0  0  0  0  0  0  0  0
    5.9612    1.8921   31.4544 C   0  0  0  0  0  0  0  0  0  0  0  0
    5.6708    2.3467   32.3974 H   0  0  0  0  0  0  0  0  0  0  0  0
    6.9567    2.4840   30.6695 C   0  0  0  0  0  0  0  0  0  0  0  0
    7.4378    3.4024   30.9925 H   0  0  0  0  0  0  0  0  0  0  0  0
    7.3598    1.8755   29.4803 C   0  0  0  0  0  0  0  0  0  0  0  0
    8.1166    2.3312   28.8477 H   0  0  0  0  0  0  0  0  0  0  0  0
    8.6564   -0.1729   27.6157 C   0  0  0  0  0  0  0  0  0  0  0  0
    9.3244    0.0410   28.4483 H   0  0  0  0  0  0  0  0  0  0  0  0
    9.1654   -0.6317   26.4023 C   0  0  0  0  0  0  0  0  0  0  0  0
   10.2454   -0.6405   26.2529 H   0  0  0  0  0  0  0  0  0  0  0  0
    8.1423   -1.1190   22.8970 C   0  0  0  0  0  0  0  0  0  0  0  0
    7.0700   -0.5071   22.2733 C   0  0  0  0  0  0  0  0  0  0  0  0
    6.2026   -0.0373   22.6947 H   0  0  0  0  0  0  0  0  0  0  0  0
    5.3919    0.6192   20.0234 C   0  0  0  0  0  0  0  0  0  0  0  0
    4.9280    0.6102   21.0128 H   0  0  0  0  0  0  0  0  0  0  0  0
    4.7902    1.3043   18.9725 C   0  0  0  0  0  0  0  0  0  0  0  0
    3.8735    1.8622   19.1228 H   0  0  0  0  0  0  0  0  0  0  0  0
  1  2  1  0
  2  3  2  0
  3  4  1  0
  4  5  1  0
  4  6  2  0
  6  7  1  0
  7  8  2  0
  8  9  1  0
  9 10  1  0
 10 11  1  0
 10 12  2  0
 12 13  1  0
 12 14  1  0
 14 15  1  0
 15 16  2  0
 16 17  1  0
 16 18  1  0
 18 19  1  0
 18 20  2  0
 20 21  1  0
 21 22  2  0
 22 23  1  0
 22 24  1  0
 24 25  1  0
 24 26  2  0
 26 27  1  0
 26 28  1  0
 28 29  1  0
 28 30  2  0
 30 31  1  0
 20 32  1  0
 32 33  1  0
 32 34  2  0
 34 35  1  0
 14 36  1  0
 36 37  2  0
 37 38  1  0
  6 39  1  0
 39 40  1  0
 39 41  2  0
 41 42  1  0
 41  2  1  0
 37  7  1  0
 36  9  1  0
 34 15  1  0
 30 21  1  0
M  END
>  <cnnaffinity>  (1) 
-5.40553

>  <filename>  (1) 
c1ccc(-c2ccc(-n3ccn4nc(-c5cccnc5)cc34)cc2)cc1

$$$$
