
     RDKit          3D

 32 34  0  0  0  0  0  0  0  0999 V2000
    4.9490    1.8644   16.9264 H   0  0  0  0  0  0  0  0  0  0  0  0
    5.3925    1.3319   17.7650 C   0  0  0  0  0  0  0  0  0  0  0  0
    6.5558    0.7078   17.5175 N   0  0  0  0  0  0  0  0  0  0  0  0
    7.1392    0.0533   18.5278 C   0  0  0  0  0  0  0  0  0  0  0  0
    8.0956   -0.4168   18.2981 H   0  0  0  0  0  0  0  0  0  0  0  0
    6.6009   -0.0219   19.8264 C   0  0  0  0  0  0  0  0  0  0  0  0
    7.2824   -0.7243   20.9327 C   0  0  0  0  0  0  0  0  0  0  0  0
    7.5448   -0.2866   22.2186 C   0  0  0  0  0  0  0  0  0  0  0  0
    7.2592    1.0111   22.6596 N   0  0  0  0  0  0  0  0  0  0  0  0
    7.2467    1.6837   21.8930 H   0  0  0  0  0  0  0  0  0  0  0  0
    7.8021    1.5158   23.8427 N   0  0  0  0  0  0  0  0  0  0  0  0
    7.2673    1.1762   24.6373 H   0  0  0  0  0  0  0  0  0  0  0  0
    9.1840    1.3838   24.1221 C   0  0  0  0  0  0  0  0  0  0  0  0
    9.5291    1.1372   25.4597 C   0  0  0  0  0  0  0  0  0  0  0  0
    8.7558    1.1657   26.2212 H   0  0  0  0  0  0  0  0  0  0  0  0
   10.8445    0.8554   25.8188 C   0  0  0  0  0  0  0  0  0  0  0  0
   11.0573    0.5826   26.8538 H   0  0  0  0  0  0  0  0  0  0  0  0
   11.8558    0.9044   24.8519 C   0  0  0  0  0  0  0  0  0  0  0  0
   12.8793    0.6927   25.1512 H   0  0  0  0  0  0  0  0  0  0  0  0
   11.5323    1.2254   23.5240 C   0  0  0  0  0  0  0  0  0  0  0  0
   12.3216    1.3063   22.7745 H   0  0  0  0  0  0  0  0  0  0  0  0
   10.1983    1.4506   23.1490 C   0  0  0  0  0  0  0  0  0  0  0  0
    9.9425    1.6420   22.1084 H   0  0  0  0  0  0  0  0  0  0  0  0
    8.2235   -1.3715   22.8429 C   0  0  0  0  0  0  0  0  0  0  0  0
    8.6227   -1.4156   23.8480 H   0  0  0  0  0  0  0  0  0  0  0  0
    8.3870   -2.3921   22.0051 N   0  0  0  0  0  0  0  0  0  0  0  0
    7.8239   -1.9637   20.8602 N   0  0  0  0  0  0  0  0  0  0  0  0
    7.7663   -2.5722   20.0590 H   0  0  0  0  0  0  0  0  0  0  0  0
    5.3892    0.6509   20.0633 C   0  0  0  0  0  0  0  0  0  0  0  0
    4.9683    0.6362   21.0679 H   0  0  0  0  0  0  0  0  0  0  0  0
    4.7667    1.3275   19.0152 C   0  0  0  0  0  0  0  0  0  0  0  0
    3.8357    1.8660   19.1574 H   0  0  0  0  0  0  0  0  0  0  0  0
  1  2  1  0
  2  3  2  0
  3  4  1  0
  4  5  1  0
  4  6  2  0
  6  7  1  0
  7  8  2  0
  8  9  1  0
  9 10  1  0
  9 11  1  0
 11 12  1  0
 11 13  1  0
 13 14  2  0
 14 15  1  0
 14 16  1  0
 16 17  1  0
 16 18  2  0
 18 19  1  0
 18 20  1  0
 20 21  1  0
 20 22  2  0
 22 23  1  0
  8 24  1  0
 24 25  1  0
 24 26  2  0
 26 27  1  0
 27 28  1  0
  6 29  1  0
 29 30  1  0
 29 31  2  0
 31 32  1  0
 31  2  1  0
 27  7  1  0
 22 13  1  0
M  END
>  <cnnaffinity>  (1) 
-5.24902

>  <filename>  (1) 
c1ccc(NNc2cn[nH]c2-c2cccnc2)cc1

$$$$
