
     RDKit          3D

 37 40  0  0  0  0  0  0  0  0999 V2000
    4.9989    1.7967   16.9034 H   0  0  0  0  0  0  0  0  0  0  0  0
    5.4419    1.2918   17.7598 C   0  0  0  0  0  0  0  0  0  0  0  0
    6.5915    0.6410   17.5287 N   0  0  0  0  0  0  0  0  0  0  0  0
    7.1650    0.0226   18.5643 C   0  0  0  0  0  0  0  0  0  0  0  0
    8.0787   -0.5288   18.3507 H   0  0  0  0  0  0  0  0  0  0  0  0
    6.6506    0.0544   19.8692 C   0  0  0  0  0  0  0  0  0  0  0  0
    7.3887   -0.6184   20.9419 C   0  0  0  0  0  0  0  0  0  0  0  0
    7.9612   -1.7771   20.7157 N   0  0  0  0  0  0  0  0  0  0  0  0
    8.4859   -2.1917   21.9112 O   0  0  0  0  0  0  0  0  0  0  0  0
    8.2317   -1.2724   22.8405 C   0  0  0  0  0  0  0  0  0  0  0  0
    8.6121   -1.4900   23.8310 H   0  0  0  0  0  0  0  0  0  0  0  0
    7.5545   -0.2182   22.3124 C   0  0  0  0  0  0  0  0  0  0  0  0
    7.1368    1.0037   23.0250 C   0  0  0  0  0  0  0  0  0  0  0  0
    6.6802    0.8867   24.3439 C   0  0  0  0  0  0  0  0  0  0  0  0
    6.6176   -0.1014   24.7926 H   0  0  0  0  0  0  0  0  0  0  0  0
    6.2947    2.0134   25.0694 C   0  0  0  0  0  0  0  0  0  0  0  0
    5.9367    1.9103   26.0884 H   0  0  0  0  0  0  0  0  0  0  0  0
    6.4124    3.2805   24.4957 C   0  0  0  0  0  0  0  0  0  0  0  0
    6.1233    4.1683   25.0559 H   0  0  0  0  0  0  0  0  0  0  0  0
    6.8975    3.4290   23.1847 C   0  0  0  0  0  0  0  0  0  0  0  0
    7.0455    4.7963   22.6081 C   0  0  0  0  0  0  0  0  0  0  0  0
    6.4412    5.1386   21.3907 C   0  0  0  0  0  0  0  0  0  0  0  0
    5.9178    4.3457   20.8654 H   0  0  0  0  0  0  0  0  0  0  0  0
    6.4905    6.4476   20.8962 C   0  0  0  0  0  0  0  0  0  0  0  0
    5.9666    6.7049   19.9755 H   0  0  0  0  0  0  0  0  0  0  0  0
    7.1583    7.4365   21.6260 C   0  0  0  0  0  0  0  0  0  0  0  0
    7.1951    8.4570   21.2482 H   0  0  0  0  0  0  0  0  0  0  0  0
    7.7803    7.1046   22.8380 C   0  0  0  0  0  0  0  0  0  0  0  0
    8.2681    7.8707   23.4309 H   0  0  0  0  0  0  0  0  0  0  0  0
    7.7526    5.7889   23.3040 C   0  0  0  0  0  0  0  0  0  0  0  0
    8.2948    5.5037   24.2037 H   0  0  0  0  0  0  0  0  0  0  0  0
    7.2319    2.2803   22.4495 C   0  0  0  0  0  0  0  0  0  0  0  0
    7.5892    2.3782   21.4284 H   0  0  0  0  0  0  0  0  0  0  0  0
    5.4288    0.7057   20.0901 C   0  0  0  0  0  0  0  0  0  0  0  0
    4.9845    0.7276   21.0874 H   0  0  0  0  0  0  0  0  0  0  0  0
    4.8135    1.3332   19.0077 C   0  0  0  0  0  0  0  0  0  0  0  0
    3.8716    1.8570   19.1204 H   0  0  0  0  0  0  0  0  0  0  0  0
  1  2  1  0
  2  3  2  0
  3  4  1  0
  4  5  1  0
  4  6  2  0
  6  7  1  0
  7  8  2  0
  8  9  1  0
  9 10  1  0
 10 11  1  0
 10 12  2  0
 12 13  1  0
 13 14  2  0
 14 15  1  0
 14 16  1  0
 16 17  1  0
 16 18  2  0
 18 19  1  0
 18 20  1  0
 20 21  1  0
 21 22  2  0
 22 23  1  0
 22 24  1  0
 24 25  1  0
 24 26  2  0
 26 27  1  0
 26 28  1  0
 28 29  1  0
 28 30  2  0
 30 31  1  0
 20 32  2  0
 32 33  1  0
  6 34  1  0
 34 35  1  0
 34 36  2  0
 36 37  1  0
 36  2  1  0
 12  7  1  0
 32 13  1  0
 30 21  1  0
M  END
>  <cnnaffinity>  (1) 
-5.18727

>  <filename>  (1) 
c1ccc(-c2cccc(-c3conc3-c3cccnc3)c2)cc1

$$$$
