
     RDKit          3D

 38 40  0  0  0  0  0  0  0  0999 V2000
    4.9216    1.7786   17.0013 H   0  0  0  0  0  0  0  0  0  0  0  0
    5.4056    1.2890   17.8442 C   0  0  0  0  0  0  0  0  0  0  0  0
    6.5709    0.6779   17.5848 N   0  0  0  0  0  0  0  0  0  0  0  0
    7.1747    0.0500   18.5963 C   0  0  0  0  0  0  0  0  0  0  0  0
    8.1216   -0.4318   18.3685 H   0  0  0  0  0  0  0  0  0  0  0  0
    6.6613   -0.0066   19.9004 C   0  0  0  0  0  0  0  0  0  0  0  0
    7.4048   -0.7240   20.9687 C   0  0  0  0  0  0  0  0  0  0  0  0
    8.1097   -1.8190   20.6244 N   0  0  0  0  0  0  0  0  0  0  0  0
    8.7603   -2.5311   21.5487 N   0  0  0  0  0  0  0  0  0  0  0  0
    8.7582   -2.1225   22.8202 C   0  0  0  0  0  0  0  0  0  0  0  0
    9.3160   -2.7434   23.5064 H   0  0  0  0  0  0  0  0  0  0  0  0
    8.0892   -0.9625   23.2611 C   0  0  0  0  0  0  0  0  0  0  0  0
    8.0388   -0.5631   24.7057 C   0  0  0  0  0  0  0  0  0  0  0  0
    8.9659   -0.8713   25.2013 H   0  0  0  0  0  0  0  0  0  0  0  0
    7.9967    0.5314   24.7695 H   0  0  0  0  0  0  0  0  0  0  0  0
    6.8367   -1.1841   25.4235 C   0  0  0  0  0  0  0  0  0  0  0  0
    6.8711   -2.2732   25.3049 H   0  0  0  0  0  0  0  0  0  0  0  0
    5.9165   -0.8609   24.9224 H   0  0  0  0  0  0  0  0  0  0  0  0
    6.7671   -0.8197   26.9105 C   0  0  0  0  0  0  0  0  0  0  0  0
    7.7110   -1.1129   27.3890 H   0  0  0  0  0  0  0  0  0  0  0  0
    5.9800   -1.4121   27.3928 H   0  0  0  0  0  0  0  0  0  0  0  0
    6.5134    0.6549   27.1302 C   0  0  0  0  0  0  0  0  0  0  0  0
    7.5605    1.5416   27.4258 C   0  0  0  0  0  0  0  0  0  0  0  0
    8.5726    1.1501   27.5184 H   0  0  0  0  0  0  0  0  0  0  0  0
    7.3143    2.9070   27.5903 C   0  0  0  0  0  0  0  0  0  0  0  0
    8.1298    3.5831   27.8181 H   0  0  0  0  0  0  0  0  0  0  0  0
    6.0160    3.4096   27.4531 C   0  0  0  0  0  0  0  0  0  0  0  0
    5.8266    4.4710   27.5869 H   0  0  0  0  0  0  0  0  0  0  0  0
    4.9673    2.5384   27.1388 C   0  0  0  0  0  0  0  0  0  0  0  0
    3.9561    2.9211   27.0248 H   0  0  0  0  0  0  0  0  0  0  0  0
    5.2178    1.1757   26.9719 C   0  0  0  0  0  0  0  0  0  0  0  0
    4.4067    0.4970   26.7151 H   0  0  0  0  0  0  0  0  0  0  0  0
    7.3792   -0.2652   22.2954 C   0  0  0  0  0  0  0  0  0  0  0  0
    6.8223    0.6374   22.5437 H   0  0  0  0  0  0  0  0  0  0  0  0
    5.4454    0.6482   20.1615 C   0  0  0  0  0  0  0  0  0  0  0  0
    4.9956    0.6335   21.1588 H   0  0  0  0  0  0  0  0  0  0  0  0
    4.8090    1.3032   19.1092 C   0  0  0  0  0  0  0  0  0  0  0  0
    3.8776    1.8404   19.2600 H   0  0  0  0  0  0  0  0  0  0  0  0
  1  2  1  0
  2  3  2  0
  3  4  1  0
  4  5  1  0
  4  6  2  0
  6  7  1  0
  7  8  2  0
  8  9  1  0
  9 10  2  0
 10 11  1  0
 10 12  1  0
 12 13  1  0
 13 14  1  0
 13 15  1  0
 13 16  1  0
 16 17  1  0
 16 18  1  0
 16 19  1  0
 19 20  1  0
 19 21  1  0
 19 22  1  0
 22 23  2  0
 23 24  1  0
 23 25  1  0
 25 26  1  0
 25 27  2  0
 27 28  1  0
 27 29  1  0
 29 30  1  0
 29 31  2  0
 31 32  1  0
 12 33  2  0
 33 34  1  0
  6 35  1  0
 35 36  1  0
 35 37  2  0
 37 38  1  0
 37  2  1  0
 33  7  1  0
 31 22  1  0
M  END
>  <cnnaffinity>  (1) 
-5.15813

>  <filename>  (1) 
c1ccc(CCCc2cnnc(-c3cccnc3)c2)cc1

$$$$
