
     RDKit          3D

 38 40  0  0  0  0  0  0  0  0999 V2000
    5.1560    1.8191   16.8501 H   0  0  0  0  0  0  0  0  0  0  0  0
    5.5629    1.2858   17.7051 C   0  0  0  0  0  0  0  0  0  0  0  0
    6.6959    0.5932   17.5018 N   0  0  0  0  0  0  0  0  0  0  0  0
    7.2312   -0.0549   18.5418 C   0  0  0  0  0  0  0  0  0  0  0  0
    8.1595   -0.5923   18.3652 H   0  0  0  0  0  0  0  0  0  0  0  0
    6.6664   -0.0400   19.8308 C   0  0  0  0  0  0  0  0  0  0  0  0
    7.3356   -0.6716   20.9223 N   0  0  0  0  0  0  0  0  0  0  0  0
    7.9191   -1.8867   20.8167 N   0  0  0  0  0  0  0  0  0  0  0  0
    8.4186   -2.1588   21.9646 N   0  0  0  0  0  0  0  0  0  0  0  0
    8.2054   -1.1558   22.8407 N   0  0  0  0  0  0  0  0  0  0  0  0
    7.5391   -0.2277   22.1905 C   0  0  0  0  0  0  0  0  0  0  0  0
    7.2679    1.1752   22.6364 C   0  0  0  0  0  0  0  0  0  0  0  0
    6.2036    1.4091   22.5804 H   0  0  0  0  0  0  0  0  0  0  0  0
    7.5351    1.2402   23.6980 H   0  0  0  0  0  0  0  0  0  0  0  0
    8.0916    2.1923   21.8131 C   0  0  0  0  0  0  0  0  0  0  0  0
    7.7756    2.1687   20.7605 H   0  0  0  0  0  0  0  0  0  0  0  0
    7.8899    3.2044   22.1843 H   0  0  0  0  0  0  0  0  0  0  0  0
    9.5934    1.8909   21.8845 C   0  0  0  0  0  0  0  0  0  0  0  0
    9.8169    0.9971   21.2821 H   0  0  0  0  0  0  0  0  0  0  0  0
   10.1661    2.7144   21.4364 H   0  0  0  0  0  0  0  0  0  0  0  0
   10.1101    1.6284   23.3172 C   0  0  0  0  0  0  0  0  0  0  0  0
    9.6583    0.7081   23.7068 H   0  0  0  0  0  0  0  0  0  0  0  0
    9.8152    2.4467   23.9914 H   0  0  0  0  0  0  0  0  0  0  0  0
   11.6053    1.4650   23.2987 C   0  0  0  0  0  0  0  0  0  0  0  0
   12.4455    2.5843   23.3093 C   0  0  0  0  0  0  0  0  0  0  0  0
   12.0395    3.5628   23.5495 H   0  0  0  0  0  0  0  0  0  0  0  0
   13.7947    2.4535   22.9920 C   0  0  0  0  0  0  0  0  0  0  0  0
   14.4033    3.3455   22.9128 H   0  0  0  0  0  0  0  0  0  0  0  0
   14.3354    1.1961   22.7140 C   0  0  0  0  0  0  0  0  0  0  0  0
   15.3577    1.1113   22.3612 H   0  0  0  0  0  0  0  0  0  0  0  0
   13.5286    0.0641   22.7848 C   0  0  0  0  0  0  0  0  0  0  0  0
   13.9475   -0.9185   22.5984 H   0  0  0  0  0  0  0  0  0  0  0  0
   12.1714    0.2033   23.0816 C   0  0  0  0  0  0  0  0  0  0  0  0
   11.5309   -0.6762   23.1039 H   0  0  0  0  0  0  0  0  0  0  0  0
    5.4687    0.6530   20.0272 C   0  0  0  0  0  0  0  0  0  0  0  0
    4.9874    0.6685   21.0046 H   0  0  0  0  0  0  0  0  0  0  0  0
    4.9179    1.3385   18.9437 C   0  0  0  0  0  0  0  0  0  0  0  0
    4.0159    1.9240   19.0591 H   0  0  0  0  0  0  0  0  0  0  0  0
  1  2  1  0
  2  3  2  0
  3  4  1  0
  4  5  1  0
  4  6  2  0
  6  7  1  0
  7  8  1  0
  8  9  2  0
  9 10  1  0
 10 11  2  0
 11 12  1  0
 12 13  1  0
 12 14  1  0
 12 15  1  0
 15 16  1  0
 15 17  1  0
 15 18  1  0
 18 19  1  0
 18 20  1  0
 18 21  1  0
 21 22  1  0
 21 23  1  0
 21 24  1  0
 24 25  2  0
 25 26  1  0
 25 27  1  0
 27 28  1  0
 27 29  2  0
 29 30  1  0
 29 31  1  0
 31 32  1  0
 31 33  2  0
 33 34  1  0
  6 35  1  0
 35 36  1  0
 35 37  2  0
 37 38  1  0
 37  2  1  0
 11  7  1  0
 33 24  1  0
M  END
>  <cnnaffinity>  (1) 
-5.8631

>  <filename>  (1) 
c1ccc(CCCCc2nnnn2-c2cccnc2)cc1

$$$$
