
     RDKit          3D

 34 36  0  0  0  0  0  0  0  0999 V2000
    4.9138    1.7733   17.0050 H   0  0  0  0  0  0  0  0  0  0  0  0
    5.4056    1.2879   17.8475 C   0  0  0  0  0  0  0  0  0  0  0  0
    6.5685    0.6708   17.5874 N   0  0  0  0  0  0  0  0  0  0  0  0
    7.1853    0.0613   18.6075 C   0  0  0  0  0  0  0  0  0  0  0  0
    8.1281   -0.4286   18.3783 H   0  0  0  0  0  0  0  0  0  0  0  0
    6.6716    0.0073   19.9142 C   0  0  0  0  0  0  0  0  0  0  0  0
    7.4093   -0.7225   20.9897 C   0  0  0  0  0  0  0  0  0  0  0  0
    8.7560   -0.7118   20.9300 N   0  0  0  0  0  0  0  0  0  0  0  0
    9.4648   -1.3284   21.8776 N   0  0  0  0  0  0  0  0  0  0  0  0
    8.8509   -1.9789   22.8699 C   0  0  0  0  0  0  0  0  0  0  0  0
    9.4907   -2.4624   23.5924 H   0  0  0  0  0  0  0  0  0  0  0  0
    7.4348   -2.0570   22.9925 C   0  0  0  0  0  0  0  0  0  0  0  0
    6.7914   -2.7281   23.9958 N   0  0  0  0  0  0  0  0  0  0  0  0
    5.7826   -2.7077   23.9968 H   0  0  0  0  0  0  0  0  0  0  0  0
    7.4581   -3.4429   25.0735 C   0  0  0  0  0  0  0  0  0  0  0  0
    8.1137   -2.7565   25.6274 H   0  0  0  0  0  0  0  0  0  0  0  0
    8.1080   -4.2212   24.6508 H   0  0  0  0  0  0  0  0  0  0  0  0
    6.4598   -4.0710   26.0210 C   0  0  0  0  0  0  0  0  0  0  0  0
    5.9838   -3.3576   27.1329 C   0  0  0  0  0  0  0  0  0  0  0  0
    6.3447   -2.3476   27.3237 H   0  0  0  0  0  0  0  0  0  0  0  0
    5.0348   -3.9243   27.9913 C   0  0  0  0  0  0  0  0  0  0  0  0
    4.6684   -3.3570   28.8443 H   0  0  0  0  0  0  0  0  0  0  0  0
    4.5566   -5.2164   27.7495 C   0  0  0  0  0  0  0  0  0  0  0  0
    3.8200   -5.6583   28.4162 H   0  0  0  0  0  0  0  0  0  0  0  0
    5.0271   -5.9390   26.6479 C   0  0  0  0  0  0  0  0  0  0  0  0
    4.6552   -6.9429   26.4550 H   0  0  0  0  0  0  0  0  0  0  0  0
    5.9761   -5.3693   25.7916 C   0  0  0  0  0  0  0  0  0  0  0  0
    6.3323   -5.9356   24.9323 H   0  0  0  0  0  0  0  0  0  0  0  0
    6.7168   -1.3972   22.0002 C   0  0  0  0  0  0  0  0  0  0  0  0
    5.6395   -1.4284   21.9729 H   0  0  0  0  0  0  0  0  0  0  0  0
    5.4476    0.6454   20.1621 C   0  0  0  0  0  0  0  0  0  0  0  0
    5.0033    0.6398   21.1604 H   0  0  0  0  0  0  0  0  0  0  0  0
    4.8094    1.3096   19.1139 C   0  0  0  0  0  0  0  0  0  0  0  0
    3.8742    1.8428   19.2652 H   0  0  0  0  0  0  0  0  0  0  0  0
  1  2  1  0
  2  3  2  0
  3  4  1  0
  4  5  1  0
  4  6  2  0
  6  7  1  0
  7  8  2  0
  8  9  1  0
  9 10  2  0
 10 11  1  0
 10 12  1  0
 12 13  1  0
 13 14  1  0
 13 15  1  0
 15 16  1  0
 15 17  1  0
 15 18  1  0
 18 19  2  0
 19 20  1  0
 19 21  1  0
 21 22  1  0
 21 23  2  0
 23 24  1  0
 23 25  1  0
 25 26  1  0
 25 27  2  0
 27 28  1  0
 12 29  2  0
 29 30  1  0
  6 31  1  0
 31 32  1  0
 31 33  2  0
 33 34  1  0
 33  2  1  0
 29  7  1  0
 27 18  1  0
M  END
>  <cnnaffinity>  (1) 
-5.04645

>  <filename>  (1) 
c1ccc(CNc2cnnc(-c3cccnc3)c2)cc1

$$$$
