
     RDKit          3D

 36 38  0  0  0  0  0  0  0  0999 V2000
    4.9668    1.8041   16.9729 H   0  0  0  0  0  0  0  0  0  0  0  0
    5.4313    1.2990   17.8170 C   0  0  0  0  0  0  0  0  0  0  0  0
    6.5907    0.6642   17.5664 N   0  0  0  0  0  0  0  0  0  0  0  0
    7.1909    0.0366   18.5816 C   0  0  0  0  0  0  0  0  0  0  0  0
    8.1206   -0.4881   18.3667 H   0  0  0  0  0  0  0  0  0  0  0  0
    6.6799    0.0321   19.8924 C   0  0  0  0  0  0  0  0  0  0  0  0
    7.4013   -0.6363   20.9289 N   0  0  0  0  0  0  0  0  0  0  0  0
    7.8140   -1.9150   20.7781 N   0  0  0  0  0  0  0  0  0  0  0  0
    8.3798   -2.2553   21.8756 N   0  0  0  0  0  0  0  0  0  0  0  0
    8.3716   -1.2390   22.7646 N   0  0  0  0  0  0  0  0  0  0  0  0
    7.7708   -0.2318   22.1729 C   0  0  0  0  0  0  0  0  0  0  0  0
    7.6416    1.1643   22.6886 C   0  0  0  0  0  0  0  0  0  0  0  0
    6.5928    1.4724   22.6558 H   0  0  0  0  0  0  0  0  0  0  0  0
    7.9348    1.1523   23.7415 H   0  0  0  0  0  0  0  0  0  0  0  0
    8.4894    2.1881   21.9089 C   0  0  0  0  0  0  0  0  0  0  0  0
    8.1809    2.2116   20.8550 H   0  0  0  0  0  0  0  0  0  0  0  0
    8.3265    3.1895   22.3151 H   0  0  0  0  0  0  0  0  0  0  0  0
    9.9803    1.9056   21.9366 C   0  0  0  0  0  0  0  0  0  0  0  0
   10.5171    2.6246   21.3051 H   0  0  0  0  0  0  0  0  0  0  0  0
   10.1721    0.9014   21.5338 H   0  0  0  0  0  0  0  0  0  0  0  0
   10.4764    1.9917   23.2715 O   0  0  0  0  0  0  0  0  0  0  0  0
   11.7348    1.5093   23.5003 C   0  0  0  0  0  0  0  0  0  0  0  0
   12.0033    1.0686   24.8082 C   0  0  0  0  0  0  0  0  0  0  0  0
   11.2291    1.1664   25.5663 H   0  0  0  0  0  0  0  0  0  0  0  0
   13.2389    0.4893   25.0803 C   0  0  0  0  0  0  0  0  0  0  0  0
   13.5164    0.1681   26.0745 H   0  0  0  0  0  0  0  0  0  0  0  0
   14.1850    0.3172   24.0722 C   0  0  0  0  0  0  0  0  0  0  0  0
   15.0879   -0.2328   24.3020 H   0  0  0  0  0  0  0  0  0  0  0  0
   13.9505    0.7968   22.7907 C   0  0  0  0  0  0  0  0  0  0  0  0
   14.7011    0.6697   22.0136 H   0  0  0  0  0  0  0  0  0  0  0  0
   12.7167    1.3909   22.5001 C   0  0  0  0  0  0  0  0  0  0  0  0
   12.4953    1.7157   21.4886 H   0  0  0  0  0  0  0  0  0  0  0  0
    5.4617    0.6725   20.1451 C   0  0  0  0  0  0  0  0  0  0  0  0
    5.0147    0.6443   21.1398 H   0  0  0  0  0  0  0  0  0  0  0  0
    4.8283    1.3190   19.0781 C   0  0  0  0  0  0  0  0  0  0  0  0
    3.8887    1.8419   19.2214 H   0  0  0  0  0  0  0  0  0  0  0  0
  1  2  1  0
  2  3  2  0
  3  4  1  0
  4  5  1  0
  4  6  2  0
  6  7  1  0
  7  8  1  0
  8  9  2  0
  9 10  1  0
 10 11  2  0
 11 12  1  0
 12 13  1  0
 12 14  1  0
 12 15  1  0
 15 16  1  0
 15 17  1  0
 15 18  1  0
 18 19  1  0
 18 20  1  0
 18 21  1  0
 21 22  1  0
 22 23  2  0
 23 24  1  0
 23 25  1  0
 25 26  1  0
 25 27  2  0
 27 28  1  0
 27 29  1  0
 29 30  1  0
 29 31  2  0
 31 32  1  0
  6 33  1  0
 33 34  1  0
 33 35  2  0
 35 36  1  0
 35  2  1  0
 11  7  1  0
 31 22  1  0
M  END
>  <cnnaffinity>  (1) 
-5.53498

>  <filename>  (1) 
c1ccc(OCCCc2nnnn2-c2cccnc2)cc1

$$$$
