
     RDKit          3D

 35 38  0  0  0  0  0  0  0  0999 V2000
    4.9929    1.8426   16.9179 H   0  0  0  0  0  0  0  0  0  0  0  0
    5.3906    1.3067   17.7823 C   0  0  0  0  0  0  0  0  0  0  0  0
    6.5422    0.6492   17.5896 N   0  0  0  0  0  0  0  0  0  0  0  0
    7.0684    0.0296   18.6548 C   0  0  0  0  0  0  0  0  0  0  0  0
    8.0090   -0.4900   18.4706 H   0  0  0  0  0  0  0  0  0  0  0  0
    6.4883   -0.0073   19.9441 C   0  0  0  0  0  0  0  0  0  0  0  0
    7.2424   -0.6240   21.0597 C   0  0  0  0  0  0  0  0  0  0  0  0
    8.5961   -0.5607   21.3022 C   0  0  0  0  0  0  0  0  0  0  0  0
    8.8070   -1.1636   22.5337 C   0  0  0  0  0  0  0  0  0  0  0  0
    7.6967   -1.6253   23.0711 N   0  0  0  0  0  0  0  0  0  0  0  0
    6.7481   -1.2741   22.1621 N   0  0  0  0  0  0  0  0  0  0  0  0
    5.7867   -1.5153   22.3731 H   0  0  0  0  0  0  0  0  0  0  0  0
   10.2441   -1.1208   22.9579 C   0  0  0  0  0  0  0  0  0  0  0  0
   10.6627   -2.1267   23.0423 H   0  0  0  0  0  0  0  0  0  0  0  0
   10.3732   -0.6518   23.9368 H   0  0  0  0  0  0  0  0  0  0  0  0
   10.9353   -0.2877   21.8214 C   0  0  2  0  0  0  0  0  0  0  0  0
   11.7458   -0.8946   21.4097 H   0  0  0  0  0  0  0  0  0  0  0  0
   11.5167    1.0188   22.3285 C   0  0  0  0  0  0  0  0  0  0  0  0
   10.6554    1.9976   22.8535 C   0  0  0  0  0  0  0  0  0  0  0  0
    9.5861    1.7970   22.8945 H   0  0  0  0  0  0  0  0  0  0  0  0
   11.1528    3.2172   23.3177 C   0  0  0  0  0  0  0  0  0  0  0  0
   10.4673    3.9582   23.7178 H   0  0  0  0  0  0  0  0  0  0  0  0
   12.5254    3.4813   23.2593 C   0  0  0  0  0  0  0  0  0  0  0  0
   12.9106    4.4372   23.6036 H   0  0  0  0  0  0  0  0  0  0  0  0
   13.3945    2.5116   22.7548 C   0  0  0  0  0  0  0  0  0  0  0  0
   14.4589    2.7190   22.6864 H   0  0  0  0  0  0  0  0  0  0  0  0
   12.8960    1.2838   22.3040 C   0  0  0  0  0  0  0  0  0  0  0  0
   13.5869    0.5325   21.9272 H   0  0  0  0  0  0  0  0  0  0  0  0
    9.8628   -0.0665   20.7011 C   0  0  0  0  0  0  0  0  0  0  0  0
    9.7922    0.9771   20.3778 H   0  0  0  0  0  0  0  0  0  0  0  0
   10.1226   -0.6413   19.8117 H   0  0  0  0  0  0  0  0  0  0  0  0
    5.2626    0.6652   20.1101 C   0  0  0  0  0  0  0  0  0  0  0  0
    4.7685    0.7062   21.0866 H   0  0  0  0  0  0  0  0  0  0  0  0
    4.7193    1.3362   19.0117 C   0  0  0  0  0  0  0  0  0  0  0  0
    3.8038    1.9073   19.0990 H   0  0  0  0  0  0  0  0  0  0  0  0
  1  2  1  0
  2  3  2  0
  3  4  1  0
  4  5  1  0
  4  6  2  0
  6  7  1  0
  7  8  2  0
  8  9  1  0
  9 10  2  0
 10 11  1  0
 11 12  1  0
  9 13  1  0
 13 14  1  0
 13 15  1  0
 13 16  1  0
 16 17  1  6
 16 18  1  0
 18 19  2  0
 19 20  1  0
 19 21  1  0
 21 22  1  0
 21 23  2  0
 23 24  1  0
 23 25  1  0
 25 26  1  0
 25 27  2  0
 27 28  1  0
 16 29  1  0
 29 30  1  0
 29 31  1  0
  6 32  1  0
 32 33  1  0
 32 34  2  0
 34 35  1  0
 34  2  1  0
 11  7  1  0
 27 18  1  0
 29  8  1  0
M  END
>  <cnnaffinity>  (1) 
-5.30266

>  <filename>  (1) 
c1ccc([C@H]2Cc3n[nH]c(-c4cccnc4)c3C2)cc1

$$$$
