
     RDKit          3D

 39 43  0  0  0  0  0  0  0  0999 V2000
    5.0090    1.7464   16.9500 H   0  0  0  0  0  0  0  0  0  0  0  0
    5.4571    1.2569   17.8128 C   0  0  0  0  0  0  0  0  0  0  0  0
    6.5991    0.5868   17.5833 N   0  0  0  0  0  0  0  0  0  0  0  0
    7.1785   -0.0133   18.6242 C   0  0  0  0  0  0  0  0  0  0  0  0
    8.0888   -0.5731   18.4104 H   0  0  0  0  0  0  0  0  0  0  0  0
    6.6711    0.0430   19.9359 C   0  0  0  0  0  0  0  0  0  0  0  0
    7.4302   -0.6220   21.0019 C   0  0  0  0  0  0  0  0  0  0  0  0
    8.3043   -1.5794   20.8156 N   0  0  0  0  0  0  0  0  0  0  0  0
    8.8013   -1.9890   22.0324 N   0  0  0  0  0  0  0  0  0  0  0  0
    8.2142   -1.2446   22.9285 C   0  0  0  0  0  0  0  0  0  0  0  0
    8.2430   -0.9871   24.6539 S   0  0  0  0  0  0  0  0  0  0  0  0
    7.0797    0.3312   24.4028 C   0  0  0  0  0  0  0  0  0  0  0  0
    6.5748    1.1974   25.4944 C   0  0  0  0  0  0  0  0  0  0  0  0
    5.5668    2.1269   25.1677 C   0  0  0  0  0  0  0  0  0  0  0  0
    5.1979    2.1538   24.1453 H   0  0  0  0  0  0  0  0  0  0  0  0
    5.0608    2.9849   26.1370 C   0  0  0  0  0  0  0  0  0  0  0  0
    4.2885    3.6950   25.8584 H   0  0  0  0  0  0  0  0  0  0  0  0
    5.5403    2.9363   27.4460 C   0  0  0  0  0  0  0  0  0  0  0  0
    5.1221    3.5966   28.2007 H   0  0  0  0  0  0  0  0  0  0  0  0
    6.5347    2.0113   27.8058 C   0  0  0  0  0  0  0  0  0  0  0  0
    7.0480    1.9574   29.2106 C   0  0  0  0  0  0  0  0  0  0  0  0
    7.1696    0.7244   29.8677 C   0  0  0  0  0  0  0  0  0  0  0  0
    6.7402   -0.1491   29.3837 H   0  0  0  0  0  0  0  0  0  0  0  0
    7.7932    0.6336   31.1147 C   0  0  0  0  0  0  0  0  0  0  0  0
    7.8752   -0.3356   31.6011 H   0  0  0  0  0  0  0  0  0  0  0  0
    8.2684    1.7897   31.7417 C   0  0  0  0  0  0  0  0  0  0  0  0
    8.7483    1.7076   32.7135 H   0  0  0  0  0  0  0  0  0  0  0  0
    8.0629    3.0418   31.1495 C   0  0  0  0  0  0  0  0  0  0  0  0
    8.3822    3.9442   31.6692 H   0  0  0  0  0  0  0  0  0  0  0  0
    7.4307    3.1191   29.9025 C   0  0  0  0  0  0  0  0  0  0  0  0
    7.2553    4.0909   29.4472 H   0  0  0  0  0  0  0  0  0  0  0  0
    7.0332    1.1337   26.8241 C   0  0  0  0  0  0  0  0  0  0  0  0
    7.7903    0.4135   27.1353 H   0  0  0  0  0  0  0  0  0  0  0  0
    6.7025    0.5130   23.1706 N   0  0  0  0  0  0  0  0  0  0  0  0
    7.3386   -0.3697   22.3583 N   0  0  0  0  0  0  0  0  0  0  0  0
    5.4580    0.7096   20.1591 C   0  0  0  0  0  0  0  0  0  0  0  0
    5.0166    0.7336   21.1566 H   0  0  0  0  0  0  0  0  0  0  0  0
    4.8464    1.3269   19.0701 C   0  0  0  0  0  0  0  0  0  0  0  0
    3.9144    1.8703   19.1819 H   0  0  0  0  0  0  0  0  0  0  0  0
  1  2  1  0
  2  3  2  0
  3  4  1  0
  4  5  1  0
  4  6  2  0
  6  7  1  0
  7  8  2  0
  8  9  1  0
  9 10  2  0
 10 11  1  0
 11 12  1  0
 12 13  1  0
 13 14  2  0
 14 15  1  0
 14 16  1  0
 16 17  1  0
 16 18  2  0
 18 19  1  0
 18 20  1  0
 20 21  1  0
 21 22  2  0
 22 23  1  0
 22 24  1  0
 24 25  1  0
 24 26  2  0
 26 27  1  0
 26 28  1  0
 28 29  1  0
 28 30  2  0
 30 31  1  0
 20 32  2  0
 32 33  1  0
 12 34  2  0
 34 35  1  0
  6 36  1  0
 36 37  1  0
 36 38  2  0
 38 39  1  0
 38  2  1  0
 35  7  1  0
 35 10  1  0
 32 13  1  0
 30 21  1  0
M  END
>  <cnnaffinity>  (1) 
-5.60686

>  <filename>  (1) 
c1ccc(-c2cccc(-c3nn4c(-c5cccnc5)nnc4s3)c2)cc1

$$$$
