
     RDKit          3D

 42 45  0  0  0  0  0  0  0  0999 V2000
    4.9114    1.7881   16.9879 H   0  0  0  0  0  0  0  0  0  0  0  0
    5.3942    1.2992   17.8280 C   0  0  0  0  0  0  0  0  0  0  0  0
    6.5577    0.6851   17.5572 N   0  0  0  0  0  0  0  0  0  0  0  0
    7.1637    0.0733   18.5794 C   0  0  0  0  0  0  0  0  0  0  0  0
    8.1068   -0.4208   18.3572 H   0  0  0  0  0  0  0  0  0  0  0  0
    6.6649    0.0118   19.8957 C   0  0  0  0  0  0  0  0  0  0  0  0
    7.3808   -0.7038   20.9670 C   0  0  0  0  0  0  0  0  0  0  0  0
    8.7417   -1.0882   21.0632 C   0  0  0  0  0  0  0  0  0  0  0  0
    9.4929   -0.8880   20.3126 H   0  0  0  0  0  0  0  0  0  0  0  0
    9.0255   -1.7142   22.1941 N   0  0  0  0  0  0  0  0  0  0  0  0
    7.8556   -1.7444   22.8587 N   0  0  0  0  0  0  0  0  0  0  0  0
    7.7418   -2.3444   24.0889 N   0  0  0  0  0  0  0  0  0  0  0  0
    8.8673   -3.0643   24.6876 C   0  0  0  0  0  0  0  0  0  0  0  0
    9.4030   -2.4024   25.3835 H   0  0  0  0  0  0  0  0  0  0  0  0
    9.5806   -3.3577   23.9161 H   0  0  0  0  0  0  0  0  0  0  0  0
    8.3855   -4.3254   25.4445 C   0  0  0  0  0  0  0  0  0  0  0  0
    9.2216   -4.7057   26.0457 H   0  0  0  0  0  0  0  0  0  0  0  0
    8.1640   -5.1104   24.7085 H   0  0  0  0  0  0  0  0  0  0  0  0
    7.2143   -4.0839   26.2902 N   0  0  0  0  0  0  0  0  0  0  0  0
    6.5509   -5.1682   26.8942 C   0  0  0  0  0  0  0  0  0  0  0  0
    5.1637   -5.3636   26.7276 C   0  0  0  0  0  0  0  0  0  0  0  0
    4.6154   -4.6704   26.0975 H   0  0  0  0  0  0  0  0  0  0  0  0
    4.5153   -6.4417   27.3396 C   0  0  0  0  0  0  0  0  0  0  0  0
    3.4451   -6.5757   27.1996 H   0  0  0  0  0  0  0  0  0  0  0  0
    5.2349   -7.3314   28.1439 C   0  0  0  0  0  0  0  0  0  0  0  0
    4.7347   -8.1727   28.6187 H   0  0  0  0  0  0  0  0  0  0  0  0
    6.6070   -7.1356   28.3289 C   0  0  0  0  0  0  0  0  0  0  0  0
    7.1806   -7.8370   28.9308 H   0  0  0  0  0  0  0  0  0  0  0  0
    7.2665   -6.0787   27.6946 C   0  0  0  0  0  0  0  0  0  0  0  0
    8.3344   -5.9263   27.8257 H   0  0  0  0  0  0  0  0  0  0  0  0
    6.6958   -2.7248   26.3146 C   0  0  0  0  0  0  0  0  0  0  0  0
    7.3642   -2.0761   26.9026 H   0  0  0  0  0  0  0  0  0  0  0  0
    5.7365   -2.7062   26.8330 H   0  0  0  0  0  0  0  0  0  0  0  0
    6.5391   -2.1347   24.8991 C   0  0  0  0  0  0  0  0  0  0  0  0
    5.6718   -2.6177   24.4236 H   0  0  0  0  0  0  0  0  0  0  0  0
    6.3020   -1.0643   25.0001 H   0  0  0  0  0  0  0  0  0  0  0  0
    6.8648   -1.1599   22.1507 C   0  0  0  0  0  0  0  0  0  0  0  0
    5.8700   -1.1106   22.5447 H   0  0  0  0  0  0  0  0  0  0  0  0
    5.4391    0.6550   20.1465 C   0  0  0  0  0  0  0  0  0  0  0  0
    5.0091    0.6422   21.1524 H   0  0  0  0  0  0  0  0  0  0  0  0
    4.8022    1.3150   19.0966 C   0  0  0  0  0  0  0  0  0  0  0  0
    3.8704    1.8455   19.2545 H   0  0  0  0  0  0  0  0  0  0  0  0
  1  2  1  0
  2  3  2  0
  3  4  1  0
  4  5  1  0
  4  6  2  0
  6  7  1  0
  7  8  1  0
  8  9  1  0
  8 10  2  0
 10 11  1  0
 11 12  1  0
 12 13  1  0
 13 14  1  0
 13 15  1  0
 13 16  1  0
 16 17  1  0
 16 18  1  0
 16 19  1  0
 19 20  1  0
 20 21  2  0
 21 22  1  0
 21 23  1  0
 23 24  1  0
 23 25  2  0
 25 26  1  0
 25 27  1  0
 27 28  1  0
 27 29  2  0
 29 30  1  0
 19 31  1  0
 31 32  1  0
 31 33  1  0
 31 34  1  0
 34 35  1  0
 34 36  1  0
 11 37  1  0
 37 38  1  0
  6 39  1  0
 39 40  1  0
 39 41  2  0
 41 42  1  0
 41  2  1  0
 37  7  2  0
 34 12  1  0
 29 20  1  0
M  END
>  <cnnaffinity>  (1) 
-5.07798

>  <filename>  (1) 
c1ccc(N2CCN(n3cc(-c4cccnc4)cn3)CC2)cc1

$$$$
