
     RDKit          3D

 37 39  0  0  0  0  0  0  0  0999 V2000
    6.9215    5.3111   28.0721 H   0  0  0  0  0  0  0  0  0  0  0  0
    6.6719    5.5172   27.0327 C   0  0  0  0  0  0  0  0  0  0  0  0
    6.8918    4.5142   26.1797 N   0  0  0  0  0  0  0  0  0  0  0  0
    6.6299    4.7436   24.8836 C   0  0  0  0  0  0  0  0  0  0  0  0
    6.9332    3.7171   24.0034 N   0  0  0  0  0  0  0  0  0  0  0  0
    6.6014    2.3201   24.3346 C   0  0  0  0  0  0  0  0  0  0  0  0
    5.5859    2.0530   23.9917 H   0  0  0  0  0  0  0  0  0  0  0  0
    6.6327    2.1852   25.4173 H   0  0  0  0  0  0  0  0  0  0  0  0
    7.5784    1.3348   23.6934 C   0  0  0  0  0  0  0  0  0  0  0  0
    7.2523    0.3155   23.8963 H   0  0  0  0  0  0  0  0  0  0  0  0
    8.5817    1.4514   24.1264 H   0  0  0  0  0  0  0  0  0  0  0  0
    7.6387    1.5429   22.2451 N   0  0  0  0  0  0  0  0  0  0  0  0
    8.5167    0.5213   21.6762 N   0  0  0  0  0  0  0  0  0  0  0  0
    8.9535    0.8867   20.8234 H   0  0  0  0  0  0  0  0  0  0  0  0
    7.5783   -0.8746   21.1437 S   0  0  0  0  0  0  0  0  0  0  0  0
    6.6277   -0.0327   19.8871 C   0  0  0  0  0  0  0  0  0  0  0  0
    7.1655    0.0527   18.5918 C   0  0  0  0  0  0  0  0  0  0  0  0
    8.1173   -0.4304   18.3784 H   0  0  0  0  0  0  0  0  0  0  0  0
    6.5667    0.6854   17.5755 N   0  0  0  0  0  0  0  0  0  0  0  0
    5.3983    1.2963   17.8364 C   0  0  0  0  0  0  0  0  0  0  0  0
    4.9208    1.7859   16.9916 H   0  0  0  0  0  0  0  0  0  0  0  0
    4.7998    1.3077   19.1042 C   0  0  0  0  0  0  0  0  0  0  0  0
    3.8714    1.8454   19.2530 H   0  0  0  0  0  0  0  0  0  0  0  0
    5.4272    0.6329   20.1601 C   0  0  0  0  0  0  0  0  0  0  0  0
    5.0290    0.6322   21.1798 H   0  0  0  0  0  0  0  0  0  0  0  0
    8.1237    2.9051   21.9872 C   0  0  0  0  0  0  0  0  0  0  0  0
    9.1393    3.0678   22.3857 H   0  0  0  0  0  0  0  0  0  0  0  0
    8.2047    3.0042   20.9142 H   0  0  0  0  0  0  0  0  0  0  0  0
    7.1528    3.9454   22.5662 C   0  0  0  0  0  0  0  0  0  0  0  0
    7.5935    4.9350   22.4041 H   0  0  0  0  0  0  0  0  0  0  0  0
    6.2173    3.9042   21.9847 H   0  0  0  0  0  0  0  0  0  0  0  0
    6.0774    5.9664   24.4299 C   0  0  0  0  0  0  0  0  0  0  0  0
    5.8412    6.0699   23.3817 H   0  0  0  0  0  0  0  0  0  0  0  0
    5.8217    6.9828   25.3447 C   0  0  0  0  0  0  0  0  0  0  0  0
    5.3910    7.9321   25.0183 H   0  0  0  0  0  0  0  0  0  0  0  0
    6.1381    6.7557   26.6856 C   0  0  0  0  0  0  0  0  0  0  0  0
    5.9612    7.5076   27.4446 H   0  0  0  0  0  0  0  0  0  0  0  0
  1  2  1  0
  2  3  2  0
  3  4  1  0
  4  5  1  0
  5  6  1  0
  6  7  1  0
  6  8  1  0
  6  9  1  0
  9 10  1  0
  9 11  1  0
  9 12  1  0
 12 13  1  0
 13 14  1  0
 13 15  1  0
 15 16  1  0
 16 17  2  0
 17 18  1  0
 17 19  1  0
 19 20  2  0
 20 21  1  0
 20 22  1  0
 22 23  1  0
 22 24  2  0
 24 25  1  0
 12 26  1  0
 26 27  1  0
 26 28  1  0
 26 29  1  0
 29 30  1  0
 29 31  1  0
  4 32  2  0
 32 33  1  0
 32 34  1  0
 34 35  1  0
 34 36  2  0
 36 37  1  0
 36  2  1  0
 29  5  1  0
 24 16  1  0
M  END
>  <cnnaffinity>  (1) 
-4.67835

>  <filename>  (1) 
c1ccc(N2CCN(NSc3cccnc3)CC2)nc1

$$$$
