
     RDKit          3D

 37 39  0  0  0  0  0  0  0  0999 V2000
    4.9682    1.8399   16.9775 H   0  0  0  0  0  0  0  0  0  0  0  0
    5.4235    1.3193   17.8168 C   0  0  0  0  0  0  0  0  0  0  0  0
    6.5662    0.6653   17.5515 N   0  0  0  0  0  0  0  0  0  0  0  0
    7.1585    0.0227   18.5677 C   0  0  0  0  0  0  0  0  0  0  0  0
    8.0823   -0.5118   18.3399 H   0  0  0  0  0  0  0  0  0  0  0  0
    6.6403   -0.0094   19.8830 C   0  0  0  0  0  0  0  0  0  0  0  0
    7.2962   -0.6933   20.9593 N   0  0  0  0  0  0  0  0  0  0  0  0
    6.7828   -1.6981   21.7437 C   0  0  0  0  0  0  0  0  0  0  0  0
    5.7663   -2.0512   21.6481 H   0  0  0  0  0  0  0  0  0  0  0  0
    7.6698   -2.1415   22.5875 N   0  0  0  0  0  0  0  0  0  0  0  0
    8.8097   -1.3973   22.4004 N   0  0  0  0  0  0  0  0  0  0  0  0
    8.5764   -0.5248   21.4505 C   0  0  0  0  0  0  0  0  0  0  0  0
    9.4880    0.5680   20.9891 C   0  0  0  0  0  0  0  0  0  0  0  0
    9.6413    0.4557   19.9112 H   0  0  0  0  0  0  0  0  0  0  0  0
   10.4550    0.4103   21.4791 H   0  0  0  0  0  0  0  0  0  0  0  0
    8.9573    1.9915   21.2546 C   0  0  0  0  0  0  0  0  0  0  0  0
    9.6814    2.7249   20.8806 H   0  0  0  0  0  0  0  0  0  0  0  0
    8.0262    2.1539   20.6980 H   0  0  0  0  0  0  0  0  0  0  0  0
    8.6704    2.2891   22.7265 C   0  0  0  0  0  0  0  0  0  0  0  0
    7.9178    1.5947   23.1195 H   0  0  0  0  0  0  0  0  0  0  0  0
    8.2686    3.3069   22.8312 H   0  0  0  0  0  0  0  0  0  0  0  0
    9.7735    2.0946   23.6023 O   0  0  0  0  0  0  0  0  0  0  0  0
   10.9769    2.6868   23.3450 C   0  0  0  0  0  0  0  0  0  0  0  0
   11.1027    4.0312   22.9717 C   0  0  0  0  0  0  0  0  0  0  0  0
   10.2010    4.6165   22.7741 H   0  0  0  0  0  0  0  0  0  0  0  0
   12.3853    4.5780   22.8200 C   0  0  0  0  0  0  0  0  0  0  0  0
   12.4843    5.6306   22.5617 H   0  0  0  0  0  0  0  0  0  0  0  0
   13.5252    3.7864   23.0018 C   0  0  0  0  0  0  0  0  0  0  0  0
   14.5274    4.1992   22.8825 H   0  0  0  0  0  0  0  0  0  0  0  0
   13.3831    2.4384   23.3510 C   0  0  0  0  0  0  0  0  0  0  0  0
   14.2541    1.7972   23.4556 H   0  0  0  0  0  0  0  0  0  0  0  0
   12.1154    1.8884   23.5324 C   0  0  0  0  0  0  0  0  0  0  0  0
   11.9939    0.8412   23.8091 H   0  0  0  0  0  0  0  0  0  0  0  0
    5.4358    0.6550   20.1374 C   0  0  0  0  0  0  0  0  0  0  0  0
    5.0276    0.6521   21.1523 H   0  0  0  0  0  0  0  0  0  0  0  0
    4.8212    1.3386   19.0819 C   0  0  0  0  0  0  0  0  0  0  0  0
    3.8962    1.8873   19.2293 H   0  0  0  0  0  0  0  0  0  0  0  0
  1  2  1  0
  2  3  2  0
  3  4  1  0
  4  5  1  0
  4  6  2  0
  6  7  1  0
  7  8  1  0
  8  9  1  0
  8 10  2  0
 10 11  1  0
 11 12  2  0
 12 13  1  0
 13 14  1  0
 13 15  1  0
 13 16  1  0
 16 17  1  0
 16 18  1  0
 16 19  1  0
 19 20  1  0
 19 21  1  0
 19 22  1  0
 22 23  1  0
 23 24  2  0
 24 25  1  0
 24 26  1  0
 26 27  1  0
 26 28  2  0
 28 29  1  0
 28 30  1  0
 30 31  1  0
 30 32  2  0
 32 33  1  0
  6 34  1  0
 34 35  1  0
 34 36  2  0
 36 37  1  0
 36  2  1  0
 12  7  1  0
 32 23  1  0
M  END
>  <cnnaffinity>  (1) 
-5.0843

>  <filename>  (1) 
c1ccc(OCCCc2nncn2-c2cccnc2)cc1

$$$$
