
     RDKit          3D

 35 38  0  0  0  0  0  0  0  0999 V2000
    4.9475    1.8234   16.9759 H   0  0  0  0  0  0  0  0  0  0  0  0
    5.4021    1.2945   17.8117 C   0  0  0  0  0  0  0  0  0  0  0  0
    6.5623    0.6657   17.5587 N   0  0  0  0  0  0  0  0  0  0  0  0
    7.1511    0.0164   18.5671 C   0  0  0  0  0  0  0  0  0  0  0  0
    8.1051   -0.4561   18.3309 H   0  0  0  0  0  0  0  0  0  0  0  0
    6.6222   -0.0346   19.8683 C   0  0  0  0  0  0  0  0  0  0  0  0
    7.3546   -0.6924   20.9546 C   0  0  0  0  0  0  0  0  0  0  0  0
    8.0786   -1.7883   20.7355 N   0  0  0  0  0  0  0  0  0  0  0  0
    8.5566   -2.0930   21.9395 N   0  0  0  0  0  0  0  0  0  0  0  0
    8.2320   -1.2576   22.9226 C   0  0  0  0  0  0  0  0  0  0  0  0
    7.4468   -0.2875   22.3254 C   0  0  0  0  0  0  0  0  0  0  0  0
    7.0820    0.9594   22.9718 C   0  0  0  0  0  0  0  0  0  0  0  0
    6.6062    0.9267   24.2866 C   0  0  0  0  0  0  0  0  0  0  0  0
    6.4812   -0.0394   24.7718 H   0  0  0  0  0  0  0  0  0  0  0  0
    6.2892    2.1119   24.9436 C   0  0  0  0  0  0  0  0  0  0  0  0
    5.9059    2.0755   25.9577 H   0  0  0  0  0  0  0  0  0  0  0  0
    6.4716    3.3382   24.2921 C   0  0  0  0  0  0  0  0  0  0  0  0
    6.2188    4.2623   24.7984 H   0  0  0  0  0  0  0  0  0  0  0  0
    6.9723    3.3750   22.9842 C   0  0  0  0  0  0  0  0  0  0  0  0
    7.1231    4.3190   22.4706 H   0  0  0  0  0  0  0  0  0  0  0  0
    7.2784    2.1893   22.3256 C   0  0  0  0  0  0  0  0  0  0  0  0
    7.6763    2.1900   21.3134 H   0  0  0  0  0  0  0  0  0  0  0  0
    9.0704   -1.5064   24.1523 C   0  0  0  0  0  0  0  0  0  0  0  0
    9.6708   -0.6123   24.3666 H   0  0  0  0  0  0  0  0  0  0  0  0
    8.4606   -1.7105   25.0413 H   0  0  0  0  0  0  0  0  0  0  0  0
    9.9398   -2.7265   23.7263 C   0  0  0  0  0  0  0  0  0  0  0  0
   11.0008   -2.4978   23.7829 H   0  0  0  0  0  0  0  0  0  0  0  0
    9.7547   -3.5984   24.3519 H   0  0  0  0  0  0  0  0  0  0  0  0
    9.5642   -3.0597   22.2564 C   0  0  0  0  0  0  0  0  0  0  0  0
    9.1407   -4.0615   22.1439 H   0  0  0  0  0  0  0  0  0  0  0  0
   10.4011   -2.9083   21.5707 H   0  0  0  0  0  0  0  0  0  0  0  0
    5.4079    0.6233   20.1127 C   0  0  0  0  0  0  0  0  0  0  0  0
    4.9936    0.6468   21.1210 H   0  0  0  0  0  0  0  0  0  0  0  0
    4.7867    1.2967   19.0665 C   0  0  0  0  0  0  0  0  0  0  0  0
    3.8622    1.8460   19.2223 H   0  0  0  0  0  0  0  0  0  0  0  0
  1  2  1  0
  2  3  2  0
  3  4  1  0
  4  5  1  0
  4  6  2  0
  6  7  1  0
  7  8  2  0
  8  9  1  0
  9 10  1  0
 10 11  2  0
 11 12  1  0
 12 13  2  0
 13 14  1  0
 13 15  1  0
 15 16  1  0
 15 17  2  0
 17 18  1  0
 17 19  1  0
 19 20  1  0
 19 21  2  0
 21 22  1  0
 10 23  1  0
 23 24  1  0
 23 25  1  0
 23 26  1  0
 26 27  1  0
 26 28  1  0
 26 29  1  0
 29 30  1  0
 29 31  1  0
  6 32  1  0
 32 33  1  0
 32 34  2  0
 34 35  1  0
 34  2  1  0
 11  7  1  0
 21 12  1  0
 29  9  1  0
M  END
>  <cnnaffinity>  (1) 
-5.24066

>  <filename>  (1) 
c1ccc(-c2c(-c3cccnc3)nn3c2CCC3)cc1

$$$$
