
     RDKit          3D

 36 38  0  0  0  0  0  0  0  0999 V2000
    4.9883    1.8091   16.9425 H   0  0  0  0  0  0  0  0  0  0  0  0
    5.4499    1.3191   17.7960 C   0  0  0  0  0  0  0  0  0  0  0  0
    6.6206    0.7060   17.5602 N   0  0  0  0  0  0  0  0  0  0  0  0
    7.2164    0.1041   18.6002 C   0  0  0  0  0  0  0  0  0  0  0  0
    8.1649   -0.3868   18.3862 H   0  0  0  0  0  0  0  0  0  0  0  0
    6.6856    0.0656   19.9122 C   0  0  0  0  0  0  0  0  0  0  0  0
    7.3368   -0.6259   21.0472 C   0  0  0  0  0  0  0  0  0  0  0  0
    6.8358   -1.5843   21.8910 C   0  0  0  0  0  0  0  0  0  0  0  0
    5.8195   -1.9579   21.9132 H   0  0  0  0  0  0  0  0  0  0  0  0
    7.7993   -2.0789   22.7325 N   0  0  0  0  0  0  0  0  0  0  0  0
    8.8878   -1.4064   22.4298 C   0  0  0  0  0  0  0  0  0  0  0  0
    9.8486   -1.5271   22.9139 H   0  0  0  0  0  0  0  0  0  0  0  0
    8.6661   -0.4887   21.4249 N   0  0  0  0  0  0  0  0  0  0  0  0
    9.5441    0.4679   20.8328 N   0  0  0  0  0  0  0  0  0  0  0  0
    8.8941    1.1555   20.4457 H   0  0  0  0  0  0  0  0  0  0  0  0
   10.4433    1.1963   21.7470 C   0  0  0  0  0  0  0  0  0  0  0  0
   11.2487    0.5133   22.0606 H   0  0  0  0  0  0  0  0  0  0  0  0
   10.9193    1.9602   21.1150 H   0  0  0  0  0  0  0  0  0  0  0  0
    9.7755    1.8700   22.9638 C   0  0  0  0  0  0  0  0  0  0  0  0
    9.3062    1.1036   23.5905 H   0  0  0  0  0  0  0  0  0  0  0  0
   10.5681    2.3032   23.5780 H   0  0  0  0  0  0  0  0  0  0  0  0
    8.7605    2.9385   22.6218 C   0  0  0  0  0  0  0  0  0  0  0  0
    9.1413    4.2858   22.5182 C   0  0  0  0  0  0  0  0  0  0  0  0
   10.1661    4.5623   22.7650 H   0  0  0  0  0  0  0  0  0  0  0  0
    8.2280    5.2452   22.0597 C   0  0  0  0  0  0  0  0  0  0  0  0
    8.5365    6.2846   21.9599 H   0  0  0  0  0  0  0  0  0  0  0  0
    6.9344    4.8731   21.6914 C   0  0  0  0  0  0  0  0  0  0  0  0
    6.2479    5.6123   21.2792 H   0  0  0  0  0  0  0  0  0  0  0  0
    6.5234    3.5440   21.8590 C   0  0  0  0  0  0  0  0  0  0  0  0
    5.5063    3.2464   21.6087 H   0  0  0  0  0  0  0  0  0  0  0  0
    7.4237    2.5943   22.3467 C   0  0  0  0  0  0  0  0  0  0  0  0
    7.0993    1.5684   22.5225 H   0  0  0  0  0  0  0  0  0  0  0  0
    5.4516    0.6965   20.1176 C   0  0  0  0  0  0  0  0  0  0  0  0
    5.0223    0.7073   21.1202 H   0  0  0  0  0  0  0  0  0  0  0  0
    4.8240    1.3369   19.0479 C   0  0  0  0  0  0  0  0  0  0  0  0
    3.8807    1.8564   19.1741 H   0  0  0  0  0  0  0  0  0  0  0  0
  1  2  1  0
  2  3  2  0
  3  4  1  0
  4  5  1  0
  4  6  2  0
  6  7  1  0
  7  8  2  0
  8  9  1  0
  8 10  1  0
 10 11  2  0
 11 12  1  0
 11 13  1  0
 13 14  1  0
 14 15  1  0
 14 16  1  0
 16 17  1  0
 16 18  1  0
 16 19  1  0
 19 20  1  0
 19 21  1  0
 19 22  1  0
 22 23  2  0
 23 24  1  0
 23 25  1  0
 25 26  1  0
 25 27  2  0
 27 28  1  0
 27 29  1  0
 29 30  1  0
 29 31  2  0
 31 32  1  0
  6 33  1  0
 33 34  1  0
 33 35  2  0
 35 36  1  0
 35  2  1  0
 13  7  1  0
 31 22  1  0
M  END
>  <cnnaffinity>  (1) 
-5.0521

>  <filename>  (1) 
c1ccc(CCNn2cncc2-c2cccnc2)cc1

$$$$
