
     RDKit          3D

 31 34  0  0  0  0  0  0  0  0999 V2000
    5.0817    1.6710   17.3705 H   0  0  0  0  0  0  0  0  0  0  0  0
    5.5427    0.9811   18.0731 C   0  0  0  0  0  0  0  0  0  0  0  0
    6.6326    0.3290   17.6372 N   0  0  0  0  0  0  0  0  0  0  0  0
    7.2750   -0.4418   18.5220 C   0  0  0  0  0  0  0  0  0  0  0  0
    8.1312   -0.9879   18.1278 H   0  0  0  0  0  0  0  0  0  0  0  0
    6.9142   -0.5731   19.8839 C   0  0  0  0  0  0  0  0  0  0  0  0
    7.8667   -1.1215   20.8762 C   0  0  0  0  0  0  0  0  0  0  0  0
    9.2385   -0.9994   20.9957 C   0  0  0  0  0  0  0  0  0  0  0  0
    9.9149   -0.6137   20.2509 H   0  0  0  0  0  0  0  0  0  0  0  0
    9.7217   -1.4109   22.2113 N   0  0  0  0  0  0  0  0  0  0  0  0
    8.6417   -1.7965   22.8405 C   0  0  0  0  0  0  0  0  0  0  0  0
    8.2485   -2.4951   24.3759 S   0  0  0  0  0  0  0  0  0  0  0  0
    6.5613   -2.5197   23.8325 C   0  0  0  0  0  0  0  0  0  0  0  0
    5.2296   -3.0656   24.8649 S   0  0  0  0  0  0  0  0  0  0  0  0
    4.9934   -1.6078   25.8928 C   0  0  0  0  0  0  0  0  0  0  0  0
    5.8845   -1.2871   26.9325 C   0  0  0  0  0  0  0  0  0  0  0  0
    6.7364   -1.9286   27.1429 H   0  0  0  0  0  0  0  0  0  0  0  0
    5.6590   -0.1377   27.7023 C   0  0  0  0  0  0  0  0  0  0  0  0
    6.3606    0.1255   28.4911 H   0  0  0  0  0  0  0  0  0  0  0  0
    4.5545    0.6812   27.4424 C   0  0  0  0  0  0  0  0  0  0  0  0
    4.3829    1.5646   28.0468 H   0  0  0  0  0  0  0  0  0  0  0  0
    3.6533    0.3538   26.4230 C   0  0  0  0  0  0  0  0  0  0  0  0
    2.8072    1.0016   26.1975 H   0  0  0  0  0  0  0  0  0  0  0  0
    3.8685   -0.8010   25.6648 C   0  0  0  0  0  0  0  0  0  0  0  0
    3.1623   -1.0815   24.8922 H   0  0  0  0  0  0  0  0  0  0  0  0
    6.3431   -2.1136   22.6274 N   0  0  0  0  0  0  0  0  0  0  0  0
    7.5020   -1.6615   22.1008 N   0  0  0  0  0  0  0  0  0  0  0  0
    5.6849   -0.0016   20.2673 C   0  0  0  0  0  0  0  0  0  0  0  0
    5.2869   -0.1840   21.2657 H   0  0  0  0  0  0  0  0  0  0  0  0
    5.0104    0.8073   19.3553 C   0  0  0  0  0  0  0  0  0  0  0  0
    4.1011    1.3271   19.6309 H   0  0  0  0  0  0  0  0  0  0  0  0
  1  2  1  0
  2  3  2  0
  3  4  1  0
  4  5  1  0
  4  6  2  0
  6  7  1  0
  7  8  2  0
  8  9  1  0
  8 10  1  0
 10 11  2  0
 11 12  1  0
 12 13  1  0
 13 14  1  0
 14 15  1  0
 15 16  2  0
 16 17  1  0
 16 18  1  0
 18 19  1  0
 18 20  2  0
 20 21  1  0
 20 22  1  0
 22 23  1  0
 22 24  2  0
 24 25  1  0
 13 26  2  0
 26 27  1  0
  6 28  1  0
 28 29  1  0
 28 30  2  0
 30 31  1  0
 30  2  1  0
 27  7  1  0
 27 11  1  0
 24 15  1  0
M  END
>  <cnnaffinity>  (1) 
-5.13456

>  <filename>  (1) 
c1ccc(Sc2nn3c(-c4cccnc4)cnc3s2)cc1

$$$$
