
     RDKit          3D

 36 39  0  0  0  0  0  0  0  0999 V2000
    4.9522    1.7992   16.9806 H   0  0  0  0  0  0  0  0  0  0  0  0
    5.4033    1.2917   17.8321 C   0  0  0  0  0  0  0  0  0  0  0  0
    6.5613    0.6574   17.5914 N   0  0  0  0  0  0  0  0  0  0  0  0
    7.1564    0.0351   18.6124 C   0  0  0  0  0  0  0  0  0  0  0  0
    8.0989   -0.4566   18.3824 H   0  0  0  0  0  0  0  0  0  0  0  0
    6.6408    0.0147   19.9178 C   0  0  0  0  0  0  0  0  0  0  0  0
    7.3694   -0.6762   20.9753 C   0  0  0  0  0  0  0  0  0  0  0  0
    8.0336   -1.8603   20.7417 N   0  0  0  0  0  0  0  0  0  0  0  0
    8.4840   -2.1934   21.9215 C   0  0  0  0  0  0  0  0  0  0  0  0
    9.3003   -3.5590   22.6172 S   0  0  0  0  0  0  0  0  0  0  0  0
    9.4403   -2.7265   24.1474 C   0  0  0  0  0  0  0  0  0  0  0  0
    9.9968   -3.2030   24.9462 H   0  0  0  0  0  0  0  0  0  0  0  0
    8.8059   -1.5392   24.1349 C   0  0  0  0  0  0  0  0  0  0  0  0
    8.6652   -0.8243   24.9373 H   0  0  0  0  0  0  0  0  0  0  0  0
    8.2369   -1.2618   22.8953 N   0  0  0  0  0  0  0  0  0  0  0  0
    7.5007   -0.2616   22.2863 C   0  0  0  0  0  0  0  0  0  0  0  0
    7.1067    0.9980   22.9689 C   0  0  0  0  0  0  0  0  0  0  0  0
    7.9206    1.3370   23.6372 H   0  0  0  0  0  0  0  0  0  0  0  0
    6.9902    1.7982   22.2184 H   0  0  0  0  0  0  0  0  0  0  0  0
    5.8719    0.8024   23.6962 N   0  0  0  0  0  0  0  0  0  0  0  0
    5.4596   -0.1179   23.7327 H   0  0  0  0  0  0  0  0  0  0  0  0
    5.2279    1.7858   24.4074 C   0  0  0  0  0  0  0  0  0  0  0  0
    5.7406    3.0922   24.4873 C   0  0  0  0  0  0  0  0  0  0  0  0
    6.6754    3.3077   23.9837 H   0  0  0  0  0  0  0  0  0  0  0  0
    5.0554    4.0770   25.1985 C   0  0  0  0  0  0  0  0  0  0  0  0
    5.4701    5.0847   25.2373 H   0  0  0  0  0  0  0  0  0  0  0  0
    3.8518    3.7699   25.8442 C   0  0  0  0  0  0  0  0  0  0  0  0
    3.3209    4.5398   26.3954 H   0  0  0  0  0  0  0  0  0  0  0  0
    3.3401    2.4647   25.7747 C   0  0  0  0  0  0  0  0  0  0  0  0
    2.4055    2.2190   26.2795 H   0  0  0  0  0  0  0  0  0  0  0  0
    4.0220    1.4769   25.0639 C   0  0  0  0  0  0  0  0  0  0  0  0
    3.6488    0.4579   25.0059 H   0  0  0  0  0  0  0  0  0  0  0  0
    5.4209    0.6722   20.1519 C   0  0  0  0  0  0  0  0  0  0  0  0
    4.9702    0.6740   21.1449 H   0  0  0  0  0  0  0  0  0  0  0  0
    4.7924    1.3173   19.0904 C   0  0  0  0  0  0  0  0  0  0  0  0
    3.8580    1.8508   19.2262 H   0  0  0  0  0  0  0  0  0  0  0  0
  1  2  1  0
  2  3  2  0
  3  4  1  0
  4  5  1  0
  4  6  2  0
  6  7  1  0
  7  8  1  0
  8  9  2  0
  9 10  1  0
 10 11  1  0
 11 12  1  0
 11 13  2  0
 13 14  1  0
 13 15  1  0
 15 16  1  0
 16 17  1  0
 17 18  1  0
 17 19  1  0
 17 20  1  0
 20 21  1  0
 20 22  1  0
 22 23  2  0
 23 24  1  0
 23 25  1  0
 25 26  1  0
 25 27  2  0
 27 28  1  0
 27 29  1  0
 29 30  1  0
 29 31  2  0
 31 32  1  0
  6 33  1  0
 33 34  1  0
 33 35  2  0
 35 36  1  0
 35  2  1  0
 16  7  2  0
 31 22  1  0
 15  9  1  0
M  END
>  <cnnaffinity>  (1) 
-5.323

>  <filename>  (1) 
c1ccc(NCc2c(-c3cccnc3)nc3sccn23)cc1

$$$$
