
     RDKit          3D

 42 45  0  0  0  0  0  0  0  0999 V2000
    5.1908    1.8040   16.9434 H   0  0  0  0  0  0  0  0  0  0  0  0
    5.5306    1.2311   17.8052 C   0  0  0  0  0  0  0  0  0  0  0  0
    6.6365    0.4941   17.6288 N   0  0  0  0  0  0  0  0  0  0  0  0
    7.0889   -0.1898   18.6854 C   0  0  0  0  0  0  0  0  0  0  0  0
    7.9711   -0.8000   18.5038 H   0  0  0  0  0  0  0  0  0  0  0  0
    6.5024   -0.1627   19.9614 C   0  0  0  0  0  0  0  0  0  0  0  0
    7.2051   -0.7825   21.0934 C   0  0  0  0  0  0  0  0  0  0  0  0
    6.5577   -1.4885   22.0250 N   0  0  0  0  0  0  0  0  0  0  0  0
    7.5152   -1.7925   22.9029 N   0  0  0  0  0  0  0  0  0  0  0  0
    8.7275   -1.3045   22.6049 C   0  0  0  0  0  0  0  0  0  0  0  0
    8.5959   -0.6324   21.4052 C   0  0  0  0  0  0  0  0  0  0  0  0
    9.6280    0.2737   20.7864 C   0  0  0  0  0  0  0  0  0  0  0  0
   10.6319   -0.1559   20.9118 H   0  0  0  0  0  0  0  0  0  0  0  0
    9.4600    0.3728   19.7086 H   0  0  0  0  0  0  0  0  0  0  0  0
    9.6387    1.6919   21.3613 C   0  0  0  0  0  0  0  0  0  0  0  0
    8.7070    2.1991   21.0880 H   0  0  0  0  0  0  0  0  0  0  0  0
    9.6984    1.7004   22.4616 H   0  0  0  0  0  0  0  0  0  0  0  0
   10.6884    2.4226   20.7368 O   0  0  0  0  0  0  0  0  0  0  0  0
   11.7842    2.8656   21.4089 C   0  0  0  0  0  0  0  0  0  0  0  0
   12.2976    2.2081   22.5301 C   0  0  0  0  0  0  0  0  0  0  0  0
   11.8215    1.2836   22.8478 H   0  0  0  0  0  0  0  0  0  0  0  0
   13.4087    2.7464   23.1879 C   0  0  0  0  0  0  0  0  0  0  0  0
   13.8118    2.2204   24.0483 H   0  0  0  0  0  0  0  0  0  0  0  0
   14.0016    3.9316   22.7391 C   0  0  0  0  0  0  0  0  0  0  0  0
   14.8165    4.3827   23.2985 H   0  0  0  0  0  0  0  0  0  0  0  0
   13.5298    4.5454   21.5692 C   0  0  0  0  0  0  0  0  0  0  0  0
   14.0030    5.4514   21.1875 H   0  0  0  0  0  0  0  0  0  0  0  0
   12.4418    3.9951   20.8906 C   0  0  0  0  0  0  0  0  0  0  0  0
   12.0814    4.4160   19.9578 H   0  0  0  0  0  0  0  0  0  0  0  0
    9.6902   -1.5667   23.7256 C   0  0  0  0  0  0  0  0  0  0  0  0
   10.5468   -2.1475   23.3698 H   0  0  0  0  0  0  0  0  0  0  0  0
   10.0930   -0.6282   24.1264 H   0  0  0  0  0  0  0  0  0  0  0  0
    8.8227   -2.3419   24.7688 C   0  0  0  0  0  0  0  0  0  0  0  0
    8.7976   -1.8277   25.7315 H   0  0  0  0  0  0  0  0  0  0  0  0
    9.2283   -3.3398   24.9389 H   0  0  0  0  0  0  0  0  0  0  0  0
    7.3801   -2.4440   24.1823 C   0  0  0  0  0  0  0  0  0  0  0  0
    6.6266   -1.9303   24.7869 H   0  0  0  0  0  0  0  0  0  0  0  0
    7.0366   -3.4714   24.0424 H   0  0  0  0  0  0  0  0  0  0  0  0
    5.2985    0.5434   20.1055 C   0  0  0  0  0  0  0  0  0  0  0  0
    4.7642    0.5319   21.0590 H   0  0  0  0  0  0  0  0  0  0  0  0
    4.8184    1.2610   19.0105 C   0  0  0  0  0  0  0  0  0  0  0  0
    3.9168    1.8574   19.0793 H   0  0  0  0  0  0  0  0  0  0  0  0
  1  2  1  0
  2  3  2  0
  3  4  1  0
  4  5  1  0
  4  6  2  0
  6  7  1  0
  7  8  2  0
  8  9  1  0
  9 10  1  0
 10 11  2  0
 11 12  1  0
 12 13  1  0
 12 14  1  0
 12 15  1  0
 15 16  1  0
 15 17  1  0
 15 18  1  0
 18 19  1  0
 19 20  2  0
 20 21  1  0
 20 22  1  0
 22 23  1  0
 22 24  2  0
 24 25  1  0
 24 26  1  0
 26 27  1  0
 26 28  2  0
 28 29  1  0
 10 30  1  0
 30 31  1  0
 30 32  1  0
 30 33  1  0
 33 34  1  0
 33 35  1  0
 33 36  1  0
 36 37  1  0
 36 38  1  0
  6 39  1  0
 39 40  1  0
 39 41  2  0
 41 42  1  0
 41  2  1  0
 11  7  1  0
 28 19  1  0
 36  9  1  0
M  END
>  <cnnaffinity>  (1) 
-5.89234

>  <filename>  (1) 
c1ccc(OCCc2c(-c3cccnc3)nn3c2CCC3)cc1

$$$$
