
     RDKit          3D

 41 44  0  0  0  0  0  0  0  0999 V2000
    6.5146    5.3360   28.0634 H   0  0  0  0  0  0  0  0  0  0  0  0
    7.3048    5.1958   27.3263 C   0  0  0  0  0  0  0  0  0  0  0  0
    7.1496    4.1421   26.5237 N   0  0  0  0  0  0  0  0  0  0  0  0
    8.0774    3.9541   25.5728 C   0  0  0  0  0  0  0  0  0  0  0  0
    7.8544    2.9075   24.7019 N   0  0  0  0  0  0  0  0  0  0  0  0
    7.3411    1.6278   25.1914 C   0  0  0  0  0  0  0  0  0  0  0  0
    8.1740    0.9207   25.3524 H   0  0  0  0  0  0  0  0  0  0  0  0
    6.8587    1.7773   26.1575 H   0  0  0  0  0  0  0  0  0  0  0  0
    6.3074    1.0429   24.2073 C   0  0  0  0  0  0  0  0  0  0  0  0
    6.0199    0.0310   24.5239 H   0  0  0  0  0  0  0  0  0  0  0  0
    5.4128    1.6750   24.2332 H   0  0  0  0  0  0  0  0  0  0  0  0
    6.7536    1.0138   22.8004 N   0  0  0  0  0  0  0  0  0  0  0  0
    7.3880   -0.1581   22.3685 N   0  0  0  0  0  0  0  0  0  0  0  0
    8.1672   -1.0111   23.1041 C   0  0  0  0  0  0  0  0  0  0  0  0
    8.3458   -0.8222   24.1483 H   0  0  0  0  0  0  0  0  0  0  0  0
    8.5974   -2.0303   22.4052 N   0  0  0  0  0  0  0  0  0  0  0  0
    8.0848   -1.8139   21.1547 C   0  0  0  0  0  0  0  0  0  0  0  0
    8.2668   -2.5368   20.3861 H   0  0  0  0  0  0  0  0  0  0  0  0
    7.3416   -0.6610   21.0708 C   0  0  0  0  0  0  0  0  0  0  0  0
    6.6496    0.0415   19.9563 C   0  0  0  0  0  0  0  0  0  0  0  0
    7.1724    0.0770   18.6441 C   0  0  0  0  0  0  0  0  0  0  0  0
    8.1234   -0.4090   18.4394 H   0  0  0  0  0  0  0  0  0  0  0  0
    6.5922    0.6881   17.6005 N   0  0  0  0  0  0  0  0  0  0  0  0
    5.4234    1.3079   17.8244 C   0  0  0  0  0  0  0  0  0  0  0  0
    4.9551    1.7876   16.9664 H   0  0  0  0  0  0  0  0  0  0  0  0
    4.8085    1.3482   19.0797 C   0  0  0  0  0  0  0  0  0  0  0  0
    3.8616    1.8615   19.2043 H   0  0  0  0  0  0  0  0  0  0  0  0
    5.4395    0.7329   20.1593 C   0  0  0  0  0  0  0  0  0  0  0  0
    5.0359    0.7931   21.1686 H   0  0  0  0  0  0  0  0  0  0  0  0
    7.4160    2.2573   22.3501 C   0  0  0  0  0  0  0  0  0  0  0  0
    7.9158    2.0716   21.3902 H   0  0  0  0  0  0  0  0  0  0  0  0
    6.6250    2.9983   22.1697 H   0  0  0  0  0  0  0  0  0  0  0  0
    8.4385    2.8278   23.3609 C   0  0  0  0  0  0  0  0  0  0  0  0
    9.3419    2.1927   23.3566 H   0  0  0  0  0  0  0  0  0  0  0  0
    8.7302    3.8216   23.0067 H   0  0  0  0  0  0  0  0  0  0  0  0
    9.2287    4.7621   25.4546 C   0  0  0  0  0  0  0  0  0  0  0  0
    9.9547    4.4965   24.6964 H   0  0  0  0  0  0  0  0  0  0  0  0
    9.3941    5.8288   26.3268 C   0  0  0  0  0  0  0  0  0  0  0  0
   10.2802    6.4617   26.2544 H   0  0  0  0  0  0  0  0  0  0  0  0
    8.3949    6.0673   27.2817 C   0  0  0  0  0  0  0  0  0  0  0  0
    8.4512    6.9024   27.9674 H   0  0  0  0  0  0  0  0  0  0  0  0
  1  2  1  0
  2  3  2  0
  3  4  1  0
  4  5  1  0
  5  6  1  0
  6  7  1  0
  6  8  1  0
  6  9  1  0
  9 10  1  0
  9 11  1  0
  9 12  1  0
 12 13  1  0
 13 14  1  0
 14 15  1  0
 14 16  2  0
 16 17  1  0
 17 18  1  0
 17 19  2  0
 19 20  1  0
 20 21  2  0
 21 22  1  0
 21 23  1  0
 23 24  2  0
 24 25  1  0
 24 26  1  0
 26 27  1  0
 26 28  2  0
 28 29  1  0
 12 30  1  0
 30 31  1  0
 30 32  1  0
 30 33  1  0
 33 34  1  0
 33 35  1  0
  4 36  2  0
 36 37  1  0
 36 38  1  0
 38 39  1  0
 38 40  2  0
 40 41  1  0
 40  2  1  0
 33  5  1  0
 19 13  1  0
 28 20  1  0
M  END
>  <cnnaffinity>  (1) 
-5.23489

>  <filename>  (1) 
c1ccc(N2CCN(n3cncc3-c3cccnc3)CC2)nc1

$$$$
