
     RDKit          3D

 40 44  0  0  0  0  0  0  0  0999 V2000
    4.9455    1.7808   16.9753 H   0  0  0  0  0  0  0  0  0  0  0  0
    5.4027    1.2902   17.8319 C   0  0  0  0  0  0  0  0  0  0  0  0
    6.5639    0.6605   17.5978 N   0  0  0  0  0  0  0  0  0  0  0  0
    7.1562    0.0840   18.6471 C   0  0  0  0  0  0  0  0  0  0  0  0
    8.1014   -0.4111   18.4279 H   0  0  0  0  0  0  0  0  0  0  0  0
    6.6558    0.1056   19.9653 C   0  0  0  0  0  0  0  0  0  0  0  0
    7.4366   -0.5883   21.0093 C   0  0  0  0  0  0  0  0  0  0  0  0
    8.3010   -1.6076   20.8378 C   0  0  0  0  0  0  0  0  0  0  0  0
    8.7181   -1.9603   19.9135 H   0  0  0  0  0  0  0  0  0  0  0  0
    8.8750   -2.3015   22.3263 S   0  0  0  0  0  0  0  0  0  0  0  0
    8.0817   -1.0399   23.2030 C   0  0  0  0  0  0  0  0  0  0  0  0
    8.1069   -0.5460   24.4180 N   0  0  0  0  0  0  0  0  0  0  0  0
    7.3442    0.5765   24.2695 C   0  0  0  0  0  0  0  0  0  0  0  0
    7.0924    1.5215   25.3740 C   0  0  0  0  0  0  0  0  0  0  0  0
    7.6478    1.3058   26.6502 C   0  0  0  0  0  0  0  0  0  0  0  0
    8.2784    0.4344   26.8187 H   0  0  0  0  0  0  0  0  0  0  0  0
    7.3916    2.2081   27.6822 C   0  0  0  0  0  0  0  0  0  0  0  0
    7.8165    2.0298   28.6676 H   0  0  0  0  0  0  0  0  0  0  0  0
    6.5873    3.3319   27.4581 C   0  0  0  0  0  0  0  0  0  0  0  0
    6.3938    4.0369   28.2647 H   0  0  0  0  0  0  0  0  0  0  0  0
    6.0377    3.5714   26.1814 C   0  0  0  0  0  0  0  0  0  0  0  0
    5.1830    4.7670   25.9113 C   0  0  0  0  0  0  0  0  0  0  0  0
    5.3188    5.5088   24.7196 C   0  0  0  0  0  0  0  0  0  0  0  0
    6.0557    5.2012   23.9788 H   0  0  0  0  0  0  0  0  0  0  0  0
    4.5255    6.6369   24.4876 C   0  0  0  0  0  0  0  0  0  0  0  0
    4.6454    7.2044   23.5668 H   0  0  0  0  0  0  0  0  0  0  0  0
    3.5711    7.0275   25.4336 C   0  0  0  0  0  0  0  0  0  0  0  0
    2.9539    7.9042   25.2548 H   0  0  0  0  0  0  0  0  0  0  0  0
    3.4085    6.2857   26.6086 C   0  0  0  0  0  0  0  0  0  0  0  0
    2.6675    6.5811   27.3461 H   0  0  0  0  0  0  0  0  0  0  0  0
    4.2085    5.1644   26.8419 C   0  0  0  0  0  0  0  0  0  0  0  0
    4.0677    4.5695   27.7420 H   0  0  0  0  0  0  0  0  0  0  0  0
    6.2985    2.6571   25.1526 C   0  0  0  0  0  0  0  0  0  0  0  0
    5.8699    2.8147   24.1634 H   0  0  0  0  0  0  0  0  0  0  0  0
    6.8579    0.7859   23.0483 N   0  0  0  0  0  0  0  0  0  0  0  0
    7.3359   -0.2826   22.3707 N   0  0  0  0  0  0  0  0  0  0  0  0
    5.4184    0.7458   20.1855 C   0  0  0  0  0  0  0  0  0  0  0  0
    4.9846    0.7870   21.1867 H   0  0  0  0  0  0  0  0  0  0  0  0
    4.7887    1.3370   19.0873 C   0  0  0  0  0  0  0  0  0  0  0  0
    3.8373    1.8458   19.1953 H   0  0  0  0  0  0  0  0  0  0  0  0
  1  2  1  0
  2  3  2  0
  3  4  1  0
  4  5  1  0
  4  6  2  0
  6  7  1  0
  7  8  2  0
  8  9  1  0
  8 10  1  0
 10 11  1  0
 11 12  2  0
 12 13  1  0
 13 14  1  0
 14 15  2  0
 15 16  1  0
 15 17  1  0
 17 18  1  0
 17 19  2  0
 19 20  1  0
 19 21  1  0
 21 22  1  0
 22 23  2  0
 23 24  1  0
 23 25  1  0
 25 26  1  0
 25 27  2  0
 27 28  1  0
 27 29  1  0
 29 30  1  0
 29 31  2  0
 31 32  1  0
 21 33  2  0
 33 34  1  0
 13 35  2  0
 35 36  1  0
  6 37  1  0
 37 38  1  0
 37 39  2  0
 39 40  1  0
 39  2  1  0
 36  7  1  0
 36 11  1  0
 33 14  1  0
 31 22  1  0
M  END
>  <cnnaffinity>  (1) 
-5.32149

>  <filename>  (1) 
c1ccc(-c2cccc(-c3nc4scc(-c5cccnc5)n4n3)c2)cc1

$$$$
