
     RDKit          3D

 45 47  0  0  0  0  0  0  0  0999 V2000
    4.9085    1.7925   16.9827 H   0  0  0  0  0  0  0  0  0  0  0  0
    5.3888    1.3005   17.8238 C   0  0  0  0  0  0  0  0  0  0  0  0
    6.5540    0.6864   17.5574 N   0  0  0  0  0  0  0  0  0  0  0  0
    7.1658    0.0702   18.5787 C   0  0  0  0  0  0  0  0  0  0  0  0
    8.1148   -0.4208   18.3649 H   0  0  0  0  0  0  0  0  0  0  0  0
    6.6764    0.0320   19.9066 C   0  0  0  0  0  0  0  0  0  0  0  0
    7.3783   -0.6447   20.9264 N   0  0  0  0  0  0  0  0  0  0  0  0
    7.5857   -2.0816   20.8196 C   0  0  0  0  0  0  0  0  0  0  0  0
    8.6601   -2.3364   20.8211 H   0  0  0  0  0  0  0  0  0  0  0  0
    7.1470   -2.3491   19.8621 H   0  0  0  0  0  0  0  0  0  0  0  0
    6.8738   -2.9225   21.8853 C   0  0  0  0  0  0  0  0  0  0  0  0
    6.7096   -3.9313   21.4815 H   0  0  0  0  0  0  0  0  0  0  0  0
    5.8739   -2.4725   22.0186 H   0  0  0  0  0  0  0  0  0  0  0  0
    7.6190   -3.0138   23.1402 N   0  0  0  0  0  0  0  0  0  0  0  0
    7.2420   -4.1527   23.9742 C   0  0  0  0  0  0  0  0  0  0  0  0
    7.9624   -4.2185   24.7981 H   0  0  0  0  0  0  0  0  0  0  0  0
    7.3786   -5.0650   23.3800 H   0  0  0  0  0  0  0  0  0  0  0  0
    5.8112   -4.0999   24.5251 C   0  0  0  0  0  0  0  0  0  0  0  0
    5.1060   -4.0367   23.6843 H   0  0  0  0  0  0  0  0  0  0  0  0
    5.6939   -3.1827   25.1188 H   0  0  0  0  0  0  0  0  0  0  0  0
    5.5780   -5.2646   25.3092 O   0  0  0  0  0  0  0  0  0  0  0  0
    4.3744   -5.4559   25.9220 C   0  0  0  0  0  0  0  0  0  0  0  0
    3.2783   -4.5814   25.8527 C   0  0  0  0  0  0  0  0  0  0  0  0
    3.3475   -3.6611   25.2787 H   0  0  0  0  0  0  0  0  0  0  0  0
    2.0929   -4.8991   26.5313 C   0  0  0  0  0  0  0  0  0  0  0  0
    1.2476   -4.2155   26.4744 H   0  0  0  0  0  0  0  0  0  0  0  0
    1.9851   -6.0730   27.2757 C   0  0  0  0  0  0  0  0  0  0  0  0
    1.0632   -6.3125   27.8010 H   0  0  0  0  0  0  0  0  0  0  0  0
    3.0803   -6.9427   27.3423 C   0  0  0  0  0  0  0  0  0  0  0  0
    3.0085   -7.8611   27.9203 H   0  0  0  0  0  0  0  0  0  0  0  0
    4.2671   -6.6439   26.6748 C   0  0  0  0  0  0  0  0  0  0  0  0
    5.1264   -7.3046   26.7206 H   0  0  0  0  0  0  0  0  0  0  0  0
    7.6848   -1.7299   23.8454 C   0  0  0  0  0  0  0  0  0  0  0  0
    6.6759   -1.2944   23.9935 H   0  0  0  0  0  0  0  0  0  0  0  0
    8.0892   -1.9137   24.8469 H   0  0  0  0  0  0  0  0  0  0  0  0
    8.5601   -0.6855   23.1448 C   0  0  0  0  0  0  0  0  0  0  0  0
    8.9188    0.0359   23.8884 H   0  0  0  0  0  0  0  0  0  0  0  0
    9.4459   -1.1713   22.7245 H   0  0  0  0  0  0  0  0  0  0  0  0
    7.8440    0.1230   22.0615 C   0  0  0  0  0  0  0  0  0  0  0  0
    8.5075    0.9228   21.6926 H   0  0  0  0  0  0  0  0  0  0  0  0
    6.9901    0.6473   22.5222 H   0  0  0  0  0  0  0  0  0  0  0  0
    5.4492    0.6706   20.1577 C   0  0  0  0  0  0  0  0  0  0  0  0
    5.0287    0.6269   21.1645 H   0  0  0  0  0  0  0  0  0  0  0  0
    4.8032    1.3140   19.0952 C   0  0  0  0  0  0  0  0  0  0  0  0
    3.8724    1.8419   19.2553 H   0  0  0  0  0  0  0  0  0  0  0  0
  1  2  1  0
  2  3  2  0
  3  4  1  0
  4  5  1  0
  4  6  2  0
  6  7  1  0
  7  8  1  0
  8  9  1  0
  8 10  1  0
  8 11  1  0
 11 12  1  0
 11 13  1  0
 11 14  1  0
 14 15  1  0
 15 16  1  0
 15 17  1  0
 15 18  1  0
 18 19  1  0
 18 20  1  0
 18 21  1  0
 21 22  1  0
 22 23  2  0
 23 24  1  0
 23 25  1  0
 25 26  1  0
 25 27  2  0
 27 28  1  0
 27 29  1  0
 29 30  1  0
 29 31  2  0
 31 32  1  0
 14 33  1  0
 33 34  1  0
 33 35  1  0
 33 36  1  0
 36 37  1  0
 36 38  1  0
 36 39  1  0
 39 40  1  0
 39 41  1  0
  6 42  1  0
 42 43  1  0
 42 44  2  0
 44 45  1  0
 44  2  1  0
 39  7  1  0
 31 22  1  0
M  END
>  <cnnaffinity>  (1) 
-4.91558

>  <filename>  (1) 
c1ccc(OCCN2CCCN(c3cccnc3)CC2)cc1

$$$$
