
     RDKit          3D

 39 42  0  0  0  0  0  0  0  0999 V2000
    4.9123    1.8191   16.9673 H   0  0  0  0  0  0  0  0  0  0  0  0
    5.3736    1.3070   17.8139 C   0  0  0  0  0  0  0  0  0  0  0  0
    6.5360    0.6854   17.5599 N   0  0  0  0  0  0  0  0  0  0  0  0
    7.1500    0.0784   18.5797 C   0  0  0  0  0  0  0  0  0  0  0  0
    8.1003   -0.3874   18.3270 H   0  0  0  0  0  0  0  0  0  0  0  0
    6.6643    0.0290   19.9079 C   0  0  0  0  0  0  0  0  0  0  0  0
    7.4260   -0.6682   20.9651 C   0  0  0  0  0  0  0  0  0  0  0  0
    8.3509   -1.6864   20.9087 C   0  0  0  0  0  0  0  0  0  0  0  0
    8.7658   -2.1049   20.0100 H   0  0  0  0  0  0  0  0  0  0  0  0
    8.8096   -2.0973   22.1291 N   0  0  0  0  0  0  0  0  0  0  0  0
    8.1882   -1.2896   22.9503 C   0  0  0  0  0  0  0  0  0  0  0  0
    8.2738   -0.9322   24.6390 S   0  0  0  0  0  0  0  0  0  0  0  0
    7.1579    0.3971   24.3091 C   0  0  0  0  0  0  0  0  0  0  0  0
    6.7865    1.3495   25.3891 C   0  0  0  0  0  0  0  0  0  0  0  0
    6.6331    0.7686   26.3029 H   0  0  0  0  0  0  0  0  0  0  0  0
    5.8322    1.8091   25.0997 H   0  0  0  0  0  0  0  0  0  0  0  0
    7.8695    2.4269   25.6110 C   0  0  0  0  0  0  0  0  0  0  0  0
    8.8372    1.9488   25.8269 H   0  0  0  0  0  0  0  0  0  0  0  0
    7.6031    3.0034   26.5062 H   0  0  0  0  0  0  0  0  0  0  0  0
    8.0325    3.3849   24.4153 C   0  0  0  0  0  0  0  0  0  0  0  0
    7.0607    3.8515   24.1944 H   0  0  0  0  0  0  0  0  0  0  0  0
    8.3065    2.8206   23.5118 H   0  0  0  0  0  0  0  0  0  0  0  0
    9.0671    4.4568   24.6892 C   0  0  0  0  0  0  0  0  0  0  0  0
   10.4223    4.2388   24.3963 C   0  0  0  0  0  0  0  0  0  0  0  0
   10.7170    3.3016   23.9276 H   0  0  0  0  0  0  0  0  0  0  0  0
   11.3914    5.1993   24.7071 C   0  0  0  0  0  0  0  0  0  0  0  0
   12.4352    5.0049   24.4705 H   0  0  0  0  0  0  0  0  0  0  0  0
   11.0149    6.3987   25.3224 C   0  0  0  0  0  0  0  0  0  0  0  0
   11.7648    7.1502   25.5586 H   0  0  0  0  0  0  0  0  0  0  0  0
    9.6677    6.6277   25.6267 C   0  0  0  0  0  0  0  0  0  0  0  0
    9.3610    7.5562   26.1034 H   0  0  0  0  0  0  0  0  0  0  0  0
    8.7061    5.6602   25.3148 C   0  0  0  0  0  0  0  0  0  0  0  0
    7.6592    5.8354   25.5561 H   0  0  0  0  0  0  0  0  0  0  0  0
    6.7587    0.5375   23.0909 N   0  0  0  0  0  0  0  0  0  0  0  0
    7.3409   -0.4213   22.3301 N   0  0  0  0  0  0  0  0  0  0  0  0
    5.4309    0.6684   20.1410 C   0  0  0  0  0  0  0  0  0  0  0  0
    5.0123    0.6609   21.1439 H   0  0  0  0  0  0  0  0  0  0  0  0
    4.7848    1.3156   19.0823 C   0  0  0  0  0  0  0  0  0  0  0  0
    3.8511    1.8514   19.2231 H   0  0  0  0  0  0  0  0  0  0  0  0
  1  2  1  0
  2  3  2  0
  3  4  1  0
  4  5  1  0
  4  6  2  0
  6  7  1  0
  7  8  2  0
  8  9  1  0
  8 10  1  0
 10 11  2  0
 11 12  1  0
 12 13  1  0
 13 14  1  0
 14 15  1  0
 14 16  1  0
 14 17  1  0
 17 18  1  0
 17 19  1  0
 17 20  1  0
 20 21  1  0
 20 22  1  0
 20 23  1  0
 23 24  2  0
 24 25  1  0
 24 26  1  0
 26 27  1  0
 26 28  2  0
 28 29  1  0
 28 30  1  0
 30 31  1  0
 30 32  2  0
 32 33  1  0
 13 34  2  0
 34 35  1  0
  6 36  1  0
 36 37  1  0
 36 38  2  0
 38 39  1  0
 38  2  1  0
 35  7  1  0
 35 11  1  0
 32 23  1  0
M  END
>  <cnnaffinity>  (1) 
-5.58451

>  <filename>  (1) 
c1ccc(CCCc2nn3c(-c4cccnc4)cnc3s2)cc1

$$$$
