
     RDKit          3D

 42 45  0  0  0  0  0  0  0  0999 V2000
    5.0053    1.8486   16.9268 H   0  0  0  0  0  0  0  0  0  0  0  0
    5.4264    1.3234   17.7830 C   0  0  0  0  0  0  0  0  0  0  0  0
    6.5626    0.6407   17.5665 N   0  0  0  0  0  0  0  0  0  0  0  0
    7.0980   -0.0130   18.6057 C   0  0  0  0  0  0  0  0  0  0  0  0
    8.0167   -0.5536   18.3773 H   0  0  0  0  0  0  0  0  0  0  0  0
    6.5479    0.0022   19.9036 C   0  0  0  0  0  0  0  0  0  0  0  0
    7.2126   -0.6734   21.0277 C   0  0  0  0  0  0  0  0  0  0  0  0
    7.7284   -1.8862   20.8529 N   0  0  0  0  0  0  0  0  0  0  0  0
    8.2641   -2.1777   22.0420 N   0  0  0  0  0  0  0  0  0  0  0  0
    8.1917   -1.2143   22.9758 C   0  0  0  0  0  0  0  0  0  0  0  0
    7.5003   -0.1835   22.3653 C   0  0  0  0  0  0  0  0  0  0  0  0
    7.2685    1.0327   22.9196 O   0  0  0  0  0  0  0  0  0  0  0  0
    7.5986    2.2089   22.1735 C   0  0  0  0  0  0  0  0  0  0  0  0
    7.6371    3.0025   22.9285 H   0  0  0  0  0  0  0  0  0  0  0  0
    6.7629    2.4425   21.5024 H   0  0  0  0  0  0  0  0  0  0  0  0
    8.9022    2.1477   21.3490 C   0  0  0  0  0  0  0  0  0  0  0  0
    8.7387    1.4820   20.4962 H   0  0  0  0  0  0  0  0  0  0  0  0
    9.0388    3.1471   20.9324 H   0  0  0  0  0  0  0  0  0  0  0  0
   10.1588    1.7332   22.0969 C   0  0  0  0  0  0  0  0  0  0  0  0
   10.8594    0.5544   21.7775 C   0  0  0  0  0  0  0  0  0  0  0  0
   10.5384   -0.0636   20.9412 H   0  0  0  0  0  0  0  0  0  0  0  0
   11.9877    0.1617   22.5076 C   0  0  0  0  0  0  0  0  0  0  0  0
   12.5028   -0.7695   22.2640 H   0  0  0  0  0  0  0  0  0  0  0  0
   12.4434    0.9567   23.5663 C   0  0  0  0  0  0  0  0  0  0  0  0
   13.3147    0.6522   24.1407 H   0  0  0  0  0  0  0  0  0  0  0  0
   11.7825    2.1515   23.8708 C   0  0  0  0  0  0  0  0  0  0  0  0
   12.1259    2.7694   24.6947 H   0  0  0  0  0  0  0  0  0  0  0  0
   10.6633    2.5405   23.1298 C   0  0  0  0  0  0  0  0  0  0  0  0
   10.1767    3.4925   23.3477 H   0  0  0  0  0  0  0  0  0  0  0  0
    9.0698   -1.5815   24.1553 C   0  0  0  0  0  0  0  0  0  0  0  0
    8.4944   -1.6980   25.0769 H   0  0  0  0  0  0  0  0  0  0  0  0
    9.8292   -0.8066   24.3190 H   0  0  0  0  0  0  0  0  0  0  0  0
    9.6997   -2.9445   23.7312 C   0  0  0  0  0  0  0  0  0  0  0  0
   10.7907   -2.9238   23.7947 H   0  0  0  0  0  0  0  0  0  0  0  0
    9.3565   -3.7580   24.3759 H   0  0  0  0  0  0  0  0  0  0  0  0
    9.2486   -3.1934   22.2735 C   0  0  0  0  0  0  0  0  0  0  0  0
   10.0628   -3.0327   21.5591 H   0  0  0  0  0  0  0  0  0  0  0  0
    8.8060   -4.1779   22.1203 H   0  0  0  0  0  0  0  0  0  0  0  0
    5.3543    0.7035   20.1073 C   0  0  0  0  0  0  0  0  0  0  0  0
    4.9039    0.7354   21.1012 H   0  0  0  0  0  0  0  0  0  0  0  0
    4.7805    1.3674   19.0222 C   0  0  0  0  0  0  0  0  0  0  0  0
    3.8476    1.9077   19.1304 H   0  0  0  0  0  0  0  0  0  0  0  0
  1  2  1  0
  2  3  2  0
  3  4  1  0
  4  5  1  0
  4  6  2  0
  6  7  1  0
  7  8  2  0
  8  9  1  0
  9 10  1  0
 10 11  2  0
 11 12  1  0
 12 13  1  0
 13 14  1  0
 13 15  1  0
 13 16  1  0
 16 17  1  0
 16 18  1  0
 16 19  1  0
 19 20  2  0
 20 21  1  0
 20 22  1  0
 22 23  1  0
 22 24  2  0
 24 25  1  0
 24 26  1  0
 26 27  1  0
 26 28  2  0
 28 29  1  0
 10 30  1  0
 30 31  1  0
 30 32  1  0
 30 33  1  0
 33 34  1  0
 33 35  1  0
 33 36  1  0
 36 37  1  0
 36 38  1  0
  6 39  1  0
 39 40  1  0
 39 41  2  0
 41 42  1  0
 41  2  1  0
 11  7  1  0
 28 19  1  0
 36  9  1  0
M  END
>  <cnnaffinity>  (1) 
-5.86601

>  <filename>  (1) 
c1ccc(CCOc2c(-c3cccnc3)nn3c2CCC3)cc1

$$$$
