
     RDKit          3D

 38 41  0  0  0  0  0  0  0  0999 V2000
    5.0281    1.7924   16.8963 H   0  0  0  0  0  0  0  0  0  0  0  0
    5.4550    1.2957   17.7679 C   0  0  0  0  0  0  0  0  0  0  0  0
    6.5880    0.6075   17.5664 N   0  0  0  0  0  0  0  0  0  0  0  0
    7.1326   -0.0160   18.6153 C   0  0  0  0  0  0  0  0  0  0  0  0
    8.0329   -0.5916   18.4132 H   0  0  0  0  0  0  0  0  0  0  0  0
    6.6059    0.0405   19.9179 C   0  0  0  0  0  0  0  0  0  0  0  0
    7.3200   -0.6148   21.0191 C   0  0  0  0  0  0  0  0  0  0  0  0
    7.9928   -1.8133   20.8261 N   0  0  0  0  0  0  0  0  0  0  0  0
    8.3770   -2.1550   22.0229 C   0  0  0  0  0  0  0  0  0  0  0  0
    9.1729   -3.5302   22.7468 S   0  0  0  0  0  0  0  0  0  0  0  0
    9.0903   -2.7713   24.3308 C   0  0  0  0  0  0  0  0  0  0  0  0
    9.5094   -3.2656   25.2003 H   0  0  0  0  0  0  0  0  0  0  0  0
    8.4881   -1.5710   24.2965 C   0  0  0  0  0  0  0  0  0  0  0  0
    8.3431   -0.8839   25.1259 H   0  0  0  0  0  0  0  0  0  0  0  0
    8.0591   -1.2438   23.0036 N   0  0  0  0  0  0  0  0  0  0  0  0
    7.3937   -0.2317   22.3524 C   0  0  0  0  0  0  0  0  0  0  0  0
    6.9850    0.8325   23.0545 O   0  0  0  0  0  0  0  0  0  0  0  0
    7.3622    2.1309   22.5610 C   0  0  0  0  0  0  0  0  0  0  0  0
    8.4109    2.3131   22.8335 H   0  0  0  0  0  0  0  0  0  0  0  0
    7.2918    2.1644   21.4670 H   0  0  0  0  0  0  0  0  0  0  0  0
    6.3999    3.1184   23.2034 C   0  0  0  0  0  0  0  0  0  0  0  0
    6.4468    3.0067   24.2919 H   0  0  0  0  0  0  0  0  0  0  0  0
    5.3894    2.8283   22.8827 H   0  0  0  0  0  0  0  0  0  0  0  0
    6.6673    4.5373   22.7780 C   0  0  0  0  0  0  0  0  0  0  0  0
    6.0518    5.0131   21.6148 C   0  0  0  0  0  0  0  0  0  0  0  0
    5.3446    4.3496   21.1230 H   0  0  0  0  0  0  0  0  0  0  0  0
    6.3197    6.2953   21.1200 C   0  0  0  0  0  0  0  0  0  0  0  0
    5.8177    6.6532   20.2216 H   0  0  0  0  0  0  0  0  0  0  0  0
    7.2291    7.1186   21.7958 C   0  0  0  0  0  0  0  0  0  0  0  0
    7.4633    8.1089   21.4104 H   0  0  0  0  0  0  0  0  0  0  0  0
    7.8325    6.6641   22.9766 C   0  0  0  0  0  0  0  0  0  0  0  0
    8.5269    7.3036   23.5168 H   0  0  0  0  0  0  0  0  0  0  0  0
    7.5486    5.3831   23.4682 C   0  0  0  0  0  0  0  0  0  0  0  0
    8.0043    5.0518   24.3982 H   0  0  0  0  0  0  0  0  0  0  0  0
    5.3972    0.7349   20.1061 C   0  0  0  0  0  0  0  0  0  0  0  0
    4.9061    0.7660   21.0830 H   0  0  0  0  0  0  0  0  0  0  0  0
    4.8125    1.3650   19.0085 C   0  0  0  0  0  0  0  0  0  0  0  0
    3.8731    1.8994   19.0892 H   0  0  0  0  0  0  0  0  0  0  0  0
  1  2  1  0
  2  3  2  0
  3  4  1  0
  4  5  1  0
  4  6  2  0
  6  7  1  0
  7  8  1  0
  8  9  2  0
  9 10  1  0
 10 11  1  0
 11 12  1  0
 11 13  2  0
 13 14  1  0
 13 15  1  0
 15 16  1  0
 16 17  1  0
 17 18  1  0
 18 19  1  0
 18 20  1  0
 18 21  1  0
 21 22  1  0
 21 23  1  0
 21 24  1  0
 24 25  2  0
 25 26  1  0
 25 27  1  0
 27 28  1  0
 27 29  2  0
 29 30  1  0
 29 31  1  0
 31 32  1  0
 31 33  2  0
 33 34  1  0
  6 35  1  0
 35 36  1  0
 35 37  2  0
 37 38  1  0
 37  2  1  0
 16  7  2  0
 33 24  1  0
 15  9  1  0
M  END
>  <cnnaffinity>  (1) 
-5.00176

>  <filename>  (1) 
c1ccc(CCOc2c(-c3cccnc3)nc3sccn23)cc1

$$$$
