
     RDKit          3D

 41 44  0  0  0  0  0  0  0  0999 V2000
    4.9290    1.8144   16.9722 H   0  0  0  0  0  0  0  0  0  0  0  0
    5.3971    1.3187   17.8165 C   0  0  0  0  0  0  0  0  0  0  0  0
    6.5611    0.7000   17.5656 N   0  0  0  0  0  0  0  0  0  0  0  0
    7.1575    0.0854   18.5970 C   0  0  0  0  0  0  0  0  0  0  0  0
    8.1096   -0.3936   18.3672 H   0  0  0  0  0  0  0  0  0  0  0  0
    6.6499    0.0416   19.9183 C   0  0  0  0  0  0  0  0  0  0  0  0
    7.3709   -0.6768   21.0138 C   0  0  0  0  0  0  0  0  0  0  0  0
    8.0801   -1.8573   21.0979 C   0  0  0  0  0  0  0  0  0  0  0  0
    8.2960   -2.5964   20.3681 H   0  0  0  0  0  0  0  0  0  0  0  0
    8.5051   -2.0715   22.3634 N   0  0  0  0  0  0  0  0  0  0  0  0
    8.1073   -1.0845   23.1030 N   0  0  0  0  0  0  0  0  0  0  0  0
    7.4306   -0.2484   22.3107 N   0  0  0  0  0  0  0  0  0  0  0  0
    6.8501    0.9026   22.7833 N   0  0  0  0  0  0  0  0  0  0  0  0
    6.4161    0.8688   24.1887 C   0  0  0  0  0  0  0  0  0  0  0  0
    7.2679    0.9817   24.8777 H   0  0  0  0  0  0  0  0  0  0  0  0
    5.9521   -0.1011   24.3886 H   0  0  0  0  0  0  0  0  0  0  0  0
    5.3954    1.9915   24.3418 C   0  0  0  0  0  0  0  0  0  0  0  0
    4.5328    1.7245   23.7114 H   0  0  0  0  0  0  0  0  0  0  0  0
    5.0222    2.0397   25.3692 H   0  0  0  0  0  0  0  0  0  0  0  0
    5.9796    3.2640   23.9196 N   0  0  0  0  0  0  0  0  0  0  0  0
    5.5769    4.4462   24.5399 C   0  0  0  0  0  0  0  0  0  0  0  0
    4.9914    5.5029   23.8242 C   0  0  0  0  0  0  0  0  0  0  0  0
    4.8156    5.3738   22.7579 H   0  0  0  0  0  0  0  0  0  0  0  0
    4.6438    6.6800   24.4899 C   0  0  0  0  0  0  0  0  0  0  0  0
    4.1929    7.4954   23.9299 H   0  0  0  0  0  0  0  0  0  0  0  0
    4.8916    6.8111   25.8612 C   0  0  0  0  0  0  0  0  0  0  0  0
    4.6364    7.7335   26.3708 H   0  0  0  0  0  0  0  0  0  0  0  0
    5.4764    5.7576   26.5750 C   0  0  0  0  0  0  0  0  0  0  0  0
    5.6733    5.8506   27.6397 H   0  0  0  0  0  0  0  0  0  0  0  0
    5.8030    4.5723   25.9193 C   0  0  0  0  0  0  0  0  0  0  0  0
    6.2640    3.7297   26.4303 H   0  0  0  0  0  0  0  0  0  0  0  0
    6.5068    3.2724   22.5582 C   0  0  0  0  0  0  0  0  0  0  0  0
    5.7129    3.0863   21.8149 H   0  0  0  0  0  0  0  0  0  0  0  0
    6.9601    4.2404   22.3214 H   0  0  0  0  0  0  0  0  0  0  0  0
    7.5326    2.1510   22.3948 C   0  0  0  0  0  0  0  0  0  0  0  0
    7.8386    2.0931   21.3438 H   0  0  0  0  0  0  0  0  0  0  0  0
    8.4360    2.3164   23.0028 H   0  0  0  0  0  0  0  0  0  0  0  0
    5.4222    0.7037   20.1381 C   0  0  0  0  0  0  0  0  0  0  0  0
    4.9753    0.7093   21.1313 H   0  0  0  0  0  0  0  0  0  0  0  0
    4.7855    1.3421   19.0722 C   0  0  0  0  0  0  0  0  0  0  0  0
    3.8372    1.8572   19.1989 H   0  0  0  0  0  0  0  0  0  0  0  0
  1  2  1  0
  2  3  2  0
  3  4  1  0
  4  5  1  0
  4  6  2  0
  6  7  1  0
  7  8  2  0
  8  9  1  0
  8 10  1  0
 10 11  2  0
 11 12  1  0
 12 13  1  0
 13 14  1  0
 14 15  1  0
 14 16  1  0
 14 17  1  0
 17 18  1  0
 17 19  1  0
 17 20  1  0
 20 21  1  0
 21 22  2  0
 22 23  1  0
 22 24  1  0
 24 25  1  0
 24 26  2  0
 26 27  1  0
 26 28  1  0
 28 29  1  0
 28 30  2  0
 30 31  1  0
 20 32  1  0
 32 33  1  0
 32 34  1  0
 32 35  1  0
 35 36  1  0
 35 37  1  0
  6 38  1  0
 38 39  1  0
 38 40  2  0
 40 41  1  0
 40  2  1  0
 12  7  1  0
 35 13  1  0
 30 21  1  0
M  END
>  <cnnaffinity>  (1) 
-5.02453

>  <filename>  (1) 
c1ccc(N2CCN(n3nncc3-c3cccnc3)CC2)cc1

$$$$
