
     RDKit          3D

 32 35  0  0  0  0  0  0  0  0999 V2000
    5.2602    1.6067   17.1643 H   0  0  0  0  0  0  0  0  0  0  0  0
    5.7467    1.1262   18.0120 C   0  0  0  0  0  0  0  0  0  0  0  0
    6.9575    0.6031   17.7719 N   0  0  0  0  0  0  0  0  0  0  0  0
    7.5851    0.0190   18.7899 C   0  0  0  0  0  0  0  0  0  0  0  0
    8.5769   -0.3734   18.5822 H   0  0  0  0  0  0  0  0  0  0  0  0
    7.0504   -0.1120   20.0819 C   0  0  0  0  0  0  0  0  0  0  0  0
    7.8959   -0.7966   21.0616 C   0  0  0  0  0  0  0  0  0  0  0  0
    9.2630   -0.7072   20.8833 N   0  0  0  0  0  0  0  0  0  0  0  0
    9.7565   -1.3704   21.8819 C   0  0  0  0  0  0  0  0  0  0  0  0
   11.3455   -1.8703   22.3893 S   0  0  0  0  0  0  0  0  0  0  0  0
   10.6430   -2.7338   23.7552 C   0  0  0  0  0  0  0  0  0  0  0  0
   11.2888   -3.2685   24.4407 H   0  0  0  0  0  0  0  0  0  0  0  0
    9.3049   -2.6200   23.8057 C   0  0  0  0  0  0  0  0  0  0  0  0
    8.6278   -2.9981   24.5641 H   0  0  0  0  0  0  0  0  0  0  0  0
    8.8082   -1.8834   22.7283 N   0  0  0  0  0  0  0  0  0  0  0  0
    7.5761   -1.6151   22.1528 C   0  0  0  0  0  0  0  0  0  0  0  0
    6.1595   -2.4952   22.7190 S   0  0  0  0  0  0  0  0  0  0  0  0
    5.8608   -3.6773   21.3945 C   0  0  0  0  0  0  0  0  0  0  0  0
    5.6793   -5.0358   21.6854 C   0  0  0  0  0  0  0  0  0  0  0  0
    5.7114   -5.3774   22.7161 H   0  0  0  0  0  0  0  0  0  0  0  0
    5.4930   -5.9604   20.6488 C   0  0  0  0  0  0  0  0  0  0  0  0
    5.3138   -7.0121   20.8755 H   0  0  0  0  0  0  0  0  0  0  0  0
    5.4941   -5.5280   19.3175 C   0  0  0  0  0  0  0  0  0  0  0  0
    5.3585   -6.2543   18.5205 H   0  0  0  0  0  0  0  0  0  0  0  0
    5.5982   -4.1595   19.0383 C   0  0  0  0  0  0  0  0  0  0  0  0
    5.5445   -3.7413   18.0360 H   0  0  0  0  0  0  0  0  0  0  0  0
    5.7789   -3.2458   20.0663 C   0  0  0  0  0  0  0  0  0  0  0  0
    5.8884   -2.1970   19.8281 H   0  0  0  0  0  0  0  0  0  0  0  0
    5.7774    0.4371   20.3261 C   0  0  0  0  0  0  0  0  0  0  0  0
    5.3026    0.3616   21.3081 H   0  0  0  0  0  0  0  0  0  0  0  0
    5.1285    1.0736   19.2660 C   0  0  0  0  0  0  0  0  0  0  0  0
    4.1545    1.5328   19.3882 H   0  0  0  0  0  0  0  0  0  0  0  0
  1  2  1  0
  2  3  2  0
  3  4  1  0
  4  5  1  0
  4  6  2  0
  6  7  1  0
  7  8  1  0
  8  9  2  0
  9 10  1  0
 10 11  1  0
 11 12  1  0
 11 13  2  0
 13 14  1  0
 13 15  1  0
 15 16  1  0
 16 17  1  0
 17 18  1  0
 18 19  2  0
 19 20  1  0
 19 21  1  0
 21 22  1  0
 21 23  2  0
 23 24  1  0
 23 25  1  0
 25 26  1  0
 25 27  2  0
 27 28  1  0
  6 29  1  0
 29 30  1  0
 29 31  2  0
 31 32  1  0
 31  2  1  0
 16  7  2  0
 27 18  1  0
 15  9  1  0
M  END
>  <cnnaffinity>  (1) 
-5.66946

>  <filename>  (1) 
c1ccc(Sc2c(-c3cccnc3)nc3sccn23)cc1

$$$$
