
     RDKit          3D

 37 40  0  0  0  0  0  0  0  0999 V2000
    5.0135    1.8187   16.9376 H   0  0  0  0  0  0  0  0  0  0  0  0
    5.4402    1.3029   17.7961 C   0  0  0  0  0  0  0  0  0  0  0  0
    6.5905    0.6466   17.5782 N   0  0  0  0  0  0  0  0  0  0  0  0
    7.1433    0.0204   18.6168 C   0  0  0  0  0  0  0  0  0  0  0  0
    8.0577   -0.5350   18.4213 H   0  0  0  0  0  0  0  0  0  0  0  0
    6.6153    0.0442   19.9185 C   0  0  0  0  0  0  0  0  0  0  0  0
    7.3618   -0.6639   20.9597 C   0  0  0  0  0  0  0  0  0  0  0  0
    8.0053   -1.7818   20.7477 N   0  0  0  0  0  0  0  0  0  0  0  0
    8.5410   -2.2005   21.9362 N   0  0  0  0  0  0  0  0  0  0  0  0
    8.2223   -1.3103   22.8299 C   0  0  0  0  0  0  0  0  0  0  0  0
    8.5195   -1.3402   23.8682 H   0  0  0  0  0  0  0  0  0  0  0  0
    7.4762   -0.2928   22.2847 N   0  0  0  0  0  0  0  0  0  0  0  0
    7.0118    0.8786   22.9663 C   0  0  0  0  0  0  0  0  0  0  0  0
    6.5189    0.7346   24.2718 C   0  0  0  0  0  0  0  0  0  0  0  0
    6.4754   -0.2562   24.7151 H   0  0  0  0  0  0  0  0  0  0  0  0
    6.1162    1.8601   24.9903 C   0  0  0  0  0  0  0  0  0  0  0  0
    5.8022    1.7495   26.0251 H   0  0  0  0  0  0  0  0  0  0  0  0
    6.1597    3.1256   24.3972 C   0  0  0  0  0  0  0  0  0  0  0  0
    5.8746    4.0093   24.9612 H   0  0  0  0  0  0  0  0  0  0  0  0
    6.6148    3.2840   23.0762 C   0  0  0  0  0  0  0  0  0  0  0  0
    6.6885    4.6366   22.4351 C   0  0  0  0  0  0  0  0  0  0  0  0
    5.5998    5.5333   22.4168 C   0  0  0  0  0  0  0  0  0  0  0  0
    4.6494    5.2277   22.8367 H   0  0  0  0  0  0  0  0  0  0  0  0
    5.7233    6.8169   21.8683 C   0  0  0  0  0  0  0  0  0  0  0  0
    4.8751    7.5034   21.9080 H   0  0  0  0  0  0  0  0  0  0  0  0
    6.9483    7.2259   21.3333 C   0  0  0  0  0  0  0  0  0  0  0  0
    7.0764    8.2248   20.9216 H   0  0  0  0  0  0  0  0  0  0  0  0
    8.0354    6.3447   21.3444 C   0  0  0  0  0  0  0  0  0  0  0  0
    9.0072    6.6288   20.9656 H   0  0  0  0  0  0  0  0  0  0  0  0
    7.9001    5.0638   21.8773 C   0  0  0  0  0  0  0  0  0  0  0  0
    8.7505    4.3854   21.8820 H   0  0  0  0  0  0  0  0  0  0  0  0
    7.0807    2.1510   22.3837 C   0  0  0  0  0  0  0  0  0  0  0  0
    7.4661    2.2609   21.3744 H   0  0  0  0  0  0  0  0  0  0  0  0
    5.3898    0.6945   20.1245 C   0  0  0  0  0  0  0  0  0  0  0  0
    4.9328    0.7204   21.1150 H   0  0  0  0  0  0  0  0  0  0  0  0
    4.7955    1.3314   19.0372 C   0  0  0  0  0  0  0  0  0  0  0  0
    3.8558    1.8586   19.1425 H   0  0  0  0  0  0  0  0  0  0  0  0
  1  2  1  0
  2  3  2  0
  3  4  1  0
  4  5  1  0
  4  6  2  0
  6  7  1  0
  7  8  2  0
  8  9  1  0
  9 10  2  0
 10 11  1  0
 10 12  1  0
 12 13  1  0
 13 14  2  0
 14 15  1  0
 14 16  1  0
 16 17  1  0
 16 18  2  0
 18 19  1  0
 18 20  1  0
 20 21  1  0
 21 22  2  0
 22 23  1  0
 22 24  1  0
 24 25  1  0
 24 26  2  0
 26 27  1  0
 26 28  1  0
 28 29  1  0
 28 30  2  0
 30 31  1  0
 20 32  2  0
 32 33  1  0
  6 34  1  0
 34 35  1  0
 34 36  2  0
 36 37  1  0
 36  2  1  0
 12  7  1  0
 32 13  1  0
 30 21  1  0
M  END
>  <cnnaffinity>  (1) 
-5.28429

>  <filename>  (1) 
c1ccc(-c2cccc(-n3cnnc3-c3cccnc3)c2)cc1

$$$$
