
     RDKit          3D

 36 38  0  0  0  0  0  0  0  0999 V2000
    4.9214    1.7816   16.9958 H   0  0  0  0  0  0  0  0  0  0  0  0
    5.4021    1.2913   17.8384 C   0  0  0  0  0  0  0  0  0  0  0  0
    6.5713    0.6729   17.5854 N   0  0  0  0  0  0  0  0  0  0  0  0
    7.1785    0.0527   18.5967 C   0  0  0  0  0  0  0  0  0  0  0  0
    8.1269   -0.4363   18.3740 H   0  0  0  0  0  0  0  0  0  0  0  0
    6.6528    0.0169   19.9035 C   0  0  0  0  0  0  0  0  0  0  0  0
    7.3517   -0.6408   20.9658 N   0  0  0  0  0  0  0  0  0  0  0  0
    8.1272   -1.7351   20.7387 N   0  0  0  0  0  0  0  0  0  0  0  0
    8.6128   -2.0980   21.8599 N   0  0  0  0  0  0  0  0  0  0  0  0
    8.2061   -1.2841   22.8710 N   0  0  0  0  0  0  0  0  0  0  0  0
    7.4309   -0.3960   22.3028 C   0  0  0  0  0  0  0  0  0  0  0  0
    6.7839    0.6311   22.8415 O   0  0  0  0  0  0  0  0  0  0  0  0
    6.9706    0.9082   24.2448 C   0  0  0  0  0  0  0  0  0  0  0  0
    6.1385    1.5711   24.4870 H   0  0  0  0  0  0  0  0  0  0  0  0
    6.8536   -0.0171   24.8187 H   0  0  0  0  0  0  0  0  0  0  0  0
    8.3090    1.5797   24.5138 C   0  0  0  0  0  0  0  0  0  0  0  0
    9.1053    0.9310   24.1290 H   0  0  0  0  0  0  0  0  0  0  0  0
    8.3558    2.5185   23.9481 H   0  0  0  0  0  0  0  0  0  0  0  0
    8.5452    1.8741   26.0075 C   0  0  0  0  0  0  0  0  0  0  0  0
    8.4524    0.9416   26.5800 H   0  0  0  0  0  0  0  0  0  0  0  0
    9.5823    2.2041   26.1517 H   0  0  0  0  0  0  0  0  0  0  0  0
    7.6002    2.9191   26.5680 C   0  0  0  0  0  0  0  0  0  0  0  0
    7.8283    4.2822   26.3165 C   0  0  0  0  0  0  0  0  0  0  0  0
    8.7020    4.5740   25.7353 H   0  0  0  0  0  0  0  0  0  0  0  0
    6.9464    5.2568   26.7921 C   0  0  0  0  0  0  0  0  0  0  0  0
    7.1426    6.3072   26.5896 H   0  0  0  0  0  0  0  0  0  0  0  0
    5.8150    4.8781   27.5237 C   0  0  0  0  0  0  0  0  0  0  0  0
    5.1291    5.6360   27.8969 H   0  0  0  0  0  0  0  0  0  0  0  0
    5.5674    3.5242   27.7711 C   0  0  0  0  0  0  0  0  0  0  0  0
    4.6888    3.2211   28.3369 H   0  0  0  0  0  0  0  0  0  0  0  0
    6.4540    2.5529   27.2918 C   0  0  0  0  0  0  0  0  0  0  0  0
    6.2557    1.4971   27.4736 H   0  0  0  0  0  0  0  0  0  0  0  0
    5.4315    0.6488   20.1662 C   0  0  0  0  0  0  0  0  0  0  0  0
    5.0129    0.6354   21.1711 H   0  0  0  0  0  0  0  0  0  0  0  0
    4.8069    1.3021   19.1035 C   0  0  0  0  0  0  0  0  0  0  0  0
    3.8779    1.8385   19.2589 H   0  0  0  0  0  0  0  0  0  0  0  0
  1  2  1  0
  2  3  2  0
  3  4  1  0
  4  5  1  0
  4  6  2  0
  6  7  1  0
  7  8  1  0
  8  9  2  0
  9 10  1  0
 10 11  2  0
 11 12  1  0
 12 13  1  0
 13 14  1  0
 13 15  1  0
 13 16  1  0
 16 17  1  0
 16 18  1  0
 16 19  1  0
 19 20  1  0
 19 21  1  0
 19 22  1  0
 22 23  2  0
 23 24  1  0
 23 25  1  0
 25 26  1  0
 25 27  2  0
 27 28  1  0
 27 29  1  0
 29 30  1  0
 29 31  2  0
 31 32  1  0
  6 33  1  0
 33 34  1  0
 33 35  2  0
 35 36  1  0
 35  2  1  0
 11  7  1  0
 31 22  1  0
M  END
>  <cnnaffinity>  (1) 
-5.36986

>  <filename>  (1) 
c1ccc(CCCOc2nnnn2-c2cccnc2)cc1

$$$$
