
     RDKit          3D

 29 31  0  0  0  0  0  0  0  0999 V2000
    4.8594    1.3559   17.1242 H   0  0  0  0  0  0  0  0  0  0  0  0
    5.3778    0.9647   17.9973 C   0  0  0  0  0  0  0  0  0  0  0  0
    6.5748    0.3994   17.7662 N   0  0  0  0  0  0  0  0  0  0  0  0
    7.2281   -0.1136   18.8188 C   0  0  0  0  0  0  0  0  0  0  0  0
    8.1951   -0.5645   18.5875 H   0  0  0  0  0  0  0  0  0  0  0  0
    6.7174   -0.1366   20.1343 C   0  0  0  0  0  0  0  0  0  0  0  0
    7.3230   -0.9884   21.1905 C   0  0  0  0  0  0  0  0  0  0  0  0
    7.5188   -0.8536   22.5580 C   0  0  0  0  0  0  0  0  0  0  0  0
    7.2820    0.5301   23.6465 S   0  0  0  0  0  0  0  0  0  0  0  0
    8.7367    1.5479   23.1404 C   0  0  0  0  0  0  0  0  0  0  0  0
    8.8227    2.1789   21.3862 C   0  0  0  0  0  0  0  0  0  0  0  0
    7.7358    2.6591   21.7271 H   0  0  0  0  0  0  0  0  0  0  0  0
    8.8594    2.4717   21.4305 C   0  0  0  0  0  0  0  0  0  0  0  0
    8.7503    2.7632   20.2888 H   0  0  0  0  0  0  0  0  0  0  0  0
   11.2124    2.6492   22.2469 C   0  0  0  0  0  0  0  0  0  0  0  0
   12.1380    2.9589   21.7415 H   0  0  0  0  0  0  0  0  0  0  0  0
   11.0449    2.3821   23.5398 C   0  0  0  0  0  0  0  0  0  0  0  0
   11.7712    2.5889   24.3425 H   0  0  0  0  0  0  0  0  0  0  0  0
    9.7424    1.7566   24.0108 C   0  0  0  0  0  0  0  0  0  0  0  0
    9.6312    1.4760   25.0527 H   0  0  0  0  0  0  0  0  0  0  0  0
    7.9518   -2.1357   22.9920 C   0  0  0  0  0  0  0  0  0  0  0  0
    8.2151   -2.4276   24.0018 H   0  0  0  0  0  0  0  0  0  0  0  0
    8.0266   -2.9984   21.9908 N   0  0  0  0  0  0  0  0  0  0  0  0
    7.6455   -2.2906   20.9212 N   0  0  0  0  0  0  0  0  0  0  0  0
    7.4892   -2.7590   20.0399 H   0  0  0  0  0  0  0  0  0  0  0  0
    5.5364    0.5817   20.3700 C   0  0  0  0  0  0  0  0  0  0  0  0
    5.1580    0.6874   21.3909 H   0  0  0  0  0  0  0  0  0  0  0  0
    4.8203    1.0872   19.2752 C   0  0  0  0  0  0  0  0  0  0  0  0
    3.8722    1.5967   19.4017 H   0  0  0  0  0  0  0  0  0  0  0  0
  1  2  1  0
  2  3  2  0
  3  4  1  0
  4  5  1  0
  4  6  2  0
  6  7  1  0
  7  8  2  0
  8  9  1  0
  9 10  1  0
 10 11  2  0
 11 12  1  0
 11 13  1  0
 13 14  1  0
 13 15  2  0
 15 16  1  0
 15 17  1  0
 17 18  1  0
 17 19  2  0
 19 20  1  0
  8 21  1  0
 21 22  1  0
 21 23  2  0
 23 24  1  0
 24 25  1  0
  6 26  1  0
 26 27  1  0
 26 28  2  0
 28 29  1  0
 28  2  1  0
 24  7  1  0
 19 10  1  0
M  END
>  <cnnaffinity>  (1) 
-5.13676

>  <filename>  (1) 
c1ccc(Sc2cn[nH]c2-c2cccnc2)cc1

$$$$
