
     RDKit          3D

 43 46  0  0  0  0  0  0  0  0999 V2000
   12.9805    5.1233   23.2598 H   0  0  0  0  0  0  0  0  0  0  0  0
   11.9743    5.1441   23.6811 C   0  0  0  0  0  0  0  0  0  0  0  0
   11.2817    4.0152   23.5446 N   0  0  0  0  0  0  0  0  0  0  0  0
   10.0233    3.9902   24.0087 C   0  0  0  0  0  0  0  0  0  0  0  0
    9.3360    2.8126   23.7883 N   0  0  0  0  0  0  0  0  0  0  0  0
    7.8773    2.6687   23.7765 C   0  0  0  0  0  0  0  0  0  0  0  0
    7.3979    3.6234   23.5368 H   0  0  0  0  0  0  0  0  0  0  0  0
    7.5211    2.3497   24.7687 H   0  0  0  0  0  0  0  0  0  0  0  0
    7.3858    1.6266   22.7384 C   0  0  0  0  0  0  0  0  0  0  0  0
    7.4296    2.0826   21.7334 H   0  0  0  0  0  0  0  0  0  0  0  0
    6.3339    1.4232   22.9642 H   0  0  0  0  0  0  0  0  0  0  0  0
    8.1257    0.3741   22.8361 N   0  0  0  0  0  0  0  0  0  0  0  0
    7.6022   -0.7543   22.1606 C   0  0  0  0  0  0  0  0  0  0  0  0
    7.7150   -0.8112   20.7375 N   0  0  0  0  0  0  0  0  0  0  0  0
    8.7087   -0.6960   20.5701 H   0  0  0  0  0  0  0  0  0  0  0  0
    6.9057   -0.0892   19.8259 C   0  0  0  0  0  0  0  0  0  0  0  0
    7.2925    0.0345   18.4637 C   0  0  0  0  0  0  0  0  0  0  0  0
    8.2182   -0.4301   18.1263 H   0  0  0  0  0  0  0  0  0  0  0  0
    6.5971    0.6919   17.5241 N   0  0  0  0  0  0  0  0  0  0  0  0
    5.4455    1.2774   17.8996 C   0  0  0  0  0  0  0  0  0  0  0  0
    4.9083    1.8184   17.1211 H   0  0  0  0  0  0  0  0  0  0  0  0
    4.9465    1.1972   19.2035 C   0  0  0  0  0  0  0  0  0  0  0  0
    4.0125    1.6976   19.4463 H   0  0  0  0  0  0  0  0  0  0  0  0
    5.6813    0.4934   20.1781 C   0  0  0  0  0  0  0  0  0  0  0  0
    5.3533    0.4118   21.2132 H   0  0  0  0  0  0  0  0  0  0  0  0
    6.5523   -1.5720   22.8429 C   0  0  0  0  0  0  0  0  0  0  0  0
    6.1982   -1.2000   23.7995 H   0  0  0  0  0  0  0  0  0  0  0  0
    5.8539   -2.0644   22.1763 H   0  0  0  0  0  0  0  0  0  0  0  0
    7.9691   -2.0629   22.8071 C   0  0  0  0  0  0  0  0  0  0  0  0
    8.2101   -2.8697   22.1298 H   0  0  0  0  0  0  0  0  0  0  0  0
    8.5653   -1.9981   23.7097 H   0  0  0  0  0  0  0  0  0  0  0  0
    9.5745    0.5660   22.7879 C   0  0  0  0  0  0  0  0  0  0  0  0
    9.9295    0.9704   21.8222 H   0  0  0  0  0  0  0  0  0  0  0  0
   10.0611   -0.4028   22.9472 H   0  0  0  0  0  0  0  0  0  0  0  0
   10.0181    1.5202   23.9029 C   0  0  0  0  0  0  0  0  0  0  0  0
    9.7821    1.0580   24.8755 H   0  0  0  0  0  0  0  0  0  0  0  0
   11.0979    1.6602   23.8459 H   0  0  0  0  0  0  0  0  0  0  0  0
    9.4533    5.0759   24.7094 C   0  0  0  0  0  0  0  0  0  0  0  0
    8.4578    4.9444   25.1127 H   0  0  0  0  0  0  0  0  0  0  0  0
   10.2148    6.2281   24.8949 C   0  0  0  0  0  0  0  0  0  0  0  0
    9.8179    7.0738   25.4603 H   0  0  0  0  0  0  0  0  0  0  0  0
   11.5051    6.2725   24.3504 C   0  0  0  0  0  0  0  0  0  0  0  0
   12.1537    7.1356   24.4454 H   0  0  0  0  0  0  0  0  0  0  0  0
  1  2  1  0
  2  3  2  0
  3  4  1  0
  4  5  1  0
  5  6  1  0
  6  7  1  0
  6  8  1  0
  6  9  1  0
  9 10  1  0
  9 11  1  0
  9 12  1  0
 12 13  1  0
 13 14  1  0
 14 15  1  0
 14 16  1  0
 16 17  2  0
 17 18  1  0
 17 19  1  0
 19 20  2  0
 20 21  1  0
 20 22  1  0
 22 23  1  0
 22 24  2  0
 24 25  1  0
 13 26  1  0
 26 27  1  0
 26 28  1  0
 26 29  1  0
 29 30  1  0
 29 31  1  0
 12 32  1  0
 32 33  1  0
 32 34  1  0
 32 35  1  0
 35 36  1  0
 35 37  1  0
  4 38  2  0
 38 39  1  0
 38 40  1  0
 40 41  1  0
 40 42  2  0
 42 43  1  0
 42  2  1  0
 35  5  1  0
 29 13  1  0
 24 16  1  0
M  END
>  <cnnaffinity>  (1) 
-5.25723

>  <filename>  (1) 
c1ccc(N2CCN(C3(Nc4cccnc4)CC3)CC2)nc1

$$$$
