
     RDKit          3D

 34 36  0  0  0  0  0  0  0  0999 V2000
    4.9369    1.8025   16.9830 H   0  0  0  0  0  0  0  0  0  0  0  0
    5.4040    1.2914   17.8240 C   0  0  0  0  0  0  0  0  0  0  0  0
    6.5635    0.6703   17.5691 N   0  0  0  0  0  0  0  0  0  0  0  0
    7.1800    0.0508   18.5812 C   0  0  0  0  0  0  0  0  0  0  0  0
    8.1283   -0.4194   18.3283 H   0  0  0  0  0  0  0  0  0  0  0  0
    6.6710    0.0022   19.8904 C   0  0  0  0  0  0  0  0  0  0  0  0
    7.4012   -0.7042   20.9578 C   0  0  0  0  0  0  0  0  0  0  0  0
    8.5363   -1.3356   20.7436 N   0  0  0  0  0  0  0  0  0  0  0  0
    8.8976   -1.8857   21.9592 O   0  0  0  0  0  0  0  0  0  0  0  0
    7.9818   -1.5711   22.8882 C   0  0  0  0  0  0  0  0  0  0  0  0
    8.1298   -2.1113   24.2696 C   0  0  0  0  0  0  0  0  0  0  0  0
    9.1845   -2.2273   24.5393 H   0  0  0  0  0  0  0  0  0  0  0  0
    7.6849   -1.3993   24.9735 H   0  0  0  0  0  0  0  0  0  0  0  0
    7.3973   -3.4474   24.4426 C   0  0  0  0  0  0  0  0  0  0  0  0
    7.8197   -4.2333   23.7968 H   0  0  0  0  0  0  0  0  0  0  0  0
    6.3275   -3.3484   24.2015 H   0  0  0  0  0  0  0  0  0  0  0  0
    7.5371   -3.8237   25.8023 O   0  0  0  0  0  0  0  0  0  0  0  0
    6.9538   -4.9774   26.2335 C   0  0  0  0  0  0  0  0  0  0  0  0
    6.2100   -5.8520   25.4292 C   0  0  0  0  0  0  0  0  0  0  0  0
    6.0856   -5.6542   24.3714 H   0  0  0  0  0  0  0  0  0  0  0  0
    5.6433   -7.0020   25.9926 C   0  0  0  0  0  0  0  0  0  0  0  0
    5.0809   -7.6672   25.3419 H   0  0  0  0  0  0  0  0  0  0  0  0
    5.8310   -7.2977   27.3440 C   0  0  0  0  0  0  0  0  0  0  0  0
    5.4480   -8.2201   27.7726 H   0  0  0  0  0  0  0  0  0  0  0  0
    6.5867   -6.4269   28.1425 C   0  0  0  0  0  0  0  0  0  0  0  0
    6.7632   -6.6601   29.1913 H   0  0  0  0  0  0  0  0  0  0  0  0
    7.1383   -5.2700   27.5944 C   0  0  0  0  0  0  0  0  0  0  0  0
    7.7221   -4.5630   28.1722 H   0  0  0  0  0  0  0  0  0  0  0  0
    7.0061   -0.8259   22.3186 C   0  0  0  0  0  0  0  0  0  0  0  0
    6.1285   -0.4193   22.7893 H   0  0  0  0  0  0  0  0  0  0  0  0
    5.4499    0.6505   20.1397 C   0  0  0  0  0  0  0  0  0  0  0  0
    5.0050    0.6526   21.1350 H   0  0  0  0  0  0  0  0  0  0  0  0
    4.8113    1.3068   19.0897 C   0  0  0  0  0  0  0  0  0  0  0  0
    3.8800    1.8359   19.2412 H   0  0  0  0  0  0  0  0  0  0  0  0
  1  2  1  0
  2  3  2  0
  3  4  1  0
  4  5  1  0
  4  6  2  0
  6  7  1  0
  7  8  2  0
  8  9  1  0
  9 10  1  0
 10 11  1  0
 11 12  1  0
 11 13  1  0
 11 14  1  0
 14 15  1  0
 14 16  1  0
 14 17  1  0
 17 18  1  0
 18 19  2  0
 19 20  1  0
 19 21  1  0
 21 22  1  0
 21 23  2  0
 23 24  1  0
 23 25  1  0
 25 26  1  0
 25 27  2  0
 27 28  1  0
 10 29  2  0
 29 30  1  0
  6 31  1  0
 31 32  1  0
 31 33  2  0
 33 34  1  0
 33  2  1  0
 29  7  1  0
 27 18  1  0
M  END
>  <cnnaffinity>  (1) 
-4.97528

>  <filename>  (1) 
c1ccc(OCCc2cc(-c3cccnc3)no2)cc1

$$$$
