
     RDKit          3D

 37 40  0  0  0  0  0  0  0  0999 V2000
    7.8584   -5.4690   20.9702 H   0  0  0  0  0  0  0  0  0  0  0  0
    7.1668   -4.6458   21.1302 C   0  0  0  0  0  0  0  0  0  0  0  0
    7.6919   -3.4167   21.0542 N   0  0  0  0  0  0  0  0  0  0  0  0
    6.8746   -2.3582   21.1734 C   0  0  0  0  0  0  0  0  0  0  0  0
    7.4146   -0.8883   21.1131 C   0  0  1  0  0  0  0  0  0  0  0  0
    6.6875   -0.0960   19.9923 C   0  0  0  0  0  0  0  0  0  0  0  0
    7.1855   -0.0839   18.6760 C   0  0  0  0  0  0  0  0  0  0  0  0
    8.1065   -0.6160   18.4400 H   0  0  0  0  0  0  0  0  0  0  0  0
    6.6141    0.5524   17.6387 N   0  0  0  0  0  0  0  0  0  0  0  0
    5.4866    1.2318   17.8835 C   0  0  0  0  0  0  0  0  0  0  0  0
    5.0410    1.7394   17.0312 H   0  0  0  0  0  0  0  0  0  0  0  0
    4.8762    1.2774   19.1407 C   0  0  0  0  0  0  0  0  0  0  0  0
    3.9532    1.8339   19.2670 H   0  0  0  0  0  0  0  0  0  0  0  0
    5.4767    0.5972   20.2051 C   0  0  0  0  0  0  0  0  0  0  0  0
    5.0057    0.6226   21.1925 H   0  0  0  0  0  0  0  0  0  0  0  0
    7.2127   -0.2074   22.5369 C   0  0  0  0  0  0  0  0  0  0  0  0
    6.7555    0.7832   22.4257 H   0  0  0  0  0  0  0  0  0  0  0  0
    6.5484   -0.7966   23.1787 H   0  0  0  0  0  0  0  0  0  0  0  0
    8.6301   -0.0671   23.1356 C   0  0  2  0  0  0  0  0  0  0  0  0
    8.6421   -0.0480   24.2317 H   0  0  0  0  0  0  0  0  0  0  0  0
    9.2936    1.1584   22.4738 C   0  0  0  0  0  0  0  0  0  0  0  0
    8.6791    2.0637   22.5344 H   0  0  0  0  0  0  0  0  0  0  0  0
   10.2542    1.4014   22.9446 H   0  0  0  0  0  0  0  0  0  0  0  0
    9.5010    0.6600   21.0122 C   0  0  0  0  0  0  0  0  0  0  0  0
   10.5668    0.6950   20.7729 H   0  0  0  0  0  0  0  0  0  0  0  0
    8.9641    1.2724   20.2806 H   0  0  0  0  0  0  0  0  0  0  0  0
    8.9904   -0.8104   21.0445 C   0  0  1  0  0  0  0  0  0  0  0  0
    9.4016   -1.4454   20.2528 H   0  0  0  0  0  0  0  0  0  0  0  0
    9.4037   -1.2120   22.4708 C   0  0  0  0  0  0  0  0  0  0  0  0
   10.4916   -1.1601   22.6263 H   0  0  0  0  0  0  0  0  0  0  0  0
    9.0646   -2.2132   22.7547 H   0  0  0  0  0  0  0  0  0  0  0  0
    5.5023   -2.5441   21.4072 C   0  0  0  0  0  0  0  0  0  0  0  0
    4.8820   -1.6671   21.4494 H   0  0  0  0  0  0  0  0  0  0  0  0
    4.9640   -3.8161   21.5555 C   0  0  0  0  0  0  0  0  0  0  0  0
    3.9116   -3.9361   21.8054 H   0  0  0  0  0  0  0  0  0  0  0  0
    5.8220   -4.9083   21.4092 C   0  0  0  0  0  0  0  0  0  0  0  0
    5.4795   -5.9302   21.4826 H   0  0  0  0  0  0  0  0  0  0  0  0
  1  2  1  0
  2  3  2  0
  3  4  1  0
  5  4  1  1
  5  6  1  0
  6  7  2  0
  7  8  1  0
  7  9  1  0
  9 10  2  0
 10 11  1  0
 10 12  1  0
 12 13  1  0
 12 14  2  0
 14 15  1  0
  5 16  1  0
 16 17  1  0
 16 18  1  0
 16 19  1  0
 19 20  1  1
 19 21  1  0
 21 22  1  0
 21 23  1  0
 21 24  1  0
 24 25  1  0
 24 26  1  0
 24 27  1  0
 27 28  1  6
 27 29  1  0
 29 30  1  0
 29 31  1  0
  4 32  2  0
 32 33  1  0
 32 34  1  0
 34 35  1  0
 34 36  2  0
 36 37  1  0
 36  2  1  0
 27  5  1  0
 14  6  1  0
 29 19  1  0
M  END
>  <cnnaffinity>  (1) 
-4.50436

>  <filename>  (1) 
c1ccc([C@@]2(c3cccnc3)C[C@@H]3CC[C@H]2C3)nc1

$$$$
