
     RDKit          3D

 36 38  0  0  0  0  0  0  0  0999 V2000
    5.0962    1.8040   16.9538 H   0  0  0  0  0  0  0  0  0  0  0  0
    5.4802    1.2730   17.8232 C   0  0  0  0  0  0  0  0  0  0  0  0
    6.6078    0.5705   17.6377 N   0  0  0  0  0  0  0  0  0  0  0  0
    7.1033   -0.0720   18.7028 C   0  0  0  0  0  0  0  0  0  0  0  0
    8.0145   -0.6428   18.5342 H   0  0  0  0  0  0  0  0  0  0  0  0
    6.5267   -0.0629   19.9860 C   0  0  0  0  0  0  0  0  0  0  0  0
    7.2068   -0.7718   21.0819 C   0  0  0  0  0  0  0  0  0  0  0  0
    8.5469   -0.7921   21.4444 C   0  0  0  0  0  0  0  0  0  0  0  0
    9.6461    0.1178   20.9524 C   0  0  0  0  0  0  0  0  0  0  0  0
    9.6574    0.1377   19.8569 H   0  0  0  0  0  0  0  0  0  0  0  0
   10.6274   -0.2674   21.2495 H   0  0  0  0  0  0  0  0  0  0  0  0
    9.5005    1.5702   21.4479 C   0  0  0  0  0  0  0  0  0  0  0  0
    8.5172    1.9208   21.1103 H   0  0  0  0  0  0  0  0  0  0  0  0
    9.4947    1.6038   22.5547 H   0  0  0  0  0  0  0  0  0  0  0  0
   10.4986    2.4646   20.8679 N   0  0  0  0  0  0  0  0  0  0  0  0
   10.1038    3.2337   20.3374 H   0  0  0  0  0  0  0  0  0  0  0  0
   11.6898    2.8792   21.4559 C   0  0  0  0  0  0  0  0  0  0  0  0
   12.3610    4.0139   20.9459 C   0  0  0  0  0  0  0  0  0  0  0  0
   12.0089    4.5101   20.0450 H   0  0  0  0  0  0  0  0  0  0  0  0
   13.5281    4.4897   21.5380 C   0  0  0  0  0  0  0  0  0  0  0  0
   14.0174    5.3781   21.1471 H   0  0  0  0  0  0  0  0  0  0  0  0
   14.0922    3.8012   22.6193 C   0  0  0  0  0  0  0  0  0  0  0  0
   15.0088    4.1776   23.0568 H   0  0  0  0  0  0  0  0  0  0  0  0
   13.4887    2.6249   23.0748 C   0  0  0  0  0  0  0  0  0  0  0  0
   13.9585    2.0197   23.8465 H   0  0  0  0  0  0  0  0  0  0  0  0
   12.2902    2.1762   22.5120 C   0  0  0  0  0  0  0  0  0  0  0  0
   11.7967    1.2728   22.8553 H   0  0  0  0  0  0  0  0  0  0  0  0
    8.5944   -1.7394   22.4948 C   0  0  0  0  0  0  0  0  0  0  0  0
    9.4541   -2.0682   23.0615 H   0  0  0  0  0  0  0  0  0  0  0  0
    7.4013   -2.2389   22.7893 N   0  0  0  0  0  0  0  0  0  0  0  0
    6.5755   -1.6268   21.9265 N   0  0  0  0  0  0  0  0  0  0  0  0
    5.5804   -1.8077   21.9661 H   0  0  0  0  0  0  0  0  0  0  0  0
    5.3246    0.6464   20.1476 C   0  0  0  0  0  0  0  0  0  0  0  0
    4.8231    0.6800   21.1170 H   0  0  0  0  0  0  0  0  0  0  0  0
    4.8042    1.3295   19.0476 C   0  0  0  0  0  0  0  0  0  0  0  0
    3.8972    1.9174   19.1248 H   0  0  0  0  0  0  0  0  0  0  0  0
  1  2  1  0
  2  3  2  0
  3  4  1  0
  4  5  1  0
  4  6  2  0
  6  7  1  0
  7  8  2  0
  8  9  1  0
  9 10  1  0
  9 11  1  0
  9 12  1  0
 12 13  1  0
 12 14  1  0
 12 15  1  0
 15 16  1  0
 15 17  1  0
 17 18  2  0
 18 19  1  0
 18 20  1  0
 20 21  1  0
 20 22  2  0
 22 23  1  0
 22 24  1  0
 24 25  1  0
 24 26  2  0
 26 27  1  0
  8 28  1  0
 28 29  1  0
 28 30  2  0
 30 31  1  0
 31 32  1  0
  6 33  1  0
 33 34  1  0
 33 35  2  0
 35 36  1  0
 35  2  1  0
 31  7  1  0
 26 17  1  0
M  END
>  <cnnaffinity>  (1) 
-5.41438

>  <filename>  (1) 
c1ccc(NCCc2cn[nH]c2-c2cccnc2)cc1

$$$$
