
     RDKit          3D

 41 44  0  0  0  0  0  0  0  0999 V2000
    4.9586    1.8418   16.9421 H   0  0  0  0  0  0  0  0  0  0  0  0
    5.3831    1.3089   17.7889 C   0  0  0  0  0  0  0  0  0  0  0  0
    6.5401    0.6632   17.5724 N   0  0  0  0  0  0  0  0  0  0  0  0
    7.0949    0.0355   18.6204 C   0  0  0  0  0  0  0  0  0  0  0  0
    8.0413   -0.4625   18.4010 H   0  0  0  0  0  0  0  0  0  0  0  0
    6.5263   -0.0167   19.9131 C   0  0  0  0  0  0  0  0  0  0  0  0
    7.2692   -0.6539   21.0232 C   0  0  0  0  0  0  0  0  0  0  0  0
    8.6213   -0.6139   21.2561 C   0  0  0  0  0  0  0  0  0  0  0  0
    8.8258   -1.1547   22.5219 C   0  0  0  0  0  0  0  0  0  0  0  0
    7.7148   -1.6061   23.0666 N   0  0  0  0  0  0  0  0  0  0  0  0
    6.7641   -1.2643   22.1464 N   0  0  0  0  0  0  0  0  0  0  0  0
    5.7969   -1.4386   22.3886 H   0  0  0  0  0  0  0  0  0  0  0  0
   10.2502   -0.9832   22.9707 C   0  0  0  0  0  0  0  0  0  0  0  0
   10.3550   -0.6746   24.0147 H   0  0  0  0  0  0  0  0  0  0  0  0
   10.7823   -1.9317   22.8654 H   0  0  0  0  0  0  0  0  0  0  0  0
   10.7819    0.0981   21.9752 C   0  0  2  0  0  0  0  0  0  0  0  0
   11.8169   -0.1271   21.7024 H   0  0  0  0  0  0  0  0  0  0  0  0
   10.7566    1.5186   22.5753 C   0  0  0  0  0  0  0  0  0  0  0  0
   11.1667    2.2140   21.8304 H   0  0  0  0  0  0  0  0  0  0  0  0
   11.4470    1.5536   23.4294 H   0  0  0  0  0  0  0  0  0  0  0  0
    9.3601    2.0118   23.0101 C   0  0  0  0  0  0  0  0  0  0  0  0
    8.6817    1.9884   22.1487 H   0  0  0  0  0  0  0  0  0  0  0  0
    8.9455    1.3230   23.7563 H   0  0  0  0  0  0  0  0  0  0  0  0
    9.3639    3.4112   23.5818 C   0  0  0  0  0  0  0  0  0  0  0  0
    9.1435    4.5296   22.7609 C   0  0  0  0  0  0  0  0  0  0  0  0
    8.8014    4.4074   21.7368 H   0  0  0  0  0  0  0  0  0  0  0  0
    9.3519    5.8246   23.2400 C   0  0  0  0  0  0  0  0  0  0  0  0
    9.2742    6.6712   22.5648 H   0  0  0  0  0  0  0  0  0  0  0  0
    9.6924    6.0252   24.5785 C   0  0  0  0  0  0  0  0  0  0  0  0
    9.8543    7.0292   24.9527 H   0  0  0  0  0  0  0  0  0  0  0  0
    9.8179    4.9303   25.4334 C   0  0  0  0  0  0  0  0  0  0  0  0
   10.0350    5.0914   26.4851 H   0  0  0  0  0  0  0  0  0  0  0  0
    9.6592    3.6329   24.9364 C   0  0  0  0  0  0  0  0  0  0  0  0
    9.7779    2.7904   25.6153 H   0  0  0  0  0  0  0  0  0  0  0  0
    9.8696   -0.0124   20.7192 C   0  0  0  0  0  0  0  0  0  0  0  0
    9.7257    0.9501   20.2138 H   0  0  0  0  0  0  0  0  0  0  0  0
   10.3282   -0.6824   19.9950 H   0  0  0  0  0  0  0  0  0  0  0  0
    5.3062    0.6604   20.1013 C   0  0  0  0  0  0  0  0  0  0  0  0
    4.8513    0.7013   21.0923 H   0  0  0  0  0  0  0  0  0  0  0  0
    4.7306    1.3338   19.0261 C   0  0  0  0  0  0  0  0  0  0  0  0
    3.8142    1.9036   19.1470 H   0  0  0  0  0  0  0  0  0  0  0  0
  1  2  1  0
  2  3  2  0
  3  4  1  0
  4  5  1  0
  4  6  2  0
  6  7  1  0
  7  8  2  0
  8  9  1  0
  9 10  2  0
 10 11  1  0
 11 12  1  0
  9 13  1  0
 13 14  1  0
 13 15  1  0
 13 16  1  0
 16 17  1  6
 16 18  1  0
 18 19  1  0
 18 20  1  0
 18 21  1  0
 21 22  1  0
 21 23  1  0
 21 24  1  0
 24 25  2  0
 25 26  1  0
 25 27  1  0
 27 28  1  0
 27 29  2  0
 29 30  1  0
 29 31  1  0
 31 32  1  0
 31 33  2  0
 33 34  1  0
 16 35  1  0
 35 36  1  0
 35 37  1  0
  6 38  1  0
 38 39  1  0
 38 40  2  0
 40 41  1  0
 40  2  1  0
 11  7  1  0
 33 24  1  0
 35  8  1  0
M  END
>  <cnnaffinity>  (1) 
-5.53573

>  <filename>  (1) 
c1ccc(CC[C@H]2Cc3n[nH]c(-c4cccnc4)c3C2)cc1

$$$$
