
     RDKit          3D

 42 45  0  0  0  0  0  0  0  0999 V2000
    4.9380    1.8148   16.9688 H   0  0  0  0  0  0  0  0  0  0  0  0
    5.4097    1.3224   17.8217 C   0  0  0  0  0  0  0  0  0  0  0  0
    6.5771    0.7084   17.5921 N   0  0  0  0  0  0  0  0  0  0  0  0
    7.1718    0.0917   18.6247 C   0  0  0  0  0  0  0  0  0  0  0  0
    8.1215   -0.3869   18.4005 H   0  0  0  0  0  0  0  0  0  0  0  0
    6.6578    0.0290   19.9400 C   0  0  0  0  0  0  0  0  0  0  0  0
    7.3712   -0.7009   21.0303 C   0  0  0  0  0  0  0  0  0  0  0  0
    8.0740   -1.8756   21.1035 C   0  0  0  0  0  0  0  0  0  0  0  0
    8.2209   -2.6208   20.3534 H   0  0  0  0  0  0  0  0  0  0  0  0
    8.5884   -2.1150   22.3504 N   0  0  0  0  0  0  0  0  0  0  0  0
    8.1947   -1.0919   23.0670 C   0  0  0  0  0  0  0  0  0  0  0  0
    8.3853   -0.9217   24.1209 H   0  0  0  0  0  0  0  0  0  0  0  0
    7.4456   -0.2210   22.3306 N   0  0  0  0  0  0  0  0  0  0  0  0
    6.8517    0.9463   22.7626 N   0  0  0  0  0  0  0  0  0  0  0  0
    7.5727    2.1684   22.3743 C   0  0  0  0  0  0  0  0  0  0  0  0
    7.9210    2.0824   21.3392 H   0  0  0  0  0  0  0  0  0  0  0  0
    8.4562    2.3340   23.0132 H   0  0  0  0  0  0  0  0  0  0  0  0
    6.5768    3.3228   22.4782 C   0  0  0  0  0  0  0  0  0  0  0  0
    7.0708    4.2700   22.2321 H   0  0  0  0  0  0  0  0  0  0  0  0
    5.7814    3.1462   21.7250 H   0  0  0  0  0  0  0  0  0  0  0  0
    6.0454    3.3691   23.8392 N   0  0  0  0  0  0  0  0  0  0  0  0
    5.6290    4.5799   24.4075 C   0  0  0  0  0  0  0  0  0  0  0  0
    5.0802    5.6240   23.6466 C   0  0  0  0  0  0  0  0  0  0  0  0
    4.9419    5.4719   22.5786 H   0  0  0  0  0  0  0  0  0  0  0  0
    4.7272    6.8245   24.2687 C   0  0  0  0  0  0  0  0  0  0  0  0
    4.3056    7.6297   23.6721 H   0  0  0  0  0  0  0  0  0  0  0  0
    4.9281    6.9903   25.6453 C   0  0  0  0  0  0  0  0  0  0  0  0
    4.6662    7.9269   26.1241 H   0  0  0  0  0  0  0  0  0  0  0  0
    5.4630    5.9434   26.4078 C   0  0  0  0  0  0  0  0  0  0  0  0
    5.6208    6.0551   27.4778 H   0  0  0  0  0  0  0  0  0  0  0  0
    5.7948    4.7395   25.7917 C   0  0  0  0  0  0  0  0  0  0  0  0
    6.2134    3.9003   26.3400 H   0  0  0  0  0  0  0  0  0  0  0  0
    5.3763    2.1292   24.2423 C   0  0  0  0  0  0  0  0  0  0  0  0
    4.5158    1.9003   23.5848 H   0  0  0  0  0  0  0  0  0  0  0  0
    4.9842    2.2202   25.2610 H   0  0  0  0  0  0  0  0  0  0  0  0
    6.3666    0.9721   24.1497 C   0  0  0  0  0  0  0  0  0  0  0  0
    5.8638    0.0283   24.3923 H   0  0  0  0  0  0  0  0  0  0  0  0
    7.1927    1.1193   24.8744 H   0  0  0  0  0  0  0  0  0  0  0  0
    5.4418    0.7079   20.1530 C   0  0  0  0  0  0  0  0  0  0  0  0
    5.0055    0.7365   21.1483 H   0  0  0  0  0  0  0  0  0  0  0  0
    4.8041    1.3405   19.0823 C   0  0  0  0  0  0  0  0  0  0  0  0
    3.8567    1.8469   19.2023 H   0  0  0  0  0  0  0  0  0  0  0  0
  1  2  1  0
  2  3  2  0
  3  4  1  0
  4  5  1  0
  4  6  2  0
  6  7  1  0
  7  8  2  0
  8  9  1  0
  8 10  1  0
 10 11  2  0
 11 12  1  0
 11 13  1  0
 13 14  1  0
 14 15  1  0
 15 16  1  0
 15 17  1  0
 15 18  1  0
 18 19  1  0
 18 20  1  0
 18 21  1  0
 21 22  1  0
 22 23  2  0
 23 24  1  0
 23 25  1  0
 25 26  1  0
 25 27  2  0
 27 28  1  0
 27 29  1  0
 29 30  1  0
 29 31  2  0
 31 32  1  0
 21 33  1  0
 33 34  1  0
 33 35  1  0
 33 36  1  0
 36 37  1  0
 36 38  1  0
  6 39  1  0
 39 40  1  0
 39 41  2  0
 41 42  1  0
 41  2  1  0
 13  7  1  0
 36 14  1  0
 31 22  1  0
M  END
>  <cnnaffinity>  (1) 
-5.24832

>  <filename>  (1) 
c1ccc(N2CCN(n3cncc3-c3cccnc3)CC2)cc1

$$$$
