
     RDKit          3D

 47 51  0  0  0  0  0  0  0  0999 V2000
    5.0065    1.7780   16.9799 H   0  0  0  0  0  0  0  0  0  0  0  0
    5.4370    1.2730   17.8427 C   0  0  0  0  0  0  0  0  0  0  0  0
    6.5911    0.6234   17.6273 N   0  0  0  0  0  0  0  0  0  0  0  0
    7.1351   -0.0049   18.6775 C   0  0  0  0  0  0  0  0  0  0  0  0
    8.0774   -0.5215   18.5011 H   0  0  0  0  0  0  0  0  0  0  0  0
    6.5921   -0.0262   19.9744 C   0  0  0  0  0  0  0  0  0  0  0  0
    7.3435   -0.7106   21.0939 C   0  0  0  0  0  0  0  0  0  0  0  0
    7.0654   -2.1594   21.3362 C   0  0  0  0  0  0  0  0  0  0  0  0
    7.8753   -3.1526   21.1967 N   0  0  0  0  0  0  0  0  0  0  0  0
    7.1908   -4.2973   21.5871 N   0  0  0  0  0  0  0  0  0  0  0  0
    6.0274   -3.8790   21.9812 C   0  0  0  0  0  0  0  0  0  0  0  0
    4.9959   -4.6116   22.5013 N   0  0  0  0  0  0  0  0  0  0  0  0
    4.2873   -4.1445   23.7161 C   0  0  0  0  0  0  0  0  0  0  0  0
    4.1093   -3.0678   23.6872 H   0  0  0  0  0  0  0  0  0  0  0  0
    4.8970   -4.3490   24.6103 H   0  0  0  0  0  0  0  0  0  0  0  0
    2.9604   -4.9118   23.8647 C   0  0  0  0  0  0  0  0  0  0  0  0
    2.3418   -4.7089   22.9720 H   0  0  0  0  0  0  0  0  0  0  0  0
    2.4225   -4.5494   24.7484 H   0  0  0  0  0  0  0  0  0  0  0  0
    3.2426   -6.3439   24.0085 N   0  0  0  0  0  0  0  0  0  0  0  0
    2.3292   -7.2396   24.5972 C   0  0  0  0  0  0  0  0  0  0  0  0
    0.9586   -6.9741   24.7652 C   0  0  0  0  0  0  0  0  0  0  0  0
    0.5457   -6.0533   24.3599 H   0  0  0  0  0  0  0  0  0  0  0  0
    0.1463   -7.8943   25.4376 C   0  0  0  0  0  0  0  0  0  0  0  0
   -0.9025   -7.6624   25.6083 H   0  0  0  0  0  0  0  0  0  0  0  0
    0.6739   -9.1025   25.9053 C   0  0  0  0  0  0  0  0  0  0  0  0
    0.0526   -9.8150   26.4368 H   0  0  0  0  0  0  0  0  0  0  0  0
    2.0272   -9.3926   25.7001 C   0  0  0  0  0  0  0  0  0  0  0  0
    2.4410  -10.3471   26.0099 H   0  0  0  0  0  0  0  0  0  0  0  0
    2.8475   -8.4646   25.0624 C   0  0  0  0  0  0  0  0  0  0  0  0
    3.9071   -8.6454   24.9387 H   0  0  0  0  0  0  0  0  0  0  0  0
    4.0002   -6.8628   22.8703 C   0  0  0  0  0  0  0  0  0  0  0  0
    3.3633   -6.9066   21.9708 H   0  0  0  0  0  0  0  0  0  0  0  0
    4.3372   -7.8735   23.1068 H   0  0  0  0  0  0  0  0  0  0  0  0
    5.2636   -6.0563   22.5849 C   0  0  0  0  0  0  0  0  0  0  0  0
    5.9953   -6.2665   23.3822 H   0  0  0  0  0  0  0  0  0  0  0  0
    5.6969   -6.3979   21.6415 H   0  0  0  0  0  0  0  0  0  0  0  0
    5.8506   -2.5506   21.8312 O   0  0  0  0  0  0  0  0  0  0  0  0
    8.7858   -0.3080   21.3122 C   0  0  0  0  0  0  0  0  0  0  0  0
    9.2191    0.4259   20.6421 H   0  0  0  0  0  0  0  0  0  0  0  0
    9.4556   -1.1099   21.6020 H   0  0  0  0  0  0  0  0  0  0  0  0
    7.7624    0.1295   22.2962 C   0  0  0  0  0  0  0  0  0  0  0  0
    7.7463   -0.3440   23.2702 H   0  0  0  0  0  0  0  0  0  0  0  0
    7.4746    1.1767   22.2941 H   0  0  0  0  0  0  0  0  0  0  0  0
    5.3767    0.6419   20.1671 C   0  0  0  0  0  0  0  0  0  0  0  0
    4.9202    0.6571   21.1596 H   0  0  0  0  0  0  0  0  0  0  0  0
    4.7875    1.3013   19.0833 C   0  0  0  0  0  0  0  0  0  0  0  0
    3.8510    1.8405   19.1855 H   0  0  0  0  0  0  0  0  0  0  0  0
  1  2  1  0
  2  3  2  0
  3  4  1  0
  4  5  1  0
  4  6  2  0
  6  7  1  0
  7  8  1  0
  8  9  2  0
  9 10  1  0
 10 11  2  0
 11 12  1  0
 12 13  1  0
 13 14  1  0
 13 15  1  0
 13 16  1  0
 16 17  1  0
 16 18  1  0
 16 19  1  0
 19 20  1  0
 20 21  2  0
 21 22  1  0
 21 23  1  0
 23 24  1  0
 23 25  2  0
 25 26  1  0
 25 27  1  0
 27 28  1  0
 27 29  2  0
 29 30  1  0
 19 31  1  0
 31 32  1  0
 31 33  1  0
 31 34  1  0
 34 35  1  0
 34 36  1  0
 11 37  1  0
  7 38  1  0
 38 39  1  0
 38 40  1  0
 38 41  1  0
 41 42  1  0
 41 43  1  0
  6 44  1  0
 44 45  1  0
 44 46  2  0
 46 47  1  0
 46  2  1  0
 41  7  1  0
 37  8  1  0
 34 12  1  0
 29 20  1  0
M  END
>  <cnnaffinity>  (1) 
-5.09224

>  <filename>  (1) 
c1ccc(N2CCN(c3nnc(C4(c5cccnc5)CC4)o3)CC2)cc1

$$$$
