
     RDKit          3D

 36 39  0  0  0  0  0  0  0  0999 V2000
    4.9521    1.8243   16.8929 H   0  0  0  0  0  0  0  0  0  0  0  0
    5.3870    1.3031   17.7432 C   0  0  0  0  0  0  0  0  0  0  0  0
    6.5322    0.6438   17.5118 N   0  0  0  0  0  0  0  0  0  0  0  0
    7.1048    0.0331   18.5525 C   0  0  0  0  0  0  0  0  0  0  0  0
    8.0249   -0.5067   18.3407 H   0  0  0  0  0  0  0  0  0  0  0  0
    6.5876    0.0595   19.8640 C   0  0  0  0  0  0  0  0  0  0  0  0
    7.3501   -0.5469   20.9630 C   0  0  0  0  0  0  0  0  0  0  0  0
    8.2727   -1.4921   20.7443 N   0  0  0  0  0  0  0  0  0  0  0  0
    8.7773   -1.7256   21.9492 N   0  0  0  0  0  0  0  0  0  0  0  0
    8.2855   -0.9786   22.9480 C   0  0  0  0  0  0  0  0  0  0  0  0
    7.2951   -0.2184   22.3518 C   0  0  0  0  0  0  0  0  0  0  0  0
    6.4201    0.6810   22.9024 O   0  0  0  0  0  0  0  0  0  0  0  0
    6.2128    0.6733   24.2707 C   0  0  0  0  0  0  0  0  0  0  0  0
    6.2954    1.8984   24.9357 C   0  0  0  0  0  0  0  0  0  0  0  0
    6.6170    2.7728   24.3799 H   0  0  0  0  0  0  0  0  0  0  0  0
    5.9737    1.9676   26.2933 C   0  0  0  0  0  0  0  0  0  0  0  0
    6.0352    2.9238   26.8080 H   0  0  0  0  0  0  0  0  0  0  0  0
    5.5785    0.8192   26.9869 C   0  0  0  0  0  0  0  0  0  0  0  0
    5.3169    0.8803   28.0391 H   0  0  0  0  0  0  0  0  0  0  0  0
    5.5380   -0.4116   26.3244 C   0  0  0  0  0  0  0  0  0  0  0  0
    5.2617   -1.3124   26.8675 H   0  0  0  0  0  0  0  0  0  0  0  0
    5.8619   -0.4909   24.9672 C   0  0  0  0  0  0  0  0  0  0  0  0
    5.8737   -1.4470   24.4518 H   0  0  0  0  0  0  0  0  0  0  0  0
    8.9913   -1.2881   24.2382 C   0  0  0  0  0  0  0  0  0  0  0  0
    8.3142   -1.7606   24.9608 H   0  0  0  0  0  0  0  0  0  0  0  0
    9.3884   -0.3843   24.7101 H   0  0  0  0  0  0  0  0  0  0  0  0
   10.1278   -2.2328   23.7686 C   0  0  0  0  0  0  0  0  0  0  0  0
   10.3122   -3.0448   24.4760 H   0  0  0  0  0  0  0  0  0  0  0  0
   11.0430   -1.6546   23.6626 H   0  0  0  0  0  0  0  0  0  0  0  0
    9.7486   -2.7173   22.3462 C   0  0  0  0  0  0  0  0  0  0  0  0
    9.3069   -3.7207   22.3291 H   0  0  0  0  0  0  0  0  0  0  0  0
   10.5965   -2.6784   21.6620 H   0  0  0  0  0  0  0  0  0  0  0  0
    5.3621    0.7157   20.0784 C   0  0  0  0  0  0  0  0  0  0  0  0
    4.9047    0.7351   21.0689 H   0  0  0  0  0  0  0  0  0  0  0  0
    4.7581    1.3429   18.9928 C   0  0  0  0  0  0  0  0  0  0  0  0
    3.8253    1.8829   19.1077 H   0  0  0  0  0  0  0  0  0  0  0  0
  1  2  1  0
  2  3  2  0
  3  4  1  0
  4  5  1  0
  4  6  2  0
  6  7  1  0
  7  8  2  0
  8  9  1  0
  9 10  1  0
 10 11  2  0
 11 12  1  0
 12 13  1  0
 13 14  2  0
 14 15  1  0
 14 16  1  0
 16 17  1  0
 16 18  2  0
 18 19  1  0
 18 20  1  0
 20 21  1  0
 20 22  2  0
 22 23  1  0
 10 24  1  0
 24 25  1  0
 24 26  1  0
 24 27  1  0
 27 28  1  0
 27 29  1  0
 27 30  1  0
 30 31  1  0
 30 32  1  0
  6 33  1  0
 33 34  1  0
 33 35  2  0
 35 36  1  0
 35  2  1  0
 11  7  1  0
 22 13  1  0
 30  9  1  0
M  END
>  <cnnaffinity>  (1) 
-5.28986

>  <filename>  (1) 
c1ccc(Oc2c(-c3cccnc3)nn3c2CCC3)cc1

$$$$
