
     RDKit          3D

 34 37  0  0  0  0  0  0  0  0999 V2000
    4.9274    1.7819   16.9975 H   0  0  0  0  0  0  0  0  0  0  0  0
    5.4051    1.2923   17.8404 C   0  0  0  0  0  0  0  0  0  0  0  0
    6.5654    0.6703   17.5792 N   0  0  0  0  0  0  0  0  0  0  0  0
    7.1577    0.0388   18.5949 C   0  0  0  0  0  0  0  0  0  0  0  0
    8.1094   -0.4377   18.3724 H   0  0  0  0  0  0  0  0  0  0  0  0
    6.6440    0.0080   19.8985 C   0  0  0  0  0  0  0  0  0  0  0  0
    7.4042   -0.6726   20.9406 C   0  0  0  0  0  0  0  0  0  0  0  0
    7.8425   -1.9660   20.7893 N   0  0  0  0  0  0  0  0  0  0  0  0
    8.4337   -2.2293   21.9238 C   0  0  0  0  0  0  0  0  0  0  0  0
    9.2853   -3.5669   22.6489 S   0  0  0  0  0  0  0  0  0  0  0  0
    9.6999   -2.5855   24.0330 C   0  0  0  0  0  0  0  0  0  0  0  0
   10.3133   -3.0251   24.8052 H   0  0  0  0  0  0  0  0  0  0  0  0
    9.1653   -1.3525   23.9674 C   0  0  0  0  0  0  0  0  0  0  0  0
    9.2347   -0.5523   24.6957 H   0  0  0  0  0  0  0  0  0  0  0  0
    8.4507   -1.1645   22.7904 N   0  0  0  0  0  0  0  0  0  0  0  0
    7.8064   -0.1276   22.1493 C   0  0  0  0  0  0  0  0  0  0  0  0
    7.6363    1.2451   22.7127 C   0  0  0  0  0  0  0  0  0  0  0  0
    7.6860    1.9546   21.8782 H   0  0  0  0  0  0  0  0  0  0  0  0
    8.4892    1.4761   23.3660 H   0  0  0  0  0  0  0  0  0  0  0  0
    6.3351    1.4637   23.4796 C   0  0  0  0  0  0  0  0  0  0  0  0
    5.9912    0.6187   24.5432 C   0  0  0  0  0  0  0  0  0  0  0  0
    6.6573   -0.2008   24.8081 H   0  0  0  0  0  0  0  0  0  0  0  0
    4.8031    0.8154   25.2530 C   0  0  0  0  0  0  0  0  0  0  0  0
    4.5578    0.1516   26.0779 H   0  0  0  0  0  0  0  0  0  0  0  0
    3.9437    1.8628   24.9026 C   0  0  0  0  0  0  0  0  0  0  0  0
    3.0236    2.0218   25.4587 H   0  0  0  0  0  0  0  0  0  0  0  0
    4.2766    2.7119   23.8402 C   0  0  0  0  0  0  0  0  0  0  0  0
    3.6261    3.5371   23.5608 H   0  0  0  0  0  0  0  0  0  0  0  0
    5.4692    2.5111   23.1364 C   0  0  0  0  0  0  0  0  0  0  0  0
    5.7308    3.1533   22.2945 H   0  0  0  0  0  0  0  0  0  0  0  0
    5.4314    0.6655   20.1597 C   0  0  0  0  0  0  0  0  0  0  0  0
    4.9989    0.6415   21.1640 H   0  0  0  0  0  0  0  0  0  0  0  0
    4.8018    1.3165   19.1032 C   0  0  0  0  0  0  0  0  0  0  0  0
    3.8689    1.8455   19.2533 H   0  0  0  0  0  0  0  0  0  0  0  0
  1  2  1  0
  2  3  2  0
  3  4  1  0
  4  5  1  0
  4  6  2  0
  6  7  1  0
  7  8  1  0
  8  9  2  0
  9 10  1  0
 10 11  1  0
 11 12  1  0
 11 13  2  0
 13 14  1  0
 13 15  1  0
 15 16  1  0
 16 17  1  0
 17 18  1  0
 17 19  1  0
 17 20  1  0
 20 21  2  0
 21 22  1  0
 21 23  1  0
 23 24  1  0
 23 25  2  0
 25 26  1  0
 25 27  1  0
 27 28  1  0
 27 29  2  0
 29 30  1  0
  6 31  1  0
 31 32  1  0
 31 33  2  0
 33 34  1  0
 33  2  1  0
 16  7  2  0
 29 20  1  0
 15  9  1  0
M  END
>  <cnnaffinity>  (1) 
-5.27035

>  <filename>  (1) 
c1ccc(Cc2c(-c3cccnc3)nc3sccn23)cc1

$$$$
