
     RDKit          3D

 36 39  0  0  0  0  0  0  0  0999 V2000
    4.9812    1.8439   16.9324 H   0  0  0  0  0  0  0  0  0  0  0  0
    5.4203    1.3018   17.7690 C   0  0  0  0  0  0  0  0  0  0  0  0
    6.5637    0.6437   17.5266 N   0  0  0  0  0  0  0  0  0  0  0  0
    7.1472    0.0074   18.5470 C   0  0  0  0  0  0  0  0  0  0  0  0
    8.0718   -0.5152   18.3137 H   0  0  0  0  0  0  0  0  0  0  0  0
    6.6241   -0.0111   19.8543 C   0  0  0  0  0  0  0  0  0  0  0  0
    7.3917   -0.6021   20.9646 C   0  0  0  0  0  0  0  0  0  0  0  0
    8.5831   -1.1744   20.7413 N   0  0  0  0  0  0  0  0  0  0  0  0
    9.0088   -1.4513   21.9892 N   0  0  0  0  0  0  0  0  0  0  0  0
   10.1968   -1.9462   22.4955 C   0  0  0  0  0  0  0  0  0  0  0  0
   10.9697   -2.3051   21.8376 H   0  0  0  0  0  0  0  0  0  0  0  0
   10.0937   -1.8278   23.8389 C   0  0  0  0  0  0  0  0  0  0  0  0
   10.7740   -2.0756   24.6321 H   0  0  0  0  0  0  0  0  0  0  0  0
    8.8612   -1.2540   24.1711 N   0  0  0  0  0  0  0  0  0  0  0  0
    8.5555   -0.4405   25.6539 S   0  0  0  0  0  0  0  0  0  0  0  0
    9.3504    1.1876   25.3012 C   0  0  0  0  0  0  0  0  0  0  0  0
    9.2219    1.7842   26.2156 H   0  0  0  0  0  0  0  0  0  0  0  0
   10.4248    1.0277   25.1674 H   0  0  0  0  0  0  0  0  0  0  0  0
    8.7231    1.8836   24.1132 C   0  0  0  0  0  0  0  0  0  0  0  0
    7.4270    2.4065   24.2563 C   0  0  0  0  0  0  0  0  0  0  0  0
    6.9628    2.4122   25.2405 H   0  0  0  0  0  0  0  0  0  0  0  0
    6.7231    2.9029   23.1602 C   0  0  0  0  0  0  0  0  0  0  0  0
    5.7313    3.3333   23.3014 H   0  0  0  0  0  0  0  0  0  0  0  0
    7.3135    2.8746   21.8917 C   0  0  0  0  0  0  0  0  0  0  0  0
    6.7509    3.2113   21.0282 H   0  0  0  0  0  0  0  0  0  0  0  0
    8.6233    2.3980   21.7410 C   0  0  0  0  0  0  0  0  0  0  0  0
    9.0926    2.4032   20.7624 H   0  0  0  0  0  0  0  0  0  0  0  0
    9.3224    1.9044   22.8446 C   0  0  0  0  0  0  0  0  0  0  0  0
   10.3146    1.4792   22.7143 H   0  0  0  0  0  0  0  0  0  0  0  0
    8.1711   -1.0669   22.9733 C   0  0  0  0  0  0  0  0  0  0  0  0
    7.0539   -0.5260   22.3387 C   0  0  0  0  0  0  0  0  0  0  0  0
    6.2046   -0.0301   22.7685 H   0  0  0  0  0  0  0  0  0  0  0  0
    5.4024    0.6382   20.0766 C   0  0  0  0  0  0  0  0  0  0  0  0
    4.9366    0.6146   21.0624 H   0  0  0  0  0  0  0  0  0  0  0  0
    4.7974    1.3155   19.0218 C   0  0  0  0  0  0  0  0  0  0  0  0
    3.8745    1.8662   19.1642 H   0  0  0  0  0  0  0  0  0  0  0  0
  1  2  1  0
  2  3  2  0
  3  4  1  0
  4  5  1  0
  4  6  2  0
  6  7  1  0
  7  8  2  0
  8  9  1  0
  9 10  1  0
 10 11  1  0
 10 12  2  0
 12 13  1  0
 12 14  1  0
 14 15  1  0
 15 16  1  0
 16 17  1  0
 16 18  1  0
 16 19  1  0
 19 20  2  0
 20 21  1  0
 20 22  1  0
 22 23  1  0
 22 24  2  0
 24 25  1  0
 24 26  1  0
 26 27  1  0
 26 28  2  0
 28 29  1  0
 14 30  1  0
 30 31  2  0
 31 32  1  0
  6 33  1  0
 33 34  1  0
 33 35  2  0
 35 36  1  0
 35  2  1  0
 31  7  1  0
 30  9  1  0
 28 19  1  0
M  END
>  <cnnaffinity>  (1) 
-5.62366

>  <filename>  (1) 
c1ccc(CSn2ccn3nc(-c4cccnc4)cc23)cc1

$$$$
