
     RDKit          3D

 38 41  0  0  0  0  0  0  0  0999 V2000
    4.9492    1.8075   16.9783 H   0  0  0  0  0  0  0  0  0  0  0  0
    5.3987    1.2937   17.8278 C   0  0  0  0  0  0  0  0  0  0  0  0
    6.5533    0.6573   17.5801 N   0  0  0  0  0  0  0  0  0  0  0  0
    7.1498    0.0305   18.5974 C   0  0  0  0  0  0  0  0  0  0  0  0
    8.0942   -0.4554   18.3662 H   0  0  0  0  0  0  0  0  0  0  0  0
    6.6448    0.0103   19.9064 C   0  0  0  0  0  0  0  0  0  0  0  0
    7.4091   -0.6575   20.9572 C   0  0  0  0  0  0  0  0  0  0  0  0
    8.0118   -1.8786   20.7453 N   0  0  0  0  0  0  0  0  0  0  0  0
    8.4850   -2.1875   21.9211 C   0  0  0  0  0  0  0  0  0  0  0  0
    9.3116   -3.5462   22.6200 S   0  0  0  0  0  0  0  0  0  0  0  0
    9.5656   -2.6559   24.1021 C   0  0  0  0  0  0  0  0  0  0  0  0
   10.1887   -3.1088   24.8637 H   0  0  0  0  0  0  0  0  0  0  0  0
    8.9413   -1.4633   24.0893 C   0  0  0  0  0  0  0  0  0  0  0  0
    8.8487   -0.7212   24.8755 H   0  0  0  0  0  0  0  0  0  0  0  0
    8.3084   -1.2159   22.8717 N   0  0  0  0  0  0  0  0  0  0  0  0
    7.6094   -0.1966   22.2522 C   0  0  0  0  0  0  0  0  0  0  0  0
    7.2439    1.0649   22.9684 C   0  0  0  0  0  0  0  0  0  0  0  0
    8.1271    1.4909   23.4672 H   0  0  0  0  0  0  0  0  0  0  0  0
    6.9118    1.8180   22.2453 H   0  0  0  0  0  0  0  0  0  0  0  0
    6.1406    0.8607   24.0121 C   0  0  0  0  0  0  0  0  0  0  0  0
    6.4633    0.1623   24.7963 H   0  0  0  0  0  0  0  0  0  0  0  0
    5.2325    0.4694   23.5450 H   0  0  0  0  0  0  0  0  0  0  0  0
    5.8429    2.1205   24.5823 O   0  0  0  0  0  0  0  0  0  0  0  0
    4.8464    2.2129   25.5084 C   0  0  0  0  0  0  0  0  0  0  0  0
    4.1009    1.1438   26.0269 C   0  0  0  0  0  0  0  0  0  0  0  0
    4.2800    0.1336   25.6719 H   0  0  0  0  0  0  0  0  0  0  0  0
    3.1332    1.3892   27.0138 C   0  0  0  0  0  0  0  0  0  0  0  0
    2.5633    0.5581   27.4288 H   0  0  0  0  0  0  0  0  0  0  0  0
    2.9018    2.6887   27.4718 C   0  0  0  0  0  0  0  0  0  0  0  0
    2.1556    2.8789   28.2383 H   0  0  0  0  0  0  0  0  0  0  0  0
    3.6397    3.7555   26.9380 C   0  0  0  0  0  0  0  0  0  0  0  0
    3.4686    4.7733   27.2874 H   0  0  0  0  0  0  0  0  0  0  0  0
    4.6022    3.5196   25.9605 C   0  0  0  0  0  0  0  0  0  0  0  0
    5.1996    4.3071   25.5155 H   0  0  0  0  0  0  0  0  0  0  0  0
    5.4220    0.6629   20.1466 C   0  0  0  0  0  0  0  0  0  0  0  0
    4.9702    0.6678   21.1417 H   0  0  0  0  0  0  0  0  0  0  0  0
    4.7903    1.3127   19.0882 C   0  0  0  0  0  0  0  0  0  0  0  0
    3.8587    1.8491   19.2278 H   0  0  0  0  0  0  0  0  0  0  0  0
  1  2  1  0
  2  3  2  0
  3  4  1  0
  4  5  1  0
  4  6  2  0
  6  7  1  0
  7  8  1  0
  8  9  2  0
  9 10  1  0
 10 11  1  0
 11 12  1  0
 11 13  2  0
 13 14  1  0
 13 15  1  0
 15 16  1  0
 16 17  1  0
 17 18  1  0
 17 19  1  0
 17 20  1  0
 20 21  1  0
 20 22  1  0
 20 23  1  0
 23 24  1  0
 24 25  2  0
 25 26  1  0
 25 27  1  0
 27 28  1  0
 27 29  2  0
 29 30  1  0
 29 31  1  0
 31 32  1  0
 31 33  2  0
 33 34  1  0
  6 35  1  0
 35 36  1  0
 35 37  2  0
 37 38  1  0
 37  2  1  0
 16  7  2  0
 33 24  1  0
 15  9  1  0
M  END
>  <cnnaffinity>  (1) 
-5.58881

>  <filename>  (1) 
c1ccc(OCCc2c(-c3cccnc3)nc3sccn23)cc1

$$$$
