
     RDKit          3D

 46 49  0  0  0  0  0  0  0  0999 V2000
    6.8998   -5.4872   27.9865 H   0  0  0  0  0  0  0  0  0  0  0  0
    7.7527   -5.2018   27.3699 C   0  0  0  0  0  0  0  0  0  0  0  0
    7.4611   -4.5287   26.2563 N   0  0  0  0  0  0  0  0  0  0  0  0
    8.4938   -4.1312   25.4996 C   0  0  0  0  0  0  0  0  0  0  0  0
    8.1511   -3.3569   24.4013 N   0  0  0  0  0  0  0  0  0  0  0  0
    8.7423   -3.4986   23.0708 C   0  0  0  0  0  0  0  0  0  0  0  0
    7.9843   -3.8778   22.3663 H   0  0  0  0  0  0  0  0  0  0  0  0
    9.5397   -4.2485   23.0888 H   0  0  0  0  0  0  0  0  0  0  0  0
    9.2896   -2.1598   22.4925 C   0  0  0  0  0  0  0  0  0  0  0  0
   10.2617   -1.9519   22.9646 H   0  0  0  0  0  0  0  0  0  0  0  0
    9.4966   -2.3081   21.4245 H   0  0  0  0  0  0  0  0  0  0  0  0
    8.3770   -1.0122   22.6831 N   0  0  0  0  0  0  0  0  0  0  0  0
    8.2554   -0.0213   21.6437 C   0  0  0  0  0  0  0  0  0  0  0  0
    7.4280   -0.6352   20.6078 N   0  0  0  0  0  0  0  0  0  0  0  0
    6.7883   -1.2166   21.1283 H   0  0  0  0  0  0  0  0  0  0  0  0
    6.7626    0.0986   19.5889 C   0  0  0  0  0  0  0  0  0  0  0  0
    7.2001    0.1562   18.2435 C   0  0  0  0  0  0  0  0  0  0  0  0
    8.1257   -0.3496   17.9622 H   0  0  0  0  0  0  0  0  0  0  0  0
    6.5336    0.7722   17.2542 N   0  0  0  0  0  0  0  0  0  0  0  0
    5.3776    1.3791   17.5672 C   0  0  0  0  0  0  0  0  0  0  0  0
    4.8654    1.8865   16.7540 H   0  0  0  0  0  0  0  0  0  0  0  0
    4.8341    1.3705   18.8541 C   0  0  0  0  0  0  0  0  0  0  0  0
    3.8979    1.8800   19.0521 H   0  0  0  0  0  0  0  0  0  0  0  0
    5.5305    0.7121   19.8754 C   0  0  0  0  0  0  0  0  0  0  0  0
    5.1532    0.6618   20.8966 H   0  0  0  0  0  0  0  0  0  0  0  0
    7.8347    1.3823   22.1744 C   0  0  0  0  0  0  0  0  0  0  0  0
    6.8692    1.7289   21.8153 H   0  0  0  0  0  0  0  0  0  0  0  0
    7.8473    1.4243   23.2643 H   0  0  0  0  0  0  0  0  0  0  0  0
    9.0743    2.0252   21.5084 C   0  0  0  0  0  0  0  0  0  0  0  0
    9.7384    2.5763   22.1825 H   0  0  0  0  0  0  0  0  0  0  0  0
    8.8334    2.6816   20.6661 H   0  0  0  0  0  0  0  0  0  0  0  0
    9.5627    0.6099   21.1059 C   0  0  0  0  0  0  0  0  0  0  0  0
   10.4602    0.2640   21.6232 H   0  0  0  0  0  0  0  0  0  0  0  0
    9.6679    0.4240   20.0395 H   0  0  0  0  0  0  0  0  0  0  0  0
    7.1713   -1.3013   23.4595 C   0  0  0  0  0  0  0  0  0  0  0  0
    6.6688   -0.3710   23.7375 H   0  0  0  0  0  0  0  0  0  0  0  0
    6.4391   -1.9135   22.9039 H   0  0  0  0  0  0  0  0  0  0  0  0
    7.5171   -2.0748   24.7330 C   0  0  0  0  0  0  0  0  0  0  0  0
    6.6049   -2.2703   25.3117 H   0  0  0  0  0  0  0  0  0  0  0  0
    8.1867   -1.4574   25.3562 H   0  0  0  0  0  0  0  0  0  0  0  0
    9.8379   -4.3592   25.8338 C   0  0  0  0  0  0  0  0  0  0  0  0
   10.6016   -3.9372   25.1944 H   0  0  0  0  0  0  0  0  0  0  0  0
   10.1266   -5.0313   27.0198 C   0  0  0  0  0  0  0  0  0  0  0  0
   11.1548   -5.1957   27.3354 H   0  0  0  0  0  0  0  0  0  0  0  0
    9.0492   -5.4576   27.8067 C   0  0  0  0  0  0  0  0  0  0  0  0
    9.1948   -5.9612   28.7528 H   0  0  0  0  0  0  0  0  0  0  0  0
  1  2  1  0
  2  3  2  0
  3  4  1  0
  4  5  1  0
  5  6  1  0
  6  7  1  0
  6  8  1  0
  6  9  1  0
  9 10  1  0
  9 11  1  0
  9 12  1  0
 12 13  1  0
 13 14  1  0
 14 15  1  0
 14 16  1  0
 16 17  2  0
 17 18  1  0
 17 19  1  0
 19 20  2  0
 20 21  1  0
 20 22  1  0
 22 23  1  0
 22 24  2  0
 24 25  1  0
 13 26  1  0
 26 27  1  0
 26 28  1  0
 26 29  1  0
 29 30  1  0
 29 31  1  0
 29 32  1  0
 32 33  1  0
 32 34  1  0
 12 35  1  0
 35 36  1  0
 35 37  1  0
 35 38  1  0
 38 39  1  0
 38 40  1  0
  4 41  2  0
 41 42  1  0
 41 43  1  0
 43 44  1  0
 43 45  2  0
 45 46  1  0
 45  2  1  0
 38  5  1  0
 32 13  1  0
 24 16  1  0
M  END
>  <cnnaffinity>  (1) 
-5.60678

>  <filename>  (1) 
c1ccc(N2CCN(C3(Nc4cccnc4)CCC3)CC2)nc1

$$$$
