
     RDKit          3D

 40 43  0  0  0  0  0  0  0  0999 V2000
    4.9838    1.8449   16.9019 H   0  0  0  0  0  0  0  0  0  0  0  0
    5.4227    1.2969   17.7362 C   0  0  0  0  0  0  0  0  0  0  0  0
    6.5709    0.6448   17.4924 N   0  0  0  0  0  0  0  0  0  0  0  0
    7.1524    0.0027   18.5118 C   0  0  0  0  0  0  0  0  0  0  0  0
    8.0849   -0.5088   18.2841 H   0  0  0  0  0  0  0  0  0  0  0  0
    6.6245   -0.0353   19.8149 C   0  0  0  0  0  0  0  0  0  0  0  0
    7.3644   -0.6612   20.9250 C   0  0  0  0  0  0  0  0  0  0  0  0
    8.4760   -1.3864   20.7261 N   0  0  0  0  0  0  0  0  0  0  0  0
    8.8835   -1.6472   21.9872 N   0  0  0  0  0  0  0  0  0  0  0  0
    9.9665   -2.3127   22.5371 C   0  0  0  0  0  0  0  0  0  0  0  0
   10.7045   -2.7788   21.9079 H   0  0  0  0  0  0  0  0  0  0  0  0
    9.8568   -2.1498   23.8785 C   0  0  0  0  0  0  0  0  0  0  0  0
   10.4884   -2.4750   24.6951 H   0  0  0  0  0  0  0  0  0  0  0  0
    8.7304   -1.3992   24.1518 N   0  0  0  0  0  0  0  0  0  0  0  0
    8.4503   -0.9225   25.4443 N   0  0  0  0  0  0  0  0  0  0  0  0
    8.8233   -1.6211   26.0846 H   0  0  0  0  0  0  0  0  0  0  0  0
    7.0199   -0.7449   25.7338 C   0  0  0  0  0  0  0  0  0  0  0  0
    6.9711   -0.4219   26.7780 H   0  0  0  0  0  0  0  0  0  0  0  0
    6.6402    0.0982   25.1379 H   0  0  0  0  0  0  0  0  0  0  0  0
    6.1325   -1.9791   25.5081 C   0  0  0  0  0  0  0  0  0  0  0  0
    5.1110   -1.6848   25.7816 H   0  0  0  0  0  0  0  0  0  0  0  0
    6.1508   -2.1914   24.4317 H   0  0  0  0  0  0  0  0  0  0  0  0
    6.5280   -3.2184   26.2850 C   0  0  0  0  0  0  0  0  0  0  0  0
    7.3941   -4.1764   25.7260 C   0  0  0  0  0  0  0  0  0  0  0  0
    7.6807   -4.0848   24.6804 H   0  0  0  0  0  0  0  0  0  0  0  0
    7.8189   -5.2880   26.4665 C   0  0  0  0  0  0  0  0  0  0  0  0
    8.4804   -6.0319   26.0202 H   0  0  0  0  0  0  0  0  0  0  0  0
    7.3408   -5.4772   27.7702 C   0  0  0  0  0  0  0  0  0  0  0  0
    7.6668   -6.3387   28.3513 H   0  0  0  0  0  0  0  0  0  0  0  0
    6.4241   -4.5711   28.3165 C   0  0  0  0  0  0  0  0  0  0  0  0
    6.0345   -4.7133   29.3242 H   0  0  0  0  0  0  0  0  0  0  0  0
    6.0263   -3.4520   27.5758 C   0  0  0  0  0  0  0  0  0  0  0  0
    5.3142   -2.7524   28.0050 H   0  0  0  0  0  0  0  0  0  0  0  0
    8.1166   -1.0993   22.9528 C   0  0  0  0  0  0  0  0  0  0  0  0
    7.0609   -0.4794   22.2941 C   0  0  0  0  0  0  0  0  0  0  0  0
    6.1879   -0.0018   22.6986 H   0  0  0  0  0  0  0  0  0  0  0  0
    5.4060    0.6260   20.0423 C   0  0  0  0  0  0  0  0  0  0  0  0
    4.9401    0.6208   21.0302 H   0  0  0  0  0  0  0  0  0  0  0  0
    4.7989    1.3015   18.9891 C   0  0  0  0  0  0  0  0  0  0  0  0
    3.8776    1.8554   19.1366 H   0  0  0  0  0  0  0  0  0  0  0  0
  1  2  1  0
  2  3  2  0
  3  4  1  0
  4  5  1  0
  4  6  2  0
  6  7  1  0
  7  8  2  0
  8  9  1  0
  9 10  1  0
 10 11  1  0
 10 12  2  0
 12 13  1  0
 12 14  1  0
 14 15  1  0
 15 16  1  0
 15 17  1  0
 17 18  1  0
 17 19  1  0
 17 20  1  0
 20 21  1  0
 20 22  1  0
 20 23  1  0
 23 24  2  0
 24 25  1  0
 24 26  1  0
 26 27  1  0
 26 28  2  0
 28 29  1  0
 28 30  1  0
 30 31  1  0
 30 32  2  0
 32 33  1  0
 14 34  1  0
 34 35  2  0
 35 36  1  0
  6 37  1  0
 37 38  1  0
 37 39  2  0
 39 40  1  0
 39  2  1  0
 35  7  1  0
 34  9  1  0
 32 23  1  0
M  END
>  <cnnaffinity>  (1) 
-5.4397

>  <filename>  (1) 
c1ccc(CCNn2ccn3nc(-c4cccnc4)cc23)cc1

$$$$
