
     RDKit          3D

 38 40  0  0  0  0  0  0  0  0999 V2000
    4.8578    2.0494   16.7716 H   0  0  0  0  0  0  0  0  0  0  0  0
    5.2286    1.4581   17.6063 C   0  0  0  0  0  0  0  0  0  0  0  0
    6.3486    0.7568   17.3679 N   0  0  0  0  0  0  0  0  0  0  0  0
    6.8649    0.0743   18.3928 C   0  0  0  0  0  0  0  0  0  0  0  0
    7.7836   -0.4735   18.1824 H   0  0  0  0  0  0  0  0  0  0  0  0
    6.3037    0.0153   19.6869 C   0  0  0  0  0  0  0  0  0  0  0  0
    7.0370   -0.7110   20.7644 C   0  0  0  0  0  0  0  0  0  0  0  0
    6.4491   -1.6044   21.6893 C   0  0  0  0  0  0  0  0  0  0  0  0
    5.3919   -1.8503   21.6432 H   0  0  0  0  0  0  0  0  0  0  0  0
    7.1434   -2.2439   22.6412 N   0  0  0  0  0  0  0  0  0  0  0  0
    8.4654   -2.0153   22.7244 C   0  0  0  0  0  0  0  0  0  0  0  0
    8.9960   -2.5257   23.5266 H   0  0  0  0  0  0  0  0  0  0  0  0
    9.1719   -1.1540   21.8374 C   0  0  0  0  0  0  0  0  0  0  0  0
   10.5468   -0.9142   21.8114 N   0  0  0  0  0  0  0  0  0  0  0  0
   10.7172    0.0163   21.4329 H   0  0  0  0  0  0  0  0  0  0  0  0
   11.3791   -1.2013   22.9574 C   0  0  0  0  0  0  0  0  0  0  0  0
   11.3074   -2.2747   23.1658 H   0  0  0  0  0  0  0  0  0  0  0  0
   12.4185   -1.0221   22.6541 H   0  0  0  0  0  0  0  0  0  0  0  0
   11.0499   -0.3639   24.2163 C   0  0  0  0  0  0  0  0  0  0  0  0
   10.0014   -0.5256   24.4865 H   0  0  0  0  0  0  0  0  0  0  0  0
   11.6418   -0.7140   25.0711 H   0  0  0  0  0  0  0  0  0  0  0  0
   11.3083    1.1056   23.9677 C   0  0  0  0  0  0  0  0  0  0  0  0
   12.6296    1.5621   23.8232 C   0  0  0  0  0  0  0  0  0  0  0  0
   13.4490    0.8760   24.0235 H   0  0  0  0  0  0  0  0  0  0  0  0
   12.8917    2.8743   23.4160 C   0  0  0  0  0  0  0  0  0  0  0  0
   13.9171    3.2032   23.2853 H   0  0  0  0  0  0  0  0  0  0  0  0
   11.8348    3.7480   23.1435 C   0  0  0  0  0  0  0  0  0  0  0  0
   12.0412    4.7491   22.7697 H   0  0  0  0  0  0  0  0  0  0  0  0
   10.5169    3.3302   23.3500 C   0  0  0  0  0  0  0  0  0  0  0  0
    9.6959    4.0271   23.1959 H   0  0  0  0  0  0  0  0  0  0  0  0
   10.2585    2.0174   23.7701 C   0  0  0  0  0  0  0  0  0  0  0  0
    9.2329    1.6991   23.9466 H   0  0  0  0  0  0  0  0  0  0  0  0
    8.4157   -0.5100   20.8574 C   0  0  0  0  0  0  0  0  0  0  0  0
    8.9348    0.1647   20.1772 H   0  0  0  0  0  0  0  0  0  0  0  0
    5.1086    0.7160   19.8978 C   0  0  0  0  0  0  0  0  0  0  0  0
    4.6327    0.7150   20.8800 H   0  0  0  0  0  0  0  0  0  0  0  0
    4.5713    1.4599   18.8411 C   0  0  0  0  0  0  0  0  0  0  0  0
    3.6784    2.0632   18.9611 H   0  0  0  0  0  0  0  0  0  0  0  0
  1  2  1  0
  2  3  2  0
  3  4  1  0
  4  5  1  0
  4  6  2  0
  6  7  1  0
  7  8  2  0
  8  9  1  0
  8 10  1  0
 10 11  2  0
 11 12  1  0
 11 13  1  0
 13 14  1  0
 14 15  1  0
 14 16  1  0
 16 17  1  0
 16 18  1  0
 16 19  1  0
 19 20  1  0
 19 21  1  0
 19 22  1  0
 22 23  2  0
 23 24  1  0
 23 25  1  0
 25 26  1  0
 25 27  2  0
 27 28  1  0
 27 29  1  0
 29 30  1  0
 29 31  2  0
 31 32  1  0
 13 33  2  0
 33 34  1  0
  6 35  1  0
 35 36  1  0
 35 37  2  0
 37 38  1  0
 37  2  1  0
 33  7  1  0
 31 22  1  0
M  END
>  <cnnaffinity>  (1) 
-5.37937

>  <filename>  (1) 
c1ccc(CCNc2cncc(-c3cccnc3)c2)cc1

$$$$
