
     RDKit          3D

 36 39  0  0  0  0  0  0  0  0999 V2000
    4.9426    1.7911   16.9951 H   0  0  0  0  0  0  0  0  0  0  0  0
    5.4006    1.2915   17.8457 C   0  0  0  0  0  0  0  0  0  0  0  0
    6.5612    0.6700   17.5923 N   0  0  0  0  0  0  0  0  0  0  0  0
    7.1662    0.0515   18.6065 C   0  0  0  0  0  0  0  0  0  0  0  0
    8.1166   -0.4262   18.3729 H   0  0  0  0  0  0  0  0  0  0  0  0
    6.6446   -0.0054   19.9054 C   0  0  0  0  0  0  0  0  0  0  0  0
    7.3645   -0.7196   20.9639 C   0  0  0  0  0  0  0  0  0  0  0  0
    6.8830   -0.7740   22.1638 N   0  0  0  0  0  0  0  0  0  0  0  0
    7.8089   -1.3363   22.9828 N   0  0  0  0  0  0  0  0  0  0  0  0
    7.9569   -1.4975   24.3342 C   0  0  0  0  0  0  0  0  0  0  0  0
    7.0350   -0.9256   25.3560 C   0  0  0  0  0  0  0  0  0  0  0  0
    5.9955   -1.0624   25.0370 H   0  0  0  0  0  0  0  0  0  0  0  0
    7.2044   -1.4814   26.2810 H   0  0  0  0  0  0  0  0  0  0  0  0
    7.3039    0.5615   25.6200 C   0  0  0  0  0  0  0  0  0  0  0  0
    8.3568    0.7213   25.9009 H   0  0  0  0  0  0  0  0  0  0  0  0
    6.6744    0.9234   26.4463 H   0  0  0  0  0  0  0  0  0  0  0  0
    7.0003    1.2615   24.4297 O   0  0  0  0  0  0  0  0  0  0  0  0
    7.2224    2.6000   24.3263 C   0  0  0  0  0  0  0  0  0  0  0  0
    7.6872    3.4148   25.3672 C   0  0  0  0  0  0  0  0  0  0  0  0
    7.9078    2.9797   26.3362 H   0  0  0  0  0  0  0  0  0  0  0  0
    7.8573    4.7886   25.1490 C   0  0  0  0  0  0  0  0  0  0  0  0
    8.2132    5.4176   25.9619 H   0  0  0  0  0  0  0  0  0  0  0  0
    7.5722    5.3502   23.9030 C   0  0  0  0  0  0  0  0  0  0  0  0
    7.7045    6.4148   23.7357 H   0  0  0  0  0  0  0  0  0  0  0  0
    7.1139    4.5316   22.8629 C   0  0  0  0  0  0  0  0  0  0  0  0
    6.8891    4.9626   21.8878 H   0  0  0  0  0  0  0  0  0  0  0  0
    6.9403    3.1629   23.0698 C   0  0  0  0  0  0  0  0  0  0  0  0
    6.5898    2.5077   22.2790 H   0  0  0  0  0  0  0  0  0  0  0  0
    9.1003   -2.0948   24.5678 N   0  0  0  0  0  0  0  0  0  0  0  0
    9.7513   -2.3021   23.3646 N   0  0  0  0  0  0  0  0  0  0  0  0
    8.9625   -1.8181   22.4455 C   0  0  0  0  0  0  0  0  0  0  0  0
    8.9573   -1.4958   20.7354 S   0  0  0  0  0  0  0  0  0  0  0  0
    5.4262    0.6565   20.1653 C   0  0  0  0  0  0  0  0  0  0  0  0
    4.9936    0.6478   21.1703 H   0  0  0  0  0  0  0  0  0  0  0  0
    4.7978    1.3139   19.1092 C   0  0  0  0  0  0  0  0  0  0  0  0
    3.8631    1.8500   19.2412 H   0  0  0  0  0  0  0  0  0  0  0  0
  1  2  1  0
  2  3  2  0
  3  4  1  0
  4  5  1  0
  4  6  2  0
  6  7  1  0
  7  8  2  0
  8  9  1  0
  9 10  1  0
 10 11  1  0
 11 12  1  0
 11 13  1  0
 11 14  1  0
 14 15  1  0
 14 16  1  0
 14 17  1  0
 17 18  1  0
 18 19  2  0
 19 20  1  0
 19 21  1  0
 21 22  1  0
 21 23  2  0
 23 24  1  0
 23 25  1  0
 25 26  1  0
 25 27  2  0
 27 28  1  0
 10 29  2  0
 29 30  1  0
 30 31  2  0
 31 32  1  0
  6 33  1  0
 33 34  1  0
 33 35  2  0
 35 36  1  0
 35  2  1  0
 32  7  1  0
 31  9  1  0
 27 18  1  0
M  END
>  <cnnaffinity>  (1) 
-5.42565

>  <filename>  (1) 
c1ccc(OCCc2nnc3sc(-c4cccnc4)nn23)cc1

$$$$
