
     RDKit          3D

 38 41  0  0  0  0  0  0  0  0999 V2000
    4.9224    1.7844   16.9972 H   0  0  0  0  0  0  0  0  0  0  0  0
    5.4005    1.2917   17.8390 C   0  0  0  0  0  0  0  0  0  0  0  0
    6.5628    0.6758   17.5758 N   0  0  0  0  0  0  0  0  0  0  0  0
    7.1668    0.0519   18.5894 C   0  0  0  0  0  0  0  0  0  0  0  0
    8.1157   -0.4313   18.3681 H   0  0  0  0  0  0  0  0  0  0  0  0
    6.6465    0.0127   19.8965 C   0  0  0  0  0  0  0  0  0  0  0  0
    7.4237   -0.6777   20.9229 C   0  0  0  0  0  0  0  0  0  0  0  0
    8.3648   -1.5615   20.7180 N   0  0  0  0  0  0  0  0  0  0  0  0
    8.9168   -1.9337   21.9251 N   0  0  0  0  0  0  0  0  0  0  0  0
    8.2995   -1.2255   22.8297 C   0  0  0  0  0  0  0  0  0  0  0  0
    8.4501   -0.8073   24.5106 S   0  0  0  0  0  0  0  0  0  0  0  0
    7.2115    0.4245   24.2491 C   0  0  0  0  0  0  0  0  0  0  0  0
    6.8917    1.4149   25.3213 C   0  0  0  0  0  0  0  0  0  0  0  0
    6.8046    0.8802   26.2732 H   0  0  0  0  0  0  0  0  0  0  0  0
    5.9125    1.8525   25.0901 H   0  0  0  0  0  0  0  0  0  0  0  0
    7.9538    2.5321   25.4514 C   0  0  0  0  0  0  0  0  0  0  0  0
    8.9128    2.0961   25.7589 H   0  0  0  0  0  0  0  0  0  0  0  0
    7.6506    3.1990   26.2681 H   0  0  0  0  0  0  0  0  0  0  0  0
    8.1602    3.3592   24.1651 C   0  0  0  0  0  0  0  0  0  0  0  0
    8.9129    4.1326   24.3677 H   0  0  0  0  0  0  0  0  0  0  0  0
    8.5920    2.7180   23.3857 H   0  0  0  0  0  0  0  0  0  0  0  0
    6.8973    4.0142   23.6391 C   0  0  0  0  0  0  0  0  0  0  0  0
    6.2220    4.9728   24.4108 C   0  0  0  0  0  0  0  0  0  0  0  0
    6.6343    5.2592   25.3769 H   0  0  0  0  0  0  0  0  0  0  0  0
    5.0395    5.5636   23.9541 C   0  0  0  0  0  0  0  0  0  0  0  0
    4.5395    6.3128   24.5622 H   0  0  0  0  0  0  0  0  0  0  0  0
    4.5101    5.1934   22.7142 C   0  0  0  0  0  0  0  0  0  0  0  0
    3.5950    5.6543   22.3484 H   0  0  0  0  0  0  0  0  0  0  0  0
    5.1706    4.2378   21.9383 C   0  0  0  0  0  0  0  0  0  0  0  0
    4.7651    3.9491   20.9722 H   0  0  0  0  0  0  0  0  0  0  0  0
    6.3588    3.6587   22.3911 C   0  0  0  0  0  0  0  0  0  0  0  0
    6.8613    2.9045   21.7873 H   0  0  0  0  0  0  0  0  0  0  0  0
    6.6933    0.4560   23.0671 N   0  0  0  0  0  0  0  0  0  0  0  0
    7.3175   -0.4562   22.2756 N   0  0  0  0  0  0  0  0  0  0  0  0
    5.4302    0.6544   20.1634 C   0  0  0  0  0  0  0  0  0  0  0  0
    5.0068    0.6382   21.1696 H   0  0  0  0  0  0  0  0  0  0  0  0
    4.8063    1.3077   19.1049 C   0  0  0  0  0  0  0  0  0  0  0  0
    3.8762    1.8415   19.2537 H   0  0  0  0  0  0  0  0  0  0  0  0
  1  2  1  0
  2  3  2  0
  3  4  1  0
  4  5  1  0
  4  6  2  0
  6  7  1  0
  7  8  2  0
  8  9  1  0
  9 10  2  0
 10 11  1  0
 11 12  1  0
 12 13  1  0
 13 14  1  0
 13 15  1  0
 13 16  1  0
 16 17  1  0
 16 18  1  0
 16 19  1  0
 19 20  1  0
 19 21  1  0
 19 22  1  0
 22 23  2  0
 23 24  1  0
 23 25  1  0
 25 26  1  0
 25 27  2  0
 27 28  1  0
 27 29  1  0
 29 30  1  0
 29 31  2  0
 31 32  1  0
 12 33  2  0
 33 34  1  0
  6 35  1  0
 35 36  1  0
 35 37  2  0
 37 38  1  0
 37  2  1  0
 34  7  1  0
 34 10  1  0
 31 22  1  0
M  END
>  <cnnaffinity>  (1) 
-5.60669

>  <filename>  (1) 
c1ccc(CCCc2nn3c(-c4cccnc4)nnc3s2)cc1

$$$$
