
     RDKit          3D

 30 32  0  0  0  0  0  0  0  0999 V2000
    9.3274   -2.5277   23.6743 H   0  0  0  0  0  0  0  0  0  0  0  0
    8.7758   -2.0066   22.8893 C   0  0  0  0  0  0  0  0  0  0  0  0
    7.4365   -2.0336   22.9681 N   0  0  0  0  0  0  0  0  0  0  0  0
    6.7630   -1.3879   22.0000 C   0  0  0  0  0  0  0  0  0  0  0  0
    5.6790   -1.4482   22.0229 H   0  0  0  0  0  0  0  0  0  0  0  0
    7.4233   -0.7168   20.9455 C   0  0  0  0  0  0  0  0  0  0  0  0
    6.6787    0.0137   19.9062 C   0  0  0  0  0  0  0  0  0  0  0  0
    7.1969    0.0659   18.5991 C   0  0  0  0  0  0  0  0  0  0  0  0
    8.1467   -0.4067   18.3655 H   0  0  0  0  0  0  0  0  0  0  0  0
    6.5752    0.6652   17.5807 N   0  0  0  0  0  0  0  0  0  0  0  0
    5.4132    1.2792   17.8405 C   0  0  0  0  0  0  0  0  0  0  0  0
    4.9445    1.7839   17.0002 H   0  0  0  0  0  0  0  0  0  0  0  0
    4.8173    1.3004   19.1064 C   0  0  0  0  0  0  0  0  0  0  0  0
    3.8822    1.8294   19.2498 H   0  0  0  0  0  0  0  0  0  0  0  0
    5.4529    0.6509   20.1623 C   0  0  0  0  0  0  0  0  0  0  0  0
    5.0074    0.6615   21.1597 H   0  0  0  0  0  0  0  0  0  0  0  0
    8.7756   -0.7472   20.8350 N   0  0  0  0  0  0  0  0  0  0  0  0
    9.4457   -1.3655   21.8156 C   0  0  0  0  0  0  0  0  0  0  0  0
   11.2317   -1.3258   21.7663 S   0  0  0  0  0  0  0  0  0  0  0  0
   11.4305    0.2002   22.6854 C   0  0  0  0  0  0  0  0  0  0  0  0
   11.4640    0.1874   24.0881 C   0  0  0  0  0  0  0  0  0  0  0  0
   11.3969   -0.7409   24.6443 H   0  0  0  0  0  0  0  0  0  0  0  0
   11.4880    1.3778   24.8092 C   0  0  0  0  0  0  0  0  0  0  0  0
   11.3539    1.3073   25.8853 H   0  0  0  0  0  0  0  0  0  0  0  0
   11.5516    2.6005   24.1341 C   0  0  0  0  0  0  0  0  0  0  0  0
   11.6191    3.5356   24.6827 H   0  0  0  0  0  0  0  0  0  0  0  0
   11.4896    2.6281   22.7345 C   0  0  0  0  0  0  0  0  0  0  0  0
   11.4459    3.5827   22.2115 H   0  0  0  0  0  0  0  0  0  0  0  0
   11.4061    1.4311   22.0096 C   0  0  0  0  0  0  0  0  0  0  0  0
   11.2641    1.4381   20.9300 H   0  0  0  0  0  0  0  0  0  0  0  0
  1  2  1  0
  2  3  2  0
  3  4  1  0
  4  5  1  0
  4  6  2  0
  6  7  1  0
  7  8  2  0
  8  9  1  0
  8 10  1  0
 10 11  2  0
 11 12  1  0
 11 13  1  0
 13 14  1  0
 13 15  2  0
 15 16  1  0
  6 17  1  0
 17 18  2  0
 18 19  1  0
 19 20  1  0
 20 21  2  0
 21 22  1  0
 21 23  1  0
 23 24  1  0
 23 25  2  0
 25 26  1  0
 25 27  1  0
 27 28  1  0
 27 29  2  0
 29 30  1  0
 18  2  1  0
 29 20  1  0
 15  7  1  0
M  END
>  <cnnaffinity>  (1) 
-5.45358

>  <filename>  (1) 
c1ccc(Sc2cncc(-c3cccnc3)n2)cc1

$$$$
