
     RDKit          3D

 40 44  0  0  0  0  0  0  0  0999 V2000
    4.9122    1.8044   16.9859 H   0  0  0  0  0  0  0  0  0  0  0  0
    5.4001    1.3065   17.8263 C   0  0  0  0  0  0  0  0  0  0  0  0
    6.5654    0.6947   17.5640 N   0  0  0  0  0  0  0  0  0  0  0  0
    7.1854    0.0961   18.5885 C   0  0  0  0  0  0  0  0  0  0  0  0
    8.1217   -0.3968   18.3406 H   0  0  0  0  0  0  0  0  0  0  0  0
    6.7126    0.0608   19.9225 C   0  0  0  0  0  0  0  0  0  0  0  0
    7.4902   -0.6135   20.9815 C   0  0  0  0  0  0  0  0  0  0  0  0
    8.4858   -1.5717   20.9350 C   0  0  0  0  0  0  0  0  0  0  0  0
    8.9713   -1.9867   20.0620 H   0  0  0  0  0  0  0  0  0  0  0  0
    8.8856   -1.9933   22.1755 N   0  0  0  0  0  0  0  0  0  0  0  0
    8.1584   -1.2745   22.9868 C   0  0  0  0  0  0  0  0  0  0  0  0
    8.1101   -0.9922   24.6931 S   0  0  0  0  0  0  0  0  0  0  0  0
    7.0668    0.3978   24.3473 C   0  0  0  0  0  0  0  0  0  0  0  0
    6.6371    1.3339   25.4172 C   0  0  0  0  0  0  0  0  0  0  0  0
    5.7320    2.3608   25.0869 C   0  0  0  0  0  0  0  0  0  0  0  0
    5.3988    2.4613   24.0579 H   0  0  0  0  0  0  0  0  0  0  0  0
    5.2546    3.2306   26.0667 C   0  0  0  0  0  0  0  0  0  0  0  0
    4.5421    4.0037   25.7959 H   0  0  0  0  0  0  0  0  0  0  0  0
    5.6861    3.1094   27.3897 C   0  0  0  0  0  0  0  0  0  0  0  0
    5.3005    3.7870   28.1487 H   0  0  0  0  0  0  0  0  0  0  0  0
    6.6008    2.1078   27.7527 C   0  0  0  0  0  0  0  0  0  0  0  0
    7.0629    1.9662   29.1697 C   0  0  0  0  0  0  0  0  0  0  0  0
    7.1374    0.6956   29.7627 C   0  0  0  0  0  0  0  0  0  0  0  0
    6.7321   -0.1444   29.2010 H   0  0  0  0  0  0  0  0  0  0  0  0
    7.6773    0.5304   31.0432 C   0  0  0  0  0  0  0  0  0  0  0  0
    7.7914   -0.4639   31.4555 H   0  0  0  0  0  0  0  0  0  0  0  0
    8.0890    1.6448   31.7831 C   0  0  0  0  0  0  0  0  0  0  0  0
    8.5028    1.5241   32.7830 H   0  0  0  0  0  0  0  0  0  0  0  0
    7.9540    2.9226   31.2302 C   0  0  0  0  0  0  0  0  0  0  0  0
    8.2362    3.8007   31.8035 H   0  0  0  0  0  0  0  0  0  0  0  0
    7.4509    3.0795   29.9354 C   0  0  0  0  0  0  0  0  0  0  0  0
    7.3899    4.0699   29.4922 H   0  0  0  0  0  0  0  0  0  0  0  0
    7.0750    1.2299   26.7555 C   0  0  0  0  0  0  0  0  0  0  0  0
    7.8071    0.4829   27.0546 H   0  0  0  0  0  0  0  0  0  0  0  0
    6.7114    0.5425   23.1034 N   0  0  0  0  0  0  0  0  0  0  0  0
    7.3039   -0.4216   22.3523 N   0  0  0  0  0  0  0  0  0  0  0  0
    5.4760    0.6912   20.1607 C   0  0  0  0  0  0  0  0  0  0  0  0
    5.0473    0.6964   21.1608 H   0  0  0  0  0  0  0  0  0  0  0  0
    4.8154    1.3131   19.0965 C   0  0  0  0  0  0  0  0  0  0  0  0
    3.8653    1.8153   19.2386 H   0  0  0  0  0  0  0  0  0  0  0  0
  1  2  1  0
  2  3  2  0
  3  4  1  0
  4  5  1  0
  4  6  2  0
  6  7  1  0
  7  8  2  0
  8  9  1  0
  8 10  1  0
 10 11  2  0
 11 12  1  0
 12 13  1  0
 13 14  1  0
 14 15  2  0
 15 16  1  0
 15 17  1  0
 17 18  1  0
 17 19  2  0
 19 20  1  0
 19 21  1  0
 21 22  1  0
 22 23  2  0
 23 24  1  0
 23 25  1  0
 25 26  1  0
 25 27  2  0
 27 28  1  0
 27 29  1  0
 29 30  1  0
 29 31  2  0
 31 32  1  0
 21 33  2  0
 33 34  1  0
 13 35  2  0
 35 36  1  0
  6 37  1  0
 37 38  1  0
 37 39  2  0
 39 40  1  0
 39  2  1  0
 36  7  1  0
 36 11  1  0
 33 14  1  0
 31 22  1  0
M  END
>  <cnnaffinity>  (1) 
-5.5669

>  <filename>  (1) 
c1ccc(-c2cccc(-c3nn4c(-c5cccnc5)cnc4s3)c2)cc1

$$$$
