
     RDKit          3D

 32 35  0  0  0  0  0  0  0  0999 V2000
    4.9851    1.8617   16.8814 H   0  0  0  0  0  0  0  0  0  0  0  0
    5.4177    1.3044   17.7123 C   0  0  0  0  0  0  0  0  0  0  0  0
    6.5615    0.6455   17.4671 N   0  0  0  0  0  0  0  0  0  0  0  0
    7.1353   -0.0041   18.4864 C   0  0  0  0  0  0  0  0  0  0  0  0
    8.0642   -0.5232   18.2549 H   0  0  0  0  0  0  0  0  0  0  0  0
    6.6103   -0.0364   19.7900 C   0  0  0  0  0  0  0  0  0  0  0  0
    7.3735   -0.6439   20.8963 C   0  0  0  0  0  0  0  0  0  0  0  0
    8.5081   -1.3269   20.6760 N   0  0  0  0  0  0  0  0  0  0  0  0
    8.9441   -1.5935   21.9236 N   0  0  0  0  0  0  0  0  0  0  0  0
   10.0602   -2.2173   22.4634 C   0  0  0  0  0  0  0  0  0  0  0  0
   10.8033   -2.6789   21.8414 H   0  0  0  0  0  0  0  0  0  0  0  0
    9.9288   -2.0936   23.8087 C   0  0  0  0  0  0  0  0  0  0  0  0
   10.5513   -2.4548   24.6076 H   0  0  0  0  0  0  0  0  0  0  0  0
    8.7610   -1.3962   24.1074 N   0  0  0  0  0  0  0  0  0  0  0  0
    8.2703   -1.0172   25.3849 C   0  0  0  0  0  0  0  0  0  0  0  0
    6.8763   -0.9466   25.5842 C   0  0  0  0  0  0  0  0  0  0  0  0
    6.2166   -1.2575   24.7782 H   0  0  0  0  0  0  0  0  0  0  0  0
    6.3585   -0.4455   26.7794 C   0  0  0  0  0  0  0  0  0  0  0  0
    5.2854   -0.2910   26.8784 H   0  0  0  0  0  0  0  0  0  0  0  0
    7.2181   -0.0809   27.8191 C   0  0  0  0  0  0  0  0  0  0  0  0
    6.8247    0.2987   28.7572 H   0  0  0  0  0  0  0  0  0  0  0  0
    8.6022   -0.2025   27.6479 C   0  0  0  0  0  0  0  0  0  0  0  0
    9.2632    0.0481   28.4776 H   0  0  0  0  0  0  0  0  0  0  0  0
    9.1326   -0.6523   26.4338 C   0  0  0  0  0  0  0  0  0  0  0  0
   10.2125   -0.6823   26.3109 H   0  0  0  0  0  0  0  0  0  0  0  0
    8.1525   -1.1046   22.8959 C   0  0  0  0  0  0  0  0  0  0  0  0
    7.0792   -0.4943   22.2702 C   0  0  0  0  0  0  0  0  0  0  0  0
    6.2062   -0.0308   22.6911 H   0  0  0  0  0  0  0  0  0  0  0  0
    5.3887    0.6211   20.0145 C   0  0  0  0  0  0  0  0  0  0  0  0
    4.9206    0.6049   20.9999 H   0  0  0  0  0  0  0  0  0  0  0  0
    4.7894    1.3060   18.9608 C   0  0  0  0  0  0  0  0  0  0  0  0
    3.8705    1.8635   19.1094 H   0  0  0  0  0  0  0  0  0  0  0  0
  1  2  1  0
  2  3  2  0
  3  4  1  0
  4  5  1  0
  4  6  2  0
  6  7  1  0
  7  8  2  0
  8  9  1  0
  9 10  1  0
 10 11  1  0
 10 12  2  0
 12 13  1  0
 12 14  1  0
 14 15  1  0
 15 16  2  0
 16 17  1  0
 16 18  1  0
 18 19  1  0
 18 20  2  0
 20 21  1  0
 20 22  1  0
 22 23  1  0
 22 24  2  0
 24 25  1  0
 14 26  1  0
 26 27  2  0
 27 28  1  0
  6 29  1  0
 29 30  1  0
 29 31  2  0
 31 32  1  0
 31  2  1  0
 27  7  1  0
 26  9  1  0
 24 15  1  0
M  END
>  <cnnaffinity>  (1) 
-5.17134

>  <filename>  (1) 
c1ccc(-n2ccn3nc(-c4cccnc4)cc23)cc1

$$$$
