
     RDKit          3D

 29 31  0  0  0  0  0  0  0  0999 V2000
    4.9862    1.8156   16.9885 H   0  0  0  0  0  0  0  0  0  0  0  0
    5.4372    1.2884   17.8252 C   0  0  0  0  0  0  0  0  0  0  0  0
    6.5961    0.6558   17.5678 N   0  0  0  0  0  0  0  0  0  0  0  0
    7.1947    0.0219   18.5795 C   0  0  0  0  0  0  0  0  0  0  0  0
    8.1258   -0.5083   18.3819 H   0  0  0  0  0  0  0  0  0  0  0  0
    6.6750    0.0097   19.8821 C   0  0  0  0  0  0  0  0  0  0  0  0
    7.4123   -0.6565   20.9067 N   0  0  0  0  0  0  0  0  0  0  0  0
    7.9343   -1.8886   20.7178 N   0  0  0  0  0  0  0  0  0  0  0  0
    8.4140   -2.2617   21.8436 N   0  0  0  0  0  0  0  0  0  0  0  0
    8.2361   -1.3181   22.7971 N   0  0  0  0  0  0  0  0  0  0  0  0
    7.6324   -0.3134   22.2013 C   0  0  0  0  0  0  0  0  0  0  0  0
    7.1852    1.2638   22.8877 S   0  0  0  0  0  0  0  0  0  0  0  0
    8.4580    2.3066   22.4476 N   0  0  0  0  0  0  0  0  0  0  0  0
    8.4517    2.5922   21.4759 H   0  0  0  0  0  0  0  0  0  0  0  0
    9.7428    2.1859   23.0180 C   0  0  0  0  0  0  0  0  0  0  0  0
   10.8473    2.7297   22.3472 C   0  0  0  0  0  0  0  0  0  0  0  0
   10.7031    3.1698   21.3679 H   0  0  0  0  0  0  0  0  0  0  0  0
   12.1197    2.6609   22.9156 C   0  0  0  0  0  0  0  0  0  0  0  0
   12.9597    3.1194   22.4019 H   0  0  0  0  0  0  0  0  0  0  0  0
   12.3130    2.0123   24.1395 C   0  0  0  0  0  0  0  0  0  0  0  0
   13.3071    1.9372   24.5648 H   0  0  0  0  0  0  0  0  0  0  0  0
   11.2123    1.4704   24.8085 C   0  0  0  0  0  0  0  0  0  0  0  0
   11.3361    0.9776   25.7676 H   0  0  0  0  0  0  0  0  0  0  0  0
    9.9319    1.5605   24.2601 C   0  0  0  0  0  0  0  0  0  0  0  0
    9.0674    1.1448   24.7712 H   0  0  0  0  0  0  0  0  0  0  0  0
    5.4453    0.6289   20.1447 C   0  0  0  0  0  0  0  0  0  0  0  0
    4.9862    0.6116   21.1336 H   0  0  0  0  0  0  0  0  0  0  0  0
    4.8217    1.2875   19.0800 C   0  0  0  0  0  0  0  0  0  0  0  0
    3.8834    1.8146   19.2213 H   0  0  0  0  0  0  0  0  0  0  0  0
  1  2  1  0
  2  3  2  0
  3  4  1  0
  4  5  1  0
  4  6  2  0
  6  7  1  0
  7  8  1  0
  8  9  2  0
  9 10  1  0
 10 11  2  0
 11 12  1  0
 12 13  1  0
 13 14  1  0
 13 15  1  0
 15 16  2  0
 16 17  1  0
 16 18  1  0
 18 19  1  0
 18 20  2  0
 20 21  1  0
 20 22  1  0
 22 23  1  0
 22 24  2  0
 24 25  1  0
  6 26  1  0
 26 27  1  0
 26 28  2  0
 28 29  1  0
 28  2  1  0
 11  7  1  0
 24 15  1  0
M  END
>  <cnnaffinity>  (1) 
-5.11778

>  <filename>  (1) 
c1ccc(NSc2nnnn2-c2cccnc2)cc1

$$$$
