
     RDKit          3D

 32 35  0  0  0  0  0  0  0  0999 V2000
    5.0309    1.8903   17.1044 H   0  0  0  0  0  0  0  0  0  0  0  0
    5.4932    1.2671   17.8695 C   0  0  0  0  0  0  0  0  0  0  0  0
    6.6176    0.6282   17.5071 N   0  0  0  0  0  0  0  0  0  0  0  0
    7.2427   -0.1005   18.4405 C   0  0  0  0  0  0  0  0  0  0  0  0
    8.1573   -0.6066   18.1167 H   0  0  0  0  0  0  0  0  0  0  0  0
    6.7729   -0.2392   19.7600 C   0  0  0  0  0  0  0  0  0  0  0  0
    7.5913   -0.9141   20.7785 C   0  0  0  0  0  0  0  0  0  0  0  0
    8.8978   -0.6901   21.0302 C   0  0  0  0  0  0  0  0  0  0  0  0
    9.5451   -0.0222   20.4768 H   0  0  0  0  0  0  0  0  0  0  0  0
    9.4727   -1.5619   22.4280 S   0  0  0  0  0  0  0  0  0  0  0  0
    7.8878   -2.2382   22.6646 C   0  0  0  0  0  0  0  0  0  0  0  0
    7.2843   -3.0239   23.5366 N   0  0  0  0  0  0  0  0  0  0  0  0
    6.0136   -2.9807   23.0694 C   0  0  0  0  0  0  0  0  0  0  0  0
    4.9205   -3.5147   23.6786 N   0  0  0  0  0  0  0  0  0  0  0  0
    4.1967   -2.8293   23.5651 H   0  0  0  0  0  0  0  0  0  0  0  0
    4.8954   -4.2568   24.8664 C   0  0  0  0  0  0  0  0  0  0  0  0
    5.7824   -5.3176   25.0732 C   0  0  0  0  0  0  0  0  0  0  0  0
    6.5732   -5.4774   24.3478 H   0  0  0  0  0  0  0  0  0  0  0  0
    5.6270   -6.1367   26.2003 C   0  0  0  0  0  0  0  0  0  0  0  0
    6.3012   -6.9744   26.3530 H   0  0  0  0  0  0  0  0  0  0  0  0
    4.6187   -5.8794   27.1375 C   0  0  0  0  0  0  0  0  0  0  0  0
    4.5089   -6.5207   28.0109 H   0  0  0  0  0  0  0  0  0  0  0  0
    3.7588   -4.7932   26.9377 C   0  0  0  0  0  0  0  0  0  0  0  0
    2.9869   -4.5651   27.6669 H   0  0  0  0  0  0  0  0  0  0  0  0
    3.8882   -3.9883   25.8020 C   0  0  0  0  0  0  0  0  0  0  0  0
    3.2222   -3.1481   25.6226 H   0  0  0  0  0  0  0  0  0  0  0  0
    5.7897   -2.2705   21.9693 N   0  0  0  0  0  0  0  0  0  0  0  0
    7.0479   -1.8013   21.7048 N   0  0  0  0  0  0  0  0  0  0  0  0
    5.5506    0.3658   20.0969 C   0  0  0  0  0  0  0  0  0  0  0  0
    5.1305    0.1877   21.0887 H   0  0  0  0  0  0  0  0  0  0  0  0
    4.9203    1.1607   19.1433 C   0  0  0  0  0  0  0  0  0  0  0  0
    4.0058    1.6957   19.3739 H   0  0  0  0  0  0  0  0  0  0  0  0
  1  2  1  0
  2  3  2  0
  3  4  1  0
  4  5  1  0
  4  6  2  0
  6  7  1  0
  7  8  2  0
  8  9  1  0
  8 10  1  0
 10 11  1  0
 11 12  2  0
 12 13  1  0
 13 14  1  0
 14 15  1  0
 14 16  1  0
 16 17  2  0
 17 18  1  0
 17 19  1  0
 19 20  1  0
 19 21  2  0
 21 22  1  0
 21 23  1  0
 23 24  1  0
 23 25  2  0
 25 26  1  0
 13 27  2  0
 27 28  1  0
  6 29  1  0
 29 30  1  0
 29 31  2  0
 31 32  1  0
 31  2  1  0
 28  7  1  0
 28 11  1  0
 25 16  1  0
M  END
>  <cnnaffinity>  (1) 
-5.30994

>  <filename>  (1) 
c1ccc(Nc2nc3scc(-c4cccnc4)n3n2)cc1

$$$$
