
     RDKit          3D

 41 45  0  0  0  0  0  0  0  0999 V2000
    5.0254    1.7819   16.9320 H   0  0  0  0  0  0  0  0  0  0  0  0
    5.4636    1.2634   17.7834 C   0  0  0  0  0  0  0  0  0  0  0  0
    6.6019    0.5857   17.5606 N   0  0  0  0  0  0  0  0  0  0  0  0
    7.1588   -0.0424   18.6008 C   0  0  0  0  0  0  0  0  0  0  0  0
    8.0597   -0.6122   18.3850 H   0  0  0  0  0  0  0  0  0  0  0  0
    6.6476    0.0074   19.9106 C   0  0  0  0  0  0  0  0  0  0  0  0
    7.3636   -0.6406   21.0051 C   0  0  0  0  0  0  0  0  0  0  0  0
    7.9877   -1.8494   20.8133 N   0  0  0  0  0  0  0  0  0  0  0  0
    8.4209   -2.1699   22.0026 C   0  0  0  0  0  0  0  0  0  0  0  0
    9.2462   -3.5285   22.7325 S   0  0  0  0  0  0  0  0  0  0  0  0
    9.3635   -2.6625   24.2541 C   0  0  0  0  0  0  0  0  0  0  0  0
    9.9148   -3.0731   25.0903 H   0  0  0  0  0  0  0  0  0  0  0  0
    8.7545   -1.4651   24.2014 C   0  0  0  0  0  0  0  0  0  0  0  0
    8.7054   -0.7107   24.9768 H   0  0  0  0  0  0  0  0  0  0  0  0
    8.1829   -1.2198   22.9551 N   0  0  0  0  0  0  0  0  0  0  0  0
    7.4734   -0.2137   22.3303 C   0  0  0  0  0  0  0  0  0  0  0  0
    6.9678    0.9557   23.0476 C   0  0  0  0  0  0  0  0  0  0  0  0
    6.4000    0.8479   24.3327 C   0  0  0  0  0  0  0  0  0  0  0  0
    6.2909   -0.1271   24.7982 H   0  0  0  0  0  0  0  0  0  0  0  0
    5.9703    1.9861   25.0125 C   0  0  0  0  0  0  0  0  0  0  0  0
    5.5676    1.8936   26.0161 H   0  0  0  0  0  0  0  0  0  0  0  0
    6.0737    3.2459   24.4157 C   0  0  0  0  0  0  0  0  0  0  0  0
    5.7737    4.1356   24.9660 H   0  0  0  0  0  0  0  0  0  0  0  0
    6.5987    3.3740   23.1198 C   0  0  0  0  0  0  0  0  0  0  0  0
    6.7500    4.6994   22.4595 C   0  0  0  0  0  0  0  0  0  0  0  0
    5.7062    5.6393   22.4119 C   0  0  0  0  0  0  0  0  0  0  0  0
    4.7444    5.3871   22.8482 H   0  0  0  0  0  0  0  0  0  0  0  0
    5.8802    6.8828   21.7948 C   0  0  0  0  0  0  0  0  0  0  0  0
    5.0398    7.5734   21.7863 H   0  0  0  0  0  0  0  0  0  0  0  0
    7.1143    7.2171   21.2195 C   0  0  0  0  0  0  0  0  0  0  0  0
    7.2638    8.1777   20.7250 H   0  0  0  0  0  0  0  0  0  0  0  0
    8.1626    6.2874   21.2811 C   0  0  0  0  0  0  0  0  0  0  0  0
    9.1386    6.5066   20.8737 H   0  0  0  0  0  0  0  0  0  0  0  0
    7.9814    5.0412   21.8823 C   0  0  0  0  0  0  0  0  0  0  0  0
    8.8005    4.3230   21.9316 H   0  0  0  0  0  0  0  0  0  0  0  0
    7.0468    2.2232   22.4555 C   0  0  0  0  0  0  0  0  0  0  0  0
    7.4486    2.3162   21.4497 H   0  0  0  0  0  0  0  0  0  0  0  0
    5.4315    0.6812   20.1149 C   0  0  0  0  0  0  0  0  0  0  0  0
    4.9680    0.7196   21.1039 H   0  0  0  0  0  0  0  0  0  0  0  0
    4.8302    1.3100   19.0314 C   0  0  0  0  0  0  0  0  0  0  0  0
    3.8891    1.8354   19.1406 H   0  0  0  0  0  0  0  0  0  0  0  0
  1  2  1  0
  2  3  2  0
  3  4  1  0
  4  5  1  0
  4  6  2  0
  6  7  1  0
  7  8  1  0
  8  9  2  0
  9 10  1  0
 10 11  1  0
 11 12  1  0
 11 13  2  0
 13 14  1  0
 13 15  1  0
 15 16  1  0
 16 17  1  0
 17 18  2  0
 18 19  1  0
 18 20  1  0
 20 21  1  0
 20 22  2  0
 22 23  1  0
 22 24  1  0
 24 25  1  0
 25 26  2  0
 26 27  1  0
 26 28  1  0
 28 29  1  0
 28 30  2  0
 30 31  1  0
 30 32  1  0
 32 33  1  0
 32 34  2  0
 34 35  1  0
 24 36  2  0
 36 37  1  0
  6 38  1  0
 38 39  1  0
 38 40  2  0
 40 41  1  0
 40  2  1  0
 16  7  2  0
 36 17  1  0
 15  9  1  0
 34 25  1  0
M  END
>  <cnnaffinity>  (1) 
-5.81248

>  <filename>  (1) 
c1ccc(-c2cccc(-c3c(-c4cccnc4)nc4sccn34)c2)cc1

$$$$
