
     RDKit          3D

 33 35  0  0  0  0  0  0  0  0999 V2000
    4.9257    1.7906   16.9894 H   0  0  0  0  0  0  0  0  0  0  0  0
    5.4034    1.2974   17.8346 C   0  0  0  0  0  0  0  0  0  0  0  0
    6.5598    0.6720   17.5713 N   0  0  0  0  0  0  0  0  0  0  0  0
    7.1686    0.0560   18.5910 C   0  0  0  0  0  0  0  0  0  0  0  0
    8.1072   -0.4375   18.3611 H   0  0  0  0  0  0  0  0  0  0  0  0
    6.6614    0.0196   19.9045 C   0  0  0  0  0  0  0  0  0  0  0  0
    7.3615   -0.6358   20.9681 N   0  0  0  0  0  0  0  0  0  0  0  0
    6.7546   -1.5711   21.7295 N   0  0  0  0  0  0  0  0  0  0  0  0
    7.6199   -1.9863   22.5776 N   0  0  0  0  0  0  0  0  0  0  0  0
    8.8020   -1.3463   22.4214 N   0  0  0  0  0  0  0  0  0  0  0  0
    8.6266   -0.4882   21.4510 C   0  0  0  0  0  0  0  0  0  0  0  0
    9.5723    0.5514   20.9738 C   0  0  0  0  0  0  0  0  0  0  0  0
   10.5590    0.3072   21.3679 H   0  0  0  0  0  0  0  0  0  0  0  0
    9.6214    0.4998   19.8854 H   0  0  0  0  0  0  0  0  0  0  0  0
    9.1501    1.9641   21.3686 C   0  0  0  0  0  0  0  0  0  0  0  0
    8.1826    2.2068   20.9045 H   0  0  0  0  0  0  0  0  0  0  0  0
    9.8951    2.6864   21.0092 H   0  0  0  0  0  0  0  0  0  0  0  0
    9.0621    2.0039   22.7865 O   0  0  0  0  0  0  0  0  0  0  0  0
    8.6632    3.1357   23.4318 C   0  0  0  0  0  0  0  0  0  0  0  0
    8.5944    3.0381   24.8360 C   0  0  0  0  0  0  0  0  0  0  0  0
    8.8497    2.0948   25.3105 H   0  0  0  0  0  0  0  0  0  0  0  0
    8.2004    4.1430   25.5921 C   0  0  0  0  0  0  0  0  0  0  0  0
    8.1447    4.0631   26.6749 H   0  0  0  0  0  0  0  0  0  0  0  0
    7.8696    5.3561   24.9729 C   0  0  0  0  0  0  0  0  0  0  0  0
    7.5576    6.2160   25.5664 H   0  0  0  0  0  0  0  0  0  0  0  0
    7.9410    5.4449   23.5822 C   0  0  0  0  0  0  0  0  0  0  0  0
    7.6857    6.3760   23.0824 H   0  0  0  0  0  0  0  0  0  0  0  0
    8.3351    4.3460   22.8040 C   0  0  0  0  0  0  0  0  0  0  0  0
    8.3908    4.4279   21.7213 H   0  0  0  0  0  0  0  0  0  0  0  0
    5.4398    0.6447   20.1709 C   0  0  0  0  0  0  0  0  0  0  0  0
    5.0250    0.6020   21.1850 H   0  0  0  0  0  0  0  0  0  0  0  0
    4.8145    1.3081   19.1084 C   0  0  0  0  0  0  0  0  0  0  0  0
    3.8815    1.8381   19.2559 H   0  0  0  0  0  0  0  0  0  0  0  0
  1  2  1  0
  2  3  2  0
  3  4  1  0
  4  5  1  0
  4  6  2  0
  6  7  1  0
  7  8  1  0
  8  9  2  0
  9 10  1  0
 10 11  2  0
 11 12  1  0
 12 13  1  0
 12 14  1  0
 12 15  1  0
 15 16  1  0
 15 17  1  0
 15 18  1  0
 18 19  1  0
 19 20  2  0
 20 21  1  0
 20 22  1  0
 22 23  1  0
 22 24  2  0
 24 25  1  0
 24 26  1  0
 26 27  1  0
 26 28  2  0
 28 29  1  0
  6 30  1  0
 30 31  1  0
 30 32  2  0
 32 33  1  0
 32  2  1  0
 11  7  1  0
 28 19  1  0
M  END
>  <cnnaffinity>  (1) 
-5.44753

>  <filename>  (1) 
c1ccc(OCCc2nnnn2-c2cccnc2)cc1

$$$$
