
     RDKit          3D

 34 37  0  0  0  0  0  0  0  0999 V2000
    4.9750    1.8473   16.9062 H   0  0  0  0  0  0  0  0  0  0  0  0
    5.4147    1.2936   17.7368 C   0  0  0  0  0  0  0  0  0  0  0  0
    6.5606    0.6375   17.4920 N   0  0  0  0  0  0  0  0  0  0  0  0
    7.1452   -0.0009   18.5122 C   0  0  0  0  0  0  0  0  0  0  0  0
    8.0692   -0.5223   18.2729 H   0  0  0  0  0  0  0  0  0  0  0  0
    6.6221   -0.0303   19.8193 C   0  0  0  0  0  0  0  0  0  0  0  0
    7.3765   -0.6242   20.9362 C   0  0  0  0  0  0  0  0  0  0  0  0
    8.5218   -1.2948   20.7271 N   0  0  0  0  0  0  0  0  0  0  0  0
    8.9441   -1.5530   21.9806 N   0  0  0  0  0  0  0  0  0  0  0  0
   10.0924   -2.1126   22.5258 C   0  0  0  0  0  0  0  0  0  0  0  0
   10.8526   -2.5423   21.9001 H   0  0  0  0  0  0  0  0  0  0  0  0
    9.9997   -1.9283   23.8644 C   0  0  0  0  0  0  0  0  0  0  0  0
   10.6709   -2.1774   24.6721 H   0  0  0  0  0  0  0  0  0  0  0  0
    8.8104   -1.2683   24.1416 N   0  0  0  0  0  0  0  0  0  0  0  0
    8.4583   -0.8460   25.4129 N   0  0  0  0  0  0  0  0  0  0  0  0
    8.9428    0.0067   25.6685 H   0  0  0  0  0  0  0  0  0  0  0  0
    7.0923   -0.6713   25.7485 C   0  0  0  0  0  0  0  0  0  0  0  0
    6.0972   -1.5915   25.4059 C   0  0  0  0  0  0  0  0  0  0  0  0
    6.3549   -2.4417   24.7832 H   0  0  0  0  0  0  0  0  0  0  0  0
    4.7843   -1.3770   25.8374 C   0  0  0  0  0  0  0  0  0  0  0  0
    4.0106   -2.0951   25.5740 H   0  0  0  0  0  0  0  0  0  0  0  0
    4.4606   -0.2378   26.5845 C   0  0  0  0  0  0  0  0  0  0  0  0
    3.4468   -0.0889   26.9356 H   0  0  0  0  0  0  0  0  0  0  0  0
    5.4554    0.6938   26.9045 C   0  0  0  0  0  0  0  0  0  0  0  0
    5.2135    1.5939   27.4695 H   0  0  0  0  0  0  0  0  0  0  0  0
    6.7681    0.4711   26.4915 C   0  0  0  0  0  0  0  0  0  0  0  0
    7.5498    1.1924   26.7269 H   0  0  0  0  0  0  0  0  0  0  0  0
    8.1543   -1.0499   22.9444 C   0  0  0  0  0  0  0  0  0  0  0  0
    7.0657   -0.4700   22.3069 C   0  0  0  0  0  0  0  0  0  0  0  0
    6.1849   -0.0588   22.7662 H   0  0  0  0  0  0  0  0  0  0  0  0
    5.3986    0.6198   20.0433 C   0  0  0  0  0  0  0  0  0  0  0  0
    4.9313    0.5948   21.0283 H   0  0  0  0  0  0  0  0  0  0  0  0
    4.7910    1.2968   18.9894 C   0  0  0  0  0  0  0  0  0  0  0  0
    3.8742    1.8566   19.1398 H   0  0  0  0  0  0  0  0  0  0  0  0
  1  2  1  0
  2  3  2  0
  3  4  1  0
  4  5  1  0
  4  6  2  0
  6  7  1  0
  7  8  2  0
  8  9  1  0
  9 10  1  0
 10 11  1  0
 10 12  2  0
 12 13  1  0
 12 14  1  0
 14 15  1  0
 15 16  1  0
 15 17  1  0
 17 18  2  0
 18 19  1  0
 18 20  1  0
 20 21  1  0
 20 22  2  0
 22 23  1  0
 22 24  1  0
 24 25  1  0
 24 26  2  0
 26 27  1  0
 14 28  1  0
 28 29  2  0
 29 30  1  0
  6 31  1  0
 31 32  1  0
 31 33  2  0
 33 34  1  0
 33  2  1  0
 29  7  1  0
 28  9  1  0
 26 17  1  0
M  END
>  <cnnaffinity>  (1) 
-5.42311

>  <filename>  (1) 
c1ccc(Nn2ccn3nc(-c4cccnc4)cc23)cc1

$$$$
