
     RDKit          3D

 35 37  0  0  0  0  0  0  0  0999 V2000
    6.1072   -1.5521   21.9995 H   0  0  0  0  0  0  0  0  0  0  0  0
    7.1722   -1.3286   21.9990 C   0  0  0  0  0  0  0  0  0  0  0  0
    7.8954   -1.8590   22.9833 N   0  0  0  0  0  0  0  0  0  0  0  0
    9.2171   -1.6381   22.9964 N   0  0  0  0  0  0  0  0  0  0  0  0
    9.7826   -0.9310   22.0002 C   0  0  0  0  0  0  0  0  0  0  0  0
   11.2820   -0.8308   22.0454 C   0  0  0  0  0  0  0  0  0  0  0  0
   11.6793   -1.8289   22.2528 H   0  0  0  0  0  0  0  0  0  0  0  0
   11.6176   -0.5114   21.0571 H   0  0  0  0  0  0  0  0  0  0  0  0
   11.8093    0.1636   23.0889 C   0  0  0  0  0  0  0  0  0  0  0  0
   11.3672   -0.0085   24.0824 H   0  0  0  0  0  0  0  0  0  0  0  0
   12.9031    0.0928   23.1796 H   0  0  0  0  0  0  0  0  0  0  0  0
   11.4010    1.4300   22.6170 O   0  0  0  0  0  0  0  0  0  0  0  0
   12.0826    2.5988   22.7633 C   0  0  0  0  0  0  0  0  0  0  0  0
   11.4206    3.6784   22.1611 C   0  0  0  0  0  0  0  0  0  0  0  0
   10.4881    3.4098   21.6845 H   0  0  0  0  0  0  0  0  0  0  0  0
   11.9530    4.9658   22.2017 C   0  0  0  0  0  0  0  0  0  0  0  0
   11.4472    5.7952   21.7077 H   0  0  0  0  0  0  0  0  0  0  0  0
   13.1508    5.1955   22.8918 C   0  0  0  0  0  0  0  0  0  0  0  0
   13.5548    6.2007   22.9528 H   0  0  0  0  0  0  0  0  0  0  0  0
   13.8110    4.1197   23.4864 C   0  0  0  0  0  0  0  0  0  0  0  0
   14.7130    4.3147   24.0537 H   0  0  0  0  0  0  0  0  0  0  0  0
   13.3059    2.8121   23.3970 C   0  0  0  0  0  0  0  0  0  0  0  0
   13.8604    1.9787   23.8043 H   0  0  0  0  0  0  0  0  0  0  0  0
    9.1136   -0.3846   20.9681 N   0  0  0  0  0  0  0  0  0  0  0  0
    7.7819   -0.5456   20.9858 C   0  0  0  0  0  0  0  0  0  0  0  0
    6.9971    0.0804   19.8953 C   0  0  0  0  0  0  0  0  0  0  0  0
    7.5290    0.0900   18.5952 C   0  0  0  0  0  0  0  0  0  0  0  0
    8.5014   -0.3530   18.3986 H   0  0  0  0  0  0  0  0  0  0  0  0
    6.9012    0.6029   17.5319 N   0  0  0  0  0  0  0  0  0  0  0  0
    5.7086    1.1787   17.7387 C   0  0  0  0  0  0  0  0  0  0  0  0
    5.2221    1.6155   16.8666 H   0  0  0  0  0  0  0  0  0  0  0  0
    5.0915    1.2289   18.9911 C   0  0  0  0  0  0  0  0  0  0  0  0
    4.1279    1.7103   19.0922 H   0  0  0  0  0  0  0  0  0  0  0  0
    5.7330    0.6624   20.0915 C   0  0  0  0  0  0  0  0  0  0  0  0
    5.2657    0.6972   21.0791 H   0  0  0  0  0  0  0  0  0  0  0  0
  1  2  1  0
  2  3  2  0
  3  4  1  0
  4  5  2  0
  5  6  1  0
  6  7  1  0
  6  8  1  0
  6  9  1  0
  9 10  1  0
  9 11  1  0
  9 12  1  0
 12 13  1  0
 13 14  2  0
 14 15  1  0
 14 16  1  0
 16 17  1  0
 16 18  2  0
 18 19  1  0
 18 20  1  0
 20 21  1  0
 20 22  2  0
 22 23  1  0
  5 24  1  0
 24 25  2  0
 25 26  1  0
 26 27  2  0
 27 28  1  0
 27 29  1  0
 29 30  2  0
 30 31  1  0
 30 32  1  0
 32 33  1  0
 32 34  2  0
 34 35  1  0
 25  2  1  0
 34 26  1  0
 22 13  1  0
M  END
>  <cnnaffinity>  (1) 
-4.97641

>  <filename>  (1) 
c1ccc(OCCc2nncc(-c3cccnc3)n2)cc1

$$$$
