
     RDKit          3D

 45 49  0  0  0  0  0  0  0  0999 V2000
    5.0280    1.7852   16.8878 H   0  0  0  0  0  0  0  0  0  0  0  0
    5.4478    1.2793   17.7555 C   0  0  0  0  0  0  0  0  0  0  0  0
    6.5856    0.6003   17.5459 N   0  0  0  0  0  0  0  0  0  0  0  0
    7.1295   -0.0282   18.5920 C   0  0  0  0  0  0  0  0  0  0  0  0
    8.0290   -0.6049   18.3818 H   0  0  0  0  0  0  0  0  0  0  0  0
    6.6070    0.0255   19.9003 C   0  0  0  0  0  0  0  0  0  0  0  0
    7.3637   -0.5770   21.0102 C   0  0  0  0  0  0  0  0  0  0  0  0
    8.0808   -1.6813   20.7895 N   0  0  0  0  0  0  0  0  0  0  0  0
    8.5938   -1.9703   21.9782 N   0  0  0  0  0  0  0  0  0  0  0  0
    8.3016   -1.1148   22.9505 C   0  0  0  0  0  0  0  0  0  0  0  0
    7.4677   -0.1577   22.3848 C   0  0  0  0  0  0  0  0  0  0  0  0
    6.9310    1.0081   23.0947 C   0  0  0  0  0  0  0  0  0  0  0  0
    6.5388    0.8996   24.4398 C   0  0  0  0  0  0  0  0  0  0  0  0
    6.5121   -0.0784   24.9154 H   0  0  0  0  0  0  0  0  0  0  0  0
    6.1551    2.0320   25.1606 C   0  0  0  0  0  0  0  0  0  0  0  0
    5.8727    1.9372   26.2051 H   0  0  0  0  0  0  0  0  0  0  0  0
    6.1658    3.2910   24.5513 C   0  0  0  0  0  0  0  0  0  0  0  0
    5.8933    4.1796   25.1175 H   0  0  0  0  0  0  0  0  0  0  0  0
    6.5450    3.4229   23.2059 C   0  0  0  0  0  0  0  0  0  0  0  0
    6.6660    4.7518   22.5386 C   0  0  0  0  0  0  0  0  0  0  0  0
    5.6301    5.7008   22.5375 C   0  0  0  0  0  0  0  0  0  0  0  0
    4.6957    5.4618   23.0400 H   0  0  0  0  0  0  0  0  0  0  0  0
    5.7859    6.9231   21.8733 C   0  0  0  0  0  0  0  0  0  0  0  0
    4.9793    7.6513   21.8714 H   0  0  0  0  0  0  0  0  0  0  0  0
    6.9815    7.2189   21.2127 C   0  0  0  0  0  0  0  0  0  0  0  0
    7.0767    8.1766   20.7111 H   0  0  0  0  0  0  0  0  0  0  0  0
    8.0197    6.2825   21.2132 C   0  0  0  0  0  0  0  0  0  0  0  0
    8.9532    6.4694   20.7037 H   0  0  0  0  0  0  0  0  0  0  0  0
    7.8582    5.0631   21.8628 C   0  0  0  0  0  0  0  0  0  0  0  0
    8.6655    4.3378   21.8466 H   0  0  0  0  0  0  0  0  0  0  0  0
    6.8879    2.2671   22.4875 C   0  0  0  0  0  0  0  0  0  0  0  0
    7.1085    2.3561   21.4276 H   0  0  0  0  0  0  0  0  0  0  0  0
    9.0503   -1.4897   24.2008 C   0  0  0  0  0  0  0  0  0  0  0  0
    8.3546   -1.7153   25.0080 H   0  0  0  0  0  0  0  0  0  0  0  0
    9.6843   -0.6741   24.5464 H   0  0  0  0  0  0  0  0  0  0  0  0
    9.8796   -2.7287   23.7804 C   0  0  0  0  0  0  0  0  0  0  0  0
   10.9443   -2.5254   23.8142 H   0  0  0  0  0  0  0  0  0  0  0  0
    9.6993   -3.5814   24.4324 H   0  0  0  0  0  0  0  0  0  0  0  0
    9.4920   -3.0413   22.3192 C   0  0  0  0  0  0  0  0  0  0  0  0
   10.3479   -2.9805   21.6505 H   0  0  0  0  0  0  0  0  0  0  0  0
    8.9883   -4.0035   22.2161 H   0  0  0  0  0  0  0  0  0  0  0  0
    5.3765    0.6769   20.0824 C   0  0  0  0  0  0  0  0  0  0  0  0
    4.9006    0.7046   21.0634 H   0  0  0  0  0  0  0  0  0  0  0  0
    4.7923    1.3225   18.9900 C   0  0  0  0  0  0  0  0  0  0  0  0
    3.8529    1.8563   19.0845 H   0  0  0  0  0  0  0  0  0  0  0  0
  1  2  1  0
  2  3  2  0
  3  4  1  0
  4  5  1  0
  4  6  2  0
  6  7  1  0
  7  8  2  0
  8  9  1  0
  9 10  1  0
 10 11  2  0
 11 12  1  0
 12 13  2  0
 13 14  1  0
 13 15  1  0
 15 16  1  0
 15 17  2  0
 17 18  1  0
 17 19  1  0
 19 20  1  0
 20 21  2  0
 21 22  1  0
 21 23  1  0
 23 24  1  0
 23 25  2  0
 25 26  1  0
 25 27  1  0
 27 28  1  0
 27 29  2  0
 29 30  1  0
 19 31  2  0
 31 32  1  0
 10 33  1  0
 33 34  1  0
 33 35  1  0
 33 36  1  0
 36 37  1  0
 36 38  1  0
 36 39  1  0
 39 40  1  0
 39 41  1  0
  6 42  1  0
 42 43  1  0
 42 44  2  0
 44 45  1  0
 44  2  1  0
 11  7  1  0
 31 12  1  0
 39  9  1  0
 29 20  1  0
M  END
>  <cnnaffinity>  (1) 
-5.67079

>  <filename>  (1) 
c1ccc(-c2cccc(-c3c(-c4cccnc4)nn4c3CCC4)c2)cc1

$$$$
