
     RDKit          3D

 36 38  0  0  0  0  0  0  0  0999 V2000
    4.9197    1.7773   16.9972 H   0  0  0  0  0  0  0  0  0  0  0  0
    5.4029    1.2918   17.8379 C   0  0  0  0  0  0  0  0  0  0  0  0
    6.5685    0.6766   17.5788 N   0  0  0  0  0  0  0  0  0  0  0  0
    7.1709    0.0619   18.5977 C   0  0  0  0  0  0  0  0  0  0  0  0
    8.1203   -0.4168   18.3574 H   0  0  0  0  0  0  0  0  0  0  0  0
    6.6510    0.0137   19.8945 C   0  0  0  0  0  0  0  0  0  0  0  0
    7.3467   -0.6750   20.9786 C   0  0  0  0  0  0  0  0  0  0  0  0
    7.0005   -0.6162   22.2512 N   0  0  0  0  0  0  0  0  0  0  0  0
    7.9042   -1.4081   22.8779 C   0  0  0  0  0  0  0  0  0  0  0  0
    7.9503   -1.5982   24.3579 C   0  0  0  0  0  0  0  0  0  0  0  0
    6.9738   -1.3391   24.7785 H   0  0  0  0  0  0  0  0  0  0  0  0
    8.1055   -2.6607   24.5562 H   0  0  0  0  0  0  0  0  0  0  0  0
    9.0629   -0.7694   25.0294 C   0  0  0  0  0  0  0  0  0  0  0  0
   10.0262   -1.0411   24.5804 H   0  0  0  0  0  0  0  0  0  0  0  0
    9.1265   -1.0479   26.0888 H   0  0  0  0  0  0  0  0  0  0  0  0
    8.8594    0.7533   24.9219 C   0  0  0  0  0  0  0  0  0  0  0  0
    9.7441    1.2568   25.3338 H   0  0  0  0  0  0  0  0  0  0  0  0
    8.8092    1.0474   23.8651 H   0  0  0  0  0  0  0  0  0  0  0  0
    7.6253    1.2405   25.6529 C   0  0  0  0  0  0  0  0  0  0  0  0
    7.6078    1.2673   27.0581 C   0  0  0  0  0  0  0  0  0  0  0  0
    8.4965    0.9585   27.6066 H   0  0  0  0  0  0  0  0  0  0  0  0
    6.4683    1.6795   27.7522 C   0  0  0  0  0  0  0  0  0  0  0  0
    6.4749    1.6997   28.8394 H   0  0  0  0  0  0  0  0  0  0  0  0
    5.3214    2.0629   27.0473 C   0  0  0  0  0  0  0  0  0  0  0  0
    4.4340    2.3851   27.5856 H   0  0  0  0  0  0  0  0  0  0  0  0
    5.3202    2.0311   25.6485 C   0  0  0  0  0  0  0  0  0  0  0  0
    4.4320    2.3296   25.0969 H   0  0  0  0  0  0  0  0  0  0  0  0
    6.4663    1.6217   24.9580 C   0  0  0  0  0  0  0  0  0  0  0  0
    6.4682    1.5772   23.8713 H   0  0  0  0  0  0  0  0  0  0  0  0
    8.7955   -1.9605   22.0716 N   0  0  0  0  0  0  0  0  0  0  0  0
    8.4224   -1.4719   20.8637 N   0  0  0  0  0  0  0  0  0  0  0  0
    8.9079   -1.7335   20.0266 H   0  0  0  0  0  0  0  0  0  0  0  0
    5.4296    0.6593   20.1526 C   0  0  0  0  0  0  0  0  0  0  0  0
    5.0027    0.6325   21.1609 H   0  0  0  0  0  0  0  0  0  0  0  0
    4.8016    1.3133   19.1010 C   0  0  0  0  0  0  0  0  0  0  0  0
    3.8700    1.8463   19.2573 H   0  0  0  0  0  0  0  0  0  0  0  0
  1  2  1  0
  2  3  2  0
  3  4  1  0
  4  5  1  0
  4  6  2  0
  6  7  1  0
  7  8  2  0
  8  9  1  0
  9 10  1  0
 10 11  1  0
 10 12  1  0
 10 13  1  0
 13 14  1  0
 13 15  1  0
 13 16  1  0
 16 17  1  0
 16 18  1  0
 16 19  1  0
 19 20  2  0
 20 21  1  0
 20 22  1  0
 22 23  1  0
 22 24  2  0
 24 25  1  0
 24 26  1  0
 26 27  1  0
 26 28  2  0
 28 29  1  0
  9 30  2  0
 30 31  1  0
 31 32  1  0
  6 33  1  0
 33 34  1  0
 33 35  2  0
 35 36  1  0
 35  2  1  0
 31  7  1  0
 28 19  1  0
M  END
>  <cnnaffinity>  (1) 
-5.00331

>  <filename>  (1) 
c1ccc(CCCc2n[nH]c(-c3cccnc3)n2)cc1

$$$$
