
     RDKit          3D

 33 35  0  0  0  0  0  0  0  0999 V2000
    6.3190    1.4595   22.6000 H   0  0  0  0  0  0  0  0  0  0  0  0
    6.8098    0.5027   22.4440 C   0  0  0  0  0  0  0  0  0  0  0  0
    7.4431   -0.0216   23.4901 N   0  0  0  0  0  0  0  0  0  0  0  0
    8.0990   -1.1773   23.3342 N   0  0  0  0  0  0  0  0  0  0  0  0
    8.1023   -1.7767   22.1351 C   0  0  0  0  0  0  0  0  0  0  0  0
    8.9655   -3.0383   22.0080 C   0  0  0  0  0  0  0  0  0  0  0  0
    9.9078   -2.8134   22.5162 H   0  0  0  0  0  0  0  0  0  0  0  0
    9.1757   -3.1502   20.9344 H   0  0  0  0  0  0  0  0  0  0  0  0
    8.4699   -4.2975   22.5527 N   0  0  0  0  0  0  0  0  0  0  0  0
    8.9308   -4.7329   23.3400 H   0  0  0  0  0  0  0  0  0  0  0  0
    7.4417   -5.0397   22.0096 C   0  0  0  0  0  0  0  0  0  0  0  0
    6.7010   -4.6034   20.8975 C   0  0  0  0  0  0  0  0  0  0  0  0
    6.8911   -3.6130   20.4888 H   0  0  0  0  0  0  0  0  0  0  0  0
    5.7217   -5.4328   20.3473 C   0  0  0  0  0  0  0  0  0  0  0  0
    5.1956   -5.0935   19.4564 H   0  0  0  0  0  0  0  0  0  0  0  0
    5.4391   -6.6764   20.9148 C   0  0  0  0  0  0  0  0  0  0  0  0
    4.7100   -7.3362   20.4471 H   0  0  0  0  0  0  0  0  0  0  0  0
    6.1563   -7.1028   22.0414 C   0  0  0  0  0  0  0  0  0  0  0  0
    5.9204   -8.0560   22.5148 H   0  0  0  0  0  0  0  0  0  0  0  0
    7.1639   -6.2986   22.5751 C   0  0  0  0  0  0  0  0  0  0  0  0
    7.7448   -6.6225   23.4356 H   0  0  0  0  0  0  0  0  0  0  0  0
    7.4979   -1.2953   21.0299 N   0  0  0  0  0  0  0  0  0  0  0  0
    6.8371   -0.1407   21.1817 C   0  0  0  0  0  0  0  0  0  0  0  0
    6.2282    0.4341   19.9610 C   0  0  0  0  0  0  0  0  0  0  0  0
    6.9177    0.2624   18.7481 C   0  0  0  0  0  0  0  0  0  0  0  0
    7.8509   -0.2987   18.7315 H   0  0  0  0  0  0  0  0  0  0  0  0
    6.5010    0.7569   17.5787 N   0  0  0  0  0  0  0  0  0  0  0  0
    5.3480    1.4422   17.5761 C   0  0  0  0  0  0  0  0  0  0  0  0
    5.0128    1.8093   16.6076 H   0  0  0  0  0  0  0  0  0  0  0  0
    4.5788    1.6642   18.7211 C   0  0  0  0  0  0  0  0  0  0  0  0
    3.6512    2.2243   18.6369 H   0  0  0  0  0  0  0  0  0  0  0  0
    5.0241    1.1563   19.9396 C   0  0  0  0  0  0  0  0  0  0  0  0
    4.4265    1.3034   20.8438 H   0  0  0  0  0  0  0  0  0  0  0  0
  1  2  1  0
  2  3  2  0
  3  4  1  0
  4  5  2  0
  5  6  1  0
  6  7  1  0
  6  8  1  0
  6  9  1  0
  9 10  1  0
  9 11  1  0
 11 12  2  0
 12 13  1  0
 12 14  1  0
 14 15  1  0
 14 16  2  0
 16 17  1  0
 16 18  1  0
 18 19  1  0
 18 20  2  0
 20 21  1  0
  5 22  1  0
 22 23  2  0
 23 24  1  0
 24 25  2  0
 25 26  1  0
 25 27  1  0
 27 28  2  0
 28 29  1  0
 28 30  1  0
 30 31  1  0
 30 32  2  0
 32 33  1  0
 23  2  1  0
 32 24  1  0
 20 11  1  0
M  END
>  <cnnaffinity>  (1) 
-5.29491

>  <filename>  (1) 
c1ccc(NCc2nncc(-c3cccnc3)n2)cc1

$$$$
