
     RDKit          3D

 39 42  0  0  0  0  0  0  0  0999 V2000
    8.6189   -3.6991   21.4353 H   0  0  0  0  0  0  0  0  0  0  0  0
    8.3383   -2.6757   21.6562 C   0  0  0  0  0  0  0  0  0  0  0  0
    8.6202   -2.2332   22.8821 N   0  0  0  0  0  0  0  0  0  0  0  0
    8.2714   -0.9737   23.1317 C   0  0  0  0  0  0  0  0  0  0  0  0
    8.5102   -0.5843   24.1211 H   0  0  0  0  0  0  0  0  0  0  0  0
    7.6614   -0.1393   22.2013 C   0  0  0  0  0  0  0  0  0  0  0  0
    7.3823    1.2915   22.5280 C   0  0  0  0  0  0  0  0  0  0  0  0
    7.8629    2.3180   21.6942 C   0  0  0  0  0  0  0  0  0  0  0  0
    8.4299    2.0534   20.8064 H   0  0  0  0  0  0  0  0  0  0  0  0
    7.5936    3.6511   22.0038 C   0  0  0  0  0  0  0  0  0  0  0  0
    7.9584    4.4507   21.3640 H   0  0  0  0  0  0  0  0  0  0  0  0
    6.8422    3.9716   23.1330 C   0  0  0  0  0  0  0  0  0  0  0  0
    6.6452    5.0153   23.3672 H   0  0  0  0  0  0  0  0  0  0  0  0
    6.3589    2.9613   23.9866 C   0  0  0  0  0  0  0  0  0  0  0  0
    5.5718    3.3071   25.2046 C   0  0  0  0  0  0  0  0  0  0  0  0
    5.7855    2.6244   26.4175 C   0  0  0  0  0  0  0  0  0  0  0  0
    6.5472    1.8471   26.4643 H   0  0  0  0  0  0  0  0  0  0  0  0
    5.0496    2.9497   27.5581 C   0  0  0  0  0  0  0  0  0  0  0  0
    5.2260    2.4097   28.4853 H   0  0  0  0  0  0  0  0  0  0  0  0
    4.0808    3.9586   27.5035 C   0  0  0  0  0  0  0  0  0  0  0  0
    3.5056    4.2098   28.3891 H   0  0  0  0  0  0  0  0  0  0  0  0
    3.8553    4.6428   26.3035 C   0  0  0  0  0  0  0  0  0  0  0  0
    3.1086    5.4315   26.2538 H   0  0  0  0  0  0  0  0  0  0  0  0
    4.5970    4.3218   25.1666 C   0  0  0  0  0  0  0  0  0  0  0  0
    4.4110    4.8479   24.2312 H   0  0  0  0  0  0  0  0  0  0  0  0
    6.6448    1.6237   23.6661 C   0  0  0  0  0  0  0  0  0  0  0  0
    6.2604    0.8276   24.3039 H   0  0  0  0  0  0  0  0  0  0  0  0
    7.3904   -0.7374   20.9536 C   0  0  0  0  0  0  0  0  0  0  0  0
    6.6512   -0.0144   19.9032 C   0  0  0  0  0  0  0  0  0  0  0  0
    7.1740    0.0424   18.6099 C   0  0  0  0  0  0  0  0  0  0  0  0
    8.1237   -0.4385   18.3755 H   0  0  0  0  0  0  0  0  0  0  0  0
    6.5774    0.6746   17.5949 N   0  0  0  0  0  0  0  0  0  0  0  0
    5.4087    1.2874   17.8488 C   0  0  0  0  0  0  0  0  0  0  0  0
    4.9202    1.7745   17.0049 H   0  0  0  0  0  0  0  0  0  0  0  0
    4.8074    1.3019   19.1119 C   0  0  0  0  0  0  0  0  0  0  0  0
    3.8762    1.8416   19.2610 H   0  0  0  0  0  0  0  0  0  0  0  0
    5.4375    0.6416   20.1639 C   0  0  0  0  0  0  0  0  0  0  0  0
    5.0089    0.6393   21.1703 H   0  0  0  0  0  0  0  0  0  0  0  0
    7.7603   -1.9906   20.6768 N   0  0  0  0  0  0  0  0  0  0  0  0
  1  2  1  0
  2  3  2  0
  3  4  1  0
  4  5  1  0
  4  6  2  0
  6  7  1  0
  7  8  2  0
  8  9  1  0
  8 10  1  0
 10 11  1  0
 10 12  2  0
 12 13  1  0
 12 14  1  0
 14 15  1  0
 15 16  2  0
 16 17  1  0
 16 18  1  0
 18 19  1  0
 18 20  2  0
 20 21  1  0
 20 22  1  0
 22 23  1  0
 22 24  2  0
 24 25  1  0
 14 26  2  0
 26 27  1  0
  6 28  1  0
 28 29  1  0
 29 30  2  0
 30 31  1  0
 30 32  1  0
 32 33  2  0
 33 34  1  0
 33 35  1  0
 35 36  1  0
 35 37  2  0
 37 38  1  0
 28 39  2  0
 39  2  1  0
 26  7  1  0
 37 29  1  0
 24 15  1  0
M  END
>  <cnnaffinity>  (1) 
-5.07915

>  <filename>  (1) 
c1ccc(-c2cccc(-c3cncnc3-c3cccnc3)c2)cc1

$$$$
