
     RDKit          3D

 33 35  0  0  0  0  0  0  0  0999 V2000
    4.9299    1.7821   16.9947 H   0  0  0  0  0  0  0  0  0  0  0  0
    5.4078    1.2912   17.8397 C   0  0  0  0  0  0  0  0  0  0  0  0
    6.5704    0.6705   17.5867 N   0  0  0  0  0  0  0  0  0  0  0  0
    7.1677    0.0420   18.6027 C   0  0  0  0  0  0  0  0  0  0  0  0
    8.1157   -0.4371   18.3780 H   0  0  0  0  0  0  0  0  0  0  0  0
    6.6538    0.0020   19.9059 C   0  0  0  0  0  0  0  0  0  0  0  0
    7.3900   -0.7066   20.9457 C   0  0  0  0  0  0  0  0  0  0  0  0
    7.9779   -1.9304   20.7570 N   0  0  0  0  0  0  0  0  0  0  0  0
    8.4868   -2.2718   21.9131 C   0  0  0  0  0  0  0  0  0  0  0  0
    9.0252   -3.1878   22.1359 H   0  0  0  0  0  0  0  0  0  0  0  0
    8.2698   -1.3073   22.8428 N   0  0  0  0  0  0  0  0  0  0  0  0
    8.6311   -1.2945   23.7788 H   0  0  0  0  0  0  0  0  0  0  0  0
    7.5906   -0.2763   22.2351 C   0  0  0  0  0  0  0  0  0  0  0  0
    7.2742    1.0284   22.9061 C   0  0  0  0  0  0  0  0  0  0  0  0
    6.9469    1.7489   22.1464 H   0  0  0  0  0  0  0  0  0  0  0  0
    6.4277    0.9120   23.5982 H   0  0  0  0  0  0  0  0  0  0  0  0
    8.3717    1.6130   23.6473 N   0  0  0  0  0  0  0  0  0  0  0  0
    8.3646    1.5546   24.6489 H   0  0  0  0  0  0  0  0  0  0  0  0
    9.5680    2.0118   23.0870 C   0  0  0  0  0  0  0  0  0  0  0  0
   10.6282    2.3880   23.9394 C   0  0  0  0  0  0  0  0  0  0  0  0
   10.4974    2.3127   25.0156 H   0  0  0  0  0  0  0  0  0  0  0  0
   11.8264    2.8589   23.4038 C   0  0  0  0  0  0  0  0  0  0  0  0
   12.6360    3.1561   24.0547 H   0  0  0  0  0  0  0  0  0  0  0  0
   12.0078    2.9570   22.0244 C   0  0  0  0  0  0  0  0  0  0  0  0
   12.9368    3.3414   21.6049 H   0  0  0  0  0  0  0  0  0  0  0  0
   10.9690    2.5615   21.1857 C   0  0  0  0  0  0  0  0  0  0  0  0
   11.1194    2.6687   20.1226 H   0  0  0  0  0  0  0  0  0  0  0  0
    9.7519    2.1004   21.6932 C   0  0  0  0  0  0  0  0  0  0  0  0
    8.9367    1.8168   21.0323 H   0  0  0  0  0  0  0  0  0  0  0  0
    5.4332    0.6549   20.1570 C   0  0  0  0  0  0  0  0  0  0  0  0
    4.9834    0.6339   21.1547 H   0  0  0  0  0  0  0  0  0  0  0  0
    4.8031    1.3083   19.1014 C   0  0  0  0  0  0  0  0  0  0  0  0
    3.8739    1.8416   19.2546 H   0  0  0  0  0  0  0  0  0  0  0  0
  1  2  1  0
  2  3  2  0
  3  4  1  0
  4  5  1  0
  4  6  2  0
  6  7  1  0
  7  8  1  0
  8  9  2  0
  9 10  1  0
  9 11  1  0
 11 12  1  0
 11 13  1  0
 13 14  1  0
 14 15  1  0
 14 16  1  0
 14 17  1  0
 17 18  1  0
 17 19  1  0
 19 20  2  0
 20 21  1  0
 20 22  1  0
 22 23  1  0
 22 24  2  0
 24 25  1  0
 24 26  1  0
 26 27  1  0
 26 28  2  0
 28 29  1  0
  6 30  1  0
 30 31  1  0
 30 32  2  0
 32 33  1  0
 32  2  1  0
 13  7  2  0
 28 19  1  0
M  END
>  <cnnaffinity>  (1) 
-5.28288

>  <filename>  (1) 
c1ccc(NCc2[nH]cnc2-c2cccnc2)cc1

$$$$
