
     RDKit          3D

 40 43  0  0  0  0  0  0  0  0999 V2000
    5.0218    1.7147   16.8997 H   0  0  0  0  0  0  0  0  0  0  0  0
    5.4505    1.2502   17.7853 C   0  0  0  0  0  0  0  0  0  0  0  0
    6.5885    0.5618   17.6021 N   0  0  0  0  0  0  0  0  0  0  0  0
    7.1458    0.0021   18.6788 C   0  0  0  0  0  0  0  0  0  0  0  0
    8.0615   -0.5603   18.5113 H   0  0  0  0  0  0  0  0  0  0  0  0
    6.6219    0.1109   19.9850 C   0  0  0  0  0  0  0  0  0  0  0  0
    7.3539   -0.4998   21.0916 C   0  0  0  0  0  0  0  0  0  0  0  0
    8.3728   -1.4132   20.8221 N   0  0  0  0  0  0  0  0  0  0  0  0
    8.8169   -1.7563   21.9875 C   0  0  0  0  0  0  0  0  0  0  0  0
    8.1735   -1.1636   23.0375 N   0  0  0  0  0  0  0  0  0  0  0  0
    7.2521   -0.3123   22.4654 C   0  0  0  0  0  0  0  0  0  0  0  0
    6.4728    0.5243   23.1762 O   0  0  0  0  0  0  0  0  0  0  0  0
    6.9411    0.9837   24.4646 C   0  0  0  0  0  0  0  0  0  0  0  0
    8.0211    1.1850   24.4105 H   0  0  0  0  0  0  0  0  0  0  0  0
    6.7222    0.2141   25.2133 H   0  0  0  0  0  0  0  0  0  0  0  0
    6.2011    2.2596   24.8235 C   0  0  0  0  0  0  0  0  0  0  0  0
    5.1224    2.0669   24.7903 H   0  0  0  0  0  0  0  0  0  0  0  0
    6.4527    2.5009   25.8654 H   0  0  0  0  0  0  0  0  0  0  0  0
    6.5581    3.4190   23.9182 C   0  0  0  0  0  0  0  0  0  0  0  0
    7.7232    4.1691   24.1364 C   0  0  0  0  0  0  0  0  0  0  0  0
    8.3617    3.9153   24.9798 H   0  0  0  0  0  0  0  0  0  0  0  0
    8.0667    5.2277   23.2889 C   0  0  0  0  0  0  0  0  0  0  0  0
    8.9948    5.7706   23.4521 H   0  0  0  0  0  0  0  0  0  0  0  0
    7.2287    5.5656   22.2203 C   0  0  0  0  0  0  0  0  0  0  0  0
    7.4781    6.4039   21.5719 H   0  0  0  0  0  0  0  0  0  0  0  0
    6.0717    4.8143   21.9904 C   0  0  0  0  0  0  0  0  0  0  0  0
    5.4031    5.0549   21.1711 H   0  0  0  0  0  0  0  0  0  0  0  0
    5.7520    3.7378   22.8192 C   0  0  0  0  0  0  0  0  0  0  0  0
    4.8728    3.1319   22.6032 H   0  0  0  0  0  0  0  0  0  0  0  0
    8.7696   -1.3231   24.3652 C   0  0  0  0  0  0  0  0  0  0  0  0
    9.3849   -0.4473   24.6166 H   0  0  0  0  0  0  0  0  0  0  0  0
    7.9860   -1.4466   25.1174 H   0  0  0  0  0  0  0  0  0  0  0  0
    9.6493   -2.5815   24.2783 C   0  0  0  0  0  0  0  0  0  0  0  0
    9.1076   -3.4729   24.6084 H   0  0  0  0  0  0  0  0  0  0  0  0
   10.5609   -2.4664   24.8664 H   0  0  0  0  0  0  0  0  0  0  0  0
   10.1386   -2.7775   22.5243 S   0  0  0  0  0  0  0  0  0  0  0  0
    5.4137    0.8132   20.1517 C   0  0  0  0  0  0  0  0  0  0  0  0
    4.9602    0.9006   21.1412 H   0  0  0  0  0  0  0  0  0  0  0  0
    4.8220    1.3844   19.0290 C   0  0  0  0  0  0  0  0  0  0  0  0
    3.8983    1.9488   19.1040 H   0  0  0  0  0  0  0  0  0  0  0  0
  1  2  1  0
  2  3  2  0
  3  4  1  0
  4  5  1  0
  4  6  2  0
  6  7  1  0
  7  8  1  0
  8  9  2  0
  9 10  1  0
 10 11  1  0
 11 12  1  0
 12 13  1  0
 13 14  1  0
 13 15  1  0
 13 16  1  0
 16 17  1  0
 16 18  1  0
 16 19  1  0
 19 20  2  0
 20 21  1  0
 20 22  1  0
 22 23  1  0
 22 24  2  0
 24 25  1  0
 24 26  1  0
 26 27  1  0
 26 28  2  0
 28 29  1  0
 10 30  1  0
 30 31  1  0
 30 32  1  0
 30 33  1  0
 33 34  1  0
 33 35  1  0
 33 36  1  0
  6 37  1  0
 37 38  1  0
 37 39  2  0
 39 40  1  0
 39  2  1  0
 11  7  2  0
 28 19  1  0
 36  9  1  0
M  END
>  <cnnaffinity>  (1) 
-5.39686

>  <filename>  (1) 
c1ccc(CCOc2c(-c3cccnc3)nc3n2CCS3)cc1

$$$$
