
     RDKit          3D

 41 43  0  0  0  0  0  0  0  0999 V2000
    4.9114    1.7890   16.9882 H   0  0  0  0  0  0  0  0  0  0  0  0
    5.3954    1.2974   17.8286 C   0  0  0  0  0  0  0  0  0  0  0  0
    6.5592    0.6808   17.5625 N   0  0  0  0  0  0  0  0  0  0  0  0
    7.1648    0.0523   18.5810 C   0  0  0  0  0  0  0  0  0  0  0  0
    8.1188   -0.4260   18.3621 H   0  0  0  0  0  0  0  0  0  0  0  0
    6.6690   -0.0005   19.9079 C   0  0  0  0  0  0  0  0  0  0  0  0
    7.3384   -0.6676   20.9388 N   0  0  0  0  0  0  0  0  0  0  0  0
    7.5806   -0.0676   22.2335 C   0  0  0  0  0  0  0  0  0  0  0  0
    7.1632    0.9412   22.2444 H   0  0  0  0  0  0  0  0  0  0  0  0
    8.6652    0.0449   22.3964 H   0  0  0  0  0  0  0  0  0  0  0  0
    6.9879   -0.9149   23.3723 C   0  0  0  0  0  0  0  0  0  0  0  0
    5.9604   -0.5980   23.5214 H   0  0  0  0  0  0  0  0  0  0  0  0
    7.4938   -0.6380   24.3009 H   0  0  0  0  0  0  0  0  0  0  0  0
    7.0549   -2.4480   23.1291 C   0  0  0  0  0  0  0  0  0  0  0  0
    6.0867   -2.7817   22.7273 H   0  0  0  0  0  0  0  0  0  0  0  0
    7.3243   -3.2386   24.4156 C   0  0  0  0  0  0  0  0  0  0  0  0
    7.4680   -4.2990   24.1653 H   0  0  0  0  0  0  0  0  0  0  0  0
    8.2816   -2.8917   24.8351 H   0  0  0  0  0  0  0  0  0  0  0  0
    6.2687   -3.1027   25.3909 N   0  0  0  0  0  0  0  0  0  0  0  0
    5.4667   -2.5500   25.1497 H   0  0  0  0  0  0  0  0  0  0  0  0
    6.2816   -3.6545   26.6525 C   0  0  0  0  0  0  0  0  0  0  0  0
    7.3506   -4.4590   27.0959 C   0  0  0  0  0  0  0  0  0  0  0  0
    8.1868   -4.6428   26.4289 H   0  0  0  0  0  0  0  0  0  0  0  0
    7.3330   -5.0215   28.3731 C   0  0  0  0  0  0  0  0  0  0  0  0
    8.1701   -5.6387   28.6864 H   0  0  0  0  0  0  0  0  0  0  0  0
    6.2620   -4.7972   29.2408 C   0  0  0  0  0  0  0  0  0  0  0  0
    6.2617   -5.2228   30.2420 H   0  0  0  0  0  0  0  0  0  0  0  0
    5.2015   -3.9911   28.8087 C   0  0  0  0  0  0  0  0  0  0  0  0
    4.3677   -3.8018   29.4800 H   0  0  0  0  0  0  0  0  0  0  0  0
    5.2012   -3.4234   27.5326 C   0  0  0  0  0  0  0  0  0  0  0  0
    4.3680   -2.8022   27.2113 H   0  0  0  0  0  0  0  0  0  0  0  0
    8.1118   -2.7572   22.0521 C   0  0  0  0  0  0  0  0  0  0  0  0
    8.1772   -3.8325   21.8516 H   0  0  0  0  0  0  0  0  0  0  0  0
    9.1105   -2.4478   22.3871 H   0  0  0  0  0  0  0  0  0  0  0  0
    7.7964   -2.0312   20.7364 C   0  0  0  0  0  0  0  0  0  0  0  0
    8.6912   -2.0213   20.0988 H   0  0  0  0  0  0  0  0  0  0  0  0
    7.0057   -2.5789   20.2007 H   0  0  0  0  0  0  0  0  0  0  0  0
    5.4494    0.6592   20.1586 C   0  0  0  0  0  0  0  0  0  0  0  0
    5.0266    0.6248   21.1641 H   0  0  0  0  0  0  0  0  0  0  0  0
    4.8075    1.3094   19.1001 C   0  0  0  0  0  0  0  0  0  0  0  0
    3.8763    1.8420   19.2604 H   0  0  0  0  0  0  0  0  0  0  0  0
  1  2  1  0
  2  3  2  0
  3  4  1  0
  4  5  1  0
  4  6  2  0
  6  7  1  0
  7  8  1  0
  8  9  1  0
  8 10  1  0
  8 11  1  0
 11 12  1  0
 11 13  1  0
 11 14  1  0
 14 15  1  0
 14 16  1  0
 16 17  1  0
 16 18  1  0
 16 19  1  0
 19 20  1  0
 19 21  1  0
 21 22  2  0
 22 23  1  0
 22 24  1  0
 24 25  1  0
 24 26  2  0
 26 27  1  0
 26 28  1  0
 28 29  1  0
 28 30  2  0
 30 31  1  0
 14 32  1  0
 32 33  1  0
 32 34  1  0
 32 35  1  0
 35 36  1  0
 35 37  1  0
  6 38  1  0
 38 39  1  0
 38 40  2  0
 40 41  1  0
 40  2  1  0
 35  7  1  0
 30 21  1  0
M  END
>  <cnnaffinity>  (1) 
-4.68319

>  <filename>  (1) 
c1ccc(NCC2CCN(c3cccnc3)CC2)cc1

$$$$
