
     RDKit          3D

 45 49  0  0  0  0  0  0  0  0999 V2000
    4.9946    1.8346   16.9199 H   0  0  0  0  0  0  0  0  0  0  0  0
    5.3927    1.3070   17.7852 C   0  0  0  0  0  0  0  0  0  0  0  0
    6.5451    0.6455   17.6016 N   0  0  0  0  0  0  0  0  0  0  0  0
    7.0687    0.0238   18.6673 C   0  0  0  0  0  0  0  0  0  0  0  0
    8.0049   -0.5020   18.4853 H   0  0  0  0  0  0  0  0  0  0  0  0
    6.4826   -0.0027   19.9497 C   0  0  0  0  0  0  0  0  0  0  0  0
    7.2355   -0.6159   21.0644 C   0  0  0  0  0  0  0  0  0  0  0  0
    8.5925   -0.5839   21.2941 C   0  0  0  0  0  0  0  0  0  0  0  0
    8.8000   -1.1846   22.5246 C   0  0  0  0  0  0  0  0  0  0  0  0
    7.6818   -1.6250   23.0693 N   0  0  0  0  0  0  0  0  0  0  0  0
    6.7348   -1.2584   22.1640 N   0  0  0  0  0  0  0  0  0  0  0  0
    5.7720   -1.5053   22.3543 H   0  0  0  0  0  0  0  0  0  0  0  0
   10.2368   -1.1477   22.9498 C   0  0  0  0  0  0  0  0  0  0  0  0
   10.6536   -2.1574   23.0200 H   0  0  0  0  0  0  0  0  0  0  0  0
   10.3439   -0.6915   23.9378 H   0  0  0  0  0  0  0  0  0  0  0  0
   10.9308   -0.2876   21.8271 C   0  0  2  0  0  0  0  0  0  0  0  0
   11.7632   -0.8678   21.4174 H   0  0  0  0  0  0  0  0  0  0  0  0
   11.4475    1.0431   22.3557 C   0  0  0  0  0  0  0  0  0  0  0  0
   10.5331    1.9712   22.8777 C   0  0  0  0  0  0  0  0  0  0  0  0
    9.4801    1.7091   22.9051 H   0  0  0  0  0  0  0  0  0  0  0  0
   10.9425    3.2119   23.3538 C   0  0  0  0  0  0  0  0  0  0  0  0
   10.1976    3.8967   23.7514 H   0  0  0  0  0  0  0  0  0  0  0  0
   12.2958    3.6012   23.2936 C   0  0  0  0  0  0  0  0  0  0  0  0
   12.6877    4.9912   23.6894 C   0  0  0  0  0  0  0  0  0  0  0  0
   13.3454    5.8589   22.7965 C   0  0  0  0  0  0  0  0  0  0  0  0
   13.6537    5.4971   21.8218 H   0  0  0  0  0  0  0  0  0  0  0  0
   13.5459    7.2068   23.1103 C   0  0  0  0  0  0  0  0  0  0  0  0
   14.0162    7.8479   22.3719 H   0  0  0  0  0  0  0  0  0  0  0  0
   13.1573    7.7053   24.3582 C   0  0  0  0  0  0  0  0  0  0  0  0
   13.2690    8.7571   24.6112 H   0  0  0  0  0  0  0  0  0  0  0  0
   12.5806    6.8371   25.2848 C   0  0  0  0  0  0  0  0  0  0  0  0
   12.3159    7.1948   26.2748 H   0  0  0  0  0  0  0  0  0  0  0  0
   12.3166    5.5116   24.9403 C   0  0  0  0  0  0  0  0  0  0  0  0
   11.7781    4.8885   25.6350 H   0  0  0  0  0  0  0  0  0  0  0  0
   13.2222    2.6618   22.8031 C   0  0  0  0  0  0  0  0  0  0  0  0
   14.2785    2.9144   22.7688 H   0  0  0  0  0  0  0  0  0  0  0  0
   12.8029    1.4042   22.3553 C   0  0  0  0  0  0  0  0  0  0  0  0
   13.5369    0.6933   21.9902 H   0  0  0  0  0  0  0  0  0  0  0  0
    9.8564   -0.0828   20.6983 C   0  0  0  0  0  0  0  0  0  0  0  0
    9.7787    0.9645   20.3824 H   0  0  0  0  0  0  0  0  0  0  0  0
   10.0950   -0.6674   19.8085 H   0  0  0  0  0  0  0  0  0  0  0  0
    5.2569    0.6683   20.1058 C   0  0  0  0  0  0  0  0  0  0  0  0
    4.7587    0.6958   21.0758 H   0  0  0  0  0  0  0  0  0  0  0  0
    4.7144    1.3389   19.0088 C   0  0  0  0  0  0  0  0  0  0  0  0
    3.7947    1.9075   19.0945 H   0  0  0  0  0  0  0  0  0  0  0  0
  1  2  1  0
  2  3  2  0
  3  4  1  0
  4  5  1  0
  4  6  2  0
  6  7  1  0
  7  8  2  0
  8  9  1  0
  9 10  2  0
 10 11  1  0
 11 12  1  0
  9 13  1  0
 13 14  1  0
 13 15  1  0
 13 16  1  0
 16 17  1  6
 16 18  1  0
 18 19  2  0
 19 20  1  0
 19 21  1  0
 21 22  1  0
 21 23  2  0
 23 24  1  0
 24 25  2  0
 25 26  1  0
 25 27  1  0
 27 28  1  0
 27 29  2  0
 29 30  1  0
 29 31  1  0
 31 32  1  0
 31 33  2  0
 33 34  1  0
 23 35  1  0
 35 36  1  0
 35 37  2  0
 37 38  1  0
 16 39  1  0
 39 40  1  0
 39 41  1  0
  6 42  1  0
 42 43  1  0
 42 44  2  0
 44 45  1  0
 44  2  1  0
 11  7  1  0
 37 18  1  0
 39  8  1  0
 33 24  1  0
M  END
>  <cnnaffinity>  (1) 
-6.17118

>  <filename>  (1) 
c1ccc(-c2ccc([C@H]3Cc4n[nH]c(-c5cccnc5)c4C3)cc2)cc1

$$$$
