
     RDKit          3D

 51 55  0  0  0  0  0  0  0  0999 V2000
   13.3752    5.3548   21.9702 H   0  0  0  0  0  0  0  0  0  0  0  0
   12.5545    5.1296   22.6523 C   0  0  0  0  0  0  0  0  0  0  0  0
   11.8183    4.0666   22.3435 N   0  0  0  0  0  0  0  0  0  0  0  0
   10.7977    3.7561   23.1602 C   0  0  0  0  0  0  0  0  0  0  0  0
   10.0016    2.7019   22.7713 N   0  0  0  0  0  0  0  0  0  0  0  0
    8.8097    2.2742   23.5272 C   0  0  0  0  0  0  0  0  0  0  0  0
    9.0922    1.5863   24.3396 H   0  0  0  0  0  0  0  0  0  0  0  0
    8.3228    3.1484   23.9663 H   0  0  0  0  0  0  0  0  0  0  0  0
    7.7267    1.5620   22.6716 C   0  0  0  0  0  0  0  0  0  0  0  0
    6.9834    1.1564   23.3708 H   0  0  0  0  0  0  0  0  0  0  0  0
    7.2064    2.2991   22.0322 H   0  0  0  0  0  0  0  0  0  0  0  0
    8.3420    0.5066   21.8627 N   0  0  0  0  0  0  0  0  0  0  0  0
    7.4920   -0.5136   21.2032 C   0  0  1  0  0  0  0  0  0  0  0  0
    6.6900    0.1302   20.0559 C   0  0  0  0  0  0  0  0  0  0  0  0
    7.2398    0.2018   18.7646 C   0  0  0  0  0  0  0  0  0  0  0  0
    8.2380   -0.1898   18.5696 H   0  0  0  0  0  0  0  0  0  0  0  0
    6.6393    0.7498   17.7013 N   0  0  0  0  0  0  0  0  0  0  0  0
    5.4474    1.3312   17.8998 C   0  0  0  0  0  0  0  0  0  0  0  0
    4.9754    1.7640   17.0208 H   0  0  0  0  0  0  0  0  0  0  0  0
    4.8362    1.3978   19.1552 C   0  0  0  0  0  0  0  0  0  0  0  0
    3.8874    1.9102   19.2585 H   0  0  0  0  0  0  0  0  0  0  0  0
    5.4726    0.8107   20.2534 C   0  0  0  0  0  0  0  0  0  0  0  0
    5.0356    0.9054   21.2501 H   0  0  0  0  0  0  0  0  0  0  0  0
    8.4767   -1.6751   20.7892 C   0  0  0  0  0  0  0  0  0  0  0  0
    9.4864   -1.4377   21.1414 H   0  0  0  0  0  0  0  0  0  0  0  0
    8.5383   -1.7668   19.7127 H   0  0  0  0  0  0  0  0  0  0  0  0
    8.0299   -2.9321   21.5690 C   0  0  2  0  0  0  0  0  0  0  0  0
    8.8187   -3.6896   21.6282 H   0  0  0  0  0  0  0  0  0  0  0  0
    6.6790   -3.4734   21.0670 C   0  0  0  0  0  0  0  0  0  0  0  0
    6.4364   -4.4056   21.5942 H   0  0  0  0  0  0  0  0  0  0  0  0
    6.6402   -3.7046   19.9978 H   0  0  0  0  0  0  0  0  0  0  0  0
    5.7023   -2.3306   21.4568 C   0  0  0  0  0  0  0  0  0  0  0  0
    5.2914   -1.8587   20.5630 H   0  0  0  0  0  0  0  0  0  0  0  0
    4.8721   -2.7017   22.0667 H   0  0  0  0  0  0  0  0  0  0  0  0
    6.6079   -1.3190   22.2216 C   0  0  1  0  0  0  0  0  0  0  0  0
    6.0771   -0.6373   22.8870 H   0  0  0  0  0  0  0  0  0  0  0  0
    7.6094   -2.2714   22.8985 C   0  0  0  0  0  0  0  0  0  0  0  0
    7.1369   -2.9543   23.6191 H   0  0  0  0  0  0  0  0  0  0  0  0
    8.4275   -1.7393   23.3967 H   0  0  0  0  0  0  0  0  0  0  0  0
    9.3157    1.1690   20.9719 C   0  0  0  0  0  0  0  0  0  0  0  0
    9.6876    0.4805   20.2013 H   0  0  0  0  0  0  0  0  0  0  0  0
    8.8283    2.0127   20.4559 H   0  0  0  0  0  0  0  0  0  0  0  0
   10.4818    1.7158   21.7893 C   0  0  0  0  0  0  0  0  0  0  0  0
   10.9868    0.8756   22.2945 H   0  0  0  0  0  0  0  0  0  0  0  0
   11.1956    2.1945   21.1163 H   0  0  0  0  0  0  0  0  0  0  0  0
   10.5287    4.4890   24.3460 C   0  0  0  0  0  0  0  0  0  0  0  0
    9.7537    4.1405   25.0120 H   0  0  0  0  0  0  0  0  0  0  0  0
   11.2850    5.6162   24.6233 C   0  0  0  0  0  0  0  0  0  0  0  0
   11.0408    6.2488   25.4784 H   0  0  0  0  0  0  0  0  0  0  0  0
   12.3381    5.9421   23.7635 C   0  0  0  0  0  0  0  0  0  0  0  0
   12.9730    6.7999   23.9370 H   0  0  0  0  0  0  0  0  0  0  0  0
  1  2  1  0
  2  3  2  0
  3  4  1  0
  4  5  1  0
  5  6  1  0
  6  7  1  0
  6  8  1  0
  6  9  1  0
  9 10  1  0
  9 11  1  0
  9 12  1  0
 13 12  1  1
 13 14  1  0
 14 15  2  0
 15 16  1  0
 15 17  1  0
 17 18  2  0
 18 19  1  0
 18 20  1  0
 20 21  1  0
 20 22  2  0
 22 23  1  0
 13 24  1  0
 24 25  1  0
 24 26  1  0
 24 27  1  0
 27 28  1  1
 27 29  1  0
 29 30  1  0
 29 31  1  0
 29 32  1  0
 32 33  1  0
 32 34  1  0
 32 35  1  0
 35 36  1  1
 35 37  1  0
 37 38  1  0
 37 39  1  0
 12 40  1  0
 40 41  1  0
 40 42  1  0
 40 43  1  0
 43 44  1  0
 43 45  1  0
  4 46  2  0
 46 47  1  0
 46 48  1  0
 48 49  1  0
 48 50  2  0
 50 51  1  0
 50  2  1  0
 43  5  1  0
 35 13  1  0
 22 14  1  0
 37 27  1  0
M  END
>  <cnnaffinity>  (1) 
-5.84045

>  <filename>  (1) 
c1ccc(N2CCN([C@@]3(c4cccnc4)C[C@@H]4CC[C@H]3C4)CC2)nc1

$$$$
