
     RDKit          3D

 39 42  0  0  0  0  0  0  0  0999 V2000
    5.0247    1.8027   16.9068 H   0  0  0  0  0  0  0  0  0  0  0  0
    5.4504    1.2902   17.7661 C   0  0  0  0  0  0  0  0  0  0  0  0
    6.5908    0.6168   17.5447 N   0  0  0  0  0  0  0  0  0  0  0  0
    7.1411   -0.0276   18.5783 C   0  0  0  0  0  0  0  0  0  0  0  0
    8.0560   -0.5789   18.3685 H   0  0  0  0  0  0  0  0  0  0  0  0
    6.6165    0.0004   19.8829 C   0  0  0  0  0  0  0  0  0  0  0  0
    7.3288   -0.6643   20.9748 C   0  0  0  0  0  0  0  0  0  0  0  0
    7.9056   -1.9094   20.8121 N   0  0  0  0  0  0  0  0  0  0  0  0
    8.3657   -2.2012   21.9984 C   0  0  0  0  0  0  0  0  0  0  0  0
    9.1480   -3.5817   22.7251 S   0  0  0  0  0  0  0  0  0  0  0  0
    9.2868   -2.7153   24.2410 C   0  0  0  0  0  0  0  0  0  0  0  0
    9.7618   -3.1925   25.0844 H   0  0  0  0  0  0  0  0  0  0  0  0
    8.7533   -1.4909   24.1904 C   0  0  0  0  0  0  0  0  0  0  0  0
    8.7265   -0.7589   24.9876 H   0  0  0  0  0  0  0  0  0  0  0  0
    8.2016   -1.2012   22.9361 N   0  0  0  0  0  0  0  0  0  0  0  0
    7.5225   -0.1897   22.2791 C   0  0  0  0  0  0  0  0  0  0  0  0
    7.1743    0.9742   22.8856 N   0  0  0  0  0  0  0  0  0  0  0  0
    6.9699    1.7593   22.2812 H   0  0  0  0  0  0  0  0  0  0  0  0
    7.2054    1.2125   24.3075 C   0  0  0  0  0  0  0  0  0  0  0  0
    8.2366    1.2826   24.6868 H   0  0  0  0  0  0  0  0  0  0  0  0
    6.7363    0.3736   24.8424 H   0  0  0  0  0  0  0  0  0  0  0  0
    6.4525    2.5054   24.5957 C   0  0  0  0  0  0  0  0  0  0  0  0
    5.4438    2.4125   24.1735 H   0  0  0  0  0  0  0  0  0  0  0  0
    6.9441    3.3195   24.0484 H   0  0  0  0  0  0  0  0  0  0  0  0
    6.3776    2.8281   26.0703 C   0  0  0  0  0  0  0  0  0  0  0  0
    7.2896    3.7100   26.6677 C   0  0  0  0  0  0  0  0  0  0  0  0
    8.0349    4.2063   26.0532 H   0  0  0  0  0  0  0  0  0  0  0  0
    7.2392    3.9671   28.0414 C   0  0  0  0  0  0  0  0  0  0  0  0
    7.9487    4.6531   28.4901 H   0  0  0  0  0  0  0  0  0  0  0  0
    6.2707    3.3553   28.8390 C   0  0  0  0  0  0  0  0  0  0  0  0
    6.2106    3.6049   29.8964 H   0  0  0  0  0  0  0  0  0  0  0  0
    5.3681    2.4555   28.2596 C   0  0  0  0  0  0  0  0  0  0  0  0
    4.6296    1.9537   28.8797 H   0  0  0  0  0  0  0  0  0  0  0  0
    5.4205    2.2009   26.8839 C   0  0  0  0  0  0  0  0  0  0  0  0
    4.7023    1.5199   26.4269 H   0  0  0  0  0  0  0  0  0  0  0  0
    5.4083    0.6924   20.0889 C   0  0  0  0  0  0  0  0  0  0  0  0
    4.9471    0.6962   21.0780 H   0  0  0  0  0  0  0  0  0  0  0  0
    4.8125    1.3381   19.0099 C   0  0  0  0  0  0  0  0  0  0  0  0
    3.8794    1.8792   19.1184 H   0  0  0  0  0  0  0  0  0  0  0  0
  1  2  1  0
  2  3  2  0
  3  4  1  0
  4  5  1  0
  4  6  2  0
  6  7  1  0
  7  8  1  0
  8  9  2  0
  9 10  1  0
 10 11  1  0
 11 12  1  0
 11 13  2  0
 13 14  1  0
 13 15  1  0
 15 16  1  0
 16 17  1  0
 17 18  1  0
 17 19  1  0
 19 20  1  0
 19 21  1  0
 19 22  1  0
 22 23  1  0
 22 24  1  0
 22 25  1  0
 25 26  2  0
 26 27  1  0
 26 28  1  0
 28 29  1  0
 28 30  2  0
 30 31  1  0
 30 32  1  0
 32 33  1  0
 32 34  2  0
 34 35  1  0
  6 36  1  0
 36 37  1  0
 36 38  2  0
 38 39  1  0
 38  2  1  0
 16  7  2  0
 34 25  1  0
 15  9  1  0
M  END
>  <cnnaffinity>  (1) 
-5.43018

>  <filename>  (1) 
c1ccc(CCNc2c(-c3cccnc3)nc3sccn23)cc1

$$$$
