
     RDKit          3D

 42 45  0  0  0  0  0  0  0  0999 V2000
    5.0389    1.7830   16.9487 H   0  0  0  0  0  0  0  0  0  0  0  0
    5.4743    1.2748   17.8084 C   0  0  0  0  0  0  0  0  0  0  0  0
    6.6381    0.6389   17.6051 N   0  0  0  0  0  0  0  0  0  0  0  0
    7.1895    0.0074   18.6453 C   0  0  0  0  0  0  0  0  0  0  0  0
    8.1374   -0.4906   18.4642 H   0  0  0  0  0  0  0  0  0  0  0  0
    6.6197   -0.0437   19.9361 C   0  0  0  0  0  0  0  0  0  0  0  0
    7.3220   -0.7793   20.9996 C   0  0  0  0  0  0  0  0  0  0  0  0
    8.6068   -1.2268   20.7894 N   0  0  0  0  0  0  0  0  0  0  0  0
    8.9918   -1.7439   21.9261 C   0  0  0  0  0  0  0  0  0  0  0  0
    9.9784   -2.1483   22.1282 H   0  0  0  0  0  0  0  0  0  0  0  0
    8.0106   -1.7056   22.8873 N   0  0  0  0  0  0  0  0  0  0  0  0
    8.1839   -2.0377   24.2479 N   0  0  0  0  0  0  0  0  0  0  0  0
    7.1612   -1.5622   25.2221 C   0  0  0  0  0  0  0  0  0  0  0  0
    7.6864   -1.1585   26.0950 H   0  0  0  0  0  0  0  0  0  0  0  0
    6.5831   -0.7348   24.8111 H   0  0  0  0  0  0  0  0  0  0  0  0
    6.1879   -2.6461   25.7453 C   0  0  0  0  0  0  0  0  0  0  0  0
    5.4424   -2.9074   24.9771 H   0  0  0  0  0  0  0  0  0  0  0  0
    5.6227   -2.1995   26.5771 H   0  0  0  0  0  0  0  0  0  0  0  0
    6.9033   -3.8321   26.2265 N   0  0  0  0  0  0  0  0  0  0  0  0
    6.2988   -4.7451   27.0884 C   0  0  0  0  0  0  0  0  0  0  0  0
    7.0308   -5.3469   28.1378 C   0  0  0  0  0  0  0  0  0  0  0  0
    8.0725   -5.0771   28.2848 H   0  0  0  0  0  0  0  0  0  0  0  0
    6.4243   -6.2819   28.9787 C   0  0  0  0  0  0  0  0  0  0  0  0
    7.0002   -6.7337   29.7849 H   0  0  0  0  0  0  0  0  0  0  0  0
    5.0919   -6.6551   28.7766 C   0  0  0  0  0  0  0  0  0  0  0  0
    4.6300   -7.3984   29.4194 H   0  0  0  0  0  0  0  0  0  0  0  0
    4.3583   -6.0658   27.7418 C   0  0  0  0  0  0  0  0  0  0  0  0
    3.3243   -6.3598   27.5714 H   0  0  0  0  0  0  0  0  0  0  0  0
    4.9454   -5.1045   26.9166 C   0  0  0  0  0  0  0  0  0  0  0  0
    4.3734   -4.6415   26.1184 H   0  0  0  0  0  0  0  0  0  0  0  0
    8.3241   -3.9171   25.9033 C   0  0  0  0  0  0  0  0  0  0  0  0
    8.6604   -4.9531   26.0085 H   0  0  0  0  0  0  0  0  0  0  0  0
    8.9428   -3.3144   26.5948 H   0  0  0  0  0  0  0  0  0  0  0  0
    8.5855   -3.4549   24.4589 C   0  0  0  0  0  0  0  0  0  0  0  0
    9.6603   -3.5802   24.2735 H   0  0  0  0  0  0  0  0  0  0  0  0
    8.0536   -4.1125   23.7547 H   0  0  0  0  0  0  0  0  0  0  0  0
    6.9324   -1.0766   22.2792 C   0  0  0  0  0  0  0  0  0  0  0  0
    6.0331   -0.8652   22.8189 H   0  0  0  0  0  0  0  0  0  0  0  0
    5.4134    0.6471   20.1348 C   0  0  0  0  0  0  0  0  0  0  0  0
    4.9558    0.6933   21.1255 H   0  0  0  0  0  0  0  0  0  0  0  0
    4.8338    1.3046   19.0524 C   0  0  0  0  0  0  0  0  0  0  0  0
    3.9051    1.8500   19.1499 H   0  0  0  0  0  0  0  0  0  0  0  0
  1  2  1  0
  2  3  2  0
  3  4  1  0
  4  5  1  0
  4  6  2  0
  6  7  1  0
  7  8  1  0
  8  9  2  0
  9 10  1  0
  9 11  1  0
 11 12  1  0
 12 13  1  0
 13 14  1  0
 13 15  1  0
 13 16  1  0
 16 17  1  0
 16 18  1  0
 16 19  1  0
 19 20  1  0
 20 21  2  0
 21 22  1  0
 21 23  1  0
 23 24  1  0
 23 25  2  0
 25 26  1  0
 25 27  1  0
 27 28  1  0
 27 29  2  0
 29 30  1  0
 19 31  1  0
 31 32  1  0
 31 33  1  0
 31 34  1  0
 34 35  1  0
 34 36  1  0
 11 37  1  0
 37 38  1  0
  6 39  1  0
 39 40  1  0
 39 41  2  0
 41 42  1  0
 41  2  1  0
 37  7  2  0
 34 12  1  0
 29 20  1  0
M  END
>  <cnnaffinity>  (1) 
-5.21055

>  <filename>  (1) 
c1ccc(N2CCN(n3cnc(-c4cccnc4)c3)CC2)cc1

$$$$
