
     RDKit          3D

 34 35  0  0  0  0  0  0  0  0999 V2000
    5.0046    1.8340   16.9541 H   0  0  0  0  0  0  0  0  0  0  0  0
    5.4442    1.3165   17.8052 C   0  0  0  0  0  0  0  0  0  0  0  0
    6.6212    0.7108   17.5821 N   0  0  0  0  0  0  0  0  0  0  0  0
    7.1891    0.0788   18.6156 C   0  0  0  0  0  0  0  0  0  0  0  0
    8.1522   -0.3932   18.4188 H   0  0  0  0  0  0  0  0  0  0  0  0
    6.6201   -0.0157   19.8931 C   0  0  0  0  0  0  0  0  0  0  0  0
    7.3808   -0.7501   20.9700 C   0  0  0  0  0  0  0  0  0  0  0  0
    6.7397   -0.9160   21.8517 H   0  0  0  0  0  0  0  0  0  0  0  0
    7.6663   -1.7379   20.5775 H   0  0  0  0  0  0  0  0  0  0  0  0
    8.6189   -0.0494   21.3433 N   0  0  0  0  0  0  0  0  0  0  0  0
    9.2088   -0.7406   21.8128 H   0  0  0  0  0  0  0  0  0  0  0  0
    8.3113    0.9761   22.3336 N   0  0  0  0  0  0  0  0  0  0  0  0
    7.7268    1.6698   21.8538 H   0  0  0  0  0  0  0  0  0  0  0  0
    9.4909    1.6748   22.8366 C   0  0  0  0  0  0  0  0  0  0  0  0
   10.1656    0.9712   23.3462 H   0  0  0  0  0  0  0  0  0  0  0  0
    9.1205    2.3826   23.5901 H   0  0  0  0  0  0  0  0  0  0  0  0
   10.2676    2.4475   21.7661 C   0  0  0  0  0  0  0  0  0  0  0  0
    9.5292    3.0206   21.1912 H   0  0  0  0  0  0  0  0  0  0  0  0
   10.6946    1.7315   21.0589 H   0  0  0  0  0  0  0  0  0  0  0  0
   11.3761    3.3443   22.2890 C   0  0  0  0  0  0  0  0  0  0  0  0
   12.7127    2.9412   22.1676 C   0  0  0  0  0  0  0  0  0  0  0  0
   12.9075    1.9288   21.8248 H   0  0  0  0  0  0  0  0  0  0  0  0
   13.7684    3.8118   22.4568 C   0  0  0  0  0  0  0  0  0  0  0  0
   14.7894    3.4655   22.3186 H   0  0  0  0  0  0  0  0  0  0  0  0
   13.5030    5.1053   22.9061 C   0  0  0  0  0  0  0  0  0  0  0  0
   14.3179    5.7951   23.1104 H   0  0  0  0  0  0  0  0  0  0  0  0
   12.1761    5.4904   23.1274 C   0  0  0  0  0  0  0  0  0  0  0  0
   11.9715    6.4792   23.5234 H   0  0  0  0  0  0  0  0  0  0  0  0
   11.1228    4.6060   22.8545 C   0  0  0  0  0  0  0  0  0  0  0  0
   10.1020    4.9050   23.0879 H   0  0  0  0  0  0  0  0  0  0  0  0
    5.3884    0.6180   20.1050 C   0  0  0  0  0  0  0  0  0  0  0  0
    4.9094    0.5841   21.0872 H   0  0  0  0  0  0  0  0  0  0  0  0
    4.7926    1.3011   19.0412 C   0  0  0  0  0  0  0  0  0  0  0  0
    3.8519    1.8277   19.1591 H   0  0  0  0  0  0  0  0  0  0  0  0
  1  2  1  0
  2  3  2  0
  3  4  1  0
  4  5  1  0
  4  6  2  0
  6  7  1  0
  7  8  1  0
  7  9  1  0
  7 10  1  0
 10 11  1  0
 10 12  1  0
 12 13  1  0
 12 14  1  0
 14 15  1  0
 14 16  1  0
 14 17  1  0
 17 18  1  0
 17 19  1  0
 17 20  1  0
 20 21  2  0
 21 22  1  0
 21 23  1  0
 23 24  1  0
 23 25  2  0
 25 26  1  0
 25 27  1  0
 27 28  1  0
 27 29  2  0
 29 30  1  0
  6 31  1  0
 31 32  1  0
 31 33  2  0
 33 34  1  0
 33  2  1  0
 29 20  1  0
M  END
>  <cnnaffinity>  (1) 
-4.36604

>  <filename>  (1) 
c1ccc(CCNNCc2cccnc2)cc1

$$$$
