
     RDKit          3D

 39 42  0  0  0  0  0  0  0  0999 V2000
    5.0020    1.7807   16.9828 H   0  0  0  0  0  0  0  0  0  0  0  0
    5.4438    1.2743   17.8386 C   0  0  0  0  0  0  0  0  0  0  0  0
    6.6032    0.6356   17.6246 N   0  0  0  0  0  0  0  0  0  0  0  0
    7.1707    0.0236   18.6683 C   0  0  0  0  0  0  0  0  0  0  0  0
    8.1153   -0.4841   18.4853 H   0  0  0  0  0  0  0  0  0  0  0  0
    6.6164    0.0133   19.9571 C   0  0  0  0  0  0  0  0  0  0  0  0
    7.3659   -0.6848   21.0050 C   0  0  0  0  0  0  0  0  0  0  0  0
    8.5657   -1.2956   20.7595 N   0  0  0  0  0  0  0  0  0  0  0  0
    8.8643   -1.7835   21.9467 C   0  0  0  0  0  0  0  0  0  0  0  0
   10.1255   -2.7066   22.7238 S   0  0  0  0  0  0  0  0  0  0  0  0
    9.2334   -2.6564   24.2331 C   0  0  0  0  0  0  0  0  0  0  0  0
    9.6546   -3.1154   25.1188 H   0  0  0  0  0  0  0  0  0  0  0  0
    8.0716   -1.9819   24.1345 C   0  0  0  0  0  0  0  0  0  0  0  0
    7.0514   -1.6426   25.1697 C   0  0  0  0  0  0  0  0  0  0  0  0
    7.1701   -2.3176   26.0257 H   0  0  0  0  0  0  0  0  0  0  0  0
    6.0557   -1.8286   24.7502 H   0  0  0  0  0  0  0  0  0  0  0  0
    7.1280   -0.1718   25.6084 C   0  0  0  0  0  0  0  0  0  0  0  0
    6.3075    0.0200   26.3097 H   0  0  0  0  0  0  0  0  0  0  0  0
    6.9415    0.4527   24.7258 H   0  0  0  0  0  0  0  0  0  0  0  0
    8.4492    0.2615   26.2717 C   0  0  0  0  0  0  0  0  0  0  0  0
    8.6427   -0.3569   27.1580 H   0  0  0  0  0  0  0  0  0  0  0  0
    9.2908    0.1069   25.5854 H   0  0  0  0  0  0  0  0  0  0  0  0
    8.4024    1.7136   26.6951 C   0  0  0  0  0  0  0  0  0  0  0  0
    8.9184    2.7208   25.8652 C   0  0  0  0  0  0  0  0  0  0  0  0
    9.4149    2.4423   24.9370 H   0  0  0  0  0  0  0  0  0  0  0  0
    8.7318    4.0713   26.1728 C   0  0  0  0  0  0  0  0  0  0  0  0
    9.1403    4.8358   25.5144 H   0  0  0  0  0  0  0  0  0  0  0  0
    7.9958    4.4280   27.3072 C   0  0  0  0  0  0  0  0  0  0  0  0
    7.7997    5.4773   27.5229 H   0  0  0  0  0  0  0  0  0  0  0  0
    7.4897    3.4325   28.1511 C   0  0  0  0  0  0  0  0  0  0  0  0
    6.8718    3.7070   29.0052 H   0  0  0  0  0  0  0  0  0  0  0  0
    7.7340    2.0855   27.8742 C   0  0  0  0  0  0  0  0  0  0  0  0
    7.3951    1.3094   28.5646 H   0  0  0  0  0  0  0  0  0  0  0  0
    7.9053   -1.4914   22.8404 N   0  0  0  0  0  0  0  0  0  0  0  0
    6.9227   -0.7720   22.2506 N   0  0  0  0  0  0  0  0  0  0  0  0
    5.3923    0.6732   20.1696 C   0  0  0  0  0  0  0  0  0  0  0  0
    4.9267    0.6970   21.1572 H   0  0  0  0  0  0  0  0  0  0  0  0
    4.8018    1.3120   19.0818 C   0  0  0  0  0  0  0  0  0  0  0  0
    3.8671    1.8506   19.1867 H   0  0  0  0  0  0  0  0  0  0  0  0
  1  2  1  0
  2  3  2  0
  3  4  1  0
  4  5  1  0
  4  6  2  0
  6  7  1  0
  7  8  1  0
  8  9  2  0
  9 10  1  0
 10 11  1  0
 11 12  1  0
 11 13  2  0
 13 14  1  0
 14 15  1  0
 14 16  1  0
 14 17  1  0
 17 18  1  0
 17 19  1  0
 17 20  1  0
 20 21  1  0
 20 22  1  0
 20 23  1  0
 23 24  2  0
 24 25  1  0
 24 26  1  0
 26 27  1  0
 26 28  2  0
 28 29  1  0
 28 30  1  0
 30 31  1  0
 30 32  2  0
 32 33  1  0
 13 34  1  0
 34 35  1  0
  6 36  1  0
 36 37  1  0
 36 38  2  0
 38 39  1  0
 38  2  1  0
 35  7  2  0
 34  9  1  0
 32 23  1  0
M  END
>  <cnnaffinity>  (1) 
-5.82063

>  <filename>  (1) 
c1ccc(CCCc2csc3nc(-c4cccnc4)nn23)cc1

$$$$
