
     RDKit          3D

 32 34  0  0  0  0  0  0  0  0999 V2000
    5.0477    1.8284   16.9521 H   0  0  0  0  0  0  0  0  0  0  0  0
    5.4657    1.3035   17.8094 C   0  0  0  0  0  0  0  0  0  0  0  0
    6.6183    0.6456   17.5956 N   0  0  0  0  0  0  0  0  0  0  0  0
    7.1647    0.0015   18.6275 C   0  0  0  0  0  0  0  0  0  0  0  0
    8.0731   -0.5654   18.4353 H   0  0  0  0  0  0  0  0  0  0  0  0
    6.6192    0.0049   19.9229 C   0  0  0  0  0  0  0  0  0  0  0  0
    7.3286   -0.6697   20.9595 N   0  0  0  0  0  0  0  0  0  0  0  0
    7.7934   -1.9194   20.7425 N   0  0  0  0  0  0  0  0  0  0  0  0
    8.4004   -2.3153   21.8115 N   0  0  0  0  0  0  0  0  0  0  0  0
    8.3564   -1.3194   22.7322 C   0  0  0  0  0  0  0  0  0  0  0  0
    8.8108   -1.4623   23.6967 H   0  0  0  0  0  0  0  0  0  0  0  0
    7.6773   -0.2495   22.2077 C   0  0  0  0  0  0  0  0  0  0  0  0
    7.4337    1.1245   22.7509 C   0  0  0  0  0  0  0  0  0  0  0  0
    7.1603    1.8168   21.9433 H   0  0  0  0  0  0  0  0  0  0  0  0
    6.5734    1.1172   23.4385 H   0  0  0  0  0  0  0  0  0  0  0  0
    8.5686    1.6475   23.4670 N   0  0  0  0  0  0  0  0  0  0  0  0
    8.6340    1.4063   24.4394 H   0  0  0  0  0  0  0  0  0  0  0  0
    9.7881    1.9927   22.8953 C   0  0  0  0  0  0  0  0  0  0  0  0
   10.8166    2.4045   23.7662 C   0  0  0  0  0  0  0  0  0  0  0  0
   10.6538    2.3273   24.8389 H   0  0  0  0  0  0  0  0  0  0  0  0
   12.0153    2.8996   23.2615 C   0  0  0  0  0  0  0  0  0  0  0  0
   12.7921    3.2415   23.9388 H   0  0  0  0  0  0  0  0  0  0  0  0
   12.2211    2.9605   21.8805 C   0  0  0  0  0  0  0  0  0  0  0  0
   13.1337    3.4030   21.4990 H   0  0  0  0  0  0  0  0  0  0  0  0
   11.2444    2.4726   21.0108 C   0  0  0  0  0  0  0  0  0  0  0  0
   11.4473    2.4914   19.9426 H   0  0  0  0  0  0  0  0  0  0  0  0
   10.0285    1.9873   21.5077 C   0  0  0  0  0  0  0  0  0  0  0  0
    9.2853    1.5952   20.8175 H   0  0  0  0  0  0  0  0  0  0  0  0
    5.3942    0.6529   20.1327 C   0  0  0  0  0  0  0  0  0  0  0  0
    4.9064    0.6266   21.1102 H   0  0  0  0  0  0  0  0  0  0  0  0
    4.8076    1.3106   19.0437 C   0  0  0  0  0  0  0  0  0  0  0  0
    3.8605    1.8329   19.1425 H   0  0  0  0  0  0  0  0  0  0  0  0
  1  2  1  0
  2  3  2  0
  3  4  1  0
  4  5  1  0
  4  6  2  0
  6  7  1  0
  7  8  1  0
  8  9  2  0
  9 10  1  0
 10 11  1  0
 10 12  2  0
 12 13  1  0
 13 14  1  0
 13 15  1  0
 13 16  1  0
 16 17  1  0
 16 18  1  0
 18 19  2  0
 19 20  1  0
 19 21  1  0
 21 22  1  0
 21 23  2  0
 23 24  1  0
 23 25  1  0
 25 26  1  0
 25 27  2  0
 27 28  1  0
  6 29  1  0
 29 30  1  0
 29 31  2  0
 31 32  1  0
 31  2  1  0
 12  7  1  0
 27 18  1  0
M  END
>  <cnnaffinity>  (1) 
-5.22568

>  <filename>  (1) 
c1ccc(NCc2cnnn2-c2cccnc2)cc1

$$$$
