
     RDKit          3D

 33 36  0  0  0  0  0  0  0  0999 V2000
    4.3045   -7.9561   24.9899 H   0  0  0  0  0  0  0  0  0  0  0  0
    4.8684   -7.0452   25.1858 C   0  0  0  0  0  0  0  0  0  0  0  0
    4.7229   -6.0677   24.2874 N   0  0  0  0  0  0  0  0  0  0  0  0
    5.4083   -4.9467   24.5228 C   0  0  0  0  0  0  0  0  0  0  0  0
    5.1208   -4.0223   23.5584 N   0  0  0  0  0  0  0  0  0  0  0  0
    4.5080   -4.5130   22.9341 H   0  0  0  0  0  0  0  0  0  0  0  0
    6.0614   -3.2351   22.9432 C   0  0  0  0  0  0  0  0  0  0  0  0
    7.3449   -3.1784   23.2731 N   0  0  0  0  0  0  0  0  0  0  0  0
    7.7913   -2.2252   22.4115 N   0  0  0  0  0  0  0  0  0  0  0  0
    9.0321   -1.7386   22.0663 C   0  0  0  0  0  0  0  0  0  0  0  0
    9.9084   -2.0976   22.5745 H   0  0  0  0  0  0  0  0  0  0  0  0
    8.8161   -0.8530   21.0565 C   0  0  0  0  0  0  0  0  0  0  0  0
    9.5248   -0.2657   20.5000 H   0  0  0  0  0  0  0  0  0  0  0  0
    7.4442   -0.7905   20.7902 N   0  0  0  0  0  0  0  0  0  0  0  0
    6.7508   -0.0159   19.8356 C   0  0  0  0  0  0  0  0  0  0  0  0
    7.2401    0.0730   18.5249 C   0  0  0  0  0  0  0  0  0  0  0  0
    8.1738   -0.4263   18.2744 H   0  0  0  0  0  0  0  0  0  0  0  0
    6.6103    0.7138   17.5356 N   0  0  0  0  0  0  0  0  0  0  0  0
    5.4443    1.3149   17.8245 C   0  0  0  0  0  0  0  0  0  0  0  0
    4.9301    1.8120   17.0021 H   0  0  0  0  0  0  0  0  0  0  0  0
    4.8834    1.3024   19.1069 C   0  0  0  0  0  0  0  0  0  0  0  0
    3.9435    1.8127   19.2826 H   0  0  0  0  0  0  0  0  0  0  0  0
    5.5425    0.6324   20.1401 C   0  0  0  0  0  0  0  0  0  0  0  0
    5.1436    0.6297   21.1567 H   0  0  0  0  0  0  0  0  0  0  0  0
    6.8340   -1.7161   21.6087 C   0  0  0  0  0  0  0  0  0  0  0  0
    5.6777   -2.4038   21.8913 C   0  0  0  0  0  0  0  0  0  0  0  0
    4.6617   -2.3705   21.5976 H   0  0  0  0  0  0  0  0  0  0  0  0
    6.2435   -4.7278   25.6188 C   0  0  0  0  0  0  0  0  0  0  0  0
    6.7718   -3.7906   25.7017 H   0  0  0  0  0  0  0  0  0  0  0  0
    6.3730   -5.7561   26.5447 C   0  0  0  0  0  0  0  0  0  0  0  0
    7.0119   -5.6379   27.4218 H   0  0  0  0  0  0  0  0  0  0  0  0
    5.6729   -6.9456   26.3230 C   0  0  0  0  0  0  0  0  0  0  0  0
    5.7466   -7.7709   27.0188 H   0  0  0  0  0  0  0  0  0  0  0  0
  1  2  1  0
  2  3  2  0
  3  4  1  0
  4  5  1  0
  5  6  1  0
  5  7  1  0
  7  8  2  0
  8  9  1  0
  9 10  1  0
 10 11  1  0
 10 12  2  0
 12 13  1  0
 12 14  1  0
 14 15  1  0
 15 16  2  0
 16 17  1  0
 16 18  1  0
 18 19  2  0
 19 20  1  0
 19 21  1  0
 21 22  1  0
 21 23  2  0
 23 24  1  0
 14 25  1  0
 25 26  2  0
 26 27  1  0
  4 28  2  0
 28 29  1  0
 28 30  1  0
 30 31  1  0
 30 32  2  0
 32 33  1  0
 32  2  1  0
 26  7  1  0
 25  9  1  0
 23 15  1  0
M  END
>  <cnnaffinity>  (1) 
-5.0944

>  <filename>  (1) 
c1ccc(Nc2cc3n(-c4cccnc4)ccn3n2)nc1

$$$$
