
     RDKit          3D

 37 39  0  0  0  0  0  0  0  0999 V2000
    8.2574   -4.7503   24.9507 H   0  0  0  0  0  0  0  0  0  0  0  0
    8.6805   -3.7560   25.1455 C   0  0  0  0  0  0  0  0  0  0  0  0
    7.9887   -2.7114   24.5473 N   0  0  0  0  0  0  0  0  0  0  0  0
    8.5205   -1.4780   24.7591 C   0  0  0  0  0  0  0  0  0  0  0  0
    7.8442   -0.5750   23.8225 N   0  0  0  0  0  0  0  0  0  0  0  0
    6.6334   -0.9614   23.0802 C   0  0  0  0  0  0  0  0  0  0  0  0
    6.0006   -0.0675   22.9576 H   0  0  0  0  0  0  0  0  0  0  0  0
    6.0554   -1.6891   23.6639 H   0  0  0  0  0  0  0  0  0  0  0  0
    6.8513   -1.5771   21.6713 C   0  0  0  0  0  0  0  0  0  0  0  0
    5.8731   -1.8811   21.2811 H   0  0  0  0  0  0  0  0  0  0  0  0
    7.4369   -2.5001   21.8060 H   0  0  0  0  0  0  0  0  0  0  0  0
    7.5178   -0.7458   20.6700 N   0  0  0  0  0  0  0  0  0  0  0  0
    6.7838   -0.0216   19.6984 C   0  0  0  0  0  0  0  0  0  0  0  0
    7.2799    0.1580   18.3755 C   0  0  0  0  0  0  0  0  0  0  0  0
    8.2343   -0.2923   18.1007 H   0  0  0  0  0  0  0  0  0  0  0  0
    6.6478    0.8290   17.4038 N   0  0  0  0  0  0  0  0  0  0  0  0
    5.4684    1.3972   17.7093 C   0  0  0  0  0  0  0  0  0  0  0  0
    4.9863    1.9609   16.9140 H   0  0  0  0  0  0  0  0  0  0  0  0
    4.8742    1.2821   18.9686 C   0  0  0  0  0  0  0  0  0  0  0  0
    3.9235    1.7691   19.1608 H   0  0  0  0  0  0  0  0  0  0  0  0
    5.5251    0.5493   19.9694 C   0  0  0  0  0  0  0  0  0  0  0  0
    5.0911    0.4309   20.9592 H   0  0  0  0  0  0  0  0  0  0  0  0
    8.8682   -0.3093   21.0212 C   0  0  0  0  0  0  0  0  0  0  0  0
    9.3953   -0.0373   20.0960 H   0  0  0  0  0  0  0  0  0  0  0  0
    9.3961   -1.1780   21.4363 H   0  0  0  0  0  0  0  0  0  0  0  0
    8.9676    0.8818   22.0004 C   0  0  0  0  0  0  0  0  0  0  0  0
    8.5285    1.7592   21.5108 H   0  0  0  0  0  0  0  0  0  0  0  0
   10.0341    1.1114   22.1206 H   0  0  0  0  0  0  0  0  0  0  0  0
    8.3133    0.7487   23.4120 C   0  0  0  0  0  0  0  0  0  0  0  0
    7.4300    1.4081   23.4150 H   0  0  0  0  0  0  0  0  0  0  0  0
    8.9544    1.2274   24.1608 H   0  0  0  0  0  0  0  0  0  0  0  0
    9.5882   -1.1224   25.5970 C   0  0  0  0  0  0  0  0  0  0  0  0
   10.4141   -0.3271   25.2319 H   0  0  0  0  0  0  0  0  0  0  0  0
    9.5257   -1.0079   25.7696 C   0  0  0  0  0  0  0  0  0  0  0  0
    9.7955   -1.0266   26.9403 H   0  0  0  0  0  0  0  0  0  0  0  0
    9.7907   -3.5746   25.8917 C   0  0  0  0  0  0  0  0  0  0  0  0
   10.4606   -4.3295   26.3059 H   0  0  0  0  0  0  0  0  0  0  0  0
  1  2  1  0
  2  3  2  0
  3  4  1  0
  4  5  1  0
  5  6  1  0
  6  7  1  0
  6  8  1  0
  6  9  1  0
  9 10  1  0
  9 11  1  0
  9 12  1  0
 12 13  1  0
 13 14  2  0
 14 15  1  0
 14 16  1  0
 16 17  2  0
 17 18  1  0
 17 19  1  0
 19 20  1  0
 19 21  2  0
 21 22  1  0
 12 23  1  0
 23 24  1  0
 23 25  1  0
 23 26  1  0
 26 27  1  0
 26 28  1  0
 26 29  1  0
 29 30  1  0
 29 31  1  0
  4 32  2  0
 32 33  1  0
 32 34  1  0
 34 35  1  0
 34 36  2  0
 36 37  1  0
 36  2  1  0
 29  5  1  0
 21 13  1  0
M  END
>  <cnnaffinity>  (1) 
-4.81798

>  <filename>  (1) 
c1ccc(N2CCCN(c3cccnc3)CC2)nc1

$$$$
