
     RDKit          3D

 42 45  0  0  0  0  0  0  0  0999 V2000
    5.0056    1.7878   16.9754 H   0  0  0  0  0  0  0  0  0  0  0  0
    5.4408    1.2783   17.8344 C   0  0  0  0  0  0  0  0  0  0  0  0
    6.5941    0.6301   17.6131 N   0  0  0  0  0  0  0  0  0  0  0  0
    7.1453   -0.0031   18.6565 C   0  0  0  0  0  0  0  0  0  0  0  0
    8.0859   -0.5184   18.4678 H   0  0  0  0  0  0  0  0  0  0  0  0
    6.6064   -0.0374   19.9551 C   0  0  0  0  0  0  0  0  0  0  0  0
    7.3466   -0.7431   21.0648 C   0  0  0  0  0  0  0  0  0  0  0  0
    7.0415   -2.2046   21.2937 C   0  0  0  0  0  0  0  0  0  0  0  0
    7.9484   -3.1334   21.3807 N   0  0  0  0  0  0  0  0  0  0  0  0
    7.4322   -4.3727   21.6150 N   0  0  0  0  0  0  0  0  0  0  0  0
    6.1412   -4.3713   21.7521 C   0  0  0  0  0  0  0  0  0  0  0  0
    5.3576   -5.5949   22.1308 C   0  0  0  0  0  0  0  0  0  0  0  0
    5.5045   -6.3382   21.3314 H   0  0  0  0  0  0  0  0  0  0  0  0
    4.2926   -5.3367   22.1615 H   0  0  0  0  0  0  0  0  0  0  0  0
    5.8197   -6.1787   23.4826 C   0  0  0  0  0  0  0  0  0  0  0  0
    6.8758   -6.4634   23.3801 H   0  0  0  0  0  0  0  0  0  0  0  0
    5.7865   -5.3940   24.2524 H   0  0  0  0  0  0  0  0  0  0  0  0
    5.0001   -7.3773   23.9911 C   0  0  0  0  0  0  0  0  0  0  0  0
    5.1158   -8.2344   23.3149 H   0  0  0  0  0  0  0  0  0  0  0  0
    5.4232   -7.6957   24.9511 H   0  0  0  0  0  0  0  0  0  0  0  0
    3.5411   -7.0739   24.2654 C   0  0  0  0  0  0  0  0  0  0  0  0
    3.2286   -6.4534   25.4862 C   0  0  0  0  0  0  0  0  0  0  0  0
    4.0432   -6.1451   26.1406 H   0  0  0  0  0  0  0  0  0  0  0  0
    1.9044   -6.2427   25.8696 C   0  0  0  0  0  0  0  0  0  0  0  0
    1.6910   -5.7847   26.8282 H   0  0  0  0  0  0  0  0  0  0  0  0
    0.8609   -6.6276   25.0201 C   0  0  0  0  0  0  0  0  0  0  0  0
   -0.1720   -6.4827   25.3243 H   0  0  0  0  0  0  0  0  0  0  0  0
    1.1575   -7.2041   23.7832 C   0  0  0  0  0  0  0  0  0  0  0  0
    0.3520   -7.4905   23.1094 H   0  0  0  0  0  0  0  0  0  0  0  0
    2.4875   -7.4168   23.4025 C   0  0  0  0  0  0  0  0  0  0  0  0
    2.7114   -7.8383   22.4238 H   0  0  0  0  0  0  0  0  0  0  0  0
    5.4317   -2.8054   21.5258 S   0  0  0  0  0  0  0  0  0  0  0  0
    8.7810   -0.3255   21.3120 C   0  0  0  0  0  0  0  0  0  0  0  0
    9.4538   -1.1220   21.6137 H   0  0  0  0  0  0  0  0  0  0  0  0
    9.2041    0.4415   20.6676 H   0  0  0  0  0  0  0  0  0  0  0  0
    7.7325    0.0836   22.2911 C   0  0  0  0  0  0  0  0  0  0  0  0
    7.7119   -0.4006   23.2625 H   0  0  0  0  0  0  0  0  0  0  0  0
    7.4358    1.1303   22.2962 H   0  0  0  0  0  0  0  0  0  0  0  0
    5.3984    0.6422   20.1603 C   0  0  0  0  0  0  0  0  0  0  0  0
    4.9487    0.6609   21.1559 H   0  0  0  0  0  0  0  0  0  0  0  0
    4.8029    1.3050   19.0812 C   0  0  0  0  0  0  0  0  0  0  0  0
    3.8681    1.8388   19.1906 H   0  0  0  0  0  0  0  0  0  0  0  0
  1  2  1  0
  2  3  2  0
  3  4  1  0
  4  5  1  0
  4  6  2  0
  6  7  1  0
  7  8  1  0
  8  9  2  0
  9 10  1  0
 10 11  2  0
 11 12  1  0
 12 13  1  0
 12 14  1  0
 12 15  1  0
 15 16  1  0
 15 17  1  0
 15 18  1  0
 18 19  1  0
 18 20  1  0
 18 21  1  0
 21 22  2  0
 22 23  1  0
 22 24  1  0
 24 25  1  0
 24 26  2  0
 26 27  1  0
 26 28  1  0
 28 29  1  0
 28 30  2  0
 30 31  1  0
 11 32  1  0
  7 33  1  0
 33 34  1  0
 33 35  1  0
 33 36  1  0
 36 37  1  0
 36 38  1  0
  6 39  1  0
 39 40  1  0
 39 41  2  0
 41 42  1  0
 41  2  1  0
 36  7  1  0
 32  8  1  0
 30 21  1  0
M  END
>  <cnnaffinity>  (1) 
-5.06069

>  <filename>  (1) 
c1ccc(CCCc2nnc(C3(c4cccnc4)CC3)s2)cc1

$$$$
