
     RDKit          3D

 44 47  0  0  0  0  0  0  0  0999 V2000
    5.0575    1.8170   16.9933 H   0  0  0  0  0  0  0  0  0  0  0  0
    5.4541    1.2843   17.8564 C   0  0  0  0  0  0  0  0  0  0  0  0
    6.5906    0.6007   17.6571 N   0  0  0  0  0  0  0  0  0  0  0  0
    7.0973   -0.0556   18.7069 C   0  0  0  0  0  0  0  0  0  0  0  0
    8.0205   -0.6001   18.5152 H   0  0  0  0  0  0  0  0  0  0  0  0
    6.5327   -0.0790   19.9931 C   0  0  0  0  0  0  0  0  0  0  0  0
    7.2504   -0.8146   21.0596 C   0  0  0  0  0  0  0  0  0  0  0  0
    6.6514   -1.7519   21.8022 N   0  0  0  0  0  0  0  0  0  0  0  0
    7.6504   -2.2516   22.5411 N   0  0  0  0  0  0  0  0  0  0  0  0
    8.8518   -1.7072   22.3066 C   0  0  0  0  0  0  0  0  0  0  0  0
    8.6478   -0.7123   21.3680 C   0  0  0  0  0  0  0  0  0  0  0  0
    9.6424    0.2742   20.8239 C   0  0  0  0  0  0  0  0  0  0  0  0
    9.7553    0.0455   19.7562 H   0  0  0  0  0  0  0  0  0  0  0  0
   10.6294    0.1169   21.2868 H   0  0  0  0  0  0  0  0  0  0  0  0
    9.2592    1.7620   20.9251 C   0  0  0  0  0  0  0  0  0  0  0  0
    8.4432    1.9612   20.2221 H   0  0  0  0  0  0  0  0  0  0  0  0
   10.1449    2.3308   20.6022 H   0  0  0  0  0  0  0  0  0  0  0  0
    8.8953    2.3617   22.2923 C   0  0  0  0  0  0  0  0  0  0  0  0
    8.6897    3.4278   22.1274 H   0  0  0  0  0  0  0  0  0  0  0  0
    7.9715    1.9075   22.6810 H   0  0  0  0  0  0  0  0  0  0  0  0
   10.0446    2.2103   23.2630 C   0  0  0  0  0  0  0  0  0  0  0  0
    9.9663    1.2930   24.3174 C   0  0  0  0  0  0  0  0  0  0  0  0
    9.0015    0.8638   24.5799 H   0  0  0  0  0  0  0  0  0  0  0  0
   11.1068    0.9179   25.0360 C   0  0  0  0  0  0  0  0  0  0  0  0
   11.0386    0.1719   25.8269 H   0  0  0  0  0  0  0  0  0  0  0  0
   12.3440    1.4833   24.7160 C   0  0  0  0  0  0  0  0  0  0  0  0
   13.2371    1.1645   25.2455 H   0  0  0  0  0  0  0  0  0  0  0  0
   12.4255    2.4625   23.7210 C   0  0  0  0  0  0  0  0  0  0  0  0
   13.3963    2.8826   23.4694 H   0  0  0  0  0  0  0  0  0  0  0  0
   11.2769    2.8527   23.0240 C   0  0  0  0  0  0  0  0  0  0  0  0
   11.3438    3.6490   22.2785 H   0  0  0  0  0  0  0  0  0  0  0  0
    9.9120   -2.3734   23.1418 C   0  0  0  0  0  0  0  0  0  0  0  0
   10.6862   -2.8379   22.5180 H   0  0  0  0  0  0  0  0  0  0  0  0
   10.4069   -1.6472   23.7948 H   0  0  0  0  0  0  0  0  0  0  0  0
    9.1084   -3.4299   23.9620 C   0  0  0  0  0  0  0  0  0  0  0  0
    9.1846   -3.2360   25.0342 H   0  0  0  0  0  0  0  0  0  0  0  0
    9.4890   -4.4371   23.7874 H   0  0  0  0  0  0  0  0  0  0  0  0
    7.6216   -3.3326   23.5015 C   0  0  0  0  0  0  0  0  0  0  0  0
    7.2743   -4.2480   23.0128 H   0  0  0  0  0  0  0  0  0  0  0  0
    6.9432   -3.0859   24.3229 H   0  0  0  0  0  0  0  0  0  0  0  0
    5.3259    0.6218   20.1758 C   0  0  0  0  0  0  0  0  0  0  0  0
    4.8186    0.6331   21.1422 H   0  0  0  0  0  0  0  0  0  0  0  0
    4.7910    1.3148   19.0870 C   0  0  0  0  0  0  0  0  0  0  0  0
    3.8713    1.8826   19.1716 H   0  0  0  0  0  0  0  0  0  0  0  0
  1  2  1  0
  2  3  2  0
  3  4  1  0
  4  5  1  0
  4  6  2  0
  6  7  1  0
  7  8  2  0
  8  9  1  0
  9 10  1  0
 10 11  2  0
 11 12  1  0
 12 13  1  0
 12 14  1  0
 12 15  1  0
 15 16  1  0
 15 17  1  0
 15 18  1  0
 18 19  1  0
 18 20  1  0
 18 21  1  0
 21 22  2  0
 22 23  1  0
 22 24  1  0
 24 25  1  0
 24 26  2  0
 26 27  1  0
 26 28  1  0
 28 29  1  0
 28 30  2  0
 30 31  1  0
 10 32  1  0
 32 33  1  0
 32 34  1  0
 32 35  1  0
 35 36  1  0
 35 37  1  0
 35 38  1  0
 38 39  1  0
 38 40  1  0
  6 41  1  0
 41 42  1  0
 41 43  2  0
 43 44  1  0
 43  2  1  0
 11  7  1  0
 30 21  1  0
 38  9  1  0
M  END
>  <cnnaffinity>  (1) 
-5.77597

>  <filename>  (1) 
c1ccc(CCCc2c(-c3cccnc3)nn3c2CCC3)cc1

$$$$
