
     RDKit          3D

 40 43  0  0  0  0  0  0  0  0999 V2000
    5.0094    1.7777   16.9812 H   0  0  0  0  0  0  0  0  0  0  0  0
    5.4354    1.2732   17.8466 C   0  0  0  0  0  0  0  0  0  0  0  0
    6.5885    0.6209   17.6341 N   0  0  0  0  0  0  0  0  0  0  0  0
    7.1313   -0.0095   18.6832 C   0  0  0  0  0  0  0  0  0  0  0  0
    8.0772   -0.5222   18.5087 H   0  0  0  0  0  0  0  0  0  0  0  0
    6.5810   -0.0357   19.9771 C   0  0  0  0  0  0  0  0  0  0  0  0
    7.3194   -0.7314   21.0984 C   0  0  0  0  0  0  0  0  0  0  0  0
    7.0530   -2.1910   21.3084 C   0  0  0  0  0  0  0  0  0  0  0  0
    7.8744   -3.1677   21.0982 N   0  0  0  0  0  0  0  0  0  0  0  0
    7.2264   -4.3313   21.4582 N   0  0  0  0  0  0  0  0  0  0  0  0
    6.0660   -3.9754   21.8960 C   0  0  0  0  0  0  0  0  0  0  0  0
    5.1390   -4.8595   22.6421 C   0  0  0  0  0  0  0  0  0  0  0  0
    4.9528   -5.7556   22.0458 H   0  0  0  0  0  0  0  0  0  0  0  0
    4.1906   -4.3585   22.8436 H   0  0  0  0  0  0  0  0  0  0  0  0
    5.8207   -5.2815   23.9511 C   0  0  0  0  0  0  0  0  0  0  0  0
    6.7970   -5.7464   23.7360 H   0  0  0  0  0  0  0  0  0  0  0  0
    6.0088   -4.4041   24.5927 H   0  0  0  0  0  0  0  0  0  0  0  0
    4.9733   -6.2064   24.6065 O   0  0  0  0  0  0  0  0  0  0  0  0
    5.3052   -6.5989   25.8706 C   0  0  0  0  0  0  0  0  0  0  0  0
    4.3082   -7.2910   26.5708 C   0  0  0  0  0  0  0  0  0  0  0  0
    3.3590   -7.4566   26.0724 H   0  0  0  0  0  0  0  0  0  0  0  0
    4.5432   -7.7180   27.8771 C   0  0  0  0  0  0  0  0  0  0  0  0
    3.7721   -8.2653   28.4141 H   0  0  0  0  0  0  0  0  0  0  0  0
    5.7732   -7.4618   28.4993 C   0  0  0  0  0  0  0  0  0  0  0  0
    5.9501   -7.8113   29.5123 H   0  0  0  0  0  0  0  0  0  0  0  0
    6.7576   -6.7538   27.8102 C   0  0  0  0  0  0  0  0  0  0  0  0
    7.7199   -6.5489   28.2781 H   0  0  0  0  0  0  0  0  0  0  0  0
    6.5311   -6.3159   26.4970 C   0  0  0  0  0  0  0  0  0  0  0  0
    7.2872   -5.7462   25.9716 H   0  0  0  0  0  0  0  0  0  0  0  0
    5.8617   -2.6369   21.8041 O   0  0  0  0  0  0  0  0  0  0  0  0
    8.7592   -0.3136   21.3263 C   0  0  0  0  0  0  0  0  0  0  0  0
    9.1792    0.4426   20.6652 H   0  0  0  0  0  0  0  0  0  0  0  0
    9.4525   -1.1039   21.6114 H   0  0  0  0  0  0  0  0  0  0  0  0
    7.7124    0.0976   22.3130 C   0  0  0  0  0  0  0  0  0  0  0  0
    7.6993   -0.3844   23.2874 H   0  0  0  0  0  0  0  0  0  0  0  0
    7.4018    1.1421   22.3133 H   0  0  0  0  0  0  0  0  0  0  0  0
    5.3695    0.6418   20.1690 C   0  0  0  0  0  0  0  0  0  0  0  0
    4.9177    0.6656   21.1622 H   0  0  0  0  0  0  0  0  0  0  0  0
    4.7848    1.3042   19.0850 C   0  0  0  0  0  0  0  0  0  0  0  0
    3.8553    1.8541   19.1860 H   0  0  0  0  0  0  0  0  0  0  0  0
  1  2  1  0
  2  3  2  0
  3  4  1  0
  4  5  1  0
  4  6  2  0
  6  7  1  0
  7  8  1  0
  8  9  2  0
  9 10  1  0
 10 11  2  0
 11 12  1  0
 12 13  1  0
 12 14  1  0
 12 15  1  0
 15 16  1  0
 15 17  1  0
 15 18  1  0
 18 19  1  0
 19 20  2  0
 20 21  1  0
 20 22  1  0
 22 23  1  0
 22 24  2  0
 24 25  1  0
 24 26  1  0
 26 27  1  0
 26 28  2  0
 28 29  1  0
 11 30  1  0
  7 31  1  0
 31 32  1  0
 31 33  1  0
 31 34  1  0
 34 35  1  0
 34 36  1  0
  6 37  1  0
 37 38  1  0
 37 39  2  0
 39 40  1  0
 39  2  1  0
 34  7  1  0
 30  8  1  0
 28 19  1  0
M  END
>  <cnnaffinity>  (1) 
-5.3546

>  <filename>  (1) 
c1ccc(OCCc2nnc(C3(c4cccnc4)CC3)o2)cc1

$$$$
