
     RDKit          3D

 40 43  0  0  0  0  0  0  0  0999 V2000
    5.0009    1.7960   16.9439 H   0  0  0  0  0  0  0  0  0  0  0  0
    5.4417    1.2815   17.7967 C   0  0  0  0  0  0  0  0  0  0  0  0
    6.5805    0.6099   17.5527 N   0  0  0  0  0  0  0  0  0  0  0  0
    7.1507   -0.0205   18.5830 C   0  0  0  0  0  0  0  0  0  0  0  0
    8.0558   -0.5809   18.3593 H   0  0  0  0  0  0  0  0  0  0  0  0
    6.6588    0.0107   19.8962 C   0  0  0  0  0  0  0  0  0  0  0  0
    7.4182   -0.6369   20.9646 C   0  0  0  0  0  0  0  0  0  0  0  0
    7.9101   -1.9150   20.8160 N   0  0  0  0  0  0  0  0  0  0  0  0
    8.4091   -2.1839   21.9925 C   0  0  0  0  0  0  0  0  0  0  0  0
    9.1793   -3.5517   22.7635 S   0  0  0  0  0  0  0  0  0  0  0  0
    9.4373   -2.6049   24.2191 C   0  0  0  0  0  0  0  0  0  0  0  0
    9.9901   -3.0329   25.0470 H   0  0  0  0  0  0  0  0  0  0  0  0
    8.9133   -1.3721   24.1237 C   0  0  0  0  0  0  0  0  0  0  0  0
    8.9094   -0.5918   24.8778 H   0  0  0  0  0  0  0  0  0  0  0  0
    8.3330   -1.1411   22.8811 N   0  0  0  0  0  0  0  0  0  0  0  0
    7.6981   -0.1057   22.2195 C   0  0  0  0  0  0  0  0  0  0  0  0
    7.3513    1.1688   22.9240 C   0  0  0  0  0  0  0  0  0  0  0  0
    8.2433    1.5693   23.4331 H   0  0  0  0  0  0  0  0  0  0  0  0
    7.0732    1.9116   22.1663 H   0  0  0  0  0  0  0  0  0  0  0  0
    6.2099    0.9599   23.9430 C   0  0  0  0  0  0  0  0  0  0  0  0
    5.3659    0.5039   23.4136 H   0  0  0  0  0  0  0  0  0  0  0  0
    6.5340    0.2262   24.6937 H   0  0  0  0  0  0  0  0  0  0  0  0
    5.7106    2.2324   24.6492 C   0  0  0  0  0  0  0  0  0  0  0  0
    6.5453    2.7164   25.1732 H   0  0  0  0  0  0  0  0  0  0  0  0
    5.3518    2.9522   23.8988 H   0  0  0  0  0  0  0  0  0  0  0  0
    4.5948    1.9694   25.6518 C   0  0  0  0  0  0  0  0  0  0  0  0
    4.8830    1.6585   26.9935 C   0  0  0  0  0  0  0  0  0  0  0  0
    5.9173    1.6482   27.3339 H   0  0  0  0  0  0  0  0  0  0  0  0
    3.8627    1.3712   27.9097 C   0  0  0  0  0  0  0  0  0  0  0  0
    4.1109    1.1454   28.9476 H   0  0  0  0  0  0  0  0  0  0  0  0
    2.5264    1.3774   27.4924 C   0  0  0  0  0  0  0  0  0  0  0  0
    1.7311    1.1548   28.2017 H   0  0  0  0  0  0  0  0  0  0  0  0
    2.2172    1.6830   26.1614 C   0  0  0  0  0  0  0  0  0  0  0  0
    1.1788    1.6907   25.8289 H   0  0  0  0  0  0  0  0  0  0  0  0
    3.2447    1.9867   25.2588 C   0  0  0  0  0  0  0  0  0  0  0  0
    2.9879    2.2652   24.2392 H   0  0  0  0  0  0  0  0  0  0  0  0
    5.4456    0.6815   20.1286 C   0  0  0  0  0  0  0  0  0  0  0  0
    4.9784    0.6865   21.1180 H   0  0  0  0  0  0  0  0  0  0  0  0
    4.8260    1.3168   19.0547 C   0  0  0  0  0  0  0  0  0  0  0  0
    3.8826    1.8416   19.1709 H   0  0  0  0  0  0  0  0  0  0  0  0
  1  2  1  0
  2  3  2  0
  3  4  1  0
  4  5  1  0
  4  6  2  0
  6  7  1  0
  7  8  1  0
  8  9  2  0
  9 10  1  0
 10 11  1  0
 11 12  1  0
 11 13  2  0
 13 14  1  0
 13 15  1  0
 15 16  1  0
 16 17  1  0
 17 18  1  0
 17 19  1  0
 17 20  1  0
 20 21  1  0
 20 22  1  0
 20 23  1  0
 23 24  1  0
 23 25  1  0
 23 26  1  0
 26 27  2  0
 27 28  1  0
 27 29  1  0
 29 30  1  0
 29 31  2  0
 31 32  1  0
 31 33  1  0
 33 34  1  0
 33 35  2  0
 35 36  1  0
  6 37  1  0
 37 38  1  0
 37 39  2  0
 39 40  1  0
 39  2  1  0
 16  7  2  0
 35 26  1  0
 15  9  1  0
M  END
>  <cnnaffinity>  (1) 
-5.74031

>  <filename>  (1) 
c1ccc(CCCc2c(-c3cccnc3)nc3sccn23)cc1

$$$$
