
     RDKit          3D

 32 35  0  0  0  0  0  0  0  0999 V2000
    4.9446    1.8034   16.9668 H   0  0  0  0  0  0  0  0  0  0  0  0
    5.4177    1.3075   17.8134 C   0  0  0  0  0  0  0  0  0  0  0  0
    6.5932    0.7090   17.5670 N   0  0  0  0  0  0  0  0  0  0  0  0
    7.2034    0.1031   18.5886 C   0  0  0  0  0  0  0  0  0  0  0  0
    8.1583   -0.3692   18.3673 H   0  0  0  0  0  0  0  0  0  0  0  0
    6.6632    0.0223   19.8813 C   0  0  0  0  0  0  0  0  0  0  0  0
    7.3911   -0.7195   20.9052 C   0  0  0  0  0  0  0  0  0  0  0  0
    8.7451   -0.5467   21.1018 N   0  0  0  0  0  0  0  0  0  0  0  0
    9.0135   -1.3220   22.1205 C   0  0  0  0  0  0  0  0  0  0  0  0
   10.4161   -1.6996   23.1001 S   0  0  0  0  0  0  0  0  0  0  0  0
    9.4554   -2.8176   24.0670 C   0  0  0  0  0  0  0  0  0  0  0  0
    9.9136   -3.3627   24.8823 H   0  0  0  0  0  0  0  0  0  0  0  0
    8.1783   -2.8747   23.6647 C   0  0  0  0  0  0  0  0  0  0  0  0
    7.3545   -3.4524   24.0723 H   0  0  0  0  0  0  0  0  0  0  0  0
    7.9401   -2.0484   22.5679 N   0  0  0  0  0  0  0  0  0  0  0  0
    6.8754   -1.6900   21.7642 C   0  0  0  0  0  0  0  0  0  0  0  0
    5.6635   -2.3426   21.8368 N   0  0  0  0  0  0  0  0  0  0  0  0
    4.8360   -1.7796   21.9546 H   0  0  0  0  0  0  0  0  0  0  0  0
    5.4200   -3.6792   22.0840 C   0  0  0  0  0  0  0  0  0  0  0  0
    4.2706   -4.0103   22.7919 C   0  0  0  0  0  0  0  0  0  0  0  0
    3.7285   -3.2438   23.3300 H   0  0  0  0  0  0  0  0  0  0  0  0
    3.9621   -5.3567   22.9159 C   0  0  0  0  0  0  0  0  0  0  0  0
    3.0280   -5.6681   23.3882 H   0  0  0  0  0  0  0  0  0  0  0  0
    4.7472   -6.3422   22.4614 N   0  0  0  0  0  0  0  0  0  0  0  0
    5.8776   -5.9970   21.8298 C   0  0  0  0  0  0  0  0  0  0  0  0
    6.4957   -6.8175   21.4730 H   0  0  0  0  0  0  0  0  0  0  0  0
    6.2640   -4.6806   21.6144 C   0  0  0  0  0  0  0  0  0  0  0  0
    7.1843   -4.4183   21.1073 H   0  0  0  0  0  0  0  0  0  0  0  0
    5.4316    0.6518   20.1269 C   0  0  0  0  0  0  0  0  0  0  0  0
    4.9927    0.6458   21.1280 H   0  0  0  0  0  0  0  0  0  0  0  0
    4.8061    1.3132   19.0720 C   0  0  0  0  0  0  0  0  0  0  0  0
    3.8697    1.8397   19.2109 H   0  0  0  0  0  0  0  0  0  0  0  0
  1  2  1  0
  2  3  2  0
  3  4  1  0
  4  5  1  0
  4  6  2  0
  6  7  1  0
  7  8  1  0
  8  9  2  0
  9 10  1  0
 10 11  1  0
 11 12  1  0
 11 13  2  0
 13 14  1  0
 13 15  1  0
 15 16  1  0
 16 17  1  0
 17 18  1  0
 17 19  1  0
 19 20  2  0
 20 21  1  0
 20 22  1  0
 22 23  1  0
 22 24  2  0
 24 25  1  0
 25 26  1  0
 25 27  2  0
 27 28  1  0
  6 29  1  0
 29 30  1  0
 29 31  2  0
 31 32  1  0
 31  2  1  0
 16  7  2  0
 27 19  1  0
 15  9  1  0
M  END
>  <cnnaffinity>  (1) 
-5.9028

>  <filename>  (1) 
c1cncc(-c2nc3sccn3c2Nc2ccncc2)c1

$$$$
