
     RDKit          3D

 39 43  0  0  0  0  0  0  0  0999 V2000
    4.9451    1.8176   16.9783 H   0  0  0  0  0  0  0  0  0  0  0  0
    5.4034    1.2933   17.8153 C   0  0  0  0  0  0  0  0  0  0  0  0
    6.5647    0.6702   17.5604 N   0  0  0  0  0  0  0  0  0  0  0  0
    7.1522    0.0178   18.5668 C   0  0  0  0  0  0  0  0  0  0  0  0
    8.1084   -0.4503   18.3343 H   0  0  0  0  0  0  0  0  0  0  0  0
    6.6196   -0.0469   19.8663 C   0  0  0  0  0  0  0  0  0  0  0  0
    7.3552   -0.7134   20.9435 C   0  0  0  0  0  0  0  0  0  0  0  0
    8.0838   -1.8059   20.7236 N   0  0  0  0  0  0  0  0  0  0  0  0
    8.5614   -2.1058   21.9314 N   0  0  0  0  0  0  0  0  0  0  0  0
    8.2270   -1.2737   22.9100 C   0  0  0  0  0  0  0  0  0  0  0  0
    7.4469   -0.3043   22.3128 C   0  0  0  0  0  0  0  0  0  0  0  0
    7.0954    0.9495   22.9573 C   0  0  0  0  0  0  0  0  0  0  0  0
    6.6138    0.9141   24.2865 C   0  0  0  0  0  0  0  0  0  0  0  0
    6.4972   -0.0573   24.7580 H   0  0  0  0  0  0  0  0  0  0  0  0
    6.2873    2.0781   24.9607 C   0  0  0  0  0  0  0  0  0  0  0  0
    5.9083    2.0242   25.9755 H   0  0  0  0  0  0  0  0  0  0  0  0
    6.4638    3.3213   24.3053 C   0  0  0  0  0  0  0  0  0  0  0  0
    6.2371    4.6960   24.6627 C   0  0  0  0  0  0  0  0  0  0  0  0
    5.8506    5.0610   25.6049 H   0  0  0  0  0  0  0  0  0  0  0  0
    6.6040    5.4507   23.5831 C   0  0  0  0  0  0  0  0  0  0  0  0
    6.5863    6.5199   23.4356 H   0  0  0  0  0  0  0  0  0  0  0  0
    7.0533    4.6328   22.5706 N   0  0  0  0  0  0  0  0  0  0  0  0
    7.3598    4.9178   21.6541 H   0  0  0  0  0  0  0  0  0  0  0  0
    6.9735    3.3298   22.9810 C   0  0  0  0  0  0  0  0  0  0  0  0
    7.2998    2.1596   22.3029 C   0  0  0  0  0  0  0  0  0  0  0  0
    7.6923    2.1493   21.2933 H   0  0  0  0  0  0  0  0  0  0  0  0
    9.0756   -1.5042   24.1373 C   0  0  0  0  0  0  0  0  0  0  0  0
    8.4773   -1.6986   25.0336 H   0  0  0  0  0  0  0  0  0  0  0  0
    9.6686   -0.6042   24.3365 H   0  0  0  0  0  0  0  0  0  0  0  0
    9.9552   -2.7179   23.7210 C   0  0  0  0  0  0  0  0  0  0  0  0
   11.0149   -2.4852   23.7770 H   0  0  0  0  0  0  0  0  0  0  0  0
    9.7748   -3.5883   24.3511 H   0  0  0  0  0  0  0  0  0  0  0  0
    9.5849   -3.0579   22.2526 C   0  0  0  0  0  0  0  0  0  0  0  0
    9.1723   -4.0648   22.1525 H   0  0  0  0  0  0  0  0  0  0  0  0
   10.4193   -2.8941   21.5657 H   0  0  0  0  0  0  0  0  0  0  0  0
    5.4067    0.6130   20.1164 C   0  0  0  0  0  0  0  0  0  0  0  0
    4.9875    0.6359   21.1238 H   0  0  0  0  0  0  0  0  0  0  0  0
    4.7889    1.2928   19.0720 C   0  0  0  0  0  0  0  0  0  0  0  0
    3.8661    1.8426   19.2267 H   0  0  0  0  0  0  0  0  0  0  0  0
  1  2  1  0
  2  3  2  0
  3  4  1  0
  4  5  1  0
  4  6  2  0
  6  7  1  0
  7  8  2  0
  8  9  1  0
  9 10  1  0
 10 11  2  0
 11 12  1  0
 12 13  2  0
 13 14  1  0
 13 15  1  0
 15 16  1  0
 15 17  2  0
 17 18  1  0
 18 19  1  0
 18 20  2  0
 20 21  1  0
 20 22  1  0
 22 23  1  0
 22 24  1  0
 24 25  2  0
 25 26  1  0
 10 27  1  0
 27 28  1  0
 27 29  1  0
 27 30  1  0
 30 31  1  0
 30 32  1  0
 30 33  1  0
 33 34  1  0
 33 35  1  0
  6 36  1  0
 36 37  1  0
 36 38  2  0
 38 39  1  0
 38  2  1  0
 11  7  1  0
 25 12  1  0
 33  9  1  0
 24 17  1  0
M  END
>  <cnnaffinity>  (1) 
-5.72517

>  <filename>  (1) 
c1cncc(-c2nn3c(c2-c2ccc4cc[nH]c4c2)CCC3)c1

$$$$
