
     RDKit          3D

 29 32  0  0  0  0  0  0  0  0999 V2000
    4.9224    1.7718   17.0042 H   0  0  0  0  0  0  0  0  0  0  0  0
    5.4092    1.2858   17.8473 C   0  0  0  0  0  0  0  0  0  0  0  0
    6.5744    0.6691   17.5953 N   0  0  0  0  0  0  0  0  0  0  0  0
    7.1817    0.0537   18.6147 C   0  0  0  0  0  0  0  0  0  0  0  0
    8.1272   -0.4334   18.3842 H   0  0  0  0  0  0  0  0  0  0  0  0
    6.6478    0.0153   19.9101 C   0  0  0  0  0  0  0  0  0  0  0  0
    7.3629   -0.6892   20.9672 C   0  0  0  0  0  0  0  0  0  0  0  0
    8.5476   -1.3273   20.7582 N   0  0  0  0  0  0  0  0  0  0  0  0
    8.7977   -1.8158   21.9570 C   0  0  0  0  0  0  0  0  0  0  0  0
    9.9892   -2.8184   22.7290 S   0  0  0  0  0  0  0  0  0  0  0  0
    9.0728   -2.7671   24.2076 C   0  0  0  0  0  0  0  0  0  0  0  0
    9.4576   -3.2863   25.0758 H   0  0  0  0  0  0  0  0  0  0  0  0
    7.9537   -2.0194   24.1220 C   0  0  0  0  0  0  0  0  0  0  0  0
    6.9696   -1.7493   25.1935 C   0  0  0  0  0  0  0  0  0  0  0  0
    6.7488   -2.7055   26.2065 C   0  0  0  0  0  0  0  0  0  0  0  0
    7.2905   -3.6490   26.1893 H   0  0  0  0  0  0  0  0  0  0  0  0
    5.8833   -2.5524   27.2156 N   0  0  0  0  0  0  0  0  0  0  0  0
    5.1906   -1.4066   27.2556 C   0  0  0  0  0  0  0  0  0  0  0  0
    4.4917   -1.2918   28.0778 H   0  0  0  0  0  0  0  0  0  0  0  0
    5.3320   -0.3869   26.3090 C   0  0  0  0  0  0  0  0  0  0  0  0
    4.7465    0.5210   26.3872 H   0  0  0  0  0  0  0  0  0  0  0  0
    6.2334   -0.5537   25.2631 C   0  0  0  0  0  0  0  0  0  0  0  0
    6.3704    0.2155   24.5034 H   0  0  0  0  0  0  0  0  0  0  0  0
    7.8319   -1.4806   22.8350 N   0  0  0  0  0  0  0  0  0  0  0  0
    6.8805   -0.7497   22.2047 N   0  0  0  0  0  0  0  0  0  0  0  0
    5.4279    0.6580   20.1667 C   0  0  0  0  0  0  0  0  0  0  0  0
    5.0008    0.6328   21.1737 H   0  0  0  0  0  0  0  0  0  0  0  0
    4.8046    1.3103   19.1100 C   0  0  0  0  0  0  0  0  0  0  0  0
    3.8739    1.8434   19.2608 H   0  0  0  0  0  0  0  0  0  0  0  0
  1  2  1  0
  2  3  2  0
  3  4  1  0
  4  5  1  0
  4  6  2  0
  6  7  1  0
  7  8  1  0
  8  9  2  0
  9 10  1  0
 10 11  1  0
 11 12  1  0
 11 13  2  0
 13 14  1  0
 14 15  2  0
 15 16  1  0
 15 17  1  0
 17 18  2  0
 18 19  1  0
 18 20  1  0
 20 21  1  0
 20 22  2  0
 22 23  1  0
 13 24  1  0
 24 25  1  0
  6 26  1  0
 26 27  1  0
 26 28  2  0
 28 29  1  0
 28  2  1  0
 25  7  2  0
 24  9  1  0
 22 14  1  0
M  END
>  <cnnaffinity>  (1) 
-5.46543

>  <filename>  (1) 
c1cncc(-c2nc3scc(-c4cccnc4)n3n2)c1

$$$$
