
     RDKit          3D

 36 39  0  0  0  0  0  0  0  0999 V2000
    4.9589    1.8092   16.9957 H   0  0  0  0  0  0  0  0  0  0  0  0
    5.4128    1.2843   17.8338 C   0  0  0  0  0  0  0  0  0  0  0  0
    6.5576    0.6249   17.5892 N   0  0  0  0  0  0  0  0  0  0  0  0
    7.1389   -0.0084   18.6116 C   0  0  0  0  0  0  0  0  0  0  0  0
    8.0670   -0.5350   18.3889 H   0  0  0  0  0  0  0  0  0  0  0  0
    6.6411    0.0148   19.9249 C   0  0  0  0  0  0  0  0  0  0  0  0
    7.4014   -0.6475   20.9867 C   0  0  0  0  0  0  0  0  0  0  0  0
    8.0050   -1.8718   20.7879 N   0  0  0  0  0  0  0  0  0  0  0  0
    8.5164   -2.1644   21.9548 C   0  0  0  0  0  0  0  0  0  0  0  0
    9.2976   -3.5359   22.7201 S   0  0  0  0  0  0  0  0  0  0  0  0
    9.5715   -2.5860   24.1681 C   0  0  0  0  0  0  0  0  0  0  0  0
   10.2099   -2.9738   24.9490 H   0  0  0  0  0  0  0  0  0  0  0  0
    8.9942   -1.3757   24.0986 C   0  0  0  0  0  0  0  0  0  0  0  0
    8.9686   -0.6021   24.8552 H   0  0  0  0  0  0  0  0  0  0  0  0
    8.3807   -1.1557   22.8721 N   0  0  0  0  0  0  0  0  0  0  0  0
    7.6429   -0.1686   22.2572 C   0  0  0  0  0  0  0  0  0  0  0  0
    7.2320    1.1097   22.8873 C   0  0  0  0  0  0  0  0  0  0  0  0
    8.0350    1.4643   23.5672 H   0  0  0  0  0  0  0  0  0  0  0  0
    7.1540    1.8584   22.0869 H   0  0  0  0  0  0  0  0  0  0  0  0
    5.9426    1.0160   23.5679 N   0  0  0  0  0  0  0  0  0  0  0  0
    5.9697    0.1954   24.7737 C   0  0  0  0  0  0  0  0  0  0  0  0
    6.8660    0.3838   25.3953 H   0  0  0  0  0  0  0  0  0  0  0  0
    5.9594   -0.8643   24.5033 H   0  0  0  0  0  0  0  0  0  0  0  0
    4.7201    0.6170   25.5561 C   0  0  0  0  0  0  0  0  0  0  0  0
    3.9007   -0.0740   25.3528 H   0  0  0  0  0  0  0  0  0  0  0  0
    4.9132    0.6041   26.6321 H   0  0  0  0  0  0  0  0  0  0  0  0
    4.3761    2.0282   25.0445 C   0  0  0  0  0  0  0  0  0  0  0  0
    4.4587    2.7837   25.8297 H   0  0  0  0  0  0  0  0  0  0  0  0
    3.3574    2.0614   24.6565 H   0  0  0  0  0  0  0  0  0  0  0  0
    5.3913    2.3124   23.9299 C   0  0  0  0  0  0  0  0  0  0  0  0
    4.9289    2.7692   23.0480 H   0  0  0  0  0  0  0  0  0  0  0  0
    6.1701    3.0030   24.3014 H   0  0  0  0  0  0  0  0  0  0  0  0
    5.4309    0.6964   20.1584 C   0  0  0  0  0  0  0  0  0  0  0  0
    5.0023    0.7359   21.1630 H   0  0  0  0  0  0  0  0  0  0  0  0
    4.7994    1.3238   19.0896 C   0  0  0  0  0  0  0  0  0  0  0  0
    3.8619    1.8539   19.2163 H   0  0  0  0  0  0  0  0  0  0  0  0
  1  2  1  0
  2  3  2  0
  3  4  1  0
  4  5  1  0
  4  6  2  0
  6  7  1  0
  7  8  1  0
  8  9  2  0
  9 10  1  0
 10 11  1  0
 11 12  1  0
 11 13  2  0
 13 14  1  0
 13 15  1  0
 15 16  1  0
 16 17  1  0
 17 18  1  0
 17 19  1  0
 17 20  1  0
 20 21  1  0
 21 22  1  0
 21 23  1  0
 21 24  1  0
 24 25  1  0
 24 26  1  0
 24 27  1  0
 27 28  1  0
 27 29  1  0
 27 30  1  0
 30 31  1  0
 30 32  1  0
  6 33  1  0
 33 34  1  0
 33 35  2  0
 35 36  1  0
 35  2  1  0
 16  7  2  0
 30 20  1  0
 15  9  1  0
M  END
>  <cnnaffinity>  (1) 
-5.51275

>  <filename>  (1) 
c1cncc(-c2nc3sccn3c2CN2CCCC2)c1

$$$$
