
     RDKit          3D

 40 44  0  0  0  0  0  0  0  0999 V2000
    4.9585    1.8368   16.9450 H   0  0  0  0  0  0  0  0  0  0  0  0
    5.3848    1.3079   17.7925 C   0  0  0  0  0  0  0  0  0  0  0  0
    6.5440    0.6648   17.5808 N   0  0  0  0  0  0  0  0  0  0  0  0
    7.0977    0.0317   18.6251 C   0  0  0  0  0  0  0  0  0  0  0  0
    8.0515   -0.4538   18.4108 H   0  0  0  0  0  0  0  0  0  0  0  0
    6.5169   -0.0346   19.9111 C   0  0  0  0  0  0  0  0  0  0  0  0
    7.2516   -0.6899   21.0159 C   0  0  0  0  0  0  0  0  0  0  0  0
    8.6043   -0.6476   21.2473 C   0  0  0  0  0  0  0  0  0  0  0  0
    8.8009   -1.1566   22.5271 C   0  0  0  0  0  0  0  0  0  0  0  0
    7.6884   -1.6161   23.0643 N   0  0  0  0  0  0  0  0  0  0  0  0
    6.7427   -1.3076   22.1310 N   0  0  0  0  0  0  0  0  0  0  0  0
    5.7730   -1.4563   22.3789 H   0  0  0  0  0  0  0  0  0  0  0  0
   10.2018   -0.9184   23.0181 C   0  0  0  0  0  0  0  0  0  0  0  0
   10.2405   -0.4635   24.0125 H   0  0  0  0  0  0  0  0  0  0  0  0
   10.7424   -1.8664   23.0824 H   0  0  0  0  0  0  0  0  0  0  0  0
   10.8201    0.0235   21.9183 C   0  0  2  0  0  0  0  0  0  0  0  0
   11.7659   -0.4167   21.5836 H   0  0  0  0  0  0  0  0  0  0  0  0
   11.1400    1.4222   22.4275 C   0  0  0  0  0  0  0  0  0  0  0  0
   12.4424    1.8964   22.4569 C   0  0  0  0  0  0  0  0  0  0  0  0
   13.2491    1.2591   22.0942 H   0  0  0  0  0  0  0  0  0  0  0  0
   12.7581    3.1867   22.9516 C   0  0  0  0  0  0  0  0  0  0  0  0
   13.7997    3.5039   22.9517 H   0  0  0  0  0  0  0  0  0  0  0  0
   11.7754    4.0282   23.4237 C   0  0  0  0  0  0  0  0  0  0  0  0
   12.0204    5.0211   23.8011 H   0  0  0  0  0  0  0  0  0  0  0  0
   10.4150    3.5957   23.4127 C   0  0  0  0  0  0  0  0  0  0  0  0
    9.3282    4.4019   23.8797 C   0  0  0  0  0  0  0  0  0  0  0  0
    9.5295    5.4007   24.2645 H   0  0  0  0  0  0  0  0  0  0  0  0
    8.0507    3.8991   23.8273 C   0  0  0  0  0  0  0  0  0  0  0  0
    7.1967    4.4758   24.1668 H   0  0  0  0  0  0  0  0  0  0  0  0
    7.8443    2.5937   23.3108 C   0  0  0  0  0  0  0  0  0  0  0  0
    6.8329    2.1871   23.2634 H   0  0  0  0  0  0  0  0  0  0  0  0
    8.8070    1.8223   22.8792 N   0  0  0  0  0  0  0  0  0  0  0  0
   10.0979    2.2891   22.9100 C   0  0  0  0  0  0  0  0  0  0  0  0
    9.8267    0.0062   20.7077 C   0  0  0  0  0  0  0  0  0  0  0  0
    9.6414    1.0071   20.2974 H   0  0  0  0  0  0  0  0  0  0  0  0
   10.2407   -0.5961   19.8980 H   0  0  0  0  0  0  0  0  0  0  0  0
    5.3046    0.6541   20.1008 C   0  0  0  0  0  0  0  0  0  0  0  0
    4.8562    0.7004   21.0926 H   0  0  0  0  0  0  0  0  0  0  0  0
    4.7301    1.3317   19.0285 C   0  0  0  0  0  0  0  0  0  0  0  0
    3.8143    1.9026   19.1502 H   0  0  0  0  0  0  0  0  0  0  0  0
  1  2  1  0
  2  3  2  0
  3  4  1  0
  4  5  1  0
  4  6  2  0
  6  7  1  0
  7  8  2  0
  8  9  1  0
  9 10  2  0
 10 11  1  0
 11 12  1  0
  9 13  1  0
 13 14  1  0
 13 15  1  0
 13 16  1  0
 16 17  1  6
 16 18  1  0
 18 19  2  0
 19 20  1  0
 19 21  1  0
 21 22  1  0
 21 23  2  0
 23 24  1  0
 23 25  1  0
 25 26  2  0
 26 27  1  0
 26 28  1  0
 28 29  1  0
 28 30  2  0
 30 31  1  0
 30 32  1  0
 32 33  2  0
 16 34  1  0
 34 35  1  0
 34 36  1  0
  6 37  1  0
 37 38  1  0
 37 39  2  0
 39 40  1  0
 39  2  1  0
 11  7  1  0
 33 18  1  0
 34  8  1  0
 33 25  1  0
M  END
>  <cnnaffinity>  (1) 
-6.04943

>  <filename>  (1) 
c1cncc(-c2[nH]nc3c2C[C@@H](c2cccc4cccnc24)C3)c1

$$$$
