
     RDKit          3D

 32 35  0  0  0  0  0  0  0  0999 V2000
    8.6217   -1.9210   19.9778 H   0  0  0  0  0  0  0  0  0  0  0  0
    8.2763   -1.5816   20.9462 C   0  0  0  0  0  0  0  0  0  0  0  0
    8.7774   -2.2159   21.9977 N   0  0  0  0  0  0  0  0  0  0  0  0
    8.4793   -1.7605   23.2274 N   0  0  0  0  0  0  0  0  0  0  0  0
    7.7163   -0.6618   23.3685 C   0  0  0  0  0  0  0  0  0  0  0  0
    7.4529   -0.1093   24.7264 C   0  0  0  0  0  0  0  0  0  0  0  0
    6.4066    0.8115   24.9077 C   0  0  0  0  0  0  0  0  0  0  0  0
    5.7826    1.0757   24.0551 H   0  0  0  0  0  0  0  0  0  0  0  0
    6.1488    1.3858   26.1640 C   0  0  0  0  0  0  0  0  0  0  0  0
    5.3218    2.0865   26.2632 H   0  0  0  0  0  0  0  0  0  0  0  0
    6.9245    1.0677   27.2764 C   0  0  0  0  0  0  0  0  0  0  0  0
    6.7422    1.5439   28.2345 H   0  0  0  0  0  0  0  0  0  0  0  0
    7.9548    0.1273   27.1150 C   0  0  0  0  0  0  0  0  0  0  0  0
    8.2253   -0.4914   25.8636 C   0  0  0  0  0  0  0  0  0  0  0  0
    9.2951   -1.4320   26.0978 C   0  0  0  0  0  0  0  0  0  0  0  0
    9.7349   -2.0806   25.3493 H   0  0  0  0  0  0  0  0  0  0  0  0
    9.6362   -1.3286   27.4112 C   0  0  0  0  0  0  0  0  0  0  0  0
   10.3891   -1.8526   27.9783 H   0  0  0  0  0  0  0  0  0  0  0  0
    8.8266   -0.4080   28.0368 N   0  0  0  0  0  0  0  0  0  0  0  0
    8.9998   -0.0377   28.9626 H   0  0  0  0  0  0  0  0  0  0  0  0
    7.1218   -0.0318   22.3266 N   0  0  0  0  0  0  0  0  0  0  0  0
    7.3591   -0.5021   21.1075 C   0  0  0  0  0  0  0  0  0  0  0  0
    6.6185    0.1343   19.9820 C   0  0  0  0  0  0  0  0  0  0  0  0
    7.1685    0.1443   18.6926 C   0  0  0  0  0  0  0  0  0  0  0  0
    8.1290   -0.3295   18.5034 H   0  0  0  0  0  0  0  0  0  0  0  0
    6.5968    0.7096   17.6270 N   0  0  0  0  0  0  0  0  0  0  0  0
    5.4104    1.3071   17.8044 C   0  0  0  0  0  0  0  0  0  0  0  0
    4.9641    1.7589   16.9188 H   0  0  0  0  0  0  0  0  0  0  0  0
    4.7591    1.3512   19.0412 C   0  0  0  0  0  0  0  0  0  0  0  0
    3.8032    1.8570   19.1188 H   0  0  0  0  0  0  0  0  0  0  0  0
    5.3706    0.7648   20.1496 C   0  0  0  0  0  0  0  0  0  0  0  0
    4.8952    0.8009   21.1317 H   0  0  0  0  0  0  0  0  0  0  0  0
  1  2  1  0
  2  3  2  0
  3  4  1  0
  4  5  2  0
  5  6  1  0
  6  7  2  0
  7  8  1  0
  7  9  1  0
  9 10  1  0
  9 11  2  0
 11 12  1  0
 11 13  1  0
 13 14  2  0
 14 15  1  0
 15 16  1  0
 15 17  2  0
 17 18  1  0
 17 19  1  0
 19 20  1  0
  5 21  1  0
 21 22  2  0
 22 23  1  0
 23 24  2  0
 24 25  1  0
 24 26  1  0
 26 27  2  0
 27 28  1  0
 27 29  1  0
 29 30  1  0
 29 31  2  0
 31 32  1  0
 22  2  1  0
 31 23  1  0
 14  6  1  0
 19 13  1  0
M  END
>  <cnnaffinity>  (1) 
-5.0236

>  <filename>  (1) 
c1cncc(-c2cnnc(-c3cccc4[nH]ccc34)n2)c1

$$$$
