
     RDKit          3D

 34 37  0  0  0  0  0  0  0  0999 V2000
    4.9316    1.8293   16.9771 H   0  0  0  0  0  0  0  0  0  0  0  0
    5.4053    1.3086   17.8074 C   0  0  0  0  0  0  0  0  0  0  0  0
    6.5634    0.6837   17.5394 N   0  0  0  0  0  0  0  0  0  0  0  0
    7.1732    0.0367   18.5485 C   0  0  0  0  0  0  0  0  0  0  0  0
    8.0867   -0.4997   18.2910 H   0  0  0  0  0  0  0  0  0  0  0  0
    6.6739   -0.0223   19.8787 C   0  0  0  0  0  0  0  0  0  0  0  0
    7.3129   -0.6825   20.9511 N   0  0  0  0  0  0  0  0  0  0  0  0
    6.7290   -1.2639   21.5408 H   0  0  0  0  0  0  0  0  0  0  0  0
    8.6660   -0.5973   21.3056 C   0  0  0  0  0  0  0  0  0  0  0  0
    9.6665    0.2418   20.7539 C   0  0  0  0  0  0  0  0  0  0  0  0
    9.5087    1.0113   20.0174 H   0  0  0  0  0  0  0  0  0  0  0  0
   10.8718   -0.0097   21.2476 N   0  0  0  0  0  0  0  0  0  0  0  0
   10.6543   -1.0013   22.1226 N   0  0  0  0  0  0  0  0  0  0  0  0
   11.4461   -1.3892   22.6156 H   0  0  0  0  0  0  0  0  0  0  0  0
    9.3431   -1.3683   22.2480 C   0  0  0  0  0  0  0  0  0  0  0  0
    8.8941   -2.4139   23.1857 C   0  0  0  0  0  0  0  0  0  0  0  0
    9.7105   -3.5627   23.3888 C   0  0  0  0  0  0  0  0  0  0  0  0
   10.6807   -3.5907   22.9011 H   0  0  0  0  0  0  0  0  0  0  0  0
    9.2913   -4.6368   24.1583 C   0  0  0  0  0  0  0  0  0  0  0  0
    9.9419   -5.4847   24.3423 H   0  0  0  0  0  0  0  0  0  0  0  0
    8.0257   -4.5368   24.7728 C   0  0  0  0  0  0  0  0  0  0  0  0
    7.2513   -3.3516   24.7061 C   0  0  0  0  0  0  0  0  0  0  0  0
    7.6891   -2.2963   23.8870 C   0  0  0  0  0  0  0  0  0  0  0  0
    7.1110   -1.3794   23.8193 H   0  0  0  0  0  0  0  0  0  0  0  0
    6.1220   -3.5401   25.5760 C   0  0  0  0  0  0  0  0  0  0  0  0
    5.3663   -2.8017   25.8227 H   0  0  0  0  0  0  0  0  0  0  0  0
    6.2211   -4.7995   26.0822 C   0  0  0  0  0  0  0  0  0  0  0  0
    5.5494   -5.3122   26.7583 H   0  0  0  0  0  0  0  0  0  0  0  0
    7.3594   -5.4144   25.5897 N   0  0  0  0  0  0  0  0  0  0  0  0
    7.6623   -6.3556   25.7691 H   0  0  0  0  0  0  0  0  0  0  0  0
    5.4431    0.6065   20.1150 C   0  0  0  0  0  0  0  0  0  0  0  0
    5.0108    0.5636   21.1136 H   0  0  0  0  0  0  0  0  0  0  0  0
    4.8069    1.2891   19.0718 C   0  0  0  0  0  0  0  0  0  0  0  0
    3.8637    1.8023   19.2303 H   0  0  0  0  0  0  0  0  0  0  0  0
  1  2  1  0
  2  3  2  0
  3  4  1  0
  4  5  1  0
  4  6  2  0
  6  7  1  0
  7  8  1  0
  7  9  1  0
  9 10  1  0
 10 11  1  0
 10 12  2  0
 12 13  1  0
 13 14  1  0
 13 15  1  0
 15 16  1  0
 16 17  2  0
 17 18  1  0
 17 19  1  0
 19 20  1  0
 19 21  2  0
 21 22  1  0
 22 23  2  0
 23 24  1  0
 22 25  1  0
 25 26  1  0
 25 27  2  0
 27 28  1  0
 27 29  1  0
 29 30  1  0
  6 31  1  0
 31 32  1  0
 31 33  2  0
 33 34  1  0
 33  2  1  0
 15  9  2  0
 23 16  1  0
 29 21  1  0
M  END
>  <cnnaffinity>  (1) 
-5.69289

>  <filename>  (1) 
c1cncc(Nc2cn[nH]c2-c2ccc3[nH]ccc3c2)c1

$$$$
