
     RDKit          3D

 42 46  0  0  0  0  0  0  0  0999 V2000
    4.9447    1.8162   16.9828 H   0  0  0  0  0  0  0  0  0  0  0  0
    5.3978    1.2935   17.8257 C   0  0  0  0  0  0  0  0  0  0  0  0
    6.5452    0.6484   17.5655 N   0  0  0  0  0  0  0  0  0  0  0  0
    7.1391    0.0134   18.5804 C   0  0  0  0  0  0  0  0  0  0  0  0
    8.0804   -0.4825   18.3533 H   0  0  0  0  0  0  0  0  0  0  0  0
    6.6417   -0.0036   19.8911 C   0  0  0  0  0  0  0  0  0  0  0  0
    7.4297   -0.6601   20.9333 C   0  0  0  0  0  0  0  0  0  0  0  0
    7.8255   -1.9736   20.8332 N   0  0  0  0  0  0  0  0  0  0  0  0
    8.4482   -2.1880   21.9580 C   0  0  0  0  0  0  0  0  0  0  0  0
    8.5845   -1.0794   22.7286 N   0  0  0  0  0  0  0  0  0  0  0  0
    7.9017   -0.0731   22.0972 C   0  0  0  0  0  0  0  0  0  0  0  0
    7.7567    1.3147   22.6314 C   0  0  0  0  0  0  0  0  0  0  0  0
    8.6047    1.5306   23.2946 H   0  0  0  0  0  0  0  0  0  0  0  0
    7.8324    2.0170   21.7953 H   0  0  0  0  0  0  0  0  0  0  0  0
    6.4485    1.5838   23.3707 C   0  0  0  0  0  0  0  0  0  0  0  0
    5.6185    2.6711   22.9731 C   0  0  0  0  0  0  0  0  0  0  0  0
    5.9216    3.2618   22.1108 H   0  0  0  0  0  0  0  0  0  0  0  0
    4.4362    2.9486   23.6211 C   0  0  0  0  0  0  0  0  0  0  0  0
    3.8192    3.7831   23.3032 H   0  0  0  0  0  0  0  0  0  0  0  0
    4.0071    2.1447   24.7223 C   0  0  0  0  0  0  0  0  0  0  0  0
    2.7932    2.3986   25.4313 C   0  0  0  0  0  0  0  0  0  0  0  0
    2.1759    3.2371   25.1208 H   0  0  0  0  0  0  0  0  0  0  0  0
    2.4186    1.6070   26.4934 C   0  0  0  0  0  0  0  0  0  0  0  0
    1.4987    1.8097   27.0345 H   0  0  0  0  0  0  0  0  0  0  0  0
    3.2360    0.5156   26.9002 C   0  0  0  0  0  0  0  0  0  0  0  0
    2.9276   -0.0969   27.7442 H   0  0  0  0  0  0  0  0  0  0  0  0
    4.4088    0.2440   26.2331 C   0  0  0  0  0  0  0  0  0  0  0  0
    5.0379   -0.5867   26.5401 H   0  0  0  0  0  0  0  0  0  0  0  0
    4.8293    1.0484   25.1307 C   0  0  0  0  0  0  0  0  0  0  0  0
    6.0478    0.7948   24.4271 C   0  0  0  0  0  0  0  0  0  0  0  0
    6.6499   -0.0537   24.7339 H   0  0  0  0  0  0  0  0  0  0  0  0
    9.4075   -1.1569   23.9176 C   0  0  0  0  0  0  0  0  0  0  0  0
    8.7887   -1.1466   24.8196 H   0  0  0  0  0  0  0  0  0  0  0  0
   10.0666   -0.2833   23.9597 H   0  0  0  0  0  0  0  0  0  0  0  0
   10.1826   -2.4812   23.7697 C   0  0  0  0  0  0  0  0  0  0  0  0
   11.1303   -2.3172   23.2515 H   0  0  0  0  0  0  0  0  0  0  0  0
   10.3802   -2.9714   24.7233 H   0  0  0  0  0  0  0  0  0  0  0  0
    9.1489   -3.5986   22.7280 S   0  0  0  0  0  0  0  0  0  0  0  0
    5.4321    0.6641   20.1433 C   0  0  0  0  0  0  0  0  0  0  0  0
    5.0018    0.6742   21.1462 H   0  0  0  0  0  0  0  0  0  0  0  0
    4.7918    1.3193   19.0884 C   0  0  0  0  0  0  0  0  0  0  0  0
    3.8574    1.8603   19.2249 H   0  0  0  0  0  0  0  0  0  0  0  0
  1  2  1  0
  2  3  2  0
  3  4  1  0
  4  5  1  0
  4  6  2  0
  6  7  1  0
  7  8  1  0
  8  9  2  0
  9 10  1  0
 10 11  1  0
 11 12  1  0
 12 13  1  0
 12 14  1  0
 12 15  1  0
 15 16  2  0
 16 17  1  0
 16 18  1  0
 18 19  1  0
 18 20  2  0
 20 21  1  0
 21 22  1  0
 21 23  2  0
 23 24  1  0
 23 25  1  0
 25 26  1  0
 25 27  2  0
 27 28  1  0
 27 29  1  0
 29 30  2  0
 30 31  1  0
 10 32  1  0
 32 33  1  0
 32 34  1  0
 32 35  1  0
 35 36  1  0
 35 37  1  0
 35 38  1  0
  6 39  1  0
 39 40  1  0
 39 41  2  0
 41 42  1  0
 41  2  1  0
 11  7  2  0
 30 15  1  0
 38  9  1  0
 29 20  1  0
M  END
>  <cnnaffinity>  (1) 
-5.58613

>  <filename>  (1) 
c1cncc(-c2nc3n(c2Cc2ccc4ccccc4c2)CCS3)c1

$$$$
