
     RDKit          3D

 32 33  0  0  0  0  0  0  0  0999 V2000
    5.1271    1.9549   16.7622 H   0  0  0  0  0  0  0  0  0  0  0  0
    5.4137    1.3842   17.6424 C   0  0  0  0  0  0  0  0  0  0  0  0
    6.5148    0.6207   17.5190 N   0  0  0  0  0  0  0  0  0  0  0  0
    6.8973   -0.0799   18.5925 C   0  0  0  0  0  0  0  0  0  0  0  0
    7.7707   -0.7280   18.4822 H   0  0  0  0  0  0  0  0  0  0  0  0
    6.2212   -0.0601   19.8152 C   0  0  0  0  0  0  0  0  0  0  0  0
    6.9405   -0.9510   21.2122 S   0  0  0  0  0  0  0  0  0  0  0  0
    7.8695    0.3273   21.9275 N   0  0  0  0  0  0  0  0  0  0  0  0
    7.2931    1.1753   21.9662 H   0  0  0  0  0  0  0  0  0  0  0  0
    9.2124    0.6683   21.4323 N   0  0  0  0  0  0  0  0  0  0  0  0
    9.3213    0.2418   20.5039 H   0  0  0  0  0  0  0  0  0  0  0  0
   10.2753    0.1089   22.2947 C   0  0  0  0  0  0  0  0  0  0  0  0
    9.9221   -0.8412   22.7381 H   0  0  0  0  0  0  0  0  0  0  0  0
   11.5095   -0.1601   21.4089 C   0  0  0  0  0  0  0  0  0  0  0  0
   11.7336    0.7851   20.8897 H   0  0  0  0  0  0  0  0  0  0  0  0
   11.2541   -0.8997   20.6410 H   0  0  0  0  0  0  0  0  0  0  0  0
   12.7522   -0.6134   22.1953 C   0  0  0  0  0  0  0  0  0  0  0  0
   12.5750   -1.6148   22.6102 H   0  0  0  0  0  0  0  0  0  0  0  0
   13.6201   -0.7211   21.5328 H   0  0  0  0  0  0  0  0  0  0  0  0
   13.0548    0.3828   23.3220 C   0  0  0  0  0  0  0  0  0  0  0  0
   13.9519    0.0992   23.8783 H   0  0  0  0  0  0  0  0  0  0  0  0
   13.2678    1.3588   22.8601 H   0  0  0  0  0  0  0  0  0  0  0  0
   11.8417    0.5539   24.2459 C   0  0  0  0  0  0  0  0  0  0  0  0
   11.5971   -0.4210   24.6954 H   0  0  0  0  0  0  0  0  0  0  0  0
   12.0695    1.2399   25.0683 H   0  0  0  0  0  0  0  0  0  0  0  0
   10.6408    1.0793   23.4377 C   0  0  0  0  0  0  0  0  0  0  0  0
    9.7594    1.2626   24.0658 H   0  0  0  0  0  0  0  0  0  0  0  0
   10.9085    2.0465   22.9819 H   0  0  0  0  0  0  0  0  0  0  0  0
    5.0560    0.7137   19.9303 C   0  0  0  0  0  0  0  0  0  0  0  0
    4.4871    0.7251   20.8607 H   0  0  0  0  0  0  0  0  0  0  0  0
    4.6536    1.4501   18.8148 C   0  0  0  0  0  0  0  0  0  0  0  0
    3.7674    2.0763   18.8399 H   0  0  0  0  0  0  0  0  0  0  0  0
  1  2  1  0
  2  3  2  0
  3  4  1  0
  4  5  1  0
  4  6  2  0
  6  7  1  0
  7  8  1  0
  8  9  1  0
  8 10  1  0
 10 11  1  0
 10 12  1  0
 12 13  1  0
 12 14  1  0
 14 15  1  0
 14 16  1  0
 14 17  1  0
 17 18  1  0
 17 19  1  0
 17 20  1  0
 20 21  1  0
 20 22  1  0
 20 23  1  0
 23 24  1  0
 23 25  1  0
 23 26  1  0
 26 27  1  0
 26 28  1  0
  6 29  1  0
 29 30  1  0
 29 31  2  0
 31 32  1  0
 31  2  1  0
 26 12  1  0
M  END
>  <cnnaffinity>  (1) 
-4.39218

>  <filename>  (1) 
c1cncc(SNNC2CCCCC2)c1

$$$$
