
     RDKit          3D

 38 40  0  0  0  0  0  0  0  0999 V2000
    4.8065    1.3089   19.1131 C   0  0  0  0  0  0  0  0  0  0  0  0
    5.4064    1.2881   17.8470 C   0  0  0  0  0  0  0  0  0  0  0  0
    6.5721    0.6748   17.5887 N   0  0  0  0  0  0  0  0  0  0  0  0
    7.1813    0.0580   18.6054 C   0  0  0  0  0  0  0  0  0  0  0  0
    6.6589    0.0094   19.9032 C   0  0  0  0  0  0  0  0  0  0  0  0
    7.3948   -0.7044   20.9433 C   0  0  0  0  0  0  0  0  0  0  0  0
    8.5261   -1.3327   20.7424 N   0  0  0  0  0  0  0  0  0  0  0  0
    8.8231   -1.8467   21.9898 O   0  0  0  0  0  0  0  0  0  0  0  0
    7.8476   -1.4673   22.8198 C   0  0  0  0  0  0  0  0  0  0  0  0
    7.8884   -1.9308   24.2411 C   0  0  0  0  0  0  0  0  0  0  0  0
    7.4556   -3.3997   24.4111 C   0  0  0  0  0  0  0  0  0  0  0  0
    6.0588   -3.7432   23.8434 C   0  0  0  0  0  0  0  0  0  0  0  0
    5.7997   -5.2662   23.8858 C   0  0  0  0  0  0  0  0  0  0  0  0
    5.5280   -5.7898   25.3039 C   0  0  0  0  0  0  0  0  0  0  0  0
    4.3877   -5.0212   25.9819 C   0  0  0  0  0  0  0  0  0  0  0  0
    4.6336   -3.5095   25.9717 C   0  0  0  0  0  0  0  0  0  0  0  0
    4.9030   -2.9986   24.5513 C   0  0  0  0  0  0  0  0  0  0  0  0
    3.9868   -3.1319   23.9560 H   0  0  0  0  0  0  0  0  0  0  0  0
    5.1003   -1.9214   24.5831 H   0  0  0  0  0  0  0  0  0  0  0  0
    3.7707   -2.9841   26.3988 H   0  0  0  0  0  0  0  0  0  0  0  0
    5.4914   -3.2711   26.6159 H   0  0  0  0  0  0  0  0  0  0  0  0
    3.4505   -5.2308   25.4468 H   0  0  0  0  0  0  0  0  0  0  0  0
    4.2531   -5.3744   27.0102 H   0  0  0  0  0  0  0  0  0  0  0  0
    5.2876   -6.8584   25.2643 H   0  0  0  0  0  0  0  0  0  0  0  0
    6.4396   -5.6981   25.9106 H   0  0  0  0  0  0  0  0  0  0  0  0
    6.6488   -5.8000   23.4396 H   0  0  0  0  0  0  0  0  0  0  0  0
    4.9277   -5.4914   23.2555 H   0  0  0  0  0  0  0  0  0  0  0  0
    6.0528   -3.4372   22.7845 H   0  0  0  0  0  0  0  0  0  0  0  0
    7.5110   -3.6507   25.4781 H   0  0  0  0  0  0  0  0  0  0  0  0
    8.2046   -4.0278   23.9120 H   0  0  0  0  0  0  0  0  0  0  0  0
    7.2310   -1.2673   24.8089 H   0  0  0  0  0  0  0  0  0  0  0  0
    8.8973   -1.7928   24.6385 H   0  0  0  0  0  0  0  0  0  0  0  0
    6.9313   -0.7708   22.2350 N   0  0  0  0  0  0  0  0  0  0  0  0
    5.4396    0.6518   20.1645 C   0  0  0  0  0  0  0  0  0  0  0  0
    5.0042    0.6315   21.1658 H   0  0  0  0  0  0  0  0  0  0  0  0
    8.1268   -0.4318   18.3765 H   0  0  0  0  0  0  0  0  0  0  0  0
    4.9141    1.7719   17.0051 H   0  0  0  0  0  0  0  0  0  0  0  0
    3.8727    1.8445   19.2648 H   0  0  0  0  0  0  0  0  0  0  0  0
  1  2  2  0
  2  3  1  0
  3  4  2  0
  4  5  1  0
  5  6  1  0
  6  7  2  0
  7  8  1  0
  8  9  1  0
  9 10  1  0
 10 11  1  0
 11 12  1  0
 12 13  1  0
 13 14  1  0
 14 15  1  0
 15 16  1  0
 16 17  1  0
 17 18  1  0
 17 19  1  0
 16 20  1  0
 16 21  1  0
 15 22  1  0
 15 23  1  0
 14 24  1  0
 14 25  1  0
 13 26  1  0
 13 27  1  0
 12 28  1  0
 11 29  1  0
 11 30  1  0
 10 31  1  0
 10 32  1  0
  9 33  2  0
  5 34  2  0
 34 35  1  0
  4 36  1  0
  2 37  1  0
  1 38  1  0
 34  1  1  0
 33  6  1  0
 17 12  1  0
M  END
>  <cnnaffinity>  (1) 
-5.25895

>  <filename>  (1) 
c1cncc(-c2noc(CCC3CCCCC3)n2)c1

$$$$
