
     RDKit          3D

 33 35  0  0  0  0  0  0  0  0999 V2000
    4.9822    1.7767   17.0041 H   0  0  0  0  0  0  0  0  0  0  0  0
    5.4221    1.2771   17.8630 C   0  0  0  0  0  0  0  0  0  0  0  0
    6.5775    0.6424   17.6269 N   0  0  0  0  0  0  0  0  0  0  0  0
    7.1600    0.0223   18.6580 C   0  0  0  0  0  0  0  0  0  0  0  0
    8.1079   -0.4583   18.4159 H   0  0  0  0  0  0  0  0  0  0  0  0
    6.6226   -0.0290   19.9528 C   0  0  0  0  0  0  0  0  0  0  0  0
    7.3409   -0.7739   21.0196 C   0  0  0  0  0  0  0  0  0  0  0  0
    6.5731   -1.3976   21.9195 N   0  0  0  0  0  0  0  0  0  0  0  0
    7.1718   -1.9907   22.9594 C   0  0  0  0  0  0  0  0  0  0  0  0
    6.3307   -2.5350   23.9166 N   0  0  0  0  0  0  0  0  0  0  0  0
    6.8349   -2.9204   25.2410 C   0  0  0  0  0  0  0  0  0  0  0  0
    7.3030   -3.9179   25.1991 H   0  0  0  0  0  0  0  0  0  0  0  0
    7.5821   -2.1968   25.5900 H   0  0  0  0  0  0  0  0  0  0  0  0
    5.7092   -2.9568   26.2876 C   0  0  0  0  0  0  0  0  0  0  0  0
    5.3824   -1.9251   26.5149 H   0  0  0  0  0  0  0  0  0  0  0  0
    6.0830   -3.4246   27.2034 H   0  0  0  0  0  0  0  0  0  0  0  0
    4.6050   -3.7364   25.8525 O   0  0  0  0  0  0  0  0  0  0  0  0
    4.0750   -3.2123   24.6398 C   0  0  0  0  0  0  0  0  0  0  0  0
    3.2062   -3.8304   24.3997 H   0  0  0  0  0  0  0  0  0  0  0  0
    3.7445   -2.1722   24.8118 H   0  0  0  0  0  0  0  0  0  0  0  0
    5.1251   -3.2816   23.5145 C   0  0  0  0  0  0  0  0  0  0  0  0
    4.7412   -2.8755   22.5722 H   0  0  0  0  0  0  0  0  0  0  0  0
    5.3685   -4.3513   23.3606 H   0  0  0  0  0  0  0  0  0  0  0  0
    8.5775   -2.0676   23.0865 C   0  0  0  0  0  0  0  0  0  0  0  0
    8.9798   -2.6262   23.9230 H   0  0  0  0  0  0  0  0  0  0  0  0
    9.3763   -1.4631   22.1189 C   0  0  0  0  0  0  0  0  0  0  0  0
   10.4675   -1.5083   22.1781 H   0  0  0  0  0  0  0  0  0  0  0  0
    8.7419   -0.7900   21.0673 C   0  0  0  0  0  0  0  0  0  0  0  0
    9.2918   -0.2493   20.3071 H   0  0  0  0  0  0  0  0  0  0  0  0
    5.4065    0.6379   20.1832 C   0  0  0  0  0  0  0  0  0  0  0  0
    4.9540    0.6289   21.1783 H   0  0  0  0  0  0  0  0  0  0  0  0
    4.8022    1.3078   19.1187 C   0  0  0  0  0  0  0  0  0  0  0  0
    3.8728    1.8518   19.2363 H   0  0  0  0  0  0  0  0  0  0  0  0
  1  2  1  0
  2  3  2  0
  3  4  1  0
  4  5  1  0
  4  6  2  0
  6  7  1  0
  7  8  2  0
  8  9  1  0
  9 10  1  0
 10 11  1  0
 11 12  1  0
 11 13  1  0
 11 14  1  0
 14 15  1  0
 14 16  1  0
 14 17  1  0
 17 18  1  0
 18 19  1  0
 18 20  1  0
 18 21  1  0
 21 22  1  0
 21 23  1  0
  9 24  2  0
 24 25  1  0
 24 26  1  0
 26 27  1  0
 26 28  2  0
 28 29  1  0
  6 30  1  0
 30 31  1  0
 30 32  2  0
 32 33  1  0
 32  2  1  0
 28  7  1  0
 21 10  1  0
M  END
>  <cnnaffinity>  (1) 
-4.37416

>  <filename>  (1) 
c1cncc(-c2cccc(N3CCOCC3)n2)c1

$$$$
