
     RDKit          3D

 29 32  0  0  0  0  0  0  0  0999 V2000
    3.1450   -5.8906   22.2742 H   0  0  0  0  0  0  0  0  0  0  0  0
    4.0942   -5.3992   22.0715 C   0  0  0  0  0  0  0  0  0  0  0  0
    4.1686   -4.0262   22.1253 N   0  0  0  0  0  0  0  0  0  0  0  0
    5.3764   -3.6520   21.8390 C   0  0  0  0  0  0  0  0  0  0  0  0
    5.6236   -2.3169   21.7924 N   0  0  0  0  0  0  0  0  0  0  0  0
    4.7330   -1.8559   21.9254 H   0  0  0  0  0  0  0  0  0  0  0  0
    6.8475   -1.6790   21.7574 C   0  0  0  0  0  0  0  0  0  0  0  0
    7.3853   -0.7144   20.9135 C   0  0  0  0  0  0  0  0  0  0  0  0
    6.6533    0.0287   19.8983 C   0  0  0  0  0  0  0  0  0  0  0  0
    7.1818    0.0877   18.6023 C   0  0  0  0  0  0  0  0  0  0  0  0
    8.1335   -0.3910   18.3789 H   0  0  0  0  0  0  0  0  0  0  0  0
    6.5683    0.6881   17.5816 N   0  0  0  0  0  0  0  0  0  0  0  0
    5.3982    1.2968   17.8266 C   0  0  0  0  0  0  0  0  0  0  0  0
    4.9374    1.7932   16.9733 H   0  0  0  0  0  0  0  0  0  0  0  0
    4.7947    1.3201   19.0890 C   0  0  0  0  0  0  0  0  0  0  0  0
    3.8604    1.8526   19.2247 H   0  0  0  0  0  0  0  0  0  0  0  0
    5.4270    0.6690   20.1468 C   0  0  0  0  0  0  0  0  0  0  0  0
    4.9928    0.6733   21.1491 H   0  0  0  0  0  0  0  0  0  0  0  0
    8.7404   -0.5650   21.1165 N   0  0  0  0  0  0  0  0  0  0  0  0
    8.9823   -1.3570   22.1263 C   0  0  0  0  0  0  0  0  0  0  0  0
   10.3884   -1.7625   23.0688 S   0  0  0  0  0  0  0  0  0  0  0  0
    9.4291   -2.8582   24.0543 C   0  0  0  0  0  0  0  0  0  0  0  0
    9.9168   -3.4153   24.8465 H   0  0  0  0  0  0  0  0  0  0  0  0
    8.1407   -2.8916   23.6771 C   0  0  0  0  0  0  0  0  0  0  0  0
    7.3194   -3.4560   24.1089 H   0  0  0  0  0  0  0  0  0  0  0  0
    7.8913   -2.0702   22.5732 N   0  0  0  0  0  0  0  0  0  0  0  0
    6.5008   -4.8986   21.4194 S   0  0  0  0  0  0  0  0  0  0  0  0
    5.2300   -6.0399   21.7148 C   0  0  0  0  0  0  0  0  0  0  0  0
    5.4156   -7.0940   21.5928 H   0  0  0  0  0  0  0  0  0  0  0  0
  1  2  1  0
  2  3  1  0
  3  4  2  0
  4  5  1  0
  5  6  1  0
  5  7  1  0
  7  8  2  0
  8  9  1  0
  9 10  2  0
 10 11  1  0
 10 12  1  0
 12 13  2  0
 13 14  1  0
 13 15  1  0
 15 16  1  0
 15 17  2  0
 17 18  1  0
  8 19  1  0
 19 20  2  0
 20 21  1  0
 21 22  1  0
 22 23  1  0
 22 24  2  0
 24 25  1  0
 24 26  1  0
  4 27  1  0
 27 28  1  0
 28 29  1  0
 28  2  2  0
 26  7  1  0
 17  9  1  0
 26 20  1  0
M  END
>  <cnnaffinity>  (1) 
-6.04969

>  <filename>  (1) 
c1cncc(-c2nc3sccn3c2Nc2nccs2)c1

$$$$
