
     RDKit          3D

 36 40  0  0  0  0  0  0  0  0999 V2000
    5.2514    1.8689   17.1192 H   0  0  0  0  0  0  0  0  0  0  0  0
    5.6824    1.2503   17.9051 C   0  0  0  0  0  0  0  0  0  0  0  0
    6.7953    0.5646   17.5883 N   0  0  0  0  0  0  0  0  0  0  0  0
    7.3394   -0.2033   18.5396 C   0  0  0  0  0  0  0  0  0  0  0  0
    8.2406   -0.7576   18.2750 H   0  0  0  0  0  0  0  0  0  0  0  0
    6.8031   -0.3393   19.8322 C   0  0  0  0  0  0  0  0  0  0  0  0
    7.4918   -1.1016   20.8018 N   0  0  0  0  0  0  0  0  0  0  0  0
    8.8297   -0.9364   21.1609 C   0  0  0  0  0  0  0  0  0  0  0  0
    9.4178   -0.1662   20.6854 H   0  0  0  0  0  0  0  0  0  0  0  0
    9.1260   -1.7821   22.1795 C   0  0  0  0  0  0  0  0  0  0  0  0
    9.9860   -1.9352   22.8028 H   0  0  0  0  0  0  0  0  0  0  0  0
    7.9547   -2.4675   22.4471 N   0  0  0  0  0  0  0  0  0  0  0  0
    7.5890   -3.3381   23.4016 N   0  0  0  0  0  0  0  0  0  0  0  0
    6.2716   -3.4932   23.1775 C   0  0  0  0  0  0  0  0  0  0  0  0
    5.4640   -4.3400   24.0498 C   0  0  0  0  0  0  0  0  0  0  0  0
    5.7366   -4.7311   25.3383 C   0  0  0  0  0  0  0  0  0  0  0  0
    6.6303   -4.5517   25.9329 H   0  0  0  0  0  0  0  0  0  0  0  0
    4.6885   -5.4678   25.8283 N   0  0  0  0  0  0  0  0  0  0  0  0
    4.6309   -5.8486   26.7561 H   0  0  0  0  0  0  0  0  0  0  0  0
    3.7242   -5.6080   24.8520 C   0  0  0  0  0  0  0  0  0  0  0  0
    2.4954   -6.2891   24.8311 C   0  0  0  0  0  0  0  0  0  0  0  0
    2.1576   -6.8492   25.6945 H   0  0  0  0  0  0  0  0  0  0  0  0
    1.7243   -6.2349   23.6720 C   0  0  0  0  0  0  0  0  0  0  0  0
    0.7717   -6.7608   23.6530 H   0  0  0  0  0  0  0  0  0  0  0  0
    2.1689   -5.5259   22.5259 C   0  0  0  0  0  0  0  0  0  0  0  0
    1.5666   -5.4780   21.6210 H   0  0  0  0  0  0  0  0  0  0  0  0
    3.3949   -4.8783   22.5549 C   0  0  0  0  0  0  0  0  0  0  0  0
    3.8089   -4.3387   21.7197 H   0  0  0  0  0  0  0  0  0  0  0  0
    4.1720   -4.8987   23.7248 C   0  0  0  0  0  0  0  0  0  0  0  0
    5.8133   -2.7163   22.0723 C   0  0  0  0  0  0  0  0  0  0  0  0
    4.7852   -2.5515   21.8161 H   0  0  0  0  0  0  0  0  0  0  0  0
    6.9558   -2.0652   21.6354 C   0  0  0  0  0  0  0  0  0  0  0  0
    5.6231    0.3516   20.1448 C   0  0  0  0  0  0  0  0  0  0  0  0
    5.1886    0.2717   21.1442 H   0  0  0  0  0  0  0  0  0  0  0  0
    5.0716    1.1789   19.1633 C   0  0  0  0  0  0  0  0  0  0  0  0
    4.2056    1.8005   19.3729 H   0  0  0  0  0  0  0  0  0  0  0  0
  1  2  1  0
  2  3  2  0
  3  4  1  0
  4  5  1  0
  4  6  2  0
  6  7  1  0
  7  8  1  0
  8  9  1  0
  8 10  2  0
 10 11  1  0
 10 12  1  0
 12 13  1  0
 13 14  2  0
 14 15  1  0
 15 16  2  0
 16 17  1  0
 16 18  1  0
 18 19  1  0
 18 20  1  0
 20 21  2  0
 21 22  1  0
 21 23  1  0
 23 24  1  0
 23 25  2  0
 25 26  1  0
 25 27  1  0
 27 28  1  0
 27 29  2  0
 14 30  1  0
 30 31  1  0
 30 32  2  0
  6 33  1  0
 33 34  1  0
 33 35  2  0
 35 36  1  0
 35  2  1  0
 32  7  1  0
 32 12  1  0
 29 15  1  0
 29 20  1  0
M  END
>  <cnnaffinity>  (1) 
-5.62333

>  <filename>  (1) 
c1cncc(-n2ccn3nc(-c4c[nH]c5ccccc45)cc23)c1

$$$$
