
     RDKit          3D

 40 42  0  0  0  0  0  0  0  0999 V2000
    5.1392    1.8223   17.0222 H   0  0  0  0  0  0  0  0  0  0  0  0
    5.5742    1.2229   17.8195 C   0  0  0  0  0  0  0  0  0  0  0  0
    6.6947    0.5540   17.5140 N   0  0  0  0  0  0  0  0  0  0  0  0
    7.2726   -0.1636   18.4861 C   0  0  0  0  0  0  0  0  0  0  0  0
    8.1994   -0.6651   18.2032 H   0  0  0  0  0  0  0  0  0  0  0  0
    6.7703   -0.2698   19.7987 C   0  0  0  0  0  0  0  0  0  0  0  0
    7.5413   -1.0497   20.8553 C   0  0  0  0  0  0  0  0  0  0  0  0
    7.2074   -0.7796   21.8681 H   0  0  0  0  0  0  0  0  0  0  0  0
    8.6013   -0.7719   20.8215 H   0  0  0  0  0  0  0  0  0  0  0  0
    7.5309   -2.4788   20.6568 N   0  0  0  0  0  0  0  0  0  0  0  0
    8.0172   -3.1731   21.7174 N   0  0  0  0  0  0  0  0  0  0  0  0
    6.2370   -4.5199   20.3434 C   0  0  0  0  0  0  0  0  0  0  0  0
    6.7111   -4.9755   19.3329 H   0  0  0  0  0  0  0  0  0  0  0  0
    6.2608   -4.5620   20.4854 C   0  0  0  0  0  0  0  0  0  0  0  0
    5.4769   -5.4705   20.7081 H   0  0  0  0  0  0  0  0  0  0  0  0
    6.6465   -3.4952   21.3742 C   0  0  0  0  0  0  0  0  0  0  0  0
    5.5296   -2.9280   22.3554 C   0  0  0  0  0  0  0  0  0  0  0  0
    5.6177   -1.8542   22.1973 H   0  0  0  0  0  0  0  0  0  0  0  0
    4.4876   -3.1639   22.1008 H   0  0  0  0  0  0  0  0  0  0  0  0
    5.7763   -3.2148   23.8487 C   0  0  0  0  0  0  0  0  0  0  0  0
    4.8865   -2.8107   24.3655 H   0  0  0  0  0  0  0  0  0  0  0  0
    5.8396   -4.7240   24.1925 C   0  0  0  0  0  0  0  0  0  0  0  0
    6.5326   -5.2313   23.5119 H   0  0  0  0  0  0  0  0  0  0  0  0
    4.8450   -5.1619   24.0284 H   0  0  0  0  0  0  0  0  0  0  0  0
    6.3001   -5.0097   25.6483 C   0  0  0  0  0  0  0  0  0  0  0  0
    5.7620   -5.8772   26.0489 H   0  0  0  0  0  0  0  0  0  0  0  0
    7.3639   -5.2834   25.6577 H   0  0  0  0  0  0  0  0  0  0  0  0
    6.1276   -3.7957   26.5729 C   0  0  0  0  0  0  0  0  0  0  0  0
    5.0586   -3.5503   26.6679 H   0  0  0  0  0  0  0  0  0  0  0  0
    6.4680   -4.0476   27.5853 H   0  0  0  0  0  0  0  0  0  0  0  0
    6.9080   -2.5666   26.0398 C   0  0  0  0  0  0  0  0  0  0  0  0
    7.9290   -2.5886   26.4397 H   0  0  0  0  0  0  0  0  0  0  0  0
    6.4385   -1.6589   26.4385 H   0  0  0  0  0  0  0  0  0  0  0  0
    6.9736   -2.4779   24.4865 C   0  0  0  0  0  0  0  0  0  0  0  0
    7.9139   -2.8955   24.1163 H   0  0  0  0  0  0  0  0  0  0  0  0
    6.9690   -1.4153   24.2005 H   0  0  0  0  0  0  0  0  0  0  0  0
    5.5839    0.4225   20.0851 C   0  0  0  0  0  0  0  0  0  0  0  0
    5.1460    0.3897   21.0862 H   0  0  0  0  0  0  0  0  0  0  0  0
    4.9805    1.1843   19.0817 C   0  0  0  0  0  0  0  0  0  0  0  0
    4.0895    1.7684   19.2717 H   0  0  0  0  0  0  0  0  0  0  0  0
  1  2  1  0
  2  3  2  0
  3  4  1  0
  4  5  1  0
  4  6  2  0
  6  7  1  0
  7  8  1  0
  7  9  1  0
  7 10  1  0
 10 11  1  0
 11 12  2  0
 12 13  1  0
 12 14  1  0
 14 15  1  0
 14 16  2  0
 16 17  1  0
 17 18  1  0
 17 19  1  0
 17 20  1  0
 20 21  1  0
 20 22  1  0
 22 23  1  0
 22 24  1  0
 22 25  1  0
 25 26  1  0
 25 27  1  0
 25 28  1  0
 28 29  1  0
 28 30  1  0
 28 31  1  0
 31 32  1  0
 31 33  1  0
 31 34  1  0
 34 35  1  0
 34 36  1  0
  6 37  1  0
 37 38  1  0
 37 39  2  0
 39 40  1  0
 39  2  1  0
 16 10  1  0
 34 20  1  0
M  END
>  <cnnaffinity>  (1) 
-4.70049

>  <filename>  (1) 
c1cncc(Cn2nccc2CC2CCCCC2)c1

$$$$
