
     RDKit          3D

 32 35  0  0  0  0  0  0  0  0999 V2000
    4.9924    1.8424   16.9213 H   0  0  0  0  0  0  0  0  0  0  0  0
    5.3872    1.3068   17.7836 C   0  0  0  0  0  0  0  0  0  0  0  0
    6.5385    0.6455   17.5901 N   0  0  0  0  0  0  0  0  0  0  0  0
    7.0647    0.0218   18.6540 C   0  0  0  0  0  0  0  0  0  0  0  0
    8.0031   -0.4990   18.4720 H   0  0  0  0  0  0  0  0  0  0  0  0
    6.4838   -0.0136   19.9421 C   0  0  0  0  0  0  0  0  0  0  0  0
    7.2396   -0.6336   21.0524 C   0  0  0  0  0  0  0  0  0  0  0  0
    8.5943   -0.5738   21.2927 C   0  0  0  0  0  0  0  0  0  0  0  0
    8.8060   -1.1737   22.5247 C   0  0  0  0  0  0  0  0  0  0  0  0
    7.6920   -1.6300   23.0647 N   0  0  0  0  0  0  0  0  0  0  0  0
    6.7439   -1.2802   22.1562 N   0  0  0  0  0  0  0  0  0  0  0  0
    5.7837   -1.5238   22.3672 H   0  0  0  0  0  0  0  0  0  0  0  0
   10.2309   -1.1098   22.9685 C   0  0  0  0  0  0  0  0  0  0  0  0
   10.6420   -2.1084   23.1293 H   0  0  0  0  0  0  0  0  0  0  0  0
   10.3431   -0.5694   23.9119 H   0  0  0  0  0  0  0  0  0  0  0  0
   10.9386   -0.3553   21.7922 C   0  0  2  0  0  0  0  0  0  0  0  0
   11.6744   -1.0413   21.3710 H   0  0  0  0  0  0  0  0  0  0  0  0
   11.6567    0.8828   22.2457 C   0  0  0  0  0  0  0  0  0  0  0  0
   11.0650    2.0359   22.8157 C   0  0  0  0  0  0  0  0  0  0  0  0
   10.0133    2.2050   23.0087 H   0  0  0  0  0  0  0  0  0  0  0  0
   11.9623    2.9620   23.1234 N   0  0  0  0  0  0  0  0  0  0  0  0
   13.1341    2.4191   22.7623 N   0  0  0  0  0  0  0  0  0  0  0  0
   13.9768    2.9718   22.8424 H   0  0  0  0  0  0  0  0  0  0  0  0
   12.9998    1.1765   22.2383 C   0  0  0  0  0  0  0  0  0  0  0  0
   13.8560    0.6103   21.9045 H   0  0  0  0  0  0  0  0  0  0  0  0
    9.8611   -0.0713   20.6939 C   0  0  0  0  0  0  0  0  0  0  0  0
    9.8001    0.9885   20.4235 H   0  0  0  0  0  0  0  0  0  0  0  0
   10.1012   -0.6161   19.7789 H   0  0  0  0  0  0  0  0  0  0  0  0
    5.2599    0.6638   20.1112 C   0  0  0  0  0  0  0  0  0  0  0  0
    4.7682    0.7068   21.0881 H   0  0  0  0  0  0  0  0  0  0  0  0
    4.7178    1.3372   19.0134 C   0  0  0  0  0  0  0  0  0  0  0  0
    3.8026    1.9115   19.1002 H   0  0  0  0  0  0  0  0  0  0  0  0
  1  2  1  0
  2  3  2  0
  3  4  1  0
  4  5  1  0
  4  6  2  0
  6  7  1  0
  7  8  2  0
  8  9  1  0
  9 10  2  0
 10 11  1  0
 11 12  1  0
  9 13  1  0
 13 14  1  0
 13 15  1  0
 13 16  1  0
 16 17  1  6
 16 18  1  0
 18 19  1  0
 19 20  1  0
 19 21  2  0
 21 22  1  0
 22 23  1  0
 22 24  1  0
 24 25  1  0
 16 26  1  0
 26 27  1  0
 26 28  1  0
  6 29  1  0
 29 30  1  0
 29 31  2  0
 31 32  1  0
 31  2  1  0
 11  7  1  0
 24 18  2  0
 26  8  1  0
M  END
>  <cnnaffinity>  (1) 
-5.62358

>  <filename>  (1) 
c1cncc(-c2[nH]nc3c2C[C@@H](c2cn[nH]c2)C3)c1

$$$$
