
     RDKit          3D

 37 39  0  0  0  0  0  0  0  0999 V2000
    4.9184    1.8094   16.9829 H   0  0  0  0  0  0  0  0  0  0  0  0
    5.3925    1.3039   17.8240 C   0  0  0  0  0  0  0  0  0  0  0  0
    6.5507    0.6790   17.5655 N   0  0  0  0  0  0  0  0  0  0  0  0
    7.1723    0.0657   18.5818 C   0  0  0  0  0  0  0  0  0  0  0  0
    8.1067   -0.4334   18.3333 H   0  0  0  0  0  0  0  0  0  0  0  0
    6.6755    0.0278   19.9066 C   0  0  0  0  0  0  0  0  0  0  0  0
    7.3452   -0.6295   20.9937 N   0  0  0  0  0  0  0  0  0  0  0  0
    6.8291   -1.6073   21.8106 C   0  0  0  0  0  0  0  0  0  0  0  0
    5.8232   -1.9850   21.7046 H   0  0  0  0  0  0  0  0  0  0  0  0
    7.7109   -2.0286   22.6710 N   0  0  0  0  0  0  0  0  0  0  0  0
    8.8592   -1.3081   22.4525 N   0  0  0  0  0  0  0  0  0  0  0  0
    8.6333   -0.4716   21.4733 C   0  0  0  0  0  0  0  0  0  0  0  0
    9.5568    0.5668   20.9393 C   0  0  0  0  0  0  0  0  0  0  0  0
    9.6048    0.4739   19.8521 H   0  0  0  0  0  0  0  0  0  0  0  0
   10.5450    0.3869   21.3654 H   0  0  0  0  0  0  0  0  0  0  0  0
    9.0906    1.9772   21.2923 C   0  0  0  0  0  0  0  0  0  0  0  0
    8.1283    2.1799   20.7929 H   0  0  0  0  0  0  0  0  0  0  0  0
    9.8092    2.7003   20.8888 H   0  0  0  0  0  0  0  0  0  0  0  0
    9.0007    2.1124   22.7457 N   0  0  0  0  0  0  0  0  0  0  0  0
    9.8505    3.1610   23.3379 C   0  0  0  0  0  0  0  0  0  0  0  0
    9.9403    2.9293   24.4106 H   0  0  0  0  0  0  0  0  0  0  0  0
   10.8562    3.0857   22.9089 H   0  0  0  0  0  0  0  0  0  0  0  0
    9.2765    4.5904   23.1643 C   0  0  0  0  0  0  0  0  0  0  0  0
    9.2320    4.8285   22.0934 H   0  0  0  0  0  0  0  0  0  0  0  0
    9.9329    5.3364   23.6271 H   0  0  0  0  0  0  0  0  0  0  0  0
    7.9005    4.7435   23.6745 N   0  0  0  0  0  0  0  0  0  0  0  0
    7.9054    4.6426   24.6903 H   0  0  0  0  0  0  0  0  0  0  0  0
    7.0514    3.6821   23.0913 C   0  0  0  0  0  0  0  0  0  0  0  0
    6.9491    3.8900   22.0132 H   0  0  0  0  0  0  0  0  0  0  0  0
    6.0488    3.7566   23.5252 H   0  0  0  0  0  0  0  0  0  0  0  0
    7.6267    2.2483   23.2619 C   0  0  0  0  0  0  0  0  0  0  0  0
    6.9982    1.4928   22.7742 H   0  0  0  0  0  0  0  0  0  0  0  0
    7.6608    2.0014   24.3342 H   0  0  0  0  0  0  0  0  0  0  0  0
    5.4518    0.6577   20.1495 C   0  0  0  0  0  0  0  0  0  0  0  0
    5.0347    0.6252   21.1569 H   0  0  0  0  0  0  0  0  0  0  0  0
    4.8070    1.3144   19.0945 C   0  0  0  0  0  0  0  0  0  0  0  0
    3.8715    1.8387   19.2471 H   0  0  0  0  0  0  0  0  0  0  0  0
  1  2  1  0
  2  3  2  0
  3  4  1  0
  4  5  1  0
  4  6  2  0
  6  7  1  0
  7  8  1  0
  8  9  1  0
  8 10  2  0
 10 11  1  0
 11 12  2  0
 12 13  1  0
 13 14  1  0
 13 15  1  0
 13 16  1  0
 16 17  1  0
 16 18  1  0
 16 19  1  0
 19 20  1  0
 20 21  1  0
 20 22  1  0
 20 23  1  0
 23 24  1  0
 23 25  1  0
 23 26  1  0
 26 27  1  0
 26 28  1  0
 28 29  1  0
 28 30  1  0
 28 31  1  0
 31 32  1  0
 31 33  1  0
  6 34  1  0
 34 35  1  0
 34 36  2  0
 36 37  1  0
 36  2  1  0
 12  7  1  0
 31 19  1  0
M  END
>  <cnnaffinity>  (1) 
-4.69293

>  <filename>  (1) 
c1cncc(-n2cnnc2CCN2CCNCC2)c1

$$$$
