
     RDKit          3D

 34 38  0  0  0  0  0  0  0  0999 V2000
    4.9775    1.7931   16.9564 H   0  0  0  0  0  0  0  0  0  0  0  0
    5.4473    1.2897   17.7982 C   0  0  0  0  0  0  0  0  0  0  0  0
    6.6102    0.6692   17.5488 N   0  0  0  0  0  0  0  0  0  0  0  0
    7.2146    0.0493   18.5683 C   0  0  0  0  0  0  0  0  0  0  0  0
    8.1583   -0.4408   18.3348 H   0  0  0  0  0  0  0  0  0  0  0  0
    6.6931    0.0090   19.8756 C   0  0  0  0  0  0  0  0  0  0  0  0
    7.4017   -0.7056   20.9530 C   0  0  0  0  0  0  0  0  0  0  0  0
    8.5961   -1.2888   20.7603 N   0  0  0  0  0  0  0  0  0  0  0  0
    8.8535   -1.8244   21.9678 N   0  0  0  0  0  0  0  0  0  0  0  0
    9.8888   -2.5761   22.5017 C   0  0  0  0  0  0  0  0  0  0  0  0
   10.7688   -2.7688   21.9112 H   0  0  0  0  0  0  0  0  0  0  0  0
    9.5089   -2.9212   23.7522 C   0  0  0  0  0  0  0  0  0  0  0  0
   10.0191   -3.5279   24.4887 H   0  0  0  0  0  0  0  0  0  0  0  0
    8.2448   -2.3627   24.0098 N   0  0  0  0  0  0  0  0  0  0  0  0
    7.4219   -2.6068   25.1117 C   0  0  0  0  0  0  0  0  0  0  0  0
    7.6319   -3.5467   25.9649 N   0  0  0  0  0  0  0  0  0  0  0  0
    6.6442   -3.5357   26.9425 C   0  0  0  0  0  0  0  0  0  0  0  0
    6.5738   -4.4111   28.0410 C   0  0  0  0  0  0  0  0  0  0  0  0
    7.3154   -5.2061   28.1049 H   0  0  0  0  0  0  0  0  0  0  0  0
    5.5870   -4.1972   29.0075 C   0  0  0  0  0  0  0  0  0  0  0  0
    5.5279   -4.8511   29.8758 H   0  0  0  0  0  0  0  0  0  0  0  0
    4.6633   -3.1338   28.8828 C   0  0  0  0  0  0  0  0  0  0  0  0
    3.9099   -2.9591   29.6457 H   0  0  0  0  0  0  0  0  0  0  0  0
    4.6914   -2.2924   27.7691 C   0  0  0  0  0  0  0  0  0  0  0  0
    3.9432   -1.5186   27.6101 H   0  0  0  0  0  0  0  0  0  0  0  0
    5.6819   -2.5069   26.8112 C   0  0  0  0  0  0  0  0  0  0  0  0
    6.0078   -1.5879   25.3651 S   0  0  0  0  0  0  0  0  0  0  0  0
    7.8752   -1.6442   22.8771 C   0  0  0  0  0  0  0  0  0  0  0  0
    6.9110   -0.8637   22.2712 C   0  0  0  0  0  0  0  0  0  0  0  0
    6.0241   -0.4301   22.6878 H   0  0  0  0  0  0  0  0  0  0  0  0
    5.4707    0.6642   20.1123 C   0  0  0  0  0  0  0  0  0  0  0  0
    5.0140    0.6863   21.1024 H   0  0  0  0  0  0  0  0  0  0  0  0
    4.8383    1.3089   19.0561 C   0  0  0  0  0  0  0  0  0  0  0  0
    3.8968    1.8295   19.1964 H   0  0  0  0  0  0  0  0  0  0  0  0
  1  2  1  0
  2  3  2  0
  3  4  1  0
  4  5  1  0
  4  6  2  0
  6  7  1  0
  7  8  2  0
  8  9  1  0
  9 10  1  0
 10 11  1  0
 10 12  2  0
 12 13  1  0
 12 14  1  0
 14 15  1  0
 15 16  2  0
 16 17  1  0
 17 18  2  0
 18 19  1  0
 18 20  1  0
 20 21  1  0
 20 22  2  0
 22 23  1  0
 22 24  1  0
 24 25  1  0
 24 26  2  0
 26 27  1  0
 14 28  1  0
 28 29  2  0
 29 30  1  0
  6 31  1  0
 31 32  1  0
 31 33  2  0
 33 34  1  0
 33  2  1  0
 29  7  1  0
 28  9  1  0
 27 15  1  0
 26 17  1  0
M  END
>  <cnnaffinity>  (1) 
-5.47432

>  <filename>  (1) 
c1cncc(-c2cc3n(-c4nc5ccccc5s4)ccn3n2)c1

$$$$
