
     RDKit          3D

 30 33  0  0  0  0  0  0  0  0999 V2000
    4.9223    1.7903   17.0079 H   0  0  0  0  0  0  0  0  0  0  0  0
    5.4008    1.2837   17.8432 C   0  0  0  0  0  0  0  0  0  0  0  0
    6.5552    0.6611   17.5711 N   0  0  0  0  0  0  0  0  0  0  0  0
    7.1996    0.0564   18.5750 C   0  0  0  0  0  0  0  0  0  0  0  0
    8.1482   -0.4129   18.3302 H   0  0  0  0  0  0  0  0  0  0  0  0
    6.7058    0.0241   19.8951 C   0  0  0  0  0  0  0  0  0  0  0  0
    7.3026   -0.6721   20.9500 O   0  0  0  0  0  0  0  0  0  0  0  0
    8.6268   -0.7739   21.0821 C   0  0  0  0  0  0  0  0  0  0  0  0
    9.5547   -0.0984   20.4605 N   0  0  0  0  0  0  0  0  0  0  0  0
   10.7304   -0.5518   20.9635 N   0  0  0  0  0  0  0  0  0  0  0  0
   10.5596   -1.4604   21.8364 N   0  0  0  0  0  0  0  0  0  0  0  0
    9.2000   -1.6330   21.9453 N   0  0  0  0  0  0  0  0  0  0  0  0
    8.5844   -2.5507   22.7878 C   0  0  0  0  0  0  0  0  0  0  0  0
    7.3039   -2.7255   22.8773 N   0  0  0  0  0  0  0  0  0  0  0  0
    7.1697   -3.7129   23.8401 C   0  0  0  0  0  0  0  0  0  0  0  0
    6.0038   -4.2981   24.3564 C   0  0  0  0  0  0  0  0  0  0  0  0
    5.0389   -3.9616   23.9864 H   0  0  0  0  0  0  0  0  0  0  0  0
    6.1351   -5.2858   25.3291 C   0  0  0  0  0  0  0  0  0  0  0  0
    5.2408   -5.7444   25.7357 H   0  0  0  0  0  0  0  0  0  0  0  0
    7.4067   -5.6910   25.7924 C   0  0  0  0  0  0  0  0  0  0  0  0
    7.4693   -6.4639   26.5553 H   0  0  0  0  0  0  0  0  0  0  0  0
    8.5770   -5.1180   25.2936 C   0  0  0  0  0  0  0  0  0  0  0  0
    9.5522   -5.4296   25.6563 H   0  0  0  0  0  0  0  0  0  0  0  0
    8.4395   -4.1267   24.3137 C   0  0  0  0  0  0  0  0  0  0  0  0
    9.3331   -3.3506   23.6021 N   0  0  0  0  0  0  0  0  0  0  0  0
   10.3407   -3.3343   23.6468 H   0  0  0  0  0  0  0  0  0  0  0  0
    5.4840    0.6405   20.1718 C   0  0  0  0  0  0  0  0  0  0  0  0
    5.0734    0.5911   21.1809 H   0  0  0  0  0  0  0  0  0  0  0  0
    4.8314    1.2958   19.1209 C   0  0  0  0  0  0  0  0  0  0  0  0
    3.8957    1.8174   19.2760 H   0  0  0  0  0  0  0  0  0  0  0  0
  1  2  1  0
  2  3  2  0
  3  4  1  0
  4  5  1  0
  4  6  2  0
  6  7  1  0
  7  8  1  0
  8  9  2  0
  9 10  1  0
 10 11  2  0
 11 12  1  0
 12 13  1  0
 13 14  2  0
 14 15  1  0
 15 16  2  0
 16 17  1  0
 16 18  1  0
 18 19  1  0
 18 20  2  0
 20 21  1  0
 20 22  1  0
 22 23  1  0
 22 24  2  0
 24 25  1  0
 25 26  1  0
  6 27  1  0
 27 28  1  0
 27 29  2  0
 29 30  1  0
 29  2  1  0
 12  8  1  0
 25 13  1  0
 24 15  1  0
M  END
>  <cnnaffinity>  (1) 
-5.41395

>  <filename>  (1) 
c1cncc(Oc2nnnn2-c2nc3ccccc3[nH]2)c1

$$$$
