
     RDKit          3D

 30 33  0  0  0  0  0  0  0  0999 V2000
    4.8020    1.2886   19.1001 C   0  0  0  0  0  0  0  0  0  0  0  0
    5.4073    1.2868   17.8419 C   0  0  0  0  0  0  0  0  0  0  0  0
    6.5764    0.6691   17.6001 N   0  0  0  0  0  0  0  0  0  0  0  0
    7.1756    0.0380   18.6119 C   0  0  0  0  0  0  0  0  0  0  0  0
    6.6413   -0.0107   19.9082 C   0  0  0  0  0  0  0  0  0  0  0  0
    7.3592   -0.6834   20.9324 N   0  0  0  0  0  0  0  0  0  0  0  0
    7.7847   -1.9392   20.7294 N   0  0  0  0  0  0  0  0  0  0  0  0
    8.2931   -2.3350   21.8858 C   0  0  0  0  0  0  0  0  0  0  0  0
    8.2214   -1.3355   22.8633 C   0  0  0  0  0  0  0  0  0  0  0  0
    7.6377   -0.2614   22.2120 C   0  0  0  0  0  0  0  0  0  0  0  0
    7.4025    1.0985   22.7096 C   0  0  0  0  0  0  0  0  0  0  0  0
    7.2191    1.2693   24.0786 C   0  0  0  0  0  0  0  0  0  0  0  0
    7.0438    2.5748   24.5750 C   0  0  0  0  0  0  0  0  0  0  0  0
    7.0625    3.6340   23.6470 C   0  0  0  0  0  0  0  0  0  0  0  0
    7.2587    3.3716   22.2581 C   0  0  0  0  0  0  0  0  0  0  0  0
    7.4284    2.1407   21.8161 N   0  0  0  0  0  0  0  0  0  0  0  0
    7.2653    4.1840   21.5360 H   0  0  0  0  0  0  0  0  0  0  0  0
    6.8717    4.7625   24.3816 N   0  0  0  0  0  0  0  0  0  0  0  0
    6.7384    4.5083   25.7020 N   0  0  0  0  0  0  0  0  0  0  0  0
    6.8397    3.2046   25.8400 C   0  0  0  0  0  0  0  0  0  0  0  0
    6.7701    2.7183   26.8040 H   0  0  0  0  0  0  0  0  0  0  0  0
    6.8178    5.7159   24.0639 H   0  0  0  0  0  0  0  0  0  0  0  0
    7.2111    0.4037   24.7223 H   0  0  0  0  0  0  0  0  0  0  0  0
    8.6040   -1.3716   23.8761 H   0  0  0  0  0  0  0  0  0  0  0  0
    8.7034   -3.3321   21.9719 H   0  0  0  0  0  0  0  0  0  0  0  0
    5.4144    0.6144   20.1573 C   0  0  0  0  0  0  0  0  0  0  0  0
    4.9958    0.6397   21.1644 H   0  0  0  0  0  0  0  0  0  0  0  0
    8.1237   -0.4413   18.3800 H   0  0  0  0  0  0  0  0  0  0  0  0
    4.9361    1.7829   16.9959 H   0  0  0  0  0  0  0  0  0  0  0  0
    3.8824    1.8359   19.2572 H   0  0  0  0  0  0  0  0  0  0  0  0
  1  2  2  0
  2  3  1  0
  3  4  2  0
  4  5  1  0
  5  6  1  0
  6  7  1  0
  7  8  2  0
  8  9  1  0
  9 10  2  0
 10 11  1  0
 11 12  2  0
 12 13  1  0
 13 14  2  0
 14 15  1  0
 15 16  2  0
 15 17  1  0
 14 18  1  0
 18 19  1  0
 19 20  2  0
 20 21  1  0
 18 22  1  0
 12 23  1  0
  9 24  1  0
  8 25  1  0
  5 26  2  0
 26 27  1  0
  4 28  1  0
  2 29  1  0
  1 30  1  0
 26  1  1  0
 10  6  1  0
 16 11  1  0
 20 13  1  0
M  END
>  <cnnaffinity>  (1) 
-5.14025

>  <filename>  (1) 
c1cncc(-n2nccc2-c2cc3cn[nH]c3cn2)c1

$$$$
