
     RDKit          3D

 37 41  0  0  0  0  0  0  0  0999 V2000
    4.9527    1.8431   16.9898 H   0  0  0  0  0  0  0  0  0  0  0  0
    5.4771    1.3314   17.7932 C   0  0  0  0  0  0  0  0  0  0  0  0
    6.6414    0.7451   17.4712 N   0  0  0  0  0  0  0  0  0  0  0  0
    7.3035    0.0932   18.4350 C   0  0  0  0  0  0  0  0  0  0  0  0
    8.2370   -0.3789   18.1313 H   0  0  0  0  0  0  0  0  0  0  0  0
    6.8372   -0.0230   19.7586 C   0  0  0  0  0  0  0  0  0  0  0  0
    7.5247   -0.8136   20.7180 N   0  0  0  0  0  0  0  0  0  0  0  0
    8.8840   -0.8085   21.0335 C   0  0  0  0  0  0  0  0  0  0  0  0
    9.5445   -0.1156   20.5426 H   0  0  0  0  0  0  0  0  0  0  0  0
    9.1296   -1.7024   22.0273 C   0  0  0  0  0  0  0  0  0  0  0  0
   10.0210   -1.9595   22.5699 H   0  0  0  0  0  0  0  0  0  0  0  0
    7.9050   -2.2826   22.3227 N   0  0  0  0  0  0  0  0  0  0  0  0
    7.4719   -3.2209   23.2007 N   0  0  0  0  0  0  0  0  0  0  0  0
    6.1602   -3.2903   22.9258 C   0  0  0  0  0  0  0  0  0  0  0  0
    5.1931   -4.2381   23.5032 C   0  0  0  0  0  0  0  0  0  0  0  0
    4.2502   -4.7176   22.6176 C   0  0  0  0  0  0  0  0  0  0  0  0
    4.2259   -4.3425   21.6003 H   0  0  0  0  0  0  0  0  0  0  0  0
    3.3192   -5.6608   22.8766 N   0  0  0  0  0  0  0  0  0  0  0  0
    3.3084   -6.1674   24.0909 C   0  0  0  0  0  0  0  0  0  0  0  0
    2.5764   -6.9506   24.2915 H   0  0  0  0  0  0  0  0  0  0  0  0
    4.1799   -5.7462   25.1361 C   0  0  0  0  0  0  0  0  0  0  0  0
    4.1127   -6.3188   26.4410 C   0  0  0  0  0  0  0  0  0  0  0  0
    3.4149   -7.1333   26.6199 H   0  0  0  0  0  0  0  0  0  0  0  0
    4.9017   -5.8320   27.4530 C   0  0  0  0  0  0  0  0  0  0  0  0
    4.8356   -6.2618   28.4505 H   0  0  0  0  0  0  0  0  0  0  0  0
    5.7902   -4.7497   27.2067 C   0  0  0  0  0  0  0  0  0  0  0  0
    6.3806   -4.3568   28.0286 H   0  0  0  0  0  0  0  0  0  0  0  0
    5.9048   -4.1991   25.9462 C   0  0  0  0  0  0  0  0  0  0  0  0
    6.6040   -3.3899   25.7493 H   0  0  0  0  0  0  0  0  0  0  0  0
    5.1246   -4.7079   24.8610 C   0  0  0  0  0  0  0  0  0  0  0  0
    5.7800   -2.4256   21.8734 C   0  0  0  0  0  0  0  0  0  0  0  0
    4.7666   -2.2569   21.6040 H   0  0  0  0  0  0  0  0  0  0  0  0
    6.9383   -1.7546   21.5442 C   0  0  0  0  0  0  0  0  0  0  0  0
    5.6367    0.6296   20.0917 C   0  0  0  0  0  0  0  0  0  0  0  0
    5.2804    0.6266   21.1220 H   0  0  0  0  0  0  0  0  0  0  0  0
    4.9433    1.3068   19.0860 C   0  0  0  0  0  0  0  0  0  0  0  0
    4.0126    1.8244   19.2964 H   0  0  0  0  0  0  0  0  0  0  0  0
  1  2  1  0
  2  3  2  0
  3  4  1  0
  4  5  1  0
  4  6  2  0
  6  7  1  0
  7  8  1  0
  8  9  1  0
  8 10  2  0
 10 11  1  0
 10 12  1  0
 12 13  1  0
 13 14  2  0
 14 15  1  0
 15 16  2  0
 16 17  1  0
 16 18  1  0
 18 19  2  0
 19 20  1  0
 19 21  1  0
 21 22  2  0
 22 23  1  0
 22 24  1  0
 24 25  1  0
 24 26  2  0
 26 27  1  0
 26 28  1  0
 28 29  1  0
 28 30  2  0
 14 31  1  0
 31 32  1  0
 31 33  2  0
  6 34  1  0
 34 35  1  0
 34 36  2  0
 36 37  1  0
 36  2  1  0
 33  7  1  0
 33 12  1  0
 30 15  1  0
 30 21  1  0
M  END
>  <cnnaffinity>  (1) 
-5.50374

>  <filename>  (1) 
c1cncc(-n2ccn3nc(-c4cncc5ccccc45)cc23)c1

$$$$
