
     RDKit          3D

 40 42  0  0  0  0  0  0  0  0999 V2000
    5.0449    1.8895   16.5455 H   0  0  0  0  0  0  0  0  0  0  0  0
    5.4970    1.4082   17.4091 C   0  0  0  0  0  0  0  0  0  0  0  0
    6.6315    0.7304   17.1754 N   0  0  0  0  0  0  0  0  0  0  0  0
    7.2256    0.1431   18.2207 C   0  0  0  0  0  0  0  0  0  0  0  0
    8.1421   -0.4027   18.0036 H   0  0  0  0  0  0  0  0  0  0  0  0
    6.7317    0.1913   19.5400 C   0  0  0  0  0  0  0  0  0  0  0  0
    7.4462   -0.4462   20.6675 C   0  0  0  0  0  0  0  0  0  0  0  0
    9.1719   -0.6480   20.6827 S   0  0  0  0  0  0  0  0  0  0  0  0
    9.1323   -1.3318   22.2639 C   0  0  0  0  0  0  0  0  0  0  0  0
   10.0342   -1.6432   22.7653 H   0  0  0  0  0  0  0  0  0  0  0  0
    7.8591   -1.4151   22.7443 C   0  0  0  0  0  0  0  0  0  0  0  0
    7.4412   -1.8524   23.9603 O   0  0  0  0  0  0  0  0  0  0  0  0
    8.2413   -2.7546   24.7167 C   0  0  0  0  0  0  0  0  0  0  0  0
    7.7852   -2.7211   25.7140 H   0  0  0  0  0  0  0  0  0  0  0  0
    9.2710   -2.3798   24.8092 H   0  0  0  0  0  0  0  0  0  0  0  0
    8.2006   -4.1824   24.1150 C   0  0  0  0  0  0  0  0  0  0  0  0
    8.4787   -4.1282   23.0523 H   0  0  0  0  0  0  0  0  0  0  0  0
    7.1522   -4.4987   24.1050 H   0  0  0  0  0  0  0  0  0  0  0  0
    8.8934   -5.2715   24.8121 N   0  0  0  0  0  0  0  0  0  0  0  0
   10.4002   -5.3056   24.9768 C   0  0  0  0  0  0  0  0  0  0  0  0
   10.3081   -6.5066   24.9530 H   0  0  0  0  0  0  0  0  0  0  0  0
   10.5307   -4.0995   25.0430 H   0  0  0  0  0  0  0  0  0  0  0  0
   10.3944   -5.2956   24.6957 C   0  0  0  0  0  0  0  0  0  0  0  0
   11.6375   -5.4272   25.0289 H   0  0  0  0  0  0  0  0  0  0  0  0
   10.7443   -6.2875   26.8059 H   0  0  0  0  0  0  0  0  0  0  0  0
   10.7111   -5.3198   27.3515 C   0  0  0  0  0  0  0  0  0  0  0  0
   11.0007   -5.3990   28.4158 H   0  0  0  0  0  0  0  0  0  0  0  0
   11.4367   -4.6527   26.9045 H   0  0  0  0  0  0  0  0  0  0  0  0
    9.3165   -4.6770   27.1898 C   0  0  0  0  0  0  0  0  0  0  0  0
    8.8200   -4.5564   28.1530 H   0  0  0  0  0  0  0  0  0  0  0  0
    9.4618   -3.6878   26.7633 H   0  0  0  0  0  0  0  0  0  0  0  0
    8.4237   -5.4908   26.2380 C   0  0  0  0  0  0  0  0  0  0  0  0
    8.5606   -6.5508   26.4622 H   0  0  0  0  0  0  0  0  0  0  0  0
    7.3638   -5.2407   26.3030 H   0  0  0  0  0  0  0  0  0  0  0  0
    6.8981   -0.9149   21.8225 C   0  0  0  0  0  0  0  0  0  0  0  0
    5.8369   -0.9327   22.0298 H   0  0  0  0  0  0  0  0  0  0  0  0
    5.5295    0.8863   19.7537 C   0  0  0  0  0  0  0  0  0  0  0  0
    5.1079    0.9583   20.7564 H   0  0  0  0  0  0  0  0  0  0  0  0
    4.9046    1.5073   18.6717 C   0  0  0  0  0  0  0  0  0  0  0  0
    3.9865    2.0718   18.7947 H   0  0  0  0  0  0  0  0  0  0  0  0
  1  2  1  0
  2  3  2  0
  3  4  1  0
  4  5  1  0
  4  6  2  0
  6  7  1  0
  7  8  1  0
  8  9  1  0
  9 10  1  0
  9 11  2  0
 11 12  1  0
 12 13  1  0
 13 14  1  0
 13 15  1  0
 13 16  1  0
 16 17  1  0
 16 18  1  0
 16 19  1  0
 19 20  1  0
 20 21  1  0
 20 22  1  0
 20 23  1  0
 23 24  1  0
 23 25  1  0
 23 26  1  0
 26 27  1  0
 26 28  1  0
 26 29  1  0
 29 30  1  0
 29 31  1  0
 29 32  1  0
 32 33  1  0
 32 34  1  0
 11 35  1  0
 35 36  1  0
  6 37  1  0
 37 38  1  0
 37 39  2  0
 39 40  1  0
 39  2  1  0
 35  7  2  0
 32 19  1  0
M  END
>  <cnnaffinity>  (1) 
-5.2043

>  <filename>  (1) 
c1cncc(-c2cc(OCCN3CCCCC3)cs2)c1

$$$$
