
     RDKit          3D

 34 37  0  0  0  0  0  0  0  0999 V2000
    5.2458    1.7428   16.9191 H   0  0  0  0  0  0  0  0  0  0  0  0
    5.5940    1.2004   17.7969 C   0  0  0  0  0  0  0  0  0  0  0  0
    6.7829    0.5861   17.6887 N   0  0  0  0  0  0  0  0  0  0  0  0
    7.2399   -0.0537   18.7745 C   0  0  0  0  0  0  0  0  0  0  0  0
    8.2007   -0.5545   18.6582 H   0  0  0  0  0  0  0  0  0  0  0  0
    6.5596   -0.1370   20.0071 C   0  0  0  0  0  0  0  0  0  0  0  0
    7.2070   -0.8160   21.1542 C   0  0  0  0  0  0  0  0  0  0  0  0
    8.5259   -0.7752   21.5867 C   0  0  0  0  0  0  0  0  0  0  0  0
    9.5469    0.3015   21.2809 C   0  0  0  0  0  0  0  0  0  0  0  0
   10.5450   -0.0308   21.5947 H   0  0  0  0  0  0  0  0  0  0  0  0
    9.6186    0.4036   20.1900 H   0  0  0  0  0  0  0  0  0  0  0  0
    9.2184    1.6810   21.9047 C   0  0  0  0  0  0  0  0  0  0  0  0
    8.2085    2.4574   21.4841 C   0  0  0  0  0  0  0  0  0  0  0  0
    7.5076    2.1666   20.7268 H   0  0  0  0  0  0  0  0  0  0  0  0
    8.1236    3.8193   22.1795 C   0  0  0  0  0  0  0  0  0  0  0  0
    8.1876    6.7199   21.5083 H   0  0  0  0  0  0  0  0  0  0  0  0
    8.2747    4.2253   22.3553 C   0  0  0  0  0  0  0  0  0  0  0  0
    9.4870    3.5036   23.3476 C   0  0  0  0  0  0  0  0  0  0  0  0
    9.9748    2.2576   23.0577 C   0  0  0  0  0  0  0  0  0  0  0  0
   10.7414    1.7387   23.6240 H   0  0  0  0  0  0  0  0  0  0  0  0
    9.7885    4.2828   24.3742 O   0  0  0  0  0  0  0  0  0  0  0  0
    8.7234    5.2294   24.3925 C   0  0  0  0  0  0  0  0  0  0  0  0
    9.0212    6.0405   25.0708 H   0  0  0  0  0  0  0  0  0  0  0  0
    7.8101    4.7343   24.7655 H   0  0  0  0  0  0  0  0  0  0  0  0
    8.5656    5.6998   23.1026 O   0  0  0  0  0  0  0  0  0  0  0  0
    8.6178   -1.8474   22.5042 C   0  0  0  0  0  0  0  0  0  0  0  0
    9.4985   -2.2072   23.0199 H   0  0  0  0  0  0  0  0  0  0  0  0
    7.4489   -2.4403   22.7075 N   0  0  0  0  0  0  0  0  0  0  0  0
    6.6049   -1.7838   21.8940 N   0  0  0  0  0  0  0  0  0  0  0  0
    5.6126   -1.9722   21.9473 H   0  0  0  0  0  0  0  0  0  0  0  0
    5.2904    0.4610   20.0732 C   0  0  0  0  0  0  0  0  0  0  0  0
    4.6942    0.3892   20.9842 H   0  0  0  0  0  0  0  0  0  0  0  0
    4.8125    1.1527   18.9565 C   0  0  0  0  0  0  0  0  0  0  0  0
    3.8611    1.6729   18.9802 H   0  0  0  0  0  0  0  0  0  0  0  0
  1  2  1  0
  2  3  2  0
  3  4  1  0
  4  5  1  0
  4  6  2  0
  6  7  1  0
  7  8  2  0
  8  9  1  0
  9 10  1  0
  9 11  1  0
  9 12  1  0
 12 13  2  0
 13 14  1  0
 13 15  1  0
 15 16  1  0
 15 17  2  0
 17 18  1  0
 18 19  2  0
 19 20  1  0
 18 21  1  0
 21 22  1  0
 22 23  1  0
 22 24  1  0
 22 25  1  0
  8 26  1  0
 26 27  1  0
 26 28  2  0
 28 29  1  0
 29 30  1  0
  6 31  1  0
 31 32  1  0
 31 33  2  0
 33 34  1  0
 33  2  1  0
 29  7  1  0
 19 12  1  0
 25 17  1  0
M  END
>  <cnnaffinity>  (1) 
-5.26145

>  <filename>  (1) 
c1cncc(-c2[nH]ncc2Cc2ccc3c(c2)OCO3)c1

$$$$
