
     RDKit          3D

 45 48  0  0  0  0  0  0  0  0999 V2000
    5.3428    1.7697   16.6502 H   0  0  0  0  0  0  0  0  0  0  0  0
    5.7753    1.5636   17.6264 C   0  0  0  0  0  0  0  0  0  0  0  0
    7.0101    1.0320   17.6379 N   0  0  0  0  0  0  0  0  0  0  0  0
    7.5511    0.7531   18.8405 C   0  0  0  0  0  0  0  0  0  0  0  0
    8.5681    0.3624   18.8192 H   0  0  0  0  0  0  0  0  0  0  0  0
    6.8839    0.9265   20.0797 C   0  0  0  0  0  0  0  0  0  0  0  0
    7.3033    0.3749   21.3391 N   0  0  0  0  0  0  0  0  0  0  0  0
    8.4528    0.9595   22.0271 C   0  0  0  0  0  0  0  0  0  0  0  0
    8.5525    1.9998   21.6983 H   0  0  0  0  0  0  0  0  0  0  0  0
    8.2200    0.9919   23.1034 H   0  0  0  0  0  0  0  0  0  0  0  0
    9.7741    0.1950   21.8047 C   0  0  0  0  0  0  0  0  0  0  0  0
   10.5487    0.6120   22.4608 H   0  0  0  0  0  0  0  0  0  0  0  0
   10.0963    0.3715   20.7717 H   0  0  0  0  0  0  0  0  0  0  0  0
    9.6184   -1.3199   22.0170 C   0  0  0  0  0  0  0  0  0  0  0  0
   10.5333   -1.8459   21.7192 H   0  0  0  0  0  0  0  0  0  0  0  0
    9.4765   -1.5411   23.0840 H   0  0  0  0  0  0  0  0  0  0  0  0
    8.4214   -1.8487   21.2199 C   0  0  0  0  0  0  0  0  0  0  0  0
    8.6051   -1.7029   20.1459 H   0  0  0  0  0  0  0  0  0  0  0  0
    8.2800   -2.9261   21.3800 H   0  0  0  0  0  0  0  0  0  0  0  0
    7.1354   -1.0798   21.5876 C   0  0  2  0  0  0  0  0  0  0  0  0
    6.9878   -1.1890   22.6760 H   0  0  0  0  0  0  0  0  0  0  0  0
    5.8734   -1.6395   20.8910 C   0  0  0  0  0  0  0  0  0  0  0  0
    5.9965   -1.4969   19.8111 H   0  0  0  0  0  0  0  0  0  0  0  0
    5.0397   -0.9978   21.1936 H   0  0  0  0  0  0  0  0  0  0  0  0
    5.5924   -3.0981   21.1741 C   0  0  0  0  0  0  0  0  0  0  0  0
    6.0764   -4.0853   20.2599 C   0  0  0  0  0  0  0  0  0  0  0  0
    6.3926   -3.7649   19.2751 H   0  0  0  0  0  0  0  0  0  0  0  0
    6.1478   -5.4125   20.6078 C   0  0  0  0  0  0  0  0  0  0  0  0
    6.5719   -6.1403   19.9268 H   0  0  0  0  0  0  0  0  0  0  0  0
    5.6526   -5.8634   21.8675 C   0  0  0  0  0  0  0  0  0  0  0  0
    5.8027   -7.2025   22.3333 C   0  0  0  0  0  0  0  0  0  0  0  0
    6.4239   -7.8932   21.7699 H   0  0  0  0  0  0  0  0  0  0  0  0
    5.1963   -7.6005   23.5029 C   0  0  0  0  0  0  0  0  0  0  0  0
    5.3425   -8.6084   23.8682 H   0  0  0  0  0  0  0  0  0  0  0  0
    4.4205   -6.6909   24.2728 C   0  0  0  0  0  0  0  0  0  0  0  0
    3.9554   -7.0518   25.1879 H   0  0  0  0  0  0  0  0  0  0  0  0
    4.3164   -5.3747   23.8899 C   0  0  0  0  0  0  0  0  0  0  0  0
    3.7632   -4.6610   24.4986 H   0  0  0  0  0  0  0  0  0  0  0  0
    4.9715   -4.9199   22.6973 C   0  0  0  0  0  0  0  0  0  0  0  0
    4.9985   -3.5434   22.3408 C   0  0  0  0  0  0  0  0  0  0  0  0
    4.5535   -2.8867   23.0727 H   0  0  0  0  0  0  0  0  0  0  0  0
    5.6294    1.5535   20.0305 C   0  0  0  0  0  0  0  0  0  0  0  0
    5.1141    1.7594   20.9692 H   0  0  0  0  0  0  0  0  0  0  0  0
    5.0647    1.8706   18.7903 C   0  0  0  0  0  0  0  0  0  0  0  0
    4.0883    2.3388   18.7250 H   0  0  0  0  0  0  0  0  0  0  0  0
  1  2  1  0
  2  3  2  0
  3  4  1  0
  4  5  1  0
  4  6  2  0
  6  7  1  0
  7  8  1  0
  8  9  1  0
  8 10  1  0
  8 11  1  0
 11 12  1  0
 11 13  1  0
 11 14  1  0
 14 15  1  0
 14 16  1  0
 14 17  1  0
 17 18  1  0
 17 19  1  0
 17 20  1  0
 20 21  1  1
 20 22  1  0
 22 23  1  0
 22 24  1  0
 22 25  1  0
 25 26  2  0
 26 27  1  0
 26 28  1  0
 28 29  1  0
 28 30  2  0
 30 31  1  0
 31 32  1  0
 31 33  2  0
 33 34  1  0
 33 35  1  0
 35 36  1  0
 35 37  2  0
 37 38  1  0
 37 39  1  0
 39 40  2  0
 40 41  1  0
  6 42  1  0
 42 43  1  0
 42 44  2  0
 44 45  1  0
 44  2  1  0
 20  7  1  0
 40 25  1  0
 39 30  1  0
M  END
>  <cnnaffinity>  (1) 
-5.70768

>  <filename>  (1) 
c1cncc(N2CCCC[C@@H]2Cc2ccc3ccccc3c2)c1

$$$$
