
     RDKit          3D

 36 40  0  0  0  0  0  0  0  0999 V2000
    4.9856    1.8655   16.8820 H   0  0  0  0  0  0  0  0  0  0  0  0
    5.4168    1.3061   17.7111 C   0  0  0  0  0  0  0  0  0  0  0  0
    6.5596    0.6474   17.4633 N   0  0  0  0  0  0  0  0  0  0  0  0
    7.1330   -0.0069   18.4792 C   0  0  0  0  0  0  0  0  0  0  0  0
    8.0642   -0.5200   18.2481 H   0  0  0  0  0  0  0  0  0  0  0  0
    6.6058   -0.0417   19.7837 C   0  0  0  0  0  0  0  0  0  0  0  0
    7.3705   -0.6432   20.8920 C   0  0  0  0  0  0  0  0  0  0  0  0
    8.5054   -1.3244   20.6714 N   0  0  0  0  0  0  0  0  0  0  0  0
    8.9442   -1.5837   21.9195 N   0  0  0  0  0  0  0  0  0  0  0  0
   10.0569   -2.2142   22.4563 C   0  0  0  0  0  0  0  0  0  0  0  0
   10.7944   -2.6845   21.8325 H   0  0  0  0  0  0  0  0  0  0  0  0
    9.9290   -2.0900   23.8016 C   0  0  0  0  0  0  0  0  0  0  0  0
   10.5486   -2.4603   24.5997 H   0  0  0  0  0  0  0  0  0  0  0  0
    8.7623   -1.3889   24.1044 N   0  0  0  0  0  0  0  0  0  0  0  0
    8.2762   -1.0231   25.3897 C   0  0  0  0  0  0  0  0  0  0  0  0
    9.1887   -0.6712   26.4217 C   0  0  0  0  0  0  0  0  0  0  0  0
   10.2583   -0.7115   26.2311 H   0  0  0  0  0  0  0  0  0  0  0  0
    8.7351   -0.2277   27.6585 C   0  0  0  0  0  0  0  0  0  0  0  0
    9.4227   -0.0159   28.4739 H   0  0  0  0  0  0  0  0  0  0  0  0
    7.3480   -0.0838   27.8375 C   0  0  0  0  0  0  0  0  0  0  0  0
    6.4152   -0.4752   26.8485 C   0  0  0  0  0  0  0  0  0  0  0  0
    6.8971   -0.9666   25.6193 C   0  0  0  0  0  0  0  0  0  0  0  0
    6.2203   -1.2699   24.8284 H   0  0  0  0  0  0  0  0  0  0  0  0
    5.1116   -0.1627   27.3746 C   0  0  0  0  0  0  0  0  0  0  0  0
    4.1605   -0.3396   26.8877 H   0  0  0  0  0  0  0  0  0  0  0  0
    5.2971    0.4067   28.5992 C   0  0  0  0  0  0  0  0  0  0  0  0
    4.5631    0.7990   29.2915 H   0  0  0  0  0  0  0  0  0  0  0  0
    6.6472    0.4387   28.8967 N   0  0  0  0  0  0  0  0  0  0  0  0
    7.0808    0.9673   29.6365 H   0  0  0  0  0  0  0  0  0  0  0  0
    8.1561   -1.0927   22.8945 C   0  0  0  0  0  0  0  0  0  0  0  0
    7.0783   -0.4864   22.2680 C   0  0  0  0  0  0  0  0  0  0  0  0
    6.2096   -0.0255   22.6961 H   0  0  0  0  0  0  0  0  0  0  0  0
    5.3859    0.6173   20.0105 C   0  0  0  0  0  0  0  0  0  0  0  0
    4.9216    0.6080   20.9982 H   0  0  0  0  0  0  0  0  0  0  0  0
    4.7872    1.3053   18.9602 C   0  0  0  0  0  0  0  0  0  0  0  0
    3.8700    1.8647   19.1094 H   0  0  0  0  0  0  0  0  0  0  0  0
  1  2  1  0
  2  3  2  0
  3  4  1  0
  4  5  1  0
  4  6  2  0
  6  7  1  0
  7  8  2  0
  8  9  1  0
  9 10  1  0
 10 11  1  0
 10 12  2  0
 12 13  1  0
 12 14  1  0
 14 15  1  0
 15 16  2  0
 16 17  1  0
 16 18  1  0
 18 19  1  0
 18 20  2  0
 20 21  1  0
 21 22  2  0
 22 23  1  0
 21 24  1  0
 24 25  1  0
 24 26  2  0
 26 27  1  0
 26 28  1  0
 28 29  1  0
 14 30  1  0
 30 31  2  0
 31 32  1  0
  6 33  1  0
 33 34  1  0
 33 35  2  0
 35 36  1  0
 35  2  1  0
 31  7  1  0
 30  9  1  0
 22 15  1  0
 28 20  1  0
M  END
>  <cnnaffinity>  (1) 
-5.52559

>  <filename>  (1) 
c1cncc(-c2cc3n(-c4ccc5[nH]ccc5c4)ccn3n2)c1

$$$$
