
     RDKit          3D

 35 39  0  0  0  0  0  0  0  0999 V2000
    4.9197    1.7716   17.0044 H   0  0  0  0  0  0  0  0  0  0  0  0
    5.4086    1.2863   17.8470 C   0  0  0  0  0  0  0  0  0  0  0  0
    6.5744    0.6701   17.5948 N   0  0  0  0  0  0  0  0  0  0  0  0
    7.1821    0.0539   18.6141 C   0  0  0  0  0  0  0  0  0  0  0  0
    8.1280   -0.4339   18.3837 H   0  0  0  0  0  0  0  0  0  0  0  0
    6.6482    0.0138   19.9101 C   0  0  0  0  0  0  0  0  0  0  0  0
    7.3617   -0.6909   20.9687 C   0  0  0  0  0  0  0  0  0  0  0  0
    8.5486   -1.3269   20.7556 N   0  0  0  0  0  0  0  0  0  0  0  0
    8.8096   -1.8024   21.9560 C   0  0  0  0  0  0  0  0  0  0  0  0
   10.0496   -2.7309   22.7522 S   0  0  0  0  0  0  0  0  0  0  0  0
    9.1573   -2.6251   24.2455 C   0  0  0  0  0  0  0  0  0  0  0  0
    9.5603   -3.0783   25.1418 H   0  0  0  0  0  0  0  0  0  0  0  0
    7.9995   -1.9380   24.1365 C   0  0  0  0  0  0  0  0  0  0  0  0
    7.0557   -1.5987   25.2109 C   0  0  0  0  0  0  0  0  0  0  0  0
    6.6939   -0.2830   25.4619 C   0  0  0  0  0  0  0  0  0  0  0  0
    7.0774    0.5018   24.8189 H   0  0  0  0  0  0  0  0  0  0  0  0
    5.8961    0.1237   26.4846 N   0  0  0  0  0  0  0  0  0  0  0  0
    5.4222   -0.8077   27.2868 C   0  0  0  0  0  0  0  0  0  0  0  0
    4.7819   -0.4883   28.1076 H   0  0  0  0  0  0  0  0  0  0  0  0
    5.6841   -2.2022   27.1487 C   0  0  0  0  0  0  0  0  0  0  0  0
    5.1317   -3.1776   28.0370 C   0  0  0  0  0  0  0  0  0  0  0  0
    4.5019   -2.8518   28.8639 H   0  0  0  0  0  0  0  0  0  0  0  0
    5.3895   -4.5124   27.8394 C   0  0  0  0  0  0  0  0  0  0  0  0
    4.9707   -5.2588   28.5097 H   0  0  0  0  0  0  0  0  0  0  0  0
    6.1963   -4.9365   26.7505 C   0  0  0  0  0  0  0  0  0  0  0  0
    6.3823   -5.9944   26.5959 H   0  0  0  0  0  0  0  0  0  0  0  0
    6.7398   -4.0155   25.8803 C   0  0  0  0  0  0  0  0  0  0  0  0
    7.3276   -4.3475   25.0315 H   0  0  0  0  0  0  0  0  0  0  0  0
    6.5187   -2.6175   26.0683 C   0  0  0  0  0  0  0  0  0  0  0  0
    7.8445   -1.4684   22.8326 N   0  0  0  0  0  0  0  0  0  0  0  0
    6.8844   -0.7485   22.2070 N   0  0  0  0  0  0  0  0  0  0  0  0
    5.4289    0.6578   20.1649 C   0  0  0  0  0  0  0  0  0  0  0  0
    4.9996    0.6334   21.1701 H   0  0  0  0  0  0  0  0  0  0  0  0
    4.8042    1.3108   19.1099 C   0  0  0  0  0  0  0  0  0  0  0  0
    3.8731    1.8442   19.2618 H   0  0  0  0  0  0  0  0  0  0  0  0
  1  2  1  0
  2  3  2  0
  3  4  1  0
  4  5  1  0
  4  6  2  0
  6  7  1  0
  7  8  1  0
  8  9  2  0
  9 10  1  0
 10 11  1  0
 11 12  1  0
 11 13  2  0
 13 14  1  0
 14 15  2  0
 15 16  1  0
 15 17  1  0
 17 18  2  0
 18 19  1  0
 18 20  1  0
 20 21  2  0
 21 22  1  0
 21 23  1  0
 23 24  1  0
 23 25  2  0
 25 26  1  0
 25 27  1  0
 27 28  1  0
 27 29  2  0
 13 30  1  0
 30 31  1  0
  6 32  1  0
 32 33  1  0
 32 34  2  0
 34 35  1  0
 34  2  1  0
 31  7  2  0
 30  9  1  0
 29 14  1  0
 29 20  1  0
M  END
>  <cnnaffinity>  (1) 
-5.81295

>  <filename>  (1) 
c1cncc(-c2nc3scc(-c4cncc5ccccc45)n3n2)c1

$$$$
