
     RDKit          3D

 39 42  0  0  0  0  0  0  0  0999 V2000
    4.9528    1.8106   16.9770 H   0  0  0  0  0  0  0  0  0  0  0  0
    5.4025    1.2975   17.8238 C   0  0  0  0  0  0  0  0  0  0  0  0
    6.5582    0.6601   17.5755 N   0  0  0  0  0  0  0  0  0  0  0  0
    7.1508    0.0347   18.5986 C   0  0  0  0  0  0  0  0  0  0  0  0
    8.0971   -0.4534   18.3619 H   0  0  0  0  0  0  0  0  0  0  0  0
    6.6268   -0.0135   19.8973 C   0  0  0  0  0  0  0  0  0  0  0  0
    7.3474   -0.6979   20.9693 C   0  0  0  0  0  0  0  0  0  0  0  0
    6.6916   -1.5091   21.8625 N   0  0  0  0  0  0  0  0  0  0  0  0
    7.6166   -1.8801   22.6991 C   0  0  0  0  0  0  0  0  0  0  0  0
    8.8444   -1.3692   22.4166 N   0  0  0  0  0  0  0  0  0  0  0  0
    8.6833   -0.5593   21.3147 C   0  0  0  0  0  0  0  0  0  0  0  0
    9.7066    0.4439   20.9079 C   0  0  0  0  0  0  0  0  0  0  0  0
    9.4699    0.7717   19.8836 H   0  0  0  0  0  0  0  0  0  0  0  0
   10.6894   -0.0529   20.8626 H   0  0  0  0  0  0  0  0  0  0  0  0
    9.8000    1.5851   21.8355 N   0  0  0  0  0  0  0  0  0  0  0  0
    8.6088    2.4507   21.7719 C   0  0  0  0  0  0  0  0  0  0  0  0
    7.7187    1.8589   22.0137 H   0  0  0  0  0  0  0  0  0  0  0  0
    8.4773    2.8571   20.7539 H   0  0  0  0  0  0  0  0  0  0  0  0
    8.7170    3.6100   22.7719 C   0  0  0  0  0  0  0  0  0  0  0  0
    7.9011    4.3225   22.6053 H   0  0  0  0  0  0  0  0  0  0  0  0
    8.6444    3.2120   23.7989 H   0  0  0  0  0  0  0  0  0  0  0  0
    9.9107    4.3626   22.6155 O   0  0  0  0  0  0  0  0  0  0  0  0
   11.0731    3.5453   22.6238 C   0  0  0  0  0  0  0  0  0  0  0  0
   11.2314    3.1168   23.6276 H   0  0  0  0  0  0  0  0  0  0  0  0
   11.9045    4.2145   22.3774 H   0  0  0  0  0  0  0  0  0  0  0  0
   11.0049    2.3957   21.6122 C   0  0  0  0  0  0  0  0  0  0  0  0
   11.0657    2.8029   20.5834 H   0  0  0  0  0  0  0  0  0  0  0  0
   11.8866    1.7630   21.7694 H   0  0  0  0  0  0  0  0  0  0  0  0
    9.8646   -1.3835   23.4528 C   0  0  0  0  0  0  0  0  0  0  0  0
   10.0167   -0.3517   23.7980 H   0  0  0  0  0  0  0  0  0  0  0  0
   10.8199   -1.7351   23.0435 H   0  0  0  0  0  0  0  0  0  0  0  0
    9.3349   -2.3345   24.5637 C   0  0  0  0  0  0  0  0  0  0  0  0
    9.9005   -3.2692   24.5852 H   0  0  0  0  0  0  0  0  0  0  0  0
    9.4087   -1.8786   25.5539 H   0  0  0  0  0  0  0  0  0  0  0  0
    7.5654   -2.7354   24.2253 S   0  0  0  0  0  0  0  0  0  0  0  0
    5.4072    0.6409   20.1354 C   0  0  0  0  0  0  0  0  0  0  0  0
    4.9666    0.6171   21.1357 H   0  0  0  0  0  0  0  0  0  0  0  0
    4.7930    1.3147   19.0847 C   0  0  0  0  0  0  0  0  0  0  0  0
    3.8622    1.8582   19.2210 H   0  0  0  0  0  0  0  0  0  0  0  0
  1  2  1  0
  2  3  2  0
  3  4  1  0
  4  5  1  0
  4  6  2  0
  6  7  1  0
  7  8  1  0
  8  9  2  0
  9 10  1  0
 10 11  1  0
 11 12  1  0
 12 13  1  0
 12 14  1  0
 12 15  1  0
 15 16  1  0
 16 17  1  0
 16 18  1  0
 16 19  1  0
 19 20  1  0
 19 21  1  0
 19 22  1  0
 22 23  1  0
 23 24  1  0
 23 25  1  0
 23 26  1  0
 26 27  1  0
 26 28  1  0
 10 29  1  0
 29 30  1  0
 29 31  1  0
 29 32  1  0
 32 33  1  0
 32 34  1  0
 32 35  1  0
  6 36  1  0
 36 37  1  0
 36 38  2  0
 38 39  1  0
 38  2  1  0
 11  7  2  0
 26 15  1  0
 35  9  1  0
M  END
>  <cnnaffinity>  (1) 
-5.11114

>  <filename>  (1) 
c1cncc(-c2nc3n(c2CN2CCOCC2)CCS3)c1

$$$$
