
     RDKit          3D

 31 33  0  0  0  0  0  0  0  0999 V2000
    4.9223    1.8284   16.9583 H   0  0  0  0  0  0  0  0  0  0  0  0
    5.3952    1.3131   17.7916 C   0  0  0  0  0  0  0  0  0  0  0  0
    6.5544    0.6876   17.5268 N   0  0  0  0  0  0  0  0  0  0  0  0
    7.1621    0.0683   18.5465 C   0  0  0  0  0  0  0  0  0  0  0  0
    8.1056   -0.4145   18.2927 H   0  0  0  0  0  0  0  0  0  0  0  0
    6.6707    0.0312   19.8726 C   0  0  0  0  0  0  0  0  0  0  0  0
    7.4099   -0.6347   20.9730 C   0  0  0  0  0  0  0  0  0  0  0  0
    7.7408   -0.2099   22.2529 C   0  0  0  0  0  0  0  0  0  0  0  0
    7.4719    1.1486   22.8490 C   0  0  0  0  0  0  0  0  0  0  0  0
    7.6932    1.1472   23.9228 H   0  0  0  0  0  0  0  0  0  0  0  0
    6.4033    1.3788   22.7739 H   0  0  0  0  0  0  0  0  0  0  0  0
    8.2777    2.2709   22.1521 C   0  0  0  0  0  0  0  0  0  0  0  0
    8.0407    2.2393   21.0824 H   0  0  0  0  0  0  0  0  0  0  0  0
    7.9473    3.2478   22.5325 H   0  0  0  0  0  0  0  0  0  0  0  0
    9.7711    2.1274   22.3458 C   0  0  0  0  0  0  0  0  0  0  0  0
   10.7613    1.4726   21.0899 S   0  0  0  0  0  0  0  0  0  0  0  0
   12.1458    1.4069   22.0942 C   0  0  0  0  0  0  0  0  0  0  0  0
   13.0636    0.9789   21.7059 H   0  0  0  0  0  0  0  0  0  0  0  0
   11.8712    1.9009   23.3331 C   0  0  0  0  0  0  0  0  0  0  0  0
   12.5908    1.9719   24.1360 H   0  0  0  0  0  0  0  0  0  0  0  0
   10.5119    2.3223   23.4790 C   0  0  0  0  0  0  0  0  0  0  0  0
   10.1116    2.7530   24.3965 H   0  0  0  0  0  0  0  0  0  0  0  0
    8.4715   -1.2895   22.8030 C   0  0  0  0  0  0  0  0  0  0  0  0
    8.9261   -1.3423   23.7857 H   0  0  0  0  0  0  0  0  0  0  0  0
    8.5799   -2.3111   21.9559 N   0  0  0  0  0  0  0  0  0  0  0  0
    7.9366   -1.8816   20.8597 N   0  0  0  0  0  0  0  0  0  0  0  0
    7.8270   -2.5013   20.0685 H   0  0  0  0  0  0  0  0  0  0  0  0
    5.4448    0.6739   20.1134 C   0  0  0  0  0  0  0  0  0  0  0  0
    5.0035    0.6498   21.1113 H   0  0  0  0  0  0  0  0  0  0  0  0
    4.8009    1.3198   19.0574 C   0  0  0  0  0  0  0  0  0  0  0  0
    3.8614    1.8383   19.2066 H   0  0  0  0  0  0  0  0  0  0  0  0
  1  2  1  0
  2  3  2  0
  3  4  1  0
  4  5  1  0
  4  6  2  0
  6  7  1  0
  7  8  2  0
  8  9  1  0
  9 10  1  0
  9 11  1  0
  9 12  1  0
 12 13  1  0
 12 14  1  0
 12 15  1  0
 15 16  1  0
 16 17  1  0
 17 18  1  0
 17 19  2  0
 19 20  1  0
 19 21  1  0
 21 22  1  0
  8 23  1  0
 23 24  1  0
 23 25  2  0
 25 26  1  0
 26 27  1  0
  6 28  1  0
 28 29  1  0
 28 30  2  0
 30 31  1  0
 30  2  1  0
 26  7  1  0
 21 15  2  0
M  END
>  <cnnaffinity>  (1) 
-5.48684

>  <filename>  (1) 
c1cncc(-c2[nH]ncc2CCc2cccs2)c1

$$$$
