
     RDKit          3D

 33 36  0  0  0  0  0  0  0  0999 V2000
    9.2781   -3.2974   21.3322 H   0  0  0  0  0  0  0  0  0  0  0  0
    8.7368   -2.4035   21.6240 C   0  0  0  0  0  0  0  0  0  0  0  0
    8.1130   -1.7502   20.6466 N   0  0  0  0  0  0  0  0  0  0  0  0
    7.4165   -0.6711   20.9963 C   0  0  0  0  0  0  0  0  0  0  0  0
    6.6643    0.0112   19.9240 C   0  0  0  0  0  0  0  0  0  0  0  0
    7.1776    0.0274   18.6162 C   0  0  0  0  0  0  0  0  0  0  0  0
    8.1155   -0.4733   18.3824 H   0  0  0  0  0  0  0  0  0  0  0  0
    6.5811    0.6514   17.5959 N   0  0  0  0  0  0  0  0  0  0  0  0
    5.4232    1.2831   17.8380 C   0  0  0  0  0  0  0  0  0  0  0  0
    4.9732    1.8018   16.9929 H   0  0  0  0  0  0  0  0  0  0  0  0
    4.8078    1.2998   19.0918 C   0  0  0  0  0  0  0  0  0  0  0  0
    3.8749    1.8328   19.2282 H   0  0  0  0  0  0  0  0  0  0  0  0
    5.4408    0.6566   20.1525 C   0  0  0  0  0  0  0  0  0  0  0  0
    4.9838    0.6514   21.1431 H   0  0  0  0  0  0  0  0  0  0  0  0
    7.3969   -0.2165   22.3136 C   0  0  0  0  0  0  0  0  0  0  0  0
    6.8750    0.6863   22.5922 H   0  0  0  0  0  0  0  0  0  0  0  0
    8.0986   -0.9611   23.2671 C   0  0  0  0  0  0  0  0  0  0  0  0
    8.1573   -0.5683   24.7114 C   0  0  0  0  0  0  0  0  0  0  0  0
    9.3493   -0.6162   25.4463 C   0  0  0  0  0  0  0  0  0  0  0  0
   10.2568   -0.9649   24.9700 H   0  0  0  0  0  0  0  0  0  0  0  0
    9.4080   -0.2145   26.7946 C   0  0  0  0  0  0  0  0  0  0  0  0
   10.3616   -0.2201   27.3098 H   0  0  0  0  0  0  0  0  0  0  0  0
    8.2780    0.1982   27.4893 C   0  0  0  0  0  0  0  0  0  0  0  0
    8.3513    0.5327   28.5216 H   0  0  0  0  0  0  0  0  0  0  0  0
    7.0671    0.1975   26.7784 C   0  0  0  0  0  0  0  0  0  0  0  0
    7.0013   -0.1102   25.3937 C   0  0  0  0  0  0  0  0  0  0  0  0
    5.6414    0.1238   25.0009 C   0  0  0  0  0  0  0  0  0  0  0  0
    5.2873    0.1216   23.9920 H   0  0  0  0  0  0  0  0  0  0  0  0
    4.9351    0.4595   26.1123 C   0  0  0  0  0  0  0  0  0  0  0  0
    3.8711    0.6214   26.2406 H   0  0  0  0  0  0  0  0  0  0  0  0
    5.7907    0.5024   27.1864 N   0  0  0  0  0  0  0  0  0  0  0  0
    5.5341    0.8518   28.0927 H   0  0  0  0  0  0  0  0  0  0  0  0
    8.7824   -2.0584   22.9082 N   0  0  0  0  0  0  0  0  0  0  0  0
  1  2  1  0
  2  3  2  0
  3  4  1  0
  4  5  1  0
  5  6  2  0
  6  7  1  0
  6  8  1  0
  8  9  2  0
  9 10  1  0
  9 11  1  0
 11 12  1  0
 11 13  2  0
 13 14  1  0
  4 15  2  0
 15 16  1  0
 15 17  1  0
 17 18  1  0
 18 19  2  0
 19 20  1  0
 19 21  1  0
 21 22  1  0
 21 23  2  0
 23 24  1  0
 23 25  1  0
 25 26  2  0
 26 27  1  0
 27 28  1  0
 27 29  2  0
 29 30  1  0
 29 31  1  0
 31 32  1  0
 17 33  2  0
 33  2  1  0
 13  5  1  0
 26 18  1  0
 31 25  1  0
M  END
>  <cnnaffinity>  (1) 
-5.2508

>  <filename>  (1) 
c1cncc(-c2cc(-c3cccc4[nH]ccc34)ncn2)c1

$$$$
