
     RDKit          3D

 41 43  0  0  0  0  0  0  0  0999 V2000
    5.0951    1.7420   17.1336 H   0  0  0  0  0  0  0  0  0  0  0  0
    5.5540    1.2977   18.0144 C   0  0  0  0  0  0  0  0  0  0  0  0
    6.6628    0.5774   17.8104 N   0  0  0  0  0  0  0  0  0  0  0  0
    7.2376    0.0144   18.8851 C   0  0  0  0  0  0  0  0  0  0  0  0
    8.1104   -0.5945   18.6596 H   0  0  0  0  0  0  0  0  0  0  0  0
    6.7935    0.1524   20.2193 C   0  0  0  0  0  0  0  0  0  0  0  0
    7.6124   -0.5195   21.3609 C   0  0  0  0  0  0  0  0  0  0  0  0
    7.3876   -2.0795   21.2800 C   0  0  0  0  0  0  0  0  0  0  0  0
    7.5848   -2.3122   20.2277 H   0  0  0  0  0  0  0  0  0  0  0  0
    5.9463   -2.5363   21.5728 C   0  0  0  0  0  0  0  0  0  0  0  0
    5.7621   -2.4421   22.6542 H   0  0  0  0  0  0  0  0  0  0  0  0
    5.2317   -1.8765   21.0711 H   0  0  0  0  0  0  0  0  0  0  0  0
    5.7106   -4.0079   21.1605 C   0  0  0  0  0  0  0  0  0  0  0  0
    5.5575   -4.0914   20.0746 H   0  0  0  0  0  0  0  0  0  0  0  0
    4.7743   -4.3445   21.6184 H   0  0  0  0  0  0  0  0  0  0  0  0
    6.8793   -4.9519   21.5647 C   0  0  0  0  0  0  0  0  0  0  0  0
    6.4797   -5.8740   22.0096 H   0  0  0  0  0  0  0  0  0  0  0  0
    7.4340   -5.2421   20.6633 H   0  0  0  0  0  0  0  0  0  0  0  0
    7.8570   -4.3065   22.5614 C   0  0  0  0  0  0  0  0  0  0  0  0
    8.7016   -4.9765   22.7624 H   0  0  0  0  0  0  0  0  0  0  0  0
    7.3389   -4.1674   23.5198 H   0  0  0  0  0  0  0  0  0  0  0  0
    8.3939   -2.9351   22.0988 C   0  0  0  0  0  0  0  0  0  0  0  0
    8.7178   -2.3865   22.9913 H   0  0  0  0  0  0  0  0  0  0  0  0
    9.2949   -3.0693   21.4872 H   0  0  0  0  0  0  0  0  0  0  0  0
    7.2194    0.0453   22.7559 C   0  0  0  0  0  0  0  0  0  0  0  0
    6.1380    0.0062   22.9003 H   0  0  0  0  0  0  0  0  0  0  0  0
    7.6583   -0.5809   23.5431 H   0  0  0  0  0  0  0  0  0  0  0  0
    7.6859    1.4921   22.9650 C   0  0  0  0  0  0  0  0  0  0  0  0
    7.1054    2.1860   22.3295 H   0  0  0  0  0  0  0  0  0  0  0  0
    7.5517    1.7933   24.0096 H   0  0  0  0  0  0  0  0  0  0  0  0
    9.0723    1.6501   22.7132 O   0  0  0  0  0  0  0  0  0  0  0  0
    9.4426    1.2689   21.3992 C   0  0  0  0  0  0  0  0  0  0  0  0
   10.5188    1.4636   21.3030 H   0  0  0  0  0  0  0  0  0  0  0  0
    8.9069    1.8812   20.6499 H   0  0  0  0  0  0  0  0  0  0  0  0
    9.1394   -0.2118   21.1945 C   0  0  0  0  0  0  0  0  0  0  0  0
    9.6947   -0.7607   21.9647 H   0  0  0  0  0  0  0  0  0  0  0  0
    9.5158   -0.5544   20.2265 H   0  0  0  0  0  0  0  0  0  0  0  0
    5.5779    0.8451   20.3830 C   0  0  0  0  0  0  0  0  0  0  0  0
    5.1025    0.9284   21.3619 H   0  0  0  0  0  0  0  0  0  0  0  0
    4.9610    1.4362   19.2735 C   0  0  0  0  0  0  0  0  0  0  0  0
    4.0432    2.0038   19.3731 H   0  0  0  0  0  0  0  0  0  0  0  0
  1  2  1  0
  2  3  2  0
  3  4  1  0
  4  5  1  0
  4  6  2  0
  6  7  1  0
  7  8  1  0
  8  9  1  0
  8 10  1  0
 10 11  1  0
 10 12  1  0
 10 13  1  0
 13 14  1  0
 13 15  1  0
 13 16  1  0
 16 17  1  0
 16 18  1  0
 16 19  1  0
 19 20  1  0
 19 21  1  0
 19 22  1  0
 22 23  1  0
 22 24  1  0
  7 25  1  0
 25 26  1  0
 25 27  1  0
 25 28  1  0
 28 29  1  0
 28 30  1  0
 28 31  1  0
 31 32  1  0
 32 33  1  0
 32 34  1  0
 32 35  1  0
 35 36  1  0
 35 37  1  0
  6 38  1  0
 38 39  1  0
 38 40  2  0
 40 41  1  0
 40  2  1  0
 35  7  1  0
 22  8  1  0
M  END
>  <cnnaffinity>  (1) 
-4.80167

>  <filename>  (1) 
c1cncc(C2(C3CCCCC3)CCOCC2)c1

$$$$
