
     RDKit          3D

 35 39  0  0  0  0  0  0  0  0999 V2000
    4.9834    1.8562   16.9026 H   0  0  0  0  0  0  0  0  0  0  0  0
    5.4171    1.3036   17.7321 C   0  0  0  0  0  0  0  0  0  0  0  0
    6.5630    0.6525   17.4758 N   0  0  0  0  0  0  0  0  0  0  0  0
    7.1377    0.0009   18.4921 C   0  0  0  0  0  0  0  0  0  0  0  0
    8.0757   -0.5072   18.2722 H   0  0  0  0  0  0  0  0  0  0  0  0
    6.6073   -0.0375   19.7959 C   0  0  0  0  0  0  0  0  0  0  0  0
    7.3579   -0.6527   20.9039 C   0  0  0  0  0  0  0  0  0  0  0  0
    8.4879   -1.3452   20.6897 N   0  0  0  0  0  0  0  0  0  0  0  0
    8.9181   -1.6089   21.9429 N   0  0  0  0  0  0  0  0  0  0  0  0
   10.0398   -2.2148   22.4964 C   0  0  0  0  0  0  0  0  0  0  0  0
   10.7893   -2.6706   21.8753 H   0  0  0  0  0  0  0  0  0  0  0  0
    9.9129   -2.0674   23.8403 C   0  0  0  0  0  0  0  0  0  0  0  0
   10.5397   -2.4111   24.6472 H   0  0  0  0  0  0  0  0  0  0  0  0
    8.7358   -1.3794   24.1251 N   0  0  0  0  0  0  0  0  0  0  0  0
    8.2626   -0.9880   25.4018 C   0  0  0  0  0  0  0  0  0  0  0  0
    9.1625   -0.6270   26.4170 C   0  0  0  0  0  0  0  0  0  0  0  0
   10.2324   -0.6428   26.2204 H   0  0  0  0  0  0  0  0  0  0  0  0
    8.6977   -0.1921   27.6755 C   0  0  0  0  0  0  0  0  0  0  0  0
    9.3853    0.0283   28.4852 H   0  0  0  0  0  0  0  0  0  0  0  0
    7.3303   -0.0545   27.8394 C   0  0  0  0  0  0  0  0  0  0  0  0
    6.4400   -0.4366   26.8338 C   0  0  0  0  0  0  0  0  0  0  0  0
    6.8644   -0.9430   25.6252 C   0  0  0  0  0  0  0  0  0  0  0  0
    6.1651   -1.2291   24.8472 H   0  0  0  0  0  0  0  0  0  0  0  0
    5.1643   -0.1358   27.2123 O   0  0  0  0  0  0  0  0  0  0  0  0
    5.2550    0.3917   28.5349 C   0  0  0  0  0  0  0  0  0  0  0  0
    4.7695    1.3764   28.5721 H   0  0  0  0  0  0  0  0  0  0  0  0
    4.7753   -0.2975   29.2420 H   0  0  0  0  0  0  0  0  0  0  0  0
    6.6358    0.5146   28.8724 O   0  0  0  0  0  0  0  0  0  0  0  0
    8.1251   -1.1088   22.9106 C   0  0  0  0  0  0  0  0  0  0  0  0
    7.0585   -0.4966   22.2776 C   0  0  0  0  0  0  0  0  0  0  0  0
    6.1984   -0.0067   22.6970 H   0  0  0  0  0  0  0  0  0  0  0  0
    5.3864    0.6170   20.0339 C   0  0  0  0  0  0  0  0  0  0  0  0
    4.9267    0.6183   21.0261 H   0  0  0  0  0  0  0  0  0  0  0  0
    4.7897    1.3009   18.9823 C   0  0  0  0  0  0  0  0  0  0  0  0
    3.8747    1.8611   19.1332 H   0  0  0  0  0  0  0  0  0  0  0  0
  1  2  1  0
  2  3  2  0
  3  4  1  0
  4  5  1  0
  4  6  2  0
  6  7  1  0
  7  8  2  0
  8  9  1  0
  9 10  1  0
 10 11  1  0
 10 12  2  0
 12 13  1  0
 12 14  1  0
 14 15  1  0
 15 16  2  0
 16 17  1  0
 16 18  1  0
 18 19  1  0
 18 20  2  0
 20 21  1  0
 21 22  2  0
 22 23  1  0
 21 24  1  0
 24 25  1  0
 25 26  1  0
 25 27  1  0
 25 28  1  0
 14 29  1  0
 29 30  2  0
 30 31  1  0
  6 32  1  0
 32 33  1  0
 32 34  2  0
 34 35  1  0
 34  2  1  0
 30  7  1  0
 29  9  1  0
 22 15  1  0
 28 20  1  0
M  END
>  <cnnaffinity>  (1) 
-5.30487

>  <filename>  (1) 
c1cncc(-c2cc3n(-c4ccc5c(c4)OCO5)ccn3n2)c1

$$$$
