
     RDKit          3D

 36 40  0  0  0  0  0  0  0  0999 V2000
    5.0485    1.8663   17.1712 H   0  0  0  0  0  0  0  0  0  0  0  0
    5.5107    1.2251   17.9200 C   0  0  0  0  0  0  0  0  0  0  0  0
    6.6291    0.5859   17.5429 N   0  0  0  0  0  0  0  0  0  0  0  0
    7.2359   -0.1804   18.4592 C   0  0  0  0  0  0  0  0  0  0  0  0
    8.1411   -0.6852   18.1262 H   0  0  0  0  0  0  0  0  0  0  0  0
    6.7695   -0.3597   19.7752 C   0  0  0  0  0  0  0  0  0  0  0  0
    7.6185   -1.0218   20.7895 C   0  0  0  0  0  0  0  0  0  0  0  0
    8.9121   -0.7381   21.0466 C   0  0  0  0  0  0  0  0  0  0  0  0
    9.5558   -0.0893   20.4632 H   0  0  0  0  0  0  0  0  0  0  0  0
    9.4804   -1.4152   22.5531 S   0  0  0  0  0  0  0  0  0  0  0  0
    7.8942   -2.0658   22.8469 C   0  0  0  0  0  0  0  0  0  0  0  0
    7.2556   -2.7068   23.8047 N   0  0  0  0  0  0  0  0  0  0  0  0
    6.0112   -2.8834   23.2634 C   0  0  0  0  0  0  0  0  0  0  0  0
    4.8881   -3.5913   23.9278 C   0  0  0  0  0  0  0  0  0  0  0  0
    4.0202   -4.3275   23.1350 C   0  0  0  0  0  0  0  0  0  0  0  0
    4.2028   -4.4140   22.0647 H   0  0  0  0  0  0  0  0  0  0  0  0
    2.8561   -4.9304   23.6689 C   0  0  0  0  0  0  0  0  0  0  0  0
    2.1936   -5.4844   23.0108 H   0  0  0  0  0  0  0  0  0  0  0  0
    2.5667   -4.8197   25.0083 C   0  0  0  0  0  0  0  0  0  0  0  0
    1.6528   -5.2489   25.4201 H   0  0  0  0  0  0  0  0  0  0  0  0
    3.4631   -4.1434   25.8851 C   0  0  0  0  0  0  0  0  0  0  0  0
    3.1927   -4.0878   27.2860 C   0  0  0  0  0  0  0  0  0  0  0  0
    2.3290   -4.6299   27.6700 H   0  0  0  0  0  0  0  0  0  0  0  0
    4.0322   -3.4228   28.1441 C   0  0  0  0  0  0  0  0  0  0  0  0
    3.8309   -3.3971   29.2140 H   0  0  0  0  0  0  0  0  0  0  0  0
    5.1938   -2.7875   27.6320 C   0  0  0  0  0  0  0  0  0  0  0  0
    5.8440   -2.2515   28.3165 H   0  0  0  0  0  0  0  0  0  0  0  0
    5.5073   -2.8422   26.2925 C   0  0  0  0  0  0  0  0  0  0  0  0
    6.4308   -2.3986   25.9346 H   0  0  0  0  0  0  0  0  0  0  0  0
    4.6489   -3.5144   25.3583 C   0  0  0  0  0  0  0  0  0  0  0  0
    5.8748   -2.4070   22.0194 N   0  0  0  0  0  0  0  0  0  0  0  0
    7.0832   -1.8285   21.8011 N   0  0  0  0  0  0  0  0  0  0  0  0
    5.5533    0.2526   20.1208 C   0  0  0  0  0  0  0  0  0  0  0  0
    5.1259    0.0753   21.1088 H   0  0  0  0  0  0  0  0  0  0  0  0
    4.9348    1.0823   19.1877 C   0  0  0  0  0  0  0  0  0  0  0  0
    4.0308    1.6268   19.4322 H   0  0  0  0  0  0  0  0  0  0  0  0
  1  2  1  0
  2  3  2  0
  3  4  1  0
  4  5  1  0
  4  6  2  0
  6  7  1  0
  7  8  2  0
  8  9  1  0
  8 10  1  0
 10 11  1  0
 11 12  2  0
 12 13  1  0
 13 14  1  0
 14 15  2  0
 15 16  1  0
 15 17  1  0
 17 18  1  0
 17 19  2  0
 19 20  1  0
 19 21  1  0
 21 22  2  0
 22 23  1  0
 22 24  1  0
 24 25  1  0
 24 26  2  0
 26 27  1  0
 26 28  1  0
 28 29  1  0
 28 30  2  0
 13 31  2  0
 31 32  1  0
  6 33  1  0
 33 34  1  0
 33 35  2  0
 35 36  1  0
 35  2  1  0
 32  7  1  0
 32 11  1  0
 30 14  1  0
 30 21  1  0
M  END
>  <cnnaffinity>  (1) 
-5.54894

>  <filename>  (1) 
c1cncc(-c2csc3nc(-c4cccc5ccccc45)nn23)c1

$$$$
