
     RDKit          3D

 27 29  0  0  0  0  0  0  0  0999 V2000
    9.3274   -0.2823   20.3289 H   0  0  0  0  0  0  0  0  0  0  0  0
    8.7510   -0.7903   21.0946 C   0  0  0  0  0  0  0  0  0  0  0  0
    9.4462   -1.4098   22.0750 N   0  0  0  0  0  0  0  0  0  0  0  0
    8.7126   -2.0063   23.0191 C   0  0  0  0  0  0  0  0  0  0  0  0
    9.2266   -2.4999   23.8382 H   0  0  0  0  0  0  0  0  0  0  0  0
    7.2786   -1.9919   22.9758 C   0  0  0  0  0  0  0  0  0  0  0  0
    6.4555   -2.5966   23.8933 N   0  0  0  0  0  0  0  0  0  0  0  0
    5.5157   -2.2293   23.9433 H   0  0  0  0  0  0  0  0  0  0  0  0
    6.6455   -3.7905   24.5208 C   0  0  0  0  0  0  0  0  0  0  0  0
    5.9281   -4.0978   25.5456 N   0  0  0  0  0  0  0  0  0  0  0  0
    6.3726   -5.2841   26.0840 C   0  0  0  0  0  0  0  0  0  0  0  0
    5.8855   -5.6348   26.9867 H   0  0  0  0  0  0  0  0  0  0  0  0
    7.3918   -5.9027   25.4448 C   0  0  0  0  0  0  0  0  0  0  0  0
    7.9115   -6.8118   25.7168 H   0  0  0  0  0  0  0  0  0  0  0  0
    7.8444   -4.9733   24.0533 S   0  0  0  0  0  0  0  0  0  0  0  0
    6.5972   -1.3424   22.0359 N   0  0  0  0  0  0  0  0  0  0  0  0
    7.3346   -0.7542   21.0641 C   0  0  0  0  0  0  0  0  0  0  0  0
    6.5922   -0.0484   19.9863 C   0  0  0  0  0  0  0  0  0  0  0  0
    7.1401   -0.0124   18.6933 C   0  0  0  0  0  0  0  0  0  0  0  0
    8.0837   -0.5164   18.4823 H   0  0  0  0  0  0  0  0  0  0  0  0
    6.5825    0.6143   17.6547 N   0  0  0  0  0  0  0  0  0  0  0  0
    5.4318    1.2658   17.8775 C   0  0  0  0  0  0  0  0  0  0  0  0
    5.0017    1.7832   17.0226 H   0  0  0  0  0  0  0  0  0  0  0  0
    4.7928    1.2979   19.1217 C   0  0  0  0  0  0  0  0  0  0  0  0
    3.8713    1.8612   19.2366 H   0  0  0  0  0  0  0  0  0  0  0  0
    5.3752    0.6243   20.1968 C   0  0  0  0  0  0  0  0  0  0  0  0
    4.9107    0.6360   21.1845 H   0  0  0  0  0  0  0  0  0  0  0  0
  1  2  1  0
  2  3  2  0
  3  4  1  0
  4  5  1  0
  4  6  2  0
  6  7  1  0
  7  8  1  0
  7  9  1  0
  9 10  2  0
 10 11  1  0
 11 12  1  0
 11 13  2  0
 13 14  1  0
 13 15  1  0
  6 16  1  0
 16 17  2  0
 17 18  1  0
 18 19  2  0
 19 20  1  0
 19 21  1  0
 21 22  2  0
 22 23  1  0
 22 24  1  0
 24 25  1  0
 24 26  2  0
 26 27  1  0
 17  2  1  0
 26 18  1  0
 15  9  1  0
M  END
>  <cnnaffinity>  (1) 
-5.16522

>  <filename>  (1) 
c1cncc(-c2cncc(Nc3nccs3)n2)c1

$$$$
