
     RDKit          3D

 39 43  0  0  0  0  0  0  0  0999 V2000
    5.0261    1.8193   16.9134 H   0  0  0  0  0  0  0  0  0  0  0  0
    5.4486    1.3041   17.7729 C   0  0  0  0  0  0  0  0  0  0  0  0
    6.5870    0.6289   17.5555 N   0  0  0  0  0  0  0  0  0  0  0  0
    7.1420    0.0095   18.6008 C   0  0  0  0  0  0  0  0  0  0  0  0
    8.0414   -0.5657   18.3851 H   0  0  0  0  0  0  0  0  0  0  0  0
    6.6305    0.0718   19.9141 C   0  0  0  0  0  0  0  0  0  0  0  0
    7.3904   -0.5449   21.0203 C   0  0  0  0  0  0  0  0  0  0  0  0
    8.1501   -1.6200   20.7966 N   0  0  0  0  0  0  0  0  0  0  0  0
    8.6238   -1.9358   21.9983 N   0  0  0  0  0  0  0  0  0  0  0  0
    8.2635   -1.1219   22.9836 C   0  0  0  0  0  0  0  0  0  0  0  0
    7.4346   -0.1750   22.4090 C   0  0  0  0  0  0  0  0  0  0  0  0
    6.8951    0.9636   23.1350 C   0  0  0  0  0  0  0  0  0  0  0  0
    6.1226    0.7764   24.2848 C   0  0  0  0  0  0  0  0  0  0  0  0
    5.8620   -0.2346   24.5803 H   0  0  0  0  0  0  0  0  0  0  0  0
    5.6291    1.8638   25.0305 C   0  0  0  0  0  0  0  0  0  0  0  0
    4.9968    1.6798   25.8985 H   0  0  0  0  0  0  0  0  0  0  0  0
    5.9254    3.1713   24.6561 C   0  0  0  0  0  0  0  0  0  0  0  0
    5.5503    4.0239   25.2165 H   0  0  0  0  0  0  0  0  0  0  0  0
    6.7329    3.3560   23.5220 C   0  0  0  0  0  0  0  0  0  0  0  0
    7.2176    2.2812   22.7406 C   0  0  0  0  0  0  0  0  0  0  0  0
    8.0105    2.8563   21.6864 C   0  0  0  0  0  0  0  0  0  0  0  0
    8.5186    2.3033   20.9059 H   0  0  0  0  0  0  0  0  0  0  0  0
    7.9816    4.2097   21.8616 C   0  0  0  0  0  0  0  0  0  0  0  0
    8.4445    4.9851   21.2698 H   0  0  0  0  0  0  0  0  0  0  0  0
    7.2134    4.5157   22.9632 N   0  0  0  0  0  0  0  0  0  0  0  0
    6.9231    5.4401   23.2394 H   0  0  0  0  0  0  0  0  0  0  0  0
    8.9646   -1.4911   24.2601 C   0  0  0  0  0  0  0  0  0  0  0  0
    9.5650   -0.6548   24.6224 H   0  0  0  0  0  0  0  0  0  0  0  0
    8.2502   -1.7534   25.0439 H   0  0  0  0  0  0  0  0  0  0  0  0
    9.8582   -2.6862   23.8382 C   0  0  0  0  0  0  0  0  0  0  0  0
   10.9077   -2.4131   23.8826 H   0  0  0  0  0  0  0  0  0  0  0  0
    9.7285   -3.5447   24.4930 H   0  0  0  0  0  0  0  0  0  0  0  0
    9.5017   -3.0189   22.3673 C   0  0  0  0  0  0  0  0  0  0  0  0
   10.3813   -2.9837   21.7304 H   0  0  0  0  0  0  0  0  0  0  0  0
    8.9917   -3.9788   22.2508 H   0  0  0  0  0  0  0  0  0  0  0  0
    5.4013    0.7274   20.1063 C   0  0  0  0  0  0  0  0  0  0  0  0
    4.9194    0.7344   21.0875 H   0  0  0  0  0  0  0  0  0  0  0  0
    4.8029    1.3524   19.0118 C   0  0  0  0  0  0  0  0  0  0  0  0
    3.8554    1.8735   19.1013 H   0  0  0  0  0  0  0  0  0  0  0  0
  1  2  1  0
  2  3  2  0
  3  4  1  0
  4  5  1  0
  4  6  2  0
  6  7  1  0
  7  8  2  0
  8  9  1  0
  9 10  1  0
 10 11  2  0
 11 12  1  0
 12 13  2  0
 13 14  1  0
 13 15  1  0
 15 16  1  0
 15 17  2  0
 17 18  1  0
 17 19  1  0
 19 20  2  0
 20 21  1  0
 21 22  1  0
 21 23  2  0
 23 24  1  0
 23 25  1  0
 25 26  1  0
 10 27  1  0
 27 28  1  0
 27 29  1  0
 27 30  1  0
 30 31  1  0
 30 32  1  0
 30 33  1  0
 33 34  1  0
 33 35  1  0
  6 36  1  0
 36 37  1  0
 36 38  2  0
 38 39  1  0
 38  2  1  0
 11  7  1  0
 20 12  1  0
 33  9  1  0
 25 19  1  0
M  END
>  <cnnaffinity>  (1) 
-5.68417

>  <filename>  (1) 
c1cncc(-c2nn3c(c2-c2cccc4[nH]ccc24)CCC3)c1

$$$$
