
     RDKit          3D

 32 35  0  0  0  0  0  0  0  0999 V2000
    4.9952    1.8401   16.9177 H   0  0  0  0  0  0  0  0  0  0  0  0
    5.3882    1.3076   17.7845 C   0  0  0  0  0  0  0  0  0  0  0  0
    6.5397    0.6452   17.5955 N   0  0  0  0  0  0  0  0  0  0  0  0
    7.0618    0.0221   18.6612 C   0  0  0  0  0  0  0  0  0  0  0  0
    8.0005   -0.5009   18.4890 H   0  0  0  0  0  0  0  0  0  0  0  0
    6.4783   -0.0136   19.9458 C   0  0  0  0  0  0  0  0  0  0  0  0
    7.2341   -0.6354   21.0536 C   0  0  0  0  0  0  0  0  0  0  0  0
    8.5916   -0.5701   21.2994 C   0  0  0  0  0  0  0  0  0  0  0  0
    8.7920   -1.1775   22.5294 C   0  0  0  0  0  0  0  0  0  0  0  0
    7.6760   -1.6402   23.0603 N   0  0  0  0  0  0  0  0  0  0  0  0
    6.7347   -1.2966   22.1446 N   0  0  0  0  0  0  0  0  0  0  0  0
    5.7729   -1.5318   22.3501 H   0  0  0  0  0  0  0  0  0  0  0  0
   10.2137   -1.0992   22.9948 C   0  0  0  0  0  0  0  0  0  0  0  0
   10.2942   -0.5337   23.9280 H   0  0  0  0  0  0  0  0  0  0  0  0
   10.6398   -2.0929   23.1740 H   0  0  0  0  0  0  0  0  0  0  0  0
   10.9351   -0.3633   21.8033 C   0  0  2  0  0  0  0  0  0  0  0  0
   11.6300   -1.0817   21.3752 H   0  0  0  0  0  0  0  0  0  0  0  0
   11.7421    0.8293   22.2227 C   0  0  0  0  0  0  0  0  0  0  0  0
   11.0399    1.8886   22.7105 O   0  0  0  0  0  0  0  0  0  0  0  0
   11.9196    2.8639   23.0332 C   0  0  0  0  0  0  0  0  0  0  0  0
   11.4877    3.7639   23.4478 H   0  0  0  0  0  0  0  0  0  0  0  0
   13.1820    2.4598   22.7692 C   0  0  0  0  0  0  0  0  0  0  0  0
   14.0767    3.0482   22.9016 H   0  0  0  0  0  0  0  0  0  0  0  0
   13.0746    1.1259   22.2513 C   0  0  0  0  0  0  0  0  0  0  0  0
   13.8989    0.4992   21.9355 H   0  0  0  0  0  0  0  0  0  0  0  0
    9.8522   -0.0508   20.7099 C   0  0  0  0  0  0  0  0  0  0  0  0
    9.7727    1.0142   20.4663 H   0  0  0  0  0  0  0  0  0  0  0  0
   10.0861   -0.5903   19.7861 H   0  0  0  0  0  0  0  0  0  0  0  0
    5.2560    0.6639   20.1127 C   0  0  0  0  0  0  0  0  0  0  0  0
    4.7593    0.7046   21.0864 H   0  0  0  0  0  0  0  0  0  0  0  0
    4.7160    1.3363   19.0137 C   0  0  0  0  0  0  0  0  0  0  0  0
    3.8010    1.9110   19.0959 H   0  0  0  0  0  0  0  0  0  0  0  0
  1  2  1  0
  2  3  2  0
  3  4  1  0
  4  5  1  0
  4  6  2  0
  6  7  1  0
  7  8  2  0
  8  9  1  0
  9 10  2  0
 10 11  1  0
 11 12  1  0
  9 13  1  0
 13 14  1  0
 13 15  1  0
 13 16  1  0
 16 17  1  6
 16 18  1  0
 18 19  1  0
 19 20  1  0
 20 21  1  0
 20 22  2  0
 22 23  1  0
 22 24  1  0
 24 25  1  0
 16 26  1  0
 26 27  1  0
 26 28  1  0
  6 29  1  0
 29 30  1  0
 29 31  2  0
 31 32  1  0
 31  2  1  0
 11  7  1  0
 24 18  2  0
 26  8  1  0
M  END
>  <cnnaffinity>  (1) 
-5.40198

>  <filename>  (1) 
c1cncc(-c2[nH]nc3c2C[C@@H](c2ccco2)C3)c1

$$$$
