
     RDKit          3D

 39 43  0  0  0  0  0  0  0  0999 V2000
    4.9935    1.8405   16.9210 H   0  0  0  0  0  0  0  0  0  0  0  0
    5.3886    1.3072   17.7865 C   0  0  0  0  0  0  0  0  0  0  0  0
    6.5417    0.6460   17.5991 N   0  0  0  0  0  0  0  0  0  0  0  0
    7.0702    0.0229   18.6618 C   0  0  0  0  0  0  0  0  0  0  0  0
    8.0091   -0.4978   18.4731 H   0  0  0  0  0  0  0  0  0  0  0  0
    6.4902   -0.0110   19.9481 C   0  0  0  0  0  0  0  0  0  0  0  0
    7.2436   -0.6294   21.0627 C   0  0  0  0  0  0  0  0  0  0  0  0
    8.6014   -0.5608   21.2970 C   0  0  0  0  0  0  0  0  0  0  0  0
    8.8157   -1.1632   22.5296 C   0  0  0  0  0  0  0  0  0  0  0  0
    7.7097   -1.6348   23.0657 N   0  0  0  0  0  0  0  0  0  0  0  0
    6.7528   -1.2974   22.1556 N   0  0  0  0  0  0  0  0  0  0  0  0
    5.7927   -1.5360   22.3712 H   0  0  0  0  0  0  0  0  0  0  0  0
   10.2395   -1.0509   22.9947 C   0  0  0  0  0  0  0  0  0  0  0  0
   10.3167   -0.5394   23.9598 H   0  0  0  0  0  0  0  0  0  0  0  0
   10.6927   -2.0399   23.1169 H   0  0  0  0  0  0  0  0  0  0  0  0
   10.9282   -0.2194   21.8499 C   0  0  2  0  0  0  0  0  0  0  0  0
   11.7426   -0.8284   21.4486 H   0  0  0  0  0  0  0  0  0  0  0  0
   11.5223    1.0904   22.3338 C   0  0  0  0  0  0  0  0  0  0  0  0
   12.9027    1.3157   22.3024 C   0  0  0  0  0  0  0  0  0  0  0  0
   13.5528    0.5255   21.9325 H   0  0  0  0  0  0  0  0  0  0  0  0
   13.4610    2.5435   22.7320 C   0  0  0  0  0  0  0  0  0  0  0  0
   14.5346    2.6866   22.6471 H   0  0  0  0  0  0  0  0  0  0  0  0
   12.6607    3.5651   23.2255 C   0  0  0  0  0  0  0  0  0  0  0  0
   13.0732    4.5201   23.5455 H   0  0  0  0  0  0  0  0  0  0  0  0
   11.2767    3.3256   23.2975 C   0  0  0  0  0  0  0  0  0  0  0  0
   10.6883    2.1158   22.8543 C   0  0  0  0  0  0  0  0  0  0  0  0
    9.2704    2.2667   23.0885 C   0  0  0  0  0  0  0  0  0  0  0  0
    8.5136    1.5400   22.8442 H   0  0  0  0  0  0  0  0  0  0  0  0
    9.0592    3.4922   23.6494 C   0  0  0  0  0  0  0  0  0  0  0  0
    8.1365    3.9568   23.9795 H   0  0  0  0  0  0  0  0  0  0  0  0
   10.2753    4.1299   23.7751 N   0  0  0  0  0  0  0  0  0  0  0  0
   10.4342    5.0647   24.1083 H   0  0  0  0  0  0  0  0  0  0  0  0
    9.8620   -0.0315   20.7129 C   0  0  0  0  0  0  0  0  0  0  0  0
   10.1367   -0.6230   19.8363 H   0  0  0  0  0  0  0  0  0  0  0  0
    9.7673    1.0120   20.3923 H   0  0  0  0  0  0  0  0  0  0  0  0
    5.2664    0.6653   20.1120 C   0  0  0  0  0  0  0  0  0  0  0  0
    4.7697    0.7027   21.0833 H   0  0  0  0  0  0  0  0  0  0  0  0
    4.7198    1.3349   19.0156 C   0  0  0  0  0  0  0  0  0  0  0  0
    3.8032    1.9071   19.0985 H   0  0  0  0  0  0  0  0  0  0  0  0
  1  2  1  0
  2  3  2  0
  3  4  1  0
  4  5  1  0
  4  6  2  0
  6  7  1  0
  7  8  2  0
  8  9  1  0
  9 10  2  0
 10 11  1  0
 11 12  1  0
  9 13  1  0
 13 14  1  0
 13 15  1  0
 13 16  1  0
 16 17  1  6
 16 18  1  0
 18 19  2  0
 19 20  1  0
 19 21  1  0
 21 22  1  0
 21 23  2  0
 23 24  1  0
 23 25  1  0
 25 26  2  0
 26 27  1  0
 27 28  1  0
 27 29  2  0
 29 30  1  0
 29 31  1  0
 31 32  1  0
 16 33  1  0
 33 34  1  0
 33 35  1  0
  6 36  1  0
 36 37  1  0
 36 38  2  0
 38 39  1  0
 38  2  1  0
 11  7  1  0
 26 18  1  0
 33  8  1  0
 31 25  1  0
M  END
>  <cnnaffinity>  (1) 
-5.85231

>  <filename>  (1) 
c1cncc(-c2[nH]nc3c2C[C@@H](c2cccc4[nH]ccc24)C3)c1

$$$$
