
     RDKit          3D

 36 38  0  0  0  0  0  0  0  0999 V2000
    9.9323   -2.4368   21.8309 H   0  0  0  0  0  0  0  0  0  0  0  0
    8.9964   -1.8905   21.8734 C   0  0  0  0  0  0  0  0  0  0  0  0
    8.5275   -1.3275   20.7203 N   0  0  0  0  0  0  0  0  0  0  0  0
    7.4063   -0.7063   20.9374 C   0  0  0  0  0  0  0  0  0  0  0  0
    6.6556   -0.0021   19.8972 C   0  0  0  0  0  0  0  0  0  0  0  0
    7.1825    0.0377   18.5940 C   0  0  0  0  0  0  0  0  0  0  0  0
    8.1333   -0.4427   18.3695 H   0  0  0  0  0  0  0  0  0  0  0  0
    6.5807    0.6564   17.5764 N   0  0  0  0  0  0  0  0  0  0  0  0
    5.4217    1.2834   17.8290 C   0  0  0  0  0  0  0  0  0  0  0  0
    4.9642    1.7967   16.9873 H   0  0  0  0  0  0  0  0  0  0  0  0
    4.8115    1.3033   19.0887 C   0  0  0  0  0  0  0  0  0  0  0  0
    3.8776    1.8362   19.2352 H   0  0  0  0  0  0  0  0  0  0  0  0
    5.4381    0.6508   20.1469 C   0  0  0  0  0  0  0  0  0  0  0  0
    4.9946    0.6596   21.1461 H   0  0  0  0  0  0  0  0  0  0  0  0
    6.8642   -0.7673   22.5947 S   0  0  0  0  0  0  0  0  0  0  0  0
    8.2485   -1.7241   23.0028 C   0  0  0  0  0  0  0  0  0  0  0  0
    8.4839   -2.3174   24.3635 C   0  0  0  0  0  0  0  0  0  0  0  0
    9.5317   -2.1387   24.6420 H   0  0  0  0  0  0  0  0  0  0  0  0
    7.8754   -1.8073   25.1247 H   0  0  0  0  0  0  0  0  0  0  0  0
    8.2083   -3.8381   24.4483 C   0  0  0  0  0  0  0  0  0  0  0  0
    8.7966   -4.3464   23.6638 H   0  0  0  0  0  0  0  0  0  0  0  0
    6.7214   -4.1683   24.1976 C   0  0  0  0  0  0  0  0  0  0  0  0
    6.4238   -3.8186   23.2010 H   0  0  0  0  0  0  0  0  0  0  0  0
    6.1078   -3.6051   24.9227 H   0  0  0  0  0  0  0  0  0  0  0  0
    6.4231   -5.6672   24.3769 C   0  0  0  0  0  0  0  0  0  0  0  0
    5.3591   -5.8780   24.2004 H   0  0  0  0  0  0  0  0  0  0  0  0
    6.9732   -6.2473   23.6174 H   0  0  0  0  0  0  0  0  0  0  0  0
    6.8627   -6.1070   25.7872 C   0  0  0  0  0  0  0  0  0  0  0  0
    6.5505   -7.1294   26.0243 H   0  0  0  0  0  0  0  0  0  0  0  0
    6.3383   -5.4751   26.5199 H   0  0  0  0  0  0  0  0  0  0  0  0
    8.3763   -5.8914   25.9604 C   0  0  0  0  0  0  0  0  0  0  0  0
    8.9143   -6.4621   25.1867 H   0  0  0  0  0  0  0  0  0  0  0  0
    8.7387   -6.2741   26.9232 H   0  0  0  0  0  0  0  0  0  0  0  0
    8.6830   -4.3929   25.8082 C   0  0  0  0  0  0  0  0  0  0  0  0
    8.1686   -3.8427   26.6146 H   0  0  0  0  0  0  0  0  0  0  0  0
    9.7549   -4.1959   25.9362 H   0  0  0  0  0  0  0  0  0  0  0  0
  1  2  1  0
  2  3  1  0
  3  4  2  0
  4  5  1  0
  5  6  2  0
  6  7  1  0
  6  8  1  0
  8  9  2  0
  9 10  1  0
  9 11  1  0
 11 12  1  0
 11 13  2  0
 13 14  1  0
  4 15  1  0
 15 16  1  0
 16 17  1  0
 17 18  1  0
 17 19  1  0
 17 20  1  0
 20 21  1  0
 20 22  1  0
 22 23  1  0
 22 24  1  0
 22 25  1  0
 25 26  1  0
 25 27  1  0
 25 28  1  0
 28 29  1  0
 28 30  1  0
 28 31  1  0
 31 32  1  0
 31 33  1  0
 31 34  1  0
 34 35  1  0
 34 36  1  0
 16  2  2  0
 34 20  1  0
 13  5  1  0
M  END
>  <cnnaffinity>  (1) 
-5.38706

>  <filename>  (1) 
c1cncc(-c2ncc(CC3CCCCC3)s2)c1

$$$$
