
     RDKit          3D

 34 36  0  0  0  0  0  0  0  0999 V2000
    4.9202    1.7893   16.9831 H   0  0  0  0  0  0  0  0  0  0  0  0
    5.3965    1.2959   17.8278 C   0  0  0  0  0  0  0  0  0  0  0  0
    6.5594    0.6815   17.5663 N   0  0  0  0  0  0  0  0  0  0  0  0
    7.1674    0.0759   18.5985 C   0  0  0  0  0  0  0  0  0  0  0  0
    8.1084   -0.4189   18.3674 H   0  0  0  0  0  0  0  0  0  0  0  0
    6.6613    0.0176   19.9089 C   0  0  0  0  0  0  0  0  0  0  0  0
    7.4157   -0.6833   21.0115 C   0  0  0  0  0  0  0  0  0  0  0  0
    8.5369    0.1242   21.6599 C   0  0  0  0  0  0  0  0  0  0  0  0
    8.9849   -0.4889   22.4699 H   0  0  0  0  0  0  0  0  0  0  0  0
    9.3355    0.2587   20.9166 H   0  0  0  0  0  0  0  0  0  0  0  0
    8.1088    1.4350   22.1349 N   0  0  0  0  0  0  0  0  0  0  0  0
    9.2365    2.3549   22.3244 C   0  0  0  0  0  0  0  0  0  0  0  0
    9.9839    1.9626   23.0402 H   0  0  0  0  0  0  0  0  0  0  0  0
    9.7413    2.5001   21.3606 H   0  0  0  0  0  0  0  0  0  0  0  0
    8.7474    3.7109   22.8381 C   0  0  0  0  0  0  0  0  0  0  0  0
    9.5953    4.3652   23.0485 H   0  0  0  0  0  0  0  0  0  0  0  0
    8.1202    4.1797   22.0651 H   0  0  0  0  0  0  0  0  0  0  0  0
    8.0097    3.5902   24.0505 O   0  0  0  0  0  0  0  0  0  0  0  0
    6.8973    2.7227   23.8581 C   0  0  0  0  0  0  0  0  0  0  0  0
    6.3881    2.6500   24.8211 H   0  0  0  0  0  0  0  0  0  0  0  0
    6.2058    3.1638   23.1242 H   0  0  0  0  0  0  0  0  0  0  0  0
    7.3229    1.3347   23.3755 C   0  0  0  0  0  0  0  0  0  0  0  0
    6.4318    0.7192   23.2115 H   0  0  0  0  0  0  0  0  0  0  0  0
    7.9005    0.8547   24.1873 H   0  0  0  0  0  0  0  0  0  0  0  0
    7.6644   -2.1538   20.8275 C   0  0  0  0  0  0  0  0  0  0  0  0
    7.1563   -2.5611   19.9674 H   0  0  0  0  0  0  0  0  0  0  0  0
    8.6263   -2.5996   21.0959 H   0  0  0  0  0  0  0  0  0  0  0  0
    6.6734   -1.6994   21.8562 C   0  0  0  0  0  0  0  0  0  0  0  0
    5.6250   -1.8725   21.6185 H   0  0  0  0  0  0  0  0  0  0  0  0
    6.9176   -1.8224   22.9090 H   0  0  0  0  0  0  0  0  0  0  0  0
    5.4442    0.6632   20.1501 C   0  0  0  0  0  0  0  0  0  0  0  0
    5.0195    0.6294   21.1571 H   0  0  0  0  0  0  0  0  0  0  0  0
    4.8034    1.3165   19.0964 C   0  0  0  0  0  0  0  0  0  0  0  0
    3.8720    1.8418   19.2475 H   0  0  0  0  0  0  0  0  0  0  0  0
  1  2  1  0
  2  3  2  0
  3  4  1  0
  4  5  1  0
  4  6  2  0
  6  7  1  0
  7  8  1  0
  8  9  1  0
  8 10  1  0
  8 11  1  0
 11 12  1  0
 12 13  1  0
 12 14  1  0
 12 15  1  0
 15 16  1  0
 15 17  1  0
 15 18  1  0
 18 19  1  0
 19 20  1  0
 19 21  1  0
 19 22  1  0
 22 23  1  0
 22 24  1  0
  7 25  1  0
 25 26  1  0
 25 27  1  0
 25 28  1  0
 28 29  1  0
 28 30  1  0
  6 31  1  0
 31 32  1  0
 31 33  2  0
 33 34  1  0
 33  2  1  0
 28  7  1  0
 22 11  1  0
M  END
>  <cnnaffinity>  (1) 
-4.41609

>  <filename>  (1) 
c1cncc(C2(CN3CCOCC3)CC2)c1

$$$$
