
     RDKit          3D

 33 35  0  0  0  0  0  0  0  0999 V2000
    4.9180    1.7745   17.0041 H   0  0  0  0  0  0  0  0  0  0  0  0
    5.4063    1.2867   17.8476 C   0  0  0  0  0  0  0  0  0  0  0  0
    6.5679    0.6680   17.5899 N   0  0  0  0  0  0  0  0  0  0  0  0
    7.1846    0.0610   18.6090 C   0  0  0  0  0  0  0  0  0  0  0  0
    8.1285   -0.4265   18.3768 H   0  0  0  0  0  0  0  0  0  0  0  0
    6.6716    0.0075   19.9149 C   0  0  0  0  0  0  0  0  0  0  0  0
    7.4088   -0.7232   20.9883 C   0  0  0  0  0  0  0  0  0  0  0  0
    8.7562   -0.7130   20.9294 N   0  0  0  0  0  0  0  0  0  0  0  0
    9.4674   -1.3273   21.8768 N   0  0  0  0  0  0  0  0  0  0  0  0
    8.8545   -1.9759   22.8667 C   0  0  0  0  0  0  0  0  0  0  0  0
    9.4971   -2.4592   23.5891 H   0  0  0  0  0  0  0  0  0  0  0  0
    7.4383   -2.0555   22.9879 C   0  0  0  0  0  0  0  0  0  0  0  0
    6.7993   -2.7255   23.9876 N   0  0  0  0  0  0  0  0  0  0  0  0
    5.7864   -2.7015   23.9909 H   0  0  0  0  0  0  0  0  0  0  0  0
    7.4676   -3.4383   25.0634 C   0  0  0  0  0  0  0  0  0  0  0  0
    8.1132   -4.2213   24.6458 H   0  0  0  0  0  0  0  0  0  0  0  0
    8.1181   -2.7549   25.6249 H   0  0  0  0  0  0  0  0  0  0  0  0
    6.4731   -4.0662   26.0082 C   0  0  0  0  0  0  0  0  0  0  0  0
    5.9899   -3.3746   27.1240 C   0  0  0  0  0  0  0  0  0  0  0  0
    6.3287   -2.3668   27.3422 H   0  0  0  0  0  0  0  0  0  0  0  0
    5.0427   -3.9856   27.9501 C   0  0  0  0  0  0  0  0  0  0  0  0
    4.6549   -3.4502   28.8109 H   0  0  0  0  0  0  0  0  0  0  0  0
    4.5599   -5.2195   27.7438 N   0  0  0  0  0  0  0  0  0  0  0  0
    5.0359   -5.8844   26.6812 C   0  0  0  0  0  0  0  0  0  0  0  0
    4.6416   -6.8821   26.5162 H   0  0  0  0  0  0  0  0  0  0  0  0
    5.9816   -5.3587   25.7966 C   0  0  0  0  0  0  0  0  0  0  0  0
    6.3153   -5.9471   24.9484 H   0  0  0  0  0  0  0  0  0  0  0  0
    6.7163   -1.3971   21.9956 C   0  0  0  0  0  0  0  0  0  0  0  0
    5.6387   -1.4330   21.9669 H   0  0  0  0  0  0  0  0  0  0  0  0
    5.4465    0.6460   20.1633 C   0  0  0  0  0  0  0  0  0  0  0  0
    5.0022    0.6428   21.1614 H   0  0  0  0  0  0  0  0  0  0  0  0
    4.8118    1.3082   19.1137 C   0  0  0  0  0  0  0  0  0  0  0  0
    3.8771    1.8407   19.2632 H   0  0  0  0  0  0  0  0  0  0  0  0
  1  2  1  0
  2  3  2  0
  3  4  1  0
  4  5  1  0
  4  6  2  0
  6  7  1  0
  7  8  2  0
  8  9  1  0
  9 10  2  0
 10 11  1  0
 10 12  1  0
 12 13  1  0
 13 14  1  0
 13 15  1  0
 15 16  1  0
 15 17  1  0
 15 18  1  0
 18 19  2  0
 19 20  1  0
 19 21  1  0
 21 22  1  0
 21 23  2  0
 23 24  1  0
 24 25  1  0
 24 26  2  0
 26 27  1  0
 12 28  2  0
 28 29  1  0
  6 30  1  0
 30 31  1  0
 30 32  2  0
 32 33  1  0
 32  2  1  0
 28  7  1  0
 26 18  1  0
M  END
>  <cnnaffinity>  (1) 
-5.41879

>  <filename>  (1) 
c1cncc(-c2cc(NCc3ccncc3)cnn2)c1

$$$$
