
     RDKit          3D

 29 32  0  0  0  0  0  0  0  0999 V2000
    4.9101    1.7796   17.0010 H   0  0  0  0  0  0  0  0  0  0  0  0
    5.3995    1.2920   17.8448 C   0  0  0  0  0  0  0  0  0  0  0  0
    6.5583    0.6723   17.5785 N   0  0  0  0  0  0  0  0  0  0  0  0
    7.1894    0.0577   18.5865 C   0  0  0  0  0  0  0  0  0  0  0  0
    8.1371   -0.4259   18.3633 H   0  0  0  0  0  0  0  0  0  0  0  0
    6.6935    0.0203   19.9081 C   0  0  0  0  0  0  0  0  0  0  0  0
    7.2969   -0.6868   20.9657 O   0  0  0  0  0  0  0  0  0  0  0  0
    8.6239   -0.7815   21.0810 C   0  0  0  0  0  0  0  0  0  0  0  0
    9.5423   -0.1036   20.4542 N   0  0  0  0  0  0  0  0  0  0  0  0
   10.7251   -0.5505   20.9548 N   0  0  0  0  0  0  0  0  0  0  0  0
   10.5632   -1.4588   21.8243 N   0  0  0  0  0  0  0  0  0  0  0  0
    9.2083   -1.6447   21.9419 N   0  0  0  0  0  0  0  0  0  0  0  0
    8.6768   -2.5720   22.8215 C   0  0  0  0  0  0  0  0  0  0  0  0
    9.3591   -3.3375   23.6006 N   0  0  0  0  0  0  0  0  0  0  0  0
    8.3813   -4.0663   24.2699 C   0  0  0  0  0  0  0  0  0  0  0  0
    8.4768   -5.0671   25.2576 C   0  0  0  0  0  0  0  0  0  0  0  0
    9.4555   -5.3768   25.6138 H   0  0  0  0  0  0  0  0  0  0  0  0
    7.2919   -5.6295   25.7494 C   0  0  0  0  0  0  0  0  0  0  0  0
    7.3435   -6.4062   26.5160 H   0  0  0  0  0  0  0  0  0  0  0  0
    6.0325   -5.2020   25.2656 C   0  0  0  0  0  0  0  0  0  0  0  0
    5.1275   -5.6544   25.6667 H   0  0  0  0  0  0  0  0  0  0  0  0
    5.9317   -4.2045   24.2815 C   0  0  0  0  0  0  0  0  0  0  0  0
    4.9753   -3.8601   23.8995 H   0  0  0  0  0  0  0  0  0  0  0  0
    7.1210   -3.6603   23.8078 C   0  0  0  0  0  0  0  0  0  0  0  0
    7.3245   -2.6872   22.8609 O   0  0  0  0  0  0  0  0  0  0  0  0
    5.4657    0.6392   20.1723 C   0  0  0  0  0  0  0  0  0  0  0  0
    5.0306    0.6120   21.1729 H   0  0  0  0  0  0  0  0  0  0  0  0
    4.8192    1.3009   19.1184 C   0  0  0  0  0  0  0  0  0  0  0  0
    3.8841    1.8347   19.2691 H   0  0  0  0  0  0  0  0  0  0  0  0
  1  2  1  0
  2  3  2  0
  3  4  1  0
  4  5  1  0
  4  6  2  0
  6  7  1  0
  7  8  1  0
  8  9  2  0
  9 10  1  0
 10 11  2  0
 11 12  1  0
 12 13  1  0
 13 14  2  0
 14 15  1  0
 15 16  2  0
 16 17  1  0
 16 18  1  0
 18 19  1  0
 18 20  2  0
 20 21  1  0
 20 22  1  0
 22 23  1  0
 22 24  2  0
 24 25  1  0
  6 26  1  0
 26 27  1  0
 26 28  2  0
 28 29  1  0
 28  2  1  0
 12  8  1  0
 25 13  1  0
 24 15  1  0
M  END
>  <cnnaffinity>  (1) 
-5.38793

>  <filename>  (1) 
c1cncc(Oc2nnnn2-c2nc3ccccc3o2)c1

$$$$
