
     RDKit          3D

 38 41  0  0  0  0  0  0  0  0999 V2000
    5.0079    1.7888   16.9771 H   0  0  0  0  0  0  0  0  0  0  0  0
    5.4405    1.2786   17.8342 C   0  0  0  0  0  0  0  0  0  0  0  0
    6.5988    0.6378   17.6220 N   0  0  0  0  0  0  0  0  0  0  0  0
    7.1634    0.0234   18.6650 C   0  0  0  0  0  0  0  0  0  0  0  0
    8.1133   -0.4790   18.4864 H   0  0  0  0  0  0  0  0  0  0  0  0
    6.6053    0.0057   19.9519 C   0  0  0  0  0  0  0  0  0  0  0  0
    7.3525   -0.7115   20.9905 C   0  0  0  0  0  0  0  0  0  0  0  0
    8.5428   -1.3452   20.7432 N   0  0  0  0  0  0  0  0  0  0  0  0
    8.8427   -1.8273   21.9307 C   0  0  0  0  0  0  0  0  0  0  0  0
   10.0982   -2.7599   22.7155 S   0  0  0  0  0  0  0  0  0  0  0  0
    9.2085   -2.6849   24.2205 C   0  0  0  0  0  0  0  0  0  0  0  0
    9.6108   -3.1750   25.0966 H   0  0  0  0  0  0  0  0  0  0  0  0
    8.0616   -1.9882   24.1274 C   0  0  0  0  0  0  0  0  0  0  0  0
    6.9972   -1.7541   25.1503 C   0  0  0  0  0  0  0  0  0  0  0  0
    7.4244   -1.8846   26.1487 H   0  0  0  0  0  0  0  0  0  0  0  0
    6.6496   -0.7204   25.0771 H   0  0  0  0  0  0  0  0  0  0  0  0
    5.7687   -2.6513   24.9882 C   0  0  0  0  0  0  0  0  0  0  0  0
    4.9910   -2.3166   25.7109 H   0  0  0  0  0  0  0  0  0  0  0  0
    5.3498   -2.4883   23.9884 H   0  0  0  0  0  0  0  0  0  0  0  0
    6.0498   -4.0697   25.1117 N   0  0  0  0  0  0  0  0  0  0  0  0
    6.4794   -4.5632   26.4176 C   0  0  0  0  0  0  0  0  0  0  0  0
    7.5405   -4.3427   26.5796 H   0  0  0  0  0  0  0  0  0  0  0  0
    5.9240   -4.1096   27.2613 H   0  0  0  0  0  0  0  0  0  0  0  0
    6.2204   -6.0789   26.3665 C   0  0  0  0  0  0  0  0  0  0  0  0
    7.1485   -6.6303   26.1857 H   0  0  0  0  0  0  0  0  0  0  0  0
    5.8101   -6.4300   27.3181 H   0  0  0  0  0  0  0  0  0  0  0  0
    5.2261   -6.2883   25.2062 C   0  0  0  0  0  0  0  0  0  0  0  0
    5.6605   -6.9142   24.4312 H   0  0  0  0  0  0  0  0  0  0  0  0
    4.3109   -6.7868   25.5325 H   0  0  0  0  0  0  0  0  0  0  0  0
    4.9419   -4.8907   24.6486 C   0  0  0  0  0  0  0  0  0  0  0  0
    3.9627   -4.5189   25.0089 H   0  0  0  0  0  0  0  0  0  0  0  0
    4.9076   -4.8559   23.5493 H   0  0  0  0  0  0  0  0  0  0  0  0
    7.8938   -1.5153   22.8287 N   0  0  0  0  0  0  0  0  0  0  0  0
    6.9165   -0.7882   22.2410 N   0  0  0  0  0  0  0  0  0  0  0  0
    5.3845    0.6782   20.1626 C   0  0  0  0  0  0  0  0  0  0  0  0
    4.9193    0.7135   21.1513 H   0  0  0  0  0  0  0  0  0  0  0  0
    4.7945    1.3179   19.0757 C   0  0  0  0  0  0  0  0  0  0  0  0
    3.8587    1.8580   19.1744 H   0  0  0  0  0  0  0  0  0  0  0  0
  1  2  1  0
  2  3  2  0
  3  4  1  0
  4  5  1  0
  4  6  2  0
  6  7  1  0
  7  8  1  0
  8  9  2  0
  9 10  1  0
 10 11  1  0
 11 12  1  0
 11 13  2  0
 13 14  1  0
 14 15  1  0
 14 16  1  0
 14 17  1  0
 17 18  1  0
 17 19  1  0
 17 20  1  0
 20 21  1  0
 21 22  1  0
 21 23  1  0
 21 24  1  0
 24 25  1  0
 24 26  1  0
 24 27  1  0
 27 28  1  0
 27 29  1  0
 27 30  1  0
 30 31  1  0
 30 32  1  0
 13 33  1  0
 33 34  1  0
  6 35  1  0
 35 36  1  0
 35 37  2  0
 37 38  1  0
 37  2  1  0
 34  7  2  0
 33  9  1  0
 30 20  1  0
M  END
>  <cnnaffinity>  (1) 
-5.53996

>  <filename>  (1) 
c1cncc(-c2nc3scc(CCN4CCCC4)n3n2)c1

$$$$
