
     RDKit          3D

 34 38  0  0  0  0  0  0  0  0999 V2000
    4.9568    1.8058   16.9771 H   0  0  0  0  0  0  0  0  0  0  0  0
    5.4038    1.2879   17.8241 C   0  0  0  0  0  0  0  0  0  0  0  0
    6.5599    0.6530   17.5804 N   0  0  0  0  0  0  0  0  0  0  0  0
    7.1536    0.0248   18.5986 C   0  0  0  0  0  0  0  0  0  0  0  0
    8.0987   -0.4591   18.3641 H   0  0  0  0  0  0  0  0  0  0  0  0
    6.6418    0.0044   19.9049 C   0  0  0  0  0  0  0  0  0  0  0  0
    7.3875   -0.6586   20.9720 C   0  0  0  0  0  0  0  0  0  0  0  0
    8.0463   -1.8416   20.7486 N   0  0  0  0  0  0  0  0  0  0  0  0
    8.4547   -2.1989   21.9355 C   0  0  0  0  0  0  0  0  0  0  0  0
    9.3226   -3.5426   22.6085 S   0  0  0  0  0  0  0  0  0  0  0  0
    9.4189   -2.7392   24.1583 C   0  0  0  0  0  0  0  0  0  0  0  0
    9.9974   -3.2085   24.9433 H   0  0  0  0  0  0  0  0  0  0  0  0
    8.7425   -1.5783   24.1620 C   0  0  0  0  0  0  0  0  0  0  0  0
    8.6025   -0.8572   24.9611 H   0  0  0  0  0  0  0  0  0  0  0  0
    8.1641   -1.3053   22.9249 N   0  0  0  0  0  0  0  0  0  0  0  0
    7.4878   -0.2683   22.3084 C   0  0  0  0  0  0  0  0  0  0  0  0
    7.0850    0.9467   22.9949 C   0  0  0  0  0  0  0  0  0  0  0  0
    7.2943    2.1912   22.3732 C   0  0  0  0  0  0  0  0  0  0  0  0
    7.7429    2.2084   21.3859 H   0  0  0  0  0  0  0  0  0  0  0  0
    6.9030    3.3970   22.9779 C   0  0  0  0  0  0  0  0  0  0  0  0
    7.0542    4.3652   22.5086 H   0  0  0  0  0  0  0  0  0  0  0  0
    6.2972    3.3009   24.2135 C   0  0  0  0  0  0  0  0  0  0  0  0
    6.0711    2.0667   24.8337 C   0  0  0  0  0  0  0  0  0  0  0  0
    6.4461    0.8772   24.2567 C   0  0  0  0  0  0  0  0  0  0  0  0
    6.2348   -0.0792   24.7238 H   0  0  0  0  0  0  0  0  0  0  0  0
    5.4639    2.2636   26.0366 O   0  0  0  0  0  0  0  0  0  0  0  0
    5.3081    3.6737   26.1733 C   0  0  0  0  0  0  0  0  0  0  0  0
    5.8750    4.0136   27.0492 H   0  0  0  0  0  0  0  0  0  0  0  0
    4.2389    3.9052   26.2492 H   0  0  0  0  0  0  0  0  0  0  0  0
    5.8359    4.3047   25.0093 O   0  0  0  0  0  0  0  0  0  0  0  0
    5.4152    0.6539   20.1405 C   0  0  0  0  0  0  0  0  0  0  0  0
    4.9849    0.6744   21.1455 H   0  0  0  0  0  0  0  0  0  0  0  0
    4.7902    1.3057   19.0810 C   0  0  0  0  0  0  0  0  0  0  0  0
    3.8616    1.8475   19.2183 H   0  0  0  0  0  0  0  0  0  0  0  0
  1  2  1  0
  2  3  2  0
  3  4  1  0
  4  5  1  0
  4  6  2  0
  6  7  1  0
  7  8  1  0
  8  9  2  0
  9 10  1  0
 10 11  1  0
 11 12  1  0
 11 13  2  0
 13 14  1  0
 13 15  1  0
 15 16  1  0
 16 17  1  0
 17 18  2  0
 18 19  1  0
 18 20  1  0
 20 21  1  0
 20 22  2  0
 22 23  1  0
 23 24  2  0
 24 25  1  0
 23 26  1  0
 26 27  1  0
 27 28  1  0
 27 29  1  0
 27 30  1  0
  6 31  1  0
 31 32  1  0
 31 33  2  0
 33 34  1  0
 33  2  1  0
 16  7  2  0
 24 17  1  0
 15  9  1  0
 30 22  1  0
M  END
>  <cnnaffinity>  (1) 
-5.62106

>  <filename>  (1) 
c1cncc(-c2nc3sccn3c2-c2ccc3c(c2)OCO3)c1

$$$$
