
     RDKit          3D

 44 47  0  0  0  0  0  0  0  0999 V2000
    4.9283    1.8063   16.9736 H   0  0  0  0  0  0  0  0  0  0  0  0
    5.4003    1.2974   17.8124 C   0  0  0  0  0  0  0  0  0  0  0  0
    6.5598    0.6773   17.5519 N   0  0  0  0  0  0  0  0  0  0  0  0
    7.1741    0.0523   18.5640 C   0  0  0  0  0  0  0  0  0  0  0  0
    8.1221   -0.4231   18.3235 H   0  0  0  0  0  0  0  0  0  0  0  0
    6.6614   -0.0009   19.8747 C   0  0  0  0  0  0  0  0  0  0  0  0
    7.3788   -0.6976   20.9587 C   0  0  0  0  0  0  0  0  0  0  0  0
    8.4869   -1.4270   20.7379 N   0  0  0  0  0  0  0  0  0  0  0  0
    8.8072   -1.8626   21.9798 N   0  0  0  0  0  0  0  0  0  0  0  0
    9.8396   -2.6034   22.5306 C   0  0  0  0  0  0  0  0  0  0  0  0
   10.6280   -2.9537   21.8890 H   0  0  0  0  0  0  0  0  0  0  0  0
    9.6063   -2.6527   23.8690 C   0  0  0  0  0  0  0  0  0  0  0  0
   10.1465   -3.1123   24.6817 H   0  0  0  0  0  0  0  0  0  0  0  0
    8.4460   -1.9422   24.1246 N   0  0  0  0  0  0  0  0  0  0  0  0
    7.9797   -1.7589   25.4021 O   0  0  0  0  0  0  0  0  0  0  0  0
    6.7721   -0.9474   25.4953 C   0  0  0  0  0  0  0  0  0  0  0  0
    6.9663    0.0579   25.0955 H   0  0  0  0  0  0  0  0  0  0  0  0
    5.9630   -1.4054   24.9121 H   0  0  0  0  0  0  0  0  0  0  0  0
    6.4167   -0.9061   26.9762 C   0  0  0  0  0  0  0  0  0  0  0  0
    7.2731   -0.4759   27.5266 H   0  0  0  0  0  0  0  0  0  0  0  0
    6.3024   -1.9444   27.3118 H   0  0  0  0  0  0  0  0  0  0  0  0
    5.1539   -0.1900   27.2243 N   0  0  0  0  0  0  0  0  0  0  0  0
    5.2891    1.2658   27.3704 C   0  0  0  0  0  0  0  0  0  0  0  0
    4.2903    1.7044   27.2176 H   0  0  0  0  0  0  0  0  0  0  0  0
    5.9236    1.6369   26.5559 H   0  0  0  0  0  0  0  0  0  0  0  0
    5.8420    1.7139   28.7432 C   0  0  0  0  0  0  0  0  0  0  0  0
    5.8507    2.8097   28.7951 H   0  0  0  0  0  0  0  0  0  0  0  0
    6.8923    1.3940   28.8122 H   0  0  0  0  0  0  0  0  0  0  0  0
    5.0306    1.1083   29.9080 C   0  0  0  0  0  0  0  0  0  0  0  0
    5.4979    1.3436   30.8744 H   0  0  0  0  0  0  0  0  0  0  0  0
    4.0298    1.5685   29.9374 H   0  0  0  0  0  0  0  0  0  0  0  0
    4.8868   -0.4156   29.7180 C   0  0  0  0  0  0  0  0  0  0  0  0
    5.8680   -0.9015   29.8199 H   0  0  0  0  0  0  0  0  0  0  0  0
    4.2448   -0.8566   30.4912 H   0  0  0  0  0  0  0  0  0  0  0  0
    4.3371   -0.7376   28.3137 C   0  0  0  0  0  0  0  0  0  0  0  0
    4.2385   -1.8203   28.1620 H   0  0  0  0  0  0  0  0  0  0  0  0
    3.3247   -0.3167   28.2118 H   0  0  0  0  0  0  0  0  0  0  0  0
    7.9647   -1.4457   22.9413 C   0  0  0  0  0  0  0  0  0  0  0  0
    6.9986   -0.6661   22.3207 C   0  0  0  0  0  0  0  0  0  0  0  0
    6.1819   -0.1422   22.7737 H   0  0  0  0  0  0  0  0  0  0  0  0
    5.4419    0.6519   20.1243 C   0  0  0  0  0  0  0  0  0  0  0  0
    4.9965    0.6523   21.1214 H   0  0  0  0  0  0  0  0  0  0  0  0
    4.8047    1.3117   19.0782 C   0  0  0  0  0  0  0  0  0  0  0  0
    3.8735    1.8423   19.2368 H   0  0  0  0  0  0  0  0  0  0  0  0
  1  2  1  0
  2  3  2  0
  3  4  1  0
  4  5  1  0
  4  6  2  0
  6  7  1  0
  7  8  2  0
  8  9  1  0
  9 10  1  0
 10 11  1  0
 10 12  2  0
 12 13  1  0
 12 14  1  0
 14 15  1  0
 15 16  1  0
 16 17  1  0
 16 18  1  0
 16 19  1  0
 19 20  1  0
 19 21  1  0
 19 22  1  0
 22 23  1  0
 23 24  1  0
 23 25  1  0
 23 26  1  0
 26 27  1  0
 26 28  1  0
 26 29  1  0
 29 30  1  0
 29 31  1  0
 29 32  1  0
 32 33  1  0
 32 34  1  0
 32 35  1  0
 35 36  1  0
 35 37  1  0
 14 38  1  0
 38 39  2  0
 39 40  1  0
  6 41  1  0
 41 42  1  0
 41 43  2  0
 43 44  1  0
 43  2  1  0
 39  7  1  0
 38  9  1  0
 35 22  1  0
M  END
>  <cnnaffinity>  (1) 
-5.35341

>  <filename>  (1) 
c1cncc(-c2cc3n(OCCN4CCCCC4)ccn3n2)c1

$$$$
