
     RDKit          3D

 39 42  0  0  0  0  0  0  0  0999 V2000
    4.9474    1.8597   16.9231 H   0  0  0  0  0  0  0  0  0  0  0  0
    5.3858    1.3117   17.7561 C   0  0  0  0  0  0  0  0  0  0  0  0
    6.5240    0.6497   17.4963 N   0  0  0  0  0  0  0  0  0  0  0  0
    7.0982   -0.0088   18.5078 C   0  0  0  0  0  0  0  0  0  0  0  0
    8.0270   -0.5235   18.2709 H   0  0  0  0  0  0  0  0  0  0  0  0
    6.5876   -0.0244   19.8207 C   0  0  0  0  0  0  0  0  0  0  0  0
    7.3284   -0.6563   20.9200 C   0  0  0  0  0  0  0  0  0  0  0  0
    8.1351   -1.7031   20.7197 N   0  0  0  0  0  0  0  0  0  0  0  0
    8.6603   -1.9113   21.9259 N   0  0  0  0  0  0  0  0  0  0  0  0
    8.2476   -1.0904   22.8971 C   0  0  0  0  0  0  0  0  0  0  0  0
    7.3472   -0.2341   22.3037 C   0  0  0  0  0  0  0  0  0  0  0  0
    6.8160    0.9379   22.9097 N   0  0  0  0  0  0  0  0  0  0  0  0
    6.9562    0.8309   23.9129 H   0  0  0  0  0  0  0  0  0  0  0  0
    7.5237    2.1545   22.4467 C   0  0  0  0  0  0  0  0  0  0  0  0
    7.3170    2.2424   21.3765 H   0  0  0  0  0  0  0  0  0  0  0  0
    7.0556    3.0141   22.9351 H   0  0  0  0  0  0  0  0  0  0  0  0
    9.0401    2.1753   22.6602 C   0  0  0  0  0  0  0  0  0  0  0  0
    9.6342    2.6055   23.8568 C   0  0  0  0  0  0  0  0  0  0  0  0
    9.0396    2.9750   24.6849 H   0  0  0  0  0  0  0  0  0  0  0  0
   11.0239    2.5642   23.9952 C   0  0  0  0  0  0  0  0  0  0  0  0
   11.4905    2.8914   24.9169 H   0  0  0  0  0  0  0  0  0  0  0  0
   11.8629    2.1448   23.0405 N   0  0  0  0  0  0  0  0  0  0  0  0
   11.3061    1.7440   21.8873 C   0  0  0  0  0  0  0  0  0  0  0  0
   11.9966    1.4387   21.1054 H   0  0  0  0  0  0  0  0  0  0  0  0
    9.9285    1.7215   21.6653 C   0  0  0  0  0  0  0  0  0  0  0  0
    9.5586    1.3242   20.7293 H   0  0  0  0  0  0  0  0  0  0  0  0
    9.0369   -1.3106   24.1534 C   0  0  0  0  0  0  0  0  0  0  0  0
    8.3925   -1.5907   24.9926 H   0  0  0  0  0  0  0  0  0  0  0  0
    9.5639   -0.3945   24.4398 H   0  0  0  0  0  0  0  0  0  0  0  0
   10.0339   -2.4326   23.7409 C   0  0  0  0  0  0  0  0  0  0  0  0
   11.0361   -2.0239   23.6745 H   0  0  0  0  0  0  0  0  0  0  0  0
   10.0355   -3.2540   24.4574 H   0  0  0  0  0  0  0  0  0  0  0  0
    9.6395   -2.8922   22.3084 C   0  0  0  0  0  0  0  0  0  0  0  0
   10.4811   -2.8272   21.6165 H   0  0  0  0  0  0  0  0  0  0  0  0
    9.1838   -3.8859   22.2640 H   0  0  0  0  0  0  0  0  0  0  0  0
    5.3911    0.6616   20.0736 C   0  0  0  0  0  0  0  0  0  0  0  0
    4.9914    0.6988   21.0894 H   0  0  0  0  0  0  0  0  0  0  0  0
    4.7753    1.3269   19.0151 C   0  0  0  0  0  0  0  0  0  0  0  0
    3.8536    1.8768   19.1564 H   0  0  0  0  0  0  0  0  0  0  0  0
  1  2  1  0
  2  3  2  0
  3  4  1  0
  4  5  1  0
  4  6  2  0
  6  7  1  0
  7  8  2  0
  8  9  1  0
  9 10  1  0
 10 11  2  0
 11 12  1  0
 12 13  1  0
 12 14  1  0
 14 15  1  0
 14 16  1  0
 14 17  1  0
 17 18  2  0
 18 19  1  0
 18 20  1  0
 20 21  1  0
 20 22  2  0
 22 23  1  0
 23 24  1  0
 23 25  2  0
 25 26  1  0
 10 27  1  0
 27 28  1  0
 27 29  1  0
 27 30  1  0
 30 31  1  0
 30 32  1  0
 30 33  1  0
 33 34  1  0
 33 35  1  0
  6 36  1  0
 36 37  1  0
 36 38  2  0
 38 39  1  0
 38  2  1  0
 11  7  1  0
 25 17  1  0
 33  9  1  0
M  END
>  <cnnaffinity>  (1) 
-5.88181

>  <filename>  (1) 
c1cncc(-c2nn3c(c2NCc2ccncc2)CCC3)c1

$$$$
