
     RDKit          3D

 34 37  0  0  0  0  0  0  0  0999 V2000
    4.9246    1.7761   17.0036 H   0  0  0  0  0  0  0  0  0  0  0  0
    5.4080    1.2868   17.8474 C   0  0  0  0  0  0  0  0  0  0  0  0
    6.5736    0.6741   17.5911 N   0  0  0  0  0  0  0  0  0  0  0  0
    7.1750    0.0427   18.6040 C   0  0  0  0  0  0  0  0  0  0  0  0
    8.1216   -0.4352   18.3717 H   0  0  0  0  0  0  0  0  0  0  0  0
    6.6592   -0.0098   19.9055 C   0  0  0  0  0  0  0  0  0  0  0  0
    7.4090   -0.7273   20.9577 C   0  0  0  0  0  0  0  0  0  0  0  0
    8.1047   -1.8104   20.5870 N   0  0  0  0  0  0  0  0  0  0  0  0
    8.7411   -2.4927   21.5445 C   0  0  0  0  0  0  0  0  0  0  0  0
    9.2788   -3.3738   21.2238 H   0  0  0  0  0  0  0  0  0  0  0  0
    8.7738   -2.1232   22.8826 C   0  0  0  0  0  0  0  0  0  0  0  0
    9.3162   -2.7135   23.6096 H   0  0  0  0  0  0  0  0  0  0  0  0
    8.0832   -0.9701   23.2703 C   0  0  0  0  0  0  0  0  0  0  0  0
    8.0666   -0.5135   24.6811 C   0  0  0  0  0  0  0  0  0  0  0  0
    9.2627   -0.5782   25.4587 C   0  0  0  0  0  0  0  0  0  0  0  0
   10.1776   -0.9512   24.9995 H   0  0  0  0  0  0  0  0  0  0  0  0
    9.2793   -0.1535   26.7746 C   0  0  0  0  0  0  0  0  0  0  0  0
   10.1825   -0.2022   27.3759 H   0  0  0  0  0  0  0  0  0  0  0  0
    8.0918    0.3436   27.3446 C   0  0  0  0  0  0  0  0  0  0  0  0
    7.7523    0.8543   28.6396 C   0  0  0  0  0  0  0  0  0  0  0  0
    8.4452    0.9345   29.4630 H   0  0  0  0  0  0  0  0  0  0  0  0
    6.4309    1.1975   28.6126 C   0  0  0  0  0  0  0  0  0  0  0  0
    5.8040    1.6140   29.3945 H   0  0  0  0  0  0  0  0  0  0  0  0
    5.9234    0.9257   27.3547 N   0  0  0  0  0  0  0  0  0  0  0  0
    4.9830    1.0713   27.0366 H   0  0  0  0  0  0  0  0  0  0  0  0
    6.9118    0.4016   26.5625 C   0  0  0  0  0  0  0  0  0  0  0  0
    6.8805   -0.0181   25.2315 C   0  0  0  0  0  0  0  0  0  0  0  0
    5.9595    0.0233   24.6470 H   0  0  0  0  0  0  0  0  0  0  0  0
    7.3896   -0.2742   22.2785 C   0  0  0  0  0  0  0  0  0  0  0  0
    6.8657    0.6420   22.5189 H   0  0  0  0  0  0  0  0  0  0  0  0
    5.4455    0.6478   20.1639 C   0  0  0  0  0  0  0  0  0  0  0  0
    5.0007    0.6317   21.1625 H   0  0  0  0  0  0  0  0  0  0  0  0
    4.8098    1.3028   19.1119 C   0  0  0  0  0  0  0  0  0  0  0  0
    3.8796    1.8390   19.2615 H   0  0  0  0  0  0  0  0  0  0  0  0
  1  2  1  0
  2  3  2  0
  3  4  1  0
  4  5  1  0
  4  6  2  0
  6  7  1  0
  7  8  2  0
  8  9  1  0
  9 10  1  0
  9 11  2  0
 11 12  1  0
 11 13  1  0
 13 14  1  0
 14 15  2  0
 15 16  1  0
 15 17  1  0
 17 18  1  0
 17 19  2  0
 19 20  1  0
 20 21  1  0
 20 22  2  0
 22 23  1  0
 22 24  1  0
 24 25  1  0
 24 26  1  0
 26 27  2  0
 27 28  1  0
 13 29  2  0
 29 30  1  0
  6 31  1  0
 31 32  1  0
 31 33  2  0
 33 34  1  0
 33  2  1  0
 29  7  1  0
 27 14  1  0
 26 19  1  0
M  END
>  <cnnaffinity>  (1) 
-5.2783

>  <filename>  (1) 
c1cncc(-c2cc(-c3ccc4cc[nH]c4c3)ccn2)c1

$$$$
