
     RDKit          3D

 30 33  0  0  0  0  0  0  0  0999 V2000
    4.9397    1.8075   16.9653 H   0  0  0  0  0  0  0  0  0  0  0  0
    5.4001    1.3115   17.8153 C   0  0  0  0  0  0  0  0  0  0  0  0
    6.5673    0.6938   17.5773 N   0  0  0  0  0  0  0  0  0  0  0  0
    7.1586    0.0900   18.6163 C   0  0  0  0  0  0  0  0  0  0  0  0
    8.1098   -0.3925   18.3947 H   0  0  0  0  0  0  0  0  0  0  0  0
    6.6400    0.0533   19.9350 C   0  0  0  0  0  0  0  0  0  0  0  0
    7.3310   -0.6994   21.0251 C   0  0  0  0  0  0  0  0  0  0  0  0
    7.7951   -1.9951   21.0870 C   0  0  0  0  0  0  0  0  0  0  0  0
    7.7421   -2.7894   20.3723 H   0  0  0  0  0  0  0  0  0  0  0  0
    8.3040   -2.2511   22.3134 N   0  0  0  0  0  0  0  0  0  0  0  0
    8.1742   -1.1979   23.0449 N   0  0  0  0  0  0  0  0  0  0  0  0
    7.5732   -0.2454   22.3058 N   0  0  0  0  0  0  0  0  0  0  0  0
    7.2393    0.9967   22.9222 C   0  0  0  0  0  0  0  0  0  0  0  0
    6.6816    0.9911   24.2390 C   0  0  0  0  0  0  0  0  0  0  0  0
    6.5367    0.0342   24.7370 H   0  0  0  0  0  0  0  0  0  0  0  0
    6.3386    2.1755   24.8624 C   0  0  0  0  0  0  0  0  0  0  0  0
    5.9054    2.1697   25.8561 H   0  0  0  0  0  0  0  0  0  0  0  0
    6.5713    3.3737   24.1491 C   0  0  0  0  0  0  0  0  0  0  0  0
    7.1123    3.3855   22.8459 C   0  0  0  0  0  0  0  0  0  0  0  0
    7.1602    4.7673   22.5010 C   0  0  0  0  0  0  0  0  0  0  0  0
    7.5081    5.1986   21.5733 H   0  0  0  0  0  0  0  0  0  0  0  0
    6.7108    5.5270   23.4826 N   0  0  0  0  0  0  0  0  0  0  0  0
    6.3545    4.6767   24.4700 N   0  0  0  0  0  0  0  0  0  0  0  0
    5.9872    5.0300   25.3393 H   0  0  0  0  0  0  0  0  0  0  0  0
    7.4535    2.1654   22.2168 C   0  0  0  0  0  0  0  0  0  0  0  0
    7.8321    2.0877   21.2027 H   0  0  0  0  0  0  0  0  0  0  0  0
    5.4036    0.6997   20.1417 C   0  0  0  0  0  0  0  0  0  0  0  0
    4.9602    0.7256   21.1395 H   0  0  0  0  0  0  0  0  0  0  0  0
    4.7765    1.3330   19.0664 C   0  0  0  0  0  0  0  0  0  0  0  0
    3.8251    1.8435   19.1830 H   0  0  0  0  0  0  0  0  0  0  0  0
  1  2  1  0
  2  3  2  0
  3  4  1  0
  4  5  1  0
  4  6  2  0
  6  7  1  0
  7  8  2  0
  8  9  1  0
  8 10  1  0
 10 11  2  0
 11 12  1  0
 12 13  1  0
 13 14  2  0
 14 15  1  0
 14 16  1  0
 16 17  1  0
 16 18  2  0
 18 19  1  0
 19 20  1  0
 20 21  1  0
 20 22  2  0
 22 23  1  0
 23 24  1  0
 19 25  2  0
 25 26  1  0
  6 27  1  0
 27 28  1  0
 27 29  2  0
 29 30  1  0
 29  2  1  0
 12  7  1  0
 25 13  1  0
 23 18  1  0
M  END
>  <cnnaffinity>  (1) 
-4.99521

>  <filename>  (1) 
c1cncc(-c2cnnn2-c2ccc3[nH]ncc3c2)c1

$$$$
