
     RDKit          3D

 31 33  0  0  0  0  0  0  0  0999 V2000
    4.8664    2.1163   16.5045 H   0  0  0  0  0  0  0  0  0  0  0  0
    5.3393    1.7021   17.3934 C   0  0  0  0  0  0  0  0  0  0  0  0
    6.5843    1.2281   17.2298 N   0  0  0  0  0  0  0  0  0  0  0  0
    7.2015    0.7536   18.3129 C   0  0  0  0  0  0  0  0  0  0  0  0
    8.2322    0.4489   18.1389 H   0  0  0  0  0  0  0  0  0  0  0  0
    6.6296    0.6792   19.5967 C   0  0  0  0  0  0  0  0  0  0  0  0
    7.3922    0.0455   20.7121 C   0  0  0  0  0  0  0  0  0  0  0  0
    7.0363    0.3432   21.9682 N   0  0  0  0  0  0  0  0  0  0  0  0
    7.7744   -0.1756   22.9527 C   0  0  0  0  0  0  0  0  0  0  0  0
    7.3725    0.2514   24.2019 N   0  0  0  0  0  0  0  0  0  0  0  0
    6.4154    0.5368   24.0585 H   0  0  0  0  0  0  0  0  0  0  0  0
    7.6762   -0.5294   25.3311 C   0  0  0  0  0  0  0  0  0  0  0  0
    7.0964   -1.7824   25.5086 C   0  0  0  0  0  0  0  0  0  0  0  0
    6.4100   -2.1813   24.7749 H   0  0  0  0  0  0  0  0  0  0  0  0
    7.5003   -2.5347   26.6054 C   0  0  0  0  0  0  0  0  0  0  0  0
    7.0506   -3.5068   26.8013 H   0  0  0  0  0  0  0  0  0  0  0  0
    8.4325   -2.1374   27.4782 N   0  0  0  0  0  0  0  0  0  0  0  0
    9.0007   -0.9428   27.2732 C   0  0  0  0  0  0  0  0  0  0  0  0
    9.7717   -0.6594   27.9916 H   0  0  0  0  0  0  0  0  0  0  0  0
    8.6584   -0.1069   26.2149 C   0  0  0  0  0  0  0  0  0  0  0  0
    9.1416    0.8457   26.0556 H   0  0  0  0  0  0  0  0  0  0  0  0
    8.8526   -1.0551   22.7615 C   0  0  0  0  0  0  0  0  0  0  0  0
    9.3695   -1.4362   23.6298 H   0  0  0  0  0  0  0  0  0  0  0  0
    9.1744   -1.4226   21.4611 C   0  0  0  0  0  0  0  0  0  0  0  0
    9.9905   -2.1188   21.2524 H   0  0  0  0  0  0  0  0  0  0  0  0
    8.4212   -0.8695   20.4245 C   0  0  0  0  0  0  0  0  0  0  0  0
    8.5889   -1.1723   19.4042 H   0  0  0  0  0  0  0  0  0  0  0  0
    5.3274    1.1904   19.7494 C   0  0  0  0  0  0  0  0  0  0  0  0
    4.8499    1.1826   20.7314 H   0  0  0  0  0  0  0  0  0  0  0  0
    4.6770    1.6972   18.6246 C   0  0  0  0  0  0  0  0  0  0  0  0
    3.6725    2.1019   18.6970 H   0  0  0  0  0  0  0  0  0  0  0  0
  1  2  1  0
  2  3  2  0
  3  4  1  0
  4  5  1  0
  4  6  2  0
  6  7  1  0
  7  8  2  0
  8  9  1  0
  9 10  1  0
 10 11  1  0
 10 12  1  0
 12 13  2  0
 13 14  1  0
 13 15  1  0
 15 16  1  0
 15 17  2  0
 17 18  1  0
 18 19  1  0
 18 20  2  0
 20 21  1  0
  9 22  2  0
 22 23  1  0
 22 24  1  0
 24 25  1  0
 24 26  2  0
 26 27  1  0
  6 28  1  0
 28 29  1  0
 28 30  2  0
 30 31  1  0
 30  2  1  0
 26  7  1  0
 20 12  1  0
M  END
>  <cnnaffinity>  (1) 
-5.16444

>  <filename>  (1) 
c1cncc(-c2cccc(Nc3ccncc3)n2)c1

$$$$
