
     RDKit          3D

 31 34  0  0  0  0  0  0  0  0999 V2000
    4.9227    1.7766   16.9973 H   0  0  0  0  0  0  0  0  0  0  0  0
    5.4065    1.2891   17.8437 C   0  0  0  0  0  0  0  0  0  0  0  0
    6.5697    0.6684   17.5961 N   0  0  0  0  0  0  0  0  0  0  0  0
    7.1760    0.0561   18.6118 C   0  0  0  0  0  0  0  0  0  0  0  0
    8.1142   -0.4337   18.3694 H   0  0  0  0  0  0  0  0  0  0  0  0
    6.6611    0.0036   19.9135 C   0  0  0  0  0  0  0  0  0  0  0  0
    7.3706   -0.6841   20.9304 N   0  0  0  0  0  0  0  0  0  0  0  0
    6.7322   -1.0721   22.0464 N   0  0  0  0  0  0  0  0  0  0  0  0
    7.6538   -1.6505   22.8126 C   0  0  0  0  0  0  0  0  0  0  0  0
    7.3472   -2.1642   24.1567 C   0  0  0  0  0  0  0  0  0  0  0  0
    6.4513   -1.5844   24.9979 C   0  0  0  0  0  0  0  0  0  0  0  0
    5.8313   -0.7290   24.7594 H   0  0  0  0  0  0  0  0  0  0  0  0
    6.3569   -2.3297   26.5490 S   0  0  0  0  0  0  0  0  0  0  0  0
    7.5660   -3.5023   26.0981 C   0  0  0  0  0  0  0  0  0  0  0  0
    8.0632   -4.5567   26.8852 C   0  0  0  0  0  0  0  0  0  0  0  0
    7.7084   -4.7058   27.9030 H   0  0  0  0  0  0  0  0  0  0  0  0
    9.0044   -5.4186   26.3306 C   0  0  0  0  0  0  0  0  0  0  0  0
    9.3978   -6.2443   26.9181 H   0  0  0  0  0  0  0  0  0  0  0  0
    9.4514   -5.2451   25.0006 C   0  0  0  0  0  0  0  0  0  0  0  0
   10.1810   -5.9374   24.5865 H   0  0  0  0  0  0  0  0  0  0  0  0
    8.9595   -4.2054   24.2238 C   0  0  0  0  0  0  0  0  0  0  0  0
    9.2781   -4.0877   23.1896 H   0  0  0  0  0  0  0  0  0  0  0  0
    8.0143   -3.3025   24.7716 C   0  0  0  0  0  0  0  0  0  0  0  0
    8.9207   -1.6094   22.1739 C   0  0  0  0  0  0  0  0  0  0  0  0
    9.8579   -1.9391   22.5938 H   0  0  0  0  0  0  0  0  0  0  0  0
    8.7046   -0.9764   20.9767 C   0  0  0  0  0  0  0  0  0  0  0  0
    9.3809   -0.6834   20.1860 H   0  0  0  0  0  0  0  0  0  0  0  0
    5.4395    0.6481   20.1749 C   0  0  0  0  0  0  0  0  0  0  0  0
    5.0129    0.6196   21.1808 H   0  0  0  0  0  0  0  0  0  0  0  0
    4.8136    1.3064   19.1138 C   0  0  0  0  0  0  0  0  0  0  0  0
    3.8793    1.8395   19.2629 H   0  0  0  0  0  0  0  0  0  0  0  0
  1  2  1  0
  2  3  2  0
  3  4  1  0
  4  5  1  0
  4  6  2  0
  6  7  1  0
  7  8  1  0
  8  9  2  0
  9 10  1  0
 10 11  2  0
 11 12  1  0
 11 13  1  0
 13 14  1  0
 14 15  2  0
 15 16  1  0
 15 17  1  0
 17 18  1  0
 17 19  2  0
 19 20  1  0
 19 21  1  0
 21 22  1  0
 21 23  2  0
  9 24  1  0
 24 25  1  0
 24 26  2  0
 26 27  1  0
  6 28  1  0
 28 29  1  0
 28 30  2  0
 30 31  1  0
 30  2  1  0
 26  7  1  0
 23 10  1  0
 23 14  1  0
M  END
>  <cnnaffinity>  (1) 
-5.54906

>  <filename>  (1) 
c1cncc(-n2ccc(-c3csc4ccccc34)n2)c1

$$$$
