
     RDKit          3D

 48 51  0  0  0  0  0  0  0  0999 V2000
    4.9190    1.7880   16.9846 H   0  0  0  0  0  0  0  0  0  0  0  0
    5.3972    1.2948   17.8289 C   0  0  0  0  0  0  0  0  0  0  0  0
    6.5592    0.6811   17.5672 N   0  0  0  0  0  0  0  0  0  0  0  0
    7.1687    0.0758   18.5991 C   0  0  0  0  0  0  0  0  0  0  0  0
    8.1093   -0.4193   18.3677 H   0  0  0  0  0  0  0  0  0  0  0  0
    6.6626    0.0198   19.9097 C   0  0  0  0  0  0  0  0  0  0  0  0
    7.4174   -0.6698   21.0186 C   0  0  0  0  0  0  0  0  0  0  0  0
    8.5321    0.1463   21.6731 C   0  0  0  0  0  0  0  0  0  0  0  0
    9.3478    0.2427   20.9429 H   0  0  0  0  0  0  0  0  0  0  0  0
    8.9565   -0.4524   22.5063 H   0  0  0  0  0  0  0  0  0  0  0  0
    8.1187    1.4769   22.1042 N   0  0  0  0  0  0  0  0  0  0  0  0
    7.3093    1.4272   23.3196 C   0  0  0  0  0  0  0  0  0  0  0  0
    6.4920    0.7124   23.1895 H   0  0  0  0  0  0  0  0  0  0  0  0
    7.9060    1.0451   24.1765 H   0  0  0  0  0  0  0  0  0  0  0  0
    6.7472    2.8021   23.6601 C   0  0  0  0  0  0  0  0  0  0  0  0
    6.1752    2.7268   24.5898 H   0  0  0  0  0  0  0  0  0  0  0  0
    6.0548    3.1282   22.8762 H   0  0  0  0  0  0  0  0  0  0  0  0
    7.8618    3.8475   23.8015 C   0  0  0  0  0  0  0  0  0  0  0  0
    8.4912    3.5445   24.6695 H   0  0  0  0  0  0  0  0  0  0  0  0
    7.3244    5.1871   24.0444 N   0  0  0  0  0  0  0  0  0  0  0  0
    6.4646    5.2758   25.2297 C   0  0  0  0  0  0  0  0  0  0  0  0
    5.4502    4.9227   25.0098 H   0  0  0  0  0  0  0  0  0  0  0  0
    6.8474    4.6437   26.0532 H   0  0  0  0  0  0  0  0  0  0  0  0
    6.4734    6.7509   25.6570 C   0  0  0  0  0  0  0  0  0  0  0  0
    5.5594    7.2621   25.3455 H   0  0  0  0  0  0  0  0  0  0  0  0
    6.5089    6.8322   26.7465 H   0  0  0  0  0  0  0  0  0  0  0  0
    7.7106    7.3681   24.9763 C   0  0  0  0  0  0  0  0  0  0  0  0
    7.4258    8.1954   24.3218 H   0  0  0  0  0  0  0  0  0  0  0  0
    8.4217    7.7824   25.6957 H   0  0  0  0  0  0  0  0  0  0  0  0
    8.3558    6.2216   24.1835 C   0  0  0  0  0  0  0  0  0  0  0  0
    9.2384    5.8382   24.7295 H   0  0  0  0  0  0  0  0  0  0  0  0
    8.7157    6.5567   23.2034 H   0  0  0  0  0  0  0  0  0  0  0  0
    8.7556    3.8070   22.5559 C   0  0  0  0  0  0  0  0  0  0  0  0
    9.6275    4.4551   22.6865 H   0  0  0  0  0  0  0  0  0  0  0  0
    8.1882    4.1889   21.7008 H   0  0  0  0  0  0  0  0  0  0  0  0
    9.2419    2.3932   22.2579 C   0  0  0  0  0  0  0  0  0  0  0  0
    9.9399    2.0564   23.0566 H   0  0  0  0  0  0  0  0  0  0  0  0
    9.8144    2.3951   21.3234 H   0  0  0  0  0  0  0  0  0  0  0  0
    6.6780   -1.6935   21.8550 C   0  0  0  0  0  0  0  0  0  0  0  0
    6.9222   -1.8174   22.9072 H   0  0  0  0  0  0  0  0  0  0  0  0
    5.6329   -1.8770   21.6102 H   0  0  0  0  0  0  0  0  0  0  0  0
    7.6772   -2.1399   20.8341 C   0  0  0  0  0  0  0  0  0  0  0  0
    7.1753   -2.5522   19.9725 H   0  0  0  0  0  0  0  0  0  0  0  0
    8.6369   -2.5829   21.1116 H   0  0  0  0  0  0  0  0  0  0  0  0
    5.4434    0.6620   20.1501 C   0  0  0  0  0  0  0  0  0  0  0  0
    5.0210    0.6296   21.1581 H   0  0  0  0  0  0  0  0  0  0  0  0
    4.8020    1.3156   19.0965 C   0  0  0  0  0  0  0  0  0  0  0  0
    3.8714    1.8423   19.2486 H   0  0  0  0  0  0  0  0  0  0  0  0
  1  2  1  0
  2  3  2  0
  3  4  1  0
  4  5  1  0
  4  6  2  0
  6  7  1  0
  7  8  1  0
  8  9  1  0
  8 10  1  0
  8 11  1  0
 11 12  1  0
 12 13  1  0
 12 14  1  0
 12 15  1  0
 15 16  1  0
 15 17  1  0
 15 18  1  0
 18 19  1  0
 18 20  1  0
 20 21  1  0
 21 22  1  0
 21 23  1  0
 21 24  1  0
 24 25  1  0
 24 26  1  0
 24 27  1  0
 27 28  1  0
 27 29  1  0
 27 30  1  0
 30 31  1  0
 30 32  1  0
 18 33  1  0
 33 34  1  0
 33 35  1  0
 33 36  1  0
 36 37  1  0
 36 38  1  0
  7 39  1  0
 39 40  1  0
 39 41  1  0
 39 42  1  0
 42 43  1  0
 42 44  1  0
  6 45  1  0
 45 46  1  0
 45 47  2  0
 47 48  1  0
 47  2  1  0
 42  7  1  0
 36 11  1  0
 30 20  1  0
M  END
>  <cnnaffinity>  (1) 
-4.89138

>  <filename>  (1) 
c1cncc(C2(CN3CCC(N4CCCC4)CC3)CC2)c1

$$$$
