
     RDKit          3D

 39 42  0  0  0  0  0  0  0  0999 V2000
    4.9755    1.8343   16.9558 H   0  0  0  0  0  0  0  0  0  0  0  0
    5.4113    1.2914   17.7909 C   0  0  0  0  0  0  0  0  0  0  0  0
    6.5576    0.6352   17.5517 N   0  0  0  0  0  0  0  0  0  0  0  0
    7.1440    0.0033   18.5743 C   0  0  0  0  0  0  0  0  0  0  0  0
    8.0741   -0.5170   18.3424 H   0  0  0  0  0  0  0  0  0  0  0  0
    6.6360    0.0146   19.8873 C   0  0  0  0  0  0  0  0  0  0  0  0
    7.3861   -0.6172   20.9758 C   0  0  0  0  0  0  0  0  0  0  0  0
    8.1329   -1.7654   20.7818 N   0  0  0  0  0  0  0  0  0  0  0  0
    8.5880   -2.0456   21.9734 C   0  0  0  0  0  0  0  0  0  0  0  0
    9.5858   -3.2946   22.6722 S   0  0  0  0  0  0  0  0  0  0  0  0
    9.5742   -2.4798   24.2235 C   0  0  0  0  0  0  0  0  0  0  0  0
   10.1799   -2.8661   25.0340 H   0  0  0  0  0  0  0  0  0  0  0  0
    8.8033   -1.3833   24.2040 C   0  0  0  0  0  0  0  0  0  0  0  0
    8.5784   -0.7033   25.0164 H   0  0  0  0  0  0  0  0  0  0  0  0
    8.2349   -1.1425   22.9491 N   0  0  0  0  0  0  0  0  0  0  0  0
    7.4648   -0.1868   22.3089 C   0  0  0  0  0  0  0  0  0  0  0  0
    7.0363    0.9381   22.9626 N   0  0  0  0  0  0  0  0  0  0  0  0
    6.7651    1.7247   22.3821 H   0  0  0  0  0  0  0  0  0  0  0  0
    6.4654    0.9571   24.3002 C   0  0  0  0  0  0  0  0  0  0  0  0
    6.4607   -0.0571   24.7252 H   0  0  0  0  0  0  0  0  0  0  0  0
    5.0174    1.4493   24.2448 C   0  0  0  0  0  0  0  0  0  0  0  0
    4.4481    0.8434   23.5344 H   0  0  0  0  0  0  0  0  0  0  0  0
    5.0451    2.4656   23.8291 H   0  0  0  0  0  0  0  0  0  0  0  0
    4.3924    1.5028   25.6432 C   0  0  0  0  0  0  0  0  0  0  0  0
    3.3466    1.8267   25.5912 H   0  0  0  0  0  0  0  0  0  0  0  0
    4.3895    0.4906   26.0778 H   0  0  0  0  0  0  0  0  0  0  0  0
    5.2080    2.4533   26.5370 C   0  0  0  0  0  0  0  0  0  0  0  0
    5.1209    3.4749   26.1358 H   0  0  0  0  0  0  0  0  0  0  0  0
    4.7892    2.4911   27.5465 H   0  0  0  0  0  0  0  0  0  0  0  0
    6.6916    2.0542   26.5904 C   0  0  0  0  0  0  0  0  0  0  0  0
    6.7915    1.0996   27.1260 H   0  0  0  0  0  0  0  0  0  0  0  0
    7.2675    2.7884   27.1651 H   0  0  0  0  0  0  0  0  0  0  0  0
    7.2810    1.9076   25.1835 C   0  0  0  0  0  0  0  0  0  0  0  0
    8.3272    1.5848   25.2132 H   0  0  0  0  0  0  0  0  0  0  0  0
    7.2767    2.8817   24.6748 H   0  0  0  0  0  0  0  0  0  0  0  0
    5.4076    0.6684   20.1019 C   0  0  0  0  0  0  0  0  0  0  0  0
    4.9432    0.6614   21.0888 H   0  0  0  0  0  0  0  0  0  0  0  0
    4.7868    1.3130   19.0397 C   0  0  0  0  0  0  0  0  0  0  0  0
    3.8563    1.8509   19.1735 H   0  0  0  0  0  0  0  0  0  0  0  0
  1  2  1  0
  2  3  2  0
  3  4  1  0
  4  5  1  0
  4  6  2  0
  6  7  1  0
  7  8  1  0
  8  9  2  0
  9 10  1  0
 10 11  1  0
 11 12  1  0
 11 13  2  0
 13 14  1  0
 13 15  1  0
 15 16  1  0
 16 17  1  0
 17 18  1  0
 17 19  1  0
 19 20  1  0
 19 21  1  0
 21 22  1  0
 21 23  1  0
 21 24  1  0
 24 25  1  0
 24 26  1  0
 24 27  1  0
 27 28  1  0
 27 29  1  0
 27 30  1  0
 30 31  1  0
 30 32  1  0
 30 33  1  0
 33 34  1  0
 33 35  1  0
  6 36  1  0
 36 37  1  0
 36 38  2  0
 38 39  1  0
 38  2  1  0
 16  7  2  0
 33 19  1  0
 15  9  1  0
M  END
>  <cnnaffinity>  (1) 
-5.29559

>  <filename>  (1) 
c1cncc(-c2nc3sccn3c2NC2CCCCC2)c1

$$$$
