
     RDKit          3D

 39 43  0  0  0  0  0  0  0  0999 V2000
    4.9149    1.8111   16.9731 H   0  0  0  0  0  0  0  0  0  0  0  0
    5.3777    1.3032   17.8203 C   0  0  0  0  0  0  0  0  0  0  0  0
    6.5404    0.6815   17.5669 N   0  0  0  0  0  0  0  0  0  0  0  0
    7.1526    0.0776   18.5905 C   0  0  0  0  0  0  0  0  0  0  0  0
    8.1020   -0.3922   18.3389 H   0  0  0  0  0  0  0  0  0  0  0  0
    6.6624    0.0370   19.9188 C   0  0  0  0  0  0  0  0  0  0  0  0
    7.4114   -0.6451   20.9930 C   0  0  0  0  0  0  0  0  0  0  0  0
    8.3223   -1.6775   20.9404 C   0  0  0  0  0  0  0  0  0  0  0  0
    8.7225   -2.1072   20.0403 H   0  0  0  0  0  0  0  0  0  0  0  0
    8.7699   -2.0865   22.1650 N   0  0  0  0  0  0  0  0  0  0  0  0
    8.1565   -1.2681   22.9772 C   0  0  0  0  0  0  0  0  0  0  0  0
    8.2471   -0.9283   24.6733 S   0  0  0  0  0  0  0  0  0  0  0  0
    7.1291    0.4133   24.3438 C   0  0  0  0  0  0  0  0  0  0  0  0
    6.7022    1.2197   25.3428 N   0  0  0  0  0  0  0  0  0  0  0  0
    7.3561    1.1498   26.6560 C   0  0  0  0  0  0  0  0  0  0  0  0
    7.2446    0.1257   27.0512 H   0  0  0  0  0  0  0  0  0  0  0  0
    8.4426    1.3042   26.5441 H   0  0  0  0  0  0  0  0  0  0  0  0
    6.8310    2.1406   27.6835 C   0  0  0  0  0  0  0  0  0  0  0  0
    7.5419    2.3440   28.8765 C   0  0  0  0  0  0  0  0  0  0  0  0
    8.4626    1.7912   29.0489 H   0  0  0  0  0  0  0  0  0  0  0  0
    7.0724    3.2271   29.8519 C   0  0  0  0  0  0  0  0  0  0  0  0
    7.6418    3.3725   30.7664 H   0  0  0  0  0  0  0  0  0  0  0  0
    5.8644    3.9030   29.6517 C   0  0  0  0  0  0  0  0  0  0  0  0
    5.4868    4.5812   30.4132 H   0  0  0  0  0  0  0  0  0  0  0  0
    5.1436    3.6926   28.4717 C   0  0  0  0  0  0  0  0  0  0  0  0
    4.1976    4.2038   28.3114 H   0  0  0  0  0  0  0  0  0  0  0  0
    5.6177    2.8215   27.4809 C   0  0  0  0  0  0  0  0  0  0  0  0
    4.8457    2.5559   26.2031 C   0  0  0  0  0  0  0  0  0  0  0  0
    4.1800    3.3944   25.9760 H   0  0  0  0  0  0  0  0  0  0  0  0
    4.2239    1.6593   26.3407 H   0  0  0  0  0  0  0  0  0  0  0  0
    5.7838    2.3177   25.0202 C   0  0  0  0  0  0  0  0  0  0  0  0
    5.2133    2.0681   24.1180 H   0  0  0  0  0  0  0  0  0  0  0  0
    6.3643    3.2249   24.7918 H   0  0  0  0  0  0  0  0  0  0  0  0
    6.7390    0.5757   23.1112 N   0  0  0  0  0  0  0  0  0  0  0  0
    7.3252   -0.3904   22.3573 N   0  0  0  0  0  0  0  0  0  0  0  0
    5.4289    0.6734   20.1479 C   0  0  0  0  0  0  0  0  0  0  0  0
    5.0114    0.6633   21.1528 H   0  0  0  0  0  0  0  0  0  0  0  0
    4.7848    1.3165   19.0867 C   0  0  0  0  0  0  0  0  0  0  0  0
    3.8516    1.8508   19.2267 H   0  0  0  0  0  0  0  0  0  0  0  0
  1  2  1  0
  2  3  2  0
  3  4  1  0
  4  5  1  0
  4  6  2  0
  6  7  1  0
  7  8  2  0
  8  9  1  0
  8 10  1  0
 10 11  2  0
 11 12  1  0
 12 13  1  0
 13 14  1  0
 14 15  1  0
 15 16  1  0
 15 17  1  0
 15 18  1  0
 18 19  2  0
 19 20  1  0
 19 21  1  0
 21 22  1  0
 21 23  2  0
 23 24  1  0
 23 25  1  0
 25 26  1  0
 25 27  2  0
 27 28  1  0
 28 29  1  0
 28 30  1  0
 28 31  1  0
 31 32  1  0
 31 33  1  0
 13 34  2  0
 34 35  1  0
  6 36  1  0
 36 37  1  0
 36 38  2  0
 38 39  1  0
 38  2  1  0
 35  7  1  0
 35 11  1  0
 31 14  1  0
 27 18  1  0
M  END
>  <cnnaffinity>  (1) 
-5.39234

>  <filename>  (1) 
c1cncc(-c2cnc3sc(N4CCc5ccccc5C4)nn23)c1

$$$$
