
     RDKit          3D

 30 32  0  0  0  0  0  0  0  0999 V2000
    4.9131    1.7944   16.9860 H   0  0  0  0  0  0  0  0  0  0  0  0
    5.3957    1.3012   17.8276 C   0  0  0  0  0  0  0  0  0  0  0  0
    6.5557    0.6820   17.5595 N   0  0  0  0  0  0  0  0  0  0  0  0
    7.1721    0.0692   18.5787 C   0  0  0  0  0  0  0  0  0  0  0  0
    8.1109   -0.4304   18.3555 H   0  0  0  0  0  0  0  0  0  0  0  0
    6.6690    0.0191   19.8989 C   0  0  0  0  0  0  0  0  0  0  0  0
    7.3500   -0.6614   20.9636 N   0  0  0  0  0  0  0  0  0  0  0  0
    6.8246   -1.6159   21.8041 C   0  0  0  0  0  0  0  0  0  0  0  0
    5.8148   -1.9867   21.6951 H   0  0  0  0  0  0  0  0  0  0  0  0
    7.7088   -2.0268   22.6690 N   0  0  0  0  0  0  0  0  0  0  0  0
    8.8661   -1.3231   22.4317 N   0  0  0  0  0  0  0  0  0  0  0  0
    8.6400   -0.5014   21.4398 C   0  0  0  0  0  0  0  0  0  0  0  0
    9.5613    0.5590   20.9306 C   0  0  0  0  0  0  0  0  0  0  0  0
    9.6475    0.4637   19.8451 H   0  0  0  0  0  0  0  0  0  0  0  0
   10.5462    0.3665   21.3670 H   0  0  0  0  0  0  0  0  0  0  0  0
    9.0859    1.9966   21.2704 C   0  0  0  0  0  0  0  0  0  0  0  0
    8.1565    2.2092   20.7304 H   0  0  0  0  0  0  0  0  0  0  0  0
    9.8390    2.7047   20.9063 H   0  0  0  0  0  0  0  0  0  0  0  0
    8.9070    2.2031   22.7493 C   0  0  0  0  0  0  0  0  0  0  0  0
    7.3635    2.1062   23.5194 S   0  0  0  0  0  0  0  0  0  0  0  0
    8.0671    2.2935   25.0737 C   0  0  0  0  0  0  0  0  0  0  0  0
    7.4341    2.3129   25.9465 H   0  0  0  0  0  0  0  0  0  0  0  0
    9.4221    2.4065   25.0141 C   0  0  0  0  0  0  0  0  0  0  0  0
   10.0451    2.5048   25.8928 H   0  0  0  0  0  0  0  0  0  0  0  0
    9.9050    2.3457   23.6714 C   0  0  0  0  0  0  0  0  0  0  0  0
   10.9555    2.3972   23.3952 H   0  0  0  0  0  0  0  0  0  0  0  0
    5.4457    0.6493   20.1591 C   0  0  0  0  0  0  0  0  0  0  0  0
    5.0260    0.6256   21.1703 H   0  0  0  0  0  0  0  0  0  0  0  0
    4.8110    1.3107   19.1009 C   0  0  0  0  0  0  0  0  0  0  0  0
    3.8789    1.8392   19.2558 H   0  0  0  0  0  0  0  0  0  0  0  0
  1  2  1  0
  2  3  2  0
  3  4  1  0
  4  5  1  0
  4  6  2  0
  6  7  1  0
  7  8  1  0
  8  9  1  0
  8 10  2  0
 10 11  1  0
 11 12  2  0
 12 13  1  0
 13 14  1  0
 13 15  1  0
 13 16  1  0
 16 17  1  0
 16 18  1  0
 16 19  1  0
 19 20  1  0
 20 21  1  0
 21 22  1  0
 21 23  2  0
 23 24  1  0
 23 25  1  0
 25 26  1  0
  6 27  1  0
 27 28  1  0
 27 29  2  0
 29 30  1  0
 29  2  1  0
 12  7  1  0
 25 19  2  0
M  END
>  <cnnaffinity>  (1) 
-5.08289

>  <filename>  (1) 
c1cncc(-n2cnnc2CCc2cccs2)c1

$$$$
