
     RDKit          3D

 35 39  0  0  0  0  0  0  0  0999 V2000
    4.9776    1.8587   16.9048 H   0  0  0  0  0  0  0  0  0  0  0  0
    5.4135    1.3064   17.7331 C   0  0  0  0  0  0  0  0  0  0  0  0
    6.5593    0.6567   17.4730 N   0  0  0  0  0  0  0  0  0  0  0  0
    7.1355    0.0031   18.4866 C   0  0  0  0  0  0  0  0  0  0  0  0
    8.0751   -0.5017   18.2652 H   0  0  0  0  0  0  0  0  0  0  0  0
    6.6069   -0.0400   19.7910 C   0  0  0  0  0  0  0  0  0  0  0  0
    7.3633   -0.6580   20.8939 C   0  0  0  0  0  0  0  0  0  0  0  0
    8.4923   -1.3498   20.6682 N   0  0  0  0  0  0  0  0  0  0  0  0
    8.9375   -1.6144   21.9176 N   0  0  0  0  0  0  0  0  0  0  0  0
   10.0632   -2.2227   22.4627 C   0  0  0  0  0  0  0  0  0  0  0  0
   10.8075   -2.6763   21.8313 H   0  0  0  0  0  0  0  0  0  0  0  0
    9.9478   -2.0756   23.8101 C   0  0  0  0  0  0  0  0  0  0  0  0
   10.5871   -2.4296   24.6047 H   0  0  0  0  0  0  0  0  0  0  0  0
    8.7673   -1.3866   24.1052 N   0  0  0  0  0  0  0  0  0  0  0  0
    8.2646   -1.0072   25.3815 C   0  0  0  0  0  0  0  0  0  0  0  0
    9.1847   -0.6335   26.4095 C   0  0  0  0  0  0  0  0  0  0  0  0
   10.2545   -0.6441   26.2060 H   0  0  0  0  0  0  0  0  0  0  0  0
    8.7385   -0.2130   27.6481 C   0  0  0  0  0  0  0  0  0  0  0  0
    9.4331    0.0094   28.4521 H   0  0  0  0  0  0  0  0  0  0  0  0
    7.3427   -0.0715   27.8255 C   0  0  0  0  0  0  0  0  0  0  0  0
    6.4095   -0.4755   26.8430 C   0  0  0  0  0  0  0  0  0  0  0  0
    5.1435   -0.1137   27.4119 C   0  0  0  0  0  0  0  0  0  0  0  0
    4.1497   -0.2764   27.0044 H   0  0  0  0  0  0  0  0  0  0  0  0
    5.2901    0.4796   28.5806 N   0  0  0  0  0  0  0  0  0  0  0  0
    6.6200    0.4888   28.8339 N   0  0  0  0  0  0  0  0  0  0  0  0
    6.9838    0.9904   29.6332 H   0  0  0  0  0  0  0  0  0  0  0  0
    6.8853   -0.9816   25.6000 C   0  0  0  0  0  0  0  0  0  0  0  0
    6.2338   -1.3016   24.7890 H   0  0  0  0  0  0  0  0  0  0  0  0
    8.1541   -1.1136   22.8920 C   0  0  0  0  0  0  0  0  0  0  0  0
    7.0780   -0.5043   22.2708 C   0  0  0  0  0  0  0  0  0  0  0  0
    6.2236   -0.0212   22.7119 H   0  0  0  0  0  0  0  0  0  0  0  0
    5.3879    0.6169   20.0341 C   0  0  0  0  0  0  0  0  0  0  0  0
    4.9322    0.6200   21.0279 H   0  0  0  0  0  0  0  0  0  0  0  0
    4.7890    1.3023   18.9847 C   0  0  0  0  0  0  0  0  0  0  0  0
    3.8736    1.8622   19.1364 H   0  0  0  0  0  0  0  0  0  0  0  0
  1  2  1  0
  2  3  2  0
  3  4  1  0
  4  5  1  0
  4  6  2  0
  6  7  1  0
  7  8  2  0
  8  9  1  0
  9 10  1  0
 10 11  1  0
 10 12  2  0
 12 13  1  0
 12 14  1  0
 14 15  1  0
 15 16  2  0
 16 17  1  0
 16 18  1  0
 18 19  1  0
 18 20  2  0
 20 21  1  0
 21 22  1  0
 22 23  1  0
 22 24  2  0
 24 25  1  0
 25 26  1  0
 21 27  2  0
 27 28  1  0
 14 29  1  0
 29 30  2  0
 30 31  1  0
  6 32  1  0
 32 33  1  0
 32 34  2  0
 34 35  1  0
 34  2  1  0
 30  7  1  0
 29  9  1  0
 27 15  1  0
 25 20  1  0
M  END
>  <cnnaffinity>  (1) 
-5.50332

>  <filename>  (1) 
c1cncc(-c2cc3n(-c4ccc5[nH]ncc5c4)ccn3n2)c1

$$$$
