
     RDKit          3D

 29 32  0  0  0  0  0  0  0  0999 V2000
    4.9681    1.8407   16.9429 H   0  0  0  0  0  0  0  0  0  0  0  0
    5.4098    1.3029   17.7765 C   0  0  0  0  0  0  0  0  0  0  0  0
    6.5604    0.6623   17.5209 N   0  0  0  0  0  0  0  0  0  0  0  0
    7.1385   -0.0010   18.5270 C   0  0  0  0  0  0  0  0  0  0  0  0
    8.0944   -0.4723   18.3014 H   0  0  0  0  0  0  0  0  0  0  0  0
    6.6052   -0.0639   19.8283 C   0  0  0  0  0  0  0  0  0  0  0  0
    7.3734   -0.6845   20.9255 C   0  0  0  0  0  0  0  0  0  0  0  0
    8.5060   -1.3693   20.6964 N   0  0  0  0  0  0  0  0  0  0  0  0
    8.9418   -1.6447   21.9450 N   0  0  0  0  0  0  0  0  0  0  0  0
   10.1119   -2.1620   22.4826 C   0  0  0  0  0  0  0  0  0  0  0  0
   10.8519   -2.5888   21.8313 H   0  0  0  0  0  0  0  0  0  0  0  0
   10.0167   -1.9804   23.8233 C   0  0  0  0  0  0  0  0  0  0  0  0
   10.7130   -2.1849   24.6212 H   0  0  0  0  0  0  0  0  0  0  0  0
    8.7880   -1.3930   24.1133 N   0  0  0  0  0  0  0  0  0  0  0  0
    8.3746   -0.7898   25.3380 C   0  0  0  0  0  0  0  0  0  0  0  0
    8.6328    0.2636   25.4420 H   0  0  0  0  0  0  0  0  0  0  0  0
    8.3133   -1.5932   26.5960 C   0  0  0  0  0  0  0  0  0  0  0  0
    8.5945   -2.6416   26.5388 H   0  0  0  0  0  0  0  0  0  0  0  0
    8.5808   -1.0881   27.5204 H   0  0  0  0  0  0  0  0  0  0  0  0
    7.0454   -1.1856   25.9031 C   0  0  0  0  0  0  0  0  0  0  0  0
    6.4979   -1.9617   25.3749 H   0  0  0  0  0  0  0  0  0  0  0  0
    6.4417   -0.3872   26.3256 H   0  0  0  0  0  0  0  0  0  0  0  0
    8.1449   -1.1655   22.9195 C   0  0  0  0  0  0  0  0  0  0  0  0
    7.0736   -0.5377   22.3035 C   0  0  0  0  0  0  0  0  0  0  0  0
    6.2187   -0.0471   22.7323 H   0  0  0  0  0  0  0  0  0  0  0  0
    5.3932    0.6097   20.0701 C   0  0  0  0  0  0  0  0  0  0  0  0
    4.9498    0.6420   21.0674 H   0  0  0  0  0  0  0  0  0  0  0  0
    4.7879    1.3014   19.0280 C   0  0  0  0  0  0  0  0  0  0  0  0
    3.8702    1.8601   19.1793 H   0  0  0  0  0  0  0  0  0  0  0  0
  1  2  1  0
  2  3  2  0
  3  4  1  0
  4  5  1  0
  4  6  2  0
  6  7  1  0
  7  8  2  0
  8  9  1  0
  9 10  1  0
 10 11  1  0
 10 12  2  0
 12 13  1  0
 12 14  1  0
 14 15  1  0
 15 16  1  0
 15 17  1  0
 17 18  1  0
 17 19  1  0
 17 20  1  0
 20 21  1  0
 20 22  1  0
 14 23  1  0
 23 24  2  0
 24 25  1  0
  6 26  1  0
 26 27  1  0
 26 28  2  0
 28 29  1  0
 28  2  1  0
 24  7  1  0
 23  9  1  0
 20 15  1  0
M  END
>  <cnnaffinity>  (1) 
-5.07056

>  <filename>  (1) 
c1cncc(-c2cc3n(C4CC4)ccn3n2)c1

$$$$
