
     RDKit          3D

 30 33  0  0  0  0  0  0  0  0999 V2000
    4.9142    1.7845   17.0002 H   0  0  0  0  0  0  0  0  0  0  0  0
    5.3985    1.2913   17.8418 C   0  0  0  0  0  0  0  0  0  0  0  0
    6.5542    0.6680   17.5725 N   0  0  0  0  0  0  0  0  0  0  0  0
    7.1904    0.0599   18.5801 C   0  0  0  0  0  0  0  0  0  0  0  0
    8.1376   -0.4196   18.3504 H   0  0  0  0  0  0  0  0  0  0  0  0
    6.6933    0.0286   19.8993 C   0  0  0  0  0  0  0  0  0  0  0  0
    7.2887   -0.6690   20.9559 O   0  0  0  0  0  0  0  0  0  0  0  0
    8.6148   -0.7674   21.0721 C   0  0  0  0  0  0  0  0  0  0  0  0
    9.5449   -0.0960   20.4483 N   0  0  0  0  0  0  0  0  0  0  0  0
   10.7182   -0.5498   20.9538 N   0  0  0  0  0  0  0  0  0  0  0  0
   10.5391   -1.4577   21.8236 N   0  0  0  0  0  0  0  0  0  0  0  0
    9.1908   -1.6375   21.9371 N   0  0  0  0  0  0  0  0  0  0  0  0
    8.6874   -2.5754   22.8202 C   0  0  0  0  0  0  0  0  0  0  0  0
    7.3345   -2.7035   22.8759 O   0  0  0  0  0  0  0  0  0  0  0  0
    7.0978   -3.6708   23.8145 C   0  0  0  0  0  0  0  0  0  0  0  0
    5.8639   -4.1688   24.2416 C   0  0  0  0  0  0  0  0  0  0  0  0
    4.9301   -3.7919   23.8318 H   0  0  0  0  0  0  0  0  0  0  0  0
    5.8943   -5.1692   25.2239 C   0  0  0  0  0  0  0  0  0  0  0  0
    4.9589   -5.5915   25.5950 H   0  0  0  0  0  0  0  0  0  0  0  0
    7.1113   -5.6554   25.7620 C   0  0  0  0  0  0  0  0  0  0  0  0
    7.1004   -6.4359   26.5290 H   0  0  0  0  0  0  0  0  0  0  0  0
    8.3281   -5.1444   25.3219 C   0  0  0  0  0  0  0  0  0  0  0  0
    9.2786   -5.4973   25.7198 H   0  0  0  0  0  0  0  0  0  0  0  0
    8.3197   -4.1409   24.3359 C   0  0  0  0  0  0  0  0  0  0  0  0
    9.3447   -3.4046   23.6645 C   0  0  0  0  0  0  0  0  0  0  0  0
   10.4142   -3.4861   23.8012 H   0  0  0  0  0  0  0  0  0  0  0  0
    5.4672    0.6421   20.1726 C   0  0  0  0  0  0  0  0  0  0  0  0
    5.0421    0.6054   21.1776 H   0  0  0  0  0  0  0  0  0  0  0  0
    4.8226    1.2991   19.1171 C   0  0  0  0  0  0  0  0  0  0  0  0
    3.8901    1.8284   19.2691 H   0  0  0  0  0  0  0  0  0  0  0  0
  1  2  1  0
  2  3  2  0
  3  4  1  0
  4  5  1  0
  4  6  2  0
  6  7  1  0
  7  8  1  0
  8  9  2  0
  9 10  1  0
 10 11  2  0
 11 12  1  0
 12 13  1  0
 13 14  1  0
 14 15  1  0
 15 16  2  0
 16 17  1  0
 16 18  1  0
 18 19  1  0
 18 20  2  0
 20 21  1  0
 20 22  1  0
 22 23  1  0
 22 24  2  0
 24 25  1  0
 25 26  1  0
  6 27  1  0
 27 28  1  0
 27 29  2  0
 29 30  1  0
 29  2  1  0
 12  8  1  0
 25 13  2  0
 24 15  1  0
M  END
>  <cnnaffinity>  (1) 
-5.26592

>  <filename>  (1) 
c1cncc(Oc2nnnn2-c2cc3ccccc3o2)c1

$$$$
