
     RDKit          3D

 41 45  0  0  0  0  0  0  0  0999 V2000
    4.9966    1.8406   16.9184 H   0  0  0  0  0  0  0  0  0  0  0  0
    5.3897    1.3074   17.7854 C   0  0  0  0  0  0  0  0  0  0  0  0
    6.5403    0.6436   17.5983 N   0  0  0  0  0  0  0  0  0  0  0  0
    7.0638    0.0195   18.6636 C   0  0  0  0  0  0  0  0  0  0  0  0
    8.0000   -0.5047   18.4813 H   0  0  0  0  0  0  0  0  0  0  0  0
    6.4796   -0.0150   19.9473 C   0  0  0  0  0  0  0  0  0  0  0  0
    7.2361   -0.6351   21.0582 C   0  0  0  0  0  0  0  0  0  0  0  0
    8.5907   -0.5597   21.2972 C   0  0  0  0  0  0  0  0  0  0  0  0
    8.8008   -1.1506   22.5359 C   0  0  0  0  0  0  0  0  0  0  0  0
    7.6941   -1.6315   23.0669 N   0  0  0  0  0  0  0  0  0  0  0  0
    6.7424   -1.3001   22.1505 N   0  0  0  0  0  0  0  0  0  0  0  0
    5.7835   -1.5472   22.3562 H   0  0  0  0  0  0  0  0  0  0  0  0
   10.2141   -1.0238   23.0180 C   0  0  0  0  0  0  0  0  0  0  0  0
   10.2644   -0.4965   23.9765 H   0  0  0  0  0  0  0  0  0  0  0  0
   10.6816   -2.0017   23.1664 H   0  0  0  0  0  0  0  0  0  0  0  0
   10.9176   -0.2086   21.8678 C   0  0  2  0  0  0  0  0  0  0  0  0
   11.6927   -0.8616   21.4518 H   0  0  0  0  0  0  0  0  0  0  0  0
   11.6145    1.0555   22.3499 C   0  0  0  0  0  0  0  0  0  0  0  0
   12.9967    1.0953   22.3551 C   0  0  0  0  0  0  0  0  0  0  0  0
   13.5596    0.2238   22.0226 H   0  0  0  0  0  0  0  0  0  0  0  0
   13.7114    2.2493   22.7586 C   0  0  0  0  0  0  0  0  0  0  0  0
   14.7929    2.2261   22.6700 H   0  0  0  0  0  0  0  0  0  0  0  0
   13.0466    3.3712   23.1822 C   0  0  0  0  0  0  0  0  0  0  0  0
   13.5841    4.2754   23.4605 H   0  0  0  0  0  0  0  0  0  0  0  0
   11.6210    3.3642   23.2762 C   0  0  0  0  0  0  0  0  0  0  0  0
   10.9162    4.4908   23.8086 C   0  0  0  0  0  0  0  0  0  0  0  0
   11.4921    5.3706   24.0912 H   0  0  0  0  0  0  0  0  0  0  0  0
    9.5546    4.4566   23.9798 C   0  0  0  0  0  0  0  0  0  0  0  0
    9.0309    5.3061   24.4154 H   0  0  0  0  0  0  0  0  0  0  0  0
    8.8203    3.3045   23.5927 C   0  0  0  0  0  0  0  0  0  0  0  0
    7.7435    3.2886   23.7380 H   0  0  0  0  0  0  0  0  0  0  0  0
    9.4606    2.2174   23.0363 C   0  0  0  0  0  0  0  0  0  0  0  0
    8.8817    1.3532   22.7202 H   0  0  0  0  0  0  0  0  0  0  0  0
   10.8897    2.1966   22.8666 C   0  0  0  0  0  0  0  0  0  0  0  0
    9.8504    0.0002   20.7319 C   0  0  0  0  0  0  0  0  0  0  0  0
    9.7469    1.0486   20.4241 H   0  0  0  0  0  0  0  0  0  0  0  0
   10.1359   -0.5757   19.8483 H   0  0  0  0  0  0  0  0  0  0  0  0
    5.2586    0.6633   20.1116 C   0  0  0  0  0  0  0  0  0  0  0  0
    4.7622    0.6976   21.0843 H   0  0  0  0  0  0  0  0  0  0  0  0
    4.7170    1.3355   19.0135 C   0  0  0  0  0  0  0  0  0  0  0  0
    3.8020    1.9090   19.0966 H   0  0  0  0  0  0  0  0  0  0  0  0
  1  2  1  0
  2  3  2  0
  3  4  1  0
  4  5  1  0
  4  6  2  0
  6  7  1  0
  7  8  2  0
  8  9  1  0
  9 10  2  0
 10 11  1  0
 11 12  1  0
  9 13  1  0
 13 14  1  0
 13 15  1  0
 13 16  1  0
 16 17  1  6
 16 18  1  0
 18 19  2  0
 19 20  1  0
 19 21  1  0
 21 22  1  0
 21 23  2  0
 23 24  1  0
 23 25  1  0
 25 26  2  0
 26 27  1  0
 26 28  1  0
 28 29  1  0
 28 30  2  0
 30 31  1  0
 30 32  1  0
 32 33  1  0
 32 34  2  0
 16 35  1  0
 35 36  1  0
 35 37  1  0
  6 38  1  0
 38 39  1  0
 38 40  2  0
 40 41  1  0
 40  2  1  0
 11  7  1  0
 34 18  1  0
 35  8  1  0
 34 25  1  0
M  END
>  <cnnaffinity>  (1) 
-6.02799

>  <filename>  (1) 
c1cncc(-c2[nH]nc3c2C[C@@H](c2cccc4ccccc24)C3)c1

$$$$
