
     RDKit          3D

 33 35  0  0  0  0  0  0  0  0999 V2000
    4.9922    1.8240   16.9833 H   0  0  0  0  0  0  0  0  0  0  0  0
    5.4386    1.2740   17.8081 C   0  0  0  0  0  0  0  0  0  0  0  0
    6.5993    0.6466   17.5527 N   0  0  0  0  0  0  0  0  0  0  0  0
    7.1739   -0.0315   18.5568 C   0  0  0  0  0  0  0  0  0  0  0  0
    8.1189   -0.5244   18.3382 H   0  0  0  0  0  0  0  0  0  0  0  0
    6.6221   -0.1137   19.8480 C   0  0  0  0  0  0  0  0  0  0  0  0
    7.2825   -0.8598   20.7973 O   0  0  0  0  0  0  0  0  0  0  0  0
    7.2273   -0.4597   22.1216 C   0  0  0  0  0  0  0  0  0  0  0  0
    7.2605   -1.3509   23.2068 C   0  0  0  0  0  0  0  0  0  0  0  0
    7.3374   -2.4317   23.1634 H   0  0  0  0  0  0  0  0  0  0  0  0
    7.2435   -0.7122   24.3728 N   0  0  0  0  0  0  0  0  0  0  0  0
    7.1744    0.5922   24.0331 N   0  0  0  0  0  0  0  0  0  0  0  0
    7.3367    1.3134   24.7173 H   0  0  0  0  0  0  0  0  0  0  0  0
    7.1834    0.8062   22.6942 C   0  0  0  0  0  0  0  0  0  0  0  0
    7.0602    2.0612   22.1327 N   0  0  0  0  0  0  0  0  0  0  0  0
    7.3920    2.1231   21.1828 H   0  0  0  0  0  0  0  0  0  0  0  0
    7.0564    3.2896   22.8907 C   0  0  0  0  0  0  0  0  0  0  0  0
    6.2681    3.2535   23.6530 H   0  0  0  0  0  0  0  0  0  0  0  0
    6.7715    4.0861   22.1920 H   0  0  0  0  0  0  0  0  0  0  0  0
    8.3808    3.6477   23.5626 C   0  0  0  0  0  0  0  0  0  0  0  0
    8.4326    4.1042   24.8892 C   0  0  0  0  0  0  0  0  0  0  0  0
    7.5755    4.0708   25.5539 H   0  0  0  0  0  0  0  0  0  0  0  0
    9.6187    4.6465   25.3848 C   0  0  0  0  0  0  0  0  0  0  0  0
    9.6315    5.0558   26.3931 H   0  0  0  0  0  0  0  0  0  0  0  0
   10.7597    4.7183   24.6902 N   0  0  0  0  0  0  0  0  0  0  0  0
   10.7332    4.2134   23.4504 C   0  0  0  0  0  0  0  0  0  0  0  0
   11.6527    4.3288   22.8792 H   0  0  0  0  0  0  0  0  0  0  0  0
    9.6007    3.6438   22.8635 C   0  0  0  0  0  0  0  0  0  0  0  0
    9.6888    3.2630   21.8518 H   0  0  0  0  0  0  0  0  0  0  0  0
    5.4168    0.5421   20.1099 C   0  0  0  0  0  0  0  0  0  0  0  0
    5.0259    0.5506   21.1311 H   0  0  0  0  0  0  0  0  0  0  0  0
    4.8162    1.2453   19.0609 C   0  0  0  0  0  0  0  0  0  0  0  0
    3.8904    1.7866   19.2189 H   0  0  0  0  0  0  0  0  0  0  0  0
  1  2  1  0
  2  3  2  0
  3  4  1  0
  4  5  1  0
  4  6  2  0
  6  7  1  0
  7  8  1  0
  8  9  1  0
  9 10  1  0
  9 11  2  0
 11 12  1  0
 12 13  1  0
 12 14  1  0
 14 15  1  0
 15 16  1  0
 15 17  1  0
 17 18  1  0
 17 19  1  0
 17 20  1  0
 20 21  2  0
 21 22  1  0
 21 23  1  0
 23 24  1  0
 23 25  2  0
 25 26  1  0
 26 27  1  0
 26 28  2  0
 28 29  1  0
  6 30  1  0
 30 31  1  0
 30 32  2  0
 32 33  1  0
 32  2  1  0
 14  8  2  0
 28 20  1  0
M  END
>  <cnnaffinity>  (1) 
-5.11565

>  <filename>  (1) 
c1cncc(Oc2cn[nH]c2NCc2ccncc2)c1

$$$$
