
     RDKit          3D

 29 31  0  0  0  0  0  0  0  0999 V2000
    4.9705    1.8408   16.9596 H   0  0  0  0  0  0  0  0  0  0  0  0
    5.4249    1.3072   17.7910 C   0  0  0  0  0  0  0  0  0  0  0  0
    6.5827    0.6738   17.5323 N   0  0  0  0  0  0  0  0  0  0  0  0
    7.1674    0.0199   18.5465 C   0  0  0  0  0  0  0  0  0  0  0  0
    8.0931   -0.5028   18.3155 H   0  0  0  0  0  0  0  0  0  0  0  0
    6.6488   -0.0312   19.8628 C   0  0  0  0  0  0  0  0  0  0  0  0
    7.2402   -0.7453   20.9167 N   0  0  0  0  0  0  0  0  0  0  0  0
    6.9120   -0.4341   21.8327 H   0  0  0  0  0  0  0  0  0  0  0  0
    8.6138   -0.9837   20.8173 N   0  0  0  0  0  0  0  0  0  0  0  0
    9.1847   -0.1424   20.7826 H   0  0  0  0  0  0  0  0  0  0  0  0
    9.1993   -1.9090   21.6924 C   0  0  0  0  0  0  0  0  0  0  0  0
   10.6130   -1.7923   21.8396 C   0  0  0  0  0  0  0  0  0  0  0  0
   11.1366   -1.0395   21.2535 H   0  0  0  0  0  0  0  0  0  0  0  0
   11.3144   -2.6074   22.7051 C   0  0  0  0  0  0  0  0  0  0  0  0
   12.3993   -2.5492   22.7199 H   0  0  0  0  0  0  0  0  0  0  0  0
   10.6162   -3.5503   23.4969 C   0  0  0  0  0  0  0  0  0  0  0  0
   10.9713   -4.5380   24.4834 C   0  0  0  0  0  0  0  0  0  0  0  0
   11.9530   -4.7266   24.8934 H   0  0  0  0  0  0  0  0  0  0  0  0
    9.8355   -5.2327   24.7860 C   0  0  0  0  0  0  0  0  0  0  0  0
    9.7053   -6.0757   25.4532 H   0  0  0  0  0  0  0  0  0  0  0  0
    8.7793   -4.7245   24.0592 N   0  0  0  0  0  0  0  0  0  0  0  0
    7.8306   -5.0599   24.0425 H   0  0  0  0  0  0  0  0  0  0  0  0
    9.2234   -3.6974   23.2697 C   0  0  0  0  0  0  0  0  0  0  0  0
    8.4968   -2.8926   22.3835 C   0  0  0  0  0  0  0  0  0  0  0  0
    7.4265   -3.0257   22.2509 H   0  0  0  0  0  0  0  0  0  0  0  0
    5.4349    0.6339   20.1071 C   0  0  0  0  0  0  0  0  0  0  0  0
    5.0028    0.6161   21.1108 H   0  0  0  0  0  0  0  0  0  0  0  0
    4.8139    1.3033   19.0528 C   0  0  0  0  0  0  0  0  0  0  0  0
    3.8739    1.8296   19.2015 H   0  0  0  0  0  0  0  0  0  0  0  0
  1  2  1  0
  2  3  2  0
  3  4  1  0
  4  5  1  0
  4  6  2  0
  6  7  1  0
  7  8  1  0
  7  9  1  0
  9 10  1  0
  9 11  1  0
 11 12  2  0
 12 13  1  0
 12 14  1  0
 14 15  1  0
 14 16  2  0
 16 17  1  0
 17 18  1  0
 17 19  2  0
 19 20  1  0
 19 21  1  0
 21 22  1  0
 21 23  1  0
 23 24  2  0
 24 25  1  0
  6 26  1  0
 26 27  1  0
 26 28  2  0
 28 29  1  0
 28  2  1  0
 24 11  1  0
 23 16  1  0
M  END
>  <cnnaffinity>  (1) 
-4.99509

>  <filename>  (1) 
c1cncc(NNc2ccc3cc[nH]c3c2)c1

$$$$
