
     RDKit          3D

 45 48  0  0  0  0  0  0  0  0999 V2000
    5.0665    1.8009   16.8716 H   0  0  0  0  0  0  0  0  0  0  0  0
    5.4572    1.2733   17.7398 C   0  0  0  0  0  0  0  0  0  0  0  0
    6.5626    0.5418   17.5302 N   0  0  0  0  0  0  0  0  0  0  0  0
    7.0810   -0.1010   18.5819 C   0  0  0  0  0  0  0  0  0  0  0  0
    7.9721   -0.6963   18.3968 H   0  0  0  0  0  0  0  0  0  0  0  0
    6.5473   -0.0227   19.8790 C   0  0  0  0  0  0  0  0  0  0  0  0
    7.2215   -0.6873   20.9827 C   0  0  0  0  0  0  0  0  0  0  0  0
    7.7560   -1.9545   20.8441 N   0  0  0  0  0  0  0  0  0  0  0  0
    8.2702   -2.1967   22.0122 C   0  0  0  0  0  0  0  0  0  0  0  0
    8.1730   -1.1620   22.8996 N   0  0  0  0  0  0  0  0  0  0  0  0
    7.4710   -0.1846   22.2578 C   0  0  0  0  0  0  0  0  0  0  0  0
    7.1507    0.9445   22.9122 O   0  0  0  0  0  0  0  0  0  0  0  0
    7.5661    2.2035   22.3396 C   0  0  0  0  0  0  0  0  0  0  0  0
    6.8471    2.5042   21.5694 H   0  0  0  0  0  0  0  0  0  0  0  0
    7.4994    2.9105   23.1714 H   0  0  0  0  0  0  0  0  0  0  0  0
    8.9587    2.1779   21.7181 C   0  0  0  0  0  0  0  0  0  0  0  0
    8.8730    1.5174   20.8424 H   0  0  0  0  0  0  0  0  0  0  0  0
    9.1711    3.1848   21.3265 H   0  0  0  0  0  0  0  0  0  0  0  0
    9.9958    1.6472   22.5852 N   0  0  0  0  0  0  0  0  0  0  0  0
   11.1591    1.0635   21.9200 C   0  0  0  0  0  0  0  0  0  0  0  0
   11.3056    0.0357   22.2930 H   0  0  0  0  0  0  0  0  0  0  0  0
   10.9274    0.9639   20.8597 H   0  0  0  0  0  0  0  0  0  0  0  0
   12.4691    1.8610   22.0930 C   0  0  0  0  0  0  0  0  0  0  0  0
   13.2792    1.2047   21.7714 H   0  0  0  0  0  0  0  0  0  0  0  0
   12.4400    2.7294   21.4236 H   0  0  0  0  0  0  0  0  0  0  0  0
   12.7249    2.3124   23.5550 C   0  0  0  0  0  0  0  0  0  0  0  0
   12.8172    3.4070   23.5931 H   0  0  0  0  0  0  0  0  0  0  0  0
   13.6761    1.9219   23.9304 H   0  0  0  0  0  0  0  0  0  0  0  0
   11.5648    1.8665   24.4570 C   0  0  0  0  0  0  0  0  0  0  0  0
   11.6945    2.2004   25.4853 H   0  0  0  0  0  0  0  0  0  0  0  0
   11.5335    0.7652   24.4862 H   0  0  0  0  0  0  0  0  0  0  0  0
   10.2528    2.3670   23.8370 C   0  0  0  0  0  0  0  0  0  0  0  0
    9.4048    2.2119   24.5197 H   0  0  0  0  0  0  0  0  0  0  0  0
   10.3168    3.4637   23.6704 H   0  0  0  0  0  0  0  0  0  0  0  0
    8.9186   -1.2446   24.1470 C   0  0  0  0  0  0  0  0  0  0  0  0
    8.2412   -1.4469   24.9860 H   0  0  0  0  0  0  0  0  0  0  0  0
    9.4248   -0.2890   24.3225 H   0  0  0  0  0  0  0  0  0  0  0  0
    9.9113   -2.4072   23.9204 C   0  0  0  0  0  0  0  0  0  0  0  0
   10.8537   -2.0446   23.4930 H   0  0  0  0  0  0  0  0  0  0  0  0
   10.1215   -2.9867   24.8191 H   0  0  0  0  0  0  0  0  0  0  0  0
    9.1450   -3.5395   22.6969 S   0  0  0  0  0  0  0  0  0  0  0  0
    5.3773    0.7225   20.0798 C   0  0  0  0  0  0  0  0  0  0  0  0
    4.9283    0.7781   21.0753 H   0  0  0  0  0  0  0  0  0  0  0  0
    4.8176    1.3779   18.9827 C   0  0  0  0  0  0  0  0  0  0  0  0
    3.9226    1.9803   19.0865 H   0  0  0  0  0  0  0  0  0  0  0  0
  1  2  1  0
  2  3  2  0
  3  4  1  0
  4  5  1  0
  4  6  2  0
  6  7  1  0
  7  8  1  0
  8  9  2  0
  9 10  1  0
 10 11  1  0
 11 12  1  0
 12 13  1  0
 13 14  1  0
 13 15  1  0
 13 16  1  0
 16 17  1  0
 16 18  1  0
 16 19  1  0
 19 20  1  0
 20 21  1  0
 20 22  1  0
 20 23  1  0
 23 24  1  0
 23 25  1  0
 23 26  1  0
 26 27  1  0
 26 28  1  0
 26 29  1  0
 29 30  1  0
 29 31  1  0
 29 32  1  0
 32 33  1  0
 32 34  1  0
 10 35  1  0
 35 36  1  0
 35 37  1  0
 35 38  1  0
 38 39  1  0
 38 40  1  0
 38 41  1  0
  6 42  1  0
 42 43  1  0
 42 44  2  0
 44 45  1  0
 44  2  1  0
 11  7  2  0
 32 19  1  0
 41  9  1  0
M  END
>  <cnnaffinity>  (1) 
-5.49444

>  <filename>  (1) 
c1cncc(-c2nc3n(c2OCCN2CCCCC2)CCS3)c1

$$$$
