
     RDKit          3D

 32 33  0  0  0  0  0  0  0  0999 V2000
    5.0807    1.8008   16.9313 H   0  0  0  0  0  0  0  0  0  0  0  0
    5.4831    1.2749   17.7943 C   0  0  0  0  0  0  0  0  0  0  0  0
    6.6407    0.6111   17.6081 N   0  0  0  0  0  0  0  0  0  0  0  0
    7.1554   -0.0227   18.6628 C   0  0  0  0  0  0  0  0  0  0  0  0
    8.0903   -0.5576   18.5132 H   0  0  0  0  0  0  0  0  0  0  0  0
    6.5754   -0.0447   19.9437 C   0  0  0  0  0  0  0  0  0  0  0  0
    7.3177   -0.7567   20.9296 N   0  0  0  0  0  0  0  0  0  0  0  0
    6.8708   -0.7200   22.0907 N   0  0  0  0  0  0  0  0  0  0  0  0
    7.7598   -1.4159   23.0428 C   0  0  0  0  0  0  0  0  0  0  0  0
    7.1407   -1.6637   23.9127 H   0  0  0  0  0  0  0  0  0  0  0  0
    8.0908   -2.3579   22.5881 H   0  0  0  0  0  0  0  0  0  0  0  0
    8.9716   -0.5513   23.4491 C   0  0  0  0  0  0  0  0  0  0  0  0
    9.5490   -0.3940   22.5228 H   0  0  0  0  0  0  0  0  0  0  0  0
    9.9347   -1.2177   24.4568 C   0  0  0  0  0  0  0  0  0  0  0  0
    9.4073   -1.4563   25.3940 H   0  0  0  0  0  0  0  0  0  0  0  0
   10.3079   -2.1747   24.0592 H   0  0  0  0  0  0  0  0  0  0  0  0
   11.1267   -0.2865   24.7688 C   0  0  0  0  0  0  0  0  0  0  0  0
   11.7737   -0.7458   25.5210 H   0  0  0  0  0  0  0  0  0  0  0  0
   11.7166   -0.1715   23.8467 H   0  0  0  0  0  0  0  0  0  0  0  0
   10.7022    1.1057   25.2544 C   0  0  0  0  0  0  0  0  0  0  0  0
   10.2216    1.0116   26.2370 H   0  0  0  0  0  0  0  0  0  0  0  0
   11.5734    1.7569   25.4099 H   0  0  0  0  0  0  0  0  0  0  0  0
    9.7320    1.7383   24.2554 C   0  0  0  0  0  0  0  0  0  0  0  0
   10.2692    1.9253   23.3108 H   0  0  0  0  0  0  0  0  0  0  0  0
    9.3671    2.6994   24.6278 H   0  0  0  0  0  0  0  0  0  0  0  0
    8.5342    0.8275   23.9809 C   0  0  0  0  0  0  0  0  0  0  0  0
    7.9419    0.6935   24.9029 H   0  0  0  0  0  0  0  0  0  0  0  0
    7.8694    1.2974   23.2529 H   0  0  0  0  0  0  0  0  0  0  0  0
    5.3682    0.6463   20.1282 C   0  0  0  0  0  0  0  0  0  0  0  0
    4.9093    0.6620   21.1161 H   0  0  0  0  0  0  0  0  0  0  0  0
    4.8193    1.3039   19.0271 C   0  0  0  0  0  0  0  0  0  0  0  0
    3.8909    1.8524   19.1158 H   0  0  0  0  0  0  0  0  0  0  0  0
  1  2  1  0
  2  3  2  0
  3  4  1  0
  4  5  1  0
  4  6  2  0
  6  7  1  0
  7  8  2  3
  8  9  1  0
  9 10  1  0
  9 11  1  0
  9 12  1  0
 12 13  1  0
 12 14  1  0
 14 15  1  0
 14 16  1  0
 14 17  1  0
 17 18  1  0
 17 19  1  0
 17 20  1  0
 20 21  1  0
 20 22  1  0
 20 23  1  0
 23 24  1  0
 23 25  1  0
 23 26  1  0
 26 27  1  0
 26 28  1  0
  6 29  1  0
 29 30  1  0
 29 31  2  0
 31 32  1  0
 31  2  1  0
 26 12  1  0
M  END
>  <cnnaffinity>  (1) 
-4.80322

>  <filename>  (1) 
c1cncc(N=NCC2CCCCC2)c1

$$$$
