
     RDKit          3D

 35 38  0  0  0  0  0  0  0  0999 V2000
    4.9100    1.7827   16.9942 H   0  0  0  0  0  0  0  0  0  0  0  0
    5.3968    1.2970   17.8343 C   0  0  0  0  0  0  0  0  0  0  0  0
    6.5597    0.6816   17.5644 N   0  0  0  0  0  0  0  0  0  0  0  0
    7.1708    0.0727   18.5856 C   0  0  0  0  0  0  0  0  0  0  0  0
    8.1132   -0.4277   18.3664 H   0  0  0  0  0  0  0  0  0  0  0  0
    6.6632    0.0164   19.8957 C   0  0  0  0  0  0  0  0  0  0  0  0
    7.3804   -0.7011   20.9748 C   0  0  0  0  0  0  0  0  0  0  0  0
    8.7692   -0.5888   21.1610 C   0  0  0  0  0  0  0  0  0  0  0  0
    9.3366    0.0586   20.4962 H   0  0  0  0  0  0  0  0  0  0  0  0
    9.4538   -1.2140   22.1271 N   0  0  0  0  0  0  0  0  0  0  0  0
    8.7499   -1.9900   22.9621 C   0  0  0  0  0  0  0  0  0  0  0  0
    9.3164   -2.5011   23.7358 H   0  0  0  0  0  0  0  0  0  0  0  0
    7.3629   -2.1964   22.8728 C   0  0  0  0  0  0  0  0  0  0  0  0
    6.6481   -3.0629   23.8397 C   0  0  0  0  0  0  0  0  0  0  0  0
    6.6667   -2.7368   25.1816 C   0  0  0  0  0  0  0  0  0  0  0  0
    7.2264   -1.8608   25.5069 H   0  0  0  0  0  0  0  0  0  0  0  0
    5.9456   -3.5012   26.1323 C   0  0  0  0  0  0  0  0  0  0  0  0
    5.9811   -3.2054   27.1797 H   0  0  0  0  0  0  0  0  0  0  0  0
    5.2182   -4.6008   25.7307 C   0  0  0  0  0  0  0  0  0  0  0  0
    4.6590   -5.2044   26.4365 H   0  0  0  0  0  0  0  0  0  0  0  0
    5.1844   -4.9916   24.3576 C   0  0  0  0  0  0  0  0  0  0  0  0
    4.4479   -6.1022   24.0151 N   0  0  0  0  0  0  0  0  0  0  0  0
    4.4416   -6.4626   22.7528 C   0  0  0  0  0  0  0  0  0  0  0  0
    3.8511   -7.3404   22.4948 H   0  0  0  0  0  0  0  0  0  0  0  0
    5.1454   -5.7834   21.7160 C   0  0  0  0  0  0  0  0  0  0  0  0
    5.1027   -6.1513   20.6954 H   0  0  0  0  0  0  0  0  0  0  0  0
    5.8815   -4.6744   22.0361 C   0  0  0  0  0  0  0  0  0  0  0  0
    6.4507   -4.1334   21.2775 H   0  0  0  0  0  0  0  0  0  0  0  0
    5.9159   -4.2204   23.3947 C   0  0  0  0  0  0  0  0  0  0  0  0
    6.6776   -1.5209   21.8592 C   0  0  0  0  0  0  0  0  0  0  0  0
    5.6028   -1.6661   21.7404 H   0  0  0  0  0  0  0  0  0  0  0  0
    5.4381    0.6508   20.1496 C   0  0  0  0  0  0  0  0  0  0  0  0
    5.0178    0.6321   21.1595 H   0  0  0  0  0  0  0  0  0  0  0  0
    4.8033    1.3171   19.1024 C   0  0  0  0  0  0  0  0  0  0  0  0
    3.8702    1.8464   19.2586 H   0  0  0  0  0  0  0  0  0  0  0  0
  1  2  1  0
  2  3  2  0
  3  4  1  0
  4  5  1  0
  4  6  2  0
  6  7  1  0
  7  8  2  0
  8  9  1  0
  8 10  1  0
 10 11  2  0
 11 12  1  0
 11 13  1  0
 13 14  1  0
 14 15  2  0
 15 16  1  0
 15 17  1  0
 17 18  1  0
 17 19  2  0
 19 20  1  0
 19 21  1  0
 21 22  2  0
 22 23  1  0
 23 24  1  0
 23 25  2  0
 25 26  1  0
 25 27  1  0
 27 28  1  0
 27 29  2  0
 13 30  2  0
 30 31  1  0
  6 32  1  0
 32 33  1  0
 32 34  2  0
 34 35  1  0
 34  2  1  0
 30  7  1  0
 29 14  1  0
 29 21  1  0
M  END
>  <cnnaffinity>  (1) 
-5.50016

>  <filename>  (1) 
c1cncc(-c2cncc(-c3cccc4ncccc34)c2)c1

$$$$
