
     RDKit          3D

 33 37  0  0  0  0  0  0  0  0999 V2000
    4.9288    1.7956   16.9802 H   0  0  0  0  0  0  0  0  0  0  0  0
    5.3921    1.2922   17.8293 C   0  0  0  0  0  0  0  0  0  0  0  0
    6.5542    0.6685   17.5813 N   0  0  0  0  0  0  0  0  0  0  0  0
    7.1588    0.0605   18.6095 C   0  0  0  0  0  0  0  0  0  0  0  0
    8.1111   -0.4055   18.3587 H   0  0  0  0  0  0  0  0  0  0  0  0
    6.6544    0.0314   19.9277 C   0  0  0  0  0  0  0  0  0  0  0  0
    7.3941   -0.6609   21.0022 C   0  0  0  0  0  0  0  0  0  0  0  0
    8.1574   -1.7508   20.8690 C   0  0  0  0  0  0  0  0  0  0  0  0
    8.3828   -2.1399   19.9158 H   0  0  0  0  0  0  0  0  0  0  0  0
    8.8369   -2.3712   22.3321 S   0  0  0  0  0  0  0  0  0  0  0  0
    8.1235   -1.0372   23.1818 C   0  0  0  0  0  0  0  0  0  0  0  0
    8.1448   -0.5301   24.3872 N   0  0  0  0  0  0  0  0  0  0  0  0
    7.3772    0.5855   24.2151 C   0  0  0  0  0  0  0  0  0  0  0  0
    7.1013    1.5210   25.2925 C   0  0  0  0  0  0  0  0  0  0  0  0
    6.2985    2.6773   25.0410 C   0  0  0  0  0  0  0  0  0  0  0  0
    5.9100    2.8378   24.0362 H   0  0  0  0  0  0  0  0  0  0  0  0
    6.0231    3.5719   26.0521 C   0  0  0  0  0  0  0  0  0  0  0  0
    5.4147    4.4503   25.8730 H   0  0  0  0  0  0  0  0  0  0  0  0
    6.5714    3.2871   27.3303 C   0  0  0  0  0  0  0  0  0  0  0  0
    7.3629    2.1426   27.5835 C   0  0  0  0  0  0  0  0  0  0  0  0
    7.6982    2.2343   28.9678 C   0  0  0  0  0  0  0  0  0  0  0  0
    8.3050    1.5606   29.5655 H   0  0  0  0  0  0  0  0  0  0  0  0
    7.1838    3.3184   29.5079 N   0  0  0  0  0  0  0  0  0  0  0  0
    6.5060    3.9436   28.5161 N   0  0  0  0  0  0  0  0  0  0  0  0
    6.0084    4.7974   28.7060 H   0  0  0  0  0  0  0  0  0  0  0  0
    7.6384    1.2454   26.5416 C   0  0  0  0  0  0  0  0  0  0  0  0
    8.2513    0.3565   26.6833 H   0  0  0  0  0  0  0  0  0  0  0  0
    6.8971    0.7859   22.9957 N   0  0  0  0  0  0  0  0  0  0  0  0
    7.3852   -0.2816   22.3389 N   0  0  0  0  0  0  0  0  0  0  0  0
    5.4265    0.6718   20.1582 C   0  0  0  0  0  0  0  0  0  0  0  0
    5.0090    0.6704   21.1657 H   0  0  0  0  0  0  0  0  0  0  0  0
    4.7923    1.3111   19.0928 C   0  0  0  0  0  0  0  0  0  0  0  0
    3.8617    1.8484   19.2345 H   0  0  0  0  0  0  0  0  0  0  0  0
  1  2  1  0
  2  3  2  0
  3  4  1  0
  4  5  1  0
  4  6  2  0
  6  7  1  0
  7  8  2  0
  8  9  1  0
  8 10  1  0
 10 11  1  0
 11 12  2  0
 12 13  1  0
 13 14  1  0
 14 15  2  0
 15 16  1  0
 15 17  1  0
 17 18  1  0
 17 19  2  0
 19 20  1  0
 20 21  1  0
 21 22  1  0
 21 23  2  0
 23 24  1  0
 24 25  1  0
 20 26  2  0
 26 27  1  0
 13 28  2  0
 28 29  1  0
  6 30  1  0
 30 31  1  0
 30 32  2  0
 32 33  1  0
 32  2  1  0
 29  7  1  0
 29 11  1  0
 26 14  1  0
 24 19  1  0
M  END
>  <cnnaffinity>  (1) 
-5.2116

>  <filename>  (1) 
c1cncc(-c2csc3nc(-c4ccc5[nH]ncc5c4)nn23)c1

$$$$
