
     RDKit          3D

 41 44  0  0  0  0  0  0  0  0999 V2000
    4.8944    1.8661   17.0095 H   0  0  0  0  0  0  0  0  0  0  0  0
    5.3963    1.3330   17.8164 C   0  0  0  0  0  0  0  0  0  0  0  0
    6.5533    0.7268   17.5044 N   0  0  0  0  0  0  0  0  0  0  0  0
    7.1928    0.0687   18.4864 C   0  0  0  0  0  0  0  0  0  0  0  0
    8.1293   -0.4052   18.1966 H   0  0  0  0  0  0  0  0  0  0  0  0
    6.7257   -0.0547   19.8278 C   0  0  0  0  0  0  0  0  0  0  0  0
    7.4368   -0.7880   20.8251 N   0  0  0  0  0  0  0  0  0  0  0  0
    6.7087   -1.7397   21.6820 C   0  0  0  0  0  0  0  0  0  0  0  0
    5.6328   -1.5564   21.5928 H   0  0  0  0  0  0  0  0  0  0  0  0
    6.8645   -2.7643   21.3027 H   0  0  0  0  0  0  0  0  0  0  0  0
    7.0672   -1.8042   23.1955 C   0  0  0  0  0  0  0  0  0  0  0  0
    6.3472   -2.4940   23.6524 H   0  0  0  0  0  0  0  0  0  0  0  0
    8.0535   -2.2794   23.2842 H   0  0  0  0  0  0  0  0  0  0  0  0
    7.0875   -0.5729   23.9778 N   0  0  0  0  0  0  0  0  0  0  0  0
    5.8644    0.0061   24.4040 C   0  0  0  0  0  0  0  0  0  0  0  0
    4.9887   -0.7524   25.2513 C   0  0  0  0  0  0  0  0  0  0  0  0
    5.3219   -1.7344   25.5762 H   0  0  0  0  0  0  0  0  0  0  0  0
    3.7448   -0.2818   25.6342 C   0  0  0  0  0  0  0  0  0  0  0  0
    3.0446   -0.8907   26.1970 H   0  0  0  0  0  0  0  0  0  0  0  0
    3.3775    1.0057   25.1899 C   0  0  0  0  0  0  0  0  0  0  0  0
    4.2327    1.8081   24.4065 C   0  0  0  0  0  0  0  0  0  0  0  0
    3.4863    3.0149   24.2117 C   0  0  0  0  0  0  0  0  0  0  0  0
    3.7813    3.9002   23.6608 H   0  0  0  0  0  0  0  0  0  0  0  0
    2.2995    2.9429   24.7853 N   0  0  0  0  0  0  0  0  0  0  0  0
    2.2340    1.7222   25.3666 N   0  0  0  0  0  0  0  0  0  0  0  0
    1.4078    1.4266   25.8651 H   0  0  0  0  0  0  0  0  0  0  0  0
    5.4922    1.2849   23.9942 C   0  0  0  0  0  0  0  0  0  0  0  0
    6.1580    1.8178   23.3273 H   0  0  0  0  0  0  0  0  0  0  0  0
    8.2871    0.2374   23.8376 C   0  0  0  0  0  0  0  0  0  0  0  0
    8.2159    1.0818   24.5386 H   0  0  0  0  0  0  0  0  0  0  0  0
    9.1407   -0.3777   24.1771 H   0  0  0  0  0  0  0  0  0  0  0  0
    8.6106    0.7824   22.4331 C   0  0  0  0  0  0  0  0  0  0  0  0
    7.8640    1.5322   22.1407 H   0  0  0  0  0  0  0  0  0  0  0  0
    9.5720    1.3091   22.5039 H   0  0  0  0  0  0  0  0  0  0  0  0
    8.7147   -0.2495   21.2961 C   0  0  0  0  0  0  0  0  0  0  0  0
    9.3683   -1.0886   21.5870 H   0  0  0  0  0  0  0  0  0  0  0  0
    9.1970    0.2370   20.4379 H   0  0  0  0  0  0  0  0  0  0  0  0
    5.5159    0.6055   20.1178 C   0  0  0  0  0  0  0  0  0  0  0  0
    5.1388    0.5909   21.1428 H   0  0  0  0  0  0  0  0  0  0  0  0
    4.8452    1.3008   19.1004 C   0  0  0  0  0  0  0  0  0  0  0  0
    3.9083    1.8104   19.2905 H   0  0  0  0  0  0  0  0  0  0  0  0
  1  2  1  0
  2  3  2  0
  3  4  1  0
  4  5  1  0
  4  6  2  0
  6  7  1  0
  7  8  1  0
  8  9  1  0
  8 10  1  0
  8 11  1  0
 11 12  1  0
 11 13  1  0
 11 14  1  0
 14 15  1  0
 15 16  2  0
 16 17  1  0
 16 18  1  0
 18 19  1  0
 18 20  2  0
 20 21  1  0
 21 22  1  0
 22 23  1  0
 22 24  2  0
 24 25  1  0
 25 26  1  0
 21 27  2  0
 27 28  1  0
 14 29  1  0
 29 30  1  0
 29 31  1  0
 29 32  1  0
 32 33  1  0
 32 34  1  0
 32 35  1  0
 35 36  1  0
 35 37  1  0
  6 38  1  0
 38 39  1  0
 38 40  2  0
 40 41  1  0
 40  2  1  0
 35  7  1  0
 27 15  1  0
 25 20  1  0
M  END
>  <cnnaffinity>  (1) 
-5.45949

>  <filename>  (1) 
c1cncc(N2CCCN(c3ccc4[nH]ncc4c3)CC2)c1

$$$$
