
     RDKit          3D

 39 41  0  0  0  0  0  0  0  0999 V2000
    4.9236    1.7772   17.0016 H   0  0  0  0  0  0  0  0  0  0  0  0
    5.4099    1.2914   17.8461 C   0  0  0  0  0  0  0  0  0  0  0  0
    6.5694    0.6661   17.5931 N   0  0  0  0  0  0  0  0  0  0  0  0
    7.1668    0.0464   18.6186 C   0  0  0  0  0  0  0  0  0  0  0  0
    8.1170   -0.4332   18.3788 H   0  0  0  0  0  0  0  0  0  0  0  0
    6.6472   -0.0039   19.9130 C   0  0  0  0  0  0  0  0  0  0  0  0
    7.3473   -0.7730   20.9687 C   0  0  0  0  0  0  0  0  0  0  0  0
    6.6563   -1.8182   21.4573 N   0  0  0  0  0  0  0  0  0  0  0  0
    7.2403   -2.5679   22.3965 C   0  0  0  0  0  0  0  0  0  0  0  0
    6.6617   -3.4114   22.7602 H   0  0  0  0  0  0  0  0  0  0  0  0
    8.5165   -2.3186   22.9037 C   0  0  0  0  0  0  0  0  0  0  0  0
    8.9389   -2.9576   23.6656 H   0  0  0  0  0  0  0  0  0  0  0  0
    9.2227   -1.2233   22.4131 C   0  0  0  0  0  0  0  0  0  0  0  0
   10.2108   -0.9739   22.8051 H   0  0  0  0  0  0  0  0  0  0  0  0
    8.6410   -0.4086   21.4314 C   0  0  0  0  0  0  0  0  0  0  0  0
    9.3808    0.8498   21.0084 C   0  0  0  0  0  0  0  0  0  0  0  0
   10.4576    0.6315   20.9972 H   0  0  0  0  0  0  0  0  0  0  0  0
    9.1070    1.0939   19.9813 H   0  0  0  0  0  0  0  0  0  0  0  0
    9.1518    2.0978   21.8963 C   0  0  0  0  0  0  0  0  0  0  0  0
    9.7555    2.9077   21.4558 H   0  0  0  0  0  0  0  0  0  0  0  0
    7.6894    2.5794   21.8941 C   0  0  0  0  0  0  0  0  0  0  0  0
    7.0446    1.7920   22.3044 H   0  0  0  0  0  0  0  0  0  0  0  0
    7.3338    2.7196   20.8706 H   0  0  0  0  0  0  0  0  0  0  0  0
    7.5094    3.8619   22.7152 C   0  0  0  0  0  0  0  0  0  0  0  0
    6.4551    4.1633   22.7235 H   0  0  0  0  0  0  0  0  0  0  0  0
    8.0602    4.6803   22.2300 H   0  0  0  0  0  0  0  0  0  0  0  0
    8.0287    3.6870   24.1492 C   0  0  0  0  0  0  0  0  0  0  0  0
    7.9378    4.6258   24.7077 H   0  0  0  0  0  0  0  0  0  0  0  0
    7.3946    2.9548   24.6680 H   0  0  0  0  0  0  0  0  0  0  0  0
    9.4805    3.1908   24.1707 C   0  0  0  0  0  0  0  0  0  0  0  0
   10.1351    3.9712   23.7598 H   0  0  0  0  0  0  0  0  0  0  0  0
    9.8080    3.0155   25.2015 H   0  0  0  0  0  0  0  0  0  0  0  0
    9.6505    1.9134   23.3427 C   0  0  0  0  0  0  0  0  0  0  0  0
   10.7017    1.5950   23.3427 H   0  0  0  0  0  0  0  0  0  0  0  0
    9.0785    1.1096   23.8269 H   0  0  0  0  0  0  0  0  0  0  0  0
    5.4310    0.6431   20.1638 C   0  0  0  0  0  0  0  0  0  0  0  0
    4.9906    0.6259   21.1652 H   0  0  0  0  0  0  0  0  0  0  0  0
    4.8116    1.3136   19.1107 C   0  0  0  0  0  0  0  0  0  0  0  0
    3.8761    1.8436   19.2600 H   0  0  0  0  0  0  0  0  0  0  0  0
  1  2  1  0
  2  3  2  0
  3  4  1  0
  4  5  1  0
  4  6  2  0
  6  7  1  0
  7  8  2  0
  8  9  1  0
  9 10  1  0
  9 11  2  0
 11 12  1  0
 11 13  1  0
 13 14  1  0
 13 15  2  0
 15 16  1  0
 16 17  1  0
 16 18  1  0
 16 19  1  0
 19 20  1  0
 19 21  1  0
 21 22  1  0
 21 23  1  0
 21 24  1  0
 24 25  1  0
 24 26  1  0
 24 27  1  0
 27 28  1  0
 27 29  1  0
 27 30  1  0
 30 31  1  0
 30 32  1  0
 30 33  1  0
 33 34  1  0
 33 35  1  0
  6 36  1  0
 36 37  1  0
 36 38  2  0
 38 39  1  0
 38  2  1  0
 15  7  1  0
 33 19  1  0
M  END
>  <cnnaffinity>  (1) 
-5.41543

>  <filename>  (1) 
c1cncc(-c2ncccc2CC2CCCCC2)c1

$$$$
