
     RDKit          3D

 34 36  0  0  0  0  0  0  0  0999 V2000
    4.9336    1.8313   16.9617 H   0  0  0  0  0  0  0  0  0  0  0  0
    5.3891    1.3083   17.8006 C   0  0  0  0  0  0  0  0  0  0  0  0
    6.5452    0.6752   17.5530 N   0  0  0  0  0  0  0  0  0  0  0  0
    7.1484    0.0620   18.5852 C   0  0  0  0  0  0  0  0  0  0  0  0
    8.0877   -0.4358   18.3489 H   0  0  0  0  0  0  0  0  0  0  0  0
    6.6403    0.0190   19.9004 C   0  0  0  0  0  0  0  0  0  0  0  0
    7.3904   -0.6795   20.9851 C   0  0  0  0  0  0  0  0  0  0  0  0
    8.7163   -0.5893   21.3989 C   0  0  0  0  0  0  0  0  0  0  0  0
    9.7620    0.3935   20.9363 C   0  0  0  0  0  0  0  0  0  0  0  0
   10.7600   -0.0645   20.9700 H   0  0  0  0  0  0  0  0  0  0  0  0
    9.5595    0.6287   19.8854 H   0  0  0  0  0  0  0  0  0  0  0  0
    9.7807    1.7412   21.6977 C   0  0  0  0  0  0  0  0  0  0  0  0
   10.5129    2.3938   21.1878 H   0  0  0  0  0  0  0  0  0  0  0  0
    8.4306    2.4560   21.6698 C   0  0  0  0  0  0  0  0  0  0  0  0
    8.2225    2.7828   20.6564 H   0  0  0  0  0  0  0  0  0  0  0  0
    7.6211    1.7685   21.9298 H   0  0  0  0  0  0  0  0  0  0  0  0
    8.5314    3.5613   22.7334 C   0  0  0  0  0  0  0  0  0  0  0  0
    8.8945    4.4958   22.2882 H   0  0  0  0  0  0  0  0  0  0  0  0
    7.5591    3.7806   23.1895 H   0  0  0  0  0  0  0  0  0  0  0  0
    9.5518    3.0317   23.7769 C   0  0  0  0  0  0  0  0  0  0  0  0
   10.3335    3.7774   23.9501 H   0  0  0  0  0  0  0  0  0  0  0  0
    9.0955    2.8500   24.7555 H   0  0  0  0  0  0  0  0  0  0  0  0
   10.1231    1.7177   23.1946 C   0  0  0  0  0  0  0  0  0  0  0  0
   11.1952    1.5977   23.3725 H   0  0  0  0  0  0  0  0  0  0  0  0
    9.6296    0.8647   23.6744 H   0  0  0  0  0  0  0  0  0  0  0  0
    8.8117   -1.5254   22.4570 C   0  0  0  0  0  0  0  0  0  0  0  0
    9.6757   -1.7643   23.0607 H   0  0  0  0  0  0  0  0  0  0  0  0
    7.6618   -2.1500   22.6970 N   0  0  0  0  0  0  0  0  0  0  0  0
    6.8225   -1.6070   21.8000 N   0  0  0  0  0  0  0  0  0  0  0  0
    5.8632   -1.9159   21.7697 H   0  0  0  0  0  0  0  0  0  0  0  0
    5.4076    0.6678   20.1191 C   0  0  0  0  0  0  0  0  0  0  0  0
    4.9575    0.6828   21.1100 H   0  0  0  0  0  0  0  0  0  0  0  0
    4.7756    1.3242   19.0561 C   0  0  0  0  0  0  0  0  0  0  0  0
    3.8415    1.8657   19.1921 H   0  0  0  0  0  0  0  0  0  0  0  0
  1  2  1  0
  2  3  2  0
  3  4  1  0
  4  5  1  0
  4  6  2  0
  6  7  1  0
  7  8  2  0
  8  9  1  0
  9 10  1  0
  9 11  1  0
  9 12  1  0
 12 13  1  0
 12 14  1  0
 14 15  1  0
 14 16  1  0
 14 17  1  0
 17 18  1  0
 17 19  1  0
 17 20  1  0
 20 21  1  0
 20 22  1  0
 20 23  1  0
 23 24  1  0
 23 25  1  0
  8 26  1  0
 26 27  1  0
 26 28  2  0
 28 29  1  0
 29 30  1  0
  6 31  1  0
 31 32  1  0
 31 33  2  0
 33 34  1  0
 33  2  1  0
 29  7  1  0
 23 12  1  0
M  END
>  <cnnaffinity>  (1) 
-5.23529

>  <filename>  (1) 
c1cncc(-c2[nH]ncc2CC2CCCC2)c1

$$$$
