
     RDKit          3D

 40 44  0  0  0  0  0  0  0  0999 V2000
    4.9572    1.8531   16.9166 H   0  0  0  0  0  0  0  0  0  0  0  0
    5.3912    1.3046   17.7505 C   0  0  0  0  0  0  0  0  0  0  0  0
    6.5280    0.6396   17.4916 N   0  0  0  0  0  0  0  0  0  0  0  0
    7.1160    0.0085   18.5109 C   0  0  0  0  0  0  0  0  0  0  0  0
    8.0224   -0.5432   18.2679 H   0  0  0  0  0  0  0  0  0  0  0  0
    6.6315    0.0253   19.8336 C   0  0  0  0  0  0  0  0  0  0  0  0
    7.4055   -0.5962   20.9132 C   0  0  0  0  0  0  0  0  0  0  0  0
    8.1645   -1.6741   20.7107 N   0  0  0  0  0  0  0  0  0  0  0  0
    8.6764   -1.9198   21.9155 N   0  0  0  0  0  0  0  0  0  0  0  0
    8.3133   -1.0856   22.8824 C   0  0  0  0  0  0  0  0  0  0  0  0
    7.4538   -0.1756   22.2919 C   0  0  0  0  0  0  0  0  0  0  0  0
    6.9679    1.0293   22.9568 C   0  0  0  0  0  0  0  0  0  0  0  0
    7.3131    2.2673   22.4449 C   0  0  0  0  0  0  0  0  0  0  0  0
    7.8785    2.3080   21.5144 H   0  0  0  0  0  0  0  0  0  0  0  0
    7.0333    3.4567   23.0351 N   0  0  0  0  0  0  0  0  0  0  0  0
    6.3654    3.4265   24.1689 C   0  0  0  0  0  0  0  0  0  0  0  0
    6.1707    4.3827   24.6561 H   0  0  0  0  0  0  0  0  0  0  0  0
    5.9058    2.2378   24.8043 C   0  0  0  0  0  0  0  0  0  0  0  0
    5.1704    2.2677   26.0303 C   0  0  0  0  0  0  0  0  0  0  0  0
    4.9532    3.2263   26.5017 H   0  0  0  0  0  0  0  0  0  0  0  0
    4.7504    1.0920   26.6044 C   0  0  0  0  0  0  0  0  0  0  0  0
    4.1857    1.1083   27.5290 H   0  0  0  0  0  0  0  0  0  0  0  0
    5.0495   -0.1566   26.0013 C   0  0  0  0  0  0  0  0  0  0  0  0
    4.7164   -1.0797   26.4656 H   0  0  0  0  0  0  0  0  0  0  0  0
    5.7720   -0.2096   24.8286 C   0  0  0  0  0  0  0  0  0  0  0  0
    6.0085   -1.1673   24.3729 H   0  0  0  0  0  0  0  0  0  0  0  0
    6.2251    0.9879   24.1868 C   0  0  0  0  0  0  0  0  0  0  0  0
    9.0620   -1.3805   24.1554 C   0  0  0  0  0  0  0  0  0  0  0  0
    9.6120   -0.5053   24.5134 H   0  0  0  0  0  0  0  0  0  0  0  0
    8.3721   -1.6856   24.9484 H   0  0  0  0  0  0  0  0  0  0  0  0
   10.0314   -2.5149   23.7291 C   0  0  0  0  0  0  0  0  0  0  0  0
   11.0378   -2.1185   23.6313 H   0  0  0  0  0  0  0  0  0  0  0  0
   10.0549   -3.3279   24.4585 H   0  0  0  0  0  0  0  0  0  0  0  0
    9.5880   -2.9641   22.3088 C   0  0  0  0  0  0  0  0  0  0  0  0
    9.0764   -3.9307   22.2745 H   0  0  0  0  0  0  0  0  0  0  0  0
   10.4266   -2.9460   21.6172 H   0  0  0  0  0  0  0  0  0  0  0  0
    5.4040    0.6686   20.0724 C   0  0  0  0  0  0  0  0  0  0  0  0
    4.9387    0.6567   21.0618 H   0  0  0  0  0  0  0  0  0  0  0  0
    4.7832    1.3184   19.0089 C   0  0  0  0  0  0  0  0  0  0  0  0
    3.8512    1.8534   19.1393 H   0  0  0  0  0  0  0  0  0  0  0  0
  1  2  1  0
  2  3  2  0
  3  4  1  0
  4  5  1  0
  4  6  2  0
  6  7  1  0
  7  8  2  0
  8  9  1  0
  9 10  1  0
 10 11  2  0
 11 12  1  0
 12 13  2  0
 13 14  1  0
 13 15  1  0
 15 16  2  0
 16 17  1  0
 16 18  1  0
 18 19  2  0
 19 20  1  0
 19 21  1  0
 21 22  1  0
 21 23  2  0
 23 24  1  0
 23 25  1  0
 25 26  1  0
 25 27  2  0
 10 28  1  0
 28 29  1  0
 28 30  1  0
 28 31  1  0
 31 32  1  0
 31 33  1  0
 31 34  1  0
 34 35  1  0
 34 36  1  0
  6 37  1  0
 37 38  1  0
 37 39  2  0
 39 40  1  0
 39  2  1  0
 11  7  1  0
 27 12  1  0
 34  9  1  0
 27 18  1  0
M  END
>  <cnnaffinity>  (1) 
-5.7389

>  <filename>  (1) 
c1cncc(-c2nn3c(c2-c2cncc4ccccc24)CCC3)c1

$$$$
