
     RDKit          3D

 33 36  0  0  0  0  0  0  0  0999 V2000
    4.9205    1.8415   16.9862 H   0  0  0  0  0  0  0  0  0  0  0  0
    5.3717    1.3006   17.8161 C   0  0  0  0  0  0  0  0  0  0  0  0
    6.5138    0.6513   17.5442 N   0  0  0  0  0  0  0  0  0  0  0  0
    7.1193    0.0142   18.5509 C   0  0  0  0  0  0  0  0  0  0  0  0
    8.0647   -0.4766   18.3141 H   0  0  0  0  0  0  0  0  0  0  0  0
    6.6167   -0.0222   19.8665 C   0  0  0  0  0  0  0  0  0  0  0  0
    7.5714   -0.8217   21.1731 S   0  0  0  0  0  0  0  0  0  0  0  0
    8.6012    0.5466   21.6266 C   0  0  0  0  0  0  0  0  0  0  0  0
    9.8050    0.8090   21.1611 N   0  0  0  0  0  0  0  0  0  0  0  0
   10.1146    2.0405   21.6192 N   0  0  0  0  0  0  0  0  0  0  0  0
    9.1696    2.5270   22.3325 N   0  0  0  0  0  0  0  0  0  0  0  0
    8.1894    1.5977   22.3656 N   0  0  0  0  0  0  0  0  0  0  0  0
    6.9830    1.7952   23.0970 C   0  0  0  0  0  0  0  0  0  0  0  0
    6.6439    0.9132   24.1010 C   0  0  0  0  0  0  0  0  0  0  0  0
    7.3183    0.1006   24.3665 H   0  0  0  0  0  0  0  0  0  0  0  0
    5.4357    1.1005   24.8164 C   0  0  0  0  0  0  0  0  0  0  0  0
    5.2208    0.4374   25.6549 H   0  0  0  0  0  0  0  0  0  0  0  0
    4.5723    2.1270   24.5033 C   0  0  0  0  0  0  0  0  0  0  0  0
    3.6524    2.2657   25.0728 H   0  0  0  0  0  0  0  0  0  0  0  0
    4.8940    3.0537   23.4563 C   0  0  0  0  0  0  0  0  0  0  0  0
    4.0135    4.1161   23.0717 C   0  0  0  0  0  0  0  0  0  0  0  0
    3.0345    4.1917   23.5400 H   0  0  0  0  0  0  0  0  0  0  0  0
    4.4091    5.0551   22.1465 C   0  0  0  0  0  0  0  0  0  0  0  0
    3.7531    5.8725   21.8643 H   0  0  0  0  0  0  0  0  0  0  0  0
    5.6913    4.9858   21.5608 C   0  0  0  0  0  0  0  0  0  0  0  0
    6.0053    5.7391   20.8470 H   0  0  0  0  0  0  0  0  0  0  0  0
    6.5403    3.9471   21.8513 C   0  0  0  0  0  0  0  0  0  0  0  0
    7.5406    3.9176   21.4386 H   0  0  0  0  0  0  0  0  0  0  0  0
    6.1541    2.9278   22.7785 C   0  0  0  0  0  0  0  0  0  0  0  0
    5.4172    0.6504   20.1333 C   0  0  0  0  0  0  0  0  0  0  0  0
    5.0141    0.6876   21.1492 H   0  0  0  0  0  0  0  0  0  0  0  0
    4.7809    1.3184   19.0823 C   0  0  0  0  0  0  0  0  0  0  0  0
    3.8579    1.8689   19.2321 H   0  0  0  0  0  0  0  0  0  0  0  0
  1  2  1  0
  2  3  2  0
  3  4  1  0
  4  5  1  0
  4  6  2  0
  6  7  1  0
  7  8  1  0
  8  9  2  0
  9 10  1  0
 10 11  2  0
 11 12  1  0
 12 13  1  0
 13 14  2  0
 14 15  1  0
 14 16  1  0
 16 17  1  0
 16 18  2  0
 18 19  1  0
 18 20  1  0
 20 21  2  0
 21 22  1  0
 21 23  1  0
 23 24  1  0
 23 25  2  0
 25 26  1  0
 25 27  1  0
 27 28  1  0
 27 29  2  0
  6 30  1  0
 30 31  1  0
 30 32  2  0
 32 33  1  0
 32  2  1  0
 12  8  1  0
 29 13  1  0
 29 20  1  0
M  END
>  <cnnaffinity>  (1) 
-5.13165

>  <filename>  (1) 
c1cncc(Sc2nnnn2-c2cccc3ccccc23)c1

$$$$
