
     RDKit          3D

 40 43  0  0  0  0  0  0  0  0999 V2000
    4.9260    1.8170   16.9598 H   0  0  0  0  0  0  0  0  0  0  0  0
    5.3874    1.3101   17.8038 C   0  0  0  0  0  0  0  0  0  0  0  0
    6.5471    0.6828   17.5493 N   0  0  0  0  0  0  0  0  0  0  0  0
    7.1596    0.0720   18.5743 C   0  0  0  0  0  0  0  0  0  0  0  0
    8.1026   -0.4217   18.3397 H   0  0  0  0  0  0  0  0  0  0  0  0
    6.6624    0.0490   19.9047 C   0  0  0  0  0  0  0  0  0  0  0  0
    7.2688   -0.6310   20.9758 N   0  0  0  0  0  0  0  0  0  0  0  0
    7.8351   -1.9393   20.7258 C   0  0  0  0  0  0  0  0  0  0  0  0
    8.8983   -1.8726   20.4280 H   0  0  0  0  0  0  0  0  0  0  0  0
    7.2517   -2.3515   19.8978 H   0  0  0  0  0  0  0  0  0  0  0  0
    7.6942   -2.8541   21.9376 C   0  0  0  0  0  0  0  0  0  0  0  0
    8.2246   -3.7971   21.7588 H   0  0  0  0  0  0  0  0  0  0  0  0
    6.6303   -3.0958   22.0633 H   0  0  0  0  0  0  0  0  0  0  0  0
    8.2325   -2.1673   23.2085 C   0  0  0  0  0  0  0  0  0  0  0  0
    9.3139   -1.9963   23.0692 H   0  0  0  0  0  0  0  0  0  0  0  0
    8.0829   -3.0418   24.4145 C   0  0  0  0  0  0  0  0  0  0  0  0
    9.0448   -3.5522   25.2367 C   0  0  0  0  0  0  0  0  0  0  0  0
   10.1075   -3.3838   25.1020 H   0  0  0  0  0  0  0  0  0  0  0  0
    8.3754   -4.3161   26.2518 C   0  0  0  0  0  0  0  0  0  0  0  0
    8.8278   -5.0593   27.3595 C   0  0  0  0  0  0  0  0  0  0  0  0
    9.8948   -5.1207   27.5543 H   0  0  0  0  0  0  0  0  0  0  0  0
    7.8951   -5.6982   28.1635 C   0  0  0  0  0  0  0  0  0  0  0  0
    8.2373   -6.2839   29.0067 H   0  0  0  0  0  0  0  0  0  0  0  0
    6.5096   -5.6072   27.8884 C   0  0  0  0  0  0  0  0  0  0  0  0
    5.8088   -6.1217   28.5395 H   0  0  0  0  0  0  0  0  0  0  0  0
    6.0346   -4.8808   26.8031 C   0  0  0  0  0  0  0  0  0  0  0  0
    4.9674   -4.8234   26.6044 H   0  0  0  0  0  0  0  0  0  0  0  0
    6.9859   -4.2365   25.9856 C   0  0  0  0  0  0  0  0  0  0  0  0
    6.8401   -3.4574   24.8562 N   0  0  0  0  0  0  0  0  0  0  0  0
    5.9653   -3.2013   24.4299 H   0  0  0  0  0  0  0  0  0  0  0  0
    7.5477   -0.7913   23.3924 C   0  0  0  0  0  0  0  0  0  0  0  0
    7.9315   -0.2906   24.2899 H   0  0  0  0  0  0  0  0  0  0  0  0
    6.4697   -0.9528   23.5369 H   0  0  0  0  0  0  0  0  0  0  0  0
    7.7518    0.0829   22.1505 C   0  0  0  0  0  0  0  0  0  0  0  0
    7.2077    1.0338   22.2331 H   0  0  0  0  0  0  0  0  0  0  0  0
    8.8246    0.3386   22.0437 H   0  0  0  0  0  0  0  0  0  0  0  0
    5.4402    0.6990   20.1321 C   0  0  0  0  0  0  0  0  0  0  0  0
    5.0380    0.6517   21.1432 H   0  0  0  0  0  0  0  0  0  0  0  0
    4.7905    1.3342   19.0714 C   0  0  0  0  0  0  0  0  0  0  0  0
    3.8521    1.8575   19.2244 H   0  0  0  0  0  0  0  0  0  0  0  0
  1  2  1  0
  2  3  2  0
  3  4  1  0
  4  5  1  0
  4  6  2  0
  6  7  1  0
  7  8  1  0
  8  9  1  0
  8 10  1  0
  8 11  1  0
 11 12  1  0
 11 13  1  0
 11 14  1  0
 14 15  1  0
 14 16  1  0
 16 17  2  0
 17 18  1  0
 17 19  1  0
 19 20  2  0
 20 21  1  0
 20 22  1  0
 22 23  1  0
 22 24  2  0
 24 25  1  0
 24 26  1  0
 26 27  1  0
 26 28  2  0
 28 29  1  0
 29 30  1  0
 14 31  1  0
 31 32  1  0
 31 33  1  0
 31 34  1  0
 34 35  1  0
 34 36  1  0
  6 37  1  0
 37 38  1  0
 37 39  2  0
 39 40  1  0
 39  2  1  0
 34  7  1  0
 29 16  1  0
 28 19  1  0
M  END
>  <cnnaffinity>  (1) 
-5.01012

>  <filename>  (1) 
c1cncc(N2CCC(c3cc4ccccc4[nH]3)CC2)c1

$$$$
