
     RDKit          3D

 36 38  0  0  0  0  0  0  0  0999 V2000
    4.7407    1.4035   18.8777 C   0  0  0  0  0  0  0  0  0  0  0  0
    5.4634    1.3084   17.6805 C   0  0  0  0  0  0  0  0  0  0  0  0
    6.6176    0.6355   17.5648 N   0  0  0  0  0  0  0  0  0  0  0  0
    7.0963    0.0598   18.6652 C   0  0  0  0  0  0  0  0  0  0  0  0
    6.4672    0.1222   19.9205 C   0  0  0  0  0  0  0  0  0  0  0  0
    7.1839   -0.5165   21.0219 C   0  0  0  0  0  0  0  0  0  0  0  0
    6.6934   -0.8088   22.1967 N   0  0  0  0  0  0  0  0  0  0  0  0
    7.7553   -1.4535   22.8309 O   0  0  0  0  0  0  0  0  0  0  0  0
    8.7679   -1.4662   21.9698 C   0  0  0  0  0  0  0  0  0  0  0  0
   10.0426   -2.1469   22.3199 C   0  0  0  0  0  0  0  0  0  0  0  0
   11.4384   -1.0153   22.5794 S   0  0  0  0  0  0  0  0  0  0  0  0
   10.7615    0.0515   23.9191 C   0  0  0  0  0  0  0  0  0  0  0  0
   10.1413    1.3514   23.3446 C   0  0  0  0  0  0  0  0  0  0  0  0
   11.2070    2.4519   23.1478 C   0  0  0  0  0  0  0  0  0  0  0  0
   12.5068    1.7533   22.8233 N   0  0  0  0  0  4  0  0  0  0  0  0
   13.0797    1.0793   24.0721 C   0  0  0  0  0  0  0  0  0  0  0  0
   11.9206    0.4162   24.8606 C   0  0  0  0  0  0  0  0  0  0  0  0
   11.5049    1.1094   25.6026 H   0  0  0  0  0  0  0  0  0  0  0  0
   12.2598   -0.4633   25.4067 H   0  0  0  0  0  0  0  0  0  0  0  0
   13.8134    0.3288   23.7622 H   0  0  0  0  0  0  0  0  0  0  0  0
   13.6023    1.8144   24.6926 H   0  0  0  0  0  0  0  0  0  0  0  0
   13.1825    2.3572   22.3287 H   0  0  0  0  0  0  0  0  0  0  0  0
   12.2464    0.9688   22.1735 H   0  0  0  0  0  0  0  0  0  0  0  0
   11.3262    3.0164   24.0820 H   0  0  0  0  0  0  0  0  0  0  0  0
   10.9237    3.1684   22.3714 H   0  0  0  0  0  0  0  0  0  0  0  0
    9.3721    1.7078   24.0370 H   0  0  0  0  0  0  0  0  0  0  0  0
    9.6261    1.1384   22.4028 H   0  0  0  0  0  0  0  0  0  0  0  0
    9.9955   -0.5380   24.4334 H   0  0  0  0  0  0  0  0  0  0  0  0
    9.9136   -2.8080   23.1736 H   0  0  0  0  0  0  0  0  0  0  0  0
   10.3200   -2.7374   21.4480 H   0  0  0  0  0  0  0  0  0  0  0  0
    8.4996   -0.8892   20.8444 N   0  0  0  0  0  0  0  0  0  0  0  0
    5.2397    0.7948   20.0281 C   0  0  0  0  0  0  0  0  0  0  0  0
    4.6973    0.8461   20.9769 H   0  0  0  0  0  0  0  0  0  0  0  0
    8.0280   -0.4907   18.5582 H   0  0  0  0  0  0  0  0  0  0  0  0
    5.0989    1.7868   16.7760 H   0  0  0  0  0  0  0  0  0  0  0  0
    3.8130    1.9644   18.8921 H   0  0  0  0  0  0  0  0  0  0  0  0
  1  2  2  0
  2  3  1  0
  3  4  2  0
  4  5  1  0
  5  6  1  0
  6  7  2  0
  7  8  1  0
  8  9  1  0
  9 10  1  0
 10 11  1  0
 11 12  1  0
 12 13  1  0
 13 14  1  0
 14 15  1  0
 15 16  1  0
 16 17  1  0
 17 18  1  0
 17 19  1  0
 16 20  1  0
 16 21  1  0
 15 22  1  0
 15 23  1  0
 14 24  1  0
 14 25  1  0
 13 26  1  0
 13 27  1  0
 12 28  1  0
 10 29  1  0
 10 30  1  0
  9 31  2  0
  5 32  2  0
 32 33  1  0
  4 34  1  0
  2 35  1  0
  1 36  1  0
 32  1  1  0
 31  6  1  0
 17 12  1  0
M  CHG  1  15   1
M  END
>  <cnnaffinity>  (1) 
-5.15063

>  <filename>  (1) 
c1cncc(-c2noc(CSC3CC[NH2+]CC3)n2)c1

$$$$
