
     RDKit          3D

 32 35  0  0  0  0  0  0  0  0999 V2000
    9.0540   -3.0840   22.1724 H   0  0  0  0  0  0  0  0  0  0  0  0
    8.4802   -2.2053   21.8966 C   0  0  0  0  0  0  0  0  0  0  0  0
    8.0524   -1.8853   20.7264 N   0  0  0  0  0  0  0  0  0  0  0  0
    7.3784   -0.6952   20.9356 C   0  0  0  0  0  0  0  0  0  0  0  0
    6.6511    0.0022   19.8904 C   0  0  0  0  0  0  0  0  0  0  0  0
    7.1722    0.0461   18.5880 C   0  0  0  0  0  0  0  0  0  0  0  0
    8.1220   -0.4363   18.3721 H   0  0  0  0  0  0  0  0  0  0  0  0
    6.5700    0.6761   17.5783 N   0  0  0  0  0  0  0  0  0  0  0  0
    5.4059    1.2911   17.8410 C   0  0  0  0  0  0  0  0  0  0  0  0
    4.9181    1.7776   17.0006 H   0  0  0  0  0  0  0  0  0  0  0  0
    4.8030    1.3097   19.1050 C   0  0  0  0  0  0  0  0  0  0  0  0
    3.8721    1.8453   19.2592 H   0  0  0  0  0  0  0  0  0  0  0  0
    5.4328    0.6511   20.1553 C   0  0  0  0  0  0  0  0  0  0  0  0
    5.0027    0.6347   21.1623 H   0  0  0  0  0  0  0  0  0  0  0  0
    7.4774   -0.3382   22.2625 C   0  0  0  0  0  0  0  0  0  0  0  0
    7.0595    0.8463   22.9890 C   0  0  0  0  0  0  0  0  0  0  0  0
    7.3206    2.0997   22.4534 C   0  0  0  0  0  0  0  0  0  0  0  0
    7.8459    2.1791   21.5058 H   0  0  0  0  0  0  0  0  0  0  0  0
    6.9596    3.2798   23.0125 N   0  0  0  0  0  0  0  0  0  0  0  0
    6.3021    3.2213   24.1542 C   0  0  0  0  0  0  0  0  0  0  0  0
    6.0235    4.1634   24.6185 H   0  0  0  0  0  0  0  0  0  0  0  0
    5.9387    2.0140   24.8186 C   0  0  0  0  0  0  0  0  0  0  0  0
    5.2216    2.0022   26.0566 C   0  0  0  0  0  0  0  0  0  0  0  0
    4.9492    2.9460   26.5285 H   0  0  0  0  0  0  0  0  0  0  0  0
    4.8780    0.8053   26.6410 C   0  0  0  0  0  0  0  0  0  0  0  0
    4.3339    0.7884   27.5828 H   0  0  0  0  0  0  0  0  0  0  0  0
    5.2222   -0.4271   26.0240 C   0  0  0  0  0  0  0  0  0  0  0  0
    4.9404   -1.3680   26.4865 H   0  0  0  0  0  0  0  0  0  0  0  0
    5.9187   -0.4390   24.8341 C   0  0  0  0  0  0  0  0  0  0  0  0
    6.1689   -1.3720   24.3406 H   0  0  0  0  0  0  0  0  0  0  0  0
    6.3128    0.7786   24.2117 C   0  0  0  0  0  0  0  0  0  0  0  0
    8.1824   -1.3381   22.8803 O   0  0  0  0  0  0  0  0  0  0  0  0
  1  2  1  0
  2  3  2  0
  3  4  1  0
  4  5  1  0
  5  6  2  0
  6  7  1  0
  6  8  1  0
  8  9  2  0
  9 10  1  0
  9 11  1  0
 11 12  1  0
 11 13  2  0
 13 14  1  0
  4 15  2  0
 15 16  1  0
 16 17  2  0
 17 18  1  0
 17 19  1  0
 19 20  2  0
 20 21  1  0
 20 22  1  0
 22 23  2  0
 23 24  1  0
 23 25  1  0
 25 26  1  0
 25 27  2  0
 27 28  1  0
 27 29  1  0
 29 30  1  0
 29 31  2  0
 15 32  1  0
 32  2  1  0
 13  5  1  0
 31 16  1  0
 31 22  1  0
M  END
>  <cnnaffinity>  (1) 
-4.94238

>  <filename>  (1) 
c1cncc(-c2ncoc2-c2cncc3ccccc23)c1

$$$$
