
     RDKit          3D

 33 36  0  0  0  0  0  0  0  0999 V2000
    4.9374    1.8622   17.0010 H   0  0  0  0  0  0  0  0  0  0  0  0
    5.4090    1.3151   17.8141 C   0  0  0  0  0  0  0  0  0  0  0  0
    6.5566    0.6831   17.5202 N   0  0  0  0  0  0  0  0  0  0  0  0
    7.1736    0.0356   18.5221 C   0  0  0  0  0  0  0  0  0  0  0  0
    8.0910   -0.4923   18.2687 H   0  0  0  0  0  0  0  0  0  0  0  0
    6.6977   -0.0175   19.8578 C   0  0  0  0  0  0  0  0  0  0  0  0
    7.3841   -0.6723   20.8915 N   0  0  0  0  0  0  0  0  0  0  0  0
    6.8345   -0.9404   21.6974 H   0  0  0  0  0  0  0  0  0  0  0  0
    8.7739   -0.6659   21.1111 C   0  0  0  0  0  0  0  0  0  0  0  0
    9.7359    0.2908   20.7227 C   0  0  0  0  0  0  0  0  0  0  0  0
    9.5627    1.1664   20.1210 H   0  0  0  0  0  0  0  0  0  0  0  0
   10.9547   -0.0302   21.1442 N   0  0  0  0  0  0  0  0  0  0  0  0
   10.7841   -1.1779   21.8185 N   0  0  0  0  0  0  0  0  0  0  0  0
   11.6056   -1.7089   22.0758 H   0  0  0  0  0  0  0  0  0  0  0  0
    9.4941   -1.6170   21.8249 C   0  0  0  0  0  0  0  0  0  0  0  0
    9.0262   -2.8407   22.4833 C   0  0  0  0  0  0  0  0  0  0  0  0
    9.5804   -3.2730   23.7324 C   0  0  0  0  0  0  0  0  0  0  0  0
   10.4177   -2.7311   24.1624 H   0  0  0  0  0  0  0  0  0  0  0  0
    9.0419   -4.3373   24.4295 C   0  0  0  0  0  0  0  0  0  0  0  0
    9.4429   -4.6880   25.3770 H   0  0  0  0  0  0  0  0  0  0  0  0
    7.9152   -4.9655   23.8573 C   0  0  0  0  0  0  0  0  0  0  0  0
    7.4038   -4.6262   22.5839 C   0  0  0  0  0  0  0  0  0  0  0  0
    6.3131   -5.5325   22.4036 C   0  0  0  0  0  0  0  0  0  0  0  0
    5.6711   -5.6505   21.5381 H   0  0  0  0  0  0  0  0  0  0  0  0
    6.1517   -6.3097   23.4527 N   0  0  0  0  0  0  0  0  0  0  0  0
    7.1135   -5.9444   24.3363 N   0  0  0  0  0  0  0  0  0  0  0  0
    7.2667   -6.4701   25.1866 H   0  0  0  0  0  0  0  0  0  0  0  0
    7.9807   -3.5409   21.8831 C   0  0  0  0  0  0  0  0  0  0  0  0
    7.6463   -3.2173   20.9014 H   0  0  0  0  0  0  0  0  0  0  0  0
    5.4645    0.5961   20.1226 C   0  0  0  0  0  0  0  0  0  0  0  0
    5.0410    0.5581   21.1283 H   0  0  0  0  0  0  0  0  0  0  0  0
    4.8240    1.2838   19.0868 C   0  0  0  0  0  0  0  0  0  0  0  0
    3.8917    1.8108   19.2591 H   0  0  0  0  0  0  0  0  0  0  0  0
  1  2  1  0
  2  3  2  0
  3  4  1  0
  4  5  1  0
  4  6  2  0
  6  7  1  0
  7  8  1  0
  7  9  1  0
  9 10  1  0
 10 11  1  0
 10 12  2  0
 12 13  1  0
 13 14  1  0
 13 15  1  0
 15 16  1  0
 16 17  2  0
 17 18  1  0
 17 19  1  0
 19 20  1  0
 19 21  2  0
 21 22  1  0
 22 23  1  0
 23 24  1  0
 23 25  2  0
 25 26  1  0
 26 27  1  0
 22 28  2  0
 28 29  1  0
  6 30  1  0
 30 31  1  0
 30 32  2  0
 32 33  1  0
 32  2  1  0
 15  9  2  0
 28 16  1  0
 26 21  1  0
M  END
>  <cnnaffinity>  (1) 
-5.9195

>  <filename>  (1) 
c1cncc(Nc2cn[nH]c2-c2ccc3[nH]ncc3c2)c1

$$$$
