
     RDKit          3D

 36 39  0  0  0  0  0  0  0  0999 V2000
    4.9106    1.7895   16.9881 H   0  0  0  0  0  0  0  0  0  0  0  0
    5.3929    1.3011   17.8276 C   0  0  0  0  0  0  0  0  0  0  0  0
    6.5590    0.6898   17.5553 N   0  0  0  0  0  0  0  0  0  0  0  0
    7.1622    0.0648   18.5707 C   0  0  0  0  0  0  0  0  0  0  0  0
    8.1189   -0.4081   18.3468 H   0  0  0  0  0  0  0  0  0  0  0  0
    6.6507    0.0110   19.8831 C   0  0  0  0  0  0  0  0  0  0  0  0
    7.3628   -0.6645   20.9669 C   0  0  0  0  0  0  0  0  0  0  0  0
    7.5081   -0.3244   22.3046 C   0  0  0  0  0  0  0  0  0  0  0  0
    7.0268    0.8358   22.9149 N   0  0  0  0  0  0  0  0  0  0  0  0
    6.9845    1.6545   22.3249 H   0  0  0  0  0  0  0  0  0  0  0  0
    6.8323    1.0461   24.2844 C   0  0  0  0  0  0  0  0  0  0  0  0
    6.3549   -0.0313   25.0957 C   0  0  0  0  0  0  0  0  0  0  0  0
    6.1670   -0.9830   24.6079 H   0  0  0  0  0  0  0  0  0  0  0  0
    6.1442    0.1475   26.4394 C   0  0  0  0  0  0  0  0  0  0  0  0
    5.7883   -0.6758   27.0503 H   0  0  0  0  0  0  0  0  0  0  0  0
    6.3843    1.4069   27.0602 C   0  0  0  0  0  0  0  0  0  0  0  0
    6.1670    1.6185   28.4564 C   0  0  0  0  0  0  0  0  0  0  0  0
    5.8142    0.7827   29.0615 H   0  0  0  0  0  0  0  0  0  0  0  0
    6.3984    2.8528   29.0213 C   0  0  0  0  0  0  0  0  0  0  0  0
    6.2292    3.0101   30.0866 H   0  0  0  0  0  0  0  0  0  0  0  0
    6.8596    3.9369   28.2133 C   0  0  0  0  0  0  0  0  0  0  0  0
    7.0339    4.9063   28.6782 H   0  0  0  0  0  0  0  0  0  0  0  0
    7.0791    3.7620   26.8663 C   0  0  0  0  0  0  0  0  0  0  0  0
    7.4273    4.5837   26.2439 H   0  0  0  0  0  0  0  0  0  0  0  0
    6.8504    2.4942   26.2461 C   0  0  0  0  0  0  0  0  0  0  0  0
    7.0594    2.2830   24.8483 C   0  0  0  0  0  0  0  0  0  0  0  0
    7.4171    3.1129   24.2405 H   0  0  0  0  0  0  0  0  0  0  0  0
    8.2813   -1.3772   22.8510 C   0  0  0  0  0  0  0  0  0  0  0  0
    8.6129   -1.4471   23.8724 H   0  0  0  0  0  0  0  0  0  0  0  0
    8.6038   -2.2919   21.9448 N   0  0  0  0  0  0  0  0  0  0  0  0
    8.0480   -1.8282   20.8174 N   0  0  0  0  0  0  0  0  0  0  0  0
    8.1353   -2.3592   19.9681 H   0  0  0  0  0  0  0  0  0  0  0  0
    5.4335    0.6623   20.1465 C   0  0  0  0  0  0  0  0  0  0  0  0
    5.0169    0.6250   21.1574 H   0  0  0  0  0  0  0  0  0  0  0  0
    4.7965    1.3173   19.0943 C   0  0  0  0  0  0  0  0  0  0  0  0
    3.8660    1.8480   19.2530 H   0  0  0  0  0  0  0  0  0  0  0  0
  1  2  1  0
  2  3  2  0
  3  4  1  0
  4  5  1  0
  4  6  2  0
  6  7  1  0
  7  8  2  0
  8  9  1  0
  9 10  1  0
  9 11  1  0
 11 12  2  0
 12 13  1  0
 12 14  1  0
 14 15  1  0
 14 16  2  0
 16 17  1  0
 17 18  1  0
 17 19  2  0
 19 20  1  0
 19 21  1  0
 21 22  1  0
 21 23  2  0
 23 24  1  0
 23 25  1  0
 25 26  2  0
 26 27  1  0
  8 28  1  0
 28 29  1  0
 28 30  2  0
 30 31  1  0
 31 32  1  0
  6 33  1  0
 33 34  1  0
 33 35  2  0
 35 36  1  0
 35  2  1  0
 31  7  1  0
 26 11  1  0
 25 16  1  0
M  END
>  <cnnaffinity>  (1) 
-5.58535

>  <filename>  (1) 
c1cncc(-c2[nH]ncc2Nc2ccc3ccccc3c2)c1

$$$$
