
     RDKit          3D

 47 50  0  0  0  0  0  0  0  0999 V2000
    4.9430    1.8452   16.9681 H   0  0  0  0  0  0  0  0  0  0  0  0
    5.4038    1.3162   17.7992 C   0  0  0  0  0  0  0  0  0  0  0  0
    6.5645    0.6873   17.5371 N   0  0  0  0  0  0  0  0  0  0  0  0
    7.1644    0.0381   18.5463 C   0  0  0  0  0  0  0  0  0  0  0  0
    8.1131   -0.4418   18.2985 H   0  0  0  0  0  0  0  0  0  0  0  0
    6.6545   -0.0284   19.8668 C   0  0  0  0  0  0  0  0  0  0  0  0
    7.2879   -0.7474   20.8968 N   0  0  0  0  0  0  0  0  0  0  0  0
    7.9875   -1.4261   20.6211 H   0  0  0  0  0  0  0  0  0  0  0  0
    7.3867   -0.3441   22.2538 C   0  0  0  0  0  0  0  0  0  0  0  0
    7.2734    0.9452   22.8475 C   0  0  0  0  0  0  0  0  0  0  0  0
    7.0721    1.8895   22.3604 H   0  0  0  0  0  0  0  0  0  0  0  0
    7.4611    0.9277   24.1628 N   0  0  0  0  0  0  0  0  0  0  0  0
    7.7175   -0.3715   24.4243 N   0  0  0  0  0  0  0  0  0  0  0  0
    7.7531   -0.7139   25.3695 H   0  0  0  0  0  0  0  0  0  0  0  0
    7.6607   -1.1841   23.3328 C   0  0  0  0  0  0  0  0  0  0  0  0
    7.8053   -2.5524   23.4330 N   0  0  0  0  0  0  0  0  0  0  0  0
    8.6795   -3.2261   24.3839 C   0  0  0  0  0  0  0  0  0  0  0  0
    9.3091   -2.4929   24.8934 H   0  0  0  0  0  0  0  0  0  0  0  0
    9.3549   -3.8840   23.8192 H   0  0  0  0  0  0  0  0  0  0  0  0
    7.8626   -4.0864   25.3655 C   0  0  0  0  0  0  0  0  0  0  0  0
    8.4742   -4.9339   25.6932 H   0  0  0  0  0  0  0  0  0  0  0  0
    7.6091   -3.5168   26.2666 H   0  0  0  0  0  0  0  0  0  0  0  0
    6.5499   -4.6097   24.7354 C   0  0  0  0  0  0  0  0  0  0  0  0
    5.7707   -3.8353   24.8984 H   0  0  0  0  0  0  0  0  0  0  0  0
    6.1154   -5.8522   25.3620 N   0  0  0  0  0  0  0  0  0  0  0  0
    4.8553   -6.3797   24.8220 C   0  0  0  0  0  0  0  0  0  0  0  0
    5.0533   -7.0314   23.9600 H   0  0  0  0  0  0  0  0  0  0  0  0
    4.2021   -5.5691   24.4505 H   0  0  0  0  0  0  0  0  0  0  0  0
    4.1481   -7.1015   25.9862 C   0  0  0  0  0  0  0  0  0  0  0  0
    3.1800   -6.6193   26.1628 H   0  0  0  0  0  0  0  0  0  0  0  0
    3.9565   -8.1544   25.7710 H   0  0  0  0  0  0  0  0  0  0  0  0
    5.0744   -6.9358   27.2019 C   0  0  0  0  0  0  0  0  0  0  0  0
    4.5188   -6.7246   28.1233 H   0  0  0  0  0  0  0  0  0  0  0  0
    5.6704   -7.8364   27.3822 H   0  0  0  0  0  0  0  0  0  0  0  0
    5.9693   -5.7603   26.8181 C   0  0  0  0  0  0  0  0  0  0  0  0
    5.4841   -4.8111   27.1305 H   0  0  0  0  0  0  0  0  0  0  0  0
    6.9528   -5.8075   27.3032 H   0  0  0  0  0  0  0  0  0  0  0  0
    6.7215   -4.7668   23.2205 C   0  0  0  0  0  0  0  0  0  0  0  0
    5.8366   -5.2235   22.7671 H   0  0  0  0  0  0  0  0  0  0  0  0
    7.5516   -5.4566   23.0304 H   0  0  0  0  0  0  0  0  0  0  0  0
    6.9838   -3.4018   22.5709 C   0  0  0  0  0  0  0  0  0  0  0  0
    6.0313   -2.8774   22.4149 H   0  0  0  0  0  0  0  0  0  0  0  0
    7.4443   -3.5306   21.5794 H   0  0  0  0  0  0  0  0  0  0  0  0
    5.4381    0.6270   20.1083 C   0  0  0  0  0  0  0  0  0  0  0  0
    5.0418    0.5967   21.1220 H   0  0  0  0  0  0  0  0  0  0  0  0
    4.8043    1.3061   19.0627 C   0  0  0  0  0  0  0  0  0  0  0  0
    3.8706    1.8359   19.2210 H   0  0  0  0  0  0  0  0  0  0  0  0
  1  2  1  0
  2  3  2  0
  3  4  1  0
  4  5  1  0
  4  6  2  0
  6  7  1  0
  7  8  1  0
  7  9  1  0
  9 10  1  0
 10 11  1  0
 10 12  2  0
 12 13  1  0
 13 14  1  0
 13 15  1  0
 15 16  1  0
 16 17  1  0
 17 18  1  0
 17 19  1  0
 17 20  1  0
 20 21  1  0
 20 22  1  0
 20 23  1  0
 23 24  1  0
 23 25  1  0
 25 26  1  0
 26 27  1  0
 26 28  1  0
 26 29  1  0
 29 30  1  0
 29 31  1  0
 29 32  1  0
 32 33  1  0
 32 34  1  0
 32 35  1  0
 35 36  1  0
 35 37  1  0
 23 38  1  0
 38 39  1  0
 38 40  1  0
 38 41  1  0
 41 42  1  0
 41 43  1  0
  6 44  1  0
 44 45  1  0
 44 46  2  0
 46 47  1  0
 46  2  1  0
 15  9  2  0
 41 16  1  0
 35 25  1  0
M  END
>  <cnnaffinity>  (1) 
-5.41856

>  <filename>  (1) 
c1cncc(Nc2cn[nH]c2N2CCC(N3CCCC3)CC2)c1

$$$$
