
     RDKit          3D

 35 37  0  0  0  0  0  0  0  0999 V2000
    4.9188    1.7784   16.9975 H   0  0  0  0  0  0  0  0  0  0  0  0
    5.4043    1.2893   17.8435 C   0  0  0  0  0  0  0  0  0  0  0  0
    6.5716    0.6694   17.6015 N   0  0  0  0  0  0  0  0  0  0  0  0
    7.1824    0.0581   18.6222 C   0  0  0  0  0  0  0  0  0  0  0  0
    8.1252   -0.4376   18.3948 H   0  0  0  0  0  0  0  0  0  0  0  0
    6.6675    0.0202   19.9315 C   0  0  0  0  0  0  0  0  0  0  0  0
    7.3638   -0.7026   20.8766 O   0  0  0  0  0  0  0  0  0  0  0  0
    7.4042   -0.3236   22.1934 C   0  0  0  0  0  0  0  0  0  0  0  0
    7.2002    0.9255   22.8110 C   0  0  0  0  0  0  0  0  0  0  0  0
    6.9284    1.8493   22.3215 H   0  0  0  0  0  0  0  0  0  0  0  0
    7.4048    0.8568   24.1173 N   0  0  0  0  0  0  0  0  0  0  0  0
    7.7379   -0.4219   24.3298 N   0  0  0  0  0  0  0  0  0  0  0  0
    7.9434   -0.7096   25.2702 H   0  0  0  0  0  0  0  0  0  0  0  0
    7.7652   -1.1867   23.2014 C   0  0  0  0  0  0  0  0  0  0  0  0
    8.1241   -2.6400   23.1205 C   0  0  0  0  0  0  0  0  0  0  0  0
    8.0334   -2.8668   22.0510 H   0  0  0  0  0  0  0  0  0  0  0  0
    9.5926   -2.9306   23.5199 C   0  0  0  0  0  0  0  0  0  0  0  0
    9.8928   -3.8627   23.0278 H   0  0  0  0  0  0  0  0  0  0  0  0
   10.2443   -2.1466   23.1150 H   0  0  0  0  0  0  0  0  0  0  0  0
    9.8235   -3.0909   25.0272 C   0  0  0  0  0  0  0  0  0  0  0  0
    9.7247   -2.1168   25.5242 H   0  0  0  0  0  0  0  0  0  0  0  0
   10.8532   -3.4301   25.1936 H   0  0  0  0  0  0  0  0  0  0  0  0
    8.8421   -4.0878   25.6510 C   0  0  0  0  0  0  0  0  0  0  0  0
    9.0148   -4.1654   26.7310 H   0  0  0  0  0  0  0  0  0  0  0  0
    9.0349   -5.0854   25.2316 H   0  0  0  0  0  0  0  0  0  0  0  0
    7.3855   -3.7023   25.3720 C   0  0  0  0  0  0  0  0  0  0  0  0
    6.7106   -4.4617   25.7861 H   0  0  0  0  0  0  0  0  0  0  0  0
    7.1431   -2.7656   25.8912 H   0  0  0  0  0  0  0  0  0  0  0  0
    7.1197   -3.5549   23.8666 C   0  0  0  0  0  0  0  0  0  0  0  0
    7.1712   -4.5503   23.4067 H   0  0  0  0  0  0  0  0  0  0  0  0
    6.1004   -3.1888   23.6937 H   0  0  0  0  0  0  0  0  0  0  0  0
    5.4395    0.6468   20.1743 C   0  0  0  0  0  0  0  0  0  0  0  0
    5.0056    0.6230   21.1745 H   0  0  0  0  0  0  0  0  0  0  0  0
    4.8104    1.3021   19.1095 C   0  0  0  0  0  0  0  0  0  0  0  0
    3.8785    1.8371   19.2615 H   0  0  0  0  0  0  0  0  0  0  0  0
  1  2  1  0
  2  3  2  0
  3  4  1  0
  4  5  1  0
  4  6  2  0
  6  7  1  0
  7  8  1  0
  8  9  1  0
  9 10  1  0
  9 11  2  0
 11 12  1  0
 12 13  1  0
 12 14  1  0
 14 15  1  0
 15 16  1  0
 15 17  1  0
 17 18  1  0
 17 19  1  0
 17 20  1  0
 20 21  1  0
 20 22  1  0
 20 23  1  0
 23 24  1  0
 23 25  1  0
 23 26  1  0
 26 27  1  0
 26 28  1  0
 26 29  1  0
 29 30  1  0
 29 31  1  0
  6 32  1  0
 32 33  1  0
 32 34  2  0
 34 35  1  0
 34  2  1  0
 14  8  2  0
 29 15  1  0
M  END
>  <cnnaffinity>  (1) 
-5.15028

>  <filename>  (1) 
c1cncc(Oc2cn[nH]c2C2CCCCC2)c1

$$$$
