
     RDKit          3D

 29 31  0  0  0  0  0  0  0  0999 V2000
    5.0142    1.7190   16.9874 H   0  0  0  0  0  0  0  0  0  0  0  0
    5.4861    1.2797   17.8657 C   0  0  0  0  0  0  0  0  0  0  0  0
    6.6670    0.6809   17.6595 N   0  0  0  0  0  0  0  0  0  0  0  0
    7.2605    0.1084   18.7166 C   0  0  0  0  0  0  0  0  0  0  0  0
    8.2105   -0.3860   18.5117 H   0  0  0  0  0  0  0  0  0  0  0  0
    6.7053    0.0792   20.0035 C   0  0  0  0  0  0  0  0  0  0  0  0
    7.3956   -0.6721   21.0935 C   0  0  0  0  0  0  0  0  0  0  0  0
    8.4625    0.0506   21.7389 N   0  0  0  0  0  0  0  0  0  0  0  0
    9.0387    0.5612   21.0938 H   0  0  0  0  0  0  0  0  0  0  0  0
    8.0667    1.0349   22.6116 C   0  0  0  0  0  0  0  0  0  0  0  0
    6.9543    1.2079   23.2006 N   0  0  0  0  0  0  0  0  0  0  0  0
    7.1459    2.3466   24.1001 C   0  0  0  0  0  0  0  0  0  0  0  0
    6.8302    2.0644   25.1083 H   0  0  0  0  0  0  0  0  0  0  0  0
    6.5271    3.1938   23.7822 H   0  0  0  0  0  0  0  0  0  0  0  0
    8.6563    2.6948   24.0429 C   0  0  0  0  0  0  0  0  0  0  0  0
    9.1653    2.3891   24.9666 H   0  0  0  0  0  0  0  0  0  0  0  0
    8.8313    3.7659   23.8957 H   0  0  0  0  0  0  0  0  0  0  0  0
    9.0985    1.9233   22.8702 N   0  0  0  0  0  0  0  0  0  0  0  0
    9.9337    1.3654   22.9880 H   0  0  0  0  0  0  0  0  0  0  0  0
    7.5731   -2.1597   20.9529 C   0  0  0  0  0  0  0  0  0  0  0  0
    7.0891   -2.6349   20.1056 H   0  0  0  0  0  0  0  0  0  0  0  0
    8.5179   -2.5836   21.2720 H   0  0  0  0  0  0  0  0  0  0  0  0
    6.6489   -1.6128   21.9886 C   0  0  0  0  0  0  0  0  0  0  0  0
    5.5808   -1.7219   21.8396 H   0  0  0  0  0  0  0  0  0  0  0  0
    6.9924   -1.6314   23.0147 H   0  0  0  0  0  0  0  0  0  0  0  0
    5.5074    0.7719   20.2150 C   0  0  0  0  0  0  0  0  0  0  0  0
    5.1230    0.8447   21.2347 H   0  0  0  0  0  0  0  0  0  0  0  0
    4.8690    1.3560   19.1201 C   0  0  0  0  0  0  0  0  0  0  0  0
    3.9149    1.8577   19.2247 H   0  0  0  0  0  0  0  0  0  0  0  0
  1  2  1  0
  2  3  2  0
  3  4  1  0
  4  5  1  0
  4  6  2  0
  6  7  1  0
  7  8  1  0
  8  9  1  0
  8 10  1  0
 10 11  2  0
 11 12  1  0
 12 13  1  0
 12 14  1  0
 12 15  1  0
 15 16  1  0
 15 17  1  0
 15 18  1  0
 18 19  1  0
  7 20  1  0
 20 21  1  0
 20 22  1  0
 20 23  1  0
 23 24  1  0
 23 25  1  0
  6 26  1  0
 26 27  1  0
 26 28  2  0
 28 29  1  0
 28  2  1  0
 23  7  1  0
 18 10  1  0
M  END
>  <cnnaffinity>  (1) 
-3.96862

>  <filename>  (1) 
c1cncc(C2(NC3=NCCN3)CC2)c1

$$$$
