
     RDKit          3D

 39 42  0  0  0  0  0  0  0  0999 V2000
    5.1251    1.8442   16.8715 H   0  0  0  0  0  0  0  0  0  0  0  0
    5.4858    1.3293   17.7625 C   0  0  0  0  0  0  0  0  0  0  0  0
    6.6332    0.6454   17.6332 N   0  0  0  0  0  0  0  0  0  0  0  0
    7.0896   -0.0079   18.7086 C   0  0  0  0  0  0  0  0  0  0  0  0
    8.0304   -0.5377   18.5875 H   0  0  0  0  0  0  0  0  0  0  0  0
    6.4218   -0.0555   19.9497 C   0  0  0  0  0  0  0  0  0  0  0  0
    6.8927   -0.9139   21.0546 C   0  0  0  0  0  0  0  0  0  0  0  0
    6.1647   -1.7947   21.7632 C   0  0  0  0  0  0  0  0  0  0  0  0
    5.1232   -2.0261   21.5956 H   0  0  0  0  0  0  0  0  0  0  0  0
    7.0732   -2.6042   23.0138 S   0  0  0  0  0  0  0  0  0  0  0  0
    8.4967   -1.7469   22.5172 C   0  0  0  0  0  0  0  0  0  0  0  0
    9.7895   -1.7506   22.7896 N   0  0  0  0  0  0  0  0  0  0  0  0
   10.2742   -0.9578   21.7927 C   0  0  0  0  0  0  0  0  0  0  0  0
   11.7372   -0.7195   21.6239 C   0  0  0  0  0  0  0  0  0  0  0  0
   11.9909   -0.8948   20.5756 H   0  0  0  0  0  0  0  0  0  0  0  0
   12.2301   -1.5046   22.2024 H   0  0  0  0  0  0  0  0  0  0  0  0
   12.2455    0.6617   22.0924 C   0  0  0  0  0  0  0  0  0  0  0  0
   13.3398    0.6670   21.9348 H   0  0  0  0  0  0  0  0  0  0  0  0
   11.9829    0.8535   23.5884 C   0  0  0  0  0  0  0  0  0  0  0  0
   10.9020    0.9773   23.7412 H   0  0  0  0  0  0  0  0  0  0  0  0
   12.2527   -0.0467   24.1542 H   0  0  0  0  0  0  0  0  0  0  0  0
   12.7325    2.0824   24.1263 C   0  0  0  0  0  0  0  0  0  0  0  0
   13.7391    1.7697   24.4210 H   0  0  0  0  0  0  0  0  0  0  0  0
   12.2046    2.4278   25.0231 H   0  0  0  0  0  0  0  0  0  0  0  0
   12.8683    3.2305   23.0936 C   0  0  0  0  0  0  0  0  0  0  0  0
   12.9128    4.2033   23.5976 H   0  0  0  0  0  0  0  0  0  0  0  0
   13.8245    3.1205   22.5620 H   0  0  0  0  0  0  0  0  0  0  0  0
   11.7280    3.2149   22.0662 C   0  0  0  0  0  0  0  0  0  0  0  0
   11.8607    4.0386   21.3534 H   0  0  0  0  0  0  0  0  0  0  0  0
   10.7741    3.3981   22.5819 H   0  0  0  0  0  0  0  0  0  0  0  0
   11.6428    1.8616   21.3102 C   0  0  0  0  0  0  0  0  0  0  0  0
   10.5973    1.6487   21.0626 H   0  0  0  0  0  0  0  0  0  0  0  0
   12.1519    1.9614   20.3506 H   0  0  0  0  0  0  0  0  0  0  0  0
    9.3734   -0.4438   20.9661 N   0  0  0  0  0  0  0  0  0  0  0  0
    8.2212   -0.9426   21.4739 N   0  0  0  0  0  0  0  0  0  0  0  0
    5.2393    0.6931   20.0716 C   0  0  0  0  0  0  0  0  0  0  0  0
    4.7126    0.7365   21.0261 H   0  0  0  0  0  0  0  0  0  0  0  0
    4.7678    1.3941   18.9613 C   0  0  0  0  0  0  0  0  0  0  0  0
    3.8650    1.9908   19.0101 H   0  0  0  0  0  0  0  0  0  0  0  0
  1  2  1  0
  2  3  2  0
  3  4  1  0
  4  5  1  0
  4  6  2  0
  6  7  1  0
  7  8  2  0
  8  9  1  0
  8 10  1  0
 10 11  1  0
 11 12  2  0
 12 13  1  0
 13 14  1  0
 14 15  1  0
 14 16  1  0
 14 17  1  0
 17 18  1  0
 17 19  1  0
 19 20  1  0
 19 21  1  0
 19 22  1  0
 22 23  1  0
 22 24  1  0
 22 25  1  0
 25 26  1  0
 25 27  1  0
 25 28  1  0
 28 29  1  0
 28 30  1  0
 28 31  1  0
 31 32  1  0
 31 33  1  0
 13 34  2  0
 34 35  1  0
  6 36  1  0
 36 37  1  0
 36 38  2  0
 38 39  1  0
 38  2  1  0
 35  7  1  0
 35 11  1  0
 31 17  1  0
M  END
>  <cnnaffinity>  (1) 
-5.29979

>  <filename>  (1) 
c1cncc(-c2csc3nc(CC4CCCCC4)nn23)c1

$$$$
