
     RDKit          3D

 39 43  0  0  0  0  0  0  0  0999 V2000
    4.9776    1.8682   16.9174 H   0  0  0  0  0  0  0  0  0  0  0  0
    5.4046    1.3057   17.7478 C   0  0  0  0  0  0  0  0  0  0  0  0
    6.5430    0.6406   17.4956 N   0  0  0  0  0  0  0  0  0  0  0  0
    7.1207   -0.0036   18.5142 C   0  0  0  0  0  0  0  0  0  0  0  0
    8.0322   -0.5442   18.2678 H   0  0  0  0  0  0  0  0  0  0  0  0
    6.6222    0.0024   19.8324 C   0  0  0  0  0  0  0  0  0  0  0  0
    7.3875   -0.6150   20.9246 C   0  0  0  0  0  0  0  0  0  0  0  0
    8.0883   -1.7295   20.7305 N   0  0  0  0  0  0  0  0  0  0  0  0
    8.6208   -1.9750   21.9249 N   0  0  0  0  0  0  0  0  0  0  0  0
    8.3496   -1.0938   22.8822 C   0  0  0  0  0  0  0  0  0  0  0  0
    7.5195   -0.1520   22.2828 C   0  0  0  0  0  0  0  0  0  0  0  0
    7.0707    1.0712   22.8840 C   0  0  0  0  0  0  0  0  0  0  0  0
    7.1691    2.3221   22.3426 C   0  0  0  0  0  0  0  0  0  0  0  0
    7.4950    2.5630   21.3368 H   0  0  0  0  0  0  0  0  0  0  0  0
    6.7923    3.2615   23.2675 N   0  0  0  0  0  0  0  0  0  0  0  0
    6.8560    4.2568   23.1482 H   0  0  0  0  0  0  0  0  0  0  0  0
    6.4349    2.6262   24.4338 C   0  0  0  0  0  0  0  0  0  0  0  0
    5.9951    3.1516   25.6605 C   0  0  0  0  0  0  0  0  0  0  0  0
    5.9191    4.2257   25.8090 H   0  0  0  0  0  0  0  0  0  0  0  0
    5.6617    2.2519   26.6686 C   0  0  0  0  0  0  0  0  0  0  0  0
    5.3042    2.6208   27.6257 H   0  0  0  0  0  0  0  0  0  0  0  0
    5.7683    0.8506   26.4683 C   0  0  0  0  0  0  0  0  0  0  0  0
    5.5001    0.1622   27.2648 H   0  0  0  0  0  0  0  0  0  0  0  0
    6.2165    0.3400   25.2574 C   0  0  0  0  0  0  0  0  0  0  0  0
    6.2943   -0.7350   25.0909 H   0  0  0  0  0  0  0  0  0  0  0  0
    6.5751    1.2395   24.2270 C   0  0  0  0  0  0  0  0  0  0  0  0
    9.1782   -1.3837   24.1177 C   0  0  0  0  0  0  0  0  0  0  0  0
    8.5377   -1.6638   24.9596 H   0  0  0  0  0  0  0  0  0  0  0  0
    9.7737   -0.5174   24.4244 H   0  0  0  0  0  0  0  0  0  0  0  0
   10.0825   -2.5591   23.6602 C   0  0  0  0  0  0  0  0  0  0  0  0
   11.1017   -2.2100   23.5177 H   0  0  0  0  0  0  0  0  0  0  0  0
   10.0959   -3.3700   24.3902 H   0  0  0  0  0  0  0  0  0  0  0  0
    9.5576   -3.0070   22.2704 C   0  0  0  0  0  0  0  0  0  0  0  0
    9.0545   -3.9785   22.2649 H   0  0  0  0  0  0  0  0  0  0  0  0
   10.3560   -2.9741   21.5339 H   0  0  0  0  0  0  0  0  0  0  0  0
    5.3887    0.6364   20.0579 C   0  0  0  0  0  0  0  0  0  0  0  0
    4.9183    0.6080   21.0427 H   0  0  0  0  0  0  0  0  0  0  0  0
    4.7782    1.3049   18.9977 C   0  0  0  0  0  0  0  0  0  0  0  0
    3.8466    1.8452   19.1282 H   0  0  0  0  0  0  0  0  0  0  0  0
  1  2  1  0
  2  3  2  0
  3  4  1  0
  4  5  1  0
  4  6  2  0
  6  7  1  0
  7  8  2  0
  8  9  1  0
  9 10  1  0
 10 11  2  0
 11 12  1  0
 12 13  2  0
 13 14  1  0
 13 15  1  0
 15 16  1  0
 15 17  1  0
 17 18  2  0
 18 19  1  0
 18 20  1  0
 20 21  1  0
 20 22  2  0
 22 23  1  0
 22 24  1  0
 24 25  1  0
 24 26  2  0
 10 27  1  0
 27 28  1  0
 27 29  1  0
 27 30  1  0
 30 31  1  0
 30 32  1  0
 30 33  1  0
 33 34  1  0
 33 35  1  0
  6 36  1  0
 36 37  1  0
 36 38  2  0
 38 39  1  0
 38  2  1  0
 11  7  1  0
 26 12  1  0
 33  9  1  0
 26 17  1  0
M  END
>  <cnnaffinity>  (1) 
-5.75166

>  <filename>  (1) 
c1cncc(-c2nn3c(c2-c2c[nH]c4ccccc24)CCC3)c1

$$$$
