
     RDKit          3D

 38 42  0  0  0  0  0  0  0  0999 V2000
    4.9827    1.8458   16.9670 H   0  0  0  0  0  0  0  0  0  0  0  0
    5.4166    1.2955   17.7995 C   0  0  0  0  0  0  0  0  0  0  0  0
    6.5637    0.6402   17.5569 N   0  0  0  0  0  0  0  0  0  0  0  0
    7.1337   -0.0176   18.5722 C   0  0  0  0  0  0  0  0  0  0  0  0
    8.0716   -0.5248   18.3405 H   0  0  0  0  0  0  0  0  0  0  0  0
    6.6052   -0.0401   19.8789 C   0  0  0  0  0  0  0  0  0  0  0  0
    7.3128   -0.7171   20.9747 C   0  0  0  0  0  0  0  0  0  0  0  0
    7.9144   -1.8867   20.7996 N   0  0  0  0  0  0  0  0  0  0  0  0
    8.4246   -2.1709   21.9981 N   0  0  0  0  0  0  0  0  0  0  0  0
    8.2184   -1.2688   22.9461 C   0  0  0  0  0  0  0  0  0  0  0  0
    7.4945   -0.2649   22.3182 C   0  0  0  0  0  0  0  0  0  0  0  0
    7.2809    1.0379   22.8395 C   0  0  0  0  0  0  0  0  0  0  0  0
    7.2525    1.1542   24.1993 O   0  0  0  0  0  0  0  0  0  0  0  0
    7.0748    2.4769   24.4551 C   0  0  0  0  0  0  0  0  0  0  0  0
    6.9296    3.0373   25.7202 C   0  0  0  0  0  0  0  0  0  0  0  0
    6.9329    2.4023   26.6002 H   0  0  0  0  0  0  0  0  0  0  0  0
    6.7608    4.4205   25.7687 C   0  0  0  0  0  0  0  0  0  0  0  0
    6.6262    4.9016   26.7370 H   0  0  0  0  0  0  0  0  0  0  0  0
    6.7489    5.2044   24.5883 C   0  0  0  0  0  0  0  0  0  0  0  0
    6.6147    6.2810   24.6679 H   0  0  0  0  0  0  0  0  0  0  0  0
    6.8948    4.6209   23.3316 C   0  0  0  0  0  0  0  0  0  0  0  0
    6.8835    5.2159   22.4188 H   0  0  0  0  0  0  0  0  0  0  0  0
    7.0493    3.2221   23.2624 C   0  0  0  0  0  0  0  0  0  0  0  0
    7.1917    2.2436   22.2237 C   0  0  0  0  0  0  0  0  0  0  0  0
    7.2354    2.3799   21.1542 H   0  0  0  0  0  0  0  0  0  0  0  0
    9.0586   -1.5432   24.1522 C   0  0  0  0  0  0  0  0  0  0  0  0
    8.4499   -1.6218   25.0546 H   0  0  0  0  0  0  0  0  0  0  0  0
    9.7550   -0.7197   24.3305 H   0  0  0  0  0  0  0  0  0  0  0  0
    9.7927   -2.8600   23.7634 C   0  0  0  0  0  0  0  0  0  0  0  0
    9.4727   -3.6887   24.3903 H   0  0  0  0  0  0  0  0  0  0  0  0
   10.8726   -2.7580   23.8597 H   0  0  0  0  0  0  0  0  0  0  0  0
    9.4260   -3.1582   22.2882 C   0  0  0  0  0  0  0  0  0  0  0  0
   10.2634   -2.9861   21.6127 H   0  0  0  0  0  0  0  0  0  0  0  0
    9.0093   -4.1498   22.1078 H   0  0  0  0  0  0  0  0  0  0  0  0
    5.3883    0.6233   20.1002 C   0  0  0  0  0  0  0  0  0  0  0  0
    4.9631    0.6527   21.1023 H   0  0  0  0  0  0  0  0  0  0  0  0
    4.7847    1.2999   19.0440 C   0  0  0  0  0  0  0  0  0  0  0  0
    3.8639    1.8511   19.1893 H   0  0  0  0  0  0  0  0  0  0  0  0
  1  2  1  0
  2  3  2  0
  3  4  1  0
  4  5  1  0
  4  6  2  0
  6  7  1  0
  7  8  2  0
  8  9  1  0
  9 10  1  0
 10 11  2  0
 11 12  1  0
 12 13  1  0
 13 14  1  0
 14 15  2  0
 15 16  1  0
 15 17  1  0
 17 18  1  0
 17 19  2  0
 19 20  1  0
 19 21  1  0
 21 22  1  0
 21 23  2  0
 23 24  1  0
 24 25  1  0
 10 26  1  0
 26 27  1  0
 26 28  1  0
 26 29  1  0
 29 30  1  0
 29 31  1  0
 29 32  1  0
 32 33  1  0
 32 34  1  0
  6 35  1  0
 35 36  1  0
 35 37  2  0
 37 38  1  0
 37  2  1  0
 11  7  1  0
 24 12  2  0
 32  9  1  0
 23 14  1  0
M  END
>  <cnnaffinity>  (1) 
-5.53645

>  <filename>  (1) 
c1cncc(-c2nn3c(c2-c2cc4ccccc4o2)CCC3)c1

$$$$
