
     RDKit          3D

 45 47  0  0  0  0  0  0  0  0999 V2000
    4.7177    2.2464   16.9457 H   0  0  0  0  0  0  0  0  0  0  0  0
    5.1505    1.6696   17.7551 C   0  0  0  0  0  0  0  0  0  0  0  0
    6.2823    1.0072   17.4704 N   0  0  0  0  0  0  0  0  0  0  0  0
    6.8569    0.3273   18.4682 C   0  0  0  0  0  0  0  0  0  0  0  0
    7.7669   -0.2036   18.1833 H   0  0  0  0  0  0  0  0  0  0  0  0
    6.3707    0.2628   19.7974 C   0  0  0  0  0  0  0  0  0  0  0  0
    7.2219   -0.4255   20.8868 C   0  0  2  0  0  0  0  0  0  0  0  0
    8.5289    0.3927   21.0922 C   0  0  0  0  0  0  0  0  0  0  0  0
    8.2651    1.4381   21.2908 H   0  0  0  0  0  0  0  0  0  0  0  0
    9.0688    0.4053   20.1373 H   0  0  0  0  0  0  0  0  0  0  0  0
    9.4715   -0.1217   22.1872 C   0  0  0  0  0  0  0  0  0  0  0  0
    9.1437    0.2513   23.1690 H   0  0  0  0  0  0  0  0  0  0  0  0
    9.4022   -1.2182   22.2588 H   0  0  0  0  0  0  0  0  0  0  0  0
   10.9598    0.2374   22.0227 C   0  0  0  0  0  0  0  0  0  0  0  0
   11.3354   -0.2616   21.1166 H   0  0  0  0  0  0  0  0  0  0  0  0
   11.7835   -0.3439   23.2010 C   0  0  0  0  0  0  0  0  0  0  0  0
   11.2792   -1.2610   23.5256 H   0  0  0  0  0  0  0  0  0  0  0  0
   12.7795   -0.6407   22.8393 H   0  0  0  0  0  0  0  0  0  0  0  0
   11.9552    0.6314   24.3820 C   0  0  0  0  0  0  0  0  0  0  0  0
   10.9715    0.8045   24.8385 H   0  0  0  0  0  0  0  0  0  0  0  0
   12.5728    0.1650   25.1596 H   0  0  0  0  0  0  0  0  0  0  0  0
   12.5769    1.9875   23.9490 C   0  0  0  0  0  0  0  0  0  0  0  0
   12.0684    2.8039   24.4758 H   0  0  0  0  0  0  0  0  0  0  0  0
   13.6270    2.0237   24.2550 H   0  0  0  0  0  0  0  0  0  0  0  0
   12.5098    2.2227   22.4277 C   0  0  0  0  0  0  0  0  0  0  0  0
   12.7095    3.2711   22.1780 H   0  0  0  0  0  0  0  0  0  0  0  0
   13.3068    1.6238   21.9729 H   0  0  0  0  0  0  0  0  0  0  0  0
   11.1738    1.7599   21.8437 C   0  0  0  0  0  0  0  0  0  0  0  0
   11.1170    2.0158   20.7806 H   0  0  0  0  0  0  0  0  0  0  0  0
   10.3540    2.3121   22.3259 H   0  0  0  0  0  0  0  0  0  0  0  0
    7.5553   -1.8977   20.4500 C   0  0  0  0  0  0  0  0  0  0  0  0
    8.6148   -2.0433   20.2007 H   0  0  0  0  0  0  0  0  0  0  0  0
    6.9586   -2.1352   19.5605 H   0  0  0  0  0  0  0  0  0  0  0  0
    7.1667   -2.8340   21.5080 N   0  0  0  0  0  0  0  0  0  0  0  0
    7.9198   -2.8571   22.1964 H   0  0  0  0  0  0  0  0  0  0  0  0
    6.0345   -2.1554   22.1332 C   0  0  0  0  0  0  0  0  0  0  0  0
    5.1511   -2.2653   21.4903 H   0  0  0  0  0  0  0  0  0  0  0  0
    5.7819   -2.6179   23.0934 H   0  0  0  0  0  0  0  0  0  0  0  0
    6.4697   -0.6837   22.2240 C   0  0  0  0  0  0  0  0  0  0  0  0
    7.1502   -0.5769   23.0758 H   0  0  0  0  0  0  0  0  0  0  0  0
    5.6621    0.0214   22.4101 H   0  0  0  0  0  0  0  0  0  0  0  0
    5.1451    0.9055   20.0342 C   0  0  0  0  0  0  0  0  0  0  0  0
    4.6630    0.8487   21.0070 H   0  0  0  0  0  0  0  0  0  0  0  0
    4.5365    1.6258   19.0084 C   0  0  0  0  0  0  0  0  0  0  0  0
    3.5989    2.1465   19.1723 H   0  0  0  0  0  0  0  0  0  0  0  0
  1  2  1  0
  2  3  2  0
  3  4  1  0
  4  5  1  0
  4  6  2  0
  6  7  1  0
  7  8  1  1
  8  9  1  0
  8 10  1  0
  8 11  1  0
 11 12  1  0
 11 13  1  0
 11 14  1  0
 14 15  1  0
 14 16  1  0
 16 17  1  0
 16 18  1  0
 16 19  1  0
 19 20  1  0
 19 21  1  0
 19 22  1  0
 22 23  1  0
 22 24  1  0
 22 25  1  0
 25 26  1  0
 25 27  1  0
 25 28  1  0
 28 29  1  0
 28 30  1  0
  7 31  1  0
 31 32  1  0
 31 33  1  0
 31 34  1  0
 34 35  1  0
 34 36  1  0
 36 37  1  0
 36 38  1  0
 36 39  1  0
 39 40  1  0
 39 41  1  0
  6 42  1  0
 42 43  1  0
 42 44  2  0
 44 45  1  0
 44  2  1  0
 39  7  1  0
 28 14  1  0
M  END
>  <cnnaffinity>  (1) 
-5.05327

>  <filename>  (1) 
c1cncc([C@@]2(CCC3CCCCC3)CCNC2)c1

$$$$
