
     RDKit          3D

 24 26  0  0  0  0  0  0  0  0999 V2000
    4.9181    1.7883   16.9997 H   0  0  0  0  0  0  0  0  0  0  0  0
    5.3983    1.2895   17.8399 C   0  0  0  0  0  0  0  0  0  0  0  0
    6.5528    0.6642   17.5730 N   0  0  0  0  0  0  0  0  0  0  0  0
    7.1921    0.0594   18.5815 C   0  0  0  0  0  0  0  0  0  0  0  0
    8.1397   -0.4157   18.3485 H   0  0  0  0  0  0  0  0  0  0  0  0
    6.6918    0.0263   19.8981 C   0  0  0  0  0  0  0  0  0  0  0  0
    7.2911   -0.6814   20.9520 O   0  0  0  0  0  0  0  0  0  0  0  0
    8.6211   -0.7762   21.0876 C   0  0  0  0  0  0  0  0  0  0  0  0
    9.5477   -0.0985   20.4731 N   0  0  0  0  0  0  0  0  0  0  0  0
   10.7226   -0.5599   20.9815 N   0  0  0  0  0  0  0  0  0  0  0  0
   10.5400   -1.4759   21.8460 N   0  0  0  0  0  0  0  0  0  0  0  0
    9.1904   -1.6555   21.9516 N   0  0  0  0  0  0  0  0  0  0  0  0
    8.6306   -2.6144   22.8159 C   0  0  0  0  0  0  0  0  0  0  0  0
    9.6329   -3.5517   23.8731 S   0  0  0  0  0  0  0  0  0  0  0  0
    8.2291   -4.3501   24.4935 C   0  0  0  0  0  0  0  0  0  0  0  0
    8.3307   -5.1031   25.2628 H   0  0  0  0  0  0  0  0  0  0  0  0
    7.0741   -3.9166   23.9173 C   0  0  0  0  0  0  0  0  0  0  0  0
    6.0850   -4.2845   24.1719 H   0  0  0  0  0  0  0  0  0  0  0  0
    7.3037   -2.9063   22.9390 C   0  0  0  0  0  0  0  0  0  0  0  0
    6.5391   -2.4045   22.3622 H   0  0  0  0  0  0  0  0  0  0  0  0
    5.4704    0.6424   20.1735 C   0  0  0  0  0  0  0  0  0  0  0  0
    5.0485    0.6038   21.1797 H   0  0  0  0  0  0  0  0  0  0  0  0
    4.8263    1.2979   19.1175 C   0  0  0  0  0  0  0  0  0  0  0  0
    3.8940    1.8244   19.2692 H   0  0  0  0  0  0  0  0  0  0  0  0
  1  2  1  0
  2  3  2  0
  3  4  1  0
  4  5  1  0
  4  6  2  0
  6  7  1  0
  7  8  1  0
  8  9  2  0
  9 10  1  0
 10 11  2  0
 11 12  1  0
 12 13  1  0
 13 14  1  0
 14 15  1  0
 15 16  1  0
 15 17  2  0
 17 18  1  0
 17 19  1  0
 19 20  1  0
  6 21  1  0
 21 22  1  0
 21 23  2  0
 23 24  1  0
 23  2  1  0
 12  8  1  0
 19 13  2  0
M  END
>  <cnnaffinity>  (1) 
-4.95693

>  <filename>  (1) 
c1cncc(Oc2nnnn2-c2cccs2)c1

$$$$
