
     RDKit          3D

 39 43  0  0  0  0  0  0  0  0999 V2000
    4.9113    1.8414   16.9567 H   0  0  0  0  0  0  0  0  0  0  0  0
    5.3976    1.3235   17.7810 C   0  0  0  0  0  0  0  0  0  0  0  0
    6.5541    0.7066   17.4974 N   0  0  0  0  0  0  0  0  0  0  0  0
    7.1763    0.0861   18.5071 C   0  0  0  0  0  0  0  0  0  0  0  0
    8.1120   -0.4073   18.2453 H   0  0  0  0  0  0  0  0  0  0  0  0
    6.7053    0.0338   19.8337 C   0  0  0  0  0  0  0  0  0  0  0  0
    7.4657   -0.6827   20.9321 C   0  0  1  0  0  0  0  0  0  0  0  0
    8.3995   -1.0683   20.5113 H   0  0  0  0  0  0  0  0  0  0  0  0
    7.8525    0.2458   22.1361 C   0  0  0  0  0  0  0  0  0  0  0  0
    7.4209    1.2473   22.0608 H   0  0  0  0  0  0  0  0  0  0  0  0
    8.9362    0.3662   22.2061 H   0  0  0  0  0  0  0  0  0  0  0  0
    7.3058   -0.4673   23.3305 C   0  0  0  0  0  0  0  0  0  0  0  0
    7.2124   -0.1809   24.6176 N   0  0  0  0  0  0  0  0  0  0  0  0
    6.5581   -1.2596   25.1266 N   0  0  0  0  0  0  0  0  0  0  0  0
    6.2969   -1.2720   26.1071 H   0  0  0  0  0  0  0  0  0  0  0  0
    6.2282   -2.1934   24.1803 C   0  0  0  0  0  0  0  0  0  0  0  0
    5.5798   -3.4929   24.4186 C   0  0  0  0  0  0  0  0  0  0  0  0
    4.5126   -3.8943   23.6122 C   0  0  0  0  0  0  0  0  0  0  0  0
    4.1495   -3.2059   22.8526 H   0  0  0  0  0  0  0  0  0  0  0  0
    3.9169   -5.1640   23.7638 C   0  0  0  0  0  0  0  0  0  0  0  0
    3.0802   -5.4319   23.1245 H   0  0  0  0  0  0  0  0  0  0  0  0
    4.3943   -6.0802   24.6996 C   0  0  0  0  0  0  0  0  0  0  0  0
    3.9513   -7.0698   24.7951 H   0  0  0  0  0  0  0  0  0  0  0  0
    5.4980   -5.6954   25.4828 C   0  0  0  0  0  0  0  0  0  0  0  0
    6.1022   -4.4183   25.3635 C   0  0  0  0  0  0  0  0  0  0  0  0
    7.2411   -4.4325   26.2402 C   0  0  0  0  0  0  0  0  0  0  0  0
    7.9589   -3.6344   26.3427 H   0  0  0  0  0  0  0  0  0  0  0  0
    7.2860   -5.6485   26.8596 C   0  0  0  0  0  0  0  0  0  0  0  0
    7.9988   -6.0335   27.5804 H   0  0  0  0  0  0  0  0  0  0  0  0
    6.2262   -6.4114   26.4086 N   0  0  0  0  0  0  0  0  0  0  0  0
    6.0376   -7.3649   26.6680 H   0  0  0  0  0  0  0  0  0  0  0  0
    6.7105   -1.6769   22.9985 C   0  0  0  0  0  0  0  0  0  0  0  0
    6.6839   -1.9060   21.5205 C   0  0  0  0  0  0  0  0  0  0  0  0
    5.6506   -1.9447   21.1517 H   0  0  0  0  0  0  0  0  0  0  0  0
    7.1494   -2.8523   21.2270 H   0  0  0  0  0  0  0  0  0  0  0  0
    5.4816    0.6705   20.0964 C   0  0  0  0  0  0  0  0  0  0  0  0
    5.0524    0.6676   21.1015 H   0  0  0  0  0  0  0  0  0  0  0  0
    4.8213    1.3219   19.0546 C   0  0  0  0  0  0  0  0  0  0  0  0
    3.8815    1.8351   19.2144 H   0  0  0  0  0  0  0  0  0  0  0  0
  1  2  1  0
  2  3  2  0
  3  4  1  0
  4  5  1  0
  4  6  2  0
  6  7  1  0
  7  8  1  6
  7  9  1  0
  9 10  1  0
  9 11  1  0
  9 12  1  0
 12 13  2  0
 13 14  1  0
 14 15  1  0
 14 16  1  0
 16 17  1  0
 17 18  2  0
 18 19  1  0
 18 20  1  0
 20 21  1  0
 20 22  2  0
 22 23  1  0
 22 24  1  0
 24 25  2  0
 25 26  1  0
 26 27  1  0
 26 28  2  0
 28 29  1  0
 28 30  1  0
 30 31  1  0
 16 32  2  0
 32 33  1  0
 33 34  1  0
 33 35  1  0
  6 36  1  0
 36 37  1  0
 36 38  2  0
 38 39  1  0
 38  2  1  0
 33  7  1  0
 32 12  1  0
 25 17  1  0
 30 24  1  0
M  END
>  <cnnaffinity>  (1) 
-5.52537

>  <filename>  (1) 
c1cncc([C@H]2Cc3n[nH]c(-c4cccc5[nH]ccc45)c3C2)c1

$$$$
