
     RDKit          3D

 37 41  0  0  0  0  0  0  0  0999 V2000
    4.9806    1.8391   16.9994 H   0  0  0  0  0  0  0  0  0  0  0  0
    5.5004    1.3232   17.8021 C   0  0  0  0  0  0  0  0  0  0  0  0
    6.6632    0.7364   17.4753 N   0  0  0  0  0  0  0  0  0  0  0  0
    7.3286    0.0764   18.4326 C   0  0  0  0  0  0  0  0  0  0  0  0
    8.2655   -0.3854   18.1183 H   0  0  0  0  0  0  0  0  0  0  0  0
    6.8566   -0.0533   19.7552 C   0  0  0  0  0  0  0  0  0  0  0  0
    7.5187   -0.8776   20.7104 N   0  0  0  0  0  0  0  0  0  0  0  0
    8.8637   -0.8239   21.0734 C   0  0  0  0  0  0  0  0  0  0  0  0
    9.5150   -0.1059   20.6026 H   0  0  0  0  0  0  0  0  0  0  0  0
    9.1044   -1.7204   22.0645 C   0  0  0  0  0  0  0  0  0  0  0  0
    9.9887   -1.9512   22.6308 H   0  0  0  0  0  0  0  0  0  0  0  0
    7.8996   -2.3596   22.3063 N   0  0  0  0  0  0  0  0  0  0  0  0
    7.4833   -3.3304   23.1534 N   0  0  0  0  0  0  0  0  0  0  0  0
    6.1697   -3.4282   22.8555 C   0  0  0  0  0  0  0  0  0  0  0  0
    5.1621   -4.3674   23.4891 C   0  0  0  0  0  0  0  0  0  0  0  0
    3.9102   -4.2723   23.0488 N   0  0  0  0  0  0  0  0  0  0  0  0
    2.9579   -5.1152   23.5461 C   0  0  0  0  0  0  0  0  0  0  0  0
    1.6106   -4.9681   23.0865 C   0  0  0  0  0  0  0  0  0  0  0  0
    1.4120   -4.1981   22.3546 H   0  0  0  0  0  0  0  0  0  0  0  0
    0.6099   -5.7906   23.5484 C   0  0  0  0  0  0  0  0  0  0  0  0
   -0.4205   -5.6426   23.2187 H   0  0  0  0  0  0  0  0  0  0  0  0
    0.9211   -6.8370   24.4635 C   0  0  0  0  0  0  0  0  0  0  0  0
    0.1188   -7.4842   24.8041 H   0  0  0  0  0  0  0  0  0  0  0  0
    2.2080   -7.0177   24.9199 C   0  0  0  0  0  0  0  0  0  0  0  0
    2.4398   -7.8145   25.6258 H   0  0  0  0  0  0  0  0  0  0  0  0
    3.2550   -6.1416   24.4980 C   0  0  0  0  0  0  0  0  0  0  0  0
    4.6001   -6.2096   24.9755 C   0  0  0  0  0  0  0  0  0  0  0  0
    4.8675   -6.9688   25.7142 H   0  0  0  0  0  0  0  0  0  0  0  0
    5.5376   -5.3307   24.4927 C   0  0  0  0  0  0  0  0  0  0  0  0
    6.5596   -5.3230   24.8576 H   0  0  0  0  0  0  0  0  0  0  0  0
    5.7783   -2.5420   21.8296 C   0  0  0  0  0  0  0  0  0  0  0  0
    4.7574   -2.4776   21.5242 H   0  0  0  0  0  0  0  0  0  0  0  0
    6.9312   -1.8518   21.5095 C   0  0  0  0  0  0  0  0  0  0  0  0
    5.6704    0.6204   20.0951 C   0  0  0  0  0  0  0  0  0  0  0  0
    5.3228    0.6200   21.1273 H   0  0  0  0  0  0  0  0  0  0  0  0
    4.9718    1.3024   19.0966 C   0  0  0  0  0  0  0  0  0  0  0  0
    4.0427    1.8234   19.3117 H   0  0  0  0  0  0  0  0  0  0  0  0
  1  2  1  0
  2  3  2  0
  3  4  1  0
  4  5  1  0
  4  6  2  0
  6  7  1  0
  7  8  1  0
  8  9  1  0
  8 10  2  0
 10 11  1  0
 10 12  1  0
 12 13  1  0
 13 14  2  0
 14 15  1  0
 15 16  2  0
 16 17  1  0
 17 18  2  0
 18 19  1  0
 18 20  1  0
 20 21  1  0
 20 22  2  0
 22 23  1  0
 22 24  1  0
 24 25  1  0
 24 26  2  0
 26 27  1  0
 27 28  1  0
 27 29  2  0
 29 30  1  0
 14 31  1  0
 31 32  1  0
 31 33  2  0
  6 34  1  0
 34 35  1  0
 34 36  2  0
 36 37  1  0
 36  2  1  0
 33  7  1  0
 33 12  1  0
 29 15  1  0
 26 17  1  0
M  END
>  <cnnaffinity>  (1) 
-5.78963

>  <filename>  (1) 
c1cncc(-n2ccn3nc(-c4ccc5ccccc5n4)cc23)c1

$$$$
