
     RDKit          3D

 29 32  0  0  0  0  0  0  0  0999 V2000
    4.9652    1.6869   16.7123 H   0  0  0  0  0  0  0  0  0  0  0  0
    5.4437    1.1905   17.5530 C   0  0  0  0  0  0  0  0  0  0  0  0
    6.6212    0.5894   17.3099 N   0  0  0  0  0  0  0  0  0  0  0  0
    7.2628    0.0032   18.3318 C   0  0  0  0  0  0  0  0  0  0  0  0
    8.2097   -0.4776   18.0786 H   0  0  0  0  0  0  0  0  0  0  0  0
    6.7648    0.0068   19.6513 C   0  0  0  0  0  0  0  0  0  0  0  0
    7.4766   -0.4721   20.7759 N   0  0  0  0  0  0  0  0  0  0  0  0
    8.4726   -1.4436   20.8268 C   0  0  0  0  0  0  0  0  0  0  0  0
    8.7246   -1.9564   19.9238 H   0  0  0  0  0  0  0  0  0  0  0  0
    8.9758   -1.5346   22.0852 C   0  0  0  0  0  0  0  0  0  0  0  0
    9.7582   -2.1093   22.5575 H   0  0  0  0  0  0  0  0  0  0  0  0
    8.2819   -0.5906   22.8265 N   0  0  0  0  0  0  0  0  0  0  0  0
    8.4666   -0.0320   24.0423 N   0  0  0  0  0  0  0  0  0  0  0  0
    7.6416    1.0211   23.9990 C   0  0  0  0  0  0  0  0  0  0  0  0
    7.6474    1.9581   25.0432 N   0  0  0  0  0  0  0  0  0  0  0  0
    8.4194    1.8549   26.1756 C   0  0  0  0  0  0  0  0  0  0  0  0
    8.9542    0.9453   26.4408 H   0  0  0  0  0  0  0  0  0  0  0  0
    8.4138    2.9615   26.8606 N   0  0  0  0  0  0  0  0  0  0  0  0
    7.6093    3.8378   26.1704 C   0  0  0  0  0  0  0  0  0  0  0  0
    7.4654    4.8552   26.5071 H   0  0  0  0  0  0  0  0  0  0  0  0
    7.1113    3.2491   25.0491 C   0  0  0  0  0  0  0  0  0  0  0  0
    6.4584    3.6376   24.2784 H   0  0  0  0  0  0  0  0  0  0  0  0
    6.8953    1.1165   22.8087 C   0  0  0  0  0  0  0  0  0  0  0  0
    6.2220    1.9050   22.5391 H   0  0  0  0  0  0  0  0  0  0  0  0
    7.3856    0.0580   22.0598 C   0  0  0  0  0  0  0  0  0  0  0  0
    5.5001    0.5779   19.8677 C   0  0  0  0  0  0  0  0  0  0  0  0
    5.0865    0.5455   20.8739 H   0  0  0  0  0  0  0  0  0  0  0  0
    4.8365    1.1956   18.8132 C   0  0  0  0  0  0  0  0  0  0  0  0
    3.8787    1.6871   18.9680 H   0  0  0  0  0  0  0  0  0  0  0  0
  1  2  1  0
  2  3  2  0
  3  4  1  0
  4  5  1  0
  4  6  2  0
  6  7  1  0
  7  8  1  0
  8  9  1  0
  8 10  2  0
 10 11  1  0
 10 12  1  0
 12 13  1  0
 13 14  2  0
 14 15  1  0
 15 16  1  0
 16 17  1  0
 16 18  2  0
 18 19  1  0
 19 20  1  0
 19 21  2  0
 21 22  1  0
 14 23  1  0
 23 24  1  0
 23 25  2  0
  6 26  1  0
 26 27  1  0
 26 28  2  0
 28 29  1  0
 28  2  1  0
 25  7  1  0
 25 12  1  0
 21 15  1  0
M  END
>  <cnnaffinity>  (1) 
-4.65045

>  <filename>  (1) 
c1cncc(-n2ccn3nc(-n4ccnc4)cc23)c1

$$$$
