
     RDKit          3D

 45 49  0  0  0  0  0  0  0  0999 V2000
    5.0117    1.8327   16.8581 H   0  0  0  0  0  0  0  0  0  0  0  0
    5.4334    1.2946   17.7043 C   0  0  0  0  0  0  0  0  0  0  0  0
    6.5732    0.6272   17.4697 N   0  0  0  0  0  0  0  0  0  0  0  0
    7.1388   -0.0189   18.4953 C   0  0  0  0  0  0  0  0  0  0  0  0
    8.0630   -0.5476   18.2705 H   0  0  0  0  0  0  0  0  0  0  0  0
    6.6103   -0.0264   19.8012 C   0  0  0  0  0  0  0  0  0  0  0  0
    7.3706   -0.6098   20.9266 C   0  0  0  0  0  0  0  0  0  0  0  0
    8.5104   -1.2877   20.7153 N   0  0  0  0  0  0  0  0  0  0  0  0
    8.9320   -1.5650   21.9656 N   0  0  0  0  0  0  0  0  0  0  0  0
   10.0385   -2.2069   22.5046 C   0  0  0  0  0  0  0  0  0  0  0  0
   10.7657   -2.6630   21.8567 H   0  0  0  0  0  0  0  0  0  0  0  0
    9.9128   -2.0883   23.8494 C   0  0  0  0  0  0  0  0  0  0  0  0
   10.5320   -2.4652   24.6493 H   0  0  0  0  0  0  0  0  0  0  0  0
    8.7410   -1.3896   24.1499 N   0  0  0  0  0  0  0  0  0  0  0  0
    8.2916   -0.9784   25.4294 C   0  0  0  0  0  0  0  0  0  0  0  0
    6.9139   -0.8644   25.6801 C   0  0  0  0  0  0  0  0  0  0  0  0
    6.2199   -1.1862   24.9093 H   0  0  0  0  0  0  0  0  0  0  0  0
    6.4581   -0.3376   26.8821 C   0  0  0  0  0  0  0  0  0  0  0  0
    5.3967   -0.2748   27.0979 H   0  0  0  0  0  0  0  0  0  0  0  0
    7.3608    0.0751   27.8794 C   0  0  0  0  0  0  0  0  0  0  0  0
    6.8607    0.6490   29.0554 N   0  0  0  0  0  0  0  0  0  0  0  0
    7.6937    0.8204   30.2477 C   0  0  0  0  0  0  0  0  0  0  0  0
    8.4518    0.0382   30.3492 H   0  0  0  0  0  0  0  0  0  0  0  0
    8.2171    1.7944   30.2405 H   0  0  0  0  0  0  0  0  0  0  0  0
    6.7779    0.7815   31.4727 C   0  0  0  0  0  0  0  0  0  0  0  0
    7.3563    0.9345   32.3870 H   0  0  0  0  0  0  0  0  0  0  0  0
    6.2763   -0.1978   31.5335 H   0  0  0  0  0  0  0  0  0  0  0  0
    5.8155    1.8298   31.4252 O   0  0  0  0  0  0  0  0  0  0  0  0
    5.0319    1.8023   30.2372 C   0  0  0  0  0  0  0  0  0  0  0  0
    4.4430    2.7278   30.2463 H   0  0  0  0  0  0  0  0  0  0  0  0
    4.3467    0.9409   30.2568 H   0  0  0  0  0  0  0  0  0  0  0  0
    5.8933    1.7514   28.9686 C   0  0  0  0  0  0  0  0  0  0  0  0
    5.2470    1.6336   28.0928 H   0  0  0  0  0  0  0  0  0  0  0  0
    6.4198    2.7163   28.8599 H   0  0  0  0  0  0  0  0  0  0  0  0
    8.7313   -0.1592   27.6702 C   0  0  0  0  0  0  0  0  0  0  0  0
    9.4178    0.0244   28.4860 H   0  0  0  0  0  0  0  0  0  0  0  0
    9.1956   -0.6534   26.4520 C   0  0  0  0  0  0  0  0  0  0  0  0
   10.2621   -0.7718   26.3011 H   0  0  0  0  0  0  0  0  0  0  0  0
    8.1333   -1.0837   22.9377 C   0  0  0  0  0  0  0  0  0  0  0  0
    7.0626   -0.4694   22.3028 C   0  0  0  0  0  0  0  0  0  0  0  0
    6.1954    0.0029   22.7269 H   0  0  0  0  0  0  0  0  0  0  0  0
    5.3801    0.6238   20.0065 C   0  0  0  0  0  0  0  0  0  0  0  0
    4.8918    0.6033   20.9816 H   0  0  0  0  0  0  0  0  0  0  0  0
    4.7917    1.3067   18.9466 C   0  0  0  0  0  0  0  0  0  0  0  0
    3.8661    1.8585   19.0728 H   0  0  0  0  0  0  0  0  0  0  0  0
  1  2  1  0
  2  3  2  0
  3  4  1  0
  4  5  1  0
  4  6  2  0
  6  7  1  0
  7  8  2  0
  8  9  1  0
  9 10  1  0
 10 11  1  0
 10 12  2  0
 12 13  1  0
 12 14  1  0
 14 15  1  0
 15 16  2  0
 16 17  1  0
 16 18  1  0
 18 19  1  0
 18 20  2  0
 20 21  1  0
 21 22  1  0
 22 23  1  0
 22 24  1  0
 22 25  1  0
 25 26  1  0
 25 27  1  0
 25 28  1  0
 28 29  1  0
 29 30  1  0
 29 31  1  0
 29 32  1  0
 32 33  1  0
 32 34  1  0
 20 35  1  0
 35 36  1  0
 35 37  2  0
 37 38  1  0
 14 39  1  0
 39 40  2  0
 40 41  1  0
  6 42  1  0
 42 43  1  0
 42 44  2  0
 44 45  1  0
 44  2  1  0
 40  7  1  0
 39  9  1  0
 37 15  1  0
 32 21  1  0
M  END
>  <cnnaffinity>  (1) 
-5.39217

>  <filename>  (1) 
c1cncc(-c2cc3n(-c4ccc(N5CCOCC5)cc4)ccn3n2)c1

$$$$
