
     RDKit          3D

 39 42  0  0  0  0  0  0  0  0999 V2000
    4.9167    1.7759   17.0029 H   0  0  0  0  0  0  0  0  0  0  0  0
    5.4088    1.2903   17.8450 C   0  0  0  0  0  0  0  0  0  0  0  0
    6.5752    0.6788   17.5858 N   0  0  0  0  0  0  0  0  0  0  0  0
    7.1740    0.0420   18.5974 C   0  0  0  0  0  0  0  0  0  0  0  0
    8.1222   -0.4369   18.3687 H   0  0  0  0  0  0  0  0  0  0  0  0
    6.6552   -0.0167   19.8969 C   0  0  0  0  0  0  0  0  0  0  0  0
    7.4069   -0.7463   20.9534 C   0  0  0  0  0  0  0  0  0  0  0  0
    7.8365   -1.9776   20.6513 N   0  0  0  0  0  0  0  0  0  0  0  0
    8.4498   -2.6837   21.6095 C   0  0  0  0  0  0  0  0  0  0  0  0
    8.7716   -3.6820   21.3348 H   0  0  0  0  0  0  0  0  0  0  0  0
    8.6989   -2.1888   22.8901 C   0  0  0  0  0  0  0  0  0  0  0  0
    9.2178   -2.7939   23.6214 H   0  0  0  0  0  0  0  0  0  0  0  0
    8.2770   -0.8969   23.2040 C   0  0  0  0  0  0  0  0  0  0  0  0
    8.4656   -0.4469   24.1780 H   0  0  0  0  0  0  0  0  0  0  0  0
    7.6269   -0.1341   22.2259 C   0  0  0  0  0  0  0  0  0  0  0  0
    7.2280    1.2082   22.4857 N   0  0  0  0  0  0  0  0  0  0  0  0
    6.4960    1.5623   23.6844 C   0  0  0  0  0  0  0  0  0  0  0  0
    5.5754    2.1022   23.4006 H   0  0  0  0  0  0  0  0  0  0  0  0
    6.1482    0.6569   24.1930 H   0  0  0  0  0  0  0  0  0  0  0  0
    7.2821    2.4360   24.6510 C   0  0  0  0  0  0  0  0  0  0  0  0
    6.8289    2.6043   25.9685 C   0  0  0  0  0  0  0  0  0  0  0  0
    5.9284    2.0911   26.3030 H   0  0  0  0  0  0  0  0  0  0  0  0
    7.5246    3.4331   26.8520 C   0  0  0  0  0  0  0  0  0  0  0  0
    7.1671    3.5603   27.8697 H   0  0  0  0  0  0  0  0  0  0  0  0
    8.6748    4.0996   26.4219 C   0  0  0  0  0  0  0  0  0  0  0  0
    9.2217    4.7450   27.1000 H   0  0  0  0  0  0  0  0  0  0  0  0
    9.1291    3.9337   25.1120 C   0  0  0  0  0  0  0  0  0  0  0  0
   10.0286    4.4417   24.7728 H   0  0  0  0  0  0  0  0  0  0  0  0
    8.4435    3.1060   24.2164 C   0  0  0  0  0  0  0  0  0  0  0  0
    8.9883    2.9044   22.8102 C   0  0  0  0  0  0  0  0  0  0  0  0
    9.3751    3.8488   22.4087 H   0  0  0  0  0  0  0  0  0  0  0  0
    9.8392    2.2157   22.8632 H   0  0  0  0  0  0  0  0  0  0  0  0
    7.9424    2.3173   21.8594 C   0  0  0  0  0  0  0  0  0  0  0  0
    7.2205    3.0978   21.5747 H   0  0  0  0  0  0  0  0  0  0  0  0
    8.4107    1.9734   20.9320 H   0  0  0  0  0  0  0  0  0  0  0  0
    5.4464    0.6488   20.1603 C   0  0  0  0  0  0  0  0  0  0  0  0
    5.0075    0.6361   21.1628 H   0  0  0  0  0  0  0  0  0  0  0  0
    4.8061    1.3054   19.1096 C   0  0  0  0  0  0  0  0  0  0  0  0
    3.8731    1.8418   19.2617 H   0  0  0  0  0  0  0  0  0  0  0  0
  1  2  1  0
  2  3  2  0
  3  4  1  0
  4  5  1  0
  4  6  2  0
  6  7  1  0
  7  8  2  0
  8  9  1  0
  9 10  1  0
  9 11  2  0
 11 12  1  0
 11 13  1  0
 13 14  1  0
 13 15  2  0
 15 16  1  0
 16 17  1  0
 17 18  1  0
 17 19  1  0
 17 20  1  0
 20 21  2  0
 21 22  1  0
 21 23  1  0
 23 24  1  0
 23 25  2  0
 25 26  1  0
 25 27  1  0
 27 28  1  0
 27 29  2  0
 29 30  1  0
 30 31  1  0
 30 32  1  0
 30 33  1  0
 33 34  1  0
 33 35  1  0
  6 36  1  0
 36 37  1  0
 36 38  2  0
 38 39  1  0
 38  2  1  0
 15  7  1  0
 33 16  1  0
 29 20  1  0
M  END
>  <cnnaffinity>  (1) 
-5.26392

>  <filename>  (1) 
c1cncc(-c2ncccc2N2CCc3ccccc3C2)c1

$$$$
