
     RDKit          3D

 32 35  0  0  0  0  0  0  0  0999 V2000
    4.9368    1.7982   16.9788 H   0  0  0  0  0  0  0  0  0  0  0  0
    5.4045    1.2935   17.8218 C   0  0  0  0  0  0  0  0  0  0  0  0
    6.5672    0.6716   17.5684 N   0  0  0  0  0  0  0  0  0  0  0  0
    7.1769    0.0505   18.5832 C   0  0  0  0  0  0  0  0  0  0  0  0
    8.1266   -0.4235   18.3394 H   0  0  0  0  0  0  0  0  0  0  0  0
    6.6509    0.0052   19.8865 C   0  0  0  0  0  0  0  0  0  0  0  0
    7.3372   -0.6768   20.9830 C   0  0  0  0  0  0  0  0  0  0  0  0
    8.4967   -1.3150   20.7373 O   0  0  0  0  0  0  0  0  0  0  0  0
    8.9726   -1.8773   21.9024 N   0  0  0  0  0  0  0  0  0  0  0  0
    8.0945   -1.5724   22.8274 C   0  0  0  0  0  0  0  0  0  0  0  0
    8.2622   -1.9709   24.2217 C   0  0  0  0  0  0  0  0  0  0  0  0
    7.9152   -1.0455   25.1806 C   0  0  0  0  0  0  0  0  0  0  0  0
    7.5215   -0.0652   24.9022 H   0  0  0  0  0  0  0  0  0  0  0  0
    8.0131   -1.2688   26.5119 N   0  0  0  0  0  0  0  0  0  0  0  0
    8.4731   -2.4384   26.9081 C   0  0  0  0  0  0  0  0  0  0  0  0
    8.4852   -2.5950   27.9792 H   0  0  0  0  0  0  0  0  0  0  0  0
    8.8719   -3.4894   26.0314 C   0  0  0  0  0  0  0  0  0  0  0  0
    9.3595   -4.7503   26.4965 C   0  0  0  0  0  0  0  0  0  0  0  0
    9.5227   -4.8920   27.5631 H   0  0  0  0  0  0  0  0  0  0  0  0
    9.5557   -5.7833   25.6131 C   0  0  0  0  0  0  0  0  0  0  0  0
    9.9654   -6.7275   25.9617 H   0  0  0  0  0  0  0  0  0  0  0  0
    9.2453   -5.6189   24.2350 C   0  0  0  0  0  0  0  0  0  0  0  0
    9.2819   -6.4905   23.5841 H   0  0  0  0  0  0  0  0  0  0  0  0
    8.8874   -4.3815   23.7433 C   0  0  0  0  0  0  0  0  0  0  0  0
    8.7697   -4.2028   22.6778 H   0  0  0  0  0  0  0  0  0  0  0  0
    8.7035   -3.2719   24.6293 C   0  0  0  0  0  0  0  0  0  0  0  0
    7.0311   -0.7942   22.3014 C   0  0  0  0  0  0  0  0  0  0  0  0
    6.1619   -0.4494   22.8333 H   0  0  0  0  0  0  0  0  0  0  0  0
    5.4356    0.6566   20.1321 C   0  0  0  0  0  0  0  0  0  0  0  0
    4.9962    0.6561   21.1317 H   0  0  0  0  0  0  0  0  0  0  0  0
    4.8030    1.3127   19.0833 C   0  0  0  0  0  0  0  0  0  0  0  0
    3.8713    1.8462   19.2321 H   0  0  0  0  0  0  0  0  0  0  0  0
  1  2  1  0
  2  3  2  0
  3  4  1  0
  4  5  1  0
  4  6  2  0
  6  7  1  0
  7  8  1  0
  8  9  1  0
  9 10  2  0
 10 11  1  0
 11 12  2  0
 12 13  1  0
 12 14  1  0
 14 15  2  0
 15 16  1  0
 15 17  1  0
 17 18  2  0
 18 19  1  0
 18 20  1  0
 20 21  1  0
 20 22  2  0
 22 23  1  0
 22 24  1  0
 24 25  1  0
 24 26  2  0
 10 27  1  0
 27 28  1  0
  6 29  1  0
 29 30  1  0
 29 31  2  0
 31 32  1  0
 31  2  1  0
 27  7  2  0
 26 11  1  0
 26 17  1  0
M  END
>  <cnnaffinity>  (1) 
-5.21118

>  <filename>  (1) 
c1cncc(-c2cc(-c3cncc4ccccc34)no2)c1

$$$$
