
     RDKit          3D

 38 42  0  0  0  0  0  0  0  0999 V2000
    4.9874    1.7906   16.9859 H   0  0  0  0  0  0  0  0  0  0  0  0
    5.4482    1.2778   17.8267 C   0  0  0  0  0  0  0  0  0  0  0  0
    6.6074    0.6469   17.5793 N   0  0  0  0  0  0  0  0  0  0  0  0
    7.2085    0.0287   18.6049 C   0  0  0  0  0  0  0  0  0  0  0  0
    8.1430   -0.4775   18.3672 H   0  0  0  0  0  0  0  0  0  0  0  0
    6.7107   -0.0059   19.9441 C   0  0  0  0  0  0  0  0  0  0  0  0
    7.3976   -0.6012   20.9864 N   0  0  0  0  0  0  0  0  0  0  0  0
    8.6861   -1.2500   20.7977 C   0  0  0  0  0  0  0  0  0  0  0  0
    8.6007   -2.0042   20.0239 H   0  0  0  0  0  0  0  0  0  0  0  0
    9.4475   -0.5331   20.4668 H   0  0  0  0  0  0  0  0  0  0  0  0
    9.0280   -1.8901   22.1285 C   0  0  1  0  0  0  0  0  0  0  0  0
    9.5496   -2.8378   22.1319 H   0  0  0  0  0  0  0  0  0  0  0  0
    9.2739   -0.9599   23.2925 C   0  0  1  0  0  0  0  0  0  0  0  0
    9.8316   -1.4294   24.1020 H   0  0  0  0  0  0  0  0  0  0  0  0
    9.5586    0.4825   23.1215 C   0  0  0  0  0  0  0  0  0  0  0  0
    8.9010    1.5729   23.6240 C   0  0  0  0  0  0  0  0  0  0  0  0
    8.0106    1.5269   24.2362 H   0  0  0  0  0  0  0  0  0  0  0  0
    9.6492    2.7543   23.2758 C   0  0  0  0  0  0  0  0  0  0  0  0
    9.4868    4.1425   23.5147 C   0  0  0  0  0  0  0  0  0  0  0  0
    8.5779    4.5190   23.9837 H   0  0  0  0  0  0  0  0  0  0  0  0
   10.5093    5.0107   23.1507 C   0  0  0  0  0  0  0  0  0  0  0  0
   10.4395    6.0734   23.3784 H   0  0  0  0  0  0  0  0  0  0  0  0
   11.6592    4.5296   22.4717 C   0  0  0  0  0  0  0  0  0  0  0  0
   12.4405    5.2306   22.1923 H   0  0  0  0  0  0  0  0  0  0  0  0
   11.8093    3.1833   22.1542 C   0  0  0  0  0  0  0  0  0  0  0  0
   12.6915    2.8339   21.6257 H   0  0  0  0  0  0  0  0  0  0  0  0
   10.8031    2.2978   22.5885 C   0  0  0  0  0  0  0  0  0  0  0  0
   10.7318    0.9178   22.5140 N   0  0  0  0  0  0  0  0  0  0  0  0
   11.1837    0.3900   21.7857 H   0  0  0  0  0  0  0  0  0  0  0  0
    7.9105   -1.5842   23.0778 C   0  0  1  0  0  0  0  0  0  0  0  0
    7.5888   -2.2844   23.8371 H   0  0  0  0  0  0  0  0  0  0  0  0
    6.8336   -0.8375   22.3093 C   0  0  0  0  0  0  0  0  0  0  0  0
    6.5411    0.0926   22.8141 H   0  0  0  0  0  0  0  0  0  0  0  0
    5.9422   -1.4716   22.2223 H   0  0  0  0  0  0  0  0  0  0  0  0
    5.4698    0.6353   20.1568 C   0  0  0  0  0  0  0  0  0  0  0  0
    5.0296    0.6285   21.1513 H   0  0  0  0  0  0  0  0  0  0  0  0
    4.8454    1.2824   19.0885 C   0  0  0  0  0  0  0  0  0  0  0  0
    3.9040    1.8009   19.2325 H   0  0  0  0  0  0  0  0  0  0  0  0
  1  2  1  0
  2  3  2  0
  3  4  1  0
  4  5  1  0
  4  6  2  0
  6  7  1  0
  7  8  1  0
  8  9  1  0
  8 10  1  0
  8 11  1  0
 11 12  1  6
 11 13  1  0
 13 14  1  1
 13 15  1  0
 15 16  2  0
 16 17  1  0
 16 18  1  0
 18 19  2  0
 19 20  1  0
 19 21  1  0
 21 22  1  0
 21 23  2  0
 23 24  1  0
 23 25  1  0
 25 26  1  0
 25 27  2  0
 27 28  1  0
 28 29  1  0
 13 30  1  0
 30 31  1  1
 30 32  1  0
 32 33  1  0
 32 34  1  0
  6 35  1  0
 35 36  1  0
 35 37  2  0
 37 38  1  0
 37  2  1  0
 32  7  1  0
 30 11  1  0
 28 15  1  0
 27 18  1  0
M  END
>  <cnnaffinity>  (1) 
-5.60344

>  <filename>  (1) 
c1cncc(N2C[C@@H]3[C@H](C2)[C@@H]3c2cc3ccccc3[nH]2)c1

$$$$
