
     RDKit          3D

 29 31  0  0  0  0  0  0  0  0999 V2000
    4.9204    1.7780   16.9992 H   0  0  0  0  0  0  0  0  0  0  0  0
    5.4057    1.2904   17.8446 C   0  0  0  0  0  0  0  0  0  0  0  0
    6.5744    0.6740   17.5951 N   0  0  0  0  0  0  0  0  0  0  0  0
    7.1791    0.0425   18.6042 C   0  0  0  0  0  0  0  0  0  0  0  0
    8.1262   -0.4395   18.3756 H   0  0  0  0  0  0  0  0  0  0  0  0
    6.6542    0.0003   19.9065 C   0  0  0  0  0  0  0  0  0  0  0  0
    7.3598   -0.6723   20.9420 N   0  0  0  0  0  0  0  0  0  0  0  0
    7.9638   -1.8632   20.6984 N   0  0  0  0  0  0  0  0  0  0  0  0
    8.4783   -2.2220   21.8631 C   0  0  0  0  0  0  0  0  0  0  0  0
    9.0370   -3.1453   21.9472 H   0  0  0  0  0  0  0  0  0  0  0  0
    8.2377   -1.2850   22.8760 C   0  0  0  0  0  0  0  0  0  0  0  0
    8.5706   -1.2769   23.8993 H   0  0  0  0  0  0  0  0  0  0  0  0
    7.5323   -0.2864   22.2538 C   0  0  0  0  0  0  0  0  0  0  0  0
    7.1058    0.9177   22.7853 N   0  0  0  0  0  0  0  0  0  0  0  0
    7.1287    1.7158   22.1738 H   0  0  0  0  0  0  0  0  0  0  0  0
    6.8823    1.1797   24.1229 C   0  0  0  0  0  0  0  0  0  0  0  0
    6.3664    0.1968   24.9606 C   0  0  0  0  0  0  0  0  0  0  0  0
    6.1419   -0.7832   24.5629 H   0  0  0  0  0  0  0  0  0  0  0  0
    6.1384    0.5195   26.2865 C   0  0  0  0  0  0  0  0  0  0  0  0
    5.7397   -0.2294   26.9589 H   0  0  0  0  0  0  0  0  0  0  0  0
    6.3758    1.7213   26.8226 N   0  0  0  0  0  0  0  0  0  0  0  0
    6.8638    2.6515   25.9965 C   0  0  0  0  0  0  0  0  0  0  0  0
    7.0456    3.6220   26.4443 H   0  0  0  0  0  0  0  0  0  0  0  0
    7.1245    2.4478   24.6475 C   0  0  0  0  0  0  0  0  0  0  0  0
    7.5203    3.2463   24.0344 H   0  0  0  0  0  0  0  0  0  0  0  0
    5.4397    0.6476   20.1672 C   0  0  0  0  0  0  0  0  0  0  0  0
    5.0036    0.6275   21.1674 H   0  0  0  0  0  0  0  0  0  0  0  0
    4.8086    1.3043   19.1085 C   0  0  0  0  0  0  0  0  0  0  0  0
    3.8778    1.8395   19.2624 H   0  0  0  0  0  0  0  0  0  0  0  0
  1  2  1  0
  2  3  2  0
  3  4  1  0
  4  5  1  0
  4  6  2  0
  6  7  1  0
  7  8  1  0
  8  9  2  0
  9 10  1  0
  9 11  1  0
 11 12  1  0
 11 13  2  0
 13 14  1  0
 14 15  1  0
 14 16  1  0
 16 17  2  0
 17 18  1  0
 17 19  1  0
 19 20  1  0
 19 21  2  0
 21 22  1  0
 22 23  1  0
 22 24  2  0
 24 25  1  0
  6 26  1  0
 26 27  1  0
 26 28  2  0
 28 29  1  0
 28  2  1  0
 13  7  1  0
 24 16  1  0
M  END
>  <cnnaffinity>  (1) 
-5.07876

>  <filename>  (1) 
c1cncc(-n2nccc2Nc2ccncc2)c1

$$$$
