
     RDKit          3D

 27 29  0  0  0  0  0  0  0  0999 V2000
    4.9222    1.7824   16.9963 H   0  0  0  0  0  0  0  0  0  0  0  0
    5.4027    1.2922   17.8396 C   0  0  0  0  0  0  0  0  0  0  0  0
    6.5667    0.6797   17.5779 N   0  0  0  0  0  0  0  0  0  0  0  0
    7.1672    0.0507   18.5909 C   0  0  0  0  0  0  0  0  0  0  0  0
    8.1154   -0.4319   18.3687 H   0  0  0  0  0  0  0  0  0  0  0  0
    6.6501   -0.0066   19.8907 C   0  0  0  0  0  0  0  0  0  0  0  0
    7.4128   -0.7146   20.9261 C   0  0  0  0  0  0  0  0  0  0  0  0
    7.9177   -1.9081   20.7375 N   0  0  0  0  0  0  0  0  0  0  0  0
    8.5553   -2.2491   21.9101 O   0  0  0  0  0  0  0  0  0  0  0  0
    8.4374   -1.2317   22.7695 C   0  0  0  0  0  0  0  0  0  0  0  0
    8.9369   -1.3451   23.7214 H   0  0  0  0  0  0  0  0  0  0  0  0
    7.7205   -0.2189   22.2322 C   0  0  0  0  0  0  0  0  0  0  0  0
    7.4793    1.1466   22.7908 C   0  0  0  0  0  0  0  0  0  0  0  0
    7.7265    1.1400   23.8575 H   0  0  0  0  0  0  0  0  0  0  0  0
    6.4260    1.4378   22.7269 H   0  0  0  0  0  0  0  0  0  0  0  0
    8.3424    2.1798   22.1008 C   0  0  0  0  0  0  0  0  0  0  0  0
    8.1459    2.2717   21.0360 H   0  0  0  0  0  0  0  0  0  0  0  0
    9.7686    2.3349   22.5417 C   0  0  0  0  0  0  0  0  0  0  0  0
   10.1071    1.6956   23.3540 H   0  0  0  0  0  0  0  0  0  0  0  0
   10.5428    2.5533   21.8113 H   0  0  0  0  0  0  0  0  0  0  0  0
    8.7557    3.4015   22.8560 C   0  0  0  0  0  0  0  0  0  0  0  0
    8.4030    3.4890   23.8807 H   0  0  0  0  0  0  0  0  0  0  0  0
    8.8180    4.3513   22.3342 H   0  0  0  0  0  0  0  0  0  0  0  0
    5.4371    0.6482   20.1560 C   0  0  0  0  0  0  0  0  0  0  0  0
    5.0030    0.6338   21.1596 H   0  0  0  0  0  0  0  0  0  0  0  0
    4.8044    1.3081   19.1044 C   0  0  0  0  0  0  0  0  0  0  0  0
    3.8745    1.8414   19.2576 H   0  0  0  0  0  0  0  0  0  0  0  0
  1  2  1  0
  2  3  2  0
  3  4  1  0
  4  5  1  0
  4  6  2  0
  6  7  1  0
  7  8  2  0
  8  9  1  0
  9 10  1  0
 10 11  1  0
 10 12  2  0
 12 13  1  0
 13 14  1  0
 13 15  1  0
 13 16  1  0
 16 17  1  0
 16 18  1  0
 18 19  1  0
 18 20  1  0
 18 21  1  0
 21 22  1  0
 21 23  1  0
  6 24  1  0
 24 25  1  0
 24 26  2  0
 26 27  1  0
 26  2  1  0
 12  7  1  0
 21 16  1  0
M  END
>  <cnnaffinity>  (1) 
-4.82842

>  <filename>  (1) 
c1cncc(-c2nocc2CC2CC2)c1

$$$$
