
     RDKit          3D

 32 35  0  0  0  0  0  0  0  0999 V2000
    5.2738    1.8066   17.3300 H   0  0  0  0  0  0  0  0  0  0  0  0
    5.5855    1.2948   18.2416 C   0  0  0  0  0  0  0  0  0  0  0  0
    6.6952    0.5442   18.1441 N   0  0  0  0  0  0  0  0  0  0  0  0
    7.0708   -0.1266   19.2393 C   0  0  0  0  0  0  0  0  0  0  0  0
    7.9695   -0.7393   19.1428 H   0  0  0  0  0  0  0  0  0  0  0  0
    6.3846   -0.1118   20.4730 C   0  0  0  0  0  0  0  0  0  0  0  0
    6.8483   -0.9516   21.6103 C   0  0  0  0  0  0  0  0  0  0  0  0
    7.3905   -2.2672   21.4445 C   0  0  0  0  0  0  0  0  0  0  0  0
    7.6461   -2.6915   20.4786 H   0  0  0  0  0  0  0  0  0  0  0  0
    7.5539   -3.0043   22.5034 N   0  0  0  0  0  0  0  0  0  0  0  0
    7.1052   -2.1165   23.8382 S   0  0  0  0  0  0  0  0  0  0  0  0
    6.7115   -0.6826   22.9667 C   0  0  0  0  0  0  0  0  0  0  0  0
    6.3863    0.6021   23.6065 C   0  0  0  0  0  0  0  0  0  0  0  0
    5.3918    0.6965   24.5641 C   0  0  0  0  0  0  0  0  0  0  0  0
    4.9135   -0.2148   24.9192 H   0  0  0  0  0  0  0  0  0  0  0  0
    4.9204    1.8641   25.0663 N   0  0  0  0  0  0  0  0  0  0  0  0
    5.4311    2.9882   24.5886 C   0  0  0  0  0  0  0  0  0  0  0  0
    5.0104    3.9103   24.9854 H   0  0  0  0  0  0  0  0  0  0  0  0
    6.4837    3.0527   23.6214 C   0  0  0  0  0  0  0  0  0  0  0  0
    6.9984    4.2759   23.0801 C   0  0  0  0  0  0  0  0  0  0  0  0
    6.5400    5.2210   23.3579 H   0  0  0  0  0  0  0  0  0  0  0  0
    8.0477    4.2662   22.1908 C   0  0  0  0  0  0  0  0  0  0  0  0
    8.4145    5.1967   21.7603 H   0  0  0  0  0  0  0  0  0  0  0  0
    8.6591    3.0429   21.8228 C   0  0  0  0  0  0  0  0  0  0  0  0
    9.5050    3.0288   21.1446 H   0  0  0  0  0  0  0  0  0  0  0  0
    8.1719    1.8505   22.3015 C   0  0  0  0  0  0  0  0  0  0  0  0
    8.6395    0.9260   21.9865 H   0  0  0  0  0  0  0  0  0  0  0  0
    7.0329    1.8151   23.1730 C   0  0  0  0  0  0  0  0  0  0  0  0
    5.2354    0.6941   20.5550 C   0  0  0  0  0  0  0  0  0  0  0  0
    4.6778    0.7471   21.4939 H   0  0  0  0  0  0  0  0  0  0  0  0
    4.8361    1.4047   19.4182 C   0  0  0  0  0  0  0  0  0  0  0  0
    3.9630    2.0505   19.4283 H   0  0  0  0  0  0  0  0  0  0  0  0
  1  2  1  0
  2  3  2  0
  3  4  1  0
  4  5  1  0
  4  6  2  0
  6  7  1  0
  7  8  1  0
  8  9  1  0
  8 10  2  0
 10 11  1  0
 11 12  1  0
 12 13  1  0
 13 14  2  0
 14 15  1  0
 14 16  1  0
 16 17  2  0
 17 18  1  0
 17 19  1  0
 19 20  2  0
 20 21  1  0
 20 22  1  0
 22 23  1  0
 22 24  2  0
 24 25  1  0
 24 26  1  0
 26 27  1  0
 26 28  2  0
  6 29  1  0
 29 30  1  0
 29 31  2  0
 31 32  1  0
 31  2  1  0
 12  7  2  0
 28 13  1  0
 28 19  1  0
M  END
>  <cnnaffinity>  (1) 
-5.13743

>  <filename>  (1) 
c1cncc(-c2cnsc2-c2cncc3ccccc23)c1

$$$$
