
     RDKit          3D

 33 36  0  0  0  0  0  0  0  0999 V2000
    9.3971   -0.3332   20.3524 H   0  0  0  0  0  0  0  0  0  0  0  0
    8.7702   -0.8189   21.0987 C   0  0  0  0  0  0  0  0  0  0  0  0
    9.4098   -1.4538   22.0995 N   0  0  0  0  0  0  0  0  0  0  0  0
    8.6286   -2.0299   23.0314 C   0  0  0  0  0  0  0  0  0  0  0  0
    9.1273   -2.5558   23.8436 H   0  0  0  0  0  0  0  0  0  0  0  0
    7.2146   -2.0150   22.9564 C   0  0  0  0  0  0  0  0  0  0  0  0
    6.4138   -2.6808   24.0157 C   0  0  0  0  0  0  0  0  0  0  0  0
    6.7844   -2.5479   25.3623 C   0  0  0  0  0  0  0  0  0  0  0  0
    7.6722   -1.9749   25.6229 H   0  0  0  0  0  0  0  0  0  0  0  0
    5.9816   -3.0735   26.3950 C   0  0  0  0  0  0  0  0  0  0  0  0
    6.2761   -2.9041   27.4311 H   0  0  0  0  0  0  0  0  0  0  0  0
    4.8208   -3.7916   26.1080 C   0  0  0  0  0  0  0  0  0  0  0  0
    4.1773   -4.1796   26.8909 H   0  0  0  0  0  0  0  0  0  0  0  0
    4.4826   -3.9744   24.7566 C   0  0  0  0  0  0  0  0  0  0  0  0
    5.2593   -3.4419   23.6975 C   0  0  0  0  0  0  0  0  0  0  0  0
    4.6526   -3.9049   22.4740 C   0  0  0  0  0  0  0  0  0  0  0  0
    4.9916   -3.6305   21.4839 H   0  0  0  0  0  0  0  0  0  0  0  0
    3.5707   -4.6646   22.8149 C   0  0  0  0  0  0  0  0  0  0  0  0
    2.9154   -5.2429   22.1769 H   0  0  0  0  0  0  0  0  0  0  0  0
    3.4568   -4.6961   24.1946 N   0  0  0  0  0  0  0  0  0  0  0  0
    2.6810   -5.0553   24.7284 H   0  0  0  0  0  0  0  0  0  0  0  0
    6.5859   -1.3801   21.9412 N   0  0  0  0  0  0  0  0  0  0  0  0
    7.3531   -0.7646   21.0202 C   0  0  0  0  0  0  0  0  0  0  0  0
    6.6350   -0.0396   19.9379 C   0  0  0  0  0  0  0  0  0  0  0  0
    7.1710   -0.0075   18.6410 C   0  0  0  0  0  0  0  0  0  0  0  0
    8.0928   -0.5438   18.4154 H   0  0  0  0  0  0  0  0  0  0  0  0
    6.6103    0.6306   17.6102 N   0  0  0  0  0  0  0  0  0  0  0  0
    5.4616    1.2822   17.8461 C   0  0  0  0  0  0  0  0  0  0  0  0
    5.0241    1.8068   17.0002 H   0  0  0  0  0  0  0  0  0  0  0  0
    4.8274    1.2969   19.0929 C   0  0  0  0  0  0  0  0  0  0  0  0
    3.8975    1.8400   19.2170 H   0  0  0  0  0  0  0  0  0  0  0  0
    5.4136    0.6187   20.1585 C   0  0  0  0  0  0  0  0  0  0  0  0
    4.9390    0.5900   21.1416 H   0  0  0  0  0  0  0  0  0  0  0  0
  1  2  1  0
  2  3  2  0
  3  4  1  0
  4  5  1  0
  4  6  2  0
  6  7  1  0
  7  8  2  0
  8  9  1  0
  8 10  1  0
 10 11  1  0
 10 12  2  0
 12 13  1  0
 12 14  1  0
 14 15  2  0
 15 16  1  0
 16 17  1  0
 16 18  2  0
 18 19  1  0
 18 20  1  0
 20 21  1  0
  6 22  1  0
 22 23  2  0
 23 24  1  0
 24 25  2  0
 25 26  1  0
 25 27  1  0
 27 28  2  0
 28 29  1  0
 28 30  1  0
 30 31  1  0
 30 32  2  0
 32 33  1  0
 23  2  1  0
 32 24  1  0
 15  7  1  0
 20 14  1  0
M  END
>  <cnnaffinity>  (1) 
-5.36866

>  <filename>  (1) 
c1cncc(-c2cncc(-c3cccc4[nH]ccc34)n2)c1

$$$$
