
     RDKit          3D

 43 46  0  0  0  0  0  0  0  0999 V2000
    5.0778    1.7953   16.9042 H   0  0  0  0  0  0  0  0  0  0  0  0
    5.4541    1.2882   17.7916 C   0  0  0  0  0  0  0  0  0  0  0  0
    6.5909    0.5917   17.6304 N   0  0  0  0  0  0  0  0  0  0  0  0
    7.0835   -0.0259   18.7049 C   0  0  0  0  0  0  0  0  0  0  0  0
    7.9846   -0.6153   18.5534 H   0  0  0  0  0  0  0  0  0  0  0  0
    6.5072    0.0259   19.9847 C   0  0  0  0  0  0  0  0  0  0  0  0
    7.2001   -0.6510   21.0829 C   0  0  0  0  0  0  0  0  0  0  0  0
    7.7905   -1.8301   20.8776 N   0  0  0  0  0  0  0  0  0  0  0  0
    8.4002   -2.0768   22.0414 N   0  0  0  0  0  0  0  0  0  0  0  0
    8.3107   -1.0862   22.9393 C   0  0  0  0  0  0  0  0  0  0  0  0
    7.5040   -0.1166   22.3766 C   0  0  0  0  0  0  0  0  0  0  0  0
    7.3983    1.3247   22.8107 C   0  0  0  0  0  0  0  0  0  0  0  0
    6.3889    1.6960   22.5922 H   0  0  0  0  0  0  0  0  0  0  0  0
    7.5448    1.4121   23.8958 H   0  0  0  0  0  0  0  0  0  0  0  0
    8.4427    2.2225   22.1074 C   0  0  0  0  0  0  0  0  0  0  0  0
    8.1710    3.2818   22.2570 H   0  0  0  0  0  0  0  0  0  0  0  0
    8.3397    2.0536   21.0259 H   0  0  0  0  0  0  0  0  0  0  0  0
    9.8146    1.9526   22.5248 N   0  0  0  0  0  0  0  0  0  0  0  0
   10.8462    1.7787   21.5059 C   0  0  0  0  0  0  0  0  0  0  0  0
   10.9414    0.7138   21.2300 H   0  0  0  0  0  0  0  0  0  0  0  0
   10.6123    2.3261   20.5807 H   0  0  0  0  0  0  0  0  0  0  0  0
   12.1383    2.3378   22.1192 C   0  0  0  0  0  0  0  0  0  0  0  0
   12.3841    3.3015   21.6597 H   0  0  0  0  0  0  0  0  0  0  0  0
   12.9872    1.6740   21.9454 H   0  0  0  0  0  0  0  0  0  0  0  0
   11.8483    2.4852   23.6152 C   0  0  0  0  0  0  0  0  0  0  0  0
   12.1550    1.5837   24.1543 H   0  0  0  0  0  0  0  0  0  0  0  0
   12.3975    3.3261   24.0490 H   0  0  0  0  0  0  0  0  0  0  0  0
   10.3269    2.6452   23.7012 C   0  0  0  0  0  0  0  0  0  0  0  0
   10.0546    3.7141   23.6972 H   0  0  0  0  0  0  0  0  0  0  0  0
    9.9199    2.2099   24.6281 H   0  0  0  0  0  0  0  0  0  0  0  0
    9.3412   -1.2722   24.0183 C   0  0  0  0  0  0  0  0  0  0  0  0
    8.9018   -1.2161   25.0194 H   0  0  0  0  0  0  0  0  0  0  0  0
   10.0791   -0.4638   23.9242 H   0  0  0  0  0  0  0  0  0  0  0  0
    9.9430   -2.6744   23.6905 C   0  0  0  0  0  0  0  0  0  0  0  0
   11.0327   -2.6854   23.7216 H   0  0  0  0  0  0  0  0  0  0  0  0
    9.5810   -3.4226   24.4005 H   0  0  0  0  0  0  0  0  0  0  0  0
    9.4564   -3.0303   22.2623 C   0  0  0  0  0  0  0  0  0  0  0  0
   10.2298   -2.8694   21.5020 H   0  0  0  0  0  0  0  0  0  0  0  0
    9.0587   -4.0429   22.1744 H   0  0  0  0  0  0  0  0  0  0  0  0
    5.3098    0.7450   20.1340 C   0  0  0  0  0  0  0  0  0  0  0  0
    4.8038    0.7866   21.0988 H   0  0  0  0  0  0  0  0  0  0  0  0
    4.7755    1.3751   19.0101 C   0  0  0  0  0  0  0  0  0  0  0  0
    3.8585    1.9501   19.0685 H   0  0  0  0  0  0  0  0  0  0  0  0
  1  2  1  0
  2  3  2  0
  3  4  1  0
  4  5  1  0
  4  6  2  0
  6  7  1  0
  7  8  2  0
  8  9  1  0
  9 10  1  0
 10 11  2  0
 11 12  1  0
 12 13  1  0
 12 14  1  0
 12 15  1  0
 15 16  1  0
 15 17  1  0
 15 18  1  0
 18 19  1  0
 19 20  1  0
 19 21  1  0
 19 22  1  0
 22 23  1  0
 22 24  1  0
 22 25  1  0
 25 26  1  0
 25 27  1  0
 25 28  1  0
 28 29  1  0
 28 30  1  0
 10 31  1  0
 31 32  1  0
 31 33  1  0
 31 34  1  0
 34 35  1  0
 34 36  1  0
 34 37  1  0
 37 38  1  0
 37 39  1  0
  6 40  1  0
 40 41  1  0
 40 42  2  0
 42 43  1  0
 42  2  1  0
 11  7  1  0
 28 18  1  0
 37  9  1  0
M  END
>  <cnnaffinity>  (1) 
-5.64972

>  <filename>  (1) 
c1cncc(-c2nn3c(c2CCN2CCCC2)CCC3)c1

$$$$
