
     RDKit          3D

 41 45  0  0  0  0  0  0  0  0999 V2000
    4.9928    1.8458   16.9159 H   0  0  0  0  0  0  0  0  0  0  0  0
    5.3863    1.3089   17.7803 C   0  0  0  0  0  0  0  0  0  0  0  0
    6.5398    0.6491   17.5908 N   0  0  0  0  0  0  0  0  0  0  0  0
    7.0655    0.0272   18.6561 C   0  0  0  0  0  0  0  0  0  0  0  0
    8.0072   -0.4904   18.4681 H   0  0  0  0  0  0  0  0  0  0  0  0
    6.4838   -0.0090   19.9434 C   0  0  0  0  0  0  0  0  0  0  0  0
    7.2334   -0.6240   21.0644 C   0  0  0  0  0  0  0  0  0  0  0  0
    8.5887   -0.5570   21.2989 C   0  0  0  0  0  0  0  0  0  0  0  0
    8.8059   -1.1492   22.5359 C   0  0  0  0  0  0  0  0  0  0  0  0
    7.6952   -1.6102   23.0797 N   0  0  0  0  0  0  0  0  0  0  0  0
    6.7414   -1.2697   22.1705 N   0  0  0  0  0  0  0  0  0  0  0  0
    5.7840   -1.5179   22.3812 H   0  0  0  0  0  0  0  0  0  0  0  0
   10.2447   -1.1016   22.9536 C   0  0  0  0  0  0  0  0  0  0  0  0
   10.3894   -0.6681   23.9480 H   0  0  0  0  0  0  0  0  0  0  0  0
   10.6703   -2.1100   22.9857 H   0  0  0  0  0  0  0  0  0  0  0  0
   10.9116   -0.2148   21.8403 C   0  0  2  0  0  0  0  0  0  0  0  0
   11.7803   -0.7520   21.4533 H   0  0  0  0  0  0  0  0  0  0  0  0
   11.3641    1.1403   22.3654 C   0  0  0  0  0  0  0  0  0  0  0  0
   12.7447    1.5184   22.3401 C   0  0  0  0  0  0  0  0  0  0  0  0
   13.4846    0.8211   21.9496 H   0  0  0  0  0  0  0  0  0  0  0  0
   13.1506    2.7493   22.8014 C   0  0  0  0  0  0  0  0  0  0  0  0
   14.1984    3.0412   22.7570 H   0  0  0  0  0  0  0  0  0  0  0  0
   12.2084    3.6786   23.3403 C   0  0  0  0  0  0  0  0  0  0  0  0
   12.5997    4.9593   23.8442 C   0  0  0  0  0  0  0  0  0  0  0  0
   13.6534    5.2396   23.8027 H   0  0  0  0  0  0  0  0  0  0  0  0
   11.6611    5.8190   24.3676 C   0  0  0  0  0  0  0  0  0  0  0  0
   11.9599    6.7920   24.7518 H   0  0  0  0  0  0  0  0  0  0  0  0
   10.2833    5.4439   24.4084 C   0  0  0  0  0  0  0  0  0  0  0  0
    9.5561    6.1383   24.8226 H   0  0  0  0  0  0  0  0  0  0  0  0
    9.8718    4.2245   23.9266 C   0  0  0  0  0  0  0  0  0  0  0  0
    8.8177    3.9379   23.9491 H   0  0  0  0  0  0  0  0  0  0  0  0
   10.8230    3.3064   23.3811 C   0  0  0  0  0  0  0  0  0  0  0  0
   10.4375    2.0280   22.8754 C   0  0  0  0  0  0  0  0  0  0  0  0
    9.3800    1.7661   22.8995 H   0  0  0  0  0  0  0  0  0  0  0  0
    9.8543   -0.0626   20.6968 C   0  0  0  0  0  0  0  0  0  0  0  0
   10.1372   -0.6679   19.8350 H   0  0  0  0  0  0  0  0  0  0  0  0
    9.7678    0.9674   20.3361 H   0  0  0  0  0  0  0  0  0  0  0  0
    5.2601    0.6657   20.1057 C   0  0  0  0  0  0  0  0  0  0  0  0
    4.7632    0.7093   21.0804 H   0  0  0  0  0  0  0  0  0  0  0  0
    4.7161    1.3369   19.0095 C   0  0  0  0  0  0  0  0  0  0  0  0
    3.8011    1.9113   19.0937 H   0  0  0  0  0  0  0  0  0  0  0  0
  1  2  1  0
  2  3  2  0
  3  4  1  0
  4  5  1  0
  4  6  2  0
  6  7  1  0
  7  8  2  0
  8  9  1  0
  9 10  2  0
 10 11  1  0
 11 12  1  0
  9 13  1  0
 13 14  1  0
 13 15  1  0
 13 16  1  0
 16 17  1  6
 16 18  1  0
 18 19  2  0
 19 20  1  0
 19 21  1  0
 21 22  1  0
 21 23  2  0
 23 24  1  0
 24 25  1  0
 24 26  2  0
 26 27  1  0
 26 28  1  0
 28 29  1  0
 28 30  2  0
 30 31  1  0
 30 32  1  0
 32 33  2  0
 33 34  1  0
 16 35  1  0
 35 36  1  0
 35 37  1  0
  6 38  1  0
 38 39  1  0
 38 40  2  0
 40 41  1  0
 40  2  1  0
 11  7  1  0
 33 18  1  0
 35  8  1  0
 32 23  1  0
M  END
>  <cnnaffinity>  (1) 
-5.86849

>  <filename>  (1) 
c1cncc(-c2[nH]nc3c2C[C@@H](c2ccc4ccccc4c2)C3)c1

$$$$
