
     RDKit          3D

 35 38  0  0  0  0  0  0  0  0999 V2000
    4.9828    1.8682   16.8787 H   0  0  0  0  0  0  0  0  0  0  0  0
    5.4229    1.3379   17.7177 C   0  0  0  0  0  0  0  0  0  0  0  0
    6.5793    0.6975   17.4677 N   0  0  0  0  0  0  0  0  0  0  0  0
    7.1430    0.0291   18.4833 C   0  0  0  0  0  0  0  0  0  0  0  0
    8.0821   -0.4820   18.2682 H   0  0  0  0  0  0  0  0  0  0  0  0
    6.6030   -0.0397   19.7890 C   0  0  0  0  0  0  0  0  0  0  0  0
    7.2191   -0.7656   20.8122 N   0  0  0  0  0  0  0  0  0  0  0  0
    7.8049   -1.5581   20.5783 H   0  0  0  0  0  0  0  0  0  0  0  0
    7.2517   -0.4087   22.1655 C   0  0  0  0  0  0  0  0  0  0  0  0
    7.2324    0.8522   22.8174 C   0  0  0  0  0  0  0  0  0  0  0  0
    7.1091    1.8231   22.3590 H   0  0  0  0  0  0  0  0  0  0  0  0
    7.4010    0.7332   24.1330 N   0  0  0  0  0  0  0  0  0  0  0  0
    7.5095   -0.5952   24.3283 N   0  0  0  0  0  0  0  0  0  0  0  0
    7.7198   -0.9682   25.2444 H   0  0  0  0  0  0  0  0  0  0  0  0
    7.4343   -1.3225   23.1838 C   0  0  0  0  0  0  0  0  0  0  0  0
    7.4248   -2.7782   23.0993 C   0  0  0  0  0  0  0  0  0  0  0  0
    6.3829   -3.4159   22.4535 C   0  0  0  0  0  0  0  0  0  0  0  0
    5.6095   -2.8106   21.9729 H   0  0  0  0  0  0  0  0  0  0  0  0
    6.2405   -4.7655   22.3676 N   0  0  0  0  0  0  0  0  0  0  0  0
    7.1466   -5.5125   22.9738 C   0  0  0  0  0  0  0  0  0  0  0  0
    7.0219   -6.5950   22.8944 H   0  0  0  0  0  0  0  0  0  0  0  0
    8.2817   -4.9882   23.6748 C   0  0  0  0  0  0  0  0  0  0  0  0
    9.2445   -5.8002   24.3479 C   0  0  0  0  0  0  0  0  0  0  0  0
    9.0790   -6.8635   24.4037 H   0  0  0  0  0  0  0  0  0  0  0  0
   10.4068   -5.2592   24.8403 C   0  0  0  0  0  0  0  0  0  0  0  0
   11.1529   -5.8564   25.3633 H   0  0  0  0  0  0  0  0  0  0  0  0
   10.6593   -3.8800   24.6629 C   0  0  0  0  0  0  0  0  0  0  0  0
   11.6032   -3.4495   24.9407 H   0  0  0  0  0  0  0  0  0  0  0  0
    9.7235   -3.0480   24.1002 C   0  0  0  0  0  0  0  0  0  0  0  0
    9.9412   -1.9888   23.9973 H   0  0  0  0  0  0  0  0  0  0  0  0
    8.4821   -3.5768   23.6422 C   0  0  0  0  0  0  0  0  0  0  0  0
    5.3959    0.6369   20.0248 C   0  0  0  0  0  0  0  0  0  0  0  0
    4.9671    0.5965   21.0278 H   0  0  0  0  0  0  0  0  0  0  0  0
    4.7985    1.3334   18.9703 C   0  0  0  0  0  0  0  0  0  0  0  0
    3.8689    1.8753   19.1118 H   0  0  0  0  0  0  0  0  0  0  0  0
  1  2  1  0
  2  3  2  0
  3  4  1  0
  4  5  1  0
  4  6  2  0
  6  7  1  0
  7  8  1  0
  7  9  1  0
  9 10  1  0
 10 11  1  0
 10 12  2  0
 12 13  1  0
 13 14  1  0
 13 15  1  0
 15 16  1  0
 16 17  2  0
 17 18  1  0
 17 19  1  0
 19 20  2  0
 20 21  1  0
 20 22  1  0
 22 23  2  0
 23 24  1  0
 23 25  1  0
 25 26  1  0
 25 27  2  0
 27 28  1  0
 27 29  1  0
 29 30  1  0
 29 31  2  0
  6 32  1  0
 32 33  1  0
 32 34  2  0
 34 35  1  0
 34  2  1  0
 15  9  2  0
 31 16  1  0
 31 22  1  0
M  END
>  <cnnaffinity>  (1) 
-5.97197

>  <filename>  (1) 
c1cncc(Nc2cn[nH]c2-c2cncc3ccccc23)c1

$$$$
