
     RDKit          3D

 36 38  0  0  0  0  0  0  0  0999 V2000
    4.9156    1.8492   16.9505 H   0  0  0  0  0  0  0  0  0  0  0  0
    5.3834    1.3340   17.7861 C   0  0  0  0  0  0  0  0  0  0  0  0
    6.5435    0.7100   17.5264 N   0  0  0  0  0  0  0  0  0  0  0  0
    7.1481    0.0882   18.5505 C   0  0  0  0  0  0  0  0  0  0  0  0
    8.0923   -0.4028   18.3035 H   0  0  0  0  0  0  0  0  0  0  0  0
    6.6393    0.0273   19.8725 C   0  0  0  0  0  0  0  0  0  0  0  0
    7.3224   -0.6947   20.9960 C   0  0  0  0  0  0  0  0  0  0  0  0
    8.6884   -0.5764   21.4435 C   0  0  0  0  0  0  0  0  0  0  0  0
    9.7301    0.3972   20.9669 C   0  0  0  0  0  0  0  0  0  0  0  0
   10.7121   -0.0763   21.0673 H   0  0  0  0  0  0  0  0  0  0  0  0
    9.5541    0.5682   19.9014 H   0  0  0  0  0  0  0  0  0  0  0  0
    9.7197    1.7607   21.7053 C   0  0  0  0  0  0  0  0  0  0  0  0
   10.5094    2.3794   21.2440 H   0  0  0  0  0  0  0  0  0  0  0  0
   10.0322    1.6282   23.2077 C   0  0  0  0  0  0  0  0  0  0  0  0
    9.2691    0.9873   23.6730 H   0  0  0  0  0  0  0  0  0  0  0  0
   10.9890    1.1110   23.3447 H   0  0  0  0  0  0  0  0  0  0  0  0
   10.0366    2.9925   23.9117 C   0  0  0  0  0  0  0  0  0  0  0  0
   10.2746    2.8674   24.9735 H   0  0  0  0  0  0  0  0  0  0  0  0
   10.8284    3.6213   23.4809 H   0  0  0  0  0  0  0  0  0  0  0  0
    8.6954    3.7226   23.7421 C   0  0  0  0  0  0  0  0  0  0  0  0
    7.9150    3.1884   24.3002 H   0  0  0  0  0  0  0  0  0  0  0  0
    8.7428    4.7193   24.1976 H   0  0  0  0  0  0  0  0  0  0  0  0
    8.2990    3.8389   22.2587 C   0  0  0  0  0  0  0  0  0  0  0  0
    7.2918    4.2514   22.1551 H   0  0  0  0  0  0  0  0  0  0  0  0
    8.9486    4.5832   21.7976 H   0  0  0  0  0  0  0  0  0  0  0  0
    8.3748    2.4850   21.5341 C   0  0  0  0  0  0  0  0  0  0  0  0
    8.1358    2.5488   20.4691 H   0  0  0  0  0  0  0  0  0  0  0  0
    7.5898    1.8623   21.9773 H   0  0  0  0  0  0  0  0  0  0  0  0
    8.9529   -1.4077   22.4174 N   0  0  0  0  0  0  0  0  0  0  0  0
    7.7828   -2.0744   22.6834 O   0  0  0  0  0  0  0  0  0  0  0  0
    6.8297   -1.6290   21.8597 C   0  0  0  0  0  0  0  0  0  0  0  0
    5.8582   -2.0848   21.9951 H   0  0  0  0  0  0  0  0  0  0  0  0
    5.4158    0.6756   20.0967 C   0  0  0  0  0  0  0  0  0  0  0  0
    4.9807    0.6738   21.0959 H   0  0  0  0  0  0  0  0  0  0  0  0
    4.7779    1.3393   19.0453 C   0  0  0  0  0  0  0  0  0  0  0  0
    3.8384    1.8665   19.1867 H   0  0  0  0  0  0  0  0  0  0  0  0
  1  2  1  0
  2  3  2  0
  3  4  1  0
  4  5  1  0
  4  6  2  0
  6  7  1  0
  7  8  1  0
  8  9  1  0
  9 10  1  0
  9 11  1  0
  9 12  1  0
 12 13  1  0
 12 14  1  0
 14 15  1  0
 14 16  1  0
 14 17  1  0
 17 18  1  0
 17 19  1  0
 17 20  1  0
 20 21  1  0
 20 22  1  0
 20 23  1  0
 23 24  1  0
 23 25  1  0
 23 26  1  0
 26 27  1  0
 26 28  1  0
  8 29  2  0
 29 30  1  0
 30 31  1  0
 31 32  1  0
  6 33  1  0
 33 34  1  0
 33 35  2  0
 35 36  1  0
 35  2  1  0
 31  7  2  0
 26 12  1  0
M  END
>  <cnnaffinity>  (1) 
-5.08159

>  <filename>  (1) 
c1cncc(-c2conc2CC2CCCCC2)c1

$$$$
