
     RDKit          3D

 32 36  0  0  0  0  0  0  0  0999 V2000
    4.9532    1.8111   16.9877 H   0  0  0  0  0  0  0  0  0  0  0  0
    5.4152    1.2951   17.8274 C   0  0  0  0  0  0  0  0  0  0  0  0
    6.5738    0.6639   17.5837 N   0  0  0  0  0  0  0  0  0  0  0  0
    7.1717    0.0463   18.6068 C   0  0  0  0  0  0  0  0  0  0  0  0
    8.1168   -0.4491   18.3811 H   0  0  0  0  0  0  0  0  0  0  0  0
    6.6509    0.0160   19.9113 C   0  0  0  0  0  0  0  0  0  0  0  0
    7.3808   -0.6747   20.9892 C   0  0  0  0  0  0  0  0  0  0  0  0
    6.9120   -0.7396   22.1975 N   0  0  0  0  0  0  0  0  0  0  0  0
    7.7661   -1.4546   22.9806 N   0  0  0  0  0  0  0  0  0  0  0  0
    7.7692   -1.9432   24.2756 C   0  0  0  0  0  0  0  0  0  0  0  0
    6.7398   -1.6257   25.2742 C   0  0  0  0  0  0  0  0  0  0  0  0
    5.9383   -0.5213   25.2509 C   0  0  0  0  0  0  0  0  0  0  0  0
    5.8795    0.2229   24.4657 H   0  0  0  0  0  0  0  0  0  0  0  0
    4.8807   -0.3990   26.6066 S   0  0  0  0  0  0  0  0  0  0  0  0
    5.4513   -1.9161   27.2558 C   0  0  0  0  0  0  0  0  0  0  0  0
    5.0049   -2.5838   28.4162 C   0  0  0  0  0  0  0  0  0  0  0  0
    4.2558   -2.1443   29.0718 H   0  0  0  0  0  0  0  0  0  0  0  0
    5.5486   -3.8303   28.7142 C   0  0  0  0  0  0  0  0  0  0  0  0
    5.1795   -4.3964   29.5683 H   0  0  0  0  0  0  0  0  0  0  0  0
    6.6113   -4.3580   27.9359 C   0  0  0  0  0  0  0  0  0  0  0  0
    7.0521   -5.3113   28.2124 H   0  0  0  0  0  0  0  0  0  0  0  0
    7.1023   -3.6637   26.8378 C   0  0  0  0  0  0  0  0  0  0  0  0
    7.9517   -4.0187   26.2547 H   0  0  0  0  0  0  0  0  0  0  0  0
    6.4766   -2.4564   26.4451 C   0  0  0  0  0  0  0  0  0  0  0  0
    8.8362   -2.7009   24.4211 N   0  0  0  0  0  0  0  0  0  0  0  0
    9.5471   -2.7252   23.2462 N   0  0  0  0  0  0  0  0  0  0  0  0
    8.8829   -1.9827   22.4065 C   0  0  0  0  0  0  0  0  0  0  0  0
    8.9499   -1.4874   20.7436 S   0  0  0  0  0  0  0  0  0  0  0  0
    5.4236    0.6644   20.1458 C   0  0  0  0  0  0  0  0  0  0  0  0
    4.9818    0.6641   21.1437 H   0  0  0  0  0  0  0  0  0  0  0  0
    4.8001    1.3136   19.0830 C   0  0  0  0  0  0  0  0  0  0  0  0
    3.8649    1.8454   19.2170 H   0  0  0  0  0  0  0  0  0  0  0  0
  1  2  1  0
  2  3  2  0
  3  4  1  0
  4  5  1  0
  4  6  2  0
  6  7  1  0
  7  8  2  0
  8  9  1  0
  9 10  1  0
 10 11  1  0
 11 12  2  0
 12 13  1  0
 12 14  1  0
 14 15  1  0
 15 16  2  0
 16 17  1  0
 16 18  1  0
 18 19  1  0
 18 20  2  0
 20 21  1  0
 20 22  1  0
 22 23  1  0
 22 24  2  0
 10 25  2  0
 25 26  1  0
 26 27  2  0
 27 28  1  0
  6 29  1  0
 29 30  1  0
 29 31  2  0
 31 32  1  0
 31  2  1  0
 28  7  1  0
 27  9  1  0
 24 11  1  0
 24 15  1  0
M  END
>  <cnnaffinity>  (1) 
-5.18776

>  <filename>  (1) 
c1cncc(-c2nn3c(-c4csc5ccccc45)nnc3s2)c1

$$$$
