
     RDKit          3D

 33 37  0  0  0  0  0  0  0  0999 V2000
    4.9380    1.7748   16.9996 H   0  0  0  0  0  0  0  0  0  0  0  0
    5.4094    1.2842   17.8464 C   0  0  0  0  0  0  0  0  0  0  0  0
    6.5729    0.6645   17.5967 N   0  0  0  0  0  0  0  0  0  0  0  0
    7.1767    0.0515   18.6188 C   0  0  0  0  0  0  0  0  0  0  0  0
    8.1245   -0.4324   18.3896 H   0  0  0  0  0  0  0  0  0  0  0  0
    6.6427    0.0174   19.9150 C   0  0  0  0  0  0  0  0  0  0  0  0
    7.3702   -0.6893   20.9636 C   0  0  0  0  0  0  0  0  0  0  0  0
    8.5531   -1.3292   20.7490 N   0  0  0  0  0  0  0  0  0  0  0  0
    8.8073   -1.8193   21.9421 C   0  0  0  0  0  0  0  0  0  0  0  0
   10.0045   -2.8056   22.7235 S   0  0  0  0  0  0  0  0  0  0  0  0
    9.0873   -2.7643   24.2009 C   0  0  0  0  0  0  0  0  0  0  0  0
    9.4664   -3.2766   25.0744 H   0  0  0  0  0  0  0  0  0  0  0  0
    7.9598   -2.0232   24.1174 C   0  0  0  0  0  0  0  0  0  0  0  0
    6.9753   -1.7614   25.1923 C   0  0  0  0  0  0  0  0  0  0  0  0
    6.7802   -2.7721   26.2021 C   0  0  0  0  0  0  0  0  0  0  0  0
    7.3445   -3.7030   26.1330 H   0  0  0  0  0  0  0  0  0  0  0  0
    5.8854   -2.6095   27.2444 C   0  0  0  0  0  0  0  0  0  0  0  0
    5.7396   -3.3764   28.0058 H   0  0  0  0  0  0  0  0  0  0  0  0
    5.1703   -1.3924   27.2806 C   0  0  0  0  0  0  0  0  0  0  0  0
    5.3471   -0.3792   26.3088 C   0  0  0  0  0  0  0  0  0  0  0  0
    4.4476    0.6496   26.7119 C   0  0  0  0  0  0  0  0  0  0  0  0
    4.2830    1.6019   26.2237 H   0  0  0  0  0  0  0  0  0  0  0  0
    3.7934    0.3218   27.8040 N   0  0  0  0  0  0  0  0  0  0  0  0
    4.2365   -0.9113   28.1395 N   0  0  0  0  0  0  0  0  0  0  0  0
    3.8837   -1.3764   28.9594 H   0  0  0  0  0  0  0  0  0  0  0  0
    6.2629   -0.5650   25.2563 C   0  0  0  0  0  0  0  0  0  0  0  0
    6.4060    0.1879   24.4858 H   0  0  0  0  0  0  0  0  0  0  0  0
    7.8408   -1.4911   22.8268 N   0  0  0  0  0  0  0  0  0  0  0  0
    6.8930   -0.7543   22.2017 N   0  0  0  0  0  0  0  0  0  0  0  0
    5.4210    0.6602   20.1709 C   0  0  0  0  0  0  0  0  0  0  0  0
    4.9948    0.6393   21.1788 H   0  0  0  0  0  0  0  0  0  0  0  0
    4.8035    1.3099   19.1079 C   0  0  0  0  0  0  0  0  0  0  0  0
    3.8732    1.8434   19.2502 H   0  0  0  0  0  0  0  0  0  0  0  0
  1  2  1  0
  2  3  2  0
  3  4  1  0
  4  5  1  0
  4  6  2  0
  6  7  1  0
  7  8  1  0
  8  9  2  0
  9 10  1  0
 10 11  1  0
 11 12  1  0
 11 13  2  0
 13 14  1  0
 14 15  2  0
 15 16  1  0
 15 17  1  0
 17 18  1  0
 17 19  2  0
 19 20  1  0
 20 21  1  0
 21 22  1  0
 21 23  2  0
 23 24  1  0
 24 25  1  0
 20 26  2  0
 26 27  1  0
 13 28  1  0
 28 29  1  0
  6 30  1  0
 30 31  1  0
 30 32  2  0
 32 33  1  0
 32  2  1  0
 29  7  2  0
 28  9  1  0
 26 14  1  0
 24 19  1  0
M  END
>  <cnnaffinity>  (1) 
-5.68002

>  <filename>  (1) 
c1cncc(-c2nc3scc(-c4ccc5[nH]ncc5c4)n3n2)c1

$$$$
