
     RDKit          3D

 36 39  0  0  0  0  0  0  0  0999 V2000
    5.0108    1.7784   16.8736 H   0  0  0  0  0  0  0  0  0  0  0  0
    5.4878    1.3616   17.7589 C   0  0  0  0  0  0  0  0  0  0  0  0
    6.7044    0.8266   17.5894 N   0  0  0  0  0  0  0  0  0  0  0  0
    7.3029    0.3027   18.6680 C   0  0  0  0  0  0  0  0  0  0  0  0
    8.2927   -0.1121   18.4740 H   0  0  0  0  0  0  0  0  0  0  0  0
    6.7336    0.2344   19.9467 C   0  0  0  0  0  0  0  0  0  0  0  0
    7.5211   -0.4748   21.0449 C   0  0  0  0  0  0  0  0  0  0  0  0
    8.7410    0.2120   21.4124 N   0  0  0  0  0  0  0  0  0  0  0  0
    9.5704   -0.0385   20.8958 H   0  0  0  0  0  0  0  0  0  0  0  0
    8.7744    1.4783   21.9891 C   0  0  0  0  0  0  0  0  0  0  0  0
    7.5732    2.0865   22.4585 C   0  0  0  0  0  0  0  0  0  0  0  0
    6.6503    1.5400   22.3332 H   0  0  0  0  0  0  0  0  0  0  0  0
    7.5517    3.3359   23.0496 C   0  0  0  0  0  0  0  0  0  0  0  0
    6.6225    3.7764   23.3924 H   0  0  0  0  0  0  0  0  0  0  0  0
    8.7804    4.0203   23.1583 C   0  0  0  0  0  0  0  0  0  0  0  0
   10.0062    3.4215   22.7785 C   0  0  0  0  0  0  0  0  0  0  0  0
   10.9786    4.4195   23.1228 C   0  0  0  0  0  0  0  0  0  0  0  0
   12.0571    4.3708   23.0427 H   0  0  0  0  0  0  0  0  0  0  0  0
   10.4190    5.5010   23.6319 N   0  0  0  0  0  0  0  0  0  0  0  0
    9.0904    5.2560   23.6373 N   0  0  0  0  0  0  0  0  0  0  0  0
    8.4480    5.9727   23.9391 H   0  0  0  0  0  0  0  0  0  0  0  0
    9.9962    2.1253   22.1792 C   0  0  0  0  0  0  0  0  0  0  0  0
   10.9124    1.6057   21.9157 H   0  0  0  0  0  0  0  0  0  0  0  0
    7.8313   -1.9655   20.7678 C   0  0  0  0  0  0  0  0  0  0  0  0
    7.1418   -2.3355   20.0076 H   0  0  0  0  0  0  0  0  0  0  0  0
    8.8676   -2.1752   20.4885 H   0  0  0  0  0  0  0  0  0  0  0  0
    7.3695   -2.3500   22.1922 C   0  0  0  0  0  0  0  0  0  0  0  0
    6.7121   -3.2217   22.2870 H   0  0  0  0  0  0  0  0  0  0  0  0
    8.2086   -2.4704   22.8866 H   0  0  0  0  0  0  0  0  0  0  0  0
    6.7066   -0.9597   22.2799 C   0  0  0  0  0  0  0  0  0  0  0  0
    6.8134   -0.4107   23.2196 H   0  0  0  0  0  0  0  0  0  0  0  0
    5.6683   -0.9912   21.9615 H   0  0  0  0  0  0  0  0  0  0  0  0
    5.4682    0.8303   20.1057 C   0  0  0  0  0  0  0  0  0  0  0  0
    4.9864    0.8778   21.0859 H   0  0  0  0  0  0  0  0  0  0  0  0
    4.8337    1.3883   18.9947 C   0  0  0  0  0  0  0  0  0  0  0  0
    3.8601    1.8563   19.0754 H   0  0  0  0  0  0  0  0  0  0  0  0
  1  2  1  0
  2  3  2  0
  3  4  1  0
  4  5  1  0
  4  6  2  0
  6  7  1  0
  7  8  1  0
  8  9  1  0
  8 10  1  0
 10 11  2  0
 11 12  1  0
 11 13  1  0
 13 14  1  0
 13 15  2  0
 15 16  1  0
 16 17  1  0
 17 18  1  0
 17 19  2  0
 19 20  1  0
 20 21  1  0
 16 22  2  0
 22 23  1  0
  7 24  1  0
 24 25  1  0
 24 26  1  0
 24 27  1  0
 27 28  1  0
 27 29  1  0
 27 30  1  0
 30 31  1  0
 30 32  1  0
  6 33  1  0
 33 34  1  0
 33 35  2  0
 35 36  1  0
 35  2  1  0
 30  7  1  0
 22 10  1  0
 20 15  1  0
M  END
>  <cnnaffinity>  (1) 
-4.67566

>  <filename>  (1) 
c1cncc(C2(Nc3ccc4[nH]ncc4c3)CCC2)c1

$$$$
