
     RDKit          3D

 34 38  0  0  0  0  0  0  0  0999 V2000
    4.9123    1.8115   16.9734 H   0  0  0  0  0  0  0  0  0  0  0  0
    5.3784    1.3046   17.8194 C   0  0  0  0  0  0  0  0  0  0  0  0
    6.5415    0.6856   17.5623 N   0  0  0  0  0  0  0  0  0  0  0  0
    7.1536    0.0768   18.5820 C   0  0  0  0  0  0  0  0  0  0  0  0
    8.1043   -0.3929   18.3351 H   0  0  0  0  0  0  0  0  0  0  0  0
    6.6623    0.0267   19.9074 C   0  0  0  0  0  0  0  0  0  0  0  0
    7.4159   -0.6780   20.9607 C   0  0  0  0  0  0  0  0  0  0  0  0
    8.3336   -1.7003   20.8967 C   0  0  0  0  0  0  0  0  0  0  0  0
    8.7467   -2.1139   19.9970 H   0  0  0  0  0  0  0  0  0  0  0  0
    8.7826   -2.1201   22.1182 N   0  0  0  0  0  0  0  0  0  0  0  0
    8.1643   -1.3179   22.9412 C   0  0  0  0  0  0  0  0  0  0  0  0
    8.2297   -0.9783   24.6302 S   0  0  0  0  0  0  0  0  0  0  0  0
    7.1074    0.3618   24.3143 C   0  0  0  0  0  0  0  0  0  0  0  0
    6.6406    1.2458   25.3879 C   0  0  0  0  0  0  0  0  0  0  0  0
    5.7326    2.3040   25.0832 C   0  0  0  0  0  0  0  0  0  0  0  0
    5.4125    2.4386   24.0511 H   0  0  0  0  0  0  0  0  0  0  0  0
    5.2670    3.1490   26.0770 C   0  0  0  0  0  0  0  0  0  0  0  0
    4.5756    3.9506   25.8359 H   0  0  0  0  0  0  0  0  0  0  0  0
    5.7226    2.9315   27.3932 C   0  0  0  0  0  0  0  0  0  0  0  0
    6.6276    1.8913   27.7203 C   0  0  0  0  0  0  0  0  0  0  0  0
    7.0837    1.0487   26.7014 C   0  0  0  0  0  0  0  0  0  0  0  0
    7.7788    0.2488   26.9404 H   0  0  0  0  0  0  0  0  0  0  0  0
    6.8730    1.9628   29.1350 C   0  0  0  0  0  0  0  0  0  0  0  0
    7.5176    1.3059   29.7094 H   0  0  0  0  0  0  0  0  0  0  0  0
    6.1333    3.0074   29.6006 C   0  0  0  0  0  0  0  0  0  0  0  0
    6.0311    3.3915   30.6049 H   0  0  0  0  0  0  0  0  0  0  0  0
    5.4419    3.5932   28.5589 N   0  0  0  0  0  0  0  0  0  0  0  0
    4.8205    4.3794   28.6248 H   0  0  0  0  0  0  0  0  0  0  0  0
    6.7353    0.5136   23.0820 N   0  0  0  0  0  0  0  0  0  0  0  0
    7.3240   -0.4377   22.3255 N   0  0  0  0  0  0  0  0  0  0  0  0
    5.4324    0.6671   20.1448 C   0  0  0  0  0  0  0  0  0  0  0  0
    5.0153    0.6553   21.1489 H   0  0  0  0  0  0  0  0  0  0  0  0
    4.7880    1.3158   19.0873 C   0  0  0  0  0  0  0  0  0  0  0  0
    3.8547    1.8502   19.2298 H   0  0  0  0  0  0  0  0  0  0  0  0
  1  2  1  0
  2  3  2  0
  3  4  1  0
  4  5  1  0
  4  6  2  0
  6  7  1  0
  7  8  2  0
  8  9  1  0
  8 10  1  0
 10 11  2  0
 11 12  1  0
 12 13  1  0
 13 14  1  0
 14 15  2  0
 15 16  1  0
 15 17  1  0
 17 18  1  0
 17 19  2  0
 19 20  1  0
 20 21  2  0
 21 22  1  0
 20 23  1  0
 23 24  1  0
 23 25  2  0
 25 26  1  0
 25 27  1  0
 27 28  1  0
 13 29  2  0
 29 30  1  0
  6 31  1  0
 31 32  1  0
 31 33  2  0
 33 34  1  0
 33  2  1  0
 30  7  1  0
 30 11  1  0
 21 14  1  0
 27 19  1  0
M  END
>  <cnnaffinity>  (1) 
-5.30531

>  <filename>  (1) 
c1cncc(-c2cnc3sc(-c4ccc5[nH]ccc5c4)nn23)c1

$$$$
