
     RDKit          3D

 37 39  0  0  0  0  0  0  0  0999 V2000
    5.0075    1.7992   16.9682 H   0  0  0  0  0  0  0  0  0  0  0  0
    5.4526    1.2818   17.8174 C   0  0  0  0  0  0  0  0  0  0  0  0
    6.6047    0.6350   17.5814 N   0  0  0  0  0  0  0  0  0  0  0  0
    7.1703   -0.0078   18.6160 C   0  0  0  0  0  0  0  0  0  0  0  0
    8.0899   -0.5489   18.3879 H   0  0  0  0  0  0  0  0  0  0  0  0
    6.6438   -0.0337   19.9191 C   0  0  0  0  0  0  0  0  0  0  0  0
    7.3531   -0.7519   21.0067 C   0  0  0  0  0  0  0  0  0  0  0  0
    6.5389   -1.9991   21.8881 S   0  0  0  0  0  0  0  0  0  0  0  0
    7.9169   -2.3090   22.8672 C   0  0  0  0  0  0  0  0  0  0  0  0
    7.8930   -3.0559   23.6554 H   0  0  0  0  0  0  0  0  0  0  0  0
    8.9433   -1.4909   22.5291 C   0  0  0  0  0  0  0  0  0  0  0  0
    9.9044   -1.5095   23.0311 H   0  0  0  0  0  0  0  0  0  0  0  0
    8.6358   -0.5739   21.4704 C   0  0  0  0  0  0  0  0  0  0  0  0
    9.5893    0.5386   21.1112 C   0  0  0  0  0  0  0  0  0  0  0  0
   10.6020    0.1203   21.0789 H   0  0  0  0  0  0  0  0  0  0  0  0
    9.3691    0.9093   20.1016 H   0  0  0  0  0  0  0  0  0  0  0  0
    9.5432    1.7017   22.1348 C   0  0  0  0  0  0  0  0  0  0  0  0
    9.6410    1.2759   23.1509 H   0  0  0  0  0  0  0  0  0  0  0  0
    8.1676    2.3912   22.0609 C   0  0  0  0  0  0  0  0  0  0  0  0
    7.3852    1.6592   22.3026 H   0  0  0  0  0  0  0  0  0  0  0  0
    7.9525    2.7028   21.0258 H   0  0  0  0  0  0  0  0  0  0  0  0
    8.0658    3.5808   23.0158 C   0  0  0  0  0  0  0  0  0  0  0  0
    8.1118    3.2088   24.0509 H   0  0  0  0  0  0  0  0  0  0  0  0
    7.0904    4.0640   22.8775 H   0  0  0  0  0  0  0  0  0  0  0  0
    9.1773    4.6152   22.8002 C   0  0  0  0  0  0  0  0  0  0  0  0
    9.1307    5.3627   23.6019 H   0  0  0  0  0  0  0  0  0  0  0  0
    8.9604    5.1735   21.8802 H   0  0  0  0  0  0  0  0  0  0  0  0
   10.5939    4.0028   22.7565 C   0  0  0  0  0  0  0  0  0  0  0  0
   11.2878    4.7471   22.3391 H   0  0  0  0  0  0  0  0  0  0  0  0
   10.9345    3.8145   23.7836 H   0  0  0  0  0  0  0  0  0  0  0  0
   10.7187    2.6872   21.9484 C   0  0  0  0  0  0  0  0  0  0  0  0
   10.8392    2.8897   20.8762 H   0  0  0  0  0  0  0  0  0  0  0  0
   11.6570    2.1899   22.2380 H   0  0  0  0  0  0  0  0  0  0  0  0
    5.4316    0.6417   20.1372 C   0  0  0  0  0  0  0  0  0  0  0  0
    4.9743    0.6395   21.1291 H   0  0  0  0  0  0  0  0  0  0  0  0
    4.8283    1.3069   19.0683 C   0  0  0  0  0  0  0  0  0  0  0  0
    3.8952    1.8444   19.1933 H   0  0  0  0  0  0  0  0  0  0  0  0
  1  2  1  0
  2  3  2  0
  3  4  1  0
  4  5  1  0
  4  6  2  0
  6  7  1  0
  7  8  1  0
  8  9  1  0
  9 10  1  0
  9 11  2  0
 11 12  1  0
 11 13  1  0
 13 14  1  0
 14 15  1  0
 14 16  1  0
 14 17  1  0
 17 18  1  0
 17 19  1  0
 19 20  1  0
 19 21  1  0
 19 22  1  0
 22 23  1  0
 22 24  1  0
 22 25  1  0
 25 26  1  0
 25 27  1  0
 25 28  1  0
 28 29  1  0
 28 30  1  0
 28 31  1  0
 31 32  1  0
 31 33  1  0
  6 34  1  0
 34 35  1  0
 34 36  2  0
 36 37  1  0
 36  2  1  0
 13  7  2  0
 31 17  1  0
M  END
>  <cnnaffinity>  (1) 
-5.57646

>  <filename>  (1) 
c1cncc(-c2sccc2CC2CCCCC2)c1

$$$$
