
     RDKit          3D

 34 37  0  0  0  0  0  0  0  0999 V2000
    5.0064    1.7980   17.0076 H   0  0  0  0  0  0  0  0  0  0  0  0
    5.4500    1.2775   17.8544 C   0  0  0  0  0  0  0  0  0  0  0  0
    6.6017    0.6302   17.6244 N   0  0  0  0  0  0  0  0  0  0  0  0
    7.1674    0.0025   18.6597 C   0  0  0  0  0  0  0  0  0  0  0  0
    8.0986   -0.5157   18.4362 H   0  0  0  0  0  0  0  0  0  0  0  0
    6.6288   -0.0294   19.9523 C   0  0  0  0  0  0  0  0  0  0  0  0
    7.3617   -0.7453   21.0260 C   0  0  0  0  0  0  0  0  0  0  0  0
    6.6049   -1.3496   21.9499 N   0  0  0  0  0  0  0  0  0  0  0  0
    7.2078   -2.0018   22.9572 C   0  0  0  0  0  0  0  0  0  0  0  0
    6.3605   -2.6638   23.9937 C   0  0  0  0  0  0  0  0  0  0  0  0
    6.7049   -2.5840   25.3514 C   0  0  0  0  0  0  0  0  0  0  0  0
    7.6009   -2.0408   25.6642 H   0  0  0  0  0  0  0  0  0  0  0  0
    5.8796   -3.1397   26.3507 C   0  0  0  0  0  0  0  0  0  0  0  0
    6.1472   -3.0005   27.3951 H   0  0  0  0  0  0  0  0  0  0  0  0
    4.6966   -3.8062   26.0303 C   0  0  0  0  0  0  0  0  0  0  0  0
    4.0234   -4.1758   26.8026 H   0  0  0  0  0  0  0  0  0  0  0  0
    4.4063   -3.9751   24.6674 C   0  0  0  0  0  0  0  0  0  0  0  0
    5.2084   -3.4178   23.6399 C   0  0  0  0  0  0  0  0  0  0  0  0
    4.6021   -3.8255   22.3974 C   0  0  0  0  0  0  0  0  0  0  0  0
    4.9454   -3.5102   21.4228 H   0  0  0  0  0  0  0  0  0  0  0  0
    3.5235   -4.6024   22.6895 C   0  0  0  0  0  0  0  0  0  0  0  0
    2.8603   -5.1542   22.0366 H   0  0  0  0  0  0  0  0  0  0  0  0
    3.3983   -4.6899   24.0646 N   0  0  0  0  0  0  0  0  0  0  0  0
    2.5548   -4.9533   24.5452 H   0  0  0  0  0  0  0  0  0  0  0  0
    8.6111   -2.0784   23.0652 C   0  0  0  0  0  0  0  0  0  0  0  0
    9.0656   -2.6056   23.8960 H   0  0  0  0  0  0  0  0  0  0  0  0
    9.4024   -1.4706   22.0942 C   0  0  0  0  0  0  0  0  0  0  0  0
   10.4897   -1.5292   22.1401 H   0  0  0  0  0  0  0  0  0  0  0  0
    8.7647   -0.7883   21.0595 C   0  0  0  0  0  0  0  0  0  0  0  0
    9.3429   -0.2897   20.2949 H   0  0  0  0  0  0  0  0  0  0  0  0
    5.4044    0.6212   20.1694 C   0  0  0  0  0  0  0  0  0  0  0  0
    4.9391    0.5975   21.1574 H   0  0  0  0  0  0  0  0  0  0  0  0
    4.8168    1.2955   19.1020 C   0  0  0  0  0  0  0  0  0  0  0  0
    3.8871    1.8380   19.2258 H   0  0  0  0  0  0  0  0  0  0  0  0
  1  2  1  0
  2  3  2  0
  3  4  1  0
  4  5  1  0
  4  6  2  0
  6  7  1  0
  7  8  2  0
  8  9  1  0
  9 10  1  0
 10 11  2  0
 11 12  1  0
 11 13  1  0
 13 14  1  0
 13 15  2  0
 15 16  1  0
 15 17  1  0
 17 18  2  0
 18 19  1  0
 19 20  1  0
 19 21  2  0
 21 22  1  0
 21 23  1  0
 23 24  1  0
  9 25  2  0
 25 26  1  0
 25 27  1  0
 27 28  1  0
 27 29  2  0
 29 30  1  0
  6 31  1  0
 31 32  1  0
 31 33  2  0
 33 34  1  0
 33  2  1  0
 29  7  1  0
 18 10  1  0
 23 17  1  0
M  END
>  <cnnaffinity>  (1) 
-5.21921

>  <filename>  (1) 
c1cncc(-c2cccc(-c3cccc4[nH]ccc34)n2)c1

$$$$
