
     RDKit          3D

 35 39  0  0  0  0  0  0  0  0999 V2000
    4.9212    1.7798   16.9981 H   0  0  0  0  0  0  0  0  0  0  0  0
    5.4031    1.2905   17.8400 C   0  0  0  0  0  0  0  0  0  0  0  0
    6.5673    0.6765   17.5754 N   0  0  0  0  0  0  0  0  0  0  0  0
    7.1721    0.0543   18.5888 C   0  0  0  0  0  0  0  0  0  0  0  0
    8.1206   -0.4331   18.3701 H   0  0  0  0  0  0  0  0  0  0  0  0
    6.6470    0.0114   19.8936 C   0  0  0  0  0  0  0  0  0  0  0  0
    7.4044   -0.6961   20.9208 C   0  0  0  0  0  0  0  0  0  0  0  0
    8.3279   -1.6003   20.7029 N   0  0  0  0  0  0  0  0  0  0  0  0
    8.8313   -2.0369   21.9082 N   0  0  0  0  0  0  0  0  0  0  0  0
    8.2042   -1.3548   22.8254 C   0  0  0  0  0  0  0  0  0  0  0  0
    8.2579   -1.0941   24.5449 S   0  0  0  0  0  0  0  0  0  0  0  0
    7.0317    0.1766   24.3384 C   0  0  0  0  0  0  0  0  0  0  0  0
    6.5337    0.9701   25.4955 C   0  0  0  0  0  0  0  0  0  0  0  0
    5.5699    1.9769   25.2804 C   0  0  0  0  0  0  0  0  0  0  0  0
    5.1998    2.1478   24.2702 H   0  0  0  0  0  0  0  0  0  0  0  0
    5.1025    2.7431   26.3464 C   0  0  0  0  0  0  0  0  0  0  0  0
    4.3595    3.5133   26.1800 H   0  0  0  0  0  0  0  0  0  0  0  0
    5.5747    2.5334   27.6461 C   0  0  0  0  0  0  0  0  0  0  0  0
    6.5186    1.5025   27.8857 C   0  0  0  0  0  0  0  0  0  0  0  0
    6.9974    0.7478   26.8142 C   0  0  0  0  0  0  0  0  0  0  0  0
    7.7449   -0.0102   27.0372 H   0  0  0  0  0  0  0  0  0  0  0  0
    7.0020    1.2542   29.1463 O   0  0  0  0  0  0  0  0  0  0  0  0
    6.2542    1.8357   30.2222 C   0  0  0  0  0  0  0  0  0  0  0  0
    6.9251    1.8385   31.0830 H   0  0  0  0  0  0  0  0  0  0  0  0
    5.3793    1.2194   30.4723 H   0  0  0  0  0  0  0  0  0  0  0  0
    5.8124    3.2603   29.8919 C   0  0  0  0  0  0  0  0  0  0  0  0
    6.6855    3.9260   29.8535 H   0  0  0  0  0  0  0  0  0  0  0  0
    5.1319    3.6341   30.6598 H   0  0  0  0  0  0  0  0  0  0  0  0
    5.0798    3.3102   28.6615 O   0  0  0  0  0  0  0  0  0  0  0  0
    6.6250    0.3511   23.1152 N   0  0  0  0  0  0  0  0  0  0  0  0
    7.2768   -0.5129   22.2868 N   0  0  0  0  0  0  0  0  0  0  0  0
    5.4296    0.6528   20.1617 C   0  0  0  0  0  0  0  0  0  0  0  0
    5.0097    0.6384   21.1702 H   0  0  0  0  0  0  0  0  0  0  0  0
    4.8046    1.3076   19.1054 C   0  0  0  0  0  0  0  0  0  0  0  0
    3.8748    1.8429   19.2565 H   0  0  0  0  0  0  0  0  0  0  0  0
  1  2  1  0
  2  3  2  0
  3  4  1  0
  4  5  1  0
  4  6  2  0
  6  7  1  0
  7  8  2  0
  8  9  1  0
  9 10  2  0
 10 11  1  0
 11 12  1  0
 12 13  1  0
 13 14  2  0
 14 15  1  0
 14 16  1  0
 16 17  1  0
 16 18  2  0
 18 19  1  0
 19 20  2  0
 20 21  1  0
 19 22  1  0
 22 23  1  0
 23 24  1  0
 23 25  1  0
 23 26  1  0
 26 27  1  0
 26 28  1  0
 26 29  1  0
 12 30  2  0
 30 31  1  0
  6 32  1  0
 32 33  1  0
 32 34  2  0
 34 35  1  0
 34  2  1  0
 31  7  1  0
 31 10  1  0
 20 13  1  0
 29 18  1  0
M  END
>  <cnnaffinity>  (1) 
-5.45041

>  <filename>  (1) 
c1cncc(-c2nnc3sc(-c4ccc5c(c4)OCCO5)nn23)c1

$$$$
