
     RDKit          3D

 40 42  0  0  0  0  0  0  0  0999 V2000
    6.8449    0.5768   22.7170 H   0  0  0  0  0  0  0  0  0  0  0  0
    7.3934   -0.2892   22.3608 C   0  0  0  0  0  0  0  0  0  0  0  0
    8.0522   -0.9843   23.3048 N   0  0  0  0  0  0  0  0  0  0  0  0
    8.7575   -2.0566   22.8896 C   0  0  0  0  0  0  0  0  0  0  0  0
    9.3787   -2.8999   23.9431 C   0  0  0  0  0  0  0  0  0  0  0  0
   10.2822   -3.4167   23.5901 H   0  0  0  0  0  0  0  0  0  0  0  0
    9.6603   -2.2367   24.7719 H   0  0  0  0  0  0  0  0  0  0  0  0
    8.3872   -3.9584   24.4447 C   0  0  0  0  0  0  0  0  0  0  0  0
    8.0042   -4.5357   23.5863 H   0  0  0  0  0  0  0  0  0  0  0  0
    7.5063   -3.4573   24.9083 H   0  0  0  0  0  0  0  0  0  0  0  0
    9.0789   -4.8481   25.3551 N   0  0  0  0  0  0  0  0  0  0  0  0
    9.6312   -4.1234   26.5148 C   0  0  0  0  0  0  0  0  0  0  0  0
    9.0078   -3.2431   26.7940 H   0  0  0  0  0  0  0  0  0  0  0  0
   10.6168   -3.7562   26.2113 H   0  0  0  0  0  0  0  0  0  0  0  0
    9.7928   -5.0202   27.7337 C   0  0  0  0  0  0  0  0  0  0  0  0
   10.2555   -4.4470   28.5357 H   0  0  0  0  0  0  0  0  0  0  0  0
   10.5259   -5.7849   27.4611 H   0  0  0  0  0  0  0  0  0  0  0  0
    8.4453   -5.6423   28.1684 C   0  0  0  0  0  0  0  0  0  0  0  0
    8.6429   -6.5287   28.7831 H   0  0  0  0  0  0  0  0  0  0  0  0
    7.8827   -4.9334   28.7877 H   0  0  0  0  0  0  0  0  0  0  0  0
    7.5564   -5.9918   26.9444 C   0  0  0  0  0  0  0  0  0  0  0  0
    6.9713   -6.8971   27.1275 H   0  0  0  0  0  0  0  0  0  0  0  0
    6.8310   -5.1818   26.7741 H   0  0  0  0  0  0  0  0  0  0  0  0
    8.4037   -6.1129   25.6685 C   0  0  0  0  0  0  0  0  0  0  0  0
    7.7983   -6.4056   24.8058 H   0  0  0  0  0  0  0  0  0  0  0  0
    9.1732   -6.8929   25.8018 H   0  0  0  0  0  0  0  0  0  0  0  0
    8.8104   -2.3940   21.5216 C   0  0  0  0  0  0  0  0  0  0  0  0
    9.3645   -3.2590   21.1881 H   0  0  0  0  0  0  0  0  0  0  0  0
    8.1832   -1.6918   20.5737 N   0  0  0  0  0  0  0  0  0  0  0  0
    7.4239   -0.6550   20.9856 C   0  0  0  0  0  0  0  0  0  0  0  0
    6.6642    0.0280   19.9205 C   0  0  0  0  0  0  0  0  0  0  0  0
    7.1644    0.0136   18.6005 C   0  0  0  0  0  0  0  0  0  0  0  0
    8.0738   -0.5318   18.3787 H   0  0  0  0  0  0  0  0  0  0  0  0
    6.5828    0.6397   17.5734 N   0  0  0  0  0  0  0  0  0  0  0  0
    5.4403    1.2929   17.8260 C   0  0  0  0  0  0  0  0  0  0  0  0
    4.9931    1.8209   16.9840 H   0  0  0  0  0  0  0  0  0  0  0  0
    4.8205    1.3136   19.0806 C   0  0  0  0  0  0  0  0  0  0  0  0
    3.8811    1.8376   19.2098 H   0  0  0  0  0  0  0  0  0  0  0  0
    5.4429    0.6727   20.1537 C   0  0  0  0  0  0  0  0  0  0  0  0
    4.9754    0.6593   21.1410 H   0  0  0  0  0  0  0  0  0  0  0  0
  1  2  1  0
  2  3  2  0
  3  4  1  0
  4  5  1  0
  5  6  1  0
  5  7  1  0
  5  8  1  0
  8  9  1  0
  8 10  1  0
  8 11  1  0
 11 12  1  0
 12 13  1  0
 12 14  1  0
 12 15  1  0
 15 16  1  0
 15 17  1  0
 15 18  1  0
 18 19  1  0
 18 20  1  0
 18 21  1  0
 21 22  1  0
 21 23  1  0
 21 24  1  0
 24 25  1  0
 24 26  1  0
  4 27  2  0
 27 28  1  0
 27 29  1  0
 29 30  2  0
 30 31  1  0
 31 32  2  0
 32 33  1  0
 32 34  1  0
 34 35  2  0
 35 36  1  0
 35 37  1  0
 37 38  1  0
 37 39  2  0
 39 40  1  0
 30  2  1  0
 39 31  1  0
 24 11  1  0
M  END
>  <cnnaffinity>  (1) 
-5.11596

>  <filename>  (1) 
c1cncc(-c2cnc(CCN3CCCCC3)cn2)c1

$$$$
