
     RDKit          3D

 32 35  0  0  0  0  0  0  0  0999 V2000
    4.9223    1.8069   16.9736 H   0  0  0  0  0  0  0  0  0  0  0  0
    5.3834    1.3053   17.8186 C   0  0  0  0  0  0  0  0  0  0  0  0
    6.5433    0.6801   17.5665 N   0  0  0  0  0  0  0  0  0  0  0  0
    7.1535    0.0909   18.6016 C   0  0  0  0  0  0  0  0  0  0  0  0
    8.0982   -0.3983   18.3649 H   0  0  0  0  0  0  0  0  0  0  0  0
    6.6655    0.0808   19.9315 C   0  0  0  0  0  0  0  0  0  0  0  0
    7.4158   -0.6237   21.0124 C   0  0  0  0  0  0  0  0  0  0  0  0
    8.0559   -1.8421   21.0629 C   0  0  0  0  0  0  0  0  0  0  0  0
    8.1823   -2.5761   20.3137 H   0  0  0  0  0  0  0  0  0  0  0  0
    8.5153   -2.0977   22.3074 N   0  0  0  0  0  0  0  0  0  0  0  0
    8.2071   -1.1000   23.0662 N   0  0  0  0  0  0  0  0  0  0  0  0
    7.5332   -0.2067   22.3154 N   0  0  0  0  0  0  0  0  0  0  0  0
    7.1416    1.0027   22.9016 C   0  0  0  0  0  0  0  0  0  0  0  0
    7.5704    2.1893   22.3542 C   0  0  0  0  0  0  0  0  0  0  0  0
    8.1938    2.1612   21.4620 H   0  0  0  0  0  0  0  0  0  0  0  0
    7.2618    3.4037   22.8685 N   0  0  0  0  0  0  0  0  0  0  0  0
    6.5014    3.4348   23.9455 C   0  0  0  0  0  0  0  0  0  0  0  0
    6.2578    4.4195   24.3449 H   0  0  0  0  0  0  0  0  0  0  0  0
    5.9838    2.2659   24.6037 C   0  0  0  0  0  0  0  0  0  0  0  0
    5.1484    2.3179   25.7633 C   0  0  0  0  0  0  0  0  0  0  0  0
    4.9077    3.2831   26.1960 H   0  0  0  0  0  0  0  0  0  0  0  0
    4.6481    1.1680   26.3277 C   0  0  0  0  0  0  0  0  0  0  0  0
    4.0158    1.2175   27.2117 H   0  0  0  0  0  0  0  0  0  0  0  0
    4.9548   -0.1043   25.7781 C   0  0  0  0  0  0  0  0  0  0  0  0
    4.5403   -1.0077   26.2226 H   0  0  0  0  0  0  0  0  0  0  0  0
    5.7834   -0.1951   24.6827 C   0  0  0  0  0  0  0  0  0  0  0  0
    6.0387   -1.1648   24.2646 H   0  0  0  0  0  0  0  0  0  0  0  0
    6.3152    0.9888   24.0654 C   0  0  0  0  0  0  0  0  0  0  0  0
    5.4227    0.7155   20.1488 C   0  0  0  0  0  0  0  0  0  0  0  0
    4.9787    0.7195   21.1466 H   0  0  0  0  0  0  0  0  0  0  0  0
    4.7754    1.3358   19.0765 C   0  0  0  0  0  0  0  0  0  0  0  0
    3.8269    1.8535   19.1982 H   0  0  0  0  0  0  0  0  0  0  0  0
  1  2  1  0
  2  3  2  0
  3  4  1  0
  4  5  1  0
  4  6  2  0
  6  7  1  0
  7  8  2  0
  8  9  1  0
  8 10  1  0
 10 11  2  0
 11 12  1  0
 12 13  1  0
 13 14  2  0
 14 15  1  0
 14 16  1  0
 16 17  2  0
 17 18  1  0
 17 19  1  0
 19 20  2  0
 20 21  1  0
 20 22  1  0
 22 23  1  0
 22 24  2  0
 24 25  1  0
 24 26  1  0
 26 27  1  0
 26 28  2  0
  6 29  1  0
 29 30  1  0
 29 31  2  0
 31 32  1  0
 31  2  1  0
 12  7  1  0
 28 13  1  0
 28 19  1  0
M  END
>  <cnnaffinity>  (1) 
-4.76749

>  <filename>  (1) 
c1cncc(-c2cnnn2-c2cncc3ccccc23)c1

$$$$
