
     RDKit          3D

 40 44  0  0  0  0  0  0  0  0999 V2000
    4.9082    1.8469   16.9392 H   0  0  0  0  0  0  0  0  0  0  0  0
    5.4022    1.3320   17.7607 C   0  0  0  0  0  0  0  0  0  0  0  0
    6.5586    0.7169   17.4708 N   0  0  0  0  0  0  0  0  0  0  0  0
    7.1884    0.1020   18.4801 C   0  0  0  0  0  0  0  0  0  0  0  0
    8.1188   -0.4041   18.2202 H   0  0  0  0  0  0  0  0  0  0  0  0
    6.7278    0.0659   19.8097 C   0  0  0  0  0  0  0  0  0  0  0  0
    7.5020   -0.6252   20.9109 C   0  0  1  0  0  0  0  0  0  0  0  0
    8.4367   -1.0043   20.4862 H   0  0  0  0  0  0  0  0  0  0  0  0
    7.8916    0.3288   22.0995 C   0  0  0  0  0  0  0  0  0  0  0  0
    8.9711    0.5150   22.1249 H   0  0  0  0  0  0  0  0  0  0  0  0
    7.3975    1.3072   22.0325 H   0  0  0  0  0  0  0  0  0  0  0  0
    7.4254   -0.4296   23.3034 C   0  0  0  0  0  0  0  0  0  0  0  0
    7.3978   -0.1742   24.6006 N   0  0  0  0  0  0  0  0  0  0  0  0
    6.7632   -1.2458   25.1229 N   0  0  0  0  0  0  0  0  0  0  0  0
    6.5976   -1.3010   26.1233 H   0  0  0  0  0  0  0  0  0  0  0  0
    6.3965   -2.1693   24.1849 C   0  0  0  0  0  0  0  0  0  0  0  0
    5.7328   -3.4564   24.4683 C   0  0  0  0  0  0  0  0  0  0  0  0
    5.9521   -4.0170   25.6405 N   0  0  0  0  0  0  0  0  0  0  0  0
    5.4287   -5.2542   25.8517 C   0  0  0  0  0  0  0  0  0  0  0  0
    5.7150   -5.8610   27.1084 C   0  0  0  0  0  0  0  0  0  0  0  0
    6.4371   -5.3596   27.7487 H   0  0  0  0  0  0  0  0  0  0  0  0
    5.0487   -7.0038   27.4718 C   0  0  0  0  0  0  0  0  0  0  0  0
    5.1926   -7.4426   28.4556 H   0  0  0  0  0  0  0  0  0  0  0  0
    4.1216   -7.6120   26.5782 C   0  0  0  0  0  0  0  0  0  0  0  0
    3.5181   -8.4359   26.9274 H   0  0  0  0  0  0  0  0  0  0  0  0
    3.9543   -7.1452   25.2949 C   0  0  0  0  0  0  0  0  0  0  0  0
    3.3128   -7.6615   24.5821 H   0  0  0  0  0  0  0  0  0  0  0  0
    4.6042   -5.9431   24.8942 C   0  0  0  0  0  0  0  0  0  0  0  0
    4.4169   -5.3158   23.6266 C   0  0  0  0  0  0  0  0  0  0  0  0
    3.8705   -5.8148   22.8240 H   0  0  0  0  0  0  0  0  0  0  0  0
    4.9496   -4.0652   23.4366 C   0  0  0  0  0  0  0  0  0  0  0  0
    4.7827   -3.4964   22.5308 H   0  0  0  0  0  0  0  0  0  0  0  0
    6.8272   -1.6400   22.9830 C   0  0  0  0  0  0  0  0  0  0  0  0
    6.7287   -1.8526   21.5082 C   0  0  0  0  0  0  0  0  0  0  0  0
    7.1733   -2.7990   21.1734 H   0  0  0  0  0  0  0  0  0  0  0  0
    5.6765   -1.8647   21.1800 H   0  0  0  0  0  0  0  0  0  0  0  0
    5.4982    0.6864   20.0757 C   0  0  0  0  0  0  0  0  0  0  0  0
    5.0736    0.6704   21.0831 H   0  0  0  0  0  0  0  0  0  0  0  0
    4.8269    1.3298   19.0357 C   0  0  0  0  0  0  0  0  0  0  0  0
    3.8836    1.8361   19.2058 H   0  0  0  0  0  0  0  0  0  0  0  0
  1  2  1  0
  2  3  2  0
  3  4  1  0
  4  5  1  0
  4  6  2  0
  6  7  1  0
  7  8  1  6
  7  9  1  0
  9 10  1  0
  9 11  1  0
  9 12  1  0
 12 13  2  0
 13 14  1  0
 14 15  1  0
 14 16  1  0
 16 17  1  0
 17 18  2  0
 18 19  1  0
 19 20  2  0
 20 21  1  0
 20 22  1  0
 22 23  1  0
 22 24  2  0
 24 25  1  0
 24 26  1  0
 26 27  1  0
 26 28  2  0
 28 29  1  0
 29 30  1  0
 29 31  2  0
 31 32  1  0
 16 33  2  0
 33 34  1  0
 34 35  1  0
 34 36  1  0
  6 37  1  0
 37 38  1  0
 37 39  2  0
 39 40  1  0
 39  2  1  0
 34  7  1  0
 33 12  1  0
 31 17  1  0
 28 19  1  0
M  END
>  <cnnaffinity>  (1) 
-5.65058

>  <filename>  (1) 
c1cncc([C@H]2Cc3n[nH]c(-c4ccc5ccccc5n4)c3C2)c1

$$$$
