
     RDKit          3D

 31 34  0  0  0  0  0  0  0  0999 V2000
    5.0287    1.7488   16.9133 H   0  0  0  0  0  0  0  0  0  0  0  0
    5.4896    1.2593   17.7682 C   0  0  0  0  0  0  0  0  0  0  0  0
    6.6552    0.6310   17.5379 N   0  0  0  0  0  0  0  0  0  0  0  0
    7.2615    0.0421   18.5703 C   0  0  0  0  0  0  0  0  0  0  0  0
    8.2008   -0.4686   18.3724 H   0  0  0  0  0  0  0  0  0  0  0  0
    6.7443    0.0658   19.8789 C   0  0  0  0  0  0  0  0  0  0  0  0
    7.4787   -0.5510   20.9377 N   0  0  0  0  0  0  0  0  0  0  0  0
    8.0254   -1.7761   20.7742 N   0  0  0  0  0  0  0  0  0  0  0  0
    8.6359   -2.0601   21.8580 N   0  0  0  0  0  0  0  0  0  0  0  0
    8.5354   -1.0603   22.7619 N   0  0  0  0  0  0  0  0  0  0  0  0
    7.8055   -0.1311   22.1867 C   0  0  0  0  0  0  0  0  0  0  0  0
    7.4151    1.4240   22.9165 S   0  0  0  0  0  0  0  0  0  0  0  0
    6.2744    0.9393   24.2055 C   0  0  0  0  0  0  0  0  0  0  0  0
    4.9478    1.2202   24.1432 C   0  0  0  0  0  0  0  0  0  0  0  0
    4.4428    1.7801   23.3701 H   0  0  0  0  0  0  0  0  0  0  0  0
    4.2844    0.6733   25.2135 N   0  0  0  0  0  0  0  0  0  0  0  0
    3.2923    0.5096   25.2533 H   0  0  0  0  0  0  0  0  0  0  0  0
    5.1911    0.0027   26.0033 C   0  0  0  0  0  0  0  0  0  0  0  0
    4.9883   -0.6881   27.2089 C   0  0  0  0  0  0  0  0  0  0  0  0
    3.9952   -0.7706   27.6424 H   0  0  0  0  0  0  0  0  0  0  0  0
    6.1110   -1.2260   27.8326 C   0  0  0  0  0  0  0  0  0  0  0  0
    5.9791   -1.7421   28.7792 H   0  0  0  0  0  0  0  0  0  0  0  0
    7.4099   -1.0546   27.2901 C   0  0  0  0  0  0  0  0  0  0  0  0
    8.2728   -1.4396   27.8317 H   0  0  0  0  0  0  0  0  0  0  0  0
    7.6014   -0.3685   26.0960 C   0  0  0  0  0  0  0  0  0  0  0  0
    8.6038   -0.2271   25.6907 H   0  0  0  0  0  0  0  0  0  0  0  0
    6.4786    0.1652   25.4207 C   0  0  0  0  0  0  0  0  0  0  0  0
    5.5187    0.6852   20.1095 C   0  0  0  0  0  0  0  0  0  0  0  0
    5.0729    0.6908   21.1032 H   0  0  0  0  0  0  0  0  0  0  0  0
    4.8787    1.2943   19.0260 C   0  0  0  0  0  0  0  0  0  0  0  0
    3.9292    1.7980   19.1571 H   0  0  0  0  0  0  0  0  0  0  0  0
  1  2  1  0
  2  3  2  0
  3  4  1  0
  4  5  1  0
  4  6  2  0
  6  7  1  0
  7  8  1  0
  8  9  2  0
  9 10  1  0
 10 11  2  0
 11 12  1  0
 12 13  1  0
 13 14  2  0
 14 15  1  0
 14 16  1  0
 16 17  1  0
 16 18  1  0
 18 19  2  0
 19 20  1  0
 19 21  1  0
 21 22  1  0
 21 23  2  0
 23 24  1  0
 23 25  1  0
 25 26  1  0
 25 27  2  0
  6 28  1  0
 28 29  1  0
 28 30  2  0
 30 31  1  0
 30  2  1  0
 11  7  1  0
 27 13  1  0
 27 18  1  0
M  END
>  <cnnaffinity>  (1) 
-5.02255

>  <filename>  (1) 
c1cncc(-n2nnnc2Sc2c[nH]c3ccccc23)c1

$$$$
