
     RDKit          3D

 35 37  0  0  0  0  0  0  0  0999 V2000
    4.8061    1.3103   19.1141 C   0  0  0  0  0  0  0  0  0  0  0  0
    5.4036    1.2885   17.8487 C   0  0  0  0  0  0  0  0  0  0  0  0
    6.5713    0.6778   17.5932 N   0  0  0  0  0  0  0  0  0  0  0  0
    7.1839    0.0574   18.6051 C   0  0  0  0  0  0  0  0  0  0  0  0
    6.6593    0.0093   19.9039 C   0  0  0  0  0  0  0  0  0  0  0  0
    7.3948   -0.7040   20.9443 C   0  0  0  0  0  0  0  0  0  0  0  0
    8.5248   -1.3292   20.7417 N   0  0  0  0  0  0  0  0  0  0  0  0
    8.8280   -1.8455   21.9835 O   0  0  0  0  0  0  0  0  0  0  0  0
    7.8552   -1.4759   22.8210 C   0  0  0  0  0  0  0  0  0  0  0  0
    7.8891   -1.9193   24.2478 C   0  0  0  0  0  0  0  0  0  0  0  0
    7.1858   -3.2754   24.4920 C   0  0  0  0  0  0  0  0  0  0  0  0
    5.6870   -3.2408   24.1203 C   0  0  0  0  0  0  0  0  0  0  0  0
    5.0057   -4.5804   24.4194 C   0  0  0  0  0  0  0  0  0  0  0  0
    5.7237   -5.7402   23.7177 C   0  0  0  0  0  0  0  0  0  0  0  0
    7.2161   -5.7771   24.0724 C   0  0  0  0  0  0  0  0  0  0  0  0
    7.8977   -4.4392   23.7736 C   0  0  0  0  0  0  0  0  0  0  0  0
    7.8879   -4.2722   22.6863 H   0  0  0  0  0  0  0  0  0  0  0  0
    8.9516   -4.4790   24.0826 H   0  0  0  0  0  0  0  0  0  0  0  0
    7.3271   -6.0083   25.1446 H   0  0  0  0  0  0  0  0  0  0  0  0
    7.7152   -6.5762   23.5112 H   0  0  0  0  0  0  0  0  0  0  0  0
    5.2499   -6.6908   23.9900 H   0  0  0  0  0  0  0  0  0  0  0  0
    5.6165   -5.6223   22.6270 H   0  0  0  0  0  0  0  0  0  0  0  0
    3.9564   -4.5412   24.1036 H   0  0  0  0  0  0  0  0  0  0  0  0
    5.0146   -4.7528   25.5075 H   0  0  0  0  0  0  0  0  0  0  0  0
    5.1847   -2.4336   24.6724 H   0  0  0  0  0  0  0  0  0  0  0  0
    5.5726   -3.0131   23.0484 H   0  0  0  0  0  0  0  0  0  0  0  0
    7.2486   -3.4692   25.5769 H   0  0  0  0  0  0  0  0  0  0  0  0
    8.9252   -1.9722   24.5964 H   0  0  0  0  0  0  0  0  0  0  0  0
    7.3867   -1.1407   24.8315 H   0  0  0  0  0  0  0  0  0  0  0  0
    6.9347   -0.7732   22.2387 N   0  0  0  0  0  0  0  0  0  0  0  0
    5.4406    0.6522   20.1621 C   0  0  0  0  0  0  0  0  0  0  0  0
    5.0077    0.6289   21.1610 H   0  0  0  0  0  0  0  0  0  0  0  0
    8.1305   -0.4354   18.3795 H   0  0  0  0  0  0  0  0  0  0  0  0
    4.9086    1.7701   17.0077 H   0  0  0  0  0  0  0  0  0  0  0  0
    3.8726    1.8449   19.2675 H   0  0  0  0  0  0  0  0  0  0  0  0
  1  2  2  0
  2  3  1  0
  3  4  2  0
  4  5  1  0
  5  6  1  0
  6  7  2  0
  7  8  1  0
  8  9  1  0
  9 10  1  0
 10 11  1  0
 11 12  1  0
 12 13  1  0
 13 14  1  0
 14 15  1  0
 15 16  1  0
 16 17  1  0
 16 18  1  0
 15 19  1  0
 15 20  1  0
 14 21  1  0
 14 22  1  0
 13 23  1  0
 13 24  1  0
 12 25  1  0
 12 26  1  0
 11 27  1  0
 10 28  1  0
 10 29  1  0
  9 30  2  0
  5 31  2  0
 31 32  1  0
  4 33  1  0
  2 34  1  0
  1 35  1  0
 31  1  1  0
 30  6  1  0
 16 11  1  0
M  END
>  <cnnaffinity>  (1) 
-5.40804

>  <filename>  (1) 
c1cncc(-c2noc(CC3CCCCC3)n2)c1

$$$$
