
     RDKit          3D

 27 29  0  0  0  0  0  0  0  0999 V2000
    4.9124    1.7850   16.9953 H   0  0  0  0  0  0  0  0  0  0  0  0
    5.3959    1.2974   17.8378 C   0  0  0  0  0  0  0  0  0  0  0  0
    6.5605    0.6829   17.5725 N   0  0  0  0  0  0  0  0  0  0  0  0
    7.1722    0.0606   18.5891 C   0  0  0  0  0  0  0  0  0  0  0  0
    8.1196   -0.4291   18.3727 H   0  0  0  0  0  0  0  0  0  0  0  0
    6.6642   -0.0112   19.9106 C   0  0  0  0  0  0  0  0  0  0  0  0
    7.3192   -0.7260   20.9214 N   0  0  0  0  0  0  0  0  0  0  0  0
    6.7660   -1.0319   21.7136 H   0  0  0  0  0  0  0  0  0  0  0  0
    8.7090   -0.7749   21.0945 C   0  0  0  0  0  0  0  0  0  0  0  0
    9.7000    0.1423   20.6754 C   0  0  0  0  0  0  0  0  0  0  0  0
    9.5338    1.0326   20.0934 H   0  0  0  0  0  0  0  0  0  0  0  0
   10.9125   -0.1947   21.0948 N   0  0  0  0  0  0  0  0  0  0  0  0
   10.7132   -1.3303   21.7749 N   0  0  0  0  0  0  0  0  0  0  0  0
   11.5045   -1.7966   22.1896 H   0  0  0  0  0  0  0  0  0  0  0  0
    9.4136   -1.7415   21.7982 C   0  0  0  0  0  0  0  0  0  0  0  0
    8.9475   -2.9431   22.4606 C   0  0  0  0  0  0  0  0  0  0  0  0
    7.8298   -3.6330   22.0828 C   0  0  0  0  0  0  0  0  0  0  0  0
    7.1951   -3.4012   21.2388 H   0  0  0  0  0  0  0  0  0  0  0  0
    7.5547   -5.0010   23.0718 S   0  0  0  0  0  0  0  0  0  0  0  0
    8.9454   -4.6493   24.0214 C   0  0  0  0  0  0  0  0  0  0  0  0
    9.2216   -5.2806   24.8511 H   0  0  0  0  0  0  0  0  0  0  0  0
    9.5934   -3.5387   23.5936 C   0  0  0  0  0  0  0  0  0  0  0  0
   10.4857   -3.1224   24.0557 H   0  0  0  0  0  0  0  0  0  0  0  0
    5.4436    0.6349   20.1627 C   0  0  0  0  0  0  0  0  0  0  0  0
    5.0199    0.6214   21.1689 H   0  0  0  0  0  0  0  0  0  0  0  0
    4.8118    1.3065   19.1100 C   0  0  0  0  0  0  0  0  0  0  0  0
    3.8810    1.8384   19.2638 H   0  0  0  0  0  0  0  0  0  0  0  0
  1  2  1  0
  2  3  2  0
  3  4  1  0
  4  5  1  0
  4  6  2  0
  6  7  1  0
  7  8  1  0
  7  9  1  0
  9 10  1  0
 10 11  1  0
 10 12  2  0
 12 13  1  0
 13 14  1  0
 13 15  1  0
 15 16  1  0
 16 17  2  0
 17 18  1  0
 17 19  1  0
 19 20  1  0
 20 21  1  0
 20 22  2  0
 22 23  1  0
  6 24  1  0
 24 25  1  0
 24 26  2  0
 26 27  1  0
 26  2  1  0
 15  9  2  0
 22 16  1  0
M  END
>  <cnnaffinity>  (1) 
-5.54928

>  <filename>  (1) 
c1cncc(Nc2cn[nH]c2-c2ccsc2)c1

$$$$
