
     RDKit          3D

 41 44  0  0  0  0  0  0  0  0999 V2000
    5.0367    1.7737   16.9249 H   0  0  0  0  0  0  0  0  0  0  0  0
    5.4607    1.2755   17.7949 C   0  0  0  0  0  0  0  0  0  0  0  0
    6.5937    0.5848   17.5922 N   0  0  0  0  0  0  0  0  0  0  0  0
    7.1333   -0.0505   18.6360 C   0  0  0  0  0  0  0  0  0  0  0  0
    8.0428   -0.6155   18.4313 H   0  0  0  0  0  0  0  0  0  0  0  0
    6.5995    0.0003   19.9334 C   0  0  0  0  0  0  0  0  0  0  0  0
    7.2858   -0.6760   21.0276 C   0  0  0  0  0  0  0  0  0  0  0  0
    7.7643   -1.9605   20.9037 N   0  0  0  0  0  0  0  0  0  0  0  0
    8.3193   -2.1953   22.0571 C   0  0  0  0  0  0  0  0  0  0  0  0
    8.2671   -1.1474   22.9174 N   0  0  0  0  0  0  0  0  0  0  0  0
    7.5878   -0.1447   22.2755 C   0  0  0  0  0  0  0  0  0  0  0  0
    7.5122    1.2530   22.7921 C   0  0  0  0  0  0  0  0  0  0  0  0
    7.6684    1.2659   23.8786 H   0  0  0  0  0  0  0  0  0  0  0  0
    6.5029    1.6404   22.6228 H   0  0  0  0  0  0  0  0  0  0  0  0
    8.5271    2.1734   22.0861 C   0  0  0  0  0  0  0  0  0  0  0  0
    8.2582    3.2329   22.2551 H   0  0  0  0  0  0  0  0  0  0  0  0
    8.4049    1.9919   21.0072 H   0  0  0  0  0  0  0  0  0  0  0  0
    9.9034    1.8853   22.4922 N   0  0  0  0  0  0  0  0  0  0  0  0
   10.3924    2.5627   23.6904 C   0  0  0  0  0  0  0  0  0  0  0  0
   10.0226    2.0699   24.6029 H   0  0  0  0  0  0  0  0  0  0  0  0
   10.0426    3.6118   23.7502 H   0  0  0  0  0  0  0  0  0  0  0  0
   11.9273    2.4914   23.5964 C   0  0  0  0  0  0  0  0  0  0  0  0
   12.3105    1.6328   24.1657 H   0  0  0  0  0  0  0  0  0  0  0  0
   12.3928    3.3874   24.0157 H   0  0  0  0  0  0  0  0  0  0  0  0
   12.2379    2.3574   22.0939 C   0  0  0  0  0  0  0  0  0  0  0  0
   12.5802    3.3053   21.6608 H   0  0  0  0  0  0  0  0  0  0  0  0
   13.0367    1.6315   21.9136 H   0  0  0  0  0  0  0  0  0  0  0  0
   10.9213    1.9037   21.4394 C   0  0  0  0  0  0  0  0  0  0  0  0
   11.0270    0.9028   21.0053 H   0  0  0  0  0  0  0  0  0  0  0  0
   10.6396    2.5715   20.6146 H   0  0  0  0  0  0  0  0  0  0  0  0
    9.1831   -1.1324   24.0373 C   0  0  0  0  0  0  0  0  0  0  0  0
    8.6804   -0.7572   24.9313 H   0  0  0  0  0  0  0  0  0  0  0  0
   10.0072   -0.4425   23.8187 H   0  0  0  0  0  0  0  0  0  0  0  0
    9.6741   -2.5877   24.2150 C   0  0  0  0  0  0  0  0  0  0  0  0
    9.2523   -3.0549   25.1046 H   0  0  0  0  0  0  0  0  0  0  0  0
   10.7600   -2.6291   24.3012 H   0  0  0  0  0  0  0  0  0  0  0  0
    9.1587   -3.5670   22.7471 S   0  0  0  0  0  0  0  0  0  0  0  0
    5.4061    0.7129   20.1243 C   0  0  0  0  0  0  0  0  0  0  0  0
    4.9378    0.7377   21.1082 H   0  0  0  0  0  0  0  0  0  0  0  0
    4.8207    1.3527   19.0358 C   0  0  0  0  0  0  0  0  0  0  0  0
    3.8943    1.9055   19.1379 H   0  0  0  0  0  0  0  0  0  0  0  0
  1  2  1  0
  2  3  2  0
  3  4  1  0
  4  5  1  0
  4  6  2  0
  6  7  1  0
  7  8  1  0
  8  9  2  0
  9 10  1  0
 10 11  1  0
 11 12  1  0
 12 13  1  0
 12 14  1  0
 12 15  1  0
 15 16  1  0
 15 17  1  0
 15 18  1  0
 18 19  1  0
 19 20  1  0
 19 21  1  0
 19 22  1  0
 22 23  1  0
 22 24  1  0
 22 25  1  0
 25 26  1  0
 25 27  1  0
 25 28  1  0
 28 29  1  0
 28 30  1  0
 10 31  1  0
 31 32  1  0
 31 33  1  0
 31 34  1  0
 34 35  1  0
 34 36  1  0
 34 37  1  0
  6 38  1  0
 38 39  1  0
 38 40  2  0
 40 41  1  0
 40  2  1  0
 11  7  2  0
 28 18  1  0
 37  9  1  0
M  END
>  <cnnaffinity>  (1) 
-5.65017

>  <filename>  (1) 
c1cncc(-c2nc3n(c2CCN2CCCC2)CCS3)c1

$$$$
