
     RDKit          3D

 37 41  0  0  0  0  0  0  0  0999 V2000
    4.8790    1.7265   17.1825 H   0  0  0  0  0  0  0  0  0  0  0  0
    5.4012    1.3143   18.0433 C   0  0  0  0  0  0  0  0  0  0  0  0
    6.6331    0.8325   17.8218 N   0  0  0  0  0  0  0  0  0  0  0  0
    7.2980    0.3331   18.8702 C   0  0  0  0  0  0  0  0  0  0  0  0
    8.3043   -0.0149   18.6413 H   0  0  0  0  0  0  0  0  0  0  0  0
    6.7953    0.2448   20.1918 C   0  0  0  0  0  0  0  0  0  0  0  0
    7.6165   -0.3854   21.3050 C   0  0  0  0  0  0  0  0  0  0  0  0
    6.9876   -0.5050   22.6682 C   0  0  0  0  0  0  0  0  0  0  0  0
    6.7579    0.5224   23.4357 N   0  0  0  0  0  0  0  0  0  0  0  0
    6.1391    0.1884   24.5999 N   0  0  0  0  0  0  0  0  0  0  0  0
    5.8829   -1.0925   24.6997 C   0  0  0  0  0  0  0  0  0  0  0  0
    5.0297   -1.6637   25.7240 C   0  0  0  0  0  0  0  0  0  0  0  0
    4.2463   -2.7897   25.6427 C   0  0  0  0  0  0  0  0  0  0  0  0
    4.2082   -3.5627   24.8780 H   0  0  0  0  0  0  0  0  0  0  0  0
    3.4316   -2.8375   26.7421 N   0  0  0  0  0  0  0  0  0  0  0  0
    2.6140   -3.4179   26.8061 H   0  0  0  0  0  0  0  0  0  0  0  0
    3.6632   -1.7495   27.5570 C   0  0  0  0  0  0  0  0  0  0  0  0
    3.0553   -1.3469   28.7592 C   0  0  0  0  0  0  0  0  0  0  0  0
    2.2618   -1.9406   29.2027 H   0  0  0  0  0  0  0  0  0  0  0  0
    3.5260   -0.1828   29.3578 C   0  0  0  0  0  0  0  0  0  0  0  0
    3.0767    0.1539   30.2891 H   0  0  0  0  0  0  0  0  0  0  0  0
    4.5758    0.5744   28.7803 C   0  0  0  0  0  0  0  0  0  0  0  0
    4.9266    1.4716   29.2791 H   0  0  0  0  0  0  0  0  0  0  0  0
    5.1641    0.1757   27.5848 C   0  0  0  0  0  0  0  0  0  0  0  0
    5.9555    0.7326   27.0913 H   0  0  0  0  0  0  0  0  0  0  0  0
    4.6924   -0.9982   26.9614 C   0  0  0  0  0  0  0  0  0  0  0  0
    6.5198   -2.0249   23.3705 S   0  0  0  0  0  0  0  0  0  0  0  0
    9.1223   -0.1257   21.3688 C   0  0  0  0  0  0  0  0  0  0  0  0
    9.5579   -0.0640   22.3610 H   0  0  0  0  0  0  0  0  0  0  0  0
    9.5382    0.5688   20.6415 H   0  0  0  0  0  0  0  0  0  0  0  0
    8.6341   -1.4546   20.9222 C   0  0  0  0  0  0  0  0  0  0  0  0
    8.7580   -2.3109   21.5842 H   0  0  0  0  0  0  0  0  0  0  0  0
    8.7085   -1.6790   19.8671 H   0  0  0  0  0  0  0  0  0  0  0  0
    5.5045    0.7712   20.3880 C   0  0  0  0  0  0  0  0  0  0  0  0
    5.0613    0.7952   21.3848 H   0  0  0  0  0  0  0  0  0  0  0  0
    4.8030    1.3069   19.3052 C   0  0  0  0  0  0  0  0  0  0  0  0
    3.8170    1.7427   19.4249 H   0  0  0  0  0  0  0  0  0  0  0  0
  1  2  1  0
  2  3  2  0
  3  4  1  0
  4  5  1  0
  4  6  2  0
  6  7  1  0
  7  8  1  0
  8  9  2  0
  9 10  1  0
 10 11  2  0
 11 12  1  0
 12 13  2  0
 13 14  1  0
 13 15  1  0
 15 16  1  0
 15 17  1  0
 17 18  2  0
 18 19  1  0
 18 20  1  0
 20 21  1  0
 20 22  2  0
 22 23  1  0
 22 24  1  0
 24 25  1  0
 24 26  2  0
 11 27  1  0
  7 28  1  0
 28 29  1  0
 28 30  1  0
 28 31  1  0
 31 32  1  0
 31 33  1  0
  6 34  1  0
 34 35  1  0
 34 36  2  0
 36 37  1  0
 36  2  1  0
 31  7  1  0
 27  8  1  0
 26 12  1  0
 26 17  1  0
M  END
>  <cnnaffinity>  (1) 
-4.98657

>  <filename>  (1) 
c1cncc(C2(c3nnc(-c4c[nH]c5ccccc45)s3)CC2)c1

$$$$
