
     RDKit          3D

 41 45  0  0  0  0  0  0  0  0999 V2000
    4.9559    1.8492   16.9176 H   0  0  0  0  0  0  0  0  0  0  0  0
    5.3898    1.3021   17.7534 C   0  0  0  0  0  0  0  0  0  0  0  0
    6.5297    0.6419   17.4997 N   0  0  0  0  0  0  0  0  0  0  0  0
    7.1198    0.0151   18.5209 C   0  0  0  0  0  0  0  0  0  0  0  0
    8.0293   -0.5308   18.2818 H   0  0  0  0  0  0  0  0  0  0  0  0
    6.6317    0.0296   19.8417 C   0  0  0  0  0  0  0  0  0  0  0  0
    7.4067   -0.5953   20.9203 C   0  0  0  0  0  0  0  0  0  0  0  0
    8.1709   -1.6696   20.7139 N   0  0  0  0  0  0  0  0  0  0  0  0
    8.6712   -1.9297   21.9221 N   0  0  0  0  0  0  0  0  0  0  0  0
    8.2961   -1.1059   22.8939 C   0  0  0  0  0  0  0  0  0  0  0  0
    7.4414   -0.1925   22.2998 C   0  0  0  0  0  0  0  0  0  0  0  0
    6.9770    1.0294   22.9415 C   0  0  0  0  0  0  0  0  0  0  0  0
    7.3538    2.2393   22.3786 C   0  0  0  0  0  0  0  0  0  0  0  0
    7.9118    2.2273   21.4470 H   0  0  0  0  0  0  0  0  0  0  0  0
    7.0574    3.4606   23.0139 C   0  0  0  0  0  0  0  0  0  0  0  0
    7.4230    4.3808   22.5660 H   0  0  0  0  0  0  0  0  0  0  0  0
    6.3529    3.4747   24.1932 C   0  0  0  0  0  0  0  0  0  0  0  0
    6.1364    4.4181   24.6893 H   0  0  0  0  0  0  0  0  0  0  0  0
    5.9107    2.2587   24.7962 C   0  0  0  0  0  0  0  0  0  0  0  0
    5.1698    2.2612   26.0212 C   0  0  0  0  0  0  0  0  0  0  0  0
    4.9509    3.2193   26.4912 H   0  0  0  0  0  0  0  0  0  0  0  0
    4.7472    1.0843   26.5901 C   0  0  0  0  0  0  0  0  0  0  0  0
    4.1744    1.0965   27.5138 H   0  0  0  0  0  0  0  0  0  0  0  0
    5.0524   -0.1615   25.9804 C   0  0  0  0  0  0  0  0  0  0  0  0
    4.7114   -1.0866   26.4386 H   0  0  0  0  0  0  0  0  0  0  0  0
    5.7822   -0.2046   24.8127 C   0  0  0  0  0  0  0  0  0  0  0  0
    6.0233   -1.1637   24.3515 H   0  0  0  0  0  0  0  0  0  0  0  0
    6.2333    1.0042   24.1726 C   0  0  0  0  0  0  0  0  0  0  0  0
    9.0672   -1.3759   24.1577 C   0  0  0  0  0  0  0  0  0  0  0  0
    9.6106   -0.4885   24.4997 H   0  0  0  0  0  0  0  0  0  0  0  0
    8.3950   -1.6768   24.9657 H   0  0  0  0  0  0  0  0  0  0  0  0
   10.0429   -2.5057   23.7265 C   0  0  0  0  0  0  0  0  0  0  0  0
   11.0415   -2.0936   23.6205 H   0  0  0  0  0  0  0  0  0  0  0  0
   10.0785   -3.3192   24.4539 H   0  0  0  0  0  0  0  0  0  0  0  0
    9.5994   -2.9608   22.3052 C   0  0  0  0  0  0  0  0  0  0  0  0
    9.0936   -3.9308   22.2671 H   0  0  0  0  0  0  0  0  0  0  0  0
   10.4318   -2.9311   21.6043 H   0  0  0  0  0  0  0  0  0  0  0  0
    5.3981    0.6647   20.0742 C   0  0  0  0  0  0  0  0  0  0  0  0
    4.9312    0.6547   21.0631 H   0  0  0  0  0  0  0  0  0  0  0  0
    4.7765    1.3126   19.0099 C   0  0  0  0  0  0  0  0  0  0  0  0
    3.8422    1.8443   19.1369 H   0  0  0  0  0  0  0  0  0  0  0  0
  1  2  1  0
  2  3  2  0
  3  4  1  0
  4  5  1  0
  4  6  2  0
  6  7  1  0
  7  8  2  0
  8  9  1  0
  9 10  1  0
 10 11  2  0
 11 12  1  0
 12 13  2  0
 13 14  1  0
 13 15  1  0
 15 16  1  0
 15 17  2  0
 17 18  1  0
 17 19  1  0
 19 20  2  0
 20 21  1  0
 20 22  1  0
 22 23  1  0
 22 24  2  0
 24 25  1  0
 24 26  1  0
 26 27  1  0
 26 28  2  0
 10 29  1  0
 29 30  1  0
 29 31  1  0
 29 32  1  0
 32 33  1  0
 32 34  1  0
 32 35  1  0
 35 36  1  0
 35 37  1  0
  6 38  1  0
 38 39  1  0
 38 40  2  0
 40 41  1  0
 40  2  1  0
 11  7  1  0
 28 12  1  0
 35  9  1  0
 28 19  1  0
M  END
>  <cnnaffinity>  (1) 
-5.61974

>  <filename>  (1) 
c1cncc(-c2nn3c(c2-c2cccc4ccccc24)CCC3)c1

$$$$
