
     RDKit          3D

 35 37  0  0  0  0  0  0  0  0999 V2000
    8.1585   -3.8241   21.6171 H   0  0  0  0  0  0  0  0  0  0  0  0
    8.0786   -2.7501   21.7510 C   0  0  0  0  0  0  0  0  0  0  0  0
    8.5834   -2.2496   22.8740 N   0  0  0  0  0  0  0  0  0  0  0  0
    8.4857   -0.9223   23.0139 C   0  0  0  0  0  0  0  0  0  0  0  0
    8.9073   -0.5158   23.9351 H   0  0  0  0  0  0  0  0  0  0  0  0
    7.9000   -0.0804   22.0760 C   0  0  0  0  0  0  0  0  0  0  0  0
    7.8793    1.4311   22.2872 C   0  0  0  0  0  0  0  0  0  0  0  0
    7.4335    1.9122   21.4042 H   0  0  0  0  0  0  0  0  0  0  0  0
    9.3027    2.0169   22.4041 C   0  0  0  0  0  0  0  0  0  0  0  0
    9.8781    1.7614   21.5066 H   0  0  0  0  0  0  0  0  0  0  0  0
    9.8228    1.5536   23.2523 H   0  0  0  0  0  0  0  0  0  0  0  0
    9.2680    3.5350   22.6032 C   0  0  0  0  0  0  0  0  0  0  0  0
   10.2877    3.9214   22.7184 H   0  0  0  0  0  0  0  0  0  0  0  0
    8.8448    3.9989   21.7029 H   0  0  0  0  0  0  0  0  0  0  0  0
    8.4011    3.9323   23.8023 C   0  0  0  0  0  0  0  0  0  0  0  0
    8.8725    3.5563   24.7204 H   0  0  0  0  0  0  0  0  0  0  0  0
    8.3576    5.0233   23.8914 H   0  0  0  0  0  0  0  0  0  0  0  0
    6.9849    3.3524   23.6951 C   0  0  0  0  0  0  0  0  0  0  0  0
    6.4695    3.8124   22.8387 H   0  0  0  0  0  0  0  0  0  0  0  0
    6.4015    3.6072   24.5874 H   0  0  0  0  0  0  0  0  0  0  0  0
    7.0129    1.8332   23.4993 C   0  0  0  0  0  0  0  0  0  0  0  0
    5.9941    1.4469   23.3668 H   0  0  0  0  0  0  0  0  0  0  0  0
    7.4108    1.3542   24.4042 H   0  0  0  0  0  0  0  0  0  0  0  0
    7.3766   -0.7510   20.9538 C   0  0  0  0  0  0  0  0  0  0  0  0
    6.6489   -0.0086   19.9063 C   0  0  0  0  0  0  0  0  0  0  0  0
    7.1730    0.0403   18.6140 C   0  0  0  0  0  0  0  0  0  0  0  0
    8.1221   -0.4398   18.3776 H   0  0  0  0  0  0  0  0  0  0  0  0
    6.5752    0.6742   17.5982 N   0  0  0  0  0  0  0  0  0  0  0  0
    5.4074    1.2875   17.8490 C   0  0  0  0  0  0  0  0  0  0  0  0
    4.9198    1.7740   17.0046 H   0  0  0  0  0  0  0  0  0  0  0  0
    4.8052    1.3072   19.1112 C   0  0  0  0  0  0  0  0  0  0  0  0
    3.8750    1.8434   19.2628 H   0  0  0  0  0  0  0  0  0  0  0  0
    5.4406    0.6461   20.1628 C   0  0  0  0  0  0  0  0  0  0  0  0
    5.0001    0.6363   21.1640 H   0  0  0  0  0  0  0  0  0  0  0  0
    7.4928   -2.0692   20.7694 N   0  0  0  0  0  0  0  0  0  0  0  0
  1  2  1  0
  2  3  2  0
  3  4  1  0
  4  5  1  0
  4  6  2  0
  6  7  1  0
  7  8  1  0
  7  9  1  0
  9 10  1  0
  9 11  1  0
  9 12  1  0
 12 13  1  0
 12 14  1  0
 12 15  1  0
 15 16  1  0
 15 17  1  0
 15 18  1  0
 18 19  1  0
 18 20  1  0
 18 21  1  0
 21 22  1  0
 21 23  1  0
  6 24  1  0
 24 25  1  0
 25 26  2  0
 26 27  1  0
 26 28  1  0
 28 29  2  0
 29 30  1  0
 29 31  1  0
 31 32  1  0
 31 33  2  0
 33 34  1  0
 24 35  2  0
 35  2  1  0
 21  7  1  0
 33 25  1  0
M  END
>  <cnnaffinity>  (1) 
-4.99456

>  <filename>  (1) 
c1cncc(-c2ncncc2C2CCCCC2)c1

$$$$
