
     RDKit          3D

 32 35  0  0  0  0  0  0  0  0999 V2000
    4.9734    1.7940   17.0020 H   0  0  0  0  0  0  0  0  0  0  0  0
    5.4199    1.2766   17.8448 C   0  0  0  0  0  0  0  0  0  0  0  0
    6.5835    0.6514   17.6042 N   0  0  0  0  0  0  0  0  0  0  0  0
    7.1841    0.0502   18.6349 C   0  0  0  0  0  0  0  0  0  0  0  0
    8.1347   -0.4364   18.4125 H   0  0  0  0  0  0  0  0  0  0  0  0
    6.6614    0.0416   19.9419 C   0  0  0  0  0  0  0  0  0  0  0  0
    7.3739   -0.6326   20.9765 N   0  0  0  0  0  0  0  0  0  0  0  0
    7.7599   -1.9445   20.8725 C   0  0  0  0  0  0  0  0  0  0  0  0
    7.3822   -2.4831   20.0233 H   0  0  0  0  0  0  0  0  0  0  0  0
    8.3840   -2.3299   22.0296 C   0  0  0  0  0  0  0  0  0  0  0  0
    8.8648   -3.2784   22.2377 H   0  0  0  0  0  0  0  0  0  0  0  0
    8.3042   -1.2292   22.9110 C   0  0  0  0  0  0  0  0  0  0  0  0
    8.6100   -1.1853   23.9468 H   0  0  0  0  0  0  0  0  0  0  0  0
    7.6805   -0.1870   22.2548 C   0  0  0  0  0  0  0  0  0  0  0  0
    7.3562    1.1455   22.7228 C   0  0  0  0  0  0  0  0  0  0  0  0
    7.6355    2.2975   22.0551 C   0  0  0  0  0  0  0  0  0  0  0  0
    8.0595    2.3585   21.0618 H   0  0  0  0  0  0  0  0  0  0  0  0
    7.2047    3.7285   22.9132 S   0  0  0  0  0  0  0  0  0  0  0  0
    6.5888    2.7846   24.2471 C   0  0  0  0  0  0  0  0  0  0  0  0
    6.0218    3.2624   25.4448 C   0  0  0  0  0  0  0  0  0  0  0  0
    5.9464    4.3282   25.6442 H   0  0  0  0  0  0  0  0  0  0  0  0
    5.5615    2.3391   26.3788 C   0  0  0  0  0  0  0  0  0  0  0  0
    5.1262    2.6832   27.3153 H   0  0  0  0  0  0  0  0  0  0  0  0
    5.6479    0.9519   26.1256 C   0  0  0  0  0  0  0  0  0  0  0  0
    5.2855    0.2405   26.8590 H   0  0  0  0  0  0  0  0  0  0  0  0
    6.2061    0.4782   24.9444 C   0  0  0  0  0  0  0  0  0  0  0  0
    6.2507   -0.5851   24.7191 H   0  0  0  0  0  0  0  0  0  0  0  0
    6.7216    1.4008   24.0021 C   0  0  0  0  0  0  0  0  0  0  0  0
    5.4227    0.6584   20.1722 C   0  0  0  0  0  0  0  0  0  0  0  0
    4.9740    0.6506   21.1695 H   0  0  0  0  0  0  0  0  0  0  0  0
    4.7968    1.2934   19.0983 C   0  0  0  0  0  0  0  0  0  0  0  0
    3.8588    1.8255   19.2284 H   0  0  0  0  0  0  0  0  0  0  0  0
  1  2  1  0
  2  3  2  0
  3  4  1  0
  4  5  1  0
  4  6  2  0
  6  7  1  0
  7  8  1  0
  8  9  1  0
  8 10  2  0
 10 11  1  0
 10 12  1  0
 12 13  1  0
 12 14  2  0
 14 15  1  0
 15 16  2  0
 16 17  1  0
 16 18  1  0
 18 19  1  0
 19 20  2  0
 20 21  1  0
 20 22  1  0
 22 23  1  0
 22 24  2  0
 24 25  1  0
 24 26  1  0
 26 27  1  0
 26 28  2  0
  6 29  1  0
 29 30  1  0
 29 31  2  0
 31 32  1  0
 31  2  1  0
 14  7  1  0
 28 15  1  0
 28 19  1  0
M  END
>  <cnnaffinity>  (1) 
-5.24778

>  <filename>  (1) 
c1cncc(-n2cccc2-c2csc3ccccc23)c1

$$$$
