
     RDKit          3D

 36 39  0  0  0  0  0  0  0  0999 V2000
    4.9309    1.7835   16.9947 H   0  0  0  0  0  0  0  0  0  0  0  0
    5.4080    1.2927   17.8388 C   0  0  0  0  0  0  0  0  0  0  0  0
    6.5692    0.6696   17.5831 N   0  0  0  0  0  0  0  0  0  0  0  0
    7.1667    0.0423   18.6008 C   0  0  0  0  0  0  0  0  0  0  0  0
    8.1157   -0.4417   18.3758 H   0  0  0  0  0  0  0  0  0  0  0  0
    6.6497    0.0114   19.9012 C   0  0  0  0  0  0  0  0  0  0  0  0
    7.3624   -0.7083   20.9432 C   0  0  0  0  0  0  0  0  0  0  0  0
    7.7108   -2.0261   20.7806 N   0  0  0  0  0  0  0  0  0  0  0  0
    8.1021   -2.3841   21.9703 C   0  0  0  0  0  0  0  0  0  0  0  0
    8.1268   -1.3710   22.8770 N   0  0  0  0  0  0  0  0  0  0  0  0
    7.6504   -0.2545   22.2221 C   0  0  0  0  0  0  0  0  0  0  0  0
    7.5119    1.1161   22.7954 C   0  0  0  0  0  0  0  0  0  0  0  0
    6.4572    1.2372   23.0844 H   0  0  0  0  0  0  0  0  0  0  0  0
    8.3719    1.4287   24.0318 C   0  0  0  0  0  0  0  0  0  0  0  0
    7.9494    1.0158   24.9544 H   0  0  0  0  0  0  0  0  0  0  0  0
    9.3600    0.9807   23.8932 H   0  0  0  0  0  0  0  0  0  0  0  0
    8.4806    2.9551   24.0764 C   0  0  0  0  0  0  0  0  0  0  0  0
    9.3823    3.2821   24.6047 H   0  0  0  0  0  0  0  0  0  0  0  0
    7.6311    3.3792   24.6253 H   0  0  0  0  0  0  0  0  0  0  0  0
    8.4620    3.4164   22.6050 C   0  0  0  0  0  0  0  0  0  0  0  0
    7.8932    4.3451   22.4868 H   0  0  0  0  0  0  0  0  0  0  0  0
    9.4749    3.6361   22.2499 H   0  0  0  0  0  0  0  0  0  0  0  0
    7.8494    2.2539   21.7892 C   0  0  0  0  0  0  0  0  0  0  0  0
    8.5542    1.8926   21.0360 H   0  0  0  0  0  0  0  0  0  0  0  0
    6.9650    2.5723   21.2283 H   0  0  0  0  0  0  0  0  0  0  0  0
    8.3370   -1.6922   24.2735 C   0  0  0  0  0  0  0  0  0  0  0  0
    9.2904   -1.2937   24.6372 H   0  0  0  0  0  0  0  0  0  0  0  0
    7.5504   -1.2343   24.8777 H   0  0  0  0  0  0  0  0  0  0  0  0
    8.2852   -3.2333   24.3779 C   0  0  0  0  0  0  0  0  0  0  0  0
    7.3304   -3.5608   24.7938 H   0  0  0  0  0  0  0  0  0  0  0  0
    9.0849   -3.6248   25.0045 H   0  0  0  0  0  0  0  0  0  0  0  0
    8.4848   -3.9368   22.6905 S   0  0  0  0  0  0  0  0  0  0  0  0
    5.4267    0.6574   20.1544 C   0  0  0  0  0  0  0  0  0  0  0  0
    4.9882    0.6432   21.1567 H   0  0  0  0  0  0  0  0  0  0  0  0
    4.8038    1.3156   19.1001 C   0  0  0  0  0  0  0  0  0  0  0  0
    3.8739    1.8429   19.2524 H   0  0  0  0  0  0  0  0  0  0  0  0
  1  2  1  0
  2  3  2  0
  3  4  1  0
  4  5  1  0
  4  6  2  0
  6  7  1  0
  7  8  1  0
  8  9  2  0
  9 10  1  0
 10 11  1  0
 11 12  1  0
 12 13  1  0
 12 14  1  0
 14 15  1  0
 14 16  1  0
 14 17  1  0
 17 18  1  0
 17 19  1  0
 17 20  1  0
 20 21  1  0
 20 22  1  0
 20 23  1  0
 23 24  1  0
 23 25  1  0
 10 26  1  0
 26 27  1  0
 26 28  1  0
 26 29  1  0
 29 30  1  0
 29 31  1  0
 29 32  1  0
  6 33  1  0
 33 34  1  0
 33 35  2  0
 35 36  1  0
 35  2  1  0
 11  7  2  0
 23 12  1  0
 32  9  1  0
M  END
>  <cnnaffinity>  (1) 
-5.47332

>  <filename>  (1) 
c1cncc(-c2nc3n(c2C2CCCC2)CCS3)c1

$$$$
