
     RDKit          3D

 38 42  0  0  0  0  0  0  0  0999 V2000
    4.9350    2.0102   16.4910 H   0  0  0  0  0  0  0  0  0  0  0  0
    5.2121    1.5296   17.4251 C   0  0  0  0  0  0  0  0  0  0  0  0
    6.3158    0.7670   17.3845 N   0  0  0  0  0  0  0  0  0  0  0  0
    6.7102    0.2085   18.5352 C   0  0  0  0  0  0  0  0  0  0  0  0
    7.6253   -0.3849   18.4852 H   0  0  0  0  0  0  0  0  0  0  0  0
    6.0428    0.3711   19.7644 C   0  0  0  0  0  0  0  0  0  0  0  0
    6.6190   -0.1884   21.0338 C   0  0  1  0  0  0  0  0  0  0  0  0
    6.0047    0.1492   21.8756 H   0  0  0  0  0  0  0  0  0  0  0  0
    6.6402   -1.7546   21.0639 C   0  0  0  0  0  0  0  0  0  0  0  0
    5.8943   -2.1509   21.7554 H   0  0  0  0  0  0  0  0  0  0  0  0
    6.4029   -2.1845   20.0853 H   0  0  0  0  0  0  0  0  0  0  0  0
    8.0475   -2.0620   21.4714 C   0  0  0  0  0  0  0  0  0  0  0  0
    8.7326   -3.1709   21.6851 N   0  0  0  0  0  0  0  0  0  0  0  0
    9.9803   -2.7086   21.9355 N   0  0  0  0  0  0  0  0  0  0  0  0
   10.7047   -3.3724   22.1748 H   0  0  0  0  0  0  0  0  0  0  0  0
   10.1054   -1.3549   21.8494 C   0  0  0  0  0  0  0  0  0  0  0  0
   11.3490   -0.6027   22.0292 C   0  0  0  0  0  0  0  0  0  0  0  0
   12.5951   -1.2359   22.1717 C   0  0  0  0  0  0  0  0  0  0  0  0
   12.6774   -2.3178   22.1011 H   0  0  0  0  0  0  0  0  0  0  0  0
   13.7700   -0.5016   22.4033 C   0  0  0  0  0  0  0  0  0  0  0  0
   14.7289   -0.9896   22.5269 H   0  0  0  0  0  0  0  0  0  0  0  0
   13.6438    0.8686   22.5014 C   0  0  0  0  0  0  0  0  0  0  0  0
   12.4203    1.5085   22.3094 C   0  0  0  0  0  0  0  0  0  0  0  0
   11.2626    0.8102   22.0840 C   0  0  0  0  0  0  0  0  0  0  0  0
   10.3315    1.3563   21.9864 H   0  0  0  0  0  0  0  0  0  0  0  0
   12.5787    2.8574   22.4053 O   0  0  0  0  0  0  0  0  0  0  0  0
   13.9275    3.0600   22.7983 C   0  0  0  0  0  0  0  0  0  0  0  0
   13.9664    3.4165   23.8360 H   0  0  0  0  0  0  0  0  0  0  0  0
   14.3962    3.7820   22.1194 H   0  0  0  0  0  0  0  0  0  0  0  0
   14.6067    1.8032   22.7130 O   0  0  0  0  0  0  0  0  0  0  0  0
    8.8283   -0.9197   21.5752 C   0  0  0  0  0  0  0  0  0  0  0  0
    8.0682    0.3301   21.2895 C   0  0  0  0  0  0  0  0  0  0  0  0
    8.4900    0.8635   20.4235 H   0  0  0  0  0  0  0  0  0  0  0  0
    8.0786    1.0570   22.1140 H   0  0  0  0  0  0  0  0  0  0  0  0
    4.8639    1.1201   19.7651 C   0  0  0  0  0  0  0  0  0  0  0  0
    4.3122    1.2427   20.6985 H   0  0  0  0  0  0  0  0  0  0  0  0
    4.4410    1.7144   18.5769 C   0  0  0  0  0  0  0  0  0  0  0  0
    3.5520    2.3327   18.5423 H   0  0  0  0  0  0  0  0  0  0  0  0
  1  2  1  0
  2  3  2  0
  3  4  1  0
  4  5  1  0
  4  6  2  0
  6  7  1  0
  7  8  1  1
  7  9  1  0
  9 10  1  0
  9 11  1  0
  9 12  1  0
 12 13  2  0
 13 14  1  0
 14 15  1  0
 14 16  1  0
 16 17  1  0
 17 18  2  0
 18 19  1  0
 18 20  1  0
 20 21  1  0
 20 22  2  0
 22 23  1  0
 23 24  2  0
 24 25  1  0
 23 26  1  0
 26 27  1  0
 27 28  1  0
 27 29  1  0
 27 30  1  0
 16 31  2  0
 31 32  1  0
 32 33  1  0
 32 34  1  0
  6 35  1  0
 35 36  1  0
 35 37  2  0
 37 38  1  0
 37  2  1  0
 32  7  1  0
 31 12  1  0
 24 17  1  0
 30 22  1  0
M  END
>  <cnnaffinity>  (1) 
-5.7897

>  <filename>  (1) 
c1cncc([C@H]2Cc3n[nH]c(-c4ccc5c(c4)OCO5)c3C2)c1

$$$$
