
     RDKit          3D

 36 38  0  0  0  0  0  0  0  0999 V2000
    4.9618    1.8371   17.1756 H   0  0  0  0  0  0  0  0  0  0  0  0
    5.4451    1.2064   17.9207 C   0  0  0  0  0  0  0  0  0  0  0  0
    6.5663    0.5840   17.5200 N   0  0  0  0  0  0  0  0  0  0  0  0
    7.2148   -0.1571   18.4267 C   0  0  0  0  0  0  0  0  0  0  0  0
    8.1275   -0.6469   18.0859 H   0  0  0  0  0  0  0  0  0  0  0  0
    6.7954   -0.3266   19.7664 C   0  0  0  0  0  0  0  0  0  0  0  0
    7.6323   -1.0497   20.7596 C   0  0  0  0  0  0  0  0  0  0  0  0
    8.9280   -0.8558   21.1975 C   0  0  0  0  0  0  0  0  0  0  0  0
    9.6180   -0.0622   20.9501 H   0  0  0  0  0  0  0  0  0  0  0  0
    9.2675   -1.8241   22.0759 N   0  0  0  0  0  0  0  0  0  0  0  0
    8.2518   -2.6243   22.2328 N   0  0  0  0  0  0  0  0  0  0  0  0
    7.2695   -2.1426   21.4808 N   0  0  0  0  0  0  0  0  0  0  0  0
    6.0520   -2.7459   21.4171 O   0  0  0  0  0  0  0  0  0  0  0  0
    5.6215   -3.3533   22.6614 C   0  0  0  0  0  0  0  0  0  0  0  0
    6.1031   -2.8645   23.5153 H   0  0  0  0  0  0  0  0  0  0  0  0
    4.5497   -3.1685   22.6906 H   0  0  0  0  0  0  0  0  0  0  0  0
    5.8944   -4.8551   22.6368 C   0  0  0  0  0  0  0  0  0  0  0  0
    5.5862   -5.2227   21.6462 H   0  0  0  0  0  0  0  0  0  0  0  0
    6.9854   -5.0226   22.7294 H   0  0  0  0  0  0  0  0  0  0  0  0
    5.1210   -5.5525   23.6549 N   0  0  0  0  0  0  0  0  0  0  0  0
    4.8076   -6.9474   23.3629 C   0  0  0  0  0  0  0  0  0  0  0  0
    5.7066   -7.5362   23.0889 H   0  0  0  0  0  0  0  0  0  0  0  0
    4.1122   -7.0192   22.5182 H   0  0  0  0  0  0  0  0  0  0  0  0
    4.1934   -7.4187   24.6744 C   0  0  0  0  0  0  0  0  0  0  0  0
    3.1783   -7.0153   24.7492 H   0  0  0  0  0  0  0  0  0  0  0  0
    4.1266   -8.5043   24.7723 H   0  0  0  0  0  0  0  0  0  0  0  0
    5.1049   -6.7696   25.7243 C   0  0  0  0  0  0  0  0  0  0  0  0
    5.9515   -7.4218   25.9629 H   0  0  0  0  0  0  0  0  0  0  0  0
    4.5831   -6.5722   26.6675 H   0  0  0  0  0  0  0  0  0  0  0  0
    5.6145   -5.4799   25.0375 C   0  0  0  0  0  0  0  0  0  0  0  0
    6.7173   -5.4295   25.0696 H   0  0  0  0  0  0  0  0  0  0  0  0
    5.2379   -4.5778   25.5382 H   0  0  0  0  0  0  0  0  0  0  0  0
    5.5808    0.2686   20.1359 C   0  0  0  0  0  0  0  0  0  0  0  0
    5.1882    0.1206   21.1417 H   0  0  0  0  0  0  0  0  0  0  0  0
    4.9063    1.0612   19.2024 C   0  0  0  0  0  0  0  0  0  0  0  0
    3.9966    1.5944   19.4544 H   0  0  0  0  0  0  0  0  0  0  0  0
  1  2  1  0
  2  3  2  0
  3  4  1  0
  4  5  1  0
  4  6  2  0
  6  7  1  0
  7  8  2  0
  8  9  1  0
  8 10  1  0
 10 11  2  0
 11 12  1  0
 12 13  1  0
 13 14  1  0
 14 15  1  0
 14 16  1  0
 14 17  1  0
 17 18  1  0
 17 19  1  0
 17 20  1  0
 20 21  1  0
 21 22  1  0
 21 23  1  0
 21 24  1  0
 24 25  1  0
 24 26  1  0
 24 27  1  0
 27 28  1  0
 27 29  1  0
 27 30  1  0
 30 31  1  0
 30 32  1  0
  6 33  1  0
 33 34  1  0
 33 35  2  0
 35 36  1  0
 35  2  1  0
 12  7  1  0
 30 20  1  0
M  END
>  <cnnaffinity>  (1) 
-4.61479

>  <filename>  (1) 
c1cncc(-c2cnnn2OCCN2CCCC2)c1

$$$$
