
     RDKit          3D

 36 40  0  0  0  0  0  0  0  0999 V2000
    4.9222    1.7720   17.0035 H   0  0  0  0  0  0  0  0  0  0  0  0
    5.4097    1.2859   17.8465 C   0  0  0  0  0  0  0  0  0  0  0  0
    6.5748    0.6688   17.5945 N   0  0  0  0  0  0  0  0  0  0  0  0
    7.1812    0.0537   18.6150 C   0  0  0  0  0  0  0  0  0  0  0  0
    8.1268   -0.4331   18.3840 H   0  0  0  0  0  0  0  0  0  0  0  0
    6.6467    0.0143   19.9109 C   0  0  0  0  0  0  0  0  0  0  0  0
    7.3615   -0.6908   20.9687 C   0  0  0  0  0  0  0  0  0  0  0  0
    8.5488   -1.3256   20.7533 N   0  0  0  0  0  0  0  0  0  0  0  0
    8.8138   -1.8022   21.9534 C   0  0  0  0  0  0  0  0  0  0  0  0
   10.0560   -2.7295   22.7533 S   0  0  0  0  0  0  0  0  0  0  0  0
    9.1623   -2.6253   24.2450 C   0  0  0  0  0  0  0  0  0  0  0  0
    9.5651   -3.0751   25.1433 H   0  0  0  0  0  0  0  0  0  0  0  0
    8.0023   -1.9412   24.1331 C   0  0  0  0  0  0  0  0  0  0  0  0
    7.0586   -1.5845   25.2062 C   0  0  0  0  0  0  0  0  0  0  0  0
    6.7320   -0.2527   25.4332 C   0  0  0  0  0  0  0  0  0  0  0  0
    7.1340    0.5081   24.7692 H   0  0  0  0  0  0  0  0  0  0  0  0
    5.8959    0.1247   26.5105 C   0  0  0  0  0  0  0  0  0  0  0  0
    5.6654    1.1766   26.6592 H   0  0  0  0  0  0  0  0  0  0  0  0
    5.3811   -0.8286   27.3588 C   0  0  0  0  0  0  0  0  0  0  0  0
    4.7405   -0.5474   28.1928 H   0  0  0  0  0  0  0  0  0  0  0  0
    5.6715   -2.2099   27.1578 C   0  0  0  0  0  0  0  0  0  0  0  0
    5.1274   -3.2074   28.0243 C   0  0  0  0  0  0  0  0  0  0  0  0
    4.5005   -2.8848   28.8538 H   0  0  0  0  0  0  0  0  0  0  0  0
    5.3813   -4.5407   27.8105 C   0  0  0  0  0  0  0  0  0  0  0  0
    4.9608   -5.2940   28.4731 H   0  0  0  0  0  0  0  0  0  0  0  0
    6.1860   -4.9485   26.7143 C   0  0  0  0  0  0  0  0  0  0  0  0
    6.3697   -6.0064   26.5467 H   0  0  0  0  0  0  0  0  0  0  0  0
    6.7283   -4.0142   25.8568 C   0  0  0  0  0  0  0  0  0  0  0  0
    7.3156   -4.3420   25.0032 H   0  0  0  0  0  0  0  0  0  0  0  0
    6.5102   -2.6098   26.0619 C   0  0  0  0  0  0  0  0  0  0  0  0
    7.8487   -1.4693   22.8308 N   0  0  0  0  0  0  0  0  0  0  0  0
    6.8869   -0.7488   22.2079 N   0  0  0  0  0  0  0  0  0  0  0  0
    5.4273    0.6583   20.1660 C   0  0  0  0  0  0  0  0  0  0  0  0
    4.9980    0.6341   21.1718 H   0  0  0  0  0  0  0  0  0  0  0  0
    4.8040    1.3106   19.1092 C   0  0  0  0  0  0  0  0  0  0  0  0
    3.8729    1.8441   19.2604 H   0  0  0  0  0  0  0  0  0  0  0  0
  1  2  1  0
  2  3  2  0
  3  4  1  0
  4  5  1  0
  4  6  2  0
  6  7  1  0
  7  8  1  0
  8  9  2  0
  9 10  1  0
 10 11  1  0
 11 12  1  0
 11 13  2  0
 13 14  1  0
 14 15  2  0
 15 16  1  0
 15 17  1  0
 17 18  1  0
 17 19  2  0
 19 20  1  0
 19 21  1  0
 21 22  2  0
 22 23  1  0
 22 24  1  0
 24 25  1  0
 24 26  2  0
 26 27  1  0
 26 28  1  0
 28 29  1  0
 28 30  2  0
 13 31  1  0
 31 32  1  0
  6 33  1  0
 33 34  1  0
 33 35  2  0
 35 36  1  0
 35  2  1  0
 32  7  2  0
 31  9  1  0
 30 14  1  0
 30 21  1  0
M  END
>  <cnnaffinity>  (1) 
-5.65993

>  <filename>  (1) 
c1cncc(-c2nc3scc(-c4cccc5ccccc45)n3n2)c1

$$$$
