
     RDKit          3D

 40 43  0  0  0  0  0  0  0  0999 V2000
    4.9245    1.8148   16.9632 H   0  0  0  0  0  0  0  0  0  0  0  0
    5.3916    1.3126   17.8080 C   0  0  0  0  0  0  0  0  0  0  0  0
    6.5579    0.7024   17.5578 N   0  0  0  0  0  0  0  0  0  0  0  0
    7.1706    0.0850   18.5807 C   0  0  0  0  0  0  0  0  0  0  0  0
    8.1157   -0.4009   18.3256 H   0  0  0  0  0  0  0  0  0  0  0  0
    6.6652    0.0308   19.8915 C   0  0  0  0  0  0  0  0  0  0  0  0
    7.3447   -0.7557   21.0295 C   0  0  0  0  0  0  0  0  0  0  0  0
    6.5617   -2.0724   21.2831 C   0  0  0  0  0  0  0  0  0  0  0  0
    6.2585   -2.8969   20.1527 C   0  0  0  0  0  0  0  0  0  0  0  0
    6.4808   -2.5184   19.1573 H   0  0  0  0  0  0  0  0  0  0  0  0
    5.6855   -4.1313   20.2948 C   0  0  0  0  0  0  0  0  0  0  0  0
    5.4983   -4.7497   19.4248 H   0  0  0  0  0  0  0  0  0  0  0  0
    5.2878   -4.6112   21.5763 C   0  0  0  0  0  0  0  0  0  0  0  0
    4.6808   -5.8905   21.7606 C   0  0  0  0  0  0  0  0  0  0  0  0
    4.6800   -6.6000   20.9375 H   0  0  0  0  0  0  0  0  0  0  0  0
    4.1557   -6.2320   22.9850 C   0  0  0  0  0  0  0  0  0  0  0  0
    3.5981   -7.1551   23.1053 H   0  0  0  0  0  0  0  0  0  0  0  0
    4.3243   -5.3735   24.1119 C   0  0  0  0  0  0  0  0  0  0  0  0
    3.9785   -5.6952   25.0894 H   0  0  0  0  0  0  0  0  0  0  0  0
    4.9902   -4.1784   23.9847 C   0  0  0  0  0  0  0  0  0  0  0  0
    5.1949   -3.5485   24.8503 H   0  0  0  0  0  0  0  0  0  0  0  0
    5.4791   -3.7563   22.7084 C   0  0  0  0  0  0  0  0  0  0  0  0
    6.1661   -2.5169   22.5288 C   0  0  0  0  0  0  0  0  0  0  0  0
    6.3512   -1.9036   23.4056 H   0  0  0  0  0  0  0  0  0  0  0  0
    7.4702    0.1438   22.2962 C   0  0  0  0  0  0  0  0  0  0  0  0
    7.6487    1.1720   21.9545 H   0  0  0  0  0  0  0  0  0  0  0  0
    6.5343    0.1626   22.8683 H   0  0  0  0  0  0  0  0  0  0  0  0
    8.6893   -0.3460   23.1164 C   0  0  0  0  0  0  0  0  0  0  0  0
    8.3789   -0.8606   24.0368 H   0  0  0  0  0  0  0  0  0  0  0  0
    9.2974    0.5078   23.4445 H   0  0  0  0  0  0  0  0  0  0  0  0
    9.4698   -1.2895   22.1673 C   0  0  0  0  0  0  0  0  0  0  0  0
   10.5553   -1.1164   22.1755 H   0  0  0  0  0  0  0  0  0  0  0  0
    9.3236   -2.3364   22.4697 H   0  0  0  0  0  0  0  0  0  0  0  0
    8.8515   -1.0632   20.7767 C   0  0  0  0  0  0  0  0  0  0  0  0
    8.9874   -1.9287   20.1167 H   0  0  0  0  0  0  0  0  0  0  0  0
    9.3104   -0.1888   20.2926 H   0  0  0  0  0  0  0  0  0  0  0  0
    5.4362    0.6713   20.1219 C   0  0  0  0  0  0  0  0  0  0  0  0
    4.9887    0.6507   21.1155 H   0  0  0  0  0  0  0  0  0  0  0  0
    4.7923    1.3254   19.0710 C   0  0  0  0  0  0  0  0  0  0  0  0
    3.8559    1.8517   19.2197 H   0  0  0  0  0  0  0  0  0  0  0  0
  1  2  1  0
  2  3  2  0
  3  4  1  0
  4  5  1  0
  4  6  2  0
  6  7  1  0
  7  8  1  0
  8  9  2  0
  9 10  1  0
  9 11  1  0
 11 12  1  0
 11 13  2  0
 13 14  1  0
 14 15  1  0
 14 16  2  0
 16 17  1  0
 16 18  1  0
 18 19  1  0
 18 20  2  0
 20 21  1  0
 20 22  1  0
 22 23  2  0
 23 24  1  0
  7 25  1  0
 25 26  1  0
 25 27  1  0
 25 28  1  0
 28 29  1  0
 28 30  1  0
 28 31  1  0
 31 32  1  0
 31 33  1  0
 31 34  1  0
 34 35  1  0
 34 36  1  0
  6 37  1  0
 37 38  1  0
 37 39  2  0
 39 40  1  0
 39  2  1  0
 34  7  1  0
 23  8  1  0
 22 13  1  0
M  END
>  <cnnaffinity>  (1) 
-5.08482

>  <filename>  (1) 
c1cncc(C2(c3ccc4ccccc4c3)CCCC2)c1

$$$$
