
     RDKit          3D

 38 42  0  0  0  0  0  0  0  0999 V2000
    5.0015    1.8439   16.9209 H   0  0  0  0  0  0  0  0  0  0  0  0
    5.4209    1.2895   17.7602 C   0  0  0  0  0  0  0  0  0  0  0  0
    6.5612    0.6229   17.5238 N   0  0  0  0  0  0  0  0  0  0  0  0
    7.1281   -0.0183   18.5497 C   0  0  0  0  0  0  0  0  0  0  0  0
    8.0421   -0.5597   18.3154 H   0  0  0  0  0  0  0  0  0  0  0  0
    6.6171   -0.0123   19.8626 C   0  0  0  0  0  0  0  0  0  0  0  0
    7.3730   -0.6432   20.9582 C   0  0  0  0  0  0  0  0  0  0  0  0
    8.0645   -1.7642   20.7588 N   0  0  0  0  0  0  0  0  0  0  0  0
    8.5709   -2.0427   21.9589 N   0  0  0  0  0  0  0  0  0  0  0  0
    8.2922   -1.1687   22.9222 C   0  0  0  0  0  0  0  0  0  0  0  0
    7.4994   -0.2036   22.3210 C   0  0  0  0  0  0  0  0  0  0  0  0
    7.0698    1.0274   22.9769 C   0  0  0  0  0  0  0  0  0  0  0  0
    7.2338    2.2808   22.3119 C   0  0  0  0  0  0  0  0  0  0  0  0
    7.6004    2.2799   21.2908 H   0  0  0  0  0  0  0  0  0  0  0  0
    6.9500    3.4794   22.9349 C   0  0  0  0  0  0  0  0  0  0  0  0
    7.1080    4.4374   22.4487 H   0  0  0  0  0  0  0  0  0  0  0  0
    6.4635    3.4062   24.2556 C   0  0  0  0  0  0  0  0  0  0  0  0
    6.2687    2.1839   24.9353 C   0  0  0  0  0  0  0  0  0  0  0  0
    5.7813    2.5780   26.2215 C   0  0  0  0  0  0  0  0  0  0  0  0
    5.5084    1.9353   27.0527 H   0  0  0  0  0  0  0  0  0  0  0  0
    5.6841    3.8919   26.3179 N   0  0  0  0  0  0  0  0  0  0  0  0
    6.1013    4.3821   25.1261 N   0  0  0  0  0  0  0  0  0  0  0  0
    6.0972    5.3720   24.9242 H   0  0  0  0  0  0  0  0  0  0  0  0
    6.5868    0.9700   24.2787 C   0  0  0  0  0  0  0  0  0  0  0  0
    6.4380    0.0032   24.7562 H   0  0  0  0  0  0  0  0  0  0  0  0
    9.0654   -1.5037   24.1793 C   0  0  0  0  0  0  0  0  0  0  0  0
    9.7089   -0.6789   24.5004 H   0  0  0  0  0  0  0  0  0  0  0  0
    8.3965   -1.7264   25.0150 H   0  0  0  0  0  0  0  0  0  0  0  0
    9.8988   -2.7495   23.7634 C   0  0  0  0  0  0  0  0  0  0  0  0
    9.7062   -3.5937   24.4273 H   0  0  0  0  0  0  0  0  0  0  0  0
   10.9642   -2.5335   23.8013 H   0  0  0  0  0  0  0  0  0  0  0  0
    9.5152   -3.0725   22.2940 C   0  0  0  0  0  0  0  0  0  0  0  0
    9.0431   -4.0502   22.1688 H   0  0  0  0  0  0  0  0  0  0  0  0
   10.3739   -2.9602   21.6299 H   0  0  0  0  0  0  0  0  0  0  0  0
    5.3867    0.6330   20.0750 C   0  0  0  0  0  0  0  0  0  0  0  0
    4.9151    0.6345   21.0610 H   0  0  0  0  0  0  0  0  0  0  0  0
    4.7877    1.2959   19.0067 C   0  0  0  0  0  0  0  0  0  0  0  0
    3.8545    1.8336   19.1238 H   0  0  0  0  0  0  0  0  0  0  0  0
  1  2  1  0
  2  3  2  0
  3  4  1  0
  4  5  1  0
  4  6  2  0
  6  7  1  0
  7  8  2  0
  8  9  1  0
  9 10  1  0
 10 11  2  0
 11 12  1  0
 12 13  2  0
 13 14  1  0
 13 15  1  0
 15 16  1  0
 15 17  2  0
 17 18  1  0
 18 19  1  0
 19 20  1  0
 19 21  2  0
 21 22  1  0
 22 23  1  0
 18 24  2  0
 24 25  1  0
 10 26  1  0
 26 27  1  0
 26 28  1  0
 26 29  1  0
 29 30  1  0
 29 31  1  0
 29 32  1  0
 32 33  1  0
 32 34  1  0
  6 35  1  0
 35 36  1  0
 35 37  2  0
 37 38  1  0
 37  2  1  0
 11  7  1  0
 24 12  1  0
 32  9  1  0
 22 17  1  0
M  END
>  <cnnaffinity>  (1) 
-5.56475

>  <filename>  (1) 
c1cncc(-c2nn3c(c2-c2ccc4[nH]ncc4c2)CCC3)c1

$$$$
