
     RDKit          3D

 40 44  0  0  0  0  0  0  0  0999 V2000
    4.9230    1.8450   16.9333 H   0  0  0  0  0  0  0  0  0  0  0  0
    5.4127    1.3336   17.7589 C   0  0  0  0  0  0  0  0  0  0  0  0
    6.5688    0.7152   17.4696 N   0  0  0  0  0  0  0  0  0  0  0  0
    7.1970    0.0909   18.4734 C   0  0  0  0  0  0  0  0  0  0  0  0
    8.1283   -0.4183   18.2151 H   0  0  0  0  0  0  0  0  0  0  0  0
    6.7307    0.0454   19.7985 C   0  0  0  0  0  0  0  0  0  0  0  0
    7.4930   -0.6545   20.9004 C   0  0  1  0  0  0  0  0  0  0  0  0
    8.4287   -1.0388   20.4812 H   0  0  0  0  0  0  0  0  0  0  0  0
    7.8633    0.3201   22.0782 C   0  0  0  0  0  0  0  0  0  0  0  0
    7.4431    1.3262   21.9606 H   0  0  0  0  0  0  0  0  0  0  0  0
    8.9454    0.4623   22.1509 H   0  0  0  0  0  0  0  0  0  0  0  0
    7.3030   -0.3740   23.2769 C   0  0  0  0  0  0  0  0  0  0  0  0
    7.1708   -0.0500   24.5511 N   0  0  0  0  0  0  0  0  0  0  0  0
    6.5397   -1.1327   25.0737 N   0  0  0  0  0  0  0  0  0  0  0  0
    6.1626   -1.0534   26.0083 H   0  0  0  0  0  0  0  0  0  0  0  0
    6.2699   -2.1157   24.1568 C   0  0  0  0  0  0  0  0  0  0  0  0
    5.6675   -3.4332   24.4149 C   0  0  0  0  0  0  0  0  0  0  0  0
    4.4924   -3.7795   23.7873 C   0  0  0  0  0  0  0  0  0  0  0  0
    4.0089   -3.0789   23.1173 H   0  0  0  0  0  0  0  0  0  0  0  0
    3.8412   -4.9640   23.9367 N   0  0  0  0  0  0  0  0  0  0  0  0
    4.3643   -5.8362   24.7742 C   0  0  0  0  0  0  0  0  0  0  0  0
    3.8431   -6.7880   24.8818 H   0  0  0  0  0  0  0  0  0  0  0  0
    5.5675   -5.6214   25.5107 C   0  0  0  0  0  0  0  0  0  0  0  0
    6.0775   -6.5434   26.4758 C   0  0  0  0  0  0  0  0  0  0  0  0
    5.5012   -7.4337   26.7236 H   0  0  0  0  0  0  0  0  0  0  0  0
    7.2989   -6.3081   27.0655 C   0  0  0  0  0  0  0  0  0  0  0  0
    7.6961   -6.9712   27.8236 H   0  0  0  0  0  0  0  0  0  0  0  0
    8.0972   -5.2033   26.6811 C   0  0  0  0  0  0  0  0  0  0  0  0
    9.0780   -5.0780   27.1313 H   0  0  0  0  0  0  0  0  0  0  0  0
    7.6239   -4.3038   25.7544 C   0  0  0  0  0  0  0  0  0  0  0  0
    8.2599   -3.5058   25.3914 H   0  0  0  0  0  0  0  0  0  0  0  0
    6.3022   -4.4292   25.2302 C   0  0  0  0  0  0  0  0  0  0  0  0
    6.7413   -1.6099   22.9689 C   0  0  0  0  0  0  0  0  0  0  0  0
    6.7127   -1.8780   21.5024 C   0  0  0  0  0  0  0  0  0  0  0  0
    7.1802   -2.8284   21.2138 H   0  0  0  0  0  0  0  0  0  0  0  0
    5.6758   -1.9225   21.1327 H   0  0  0  0  0  0  0  0  0  0  0  0
    5.5079    0.6789   20.0661 C   0  0  0  0  0  0  0  0  0  0  0  0
    5.0957    0.6600   21.0766 H   0  0  0  0  0  0  0  0  0  0  0  0
    4.8360    1.3319   19.0334 C   0  0  0  0  0  0  0  0  0  0  0  0
    3.8945    1.8427   19.2050 H   0  0  0  0  0  0  0  0  0  0  0  0
  1  2  1  0
  2  3  2  0
  3  4  1  0
  4  5  1  0
  4  6  2  0
  6  7  1  0
  7  8  1  6
  7  9  1  0
  9 10  1  0
  9 11  1  0
  9 12  1  0
 12 13  2  0
 13 14  1  0
 14 15  1  0
 14 16  1  0
 16 17  1  0
 17 18  2  0
 18 19  1  0
 18 20  1  0
 20 21  2  0
 21 22  1  0
 21 23  1  0
 23 24  2  0
 24 25  1  0
 24 26  1  0
 26 27  1  0
 26 28  2  0
 28 29  1  0
 28 30  1  0
 30 31  1  0
 30 32  2  0
 16 33  2  0
 33 34  1  0
 34 35  1  0
 34 36  1  0
  6 37  1  0
 37 38  1  0
 37 39  2  0
 39 40  1  0
 39  2  1  0
 34  7  1  0
 33 12  1  0
 32 17  1  0
 32 23  1  0
M  END
>  <cnnaffinity>  (1) 
-5.61098

>  <filename>  (1) 
c1cncc([C@H]2Cc3n[nH]c(-c4cncc5ccccc45)c3C2)c1

$$$$
