
     RDKit          3D

 39 42  0  0  0  0  0  0  0  0999 V2000
    4.8052    1.3143   19.0492 C   0  0  0  0  0  0  0  0  0  0  0  0
    5.4139    1.3077   17.7900 C   0  0  0  0  0  0  0  0  0  0  0  0
    6.5620    0.6659   17.5285 N   0  0  0  0  0  0  0  0  0  0  0  0
    7.1496    0.0199   18.5460 C   0  0  0  0  0  0  0  0  0  0  0  0
    6.6465   -0.0264   19.8587 C   0  0  0  0  0  0  0  0  0  0  0  0
    7.3839   -0.7059   20.9935 C   0  0  0  0  0  0  0  0  0  0  0  0
    8.0718    0.2899   21.9643 C   0  0  0  0  0  0  0  0  0  0  0  0
    9.3255    0.9742   21.4082 C   0  0  0  0  0  0  0  0  0  0  0  0
   10.4996    0.1055   21.8718 C   0  0  0  0  0  0  0  0  0  0  0  0
   10.0425   -0.4856   23.2089 C   0  0  0  0  0  0  0  0  0  0  0  0
    8.5880   -0.3607   23.1638 N   0  0  0  0  0  0  0  0  0  0  0  0
    7.8009   -0.8831   24.1388 C   0  0  0  0  0  0  0  0  0  0  0  0
    6.4055   -0.5426   24.2222 C   0  0  0  0  0  0  0  0  0  0  0  0
    5.6080   -1.1053   25.1954 C   0  0  0  0  0  0  0  0  0  0  0  0
    6.1874   -2.0503   26.0888 C   0  0  0  0  0  0  0  0  0  0  0  0
    5.4263   -2.7339   27.0133 N   0  0  0  0  0  0  0  0  0  0  0  0
    6.0721   -3.6583   27.7049 C   0  0  0  0  0  0  0  0  0  0  0  0
    7.4886   -3.9112   27.5237 C   0  0  0  0  0  0  0  0  0  0  0  0
    8.2429   -3.2310   26.6873 N   0  0  0  0  0  0  0  0  0  0  0  0
    7.6084   -2.2917   25.9146 C   0  0  0  0  0  0  0  0  0  0  0  0
    8.3923   -1.6992   24.9953 N   0  0  0  0  0  0  0  0  0  0  0  0
    7.9874   -4.6896   28.1036 H   0  0  0  0  0  0  0  0  0  0  0  0
    5.4955   -4.2163   28.4371 H   0  0  0  0  0  0  0  0  0  0  0  0
    4.5473   -0.8685   25.3037 H   0  0  0  0  0  0  0  0  0  0  0  0
    5.9881    0.1361   23.4898 H   0  0  0  0  0  0  0  0  0  0  0  0
   10.4402    0.0590   24.0789 H   0  0  0  0  0  0  0  0  0  0  0  0
   10.3306   -1.5380   23.3328 H   0  0  0  0  0  0  0  0  0  0  0  0
   10.6909   -0.7007   21.1580 H   0  0  0  0  0  0  0  0  0  0  0  0
   11.4245    0.6767   21.9752 H   0  0  0  0  0  0  0  0  0  0  0  0
    9.3949    1.9754   21.8429 H   0  0  0  0  0  0  0  0  0  0  0  0
    9.2786    1.0838   20.3222 H   0  0  0  0  0  0  0  0  0  0  0  0
    7.3365    1.0620   22.2349 H   0  0  0  0  0  0  0  0  0  0  0  0
    8.1347   -1.4104   20.6123 H   0  0  0  0  0  0  0  0  0  0  0  0
    6.6688   -1.3083   21.5682 H   0  0  0  0  0  0  0  0  0  0  0  0
    5.4308    0.6359   20.0966 C   0  0  0  0  0  0  0  0  0  0  0  0
    4.9898    0.6247   21.0969 H   0  0  0  0  0  0  0  0  0  0  0  0
    8.0858   -0.4889   18.3078 H   0  0  0  0  0  0  0  0  0  0  0  0
    4.9561    1.8327   16.9532 H   0  0  0  0  0  0  0  0  0  0  0  0
    3.8767    1.8560   19.1966 H   0  0  0  0  0  0  0  0  0  0  0  0
  1  2  2  0
  2  3  1  0
  3  4  2  0
  4  5  1  0
  5  6  1  0
  6  7  1  0
  7  8  1  0
  8  9  1  0
  9 10  1  0
 10 11  1  0
 11 12  1  0
 12 13  2  0
 13 14  1  0
 14 15  2  0
 15 16  1  0
 16 17  2  0
 17 18  1  0
 18 19  2  0
 19 20  1  0
 20 21  2  0
 18 22  1  0
 17 23  1  0
 14 24  1  0
 13 25  1  0
 10 26  1  0
 10 27  1  0
  9 28  1  0
  9 29  1  0
  8 30  1  0
  8 31  1  0
  7 32  1  0
  6 33  1  0
  6 34  1  0
  5 35  2  0
 35 36  1  0
  4 37  1  0
  2 38  1  0
  1 39  1  0
 35  1  1  0
 11  7  1  0
 21 12  1  0
 20 15  1  0
M  END
>  <cnnaffinity>  (1) 
-5.4027

>  <filename>  (1) 
c1cncc(CC2CCCN2c2ccc3nccnc3n2)c1

$$$$
