
     RDKit          3D

 33 37  0  0  0  0  0  0  0  0999 V2000
    4.9201    1.7789   16.9990 H   0  0  0  0  0  0  0  0  0  0  0  0
    5.4037    1.2903   17.8404 C   0  0  0  0  0  0  0  0  0  0  0  0
    6.5683    0.6766   17.5753 N   0  0  0  0  0  0  0  0  0  0  0  0
    7.1726    0.0547   18.5892 C   0  0  0  0  0  0  0  0  0  0  0  0
    8.1216   -0.4336   18.3708 H   0  0  0  0  0  0  0  0  0  0  0  0
    6.6468    0.0115   19.8926 C   0  0  0  0  0  0  0  0  0  0  0  0
    7.4047   -0.6985   20.9178 C   0  0  0  0  0  0  0  0  0  0  0  0
    8.3294   -1.6012   20.6993 N   0  0  0  0  0  0  0  0  0  0  0  0
    8.8321   -2.0376   21.9043 N   0  0  0  0  0  0  0  0  0  0  0  0
    8.2026   -1.3562   22.8208 C   0  0  0  0  0  0  0  0  0  0  0  0
    8.2606   -1.1011   24.5347 S   0  0  0  0  0  0  0  0  0  0  0  0
    7.0325    0.1693   24.3212 C   0  0  0  0  0  0  0  0  0  0  0  0
    6.5333    0.9622   25.4609 C   0  0  0  0  0  0  0  0  0  0  0  0
    5.5470    1.9762   25.2315 C   0  0  0  0  0  0  0  0  0  0  0  0
    5.1893    2.1400   24.2172 H   0  0  0  0  0  0  0  0  0  0  0  0
    5.0459    2.7489   26.2678 C   0  0  0  0  0  0  0  0  0  0  0  0
    4.2976    3.5210   26.1022 H   0  0  0  0  0  0  0  0  0  0  0  0
    5.5432    2.5019   27.5597 C   0  0  0  0  0  0  0  0  0  0  0  0
    6.5170    1.5089   27.8165 C   0  0  0  0  0  0  0  0  0  0  0  0
    7.0122    0.7370   26.7598 C   0  0  0  0  0  0  0  0  0  0  0  0
    7.7625   -0.0200   26.9863 H   0  0  0  0  0  0  0  0  0  0  0  0
    6.7822    1.5387   29.2262 C   0  0  0  0  0  0  0  0  0  0  0  0
    7.4827    0.8959   29.7406 H   0  0  0  0  0  0  0  0  0  0  0  0
    5.9929    2.5106   29.7662 C   0  0  0  0  0  0  0  0  0  0  0  0
    5.8995    2.8374   30.7976 H   0  0  0  0  0  0  0  0  0  0  0  0
    5.2443    3.0933   28.7582 N   0  0  0  0  0  0  0  0  0  0  0  0
    4.5755    3.8347   28.8575 H   0  0  0  0  0  0  0  0  0  0  0  0
    6.6238    0.3476   23.1012 N   0  0  0  0  0  0  0  0  0  0  0  0
    7.2757   -0.5173   22.2793 N   0  0  0  0  0  0  0  0  0  0  0  0
    5.4302    0.6525   20.1618 C   0  0  0  0  0  0  0  0  0  0  0  0
    5.0091    0.6374   21.1694 H   0  0  0  0  0  0  0  0  0  0  0  0
    4.8047    1.3076   19.1060 C   0  0  0  0  0  0  0  0  0  0  0  0
    3.8747    1.8427   19.2578 H   0  0  0  0  0  0  0  0  0  0  0  0
  1  2  1  0
  2  3  2  0
  3  4  1  0
  4  5  1  0
  4  6  2  0
  6  7  1  0
  7  8  2  0
  8  9  1  0
  9 10  2  0
 10 11  1  0
 11 12  1  0
 12 13  1  0
 13 14  2  0
 14 15  1  0
 14 16  1  0
 16 17  1  0
 16 18  2  0
 18 19  1  0
 19 20  2  0
 20 21  1  0
 19 22  1  0
 22 23  1  0
 22 24  2  0
 24 25  1  0
 24 26  1  0
 26 27  1  0
 12 28  2  0
 28 29  1  0
  6 30  1  0
 30 31  1  0
 30 32  2  0
 32 33  1  0
 32  2  1  0
 29  7  1  0
 29 10  1  0
 20 13  1  0
 26 18  1  0
M  END
>  <cnnaffinity>  (1) 
-5.46653

>  <filename>  (1) 
c1cncc(-c2nnc3sc(-c4ccc5[nH]ccc5c4)nn23)c1

$$$$
