
     RDKit          3D

 39 41  0  0  0  0  0  0  0  0999 V2000
    5.1115    1.7951   16.9112 H   0  0  0  0  0  0  0  0  0  0  0  0
    5.5286    1.2742   17.7703 C   0  0  0  0  0  0  0  0  0  0  0  0
    6.6656    0.5950   17.5526 N   0  0  0  0  0  0  0  0  0  0  0  0
    7.2011   -0.0400   18.6048 C   0  0  0  0  0  0  0  0  0  0  0  0
    8.1348   -0.5679   18.4164 H   0  0  0  0  0  0  0  0  0  0  0  0
    6.6356   -0.0567   19.9014 C   0  0  0  0  0  0  0  0  0  0  0  0
    7.2823   -0.7683   21.0126 C   0  0  0  0  0  0  0  0  0  0  0  0
    8.6167   -0.8615   21.3565 C   0  0  0  0  0  0  0  0  0  0  0  0
    9.6338   -0.1442   20.7057 N   0  0  0  0  0  0  0  0  0  0  0  0
    9.2764    0.7962   20.5215 H   0  0  0  0  0  0  0  0  0  0  0  0
   10.9104   -0.1179   21.3972 C   0  0  0  0  0  0  0  0  0  0  0  0
   11.6966    0.0897   20.6760 H   0  0  0  0  0  0  0  0  0  0  0  0
   11.1100   -1.1335   21.7595 H   0  0  0  0  0  0  0  0  0  0  0  0
   11.0002    0.9043   22.5385 C   0  0  0  0  0  0  0  0  0  0  0  0
   10.3041    0.5977   23.3388 H   0  0  0  0  0  0  0  0  0  0  0  0
   10.5605    2.3210   22.0638 C   0  0  0  0  0  0  0  0  0  0  0  0
   10.7978    2.4581   20.9964 H   0  0  0  0  0  0  0  0  0  0  0  0
    9.4654    2.3812   22.1529 H   0  0  0  0  0  0  0  0  0  0  0  0
   11.1920    3.4944   22.8462 C   0  0  0  0  0  0  0  0  0  0  0  0
   10.4889    4.3381   22.8572 H   0  0  0  0  0  0  0  0  0  0  0  0
   12.0921    3.8455   22.3206 H   0  0  0  0  0  0  0  0  0  0  0  0
   11.5837    3.0878   24.2702 C   0  0  0  0  0  0  0  0  0  0  0  0
   12.0022    3.9514   24.8015 H   0  0  0  0  0  0  0  0  0  0  0  0
   10.6803    2.7901   24.8254 H   0  0  0  0  0  0  0  0  0  0  0  0
   12.6100    1.9279   24.2611 C   0  0  0  0  0  0  0  0  0  0  0  0
   12.5807    1.4174   25.2290 H   0  0  0  0  0  0  0  0  0  0  0  0
   13.6218    2.3317   24.1496 H   0  0  0  0  0  0  0  0  0  0  0  0
   12.4201    0.9102   23.1156 C   0  0  0  0  0  0  0  0  0  0  0  0
   13.1204    1.1388   22.2950 H   0  0  0  0  0  0  0  0  0  0  0  0
   12.6707   -0.0978   23.4698 H   0  0  0  0  0  0  0  0  0  0  0  0
    8.6428   -1.7678   22.4548 C   0  0  0  0  0  0  0  0  0  0  0  0
    9.4960   -2.1115   23.0234 H   0  0  0  0  0  0  0  0  0  0  0  0
    7.4195   -2.1626   22.7957 N   0  0  0  0  0  0  0  0  0  0  0  0
    6.6150   -1.5355   21.9220 N   0  0  0  0  0  0  0  0  0  0  0  0
    5.6148   -1.6037   22.0386 H   0  0  0  0  0  0  0  0  0  0  0  0
    5.4415    0.6541   20.0960 C   0  0  0  0  0  0  0  0  0  0  0  0
    4.9857    0.6878   21.0892 H   0  0  0  0  0  0  0  0  0  0  0  0
    4.8839    1.3301   19.0130 C   0  0  0  0  0  0  0  0  0  0  0  0
    3.9727    1.9078   19.1218 H   0  0  0  0  0  0  0  0  0  0  0  0
  1  2  1  0
  2  3  2  0
  3  4  1  0
  4  5  1  0
  4  6  2  0
  6  7  1  0
  7  8  2  0
  8  9  1  0
  9 10  1  0
  9 11  1  0
 11 12  1  0
 11 13  1  0
 11 14  1  0
 14 15  1  0
 14 16  1  0
 16 17  1  0
 16 18  1  0
 16 19  1  0
 19 20  1  0
 19 21  1  0
 19 22  1  0
 22 23  1  0
 22 24  1  0
 22 25  1  0
 25 26  1  0
 25 27  1  0
 25 28  1  0
 28 29  1  0
 28 30  1  0
  8 31  1  0
 31 32  1  0
 31 33  2  0
 33 34  1  0
 34 35  1  0
  6 36  1  0
 36 37  1  0
 36 38  2  0
 38 39  1  0
 38  2  1  0
 34  7  1  0
 28 14  1  0
M  END
>  <cnnaffinity>  (1) 
-5.66738

>  <filename>  (1) 
c1cncc(-c2[nH]ncc2NCC2CCCCC2)c1

$$$$
