
     RDKit          3D

 32 35  0  0  0  0  0  0  0  0999 V2000
    4.9156    1.7825   16.9963 H   0  0  0  0  0  0  0  0  0  0  0  0
    5.3999    1.2939   17.8395 C   0  0  0  0  0  0  0  0  0  0  0  0
    6.5649    0.6780   17.5743 N   0  0  0  0  0  0  0  0  0  0  0  0
    7.1695    0.0610   18.5923 C   0  0  0  0  0  0  0  0  0  0  0  0
    8.1157   -0.4284   18.3706 H   0  0  0  0  0  0  0  0  0  0  0  0
    6.6686    0.0068   19.9110 C   0  0  0  0  0  0  0  0  0  0  0  0
    7.4032   -0.6926   20.9832 C   0  0  0  0  0  0  0  0  0  0  0  0
    8.2433   -2.1772   20.7854 S   0  0  0  0  0  0  0  0  0  0  0  0
    8.7196   -2.3497   22.3593 N   0  0  0  0  0  0  0  0  0  0  0  0
    8.2753   -1.3231   23.0280 C   0  0  0  0  0  0  0  0  0  0  0  0
    8.5093   -1.2390   24.0863 H   0  0  0  0  0  0  0  0  0  0  0  0
    7.5167   -0.3376   22.3105 C   0  0  0  0  0  0  0  0  0  0  0  0
    7.0522    0.9209   22.8953 C   0  0  0  0  0  0  0  0  0  0  0  0
    7.5076    2.1373   22.4098 C   0  0  0  0  0  0  0  0  0  0  0  0
    8.2075    2.1394   21.5776 H   0  0  0  0  0  0  0  0  0  0  0  0
    7.1763    3.3521   22.9160 N   0  0  0  0  0  0  0  0  0  0  0  0
    6.3351    3.3613   23.9288 C   0  0  0  0  0  0  0  0  0  0  0  0
    6.0633    4.3303   24.3350 H   0  0  0  0  0  0  0  0  0  0  0  0
    5.7639    2.2004   24.5307 C   0  0  0  0  0  0  0  0  0  0  0  0
    4.8462    2.2616   25.6257 C   0  0  0  0  0  0  0  0  0  0  0  0
    4.5777    3.2328   26.0379 H   0  0  0  0  0  0  0  0  0  0  0  0
    4.3073    1.1099   26.1492 C   0  0  0  0  0  0  0  0  0  0  0  0
    3.6066    1.1544   26.9798 H   0  0  0  0  0  0  0  0  0  0  0  0
    4.6697   -0.1578   25.6216 C   0  0  0  0  0  0  0  0  0  0  0  0
    4.2170   -1.0657   26.0134 H   0  0  0  0  0  0  0  0  0  0  0  0
    5.5934   -0.2415   24.6044 C   0  0  0  0  0  0  0  0  0  0  0  0
    5.8341   -1.2022   24.1518 H   0  0  0  0  0  0  0  0  0  0  0  0
    6.1448    0.9309   24.0089 C   0  0  0  0  0  0  0  0  0  0  0  0
    5.4412    0.6493   20.1612 C   0  0  0  0  0  0  0  0  0  0  0  0
    5.0154    0.6344   21.1692 H   0  0  0  0  0  0  0  0  0  0  0  0
    4.8044    1.3063   19.1060 C   0  0  0  0  0  0  0  0  0  0  0  0
    3.8734    1.8431   19.2573 H   0  0  0  0  0  0  0  0  0  0  0  0
  1  2  1  0
  2  3  2  0
  3  4  1  0
  4  5  1  0
  4  6  2  0
  6  7  1  0
  7  8  1  0
  8  9  1  0
  9 10  2  0
 10 11  1  0
 10 12  1  0
 12 13  1  0
 13 14  2  0
 14 15  1  0
 14 16  1  0
 16 17  2  0
 17 18  1  0
 17 19  1  0
 19 20  2  0
 20 21  1  0
 20 22  1  0
 22 23  1  0
 22 24  2  0
 24 25  1  0
 24 26  1  0
 26 27  1  0
 26 28  2  0
  6 29  1  0
 29 30  1  0
 29 31  2  0
 31 32  1  0
 31  2  1  0
 12  7  2  0
 28 13  1  0
 28 19  1  0
M  END
>  <cnnaffinity>  (1) 
-4.7706

>  <filename>  (1) 
c1cncc(-c2sncc2-c2cncc3ccccc23)c1

$$$$
