
     RDKit          3D

 30 33  0  0  0  0  0  0  0  0999 V2000
    4.9345    1.8069   16.9784 H   0  0  0  0  0  0  0  0  0  0  0  0
    5.3939    1.3014   17.8256 C   0  0  0  0  0  0  0  0  0  0  0  0
    6.5506    0.6669   17.5721 N   0  0  0  0  0  0  0  0  0  0  0  0
    7.1507    0.0437   18.5889 C   0  0  0  0  0  0  0  0  0  0  0  0
    8.0945   -0.4507   18.3638 H   0  0  0  0  0  0  0  0  0  0  0  0
    6.6435    0.0334   19.8957 C   0  0  0  0  0  0  0  0  0  0  0  0
    7.3909   -0.6183   20.9567 C   0  0  0  0  0  0  0  0  0  0  0  0
    7.8087   -1.9210   20.8178 N   0  0  0  0  0  0  0  0  0  0  0  0
    8.3430   -2.1911   21.9750 C   0  0  0  0  0  0  0  0  0  0  0  0
    9.0965   -3.5977   22.6657 S   0  0  0  0  0  0  0  0  0  0  0  0
    9.5013   -2.6826   24.1080 C   0  0  0  0  0  0  0  0  0  0  0  0
   10.0835   -3.1677   24.8824 H   0  0  0  0  0  0  0  0  0  0  0  0
    9.0299   -1.4253   24.0710 C   0  0  0  0  0  0  0  0  0  0  0  0
    9.0830   -0.6647   24.8462 H   0  0  0  0  0  0  0  0  0  0  0  0
    8.3672   -1.1412   22.8700 N   0  0  0  0  0  0  0  0  0  0  0  0
    7.7547   -0.0845   22.2055 C   0  0  0  0  0  0  0  0  0  0  0  0
    7.6235    1.1521   22.7335 N   0  0  0  0  0  0  0  0  0  0  0  0
    7.2226    2.4142   22.1021 C   0  0  0  0  0  0  0  0  0  0  0  0
    7.7313    2.6462   21.1567 H   0  0  0  0  0  0  0  0  0  0  0  0
    6.1476    2.5161   21.9062 H   0  0  0  0  0  0  0  0  0  0  0  0
    7.7405    3.1455   23.3680 C   0  0  0  0  0  0  0  0  0  0  0  0
    6.9539    3.6489   23.9387 H   0  0  0  0  0  0  0  0  0  0  0  0
    8.5656    3.8430   23.1936 H   0  0  0  0  0  0  0  0  0  0  0  0
    8.1592    1.7679   23.9415 C   0  0  0  0  0  0  0  0  0  0  0  0
    7.6525    1.4541   24.8635 H   0  0  0  0  0  0  0  0  0  0  0  0
    9.2368    1.6247   24.0965 H   0  0  0  0  0  0  0  0  0  0  0  0
    5.4130    0.6611   20.1365 C   0  0  0  0  0  0  0  0  0  0  0  0
    4.9750    0.6405   21.1359 H   0  0  0  0  0  0  0  0  0  0  0  0
    4.7831    1.3203   19.0839 C   0  0  0  0  0  0  0  0  0  0  0  0
    3.8504    1.8548   19.2277 H   0  0  0  0  0  0  0  0  0  0  0  0
  1  2  1  0
  2  3  2  0
  3  4  1  0
  4  5  1  0
  4  6  2  0
  6  7  1  0
  7  8  1  0
  8  9  2  0
  9 10  1  0
 10 11  1  0
 11 12  1  0
 11 13  2  0
 13 14  1  0
 13 15  1  0
 15 16  1  0
 16 17  1  0
 17 18  1  0
 18 19  1  0
 18 20  1  0
 18 21  1  0
 21 22  1  0
 21 23  1  0
 21 24  1  0
 24 25  1  0
 24 26  1  0
  6 27  1  0
 27 28  1  0
 27 29  2  0
 29 30  1  0
 29  2  1  0
 16  7  2  0
 24 17  1  0
 15  9  1  0
M  END
>  <cnnaffinity>  (1) 
-5.16724

>  <filename>  (1) 
c1cncc(-c2nc3sccn3c2N2CCC2)c1

$$$$
