
     RDKit          3D

 33 36  0  0  0  0  0  0  0  0999 V2000
    4.9134    1.8103   16.9698 H   0  0  0  0  0  0  0  0  0  0  0  0
    5.3833    1.3088   17.8148 C   0  0  0  0  0  0  0  0  0  0  0  0
    6.5467    0.6893   17.5545 N   0  0  0  0  0  0  0  0  0  0  0  0
    7.1563    0.0697   18.5716 C   0  0  0  0  0  0  0  0  0  0  0  0
    8.1119   -0.3934   18.3259 H   0  0  0  0  0  0  0  0  0  0  0  0
    6.6561    0.0190   19.8921 C   0  0  0  0  0  0  0  0  0  0  0  0
    7.3729   -0.6600   20.9892 C   0  0  0  0  0  0  0  0  0  0  0  0
    7.5455   -0.3414   22.3310 C   0  0  0  0  0  0  0  0  0  0  0  0
    7.0825    0.8396   22.9185 N   0  0  0  0  0  0  0  0  0  0  0  0
    6.9478    1.6097   22.2819 H   0  0  0  0  0  0  0  0  0  0  0  0
    6.9277    1.1275   24.2391 C   0  0  0  0  0  0  0  0  0  0  0  0
    7.0237    0.0919   25.1136 O   0  0  0  0  0  0  0  0  0  0  0  0
    6.8003    0.6285   26.3604 C   0  0  0  0  0  0  0  0  0  0  0  0
    6.7769   -0.0479   27.5780 C   0  0  0  0  0  0  0  0  0  0  0  0
    6.9393   -1.1206   27.6570 H   0  0  0  0  0  0  0  0  0  0  0  0
    6.5288    0.7317   28.7110 C   0  0  0  0  0  0  0  0  0  0  0  0
    6.5001    0.2610   29.6893 H   0  0  0  0  0  0  0  0  0  0  0  0
    6.3142    2.1225   28.6242 C   0  0  0  0  0  0  0  0  0  0  0  0
    6.1239    2.6934   29.5283 H   0  0  0  0  0  0  0  0  0  0  0  0
    6.3401    2.7703   27.3949 C   0  0  0  0  0  0  0  0  0  0  0  0
    6.1757    3.8400   27.3100 H   0  0  0  0  0  0  0  0  0  0  0  0
    6.5829    2.0134   26.2394 C   0  0  0  0  0  0  0  0  0  0  0  0
    6.6705    2.3171   24.8337 C   0  0  0  0  0  0  0  0  0  0  0  0
    6.5754    3.2812   24.3592 H   0  0  0  0  0  0  0  0  0  0  0  0
    8.3016   -1.4112   22.8801 C   0  0  0  0  0  0  0  0  0  0  0  0
    8.6409   -1.5228   23.9012 H   0  0  0  0  0  0  0  0  0  0  0  0
    8.5773   -2.3256   21.9535 N   0  0  0  0  0  0  0  0  0  0  0  0
    8.0184   -1.8500   20.8301 N   0  0  0  0  0  0  0  0  0  0  0  0
    8.0561   -2.3983   19.9832 H   0  0  0  0  0  0  0  0  0  0  0  0
    5.4300    0.6640   20.1339 C   0  0  0  0  0  0  0  0  0  0  0  0
    5.0039    0.6266   21.1361 H   0  0  0  0  0  0  0  0  0  0  0  0
    4.7892    1.3203   19.0810 C   0  0  0  0  0  0  0  0  0  0  0  0
    3.8579    1.8519   19.2333 H   0  0  0  0  0  0  0  0  0  0  0  0
  1  2  1  0
  2  3  2  0
  3  4  1  0
  4  5  1  0
  4  6  2  0
  6  7  1  0
  7  8  2  0
  8  9  1  0
  9 10  1  0
  9 11  1  0
 11 12  1  0
 12 13  1  0
 13 14  2  0
 14 15  1  0
 14 16  1  0
 16 17  1  0
 16 18  2  0
 18 19  1  0
 18 20  1  0
 20 21  1  0
 20 22  2  0
 22 23  1  0
 23 24  1  0
  8 25  1  0
 25 26  1  0
 25 27  2  0
 27 28  1  0
 28 29  1  0
  6 30  1  0
 30 31  1  0
 30 32  2  0
 32 33  1  0
 32  2  1  0
 28  7  1  0
 23 11  2  0
 22 13  1  0
M  END
>  <cnnaffinity>  (1) 
-5.43002

>  <filename>  (1) 
c1cncc(-c2[nH]ncc2Nc2cc3ccccc3o2)c1

$$$$
