
     RDKit          3D

 26 29  0  0  0  0  0  0  0  0999 V2000
    5.4699   -1.5900   28.3514 H   0  0  0  0  0  0  0  0  0  0  0  0
    5.8156   -1.5129   27.3233 C   0  0  0  0  0  0  0  0  0  0  0  0
    5.1713   -0.8809   26.3855 N   0  0  0  0  0  0  0  0  0  0  0  0
    5.8632   -0.9637   25.2030 C   0  0  0  0  0  0  0  0  0  0  0  0
    5.4812   -0.4804   24.3150 H   0  0  0  0  0  0  0  0  0  0  0  0
    7.0438   -1.6620   25.2227 C   0  0  0  0  0  0  0  0  0  0  0  0
    8.0010   -1.9325   24.1571 C   0  0  0  0  0  0  0  0  0  0  0  0
    9.1627   -2.6364   24.2427 C   0  0  0  0  0  0  0  0  0  0  0  0
    9.5606   -3.1102   25.1281 H   0  0  0  0  0  0  0  0  0  0  0  0
   10.0363   -2.7374   22.7457 S   0  0  0  0  0  0  0  0  0  0  0  0
    8.7945   -1.8007   21.9677 C   0  0  0  0  0  0  0  0  0  0  0  0
    8.5449   -1.3296   20.7653 N   0  0  0  0  0  0  0  0  0  0  0  0
    7.3625   -0.6906   20.9698 C   0  0  0  0  0  0  0  0  0  0  0  0
    6.6532    0.0116   19.9088 C   0  0  0  0  0  0  0  0  0  0  0  0
    7.1851    0.0544   18.6128 C   0  0  0  0  0  0  0  0  0  0  0  0
    8.1313   -0.4365   18.3828 H   0  0  0  0  0  0  0  0  0  0  0  0
    6.5748    0.6739   17.5954 N   0  0  0  0  0  0  0  0  0  0  0  0
    5.4055    1.2878   17.8486 C   0  0  0  0  0  0  0  0  0  0  0  0
    4.9104    1.7703   17.0071 H   0  0  0  0  0  0  0  0  0  0  0  0
    4.8057    1.3103   19.1131 C   0  0  0  0  0  0  0  0  0  0  0  0
    3.8720    1.8451   19.2670 H   0  0  0  0  0  0  0  0  0  0  0  0
    5.4360    0.6549   20.1632 C   0  0  0  0  0  0  0  0  0  0  0  0
    5.0059    0.6300   21.1623 H   0  0  0  0  0  0  0  0  0  0  0  0
    6.8743   -0.7429   22.2095 N   0  0  0  0  0  0  0  0  0  0  0  0
    7.8236   -1.4713   22.8438 N   0  0  0  0  0  0  0  0  0  0  0  0
    7.3003   -2.2489   26.8325 S   0  0  0  0  0  0  0  0  0  0  0  0
  1  2  1  0
  2  3  2  0
  3  4  1  0
  4  5  1  0
  4  6  2  0
  6  7  1  0
  7  8  2  0
  8  9  1  0
  8 10  1  0
 10 11  1  0
 11 12  2  0
 12 13  1  0
 13 14  1  0
 14 15  2  0
 15 16  1  0
 15 17  1  0
 17 18  2  0
 18 19  1  0
 18 20  1  0
 20 21  1  0
 20 22  2  0
 22 23  1  0
 13 24  2  0
 24 25  1  0
  6 26  1  0
 26  2  1  0
 25  7  1  0
 25 11  1  0
 22 14  1  0
M  END
>  <cnnaffinity>  (1) 
-5.31793

>  <filename>  (1) 
c1cncc(-c2nc3scc(-c4cncs4)n3n2)c1

$$$$
