
     RDKit          3D

 32 34  0  0  0  0  0  0  0  0999 V2000
    4.9160    1.7867   16.9916 H   0  0  0  0  0  0  0  0  0  0  0  0
    5.4002    1.2964   17.8343 C   0  0  0  0  0  0  0  0  0  0  0  0
    6.5597    0.6776   17.5701 N   0  0  0  0  0  0  0  0  0  0  0  0
    7.1713    0.0713   18.5941 C   0  0  0  0  0  0  0  0  0  0  0  0
    8.1126   -0.4281   18.3670 H   0  0  0  0  0  0  0  0  0  0  0  0
    6.6628    0.0173   19.9070 C   0  0  0  0  0  0  0  0  0  0  0  0
    7.3648   -0.7107   20.9788 C   0  0  0  0  0  0  0  0  0  0  0  0
    6.6621   -1.9210   21.9471 S   0  0  0  0  0  0  0  0  0  0  0  0
    8.0673   -2.1520   22.8488 N   0  0  0  0  0  0  0  0  0  0  0  0
    8.9988   -1.3789   22.4571 N   0  0  0  0  0  0  0  0  0  0  0  0
    8.6642   -0.5449   21.4199 C   0  0  0  0  0  0  0  0  0  0  0  0
    9.6403    0.5128   20.9725 C   0  0  0  0  0  0  0  0  0  0  0  0
    9.4636    0.7301   19.9147 H   0  0  0  0  0  0  0  0  0  0  0  0
   10.6553    0.1037   21.0432 H   0  0  0  0  0  0  0  0  0  0  0  0
    9.6033    1.7888   21.6985 N   0  0  0  0  0  0  0  0  0  0  0  0
    8.3019    2.4709   21.5859 C   0  0  0  0  0  0  0  0  0  0  0  0
    7.4682    1.8952   22.0220 H   0  0  0  0  0  0  0  0  0  0  0  0
    8.0646    2.5723   20.5262 H   0  0  0  0  0  0  0  0  0  0  0  0
    8.3417    3.8214   22.3162 C   0  0  0  0  0  0  0  0  0  0  0  0
    7.3688    4.3188   22.2801 H   0  0  0  0  0  0  0  0  0  0  0  0
    9.0590    4.5016   21.8590 H   0  0  0  0  0  0  0  0  0  0  0  0
    8.6990    3.6721   23.6884 O   0  0  0  0  0  0  0  0  0  0  0  0
    9.9647    3.0268   23.7909 C   0  0  0  0  0  0  0  0  0  0  0  0
   10.1727    2.9224   24.8574 H   0  0  0  0  0  0  0  0  0  0  0  0
   10.7517    3.6491   23.3366 H   0  0  0  0  0  0  0  0  0  0  0  0
    9.9618    1.6555   23.1177 C   0  0  0  0  0  0  0  0  0  0  0  0
   10.9531    1.1944   23.1924 H   0  0  0  0  0  0  0  0  0  0  0  0
    9.2599    0.9931   23.6497 H   0  0  0  0  0  0  0  0  0  0  0  0
    5.4381    0.6563   20.1574 C   0  0  0  0  0  0  0  0  0  0  0  0
    5.0073    0.6358   21.1609 H   0  0  0  0  0  0  0  0  0  0  0  0
    4.8058    1.3124   19.1006 C   0  0  0  0  0  0  0  0  0  0  0  0
    3.8730    1.8429   19.2546 H   0  0  0  0  0  0  0  0  0  0  0  0
  1  2  1  0
  2  3  2  0
  3  4  1  0
  4  5  1  0
  4  6  2  0
  6  7  1  0
  7  8  1  0
  8  9  1  0
  9 10  2  0
 10 11  1  0
 11 12  1  0
 12 13  1  0
 12 14  1  0
 12 15  1  0
 15 16  1  0
 16 17  1  0
 16 18  1  0
 16 19  1  0
 19 20  1  0
 19 21  1  0
 19 22  1  0
 22 23  1  0
 23 24  1  0
 23 25  1  0
 23 26  1  0
 26 27  1  0
 26 28  1  0
  6 29  1  0
 29 30  1  0
 29 31  2  0
 31 32  1  0
 31  2  1  0
 11  7  2  0
 26 15  1  0
M  END
>  <cnnaffinity>  (1) 
-4.66474

>  <filename>  (1) 
c1cncc(-c2snnc2CN2CCOCC2)c1

$$$$
