
     RDKit          3D

 29 32  0  0  0  0  0  0  0  0999 V2000
    4.9708    1.8407   16.9405 H   0  0  0  0  0  0  0  0  0  0  0  0
    5.4129    1.3013   17.7713 C   0  0  0  0  0  0  0  0  0  0  0  0
    6.5626    0.6606   17.5127 N   0  0  0  0  0  0  0  0  0  0  0  0
    7.1415   -0.0008   18.5192 C   0  0  0  0  0  0  0  0  0  0  0  0
    8.0948   -0.4792   18.2962 H   0  0  0  0  0  0  0  0  0  0  0  0
    6.6082   -0.0553   19.8205 C   0  0  0  0  0  0  0  0  0  0  0  0
    7.3716   -0.6619   20.9251 C   0  0  0  0  0  0  0  0  0  0  0  0
    8.5006   -1.3614   20.7121 N   0  0  0  0  0  0  0  0  0  0  0  0
    8.9242   -1.6325   21.9637 N   0  0  0  0  0  0  0  0  0  0  0  0
   10.0915   -2.1691   22.5042 C   0  0  0  0  0  0  0  0  0  0  0  0
   10.8497   -2.5784   21.8638 H   0  0  0  0  0  0  0  0  0  0  0  0
   10.0198   -1.9718   23.8406 C   0  0  0  0  0  0  0  0  0  0  0  0
   10.7066   -2.1717   24.6488 H   0  0  0  0  0  0  0  0  0  0  0  0
    8.7963   -1.3547   24.1175 N   0  0  0  0  0  0  0  0  0  0  0  0
    8.3835   -0.8930   25.3547 N   0  0  0  0  0  0  0  0  0  0  0  0
    9.2523   -0.5081   26.3051 N   0  0  0  0  0  0  0  0  0  0  0  0
    8.4900    0.0348   27.2447 C   0  0  0  0  0  0  0  0  0  0  0  0
    8.9333    0.4553   28.1352 H   0  0  0  0  0  0  0  0  0  0  0  0
    7.1213    0.0006   26.8966 C   0  0  0  0  0  0  0  0  0  0  0  0
    6.2921    0.4143   27.4494 H   0  0  0  0  0  0  0  0  0  0  0  0
    7.0931   -0.6173   25.6772 C   0  0  0  0  0  0  0  0  0  0  0  0
    6.3132   -0.8860   24.9740 H   0  0  0  0  0  0  0  0  0  0  0  0
    8.1336   -1.1311   22.9246 C   0  0  0  0  0  0  0  0  0  0  0  0
    7.0644   -0.5038   22.2969 C   0  0  0  0  0  0  0  0  0  0  0  0
    6.2370    0.0397   22.7216 H   0  0  0  0  0  0  0  0  0  0  0  0
    5.3912    0.6094   20.0633 C   0  0  0  0  0  0  0  0  0  0  0  0
    4.9442    0.6370   21.0583 H   0  0  0  0  0  0  0  0  0  0  0  0
    4.7872    1.2999   19.0208 C   0  0  0  0  0  0  0  0  0  0  0  0
    3.8715    1.8601   19.1743 H   0  0  0  0  0  0  0  0  0  0  0  0
  1  2  1  0
  2  3  2  0
  3  4  1  0
  4  5  1  0
  4  6  2  0
  6  7  1  0
  7  8  2  0
  8  9  1  0
  9 10  1  0
 10 11  1  0
 10 12  2  0
 12 13  1  0
 12 14  1  0
 14 15  1  0
 15 16  1  0
 16 17  2  0
 17 18  1  0
 17 19  1  0
 19 20  1  0
 19 21  2  0
 21 22  1  0
 14 23  1  0
 23 24  2  0
 24 25  1  0
  6 26  1  0
 26 27  1  0
 26 28  2  0
 28 29  1  0
 28  2  1  0
 24  7  1  0
 23  9  1  0
 21 15  1  0
M  END
>  <cnnaffinity>  (1) 
-5.14787

>  <filename>  (1) 
c1cncc(-c2cc3n(-n4cccn4)ccn3n2)c1

$$$$
