
     RDKit          3D

 37 39  0  0  0  0  0  0  0  0999 V2000
    4.7855    1.3141   19.0427 C   0  0  0  0  0  0  0  0  0  0  0  0
    5.3950    1.3151   17.7837 C   0  0  0  0  0  0  0  0  0  0  0  0
    6.5496    0.6825   17.5237 N   0  0  0  0  0  0  0  0  0  0  0  0
    7.1367    0.0440   18.5433 C   0  0  0  0  0  0  0  0  0  0  0  0
    6.6267   -0.0236   19.8543 C   0  0  0  0  0  0  0  0  0  0  0  0
    7.4122   -0.7158   20.9480 C   0  0  0  0  0  0  0  0  0  0  0  0
    8.6280    0.1005   21.4612 C   0  0  0  0  0  0  0  0  0  0  0  0
    9.4969   -0.7036   22.4514 C   0  0  0  0  0  0  0  0  0  0  0  0
    8.8105   -0.9068   23.8057 C   0  0  0  0  0  0  0  0  0  0  0  0
    8.4561    0.4049   24.3646 N   0  0  0  0  0  0  0  0  0  0  0  0
    8.3432    0.5616   25.7373 C   0  0  0  0  0  0  0  0  0  0  0  0
    8.2176    1.8748   26.2871 C   0  0  0  0  0  0  0  0  0  0  0  0
    8.0093    1.9917   27.6426 C   0  0  0  0  0  0  0  0  0  0  0  0
    7.9812    0.8044   28.3964 C   0  0  0  0  0  0  0  0  0  0  0  0
    8.1584   -0.3945   27.8513 N   0  0  0  0  0  0  0  0  0  0  0  0
    8.3525   -0.5192   26.5287 N   0  0  0  0  0  0  0  0  0  0  0  0
    7.8122    0.8284   29.4663 H   0  0  0  0  0  0  0  0  0  0  0  0
    7.8572    2.9535   28.1291 H   0  0  0  0  0  0  0  0  0  0  0  0
    8.2761    2.7333   25.6341 H   0  0  0  0  0  0  0  0  0  0  0  0
    7.5504    1.1722   23.5025 C   0  0  0  0  0  0  0  0  0  0  0  0
    8.2136    1.4146   22.1494 C   0  0  0  0  0  0  0  0  0  0  0  0
    7.5472    2.0053   21.5106 H   0  0  0  0  0  0  0  0  0  0  0  0
    9.1063    2.0272   22.3219 H   0  0  0  0  0  0  0  0  0  0  0  0
    6.5790    0.6542   23.3893 H   0  0  0  0  0  0  0  0  0  0  0  0
    7.3118    2.1393   23.9492 H   0  0  0  0  0  0  0  0  0  0  0  0
    7.9155   -1.5496   23.7121 H   0  0  0  0  0  0  0  0  0  0  0  0
    9.4838   -1.4266   24.4928 H   0  0  0  0  0  0  0  0  0  0  0  0
    9.7855   -1.6699   22.0198 H   0  0  0  0  0  0  0  0  0  0  0  0
   10.4287   -0.1540   22.6399 H   0  0  0  0  0  0  0  0  0  0  0  0
    9.2500    0.3500   20.5887 H   0  0  0  0  0  0  0  0  0  0  0  0
    6.7391   -0.9505   21.7825 H   0  0  0  0  0  0  0  0  0  0  0  0
    7.7805   -1.6825   20.5787 H   0  0  0  0  0  0  0  0  0  0  0  0
    5.4109    0.6373   20.0929 C   0  0  0  0  0  0  0  0  0  0  0  0
    4.9673    0.6390   21.0935 H   0  0  0  0  0  0  0  0  0  0  0  0
    8.0835   -0.4471   18.3134 H   0  0  0  0  0  0  0  0  0  0  0  0
    4.9421    1.8475   16.9499 H   0  0  0  0  0  0  0  0  0  0  0  0
    3.8557    1.8510   19.1874 H   0  0  0  0  0  0  0  0  0  0  0  0
  1  2  2  0
  2  3  1  0
  3  4  2  0
  4  5  1  0
  5  6  1  0
  6  7  1  0
  7  8  1  0
  8  9  1  0
  9 10  1  0
 10 11  1  0
 11 12  2  0
 12 13  1  0
 13 14  2  0
 14 15  1  0
 15 16  2  0
 14 17  1  0
 13 18  1  0
 12 19  1  0
 10 20  1  0
 20 21  1  0
 21 22  1  0
 21 23  1  0
 20 24  1  0
 20 25  1  0
  9 26  1  0
  9 27  1  0
  8 28  1  0
  8 29  1  0
  7 30  1  0
  6 31  1  0
  6 32  1  0
  5 33  2  0
 33 34  1  0
  4 35  1  0
  2 36  1  0
  1 37  1  0
 33  1  1  0
 21  7  1  0
 16 11  1  0
M  END
>  <cnnaffinity>  (1) 
-4.7624

>  <filename>  (1) 
c1cncc(CC2CCN(c3cccnn3)CC2)c1

$$$$
