
     RDKit          3D

 36 39  0  0  0  0  0  0  0  0999 V2000
    4.9217    1.7774   17.0019 H   0  0  0  0  0  0  0  0  0  0  0  0
    5.4069    1.2911   17.8430 C   0  0  0  0  0  0  0  0  0  0  0  0
    6.5707    0.6745   17.5815 N   0  0  0  0  0  0  0  0  0  0  0  0
    7.1708    0.0462   18.5948 C   0  0  0  0  0  0  0  0  0  0  0  0
    8.1204   -0.4349   18.3730 H   0  0  0  0  0  0  0  0  0  0  0  0
    6.6490    0.0068   19.8960 C   0  0  0  0  0  0  0  0  0  0  0  0
    7.3676   -0.6894   20.9459 C   0  0  0  0  0  0  0  0  0  0  0  0
    8.0659   -1.8543   20.7171 N   0  0  0  0  0  0  0  0  0  0  0  0
    8.4672   -2.1981   21.9085 C   0  0  0  0  0  0  0  0  0  0  0  0
    9.4113   -3.4917   22.5857 S   0  0  0  0  0  0  0  0  0  0  0  0
    9.3479   -2.7680   24.1682 C   0  0  0  0  0  0  0  0  0  0  0  0
    9.8630   -3.2614   24.9807 H   0  0  0  0  0  0  0  0  0  0  0  0
    8.6232   -1.6389   24.1804 C   0  0  0  0  0  0  0  0  0  0  0  0
    8.4236   -0.9940   25.0283 H   0  0  0  0  0  0  0  0  0  0  0  0
    8.1069   -1.3337   22.9160 N   0  0  0  0  0  0  0  0  0  0  0  0
    7.4220   -0.3082   22.2898 C   0  0  0  0  0  0  0  0  0  0  0  0
    6.9486    0.8141   22.9267 N   0  0  0  0  0  0  0  0  0  0  0  0
    6.7729    0.7313   23.9176 H   0  0  0  0  0  0  0  0  0  0  0  0
    7.3297    2.1425   22.4742 C   0  0  0  0  0  0  0  0  0  0  0  0
    7.5186    2.0883   21.3968 H   0  0  0  0  0  0  0  0  0  0  0  0
    8.5782    2.6965   23.1665 C   0  0  0  0  0  0  0  0  0  0  0  0
    9.4953    2.3338   22.6931 H   0  0  0  0  0  0  0  0  0  0  0  0
    8.5943    2.3458   24.2051 H   0  0  0  0  0  0  0  0  0  0  0  0
    8.4382    4.2294   23.1128 C   0  0  0  0  0  0  0  0  0  0  0  0
    9.0636    4.6497   22.3198 H   0  0  0  0  0  0  0  0  0  0  0  0
    8.7761    4.6830   24.0487 H   0  0  0  0  0  0  0  0  0  0  0  0
    6.9429    4.5294   22.8335 C   0  0  0  0  0  0  0  0  0  0  0  0
    6.8364    5.0883   21.8985 H   0  0  0  0  0  0  0  0  0  0  0  0
    6.4971    5.1447   23.6190 H   0  0  0  0  0  0  0  0  0  0  0  0
    6.2349    3.1677   22.7391 C   0  0  0  0  0  0  0  0  0  0  0  0
    5.7422    2.9103   23.6834 H   0  0  0  0  0  0  0  0  0  0  0  0
    5.4698    3.1329   21.9555 H   0  0  0  0  0  0  0  0  0  0  0  0
    5.4340    0.6621   20.1588 C   0  0  0  0  0  0  0  0  0  0  0  0
    5.0118    0.6406   21.1675 H   0  0  0  0  0  0  0  0  0  0  0  0
    4.8037    1.3137   19.1070 C   0  0  0  0  0  0  0  0  0  0  0  0
    3.8708    1.8444   19.2572 H   0  0  0  0  0  0  0  0  0  0  0  0
  1  2  1  0
  2  3  2  0
  3  4  1  0
  4  5  1  0
  4  6  2  0
  6  7  1  0
  7  8  1  0
  8  9  2  0
  9 10  1  0
 10 11  1  0
 11 12  1  0
 11 13  2  0
 13 14  1  0
 13 15  1  0
 15 16  1  0
 16 17  1  0
 17 18  1  0
 17 19  1  0
 19 20  1  0
 19 21  1  0
 21 22  1  0
 21 23  1  0
 21 24  1  0
 24 25  1  0
 24 26  1  0
 24 27  1  0
 27 28  1  0
 27 29  1  0
 27 30  1  0
 30 31  1  0
 30 32  1  0
  6 33  1  0
 33 34  1  0
 33 35  2  0
 35 36  1  0
 35  2  1  0
 16  7  2  0
 30 19  1  0
 15  9  1  0
M  END
>  <cnnaffinity>  (1) 
-5.567

>  <filename>  (1) 
c1cncc(-c2nc3sccn3c2NC2CCCC2)c1

$$$$
