
     RDKit          3D

 33 36  0  0  0  0  0  0  0  0999 V2000
    4.9189    1.8225   16.9652 H   0  0  0  0  0  0  0  0  0  0  0  0
    5.3837    1.3084   17.8083 C   0  0  0  0  0  0  0  0  0  0  0  0
    6.5429    0.6841   17.5489 N   0  0  0  0  0  0  0  0  0  0  0  0
    7.1550    0.0650   18.5667 C   0  0  0  0  0  0  0  0  0  0  0  0
    8.0962   -0.4154   18.3107 H   0  0  0  0  0  0  0  0  0  0  0  0
    6.6712    0.0037   19.8937 C   0  0  0  0  0  0  0  0  0  0  0  0
    7.3947   -0.7115   20.9795 C   0  0  0  0  0  0  0  0  0  0  0  0
    8.7672   -1.1089   21.0701 C   0  0  0  0  0  0  0  0  0  0  0  0
    9.5776   -0.9475   20.3690 H   0  0  0  0  0  0  0  0  0  0  0  0
    9.0434   -1.7335   22.1938 N   0  0  0  0  0  0  0  0  0  0  0  0
    7.8664   -1.7636   22.8819 N   0  0  0  0  0  0  0  0  0  0  0  0
    7.7140   -2.3558   24.1805 C   0  0  0  0  0  0  0  0  0  0  0  0
    6.5258   -2.3267   24.7347 N   0  0  0  0  0  0  0  0  0  0  0  0
    6.3762   -2.9392   25.9519 C   0  0  0  0  0  0  0  0  0  0  0  0
    5.0956   -2.9022   26.5747 C   0  0  0  0  0  0  0  0  0  0  0  0
    4.3169   -2.3683   26.0399 H   0  0  0  0  0  0  0  0  0  0  0  0
    4.8961   -3.5097   27.7958 C   0  0  0  0  0  0  0  0  0  0  0  0
    3.9393   -3.4363   28.3100 H   0  0  0  0  0  0  0  0  0  0  0  0
    5.9632   -4.1979   28.4366 C   0  0  0  0  0  0  0  0  0  0  0  0
    5.8143   -4.6072   29.4322 H   0  0  0  0  0  0  0  0  0  0  0  0
    7.2127   -4.2440   27.8589 C   0  0  0  0  0  0  0  0  0  0  0  0
    8.0606   -4.6958   28.3692 H   0  0  0  0  0  0  0  0  0  0  0  0
    7.4511   -3.6016   26.6178 C   0  0  0  0  0  0  0  0  0  0  0  0
    8.7388   -3.5541   25.9981 C   0  0  0  0  0  0  0  0  0  0  0  0
    9.5949   -3.9987   26.5029 H   0  0  0  0  0  0  0  0  0  0  0  0
    8.8688   -2.9465   24.7822 C   0  0  0  0  0  0  0  0  0  0  0  0
    9.7904   -2.8995   24.2159 H   0  0  0  0  0  0  0  0  0  0  0  0
    6.8806   -1.1599   22.1726 C   0  0  0  0  0  0  0  0  0  0  0  0
    5.9026   -1.1274   22.6137 H   0  0  0  0  0  0  0  0  0  0  0  0
    5.4476    0.6605   20.1286 C   0  0  0  0  0  0  0  0  0  0  0  0
    5.0182    0.6694   21.1302 H   0  0  0  0  0  0  0  0  0  0  0  0
    4.7975    1.3175   19.0781 C   0  0  0  0  0  0  0  0  0  0  0  0
    3.8630    1.8489   19.2265 H   0  0  0  0  0  0  0  0  0  0  0  0
  1  2  1  0
  2  3  2  0
  3  4  1  0
  4  5  1  0
  4  6  2  0
  6  7  1  0
  7  8  1  0
  8  9  1  0
  8 10  2  0
 10 11  1  0
 11 12  1  0
 12 13  2  0
 13 14  1  0
 14 15  2  0
 15 16  1  0
 15 17  1  0
 17 18  1  0
 17 19  2  0
 19 20  1  0
 19 21  1  0
 21 22  1  0
 21 23  2  0
 23 24  1  0
 24 25  1  0
 24 26  2  0
 26 27  1  0
 11 28  1  0
 28 29  1  0
  6 30  1  0
 30 31  1  0
 30 32  2  0
 32 33  1  0
 32  2  1  0
 28  7  2  0
 26 12  1  0
 23 14  1  0
M  END
>  <cnnaffinity>  (1) 
-5.13621

>  <filename>  (1) 
c1cncc(-c2cnn(-c3ccc4ccccc4n3)c2)c1

$$$$
