
     RDKit          3D

 33 37  0  0  0  0  0  0  0  0999 V2000
    4.9124    1.7980   16.9797 H   0  0  0  0  0  0  0  0  0  0  0  0
    5.3864    1.3016   17.8228 C   0  0  0  0  0  0  0  0  0  0  0  0
    6.5506    0.6859   17.5589 N   0  0  0  0  0  0  0  0  0  0  0  0
    7.1540    0.0739   18.5803 C   0  0  0  0  0  0  0  0  0  0  0  0
    8.1063   -0.4010   18.3503 H   0  0  0  0  0  0  0  0  0  0  0  0
    6.6533    0.0256   19.9039 C   0  0  0  0  0  0  0  0  0  0  0  0
    7.3971   -0.6816   20.9561 C   0  0  0  0  0  0  0  0  0  0  0  0
    8.2969   -1.7160   20.8914 C   0  0  0  0  0  0  0  0  0  0  0  0
    8.6809   -2.1349   19.9876 H   0  0  0  0  0  0  0  0  0  0  0  0
    8.7702   -2.1261   22.1057 N   0  0  0  0  0  0  0  0  0  0  0  0
    8.1808   -1.3061   22.9296 C   0  0  0  0  0  0  0  0  0  0  0  0
    8.2540   -0.9546   24.6120 S   0  0  0  0  0  0  0  0  0  0  0  0
    7.1308    0.3800   24.3000 C   0  0  0  0  0  0  0  0  0  0  0  0
    6.6700    1.2670   25.3807 C   0  0  0  0  0  0  0  0  0  0  0  0
    5.7538    2.3324   25.0712 C   0  0  0  0  0  0  0  0  0  0  0  0
    5.4295    2.4570   24.0375 H   0  0  0  0  0  0  0  0  0  0  0  0
    5.2919    3.1871   26.0539 C   0  0  0  0  0  0  0  0  0  0  0  0
    4.6003    3.9948   25.8248 H   0  0  0  0  0  0  0  0  0  0  0  0
    5.7593    2.9691   27.3693 C   0  0  0  0  0  0  0  0  0  0  0  0
    6.6591    1.9292   27.6929 C   0  0  0  0  0  0  0  0  0  0  0  0
    6.8678    2.0627   29.0957 C   0  0  0  0  0  0  0  0  0  0  0  0
    7.4911    1.4581   29.7426 H   0  0  0  0  0  0  0  0  0  0  0  0
    6.1793    3.0710   29.5847 N   0  0  0  0  0  0  0  0  0  0  0  0
    5.5135    3.6105   28.5393 N   0  0  0  0  0  0  0  0  0  0  0  0
    4.9083    4.4037   28.6777 H   0  0  0  0  0  0  0  0  0  0  0  0
    7.1209    1.0673   26.6848 C   0  0  0  0  0  0  0  0  0  0  0  0
    7.8156    0.2682   26.9341 H   0  0  0  0  0  0  0  0  0  0  0  0
    6.7512    0.5211   23.0711 N   0  0  0  0  0  0  0  0  0  0  0  0
    7.3347   -0.4285   22.3169 N   0  0  0  0  0  0  0  0  0  0  0  0
    5.4257    0.6623   20.1505 C   0  0  0  0  0  0  0  0  0  0  0  0
    5.0181    0.6415   21.1621 H   0  0  0  0  0  0  0  0  0  0  0  0
    4.7949    1.3138   19.0908 C   0  0  0  0  0  0  0  0  0  0  0  0
    3.8664    1.8466   19.2433 H   0  0  0  0  0  0  0  0  0  0  0  0
  1  2  1  0
  2  3  2  0
  3  4  1  0
  4  5  1  0
  4  6  2  0
  6  7  1  0
  7  8  2  0
  8  9  1  0
  8 10  1  0
 10 11  2  0
 11 12  1  0
 12 13  1  0
 13 14  1  0
 14 15  2  0
 15 16  1  0
 15 17  1  0
 17 18  1  0
 17 19  2  0
 19 20  1  0
 20 21  1  0
 21 22  1  0
 21 23  2  0
 23 24  1  0
 24 25  1  0
 20 26  2  0
 26 27  1  0
 13 28  2  0
 28 29  1  0
  6 30  1  0
 30 31  1  0
 30 32  2  0
 32 33  1  0
 32  2  1  0
 29  7  1  0
 29 11  1  0
 26 14  1  0
 24 19  1  0
M  END
>  <cnnaffinity>  (1) 
-5.35238

>  <filename>  (1) 
c1cncc(-c2cnc3sc(-c4ccc5[nH]ncc5c4)nn23)c1

$$$$
