
     RDKit          3D

 31 34  0  0  0  0  0  0  0  0999 V2000
    5.0167    1.8280   16.8951 H   0  0  0  0  0  0  0  0  0  0  0  0
    5.4370    1.2833   17.7356 C   0  0  0  0  0  0  0  0  0  0  0  0
    6.5784    0.6222   17.4978 N   0  0  0  0  0  0  0  0  0  0  0  0
    7.1406   -0.0276   18.5225 C   0  0  0  0  0  0  0  0  0  0  0  0
    8.0732   -0.5479   18.3138 H   0  0  0  0  0  0  0  0  0  0  0  0
    6.6052   -0.0448   19.8239 C   0  0  0  0  0  0  0  0  0  0  0  0
    7.3694   -0.6383   20.9399 C   0  0  0  0  0  0  0  0  0  0  0  0
    8.5205   -1.3056   20.7396 N   0  0  0  0  0  0  0  0  0  0  0  0
    8.9570   -1.5304   21.9954 N   0  0  0  0  0  0  0  0  0  0  0  0
   10.0869   -2.1188   22.5523 C   0  0  0  0  0  0  0  0  0  0  0  0
   10.7998   -2.6340   21.9280 H   0  0  0  0  0  0  0  0  0  0  0  0
    9.9639   -1.9410   23.8895 C   0  0  0  0  0  0  0  0  0  0  0  0
   10.5801   -2.2434   24.7172 H   0  0  0  0  0  0  0  0  0  0  0  0
    8.7799   -1.2634   24.1700 N   0  0  0  0  0  0  0  0  0  0  0  0
    8.2152   -1.1470   25.4381 N   0  0  0  0  0  0  0  0  0  0  0  0
    7.1522   -0.1411   25.6905 C   0  0  0  0  0  0  0  0  0  0  0  0
    7.2205    0.7462   25.0356 H   0  0  0  0  0  0  0  0  0  0  0  0
    6.1270   -0.5404   25.6306 H   0  0  0  0  0  0  0  0  0  0  0  0
    7.7611    0.0891   27.0905 C   0  0  0  0  0  0  0  0  0  0  0  0
    7.1923   -0.3800   27.8986 H   0  0  0  0  0  0  0  0  0  0  0  0
    7.9592    1.1297   27.3591 H   0  0  0  0  0  0  0  0  0  0  0  0
    8.9924   -0.7265   26.6371 C   0  0  0  0  0  0  0  0  0  0  0  0
    9.2905   -1.5665   27.2823 H   0  0  0  0  0  0  0  0  0  0  0  0
    9.8842   -0.1125   26.4186 H   0  0  0  0  0  0  0  0  0  0  0  0
    8.1500   -1.0392   22.9569 C   0  0  0  0  0  0  0  0  0  0  0  0
    7.0566   -0.4799   22.3095 C   0  0  0  0  0  0  0  0  0  0  0  0
    6.1594   -0.0808   22.7505 H   0  0  0  0  0  0  0  0  0  0  0  0
    5.3828    0.6157   20.0392 C   0  0  0  0  0  0  0  0  0  0  0  0
    4.9097    0.6082   21.0228 H   0  0  0  0  0  0  0  0  0  0  0  0
    4.7968    1.2987   18.9782 C   0  0  0  0  0  0  0  0  0  0  0  0
    3.8784    1.8564   19.1104 H   0  0  0  0  0  0  0  0  0  0  0  0
  1  2  1  0
  2  3  2  0
  3  4  1  0
  4  5  1  0
  4  6  2  0
  6  7  1  0
  7  8  2  0
  8  9  1  0
  9 10  1  0
 10 11  1  0
 10 12  2  0
 12 13  1  0
 12 14  1  0
 14 15  1  0
 15 16  1  0
 16 17  1  0
 16 18  1  0
 16 19  1  0
 19 20  1  0
 19 21  1  0
 19 22  1  0
 22 23  1  0
 22 24  1  0
 14 25  1  0
 25 26  2  0
 26 27  1  0
  6 28  1  0
 28 29  1  0
 28 30  2  0
 30 31  1  0
 30  2  1  0
 26  7  1  0
 25  9  1  0
 22 15  1  0
M  END
>  <cnnaffinity>  (1) 
-5.07696

>  <filename>  (1) 
c1cncc(-c2cc3n(N4CCC4)ccn3n2)c1

$$$$
