
     RDKit          3D

 32 35  0  0  0  0  0  0  0  0999 V2000
    4.9963    1.8518   16.9111 H   0  0  0  0  0  0  0  0  0  0  0  0
    5.3826    1.3119   17.7775 C   0  0  0  0  0  0  0  0  0  0  0  0
    6.5327    0.6479   17.5904 N   0  0  0  0  0  0  0  0  0  0  0  0
    7.0526    0.0194   18.6558 C   0  0  0  0  0  0  0  0  0  0  0  0
    7.9935   -0.4967   18.4745 H   0  0  0  0  0  0  0  0  0  0  0  0
    6.4673   -0.0196   19.9423 C   0  0  0  0  0  0  0  0  0  0  0  0
    7.2231   -0.6401   21.0600 C   0  0  0  0  0  0  0  0  0  0  0  0
    8.5768   -0.5710   21.3027 C   0  0  0  0  0  0  0  0  0  0  0  0
    8.7893   -1.1765   22.5348 C   0  0  0  0  0  0  0  0  0  0  0  0
    7.6747   -1.6364   23.0711 N   0  0  0  0  0  0  0  0  0  0  0  0
    6.7247   -1.2961   22.1593 N   0  0  0  0  0  0  0  0  0  0  0  0
    5.7642   -1.5309   22.3772 H   0  0  0  0  0  0  0  0  0  0  0  0
   10.2208   -1.1273   22.9746 C   0  0  0  0  0  0  0  0  0  0  0  0
   10.6272   -2.1328   23.1187 H   0  0  0  0  0  0  0  0  0  0  0  0
   10.3533   -0.6022   23.9268 H   0  0  0  0  0  0  0  0  0  0  0  0
   10.9334   -0.3650   21.7995 C   0  0  2  0  0  0  0  0  0  0  0  0
   11.6700   -1.0496   21.3747 H   0  0  0  0  0  0  0  0  0  0  0  0
   11.6430    0.8824   22.2582 C   0  0  0  0  0  0  0  0  0  0  0  0
   11.0160    1.9738   22.7795 C   0  0  0  0  0  0  0  0  0  0  0  0
    9.9773    2.1934   22.9916 H   0  0  0  0  0  0  0  0  0  0  0  0
   11.9083    2.9437   23.0953 O   0  0  0  0  0  0  0  0  0  0  0  0
   13.1354    2.4691   22.7766 C   0  0  0  0  0  0  0  0  0  0  0  0
   13.9617    3.1441   22.9451 H   0  0  0  0  0  0  0  0  0  0  0  0
   13.0469    1.2136   22.2752 C   0  0  0  0  0  0  0  0  0  0  0  0
   13.8855    0.6100   21.9565 H   0  0  0  0  0  0  0  0  0  0  0  0
    9.8518   -0.0851   20.6978 C   0  0  0  0  0  0  0  0  0  0  0  0
   10.0899   -0.6385   19.7849 H   0  0  0  0  0  0  0  0  0  0  0  0
    9.8022    0.9710   20.4072 H   0  0  0  0  0  0  0  0  0  0  0  0
    5.2471    0.6642   20.1051 C   0  0  0  0  0  0  0  0  0  0  0  0
    4.7530    0.7164   21.0802 H   0  0  0  0  0  0  0  0  0  0  0  0
    4.7097    1.3405   19.0051 C   0  0  0  0  0  0  0  0  0  0  0  0
    3.7974    1.9193   19.0872 H   0  0  0  0  0  0  0  0  0  0  0  0
  1  2  1  0
  2  3  2  0
  3  4  1  0
  4  5  1  0
  4  6  2  0
  6  7  1  0
  7  8  2  0
  8  9  1  0
  9 10  2  0
 10 11  1  0
 11 12  1  0
  9 13  1  0
 13 14  1  0
 13 15  1  0
 13 16  1  0
 16 17  1  6
 16 18  1  0
 18 19  2  0
 19 20  1  0
 19 21  1  0
 21 22  1  0
 22 23  1  0
 22 24  2  0
 24 25  1  0
 16 26  1  0
 26 27  1  0
 26 28  1  0
  6 29  1  0
 29 30  1  0
 29 31  2  0
 31 32  1  0
 31  2  1  0
 11  7  1  0
 24 18  1  0
 26  8  1  0
M  END
>  <cnnaffinity>  (1) 
-5.36973

>  <filename>  (1) 
c1cncc(-c2[nH]nc3c2C[C@@H](c2ccoc2)C3)c1

$$$$
