
     RDKit          3D

 37 40  0  0  0  0  0  0  0  0999 V2000
    4.9695    1.8437   17.0089 H   0  0  0  0  0  0  0  0  0  0  0  0
    5.4329    1.3002   17.8284 C   0  0  0  0  0  0  0  0  0  0  0  0
    6.5622    0.6350   17.5379 N   0  0  0  0  0  0  0  0  0  0  0  0
    7.1720   -0.0292   18.5216 C   0  0  0  0  0  0  0  0  0  0  0  0
    8.0681   -0.5884   18.2469 H   0  0  0  0  0  0  0  0  0  0  0  0
    6.6954   -0.0501   19.8390 C   0  0  0  0  0  0  0  0  0  0  0  0
    7.4264   -0.7300   20.8425 N   0  0  0  0  0  0  0  0  0  0  0  0
    6.7994   -1.1643   21.9474 N   0  0  0  0  0  0  0  0  0  0  0  0
    7.7308   -1.7083   22.7135 C   0  0  0  0  0  0  0  0  0  0  0  0
    7.3455   -2.2040   24.0812 C   0  0  0  0  0  0  0  0  0  0  0  0
    7.9958   -3.0326   24.3784 H   0  0  0  0  0  0  0  0  0  0  0  0
    6.3297   -2.6075   24.0071 H   0  0  0  0  0  0  0  0  0  0  0  0
    7.3835   -1.1131   25.1413 C   0  0  0  0  0  0  0  0  0  0  0  0
    8.5836   -0.8626   25.8593 C   0  0  0  0  0  0  0  0  0  0  0  0
    9.4648   -1.4564   25.6312 H   0  0  0  0  0  0  0  0  0  0  0  0
    8.6397    0.1030   26.8310 C   0  0  0  0  0  0  0  0  0  0  0  0
    9.5737    0.2628   27.3528 H   0  0  0  0  0  0  0  0  0  0  0  0
    7.5009    0.9094   27.1356 C   0  0  0  0  0  0  0  0  0  0  0  0
    7.5101    1.9191   28.1413 C   0  0  0  0  0  0  0  0  0  0  0  0
    8.3831    2.0028   28.7866 H   0  0  0  0  0  0  0  0  0  0  0  0
    6.4463    2.7747   28.2784 C   0  0  0  0  0  0  0  0  0  0  0  0
    6.4940    3.5636   29.0246 H   0  0  0  0  0  0  0  0  0  0  0  0
    5.2952    2.6489   27.4413 C   0  0  0  0  0  0  0  0  0  0  0  0
    4.4969    3.3860   27.5164 H   0  0  0  0  0  0  0  0  0  0  0  0
    5.2158    1.6232   26.5293 C   0  0  0  0  0  0  0  0  0  0  0  0
    4.3350    1.4916   25.9011 H   0  0  0  0  0  0  0  0  0  0  0  0
    6.3142    0.7248   26.3547 C   0  0  0  0  0  0  0  0  0  0  0  0
    6.2859   -0.3192   25.3842 C   0  0  0  0  0  0  0  0  0  0  0  0
    5.3713   -0.4667   24.8194 H   0  0  0  0  0  0  0  0  0  0  0  0
    8.9951   -1.6442   22.0801 C   0  0  0  0  0  0  0  0  0  0  0  0
    9.9336   -2.0273   22.4558 H   0  0  0  0  0  0  0  0  0  0  0  0
    8.7642   -0.9840   20.8967 C   0  0  0  0  0  0  0  0  0  0  0  0
    9.4310   -0.6270   20.1233 H   0  0  0  0  0  0  0  0  0  0  0  0
    5.4923    0.6139   20.1330 C   0  0  0  0  0  0  0  0  0  0  0  0
    5.0908    0.5739   21.1456 H   0  0  0  0  0  0  0  0  0  0  0  0
    4.8542    1.3056   19.1035 C   0  0  0  0  0  0  0  0  0  0  0  0
    3.9298    1.8499   19.2783 H   0  0  0  0  0  0  0  0  0  0  0  0
  1  2  1  0
  2  3  2  0
  3  4  1  0
  4  5  1  0
  4  6  2  0
  6  7  1  0
  7  8  1  0
  8  9  2  0
  9 10  1  0
 10 11  1  0
 10 12  1  0
 10 13  1  0
 13 14  2  0
 14 15  1  0
 14 16  1  0
 16 17  1  0
 16 18  2  0
 18 19  1  0
 19 20  1  0
 19 21  2  0
 21 22  1  0
 21 23  1  0
 23 24  1  0
 23 25  2  0
 25 26  1  0
 25 27  1  0
 27 28  2  0
 28 29  1  0
  9 30  1  0
 30 31  1  0
 30 32  2  0
 32 33  1  0
  6 34  1  0
 34 35  1  0
 34 36  2  0
 36 37  1  0
 36  2  1  0
 32  7  1  0
 28 13  1  0
 27 18  1  0
M  END
>  <cnnaffinity>  (1) 
-5.05287

>  <filename>  (1) 
c1cncc(-n2ccc(Cc3ccc4ccccc4c3)n2)c1

$$$$
