
     RDKit          3D

 28 31  0  0  0  0  0  0  0  0999 V2000
    4.9227    1.7722   17.0033 H   0  0  0  0  0  0  0  0  0  0  0  0
    5.4100    1.2859   17.8460 C   0  0  0  0  0  0  0  0  0  0  0  0
    6.5751    0.6681   17.5942 N   0  0  0  0  0  0  0  0  0  0  0  0
    7.1812    0.0536   18.6149 C   0  0  0  0  0  0  0  0  0  0  0  0
    8.1268   -0.4330   18.3837 H   0  0  0  0  0  0  0  0  0  0  0  0
    6.6458    0.0159   19.9103 C   0  0  0  0  0  0  0  0  0  0  0  0
    7.3575   -0.6843   20.9702 C   0  0  0  0  0  0  0  0  0  0  0  0
    8.5392   -1.3270   20.7565 N   0  0  0  0  0  0  0  0  0  0  0  0
    8.8054   -1.7977   21.9566 C   0  0  0  0  0  0  0  0  0  0  0  0
   10.0548   -2.7333   22.7420 S   0  0  0  0  0  0  0  0  0  0  0  0
    9.1812   -2.6163   24.2333 C   0  0  0  0  0  0  0  0  0  0  0  0
    9.5815   -3.0844   25.1234 H   0  0  0  0  0  0  0  0  0  0  0  0
    8.0264   -1.9141   24.1425 C   0  0  0  0  0  0  0  0  0  0  0  0
    7.1010   -1.6535   25.2330 C   0  0  0  0  0  0  0  0  0  0  0  0
    7.2392   -2.0709   26.5434 C   0  0  0  0  0  0  0  0  0  0  0  0
    8.0621   -2.6535   26.9386 H   0  0  0  0  0  0  0  0  0  0  0  0
    6.1236   -1.6040   27.2652 C   0  0  0  0  0  0  0  0  0  0  0  0
    5.9302   -1.7608   28.3161 H   0  0  0  0  0  0  0  0  0  0  0  0
    5.3236   -0.9111   26.3889 C   0  0  0  0  0  0  0  0  0  0  0  0
    4.3821   -0.4060   26.5663 H   0  0  0  0  0  0  0  0  0  0  0  0
    5.9221   -0.9444   25.1620 N   0  0  0  0  0  0  0  0  0  0  0  0
    5.5692   -0.5338   24.3084 H   0  0  0  0  0  0  0  0  0  0  0  0
    7.8406   -1.4626   22.8337 N   0  0  0  0  0  0  0  0  0  0  0  0
    6.8832   -0.7350   22.2140 N   0  0  0  0  0  0  0  0  0  0  0  0
    5.4270    0.6586   20.1650 C   0  0  0  0  0  0  0  0  0  0  0  0
    4.9978    0.6357   21.1701 H   0  0  0  0  0  0  0  0  0  0  0  0
    4.8040    1.3103   19.1086 C   0  0  0  0  0  0  0  0  0  0  0  0
    3.8730    1.8440   19.2603 H   0  0  0  0  0  0  0  0  0  0  0  0
  1  2  1  0
  2  3  2  0
  3  4  1  0
  4  5  1  0
  4  6  2  0
  6  7  1  0
  7  8  1  0
  8  9  2  0
  9 10  1  0
 10 11  1  0
 11 12  1  0
 11 13  2  0
 13 14  1  0
 14 15  2  0
 15 16  1  0
 15 17  1  0
 17 18  1  0
 17 19  2  0
 19 20  1  0
 19 21  1  0
 21 22  1  0
 13 23  1  0
 23 24  1  0
  6 25  1  0
 25 26  1  0
 25 27  2  0
 27 28  1  0
 27  2  1  0
 24  7  2  0
 23  9  1  0
 21 14  1  0
M  END
>  <cnnaffinity>  (1) 
-5.46049

>  <filename>  (1) 
c1cncc(-c2nc3scc(-c4ccc[nH]4)n3n2)c1

$$$$
