
     RDKit          3D

 41 44  0  0  0  0  0  0  0  0999 V2000
    4.9412    1.9739   16.8555 H   0  0  0  0  0  0  0  0  0  0  0  0
    5.4080    1.4356   17.6760 C   0  0  0  0  0  0  0  0  0  0  0  0
    6.5824    0.8392   17.4077 N   0  0  0  0  0  0  0  0  0  0  0  0
    7.1855    0.1846   18.4115 C   0  0  0  0  0  0  0  0  0  0  0  0
    8.1340   -0.2967   18.1724 H   0  0  0  0  0  0  0  0  0  0  0  0
    6.6556    0.0626   19.7235 C   0  0  0  0  0  0  0  0  0  0  0  0
    7.3027   -0.6766   20.7281 N   0  0  0  0  0  0  0  0  0  0  0  0
    8.6310   -0.3164   21.2310 C   0  0  0  0  0  0  0  0  0  0  0  0
    9.1777    0.2430   20.4656 H   0  0  0  0  0  0  0  0  0  0  0  0
    8.5573    0.3462   22.1129 H   0  0  0  0  0  0  0  0  0  0  0  0
    9.4350   -1.5876   21.5864 C   0  0  0  0  0  0  0  0  0  0  0  0
   10.3313   -1.3112   22.1559 H   0  0  0  0  0  0  0  0  0  0  0  0
    9.7770   -2.0657   20.6584 H   0  0  0  0  0  0  0  0  0  0  0  0
    8.6887   -2.5938   22.3530 N   0  0  0  0  0  0  0  0  0  0  0  0
    8.8313   -2.6410   23.7599 C   0  0  0  0  0  0  0  0  0  0  0  0
    8.8454   -1.5047   24.5409 C   0  0  0  0  0  0  0  0  0  0  0  0
    8.6187   -0.5419   24.1028 H   0  0  0  0  0  0  0  0  0  0  0  0
    9.1531   -1.5800   25.9205 C   0  0  0  0  0  0  0  0  0  0  0  0
    9.3010   -0.6640   26.4852 H   0  0  0  0  0  0  0  0  0  0  0  0
    9.3725   -2.8029   26.5021 C   0  0  0  0  0  0  0  0  0  0  0  0
    9.7335   -2.8692   27.5066 H   0  0  0  0  0  0  0  0  0  0  0  0
    9.2846   -4.0132   25.7602 C   0  0  0  0  0  0  0  0  0  0  0  0
    9.5655   -5.2878   26.3504 C   0  0  0  0  0  0  0  0  0  0  0  0
    9.8080   -5.3300   27.4123 H   0  0  0  0  0  0  0  0  0  0  0  0
    9.5546   -6.4262   25.5827 C   0  0  0  0  0  0  0  0  0  0  0  0
    9.8455   -7.3795   26.0176 H   0  0  0  0  0  0  0  0  0  0  0  0
    9.2298   -6.3523   24.2004 C   0  0  0  0  0  0  0  0  0  0  0  0
    9.3043   -7.2227   23.5584 H   0  0  0  0  0  0  0  0  0  0  0  0
    8.9485   -5.1459   23.6089 C   0  0  0  0  0  0  0  0  0  0  0  0
    8.7700   -5.0902   22.5396 H   0  0  0  0  0  0  0  0  0  0  0  0
    8.9818   -3.9374   24.3673 C   0  0  0  0  0  0  0  0  0  0  0  0
    7.3208   -2.8151   21.8681 C   0  0  0  0  0  0  0  0  0  0  0  0
    6.7836   -3.4862   22.5493 H   0  0  0  0  0  0  0  0  0  0  0  0
    7.3695   -3.3216   20.8973 H   0  0  0  0  0  0  0  0  0  0  0  0
    6.5563   -1.4989   21.6832 C   0  0  0  0  0  0  0  0  0  0  0  0
    6.4657   -1.0011   22.6656 H   0  0  0  0  0  0  0  0  0  0  0  0
    5.5474   -1.7108   21.3197 H   0  0  0  0  0  0  0  0  0  0  0  0
    5.4193    0.6869   19.9672 C   0  0  0  0  0  0  0  0  0  0  0  0
    4.9946    0.6228   20.9683 H   0  0  0  0  0  0  0  0  0  0  0  0
    4.7942    1.3873   18.9330 C   0  0  0  0  0  0  0  0  0  0  0  0
    3.8480    1.8921   19.0966 H   0  0  0  0  0  0  0  0  0  0  0  0
  1  2  1  0
  2  3  2  0
  3  4  1  0
  4  5  1  0
  4  6  2  0
  6  7  1  0
  7  8  1  0
  8  9  1  0
  8 10  1  0
  8 11  1  0
 11 12  1  0
 11 13  1  0
 11 14  1  0
 14 15  1  0
 15 16  2  0
 16 17  1  0
 16 18  1  0
 18 19  1  0
 18 20  2  0
 20 21  1  0
 20 22  1  0
 22 23  2  0
 23 24  1  0
 23 25  1  0
 25 26  1  0
 25 27  2  0
 27 28  1  0
 27 29  1  0
 29 30  1  0
 29 31  2  0
 14 32  1  0
 32 33  1  0
 32 34  1  0
 32 35  1  0
 35 36  1  0
 35 37  1  0
  6 38  1  0
 38 39  1  0
 38 40  2  0
 40 41  1  0
 40  2  1  0
 35  7  1  0
 31 15  1  0
 31 22  1  0
M  END
>  <cnnaffinity>  (1) 
-5.10892

>  <filename>  (1) 
c1cncc(N2CCN(c3cccc4ccccc34)CC2)c1

$$$$
