
     RDKit          3D

 28 31  0  0  0  0  0  0  0  0999 V2000
    8.7794    0.5133   28.1438 H   0  0  0  0  0  0  0  0  0  0  0  0
    8.4488    0.0411   27.2280 C   0  0  0  0  0  0  0  0  0  0  0  0
    7.1258   -0.0304   26.8989 N   0  0  0  0  0  0  0  0  0  0  0  0
    7.1558   -0.6205   25.7324 C   0  0  0  0  0  0  0  0  0  0  0  0
    6.3244   -0.8823   25.0912 H   0  0  0  0  0  0  0  0  0  0  0  0
    8.4318   -0.8884   25.3714 N   0  0  0  0  0  0  0  0  0  0  0  0
    8.8171   -1.3556   24.1255 N   0  0  0  0  0  0  0  0  0  0  0  0
   10.0034   -2.0351   23.8293 C   0  0  0  0  0  0  0  0  0  0  0  0
   10.6761   -2.3079   24.6267 H   0  0  0  0  0  0  0  0  0  0  0  0
   10.0895   -2.1682   22.4888 C   0  0  0  0  0  0  0  0  0  0  0  0
   10.8301   -2.6096   21.8487 H   0  0  0  0  0  0  0  0  0  0  0  0
    8.9544   -1.5717   21.9546 N   0  0  0  0  0  0  0  0  0  0  0  0
    8.5098   -1.3128   20.7069 N   0  0  0  0  0  0  0  0  0  0  0  0
    7.3764   -0.6275   20.9321 C   0  0  0  0  0  0  0  0  0  0  0  0
    6.6134   -0.0197   19.8207 C   0  0  0  0  0  0  0  0  0  0  0  0
    7.1376   -0.0001   18.5108 C   0  0  0  0  0  0  0  0  0  0  0  0
    8.0626   -0.5288   18.2883 H   0  0  0  0  0  0  0  0  0  0  0  0
    6.5594    0.6360   17.4850 N   0  0  0  0  0  0  0  0  0  0  0  0
    5.4173    1.2958   17.7285 C   0  0  0  0  0  0  0  0  0  0  0  0
    4.9935    1.8557   16.8956 H   0  0  0  0  0  0  0  0  0  0  0  0
    4.7889    1.2972   18.9777 C   0  0  0  0  0  0  0  0  0  0  0  0
    3.8750    1.8575   19.1201 H   0  0  0  0  0  0  0  0  0  0  0  0
    5.3847    0.6236   20.0406 C   0  0  0  0  0  0  0  0  0  0  0  0
    4.9058    0.6036   21.0253 H   0  0  0  0  0  0  0  0  0  0  0  0
    7.0937   -0.4682   22.3105 C   0  0  0  0  0  0  0  0  0  0  0  0
    6.2369    0.0196   22.7322 H   0  0  0  0  0  0  0  0  0  0  0  0
    8.1784   -1.0735   22.9309 C   0  0  0  0  0  0  0  0  0  0  0  0
    9.2845   -0.4693   26.3430 N   0  0  0  0  0  0  0  0  0  0  0  0
  1  2  1  0
  2  3  1  0
  3  4  2  0
  4  5  1  0
  4  6  1  0
  6  7  1  0
  7  8  1  0
  8  9  1  0
  8 10  2  0
 10 11  1  0
 10 12  1  0
 12 13  1  0
 13 14  2  0
 14 15  1  0
 15 16  2  0
 16 17  1  0
 16 18  1  0
 18 19  2  0
 19 20  1  0
 19 21  1  0
 21 22  1  0
 21 23  2  0
 23 24  1  0
 14 25  1  0
 25 26  1  0
 25 27  2  0
  6 28  1  0
 28  2  2  0
 27  7  1  0
 27 12  1  0
 23 15  1  0
M  END
>  <cnnaffinity>  (1) 
-5.10055

>  <filename>  (1) 
c1cncc(-c2cc3n(-n4cncn4)ccn3n2)c1

$$$$
