
     RDKit          3D

 39 42  0  0  0  0  0  0  0  0999 V2000
    5.0257    1.7959   16.9775 H   0  0  0  0  0  0  0  0  0  0  0  0
    5.4628    1.2838   17.8348 C   0  0  0  0  0  0  0  0  0  0  0  0
    6.6178    0.6398   17.6142 N   0  0  0  0  0  0  0  0  0  0  0  0
    7.1807    0.0205   18.6547 C   0  0  0  0  0  0  0  0  0  0  0  0
    8.1101   -0.5032   18.4432 H   0  0  0  0  0  0  0  0  0  0  0  0
    6.6491    0.0088   19.9559 C   0  0  0  0  0  0  0  0  0  0  0  0
    7.3779   -0.6778   21.0363 C   0  0  0  0  0  0  0  0  0  0  0  0
    6.9019   -0.7926   22.2357 N   0  0  0  0  0  0  0  0  0  0  0  0
    7.7877   -1.4886   22.9915 N   0  0  0  0  0  0  0  0  0  0  0  0
    7.7680   -1.9325   24.2996 C   0  0  0  0  0  0  0  0  0  0  0  0
    6.6664   -1.5974   25.2484 C   0  0  0  0  0  0  0  0  0  0  0  0
    5.7265   -1.5356   24.6875 H   0  0  0  0  0  0  0  0  0  0  0  0
    6.5637   -2.4290   25.9544 H   0  0  0  0  0  0  0  0  0  0  0  0
    6.8686   -0.2759   26.0395 C   0  0  0  0  0  0  0  0  0  0  0  0
    6.0449   -0.2165   26.7662 H   0  0  0  0  0  0  0  0  0  0  0  0
    8.2050   -0.2638   26.8437 C   0  0  0  0  0  0  0  0  0  0  0  0
    8.5648   -1.2916   26.9974 H   0  0  0  0  0  0  0  0  0  0  0  0
    8.0338    0.1407   27.8559 H   0  0  0  0  0  0  0  0  0  0  0  0
    9.2851    0.5579   26.1154 C   0  0  0  0  0  0  0  0  0  0  0  0
    9.4388    0.1222   25.1161 H   0  0  0  0  0  0  0  0  0  0  0  0
   10.2436    0.4830   26.6349 H   0  0  0  0  0  0  0  0  0  0  0  0
    8.8808    2.0409   25.9429 C   0  0  0  0  0  0  0  0  0  0  0  0
    9.4577    2.4563   25.1031 H   0  0  0  0  0  0  0  0  0  0  0  0
    9.1368    2.6212   26.8358 H   0  0  0  0  0  0  0  0  0  0  0  0
    7.3601    2.2133   25.6962 C   0  0  0  0  0  0  0  0  0  0  0  0
    7.1794    3.0628   25.0315 H   0  0  0  0  0  0  0  0  0  0  0  0
    6.8468    2.4503   26.6392 H   0  0  0  0  0  0  0  0  0  0  0  0
    6.7309    0.9502   25.0958 C   0  0  0  0  0  0  0  0  0  0  0  0
    5.6653    1.1180   24.8906 H   0  0  0  0  0  0  0  0  0  0  0  0
    7.2047    0.7444   24.1260 H   0  0  0  0  0  0  0  0  0  0  0  0
    8.9482   -2.6356   24.4079 C   0  0  0  0  0  0  0  0  0  0  0  0
    9.3218   -3.1373   25.2953 H   0  0  0  0  0  0  0  0  0  0  0  0
    9.6742   -2.6453   23.2390 N   0  0  0  0  0  0  0  0  0  0  0  0
    8.9372   -1.9417   22.4213 C   0  0  0  0  0  0  0  0  0  0  0  0
    8.9814   -1.4178   20.7700 S   0  0  0  0  0  0  0  0  0  0  0  0
    5.4241    0.6723   20.1697 C   0  0  0  0  0  0  0  0  0  0  0  0
    4.9557    0.6936   21.1559 H   0  0  0  0  0  0  0  0  0  0  0  0
    4.8273    1.3104   19.0812 C   0  0  0  0  0  0  0  0  0  0  0  0
    3.8859    1.8376   19.1816 H   0  0  0  0  0  0  0  0  0  0  0  0
  1  2  1  0
  2  3  2  0
  3  4  1  0
  4  5  1  0
  4  6  2  0
  6  7  1  0
  7  8  2  0
  8  9  1  0
  9 10  1  0
 10 11  1  0
 11 12  1  0
 11 13  1  0
 11 14  1  0
 14 15  1  0
 14 16  1  0
 16 17  1  0
 16 18  1  0
 16 19  1  0
 19 20  1  0
 19 21  1  0
 19 22  1  0
 22 23  1  0
 22 24  1  0
 22 25  1  0
 25 26  1  0
 25 27  1  0
 25 28  1  0
 28 29  1  0
 28 30  1  0
 10 31  2  0
 31 32  1  0
 31 33  1  0
 33 34  2  0
 34 35  1  0
  6 36  1  0
 36 37  1  0
 36 38  2  0
 38 39  1  0
 38  2  1  0
 35  7  1  0
 34  9  1  0
 28 14  1  0
M  END
>  <cnnaffinity>  (1) 
-5.59711

>  <filename>  (1) 
c1cncc(-c2nn3c(CC4CCCCC4)cnc3s2)c1

$$$$
