
     RDKit          3D

 36 39  0  0  0  0  0  0  0  0999 V2000
    4.9778    1.7938   17.1127 H   0  0  0  0  0  0  0  0  0  0  0  0
    5.5143    1.2403   17.8823 C   0  0  0  0  0  0  0  0  0  0  0  0
    6.6578    0.6403   17.5071 N   0  0  0  0  0  0  0  0  0  0  0  0
    7.3585   -0.0134   18.4446 C   0  0  0  0  0  0  0  0  0  0  0  0
    8.2605   -0.5112   18.0868 H   0  0  0  0  0  0  0  0  0  0  0  0
    6.9963   -0.1000   19.8199 C   0  0  0  0  0  0  0  0  0  0  0  0
    7.8001   -0.7625   20.7633 N   0  0  0  0  0  0  0  0  0  0  0  0
    8.6974   -1.0801   20.4096 H   0  0  0  0  0  0  0  0  0  0  0  0
    7.8352   -0.4431   22.2072 C   0  0  0  0  0  0  0  0  0  0  0  0
    8.0867    1.0383   22.6012 C   0  0  0  0  0  0  0  0  0  0  0  0
    9.2331    1.6704   22.6811 N   0  0  0  0  0  0  0  0  0  0  0  0
    8.9144    2.9866   23.0019 C   0  0  0  0  0  0  0  0  0  0  0  0
    9.7394    4.1218   23.1427 C   0  0  0  0  0  0  0  0  0  0  0  0
   10.8058    4.0397   22.9725 H   0  0  0  0  0  0  0  0  0  0  0  0
    9.1479    5.3421   23.4712 C   0  0  0  0  0  0  0  0  0  0  0  0
    9.7666    6.2304   23.5701 H   0  0  0  0  0  0  0  0  0  0  0  0
    7.7485    5.4408   23.6676 C   0  0  0  0  0  0  0  0  0  0  0  0
    7.3178    6.4015   23.9344 H   0  0  0  0  0  0  0  0  0  0  0  0
    6.9145    4.3347   23.5221 C   0  0  0  0  0  0  0  0  0  0  0  0
    5.8410    4.4177   23.6674 H   0  0  0  0  0  0  0  0  0  0  0  0
    7.5247    3.1201   23.1719 C   0  0  0  0  0  0  0  0  0  0  0  0
    7.0298    1.8637   22.9132 N   0  0  0  0  0  0  0  0  0  0  0  0
    6.0590    1.6221   22.8518 H   0  0  0  0  0  0  0  0  0  0  0  0
    8.7777   -1.4549   22.9073 C   0  0  0  0  0  0  0  0  0  0  0  0
    9.3110   -2.0936   22.2001 H   0  0  0  0  0  0  0  0  0  0  0  0
    9.5004   -0.9666   23.5556 H   0  0  0  0  0  0  0  0  0  0  0  0
    7.5873   -2.1225   23.6346 C   0  0  0  0  0  0  0  0  0  0  0  0
    7.4263   -3.1747   23.3780 H   0  0  0  0  0  0  0  0  0  0  0  0
    7.6273   -2.0518   24.7260 H   0  0  0  0  0  0  0  0  0  0  0  0
    6.6336   -1.1252   22.9410 C   0  0  0  0  0  0  0  0  0  0  0  0
    6.0704   -0.4940   23.6363 H   0  0  0  0  0  0  0  0  0  0  0  0
    5.9826   -1.5994   22.1994 H   0  0  0  0  0  0  0  0  0  0  0  0
    5.7559    0.4647   20.1553 C   0  0  0  0  0  0  0  0  0  0  0  0
    5.3811    0.3440   21.1665 H   0  0  0  0  0  0  0  0  0  0  0  0
    5.0163    1.1551   19.1850 C   0  0  0  0  0  0  0  0  0  0  0  0
    4.0677    1.6212   19.4294 H   0  0  0  0  0  0  0  0  0  0  0  0
  1  2  1  0
  2  3  2  0
  3  4  1  0
  4  5  1  0
  4  6  2  0
  6  7  1  0
  7  8  1  0
  7  9  1  0
  9 10  1  0
 10 11  2  0
 11 12  1  0
 12 13  2  0
 13 14  1  0
 13 15  1  0
 15 16  1  0
 15 17  2  0
 17 18  1  0
 17 19  1  0
 19 20  1  0
 19 21  2  0
 21 22  1  0
 22 23  1  0
  9 24  1  0
 24 25  1  0
 24 26  1  0
 24 27  1  0
 27 28  1  0
 27 29  1  0
 27 30  1  0
 30 31  1  0
 30 32  1  0
  6 33  1  0
 33 34  1  0
 33 35  2  0
 35 36  1  0
 35  2  1  0
 30  9  1  0
 22 10  1  0
 21 12  1  0
M  END
>  <cnnaffinity>  (1) 
-5.45814

>  <filename>  (1) 
c1cncc(NC2(c3nc4ccccc4[nH]3)CCC2)c1

$$$$
