
     RDKit          3D

 29 31  0  0  0  0  0  0  0  0999 V2000
    4.9126    1.7861   16.9947 H   0  0  0  0  0  0  0  0  0  0  0  0
    5.3955    1.2977   17.8376 C   0  0  0  0  0  0  0  0  0  0  0  0
    6.5596    0.6831   17.5720 N   0  0  0  0  0  0  0  0  0  0  0  0
    7.1717    0.0605   18.5890 C   0  0  0  0  0  0  0  0  0  0  0  0
    8.1194   -0.4285   18.3725 H   0  0  0  0  0  0  0  0  0  0  0  0
    6.6637   -0.0115   19.9109 C   0  0  0  0  0  0  0  0  0  0  0  0
    7.3225   -0.7201   20.9237 N   0  0  0  0  0  0  0  0  0  0  0  0
    6.7744   -1.0675   21.7010 H   0  0  0  0  0  0  0  0  0  0  0  0
    8.7100   -0.7609   21.1037 C   0  0  0  0  0  0  0  0  0  0  0  0
    9.6997    0.1488   20.6704 C   0  0  0  0  0  0  0  0  0  0  0  0
    9.5336    1.0265   20.0704 H   0  0  0  0  0  0  0  0  0  0  0  0
   10.9104   -0.1779   21.1030 N   0  0  0  0  0  0  0  0  0  0  0  0
   10.7104   -1.2967   21.8114 N   0  0  0  0  0  0  0  0  0  0  0  0
   11.5041   -1.7536   22.2345 H   0  0  0  0  0  0  0  0  0  0  0  0
    9.4127   -1.7045   21.8352 C   0  0  0  0  0  0  0  0  0  0  0  0
    8.9411   -2.8958   22.5282 C   0  0  0  0  0  0  0  0  0  0  0  0
    7.8875   -3.6453   21.9981 C   0  0  0  0  0  0  0  0  0  0  0  0
    7.4376   -3.3685   21.0539 H   0  0  0  0  0  0  0  0  0  0  0  0
    7.4496   -4.7647   22.7015 C   0  0  0  0  0  0  0  0  0  0  0  0
    6.6325   -5.3628   22.3083 H   0  0  0  0  0  0  0  0  0  0  0  0
    7.9806   -5.1709   23.8601 N   0  0  0  0  0  0  0  0  0  0  0  0
    8.9874   -4.4411   24.3577 C   0  0  0  0  0  0  0  0  0  0  0  0
    9.4121   -4.7778   25.3001 H   0  0  0  0  0  0  0  0  0  0  0  0
    9.5061   -3.3095   23.7393 C   0  0  0  0  0  0  0  0  0  0  0  0
   10.3138   -2.7543   24.2004 H   0  0  0  0  0  0  0  0  0  0  0  0
    5.4431    0.6340   20.1627 C   0  0  0  0  0  0  0  0  0  0  0  0
    5.0205    0.6211   21.1685 H   0  0  0  0  0  0  0  0  0  0  0  0
    4.8115    1.3065   19.1091 C   0  0  0  0  0  0  0  0  0  0  0  0
    3.8813    1.8382   19.2636 H   0  0  0  0  0  0  0  0  0  0  0  0
  1  2  1  0
  2  3  2  0
  3  4  1  0
  4  5  1  0
  4  6  2  0
  6  7  1  0
  7  8  1  0
  7  9  1  0
  9 10  1  0
 10 11  1  0
 10 12  2  0
 12 13  1  0
 13 14  1  0
 13 15  1  0
 15 16  1  0
 16 17  2  0
 17 18  1  0
 17 19  1  0
 19 20  1  0
 19 21  2  0
 21 22  1  0
 22 23  1  0
 22 24  2  0
 24 25  1  0
  6 26  1  0
 26 27  1  0
 26 28  2  0
 28 29  1  0
 28  2  1  0
 15  9  2  0
 24 16  1  0
M  END
>  <cnnaffinity>  (1) 
-5.50519

>  <filename>  (1) 
c1cncc(Nc2cn[nH]c2-c2ccncc2)c1

$$$$
