
     RDKit          3D

 34 38  0  0  0  0  0  0  0  0999 V2000
    4.9733    1.8277   16.9362 H   0  0  0  0  0  0  0  0  0  0  0  0
    5.4188    1.2970   17.7736 C   0  0  0  0  0  0  0  0  0  0  0  0
    6.5718    0.6579   17.5212 N   0  0  0  0  0  0  0  0  0  0  0  0
    7.1559    0.0170   18.5376 C   0  0  0  0  0  0  0  0  0  0  0  0
    8.0979   -0.4835   18.3178 H   0  0  0  0  0  0  0  0  0  0  0  0
    6.6266   -0.0210   19.8419 C   0  0  0  0  0  0  0  0  0  0  0  0
    7.3668   -0.6674   20.9356 C   0  0  0  0  0  0  0  0  0  0  0  0
    8.4908   -1.3636   20.6949 N   0  0  0  0  0  0  0  0  0  0  0  0
    8.8806   -1.7246   21.9332 N   0  0  0  0  0  0  0  0  0  0  0  0
   10.0222   -2.3080   22.4691 C   0  0  0  0  0  0  0  0  0  0  0  0
   10.7932   -2.6711   21.8164 H   0  0  0  0  0  0  0  0  0  0  0  0
    9.9254   -2.1884   23.8112 C   0  0  0  0  0  0  0  0  0  0  0  0
   10.6234   -2.4867   24.5847 H   0  0  0  0  0  0  0  0  0  0  0  0
    8.7171   -1.5361   24.1175 N   0  0  0  0  0  0  0  0  0  0  0  0
    8.3672   -0.9768   25.3287 C   0  0  0  0  0  0  0  0  0  0  0  0
    9.1095   -0.8629   26.3804 N   0  0  0  0  0  0  0  0  0  0  0  0
    8.2744   -0.2101   27.2896 C   0  0  0  0  0  0  0  0  0  0  0  0
    8.4921    0.2285   28.5990 C   0  0  0  0  0  0  0  0  0  0  0  0
    9.4684    0.0783   29.0515 H   0  0  0  0  0  0  0  0  0  0  0  0
    7.4159    0.7855   29.3008 C   0  0  0  0  0  0  0  0  0  0  0  0
    7.5459    1.0692   30.3424 H   0  0  0  0  0  0  0  0  0  0  0  0
    6.1690    0.9799   28.6704 C   0  0  0  0  0  0  0  0  0  0  0  0
    5.3406    1.4134   29.2261 H   0  0  0  0  0  0  0  0  0  0  0  0
    5.9608    0.6069   27.3350 C   0  0  0  0  0  0  0  0  0  0  0  0
    5.0376    0.8061   26.8010 H   0  0  0  0  0  0  0  0  0  0  0  0
    7.0313    0.0128   26.6873 C   0  0  0  0  0  0  0  0  0  0  0  0
    7.1006   -0.4747   25.4079 O   0  0  0  0  0  0  0  0  0  0  0  0
    8.0800   -1.2636   22.9081 C   0  0  0  0  0  0  0  0  0  0  0  0
    7.0453   -0.5814   22.3111 C   0  0  0  0  0  0  0  0  0  0  0  0
    6.2220   -0.0822   22.7890 H   0  0  0  0  0  0  0  0  0  0  0  0
    5.4046    0.6304   20.0793 C   0  0  0  0  0  0  0  0  0  0  0  0
    4.9463    0.6347   21.0708 H   0  0  0  0  0  0  0  0  0  0  0  0
    4.7968    1.3030   19.0264 C   0  0  0  0  0  0  0  0  0  0  0  0
    3.8745    1.8541   19.1689 H   0  0  0  0  0  0  0  0  0  0  0  0
  1  2  1  0
  2  3  2  0
  3  4  1  0
  4  5  1  0
  4  6  2  0
  6  7  1  0
  7  8  2  0
  8  9  1  0
  9 10  1  0
 10 11  1  0
 10 12  2  0
 12 13  1  0
 12 14  1  0
 14 15  1  0
 15 16  2  0
 16 17  1  0
 17 18  2  0
 18 19  1  0
 18 20  1  0
 20 21  1  0
 20 22  2  0
 22 23  1  0
 22 24  1  0
 24 25  1  0
 24 26  2  0
 26 27  1  0
 14 28  1  0
 28 29  2  0
 29 30  1  0
  6 31  1  0
 31 32  1  0
 31 33  2  0
 33 34  1  0
 33  2  1  0
 29  7  1  0
 28  9  1  0
 27 15  1  0
 26 17  1  0
M  END
>  <cnnaffinity>  (1) 
-5.73728

>  <filename>  (1) 
c1cncc(-c2cc3n(-c4nc5ccccc5o4)ccn3n2)c1

$$$$
