
     RDKit          3D

 30 33  0  0  0  0  0  0  0  0999 V2000
    4.9156    1.7866   16.9994 H   0  0  0  0  0  0  0  0  0  0  0  0
    5.3979    1.2910   17.8401 C   0  0  0  0  0  0  0  0  0  0  0  0
    6.5536    0.6666   17.5718 N   0  0  0  0  0  0  0  0  0  0  0  0
    7.1908    0.0602   18.5810 C   0  0  0  0  0  0  0  0  0  0  0  0
    8.1373   -0.4183   18.3516 H   0  0  0  0  0  0  0  0  0  0  0  0
    6.6931    0.0261   19.8985 C   0  0  0  0  0  0  0  0  0  0  0  0
    7.2989   -0.6822   20.9471 O   0  0  0  0  0  0  0  0  0  0  0  0
    8.6322   -0.7694   21.0801 C   0  0  0  0  0  0  0  0  0  0  0  0
    9.5565   -0.0827   20.4596 N   0  0  0  0  0  0  0  0  0  0  0  0
   10.7298   -0.5296   20.9701 N   0  0  0  0  0  0  0  0  0  0  0  0
   10.5492   -1.4461   21.8385 N   0  0  0  0  0  0  0  0  0  0  0  0
    9.2049   -1.6411   21.9413 N   0  0  0  0  0  0  0  0  0  0  0  0
    8.6486   -2.6297   22.8246 C   0  0  0  0  0  0  0  0  0  0  0  0
    9.3692   -2.9860   24.0123 C   0  0  0  0  0  0  0  0  0  0  0  0
   10.3427   -2.5283   24.2000 H   0  0  0  0  0  0  0  0  0  0  0  0
    8.8472   -3.9078   24.9051 C   0  0  0  0  0  0  0  0  0  0  0  0
    9.3757   -4.2009   25.8119 H   0  0  0  0  0  0  0  0  0  0  0  0
    7.5876   -4.4767   24.5885 C   0  0  0  0  0  0  0  0  0  0  0  0
    6.8833   -4.1363   23.4175 C   0  0  0  0  0  0  0  0  0  0  0  0
    5.6909   -4.9129   23.4849 C   0  0  0  0  0  0  0  0  0  0  0  0
    4.8864   -4.9290   22.7654 H   0  0  0  0  0  0  0  0  0  0  0  0
    5.6593   -5.6611   24.5651 N   0  0  0  0  0  0  0  0  0  0  0  0
    6.8092   -5.3893   25.2265 N   0  0  0  0  0  0  0  0  0  0  0  0
    7.0111   -5.8517   26.0949 H   0  0  0  0  0  0  0  0  0  0  0  0
    7.4246   -3.2002   22.5112 C   0  0  0  0  0  0  0  0  0  0  0  0
    6.8962   -2.9156   21.6100 H   0  0  0  0  0  0  0  0  0  0  0  0
    5.4700    0.6422   20.1732 C   0  0  0  0  0  0  0  0  0  0  0  0
    5.0442    0.6072   21.1775 H   0  0  0  0  0  0  0  0  0  0  0  0
    4.8246    1.2989   19.1174 C   0  0  0  0  0  0  0  0  0  0  0  0
    3.8917    1.8269   19.2692 H   0  0  0  0  0  0  0  0  0  0  0  0
  1  2  1  0
  2  3  2  0
  3  4  1  0
  4  5  1  0
  4  6  2  0
  6  7  1  0
  7  8  1  0
  8  9  2  0
  9 10  1  0
 10 11  2  0
 11 12  1  0
 12 13  1  0
 13 14  2  0
 14 15  1  0
 14 16  1  0
 16 17  1  0
 16 18  2  0
 18 19  1  0
 19 20  1  0
 20 21  1  0
 20 22  2  0
 22 23  1  0
 23 24  1  0
 19 25  2  0
 25 26  1  0
  6 27  1  0
 27 28  1  0
 27 29  2  0
 29 30  1  0
 29  2  1  0
 12  8  1  0
 25 13  1  0
 23 18  1  0
M  END
>  <cnnaffinity>  (1) 
-5.75478

>  <filename>  (1) 
c1cncc(Oc2nnnn2-c2ccc3[nH]ncc3c2)c1

$$$$
