
     RDKit          3D

 33 36  0  0  0  0  0  0  0  0999 V2000
    5.6593    2.8520   26.6554 H   0  0  0  0  0  0  0  0  0  0  0  0
    5.7890    1.9539   26.0601 C   0  0  0  0  0  0  0  0  0  0  0  0
    6.2303    2.0808   24.7660 N   0  0  0  0  0  0  0  0  0  0  0  0
    6.2785    0.9108   24.2061 C   0  0  0  0  0  0  0  0  0  0  0  0
    6.6337    0.8826   22.8804 N   0  0  0  0  0  0  0  0  0  0  0  0
    6.9699    1.8322   22.7491 H   0  0  0  0  0  0  0  0  0  0  0  0
    7.4013   -0.1523   22.2971 C   0  0  0  0  0  0  0  0  0  0  0  0
    7.3748   -0.5821   20.9269 C   0  0  0  0  0  0  0  0  0  0  0  0
    6.6053    0.0184   19.8293 C   0  0  0  0  0  0  0  0  0  0  0  0
    7.1133    0.0260   18.5156 C   0  0  0  0  0  0  0  0  0  0  0  0
    8.0450   -0.4887   18.2874 H   0  0  0  0  0  0  0  0  0  0  0  0
    6.5295    0.6659   17.4981 N   0  0  0  0  0  0  0  0  0  0  0  0
    5.3842    1.3168   17.7551 C   0  0  0  0  0  0  0  0  0  0  0  0
    4.9408    1.8581   16.9224 H   0  0  0  0  0  0  0  0  0  0  0  0
    4.7646    1.3217   19.0098 C   0  0  0  0  0  0  0  0  0  0  0  0
    3.8381    1.8650   19.1514 H   0  0  0  0  0  0  0  0  0  0  0  0
    5.3799    0.6624   20.0681 C   0  0  0  0  0  0  0  0  0  0  0  0
    4.9420    0.6580   21.0683 H   0  0  0  0  0  0  0  0  0  0  0  0
    8.1968   -1.6146   20.7322 N   0  0  0  0  0  0  0  0  0  0  0  0
    8.7284   -1.8126   21.9335 N   0  0  0  0  0  0  0  0  0  0  0  0
    8.3333   -0.9727   22.9015 C   0  0  0  0  0  0  0  0  0  0  0  0
    9.1484   -1.2007   24.1500 C   0  0  0  0  0  0  0  0  0  0  0  0
    8.5455   -1.6216   24.9609 H   0  0  0  0  0  0  0  0  0  0  0  0
    9.5833   -0.2632   24.5142 H   0  0  0  0  0  0  0  0  0  0  0  0
   10.2397   -2.1888   23.6523 C   0  0  0  0  0  0  0  0  0  0  0  0
   11.1475   -1.6255   23.4457 H   0  0  0  0  0  0  0  0  0  0  0  0
   10.4698   -2.9654   24.3847 H   0  0  0  0  0  0  0  0  0  0  0  0
    9.7479   -2.7588   22.2974 C   0  0  0  0  0  0  0  0  0  0  0  0
    9.3298   -3.7690   22.3549 H   0  0  0  0  0  0  0  0  0  0  0  0
   10.5277   -2.7333   21.5364 H   0  0  0  0  0  0  0  0  0  0  0  0
    5.8171   -0.4321   25.1978 S   0  0  0  0  0  0  0  0  0  0  0  0
    5.5144    0.6958   26.4857 C   0  0  0  0  0  0  0  0  0  0  0  0
    5.1404    0.3681   27.4440 H   0  0  0  0  0  0  0  0  0  0  0  0
  1  2  1  0
  2  3  1  0
  3  4  2  0
  4  5  1  0
  5  6  1  0
  5  7  1  0
  7  8  1  0
  8  9  1  0
  9 10  2  0
 10 11  1  0
 10 12  1  0
 12 13  2  0
 13 14  1  0
 13 15  1  0
 15 16  1  0
 15 17  2  0
 17 18  1  0
  8 19  2  0
 19 20  1  0
 20 21  1  0
 21 22  1  0
 22 23  1  0
 22 24  1  0
 22 25  1  0
 25 26  1  0
 25 27  1  0
 25 28  1  0
 28 29  1  0
 28 30  1  0
  4 31  1  0
 31 32  1  0
 32 33  1  0
 32  2  2  0
 21  7  2  0
 17  9  1  0
 28 20  1  0
M  END
>  <cnnaffinity>  (1) 
-5.34697

>  <filename>  (1) 
c1cncc(-c2nn3c(c2Nc2nccs2)CCC3)c1

$$$$
