
     RDKit          3D

 38 42  0  0  0  0  0  0  0  0999 V2000
    4.9993    1.8441   16.9120 H   0  0  0  0  0  0  0  0  0  0  0  0
    5.3874    1.3111   17.7814 C   0  0  0  0  0  0  0  0  0  0  0  0
    6.5377    0.6438   17.6032 N   0  0  0  0  0  0  0  0  0  0  0  0
    7.0565    0.0214   18.6705 C   0  0  0  0  0  0  0  0  0  0  0  0
    7.9945   -0.5024   18.4920 H   0  0  0  0  0  0  0  0  0  0  0  0
    6.4681   -0.0069   19.9536 C   0  0  0  0  0  0  0  0  0  0  0  0
    7.2136   -0.6222   21.0711 C   0  0  0  0  0  0  0  0  0  0  0  0
    8.5704   -0.5683   21.3080 C   0  0  0  0  0  0  0  0  0  0  0  0
    8.7750   -1.1788   22.5360 C   0  0  0  0  0  0  0  0  0  0  0  0
    7.6609   -1.6397   23.0701 N   0  0  0  0  0  0  0  0  0  0  0  0
    6.7149   -1.2849   22.1609 N   0  0  0  0  0  0  0  0  0  0  0  0
    5.7530   -1.5357   22.3609 H   0  0  0  0  0  0  0  0  0  0  0  0
   10.2116   -1.1615   22.9685 C   0  0  0  0  0  0  0  0  0  0  0  0
   10.6100   -2.1805   23.0452 H   0  0  0  0  0  0  0  0  0  0  0  0
   10.3512   -0.6910   23.9490 H   0  0  0  0  0  0  0  0  0  0  0  0
   10.9099   -0.3539   21.8090 C   0  0  2  0  0  0  0  0  0  0  0  0
   11.7253   -0.9531   21.4084 H   0  0  0  0  0  0  0  0  0  0  0  0
   11.5596    0.9258   22.2413 C   0  0  0  0  0  0  0  0  0  0  0  0
   12.8186    1.2249   22.0908 N   0  0  0  0  0  0  0  0  0  0  0  0
   12.9415    2.5026   22.6123 C   0  0  0  0  0  0  0  0  0  0  0  0
   14.0802    3.3107   22.7193 C   0  0  0  0  0  0  0  0  0  0  0  0
   15.0310    2.9495   22.3407 H   0  0  0  0  0  0  0  0  0  0  0  0
   13.9681    4.5422   23.3496 C   0  0  0  0  0  0  0  0  0  0  0  0
   14.8578    5.1481   23.4466 H   0  0  0  0  0  0  0  0  0  0  0  0
   12.7277    4.9942   23.8549 C   0  0  0  0  0  0  0  0  0  0  0  0
   12.6805    5.9569   24.3582 H   0  0  0  0  0  0  0  0  0  0  0  0
   11.5750    4.2206   23.7197 C   0  0  0  0  0  0  0  0  0  0  0  0
   10.6201    4.5880   24.0820 H   0  0  0  0  0  0  0  0  0  0  0  0
   11.7017    2.9704   23.0927 C   0  0  0  0  0  0  0  0  0  0  0  0
   10.8311    1.9261   22.8292 N   0  0  0  0  0  0  0  0  0  0  0  0
    9.8290    1.9203   22.9086 H   0  0  0  0  0  0  0  0  0  0  0  0
    9.8388   -0.1031   20.6899 C   0  0  0  0  0  0  0  0  0  0  0  0
   10.0765   -0.6968   19.8048 H   0  0  0  0  0  0  0  0  0  0  0  0
    9.7773    0.9398   20.3539 H   0  0  0  0  0  0  0  0  0  0  0  0
    5.2478    0.6740   20.1073 C   0  0  0  0  0  0  0  0  0  0  0  0
    4.7454    0.7141   21.0758 H   0  0  0  0  0  0  0  0  0  0  0  0
    4.7089    1.3421   19.0060 C   0  0  0  0  0  0  0  0  0  0  0  0
    3.7945    1.9181   19.0820 H   0  0  0  0  0  0  0  0  0  0  0  0
  1  2  1  0
  2  3  2  0
  3  4  1  0
  4  5  1  0
  4  6  2  0
  6  7  1  0
  7  8  2  0
  8  9  1  0
  9 10  2  0
 10 11  1  0
 11 12  1  0
  9 13  1  0
 13 14  1  0
 13 15  1  0
 13 16  1  0
 16 17  1  6
 16 18  1  0
 18 19  2  0
 19 20  1  0
 20 21  2  0
 21 22  1  0
 21 23  1  0
 23 24  1  0
 23 25  2  0
 25 26  1  0
 25 27  1  0
 27 28  1  0
 27 29  2  0
 29 30  1  0
 30 31  1  0
 16 32  1  0
 32 33  1  0
 32 34  1  0
  6 35  1  0
 35 36  1  0
 35 37  2  0
 37 38  1  0
 37  2  1  0
 11  7  1  0
 30 18  1  0
 32  8  1  0
 29 20  1  0
M  END
>  <cnnaffinity>  (1) 
-6.02993

>  <filename>  (1) 
c1cncc(-c2[nH]nc3c2C[C@@H](c2nc4ccccc4[nH]2)C3)c1

$$$$
