
     RDKit          3D

 30 33  0  0  0  0  0  0  0  0999 V2000
    4.9163    1.7866   16.9937 H   0  0  0  0  0  0  0  0  0  0  0  0
    5.3994    1.2967   17.8357 C   0  0  0  0  0  0  0  0  0  0  0  0
    6.5641    0.6823   17.5682 N   0  0  0  0  0  0  0  0  0  0  0  0
    7.1698    0.0613   18.5832 C   0  0  0  0  0  0  0  0  0  0  0  0
    8.1193   -0.4165   18.3594 H   0  0  0  0  0  0  0  0  0  0  0  0
    6.6639    0.0012   19.9019 C   0  0  0  0  0  0  0  0  0  0  0  0
    7.3669   -0.7177   20.9834 C   0  0  0  0  0  0  0  0  0  0  0  0
    8.0672   -2.2530   20.8081 S   0  0  0  0  0  0  0  0  0  0  0  0
    8.4949   -2.3818   22.4234 N   0  0  0  0  0  0  0  0  0  0  0  0
    8.1487   -1.3437   23.0734 N   0  0  0  0  0  0  0  0  0  0  0  0
    7.5350   -0.3754   22.3233 C   0  0  0  0  0  0  0  0  0  0  0  0
    7.1654    0.9045   22.9474 C   0  0  0  0  0  0  0  0  0  0  0  0
    6.5848    0.9073   24.2507 C   0  0  0  0  0  0  0  0  0  0  0  0
    6.4486   -0.0474   24.7586 H   0  0  0  0  0  0  0  0  0  0  0  0
    6.2083    2.0908   24.8650 C   0  0  0  0  0  0  0  0  0  0  0  0
    5.7823    2.1051   25.8677 H   0  0  0  0  0  0  0  0  0  0  0  0
    6.4215    3.2892   24.1526 C   0  0  0  0  0  0  0  0  0  0  0  0
    6.9932    3.3121   22.8588 C   0  0  0  0  0  0  0  0  0  0  0  0
    7.3727    2.1053   22.2629 C   0  0  0  0  0  0  0  0  0  0  0  0
    7.7974    2.1182   21.2625 H   0  0  0  0  0  0  0  0  0  0  0  0
    7.0550    4.6867   22.4486 C   0  0  0  0  0  0  0  0  0  0  0  0
    7.4383    5.0433   21.5026 H   0  0  0  0  0  0  0  0  0  0  0  0
    6.5472    5.4375   23.4689 C   0  0  0  0  0  0  0  0  0  0  0  0
    6.4235    6.5155   23.5503 H   0  0  0  0  0  0  0  0  0  0  0  0
    6.1658    4.5907   24.4958 N   0  0  0  0  0  0  0  0  0  0  0  0
    5.7627    4.8581   25.3734 H   0  0  0  0  0  0  0  0  0  0  0  0
    5.4352    0.6394   20.1506 C   0  0  0  0  0  0  0  0  0  0  0  0
    5.0207    0.6325   21.1617 H   0  0  0  0  0  0  0  0  0  0  0  0
    4.8014    1.3051   19.1005 C   0  0  0  0  0  0  0  0  0  0  0  0
    3.8725    1.8425   19.2556 H   0  0  0  0  0  0  0  0  0  0  0  0
  1  2  1  0
  2  3  2  0
  3  4  1  0
  4  5  1  0
  4  6  2  0
  6  7  1  0
  7  8  1  0
  8  9  1  0
  9 10  2  0
 10 11  1  0
 11 12  1  0
 12 13  2  0
 13 14  1  0
 13 15  1  0
 15 16  1  0
 15 17  2  0
 17 18  1  0
 18 19  2  0
 19 20  1  0
 18 21  1  0
 21 22  1  0
 21 23  2  0
 23 24  1  0
 23 25  1  0
 25 26  1  0
  6 27  1  0
 27 28  1  0
 27 29  2  0
 29 30  1  0
 29  2  1  0
 11  7  2  0
 19 12  1  0
 25 17  1  0
M  END
>  <cnnaffinity>  (1) 
-5.08587

>  <filename>  (1) 
c1cncc(-c2snnc2-c2ccc3[nH]ccc3c2)c1

$$$$
