
     RDKit          3D

 31 34  0  0  0  0  0  0  0  0999 V2000
    4.9179    1.7791   16.9985 H   0  0  0  0  0  0  0  0  0  0  0  0
    5.4060    1.2919   17.8422 C   0  0  0  0  0  0  0  0  0  0  0  0
    6.5736    0.6760   17.5898 N   0  0  0  0  0  0  0  0  0  0  0  0
    7.1800    0.0493   18.5994 C   0  0  0  0  0  0  0  0  0  0  0  0
    8.1265   -0.4385   18.3816 H   0  0  0  0  0  0  0  0  0  0  0  0
    6.6531   -0.0046   19.9006 C   0  0  0  0  0  0  0  0  0  0  0  0
    7.3655   -0.6812   20.9327 N   0  0  0  0  0  0  0  0  0  0  0  0
    7.9196   -1.8937   20.7192 N   0  0  0  0  0  0  0  0  0  0  0  0
    8.4263   -2.3135   21.8325 N   0  0  0  0  0  0  0  0  0  0  0  0
    8.2063   -1.3758   22.7853 C   0  0  0  0  0  0  0  0  0  0  0  0
    8.5525   -1.4654   23.8014 H   0  0  0  0  0  0  0  0  0  0  0  0
    7.5380   -0.3096   22.2348 C   0  0  0  0  0  0  0  0  0  0  0  0
    7.1849    0.9810   22.8166 C   0  0  0  0  0  0  0  0  0  0  0  0
    7.4820    2.1936   22.1744 C   0  0  0  0  0  0  0  0  0  0  0  0
    7.9500    2.1611   21.1950 H   0  0  0  0  0  0  0  0  0  0  0  0
    7.1679    3.4292   22.7773 C   0  0  0  0  0  0  0  0  0  0  0  0
    7.4001    4.3494   22.2501 H   0  0  0  0  0  0  0  0  0  0  0  0
    6.5623    3.4861   24.0340 C   0  0  0  0  0  0  0  0  0  0  0  0
    6.3120    4.4288   24.5167 H   0  0  0  0  0  0  0  0  0  0  0  0
    6.2796    2.2672   24.6706 C   0  0  0  0  0  0  0  0  0  0  0  0
    6.5785    1.0131   24.0947 C   0  0  0  0  0  0  0  0  0  0  0  0
    6.1219    0.0148   25.0221 C   0  0  0  0  0  0  0  0  0  0  0  0
    6.1845   -1.0512   24.8510 H   0  0  0  0  0  0  0  0  0  0  0  0
    5.5894    0.6631   26.0997 C   0  0  0  0  0  0  0  0  0  0  0  0
    5.1418    0.2483   27.0008 H   0  0  0  0  0  0  0  0  0  0  0  0
    5.6888    2.0227   25.8872 N   0  0  0  0  0  0  0  0  0  0  0  0
    5.3745    2.7497   26.5019 H   0  0  0  0  0  0  0  0  0  0  0  0
    5.4335    0.6335   20.1613 C   0  0  0  0  0  0  0  0  0  0  0  0
    5.0073    0.6353   21.1683 H   0  0  0  0  0  0  0  0  0  0  0  0
    4.8078    1.3020   19.1074 C   0  0  0  0  0  0  0  0  0  0  0  0
    3.8767    1.8407   19.2624 H   0  0  0  0  0  0  0  0  0  0  0  0
  1  2  1  0
  2  3  2  0
  3  4  1  0
  4  5  1  0
  4  6  2  0
  6  7  1  0
  7  8  1  0
  8  9  2  0
  9 10  1  0
 10 11  1  0
 10 12  2  0
 12 13  1  0
 13 14  2  0
 14 15  1  0
 14 16  1  0
 16 17  1  0
 16 18  2  0
 18 19  1  0
 18 20  1  0
 20 21  2  0
 21 22  1  0
 22 23  1  0
 22 24  2  0
 24 25  1  0
 24 26  1  0
 26 27  1  0
  6 28  1  0
 28 29  1  0
 28 30  2  0
 30 31  1  0
 30  2  1  0
 12  7  1  0
 21 13  1  0
 26 20  1  0
M  END
>  <cnnaffinity>  (1) 
-5.23504

>  <filename>  (1) 
c1cncc(-n2nncc2-c2cccc3[nH]ccc23)c1

$$$$
