
     RDKit          3D

 31 34  0  0  0  0  0  0  0  0999 V2000
    4.9155    1.7786   16.9983 H   0  0  0  0  0  0  0  0  0  0  0  0
    5.4026    1.2912   17.8417 C   0  0  0  0  0  0  0  0  0  0  0  0
    6.5706    0.6756   17.5865 N   0  0  0  0  0  0  0  0  0  0  0  0
    7.1823    0.0537   18.5975 C   0  0  0  0  0  0  0  0  0  0  0  0
    8.1283   -0.4370   18.3771 H   0  0  0  0  0  0  0  0  0  0  0  0
    6.6555    0.0167   19.9056 C   0  0  0  0  0  0  0  0  0  0  0  0
    7.3539   -0.6454   20.9669 N   0  0  0  0  0  0  0  0  0  0  0  0
    8.1169   -1.7461   20.7292 N   0  0  0  0  0  0  0  0  0  0  0  0
    8.6049   -2.1138   21.8503 N   0  0  0  0  0  0  0  0  0  0  0  0
    8.2148   -1.2987   22.8602 N   0  0  0  0  0  0  0  0  0  0  0  0
    7.4458   -0.4018   22.2976 C   0  0  0  0  0  0  0  0  0  0  0  0
    6.8092    0.6370   22.8477 O   0  0  0  0  0  0  0  0  0  0  0  0
    7.0147    0.9890   24.1783 C   0  0  0  0  0  0  0  0  0  0  0  0
    7.9656    0.5842   25.0764 C   0  0  0  0  0  0  0  0  0  0  0  0
    8.7664   -0.1306   24.9305 H   0  0  0  0  0  0  0  0  0  0  0  0
    7.7378    1.2602   26.2628 N   0  0  0  0  0  0  0  0  0  0  0  0
    8.2726    1.1708   27.1103 H   0  0  0  0  0  0  0  0  0  0  0  0
    6.6617    2.1007   26.1309 C   0  0  0  0  0  0  0  0  0  0  0  0
    6.0818    2.9764   27.0699 C   0  0  0  0  0  0  0  0  0  0  0  0
    6.4879    3.0517   28.0786 H   0  0  0  0  0  0  0  0  0  0  0  0
    4.9851    3.7238   26.6449 C   0  0  0  0  0  0  0  0  0  0  0  0
    4.5114    4.4122   27.3427 H   0  0  0  0  0  0  0  0  0  0  0  0
    4.4744    3.6086   25.3248 C   0  0  0  0  0  0  0  0  0  0  0  0
    3.6190    4.2085   25.0245 H   0  0  0  0  0  0  0  0  0  0  0  0
    5.0633    2.7337   24.4088 C   0  0  0  0  0  0  0  0  0  0  0  0
    4.6857    2.6428   23.3929 H   0  0  0  0  0  0  0  0  0  0  0  0
    6.1699    1.9626   24.8070 C   0  0  0  0  0  0  0  0  0  0  0  0
    5.4377    0.6495   20.1651 C   0  0  0  0  0  0  0  0  0  0  0  0
    5.0081    0.6291   21.1656 H   0  0  0  0  0  0  0  0  0  0  0  0
    4.8058    1.3049   19.1059 C   0  0  0  0  0  0  0  0  0  0  0  0
    3.8751    1.8407   19.2613 H   0  0  0  0  0  0  0  0  0  0  0  0
  1  2  1  0
  2  3  2  0
  3  4  1  0
  4  5  1  0
  4  6  2  0
  6  7  1  0
  7  8  1  0
  8  9  2  0
  9 10  1  0
 10 11  2  0
 11 12  1  0
 12 13  1  0
 13 14  2  0
 14 15  1  0
 14 16  1  0
 16 17  1  0
 16 18  1  0
 18 19  2  0
 19 20  1  0
 19 21  1  0
 21 22  1  0
 21 23  2  0
 23 24  1  0
 23 25  1  0
 25 26  1  0
 25 27  2  0
  6 28  1  0
 28 29  1  0
 28 30  2  0
 30 31  1  0
 30  2  1  0
 11  7  1  0
 27 13  1  0
 27 18  1  0
M  END
>  <cnnaffinity>  (1) 
-5.21205

>  <filename>  (1) 
c1cncc(-n2nnnc2Oc2c[nH]c3ccccc23)c1

$$$$
