
     RDKit          3D

 25 27  0  0  0  0  0  0  0  0999 V2000
    8.3266   -5.5874   24.7050 H   0  0  0  0  0  0  0  0  0  0  0  0
    8.2792   -4.7297   24.0435 C   0  0  0  0  0  0  0  0  0  0  0  0
    7.1766   -4.2897   23.5189 N   0  0  0  0  0  0  0  0  0  0  0  0
    7.4409   -3.1968   22.7329 C   0  0  0  0  0  0  0  0  0  0  0  0
    6.6447   -2.6810   22.2114 H   0  0  0  0  0  0  0  0  0  0  0  0
    8.7551   -2.8135   22.6473 C   0  0  0  0  0  0  0  0  0  0  0  0
    9.2883   -1.7091   21.8810 C   0  0  0  0  0  0  0  0  0  0  0  0
    8.6504   -0.7610   21.0957 C   0  0  0  0  0  0  0  0  0  0  0  0
    7.2829   -0.6896   20.9478 O   0  0  0  0  0  0  0  0  0  0  0  0
    6.6852    0.0138   19.9145 C   0  0  0  0  0  0  0  0  0  0  0  0
    7.1864    0.0553   18.5995 C   0  0  0  0  0  0  0  0  0  0  0  0
    8.1280   -0.4368   18.3696 H   0  0  0  0  0  0  0  0  0  0  0  0
    6.5648    0.6737   17.5854 N   0  0  0  0  0  0  0  0  0  0  0  0
    5.4022    1.2917   17.8431 C   0  0  0  0  0  0  0  0  0  0  0  0
    4.9119    1.7779   17.0003 H   0  0  0  0  0  0  0  0  0  0  0  0
    4.8170    1.3035   19.1151 C   0  0  0  0  0  0  0  0  0  0  0  0
    3.8817    1.8363   19.2679 H   0  0  0  0  0  0  0  0  0  0  0  0
    5.4590    0.6423   20.1698 C   0  0  0  0  0  0  0  0  0  0  0  0
    5.0256    0.6154   21.1702 H   0  0  0  0  0  0  0  0  0  0  0  0
    9.6668    0.0838   20.6224 C   0  0  0  0  0  0  0  0  0  0  0  0
    9.5494    0.9496   19.9924 H   0  0  0  0  0  0  0  0  0  0  0  0
   10.8598   -0.3067   21.0613 N   0  0  0  0  0  0  0  0  0  0  0  0
   10.6098   -1.3822   21.8035 N   0  0  0  0  0  0  0  0  0  0  0  0
   11.3748   -1.8651   22.2523 H   0  0  0  0  0  0  0  0  0  0  0  0
    9.7116   -3.8673   23.6279 S   0  0  0  0  0  0  0  0  0  0  0  0
  1  2  1  0
  2  3  2  0
  3  4  1  0
  4  5  1  0
  4  6  2  0
  6  7  1  0
  7  8  2  0
  8  9  1  0
  9 10  1  0
 10 11  2  0
 11 12  1  0
 11 13  1  0
 13 14  2  0
 14 15  1  0
 14 16  1  0
 16 17  1  0
 16 18  2  0
 18 19  1  0
  8 20  1  0
 20 21  1  0
 20 22  2  0
 22 23  1  0
 23 24  1  0
  6 25  1  0
 25  2  1  0
 23  7  1  0
 18 10  1  0
M  END
>  <cnnaffinity>  (1) 
-5.4161

>  <filename>  (1) 
c1cncc(Oc2cn[nH]c2-c2cncs2)c1

$$$$
