
     RDKit          3D

 32 35  0  0  0  0  0  0  0  0999 V2000
    4.9112    1.7810   16.9951 H   0  0  0  0  0  0  0  0  0  0  0  0
    5.3995    1.2951   17.8367 C   0  0  0  0  0  0  0  0  0  0  0  0
    6.5631    0.6779   17.5748 N   0  0  0  0  0  0  0  0  0  0  0  0
    7.1749    0.0633   18.5907 C   0  0  0  0  0  0  0  0  0  0  0  0
    8.1147   -0.4343   18.3657 H   0  0  0  0  0  0  0  0  0  0  0  0
    6.6674    0.0110   19.9019 C   0  0  0  0  0  0  0  0  0  0  0  0
    7.3683   -0.6754   20.9348 N   0  0  0  0  0  0  0  0  0  0  0  0
    8.7234   -0.8607   21.0820 C   0  0  0  0  0  0  0  0  0  0  0  0
    9.4221   -0.4466   20.3598 H   0  0  0  0  0  0  0  0  0  0  0  0
    9.0235   -1.5565   22.1401 N   0  0  0  0  0  0  0  0  0  0  0  0
    7.8157   -1.8296   22.7660 C   0  0  0  0  0  0  0  0  0  0  0  0
    7.6777   -2.5731   24.0288 C   0  0  0  0  0  0  0  0  0  0  0  0
    6.5043   -2.4824   24.7981 C   0  0  0  0  0  0  0  0  0  0  0  0
    5.6852   -1.8440   24.4721 H   0  0  0  0  0  0  0  0  0  0  0  0
    6.3651   -3.1862   26.0119 C   0  0  0  0  0  0  0  0  0  0  0  0
    5.4476   -3.0878   26.5830 H   0  0  0  0  0  0  0  0  0  0  0  0
    7.3819   -4.0085   26.4987 C   0  0  0  0  0  0  0  0  0  0  0  0
    7.2955   -4.5630   27.4316 H   0  0  0  0  0  0  0  0  0  0  0  0
    8.5457   -4.1038   25.7235 C   0  0  0  0  0  0  0  0  0  0  0  0
    8.7221   -3.4145   24.5002 C   0  0  0  0  0  0  0  0  0  0  0  0
   10.0192   -3.7885   24.0039 C   0  0  0  0  0  0  0  0  0  0  0  0
   10.4385   -3.4234   23.0773 H   0  0  0  0  0  0  0  0  0  0  0  0
   10.5733   -4.6482   24.9039 C   0  0  0  0  0  0  0  0  0  0  0  0
   11.5398   -5.1468   24.8776 H   0  0  0  0  0  0  0  0  0  0  0  0
    9.6852   -4.8357   25.9445 N   0  0  0  0  0  0  0  0  0  0  0  0
    9.8154   -5.4284   26.7464 H   0  0  0  0  0  0  0  0  0  0  0  0
    6.8004   -1.3039   22.0193 C   0  0  0  0  0  0  0  0  0  0  0  0
    5.7342   -1.3661   22.1487 H   0  0  0  0  0  0  0  0  0  0  0  0
    5.4451    0.6474   20.1620 C   0  0  0  0  0  0  0  0  0  0  0  0
    5.0134    0.6379   21.1658 H   0  0  0  0  0  0  0  0  0  0  0  0
    4.8094    1.3092   19.1073 C   0  0  0  0  0  0  0  0  0  0  0  0
    3.8746    1.8419   19.2647 H   0  0  0  0  0  0  0  0  0  0  0  0
  1  2  1  0
  2  3  2  0
  3  4  1  0
  4  5  1  0
  4  6  2  0
  6  7  1  0
  7  8  1  0
  8  9  1  0
  8 10  2  0
 10 11  1  0
 11 12  1  0
 12 13  2  0
 13 14  1  0
 13 15  1  0
 15 16  1  0
 15 17  2  0
 17 18  1  0
 17 19  1  0
 19 20  2  0
 20 21  1  0
 21 22  1  0
 21 23  2  0
 23 24  1  0
 23 25  1  0
 25 26  1  0
 11 27  2  0
 27 28  1  0
  6 29  1  0
 29 30  1  0
 29 31  2  0
 31 32  1  0
 31  2  1  0
 27  7  1  0
 20 12  1  0
 25 19  1  0
M  END
>  <cnnaffinity>  (1) 
-5.34043

>  <filename>  (1) 
c1cncc(-n2cnc(-c3cccc4[nH]ccc34)c2)c1

$$$$
