
     RDKit          3D

 33 36  0  0  0  0  0  0  0  0999 V2000
    4.9630    1.8341   16.9940 H   0  0  0  0  0  0  0  0  0  0  0  0
    5.4315    1.2979   17.8183 C   0  0  0  0  0  0  0  0  0  0  0  0
    6.5757    0.6528   17.5419 N   0  0  0  0  0  0  0  0  0  0  0  0
    7.1787   -0.0028   18.5451 C   0  0  0  0  0  0  0  0  0  0  0  0
    8.1064   -0.5203   18.3095 H   0  0  0  0  0  0  0  0  0  0  0  0
    6.6856   -0.0385   19.8619 C   0  0  0  0  0  0  0  0  0  0  0  0
    7.2829   -0.7546   20.8842 O   0  0  0  0  0  0  0  0  0  0  0  0
    8.6530   -0.7370   21.0526 C   0  0  0  0  0  0  0  0  0  0  0  0
    9.6076    0.2082   20.6400 C   0  0  0  0  0  0  0  0  0  0  0  0
    9.4422    1.0881   20.0320 H   0  0  0  0  0  0  0  0  0  0  0  0
   10.8209   -0.1261   21.0740 N   0  0  0  0  0  0  0  0  0  0  0  0
   10.6456   -1.2548   21.7573 N   0  0  0  0  0  0  0  0  0  0  0  0
   11.4611   -1.7435   22.1176 H   0  0  0  0  0  0  0  0  0  0  0  0
    9.3451   -1.6879   21.7980 C   0  0  0  0  0  0  0  0  0  0  0  0
    8.8943   -2.8224   22.5756 C   0  0  0  0  0  0  0  0  0  0  0  0
    9.5635   -3.6369   23.4656 C   0  0  0  0  0  0  0  0  0  0  0  0
   10.6140   -3.6271   23.7223 H   0  0  0  0  0  0  0  0  0  0  0  0
    8.6094   -4.5137   24.0569 C   0  0  0  0  0  0  0  0  0  0  0  0
    8.6839   -5.4759   25.0929 C   0  0  0  0  0  0  0  0  0  0  0  0
    9.6486   -5.7187   25.5413 H   0  0  0  0  0  0  0  0  0  0  0  0
    7.5092   -6.0831   25.5117 C   0  0  0  0  0  0  0  0  0  0  0  0
    7.5194   -6.7688   26.3520 H   0  0  0  0  0  0  0  0  0  0  0  0
    6.2728   -5.8151   24.8626 C   0  0  0  0  0  0  0  0  0  0  0  0
    5.3817   -6.3396   25.1934 H   0  0  0  0  0  0  0  0  0  0  0  0
    6.1835   -4.8979   23.8175 C   0  0  0  0  0  0  0  0  0  0  0  0
    5.2444   -4.7038   23.3116 H   0  0  0  0  0  0  0  0  0  0  0  0
    7.3587   -4.2188   23.4531 C   0  0  0  0  0  0  0  0  0  0  0  0
    7.5639   -3.1960   22.5584 N   0  0  0  0  0  0  0  0  0  0  0  0
    6.8516   -2.6062   22.1564 H   0  0  0  0  0  0  0  0  0  0  0  0
    5.4856    0.6191   20.1384 C   0  0  0  0  0  0  0  0  0  0  0  0
    5.0863    0.6140   21.1526 H   0  0  0  0  0  0  0  0  0  0  0  0
    4.8520    1.2987   19.0931 C   0  0  0  0  0  0  0  0  0  0  0  0
    3.9263    1.8369   19.2591 H   0  0  0  0  0  0  0  0  0  0  0  0
  1  2  1  0
  2  3  2  0
  3  4  1  0
  4  5  1  0
  4  6  2  0
  6  7  1  0
  7  8  1  0
  8  9  1  0
  9 10  1  0
  9 11  2  0
 11 12  1  0
 12 13  1  0
 12 14  1  0
 14 15  1  0
 15 16  2  0
 16 17  1  0
 16 18  1  0
 18 19  2  0
 19 20  1  0
 19 21  1  0
 21 22  1  0
 21 23  2  0
 23 24  1  0
 23 25  1  0
 25 26  1  0
 25 27  2  0
 27 28  1  0
 28 29  1  0
  6 30  1  0
 30 31  1  0
 30 32  2  0
 32 33  1  0
 32  2  1  0
 14  8  2  0
 28 15  1  0
 27 18  1  0
M  END
>  <cnnaffinity>  (1) 
-5.68848

>  <filename>  (1) 
c1cncc(Oc2cn[nH]c2-c2cc3ccccc3[nH]2)c1

$$$$
