
     RDKit          3D

 29 31  0  0  0  0  0  0  0  0999 V2000
    4.9435    2.1447   16.2613 H   0  0  0  0  0  0  0  0  0  0  0  0
    5.1986    1.7266   17.2288 C   0  0  0  0  0  0  0  0  0  0  0  0
    6.4143    1.1624   17.3201 N   0  0  0  0  0  0  0  0  0  0  0  0
    6.7649    0.6638   18.5117 C   0  0  0  0  0  0  0  0  0  0  0  0
    7.7599    0.2243   18.5802 H   0  0  0  0  0  0  0  0  0  0  0  0
    5.9388    0.6756   19.6699 C   0  0  0  0  0  0  0  0  0  0  0  0
    6.3629    0.1641   20.9080 N   0  0  0  0  0  0  0  0  0  0  0  0
    5.6804   -0.2798   21.5060 H   0  0  0  0  0  0  0  0  0  0  0  0
    7.7043    0.0372   21.3001 C   0  0  0  0  0  0  0  0  0  0  0  0
    8.6185    1.0944   20.9924 C   0  0  0  0  0  0  0  0  0  0  0  0
    8.2170    1.9671   20.4937 H   0  0  0  0  0  0  0  0  0  0  0  0
    9.9563    0.9694   21.2611 C   0  0  0  0  0  0  0  0  0  0  0  0
   10.6495    1.7884   21.0717 H   0  0  0  0  0  0  0  0  0  0  0  0
   10.4672   -0.2514   21.7840 C   0  0  0  0  0  0  0  0  0  0  0  0
   11.8633   -0.4783   21.9211 C   0  0  0  0  0  0  0  0  0  0  0  0
   12.5459    0.3299   21.6895 H   0  0  0  0  0  0  0  0  0  0  0  0
   12.3385   -1.6871   22.3573 C   0  0  0  0  0  0  0  0  0  0  0  0
   13.4095   -1.8530   22.4244 H   0  0  0  0  0  0  0  0  0  0  0  0
   11.4292   -2.7057   22.7610 C   0  0  0  0  0  0  0  0  0  0  0  0
   11.8090   -3.6140   23.2101 H   0  0  0  0  0  0  0  0  0  0  0  0
   10.0728   -2.5225   22.6529 C   0  0  0  0  0  0  0  0  0  0  0  0
    9.3785   -3.3115   22.9302 H   0  0  0  0  0  0  0  0  0  0  0  0
    9.5514   -1.2999   22.1366 C   0  0  0  0  0  0  0  0  0  0  0  0
    8.1558   -1.0971   21.9318 C   0  0  0  0  0  0  0  0  0  0  0  0
    7.4501   -1.8578   22.2563 H   0  0  0  0  0  0  0  0  0  0  0  0
    4.6655    1.2487   19.5352 C   0  0  0  0  0  0  0  0  0  0  0  0
    4.0131    1.3155   20.4056 H   0  0  0  0  0  0  0  0  0  0  0  0
    4.2978    1.7822   18.2975 C   0  0  0  0  0  0  0  0  0  0  0  0
    3.3266    2.2448   18.1567 H   0  0  0  0  0  0  0  0  0  0  0  0
  1  2  1  0
  2  3  2  0
  3  4  1  0
  4  5  1  0
  4  6  2  0
  6  7  1  0
  7  8  1  0
  7  9  1  0
  9 10  2  0
 10 11  1  0
 10 12  1  0
 12 13  1  0
 12 14  2  0
 14 15  1  0
 15 16  1  0
 15 17  2  0
 17 18  1  0
 17 19  1  0
 19 20  1  0
 19 21  2  0
 21 22  1  0
 21 23  1  0
 23 24  2  0
 24 25  1  0
  6 26  1  0
 26 27  1  0
 26 28  2  0
 28 29  1  0
 28  2  1  0
 24  9  1  0
 23 14  1  0
M  END
>  <cnnaffinity>  (1) 
-4.94025

>  <filename>  (1) 
c1cncc(Nc2ccc3ccccc3c2)c1

$$$$
