
     RDKit          3D

 37 39  0  0  0  0  0  0  0  0999 V2000
    4.9302    1.9969   16.8668 H   0  0  0  0  0  0  0  0  0  0  0  0
    5.3703    1.4101   17.6701 C   0  0  0  0  0  0  0  0  0  0  0  0
    6.4900    0.7359   17.3622 N   0  0  0  0  0  0  0  0  0  0  0  0
    7.0588    0.0334   18.3473 C   0  0  0  0  0  0  0  0  0  0  0  0
    7.9816   -0.4854   18.1038 H   0  0  0  0  0  0  0  0  0  0  0  0
    6.5447   -0.0848   19.6548 C   0  0  0  0  0  0  0  0  0  0  0  0
    7.2766   -0.9044   20.6395 C   0  0  0  0  0  0  0  0  0  0  0  0
    6.7491   -1.7120   21.6046 C   0  0  0  0  0  0  0  0  0  0  0  0
    5.7049   -1.9040   21.8072 H   0  0  0  0  0  0  0  0  0  0  0  0
    7.9720   -2.5089   22.5201 S   0  0  0  0  0  0  0  0  0  0  0  0
    9.2388   -1.6887   21.6551 C   0  0  0  0  0  0  0  0  0  0  0  0
   10.6702   -1.7100   22.1073 C   0  0  0  0  0  0  0  0  0  0  0  0
   10.8807   -2.6501   22.6296 H   0  0  0  0  0  0  0  0  0  0  0  0
   11.3150   -1.7008   21.2153 H   0  0  0  0  0  0  0  0  0  0  0  0
   11.0618   -0.5025   23.0047 C   0  0  0  0  0  0  0  0  0  0  0  0
   12.1023   -0.6745   23.3077 H   0  0  0  0  0  0  0  0  0  0  0  0
   11.0395    0.8422   22.2371 C   0  0  0  0  0  0  0  0  0  0  0  0
   10.0714    0.9406   21.7349 H   0  0  0  0  0  0  0  0  0  0  0  0
   11.7959    0.8198   21.4417 H   0  0  0  0  0  0  0  0  0  0  0  0
   11.2200    2.0781   23.1565 C   0  0  0  0  0  0  0  0  0  0  0  0
   11.8623    2.8106   22.6580 H   0  0  0  0  0  0  0  0  0  0  0  0
   10.2451    2.5698   23.3074 H   0  0  0  0  0  0  0  0  0  0  0  0
   11.7776    1.7013   24.5386 C   0  0  0  0  0  0  0  0  0  0  0  0
   11.9180    2.6035   25.1366 H   0  0  0  0  0  0  0  0  0  0  0  0
   12.7733    1.2422   24.4354 H   0  0  0  0  0  0  0  0  0  0  0  0
   10.8383    0.6976   25.2553 C   0  0  0  0  0  0  0  0  0  0  0  0
   11.3920    0.1751   26.0419 H   0  0  0  0  0  0  0  0  0  0  0  0
   10.0352    1.2406   25.7714 H   0  0  0  0  0  0  0  0  0  0  0  0
   10.2149   -0.3428   24.2817 C   0  0  0  0  0  0  0  0  0  0  0  0
   10.0768   -1.3064   24.7844 H   0  0  0  0  0  0  0  0  0  0  0  0
    9.2118   -0.0148   23.9751 H   0  0  0  0  0  0  0  0  0  0  0  0
    8.7039   -0.9308   20.6557 C   0  0  0  0  0  0  0  0  0  0  0  0
    9.3027   -0.3655   19.9506 H   0  0  0  0  0  0  0  0  0  0  0  0
    5.3816    0.6314   19.9565 C   0  0  0  0  0  0  0  0  0  0  0  0
    4.9716    0.6084   20.9688 H   0  0  0  0  0  0  0  0  0  0  0  0
    4.7937    1.3975   18.9476 C   0  0  0  0  0  0  0  0  0  0  0  0
    3.9131    1.9978   19.1381 H   0  0  0  0  0  0  0  0  0  0  0  0
  1  2  1  0
  2  3  2  0
  3  4  1  0
  4  5  1  0
  4  6  2  0
  6  7  1  0
  7  8  2  0
  8  9  1  0
  8 10  1  0
 10 11  1  0
 11 12  1  0
 12 13  1  0
 12 14  1  0
 12 15  1  0
 15 16  1  0
 15 17  1  0
 17 18  1  0
 17 19  1  0
 17 20  1  0
 20 21  1  0
 20 22  1  0
 20 23  1  0
 23 24  1  0
 23 25  1  0
 23 26  1  0
 26 27  1  0
 26 28  1  0
 26 29  1  0
 29 30  1  0
 29 31  1  0
 11 32  2  0
 32 33  1  0
  6 34  1  0
 34 35  1  0
 34 36  2  0
 36 37  1  0
 36  2  1  0
 32  7  1  0
 29 15  1  0
M  END
>  <cnnaffinity>  (1) 
-5.1969

>  <filename>  (1) 
c1cncc(-c2csc(CC3CCCCC3)c2)c1

$$$$
