
     RDKit          3D

 35 38  0  0  0  0  0  0  0  0999 V2000
    4.9889    1.7814   16.9807 H   0  0  0  0  0  0  0  0  0  0  0  0
    5.4180    1.2856   17.8494 C   0  0  0  0  0  0  0  0  0  0  0  0
    6.5834    0.6552   17.6422 N   0  0  0  0  0  0  0  0  0  0  0  0
    7.1614    0.0669   18.6902 C   0  0  0  0  0  0  0  0  0  0  0  0
    8.0882   -0.4593   18.4755 H   0  0  0  0  0  0  0  0  0  0  0  0
    6.6335    0.0990   19.9849 C   0  0  0  0  0  0  0  0  0  0  0  0
    7.3852   -0.6309   21.0201 C   0  0  0  0  0  0  0  0  0  0  0  0
    7.9853   -1.7212   20.7445 N   0  0  0  0  0  0  0  0  0  0  0  0
    8.4614   -2.3150   21.9907 C   0  0  0  0  0  0  0  0  0  0  0  0
    9.5523   -2.4214   21.9292 H   0  0  0  0  0  0  0  0  0  0  0  0
    8.0371   -3.3220   22.0956 H   0  0  0  0  0  0  0  0  0  0  0  0
    8.0161   -1.3614   23.1313 C   0  0  0  0  0  0  0  0  0  0  0  0
    7.2729   -1.7840   23.8256 H   0  0  0  0  0  0  0  0  0  0  0  0
    8.8518   -1.0145   23.7595 H   0  0  0  0  0  0  0  0  0  0  0  0
    7.4287   -0.2680   22.3544 N   0  0  0  0  0  0  0  0  0  0  0  0
    7.1862    0.9852   22.8888 C   0  0  0  0  0  0  0  0  0  0  0  0
    6.7275    1.0152   24.1142 N   0  0  0  0  0  0  0  0  0  0  0  0
    6.4912    2.2460   24.6585 C   0  0  0  0  0  0  0  0  0  0  0  0
    5.9614    2.3083   25.9809 C   0  0  0  0  0  0  0  0  0  0  0  0
    5.7573    1.3643   26.4714 H   0  0  0  0  0  0  0  0  0  0  0  0
    5.7414    3.5230   26.5921 C   0  0  0  0  0  0  0  0  0  0  0  0
    5.3467    3.5729   27.6049 H   0  0  0  0  0  0  0  0  0  0  0  0
    6.0339    4.7375   25.9119 C   0  0  0  0  0  0  0  0  0  0  0  0
    5.8544    5.6866   26.4135 H   0  0  0  0  0  0  0  0  0  0  0  0
    6.5392    4.7144   24.6345 C   0  0  0  0  0  0  0  0  0  0  0  0
    6.7659    5.6378   24.1053 H   0  0  0  0  0  0  0  0  0  0  0  0
    6.7784    3.4720   23.9788 C   0  0  0  0  0  0  0  0  0  0  0  0
    7.3110    3.3738   22.6570 C   0  0  0  0  0  0  0  0  0  0  0  0
    7.5479    4.2920   22.1199 H   0  0  0  0  0  0  0  0  0  0  0  0
    7.5064    2.1372   22.1038 C   0  0  0  0  0  0  0  0  0  0  0  0
    7.8825    1.9589   21.1033 H   0  0  0  0  0  0  0  0  0  0  0  0
    5.3817    0.7042   20.1840 C   0  0  0  0  0  0  0  0  0  0  0  0
    4.9000    0.6979   21.1661 H   0  0  0  0  0  0  0  0  0  0  0  0
    4.7755    1.3218   19.0929 C   0  0  0  0  0  0  0  0  0  0  0  0
    3.8333    1.8502   19.1957 H   0  0  0  0  0  0  0  0  0  0  0  0
  1  2  1  0
  2  3  2  0
  3  4  1  0
  4  5  1  0
  4  6  2  0
  6  7  1  0
  7  8  2  0
  8  9  1  0
  9 10  1  0
  9 11  1  0
  9 12  1  0
 12 13  1  0
 12 14  1  0
 12 15  1  0
 15 16  1  0
 16 17  2  0
 17 18  1  0
 18 19  2  0
 19 20  1  0
 19 21  1  0
 21 22  1  0
 21 23  2  0
 23 24  1  0
 23 25  1  0
 25 26  1  0
 25 27  2  0
 27 28  1  0
 28 29  1  0
 28 30  2  0
 30 31  1  0
  6 32  1  0
 32 33  1  0
 32 34  2  0
 34 35  1  0
 34  2  1  0
 15  7  1  0
 30 16  1  0
 27 18  1  0
M  END
>  <cnnaffinity>  (1) 
-5.15373

>  <filename>  (1) 
c1cncc(C2=NCCN2c2ccc3ccccc3n2)c1

$$$$
