
     RDKit          3D

 39 41  0  0  0  0  0  0  0  0999 V2000
    4.9254    1.7774   16.9963 H   0  0  0  0  0  0  0  0  0  0  0  0
    5.4074    1.2884   17.8436 C   0  0  0  0  0  0  0  0  0  0  0  0
    6.5696    0.6666   17.5992 N   0  0  0  0  0  0  0  0  0  0  0  0
    7.1752    0.0542   18.6161 C   0  0  0  0  0  0  0  0  0  0  0  0
    8.1124   -0.4327   18.3669 H   0  0  0  0  0  0  0  0  0  0  0  0
    6.6601    0.0006   19.9211 C   0  0  0  0  0  0  0  0  0  0  0  0
    7.3685   -0.6872   20.9402 N   0  0  0  0  0  0  0  0  0  0  0  0
    6.7338   -1.1062   22.0563 N   0  0  0  0  0  0  0  0  0  0  0  0
    7.6650   -1.6713   22.8055 C   0  0  0  0  0  0  0  0  0  0  0  0
    7.3523   -2.3283   24.1025 C   0  0  0  0  0  0  0  0  0  0  0  0
    6.5332   -1.8048   24.6039 H   0  0  0  0  0  0  0  0  0  0  0  0
    8.2265   -2.2616   24.7539 H   0  0  0  0  0  0  0  0  0  0  0  0
    6.9910   -3.8094   23.9188 C   0  0  0  0  0  0  0  0  0  0  0  0
    7.8110   -4.3311   23.4091 H   0  0  0  0  0  0  0  0  0  0  0  0
    6.1290   -3.8840   23.2467 H   0  0  0  0  0  0  0  0  0  0  0  0
    6.6926   -4.5353   25.1426 N   0  0  0  0  0  0  0  0  0  0  0  0
    7.8261   -4.6815   26.0595 C   0  0  0  0  0  0  0  0  0  0  0  0
    8.1068   -3.7196   26.5298 H   0  0  0  0  0  0  0  0  0  0  0  0
    8.7035   -5.0180   25.4961 H   0  0  0  0  0  0  0  0  0  0  0  0
    7.5082   -5.6832   27.1706 C   0  0  0  0  0  0  0  0  0  0  0  0
    8.3606   -5.7566   27.8558 H   0  0  0  0  0  0  0  0  0  0  0  0
    7.3787   -6.6721   26.7209 H   0  0  0  0  0  0  0  0  0  0  0  0
    6.2385   -5.2852   27.9288 C   0  0  0  0  0  0  0  0  0  0  0  0
    6.4297   -4.3668   28.4995 H   0  0  0  0  0  0  0  0  0  0  0  0
    5.9663   -6.0537   28.6616 H   0  0  0  0  0  0  0  0  0  0  0  0
    5.0879   -5.0382   26.9478 C   0  0  0  0  0  0  0  0  0  0  0  0
    4.7809   -5.9821   26.4852 H   0  0  0  0  0  0  0  0  0  0  0  0
    4.2113   -4.6460   27.4752 H   0  0  0  0  0  0  0  0  0  0  0  0
    5.5012   -4.0608   25.8462 C   0  0  0  0  0  0  0  0  0  0  0  0
    4.6843   -3.9411   25.1255 H   0  0  0  0  0  0  0  0  0  0  0  0
    5.6595   -3.0652   26.3040 H   0  0  0  0  0  0  0  0  0  0  0  0
    8.9203   -1.6376   22.1697 C   0  0  0  0  0  0  0  0  0  0  0  0
    9.8486   -2.0441   22.5472 H   0  0  0  0  0  0  0  0  0  0  0  0
    8.6995   -0.9971   20.9784 C   0  0  0  0  0  0  0  0  0  0  0  0
    9.3727   -0.7138   20.1787 H   0  0  0  0  0  0  0  0  0  0  0  0
    5.4382    0.6484   20.1766 C   0  0  0  0  0  0  0  0  0  0  0  0
    5.0066    0.6249   21.1790 H   0  0  0  0  0  0  0  0  0  0  0  0
    4.8149    1.3060   19.1132 C   0  0  0  0  0  0  0  0  0  0  0  0
    3.8812    1.8382   19.2616 H   0  0  0  0  0  0  0  0  0  0  0  0
  1  2  1  0
  2  3  2  0
  3  4  1  0
  4  5  1  0
  4  6  2  0
  6  7  1  0
  7  8  1  0
  8  9  2  0
  9 10  1  0
 10 11  1  0
 10 12  1  0
 10 13  1  0
 13 14  1  0
 13 15  1  0
 13 16  1  0
 16 17  1  0
 17 18  1  0
 17 19  1  0
 17 20  1  0
 20 21  1  0
 20 22  1  0
 20 23  1  0
 23 24  1  0
 23 25  1  0
 23 26  1  0
 26 27  1  0
 26 28  1  0
 26 29  1  0
 29 30  1  0
 29 31  1  0
  9 32  1  0
 32 33  1  0
 32 34  2  0
 34 35  1  0
  6 36  1  0
 36 37  1  0
 36 38  2  0
 38 39  1  0
 38  2  1  0
 34  7  1  0
 29 16  1  0
M  END
>  <cnnaffinity>  (1) 
-4.92403

>  <filename>  (1) 
c1cncc(-n2ccc(CCN3CCCCC3)n2)c1

$$$$
