
     RDKit          3D

 35 39  0  0  0  0  0  0  0  0999 V2000
    4.9498    1.8035   16.9786 H   0  0  0  0  0  0  0  0  0  0  0  0
    5.4019    1.2882   17.8252 C   0  0  0  0  0  0  0  0  0  0  0  0
    6.5611    0.6597   17.5791 N   0  0  0  0  0  0  0  0  0  0  0  0
    7.1550    0.0243   18.5927 C   0  0  0  0  0  0  0  0  0  0  0  0
    8.1046   -0.4548   18.3614 H   0  0  0  0  0  0  0  0  0  0  0  0
    6.6393   -0.0146   19.8975 C   0  0  0  0  0  0  0  0  0  0  0  0
    7.3881   -0.6941   20.9541 C   0  0  0  0  0  0  0  0  0  0  0  0
    8.0599   -1.8723   20.7321 N   0  0  0  0  0  0  0  0  0  0  0  0
    8.4736   -2.2184   21.9198 C   0  0  0  0  0  0  0  0  0  0  0  0
    9.3680   -3.5392   22.6049 S   0  0  0  0  0  0  0  0  0  0  0  0
    9.4475   -2.7323   24.1500 C   0  0  0  0  0  0  0  0  0  0  0  0
   10.0241   -3.1955   24.9414 H   0  0  0  0  0  0  0  0  0  0  0  0
    8.7539   -1.5811   24.1472 C   0  0  0  0  0  0  0  0  0  0  0  0
    8.6039   -0.8552   24.9380 H   0  0  0  0  0  0  0  0  0  0  0  0
    8.1715   -1.3241   22.9079 N   0  0  0  0  0  0  0  0  0  0  0  0
    7.4874   -0.2980   22.2880 C   0  0  0  0  0  0  0  0  0  0  0  0
    7.1013    0.9320   22.9680 C   0  0  0  0  0  0  0  0  0  0  0  0
    6.4622    0.8804   24.2368 C   0  0  0  0  0  0  0  0  0  0  0  0
    6.2805   -0.0975   24.6726 H   0  0  0  0  0  0  0  0  0  0  0  0
    6.0509    2.0365   24.8798 C   0  0  0  0  0  0  0  0  0  0  0  0
    5.5753    1.9748   25.8544 H   0  0  0  0  0  0  0  0  0  0  0  0
    6.2697    3.2913   24.2588 C   0  0  0  0  0  0  0  0  0  0  0  0
    5.9895    4.6615   24.6029 C   0  0  0  0  0  0  0  0  0  0  0  0
    5.5157    5.0007   25.5161 H   0  0  0  0  0  0  0  0  0  0  0  0
    6.4342    5.4363   23.5711 C   0  0  0  0  0  0  0  0  0  0  0  0
    6.4129    6.5093   23.4316 H   0  0  0  0  0  0  0  0  0  0  0  0
    6.9862    4.6328   22.5937 N   0  0  0  0  0  0  0  0  0  0  0  0
    7.3643    4.9335   21.7110 H   0  0  0  0  0  0  0  0  0  0  0  0
    6.9017    3.3206   22.9876 C   0  0  0  0  0  0  0  0  0  0  0  0
    7.3219    2.1575   22.3387 C   0  0  0  0  0  0  0  0  0  0  0  0
    7.7662    2.1650   21.3500 H   0  0  0  0  0  0  0  0  0  0  0  0
    5.4149    0.6387   20.1378 C   0  0  0  0  0  0  0  0  0  0  0  0
    4.9830    0.6567   21.1409 H   0  0  0  0  0  0  0  0  0  0  0  0
    4.7917    1.3005   19.0834 C   0  0  0  0  0  0  0  0  0  0  0  0
    3.8642    1.8438   19.2234 H   0  0  0  0  0  0  0  0  0  0  0  0
  1  2  1  0
  2  3  2  0
  3  4  1  0
  4  5  1  0
  4  6  2  0
  6  7  1  0
  7  8  1  0
  8  9  2  0
  9 10  1  0
 10 11  1  0
 11 12  1  0
 11 13  2  0
 13 14  1  0
 13 15  1  0
 15 16  1  0
 16 17  1  0
 17 18  2  0
 18 19  1  0
 18 20  1  0
 20 21  1  0
 20 22  2  0
 22 23  1  0
 23 24  1  0
 23 25  2  0
 25 26  1  0
 25 27  1  0
 27 28  1  0
 27 29  1  0
 29 30  2  0
 30 31  1  0
  6 32  1  0
 32 33  1  0
 32 34  2  0
 34 35  1  0
 34  2  1  0
 16  7  2  0
 30 17  1  0
 15  9  1  0
 29 22  1  0
M  END
>  <cnnaffinity>  (1) 
-5.86475

>  <filename>  (1) 
c1cncc(-c2nc3sccn3c2-c2ccc3cc[nH]c3c2)c1

$$$$
