
     RDKit          3D

 36 38  0  0  0  0  0  0  0  0999 V2000
    4.9311    1.8130   16.9916 H   0  0  0  0  0  0  0  0  0  0  0  0
    5.3979    1.2984   17.8287 C   0  0  0  0  0  0  0  0  0  0  0  0
    6.5596    0.6780   17.5655 N   0  0  0  0  0  0  0  0  0  0  0  0
    7.1689    0.0462   18.5804 C   0  0  0  0  0  0  0  0  0  0  0  0
    8.1176   -0.4357   18.3483 H   0  0  0  0  0  0  0  0  0  0  0  0
    6.6538   -0.0266   19.9010 C   0  0  0  0  0  0  0  0  0  0  0  0
    7.2931   -0.7147   20.9391 N   0  0  0  0  0  0  0  0  0  0  0  0
    6.7213   -1.1244   21.6729 H   0  0  0  0  0  0  0  0  0  0  0  0
    8.6831   -0.7212   21.1785 C   0  0  0  0  0  0  0  0  0  0  0  0
    9.6947    0.1509   20.7079 C   0  0  0  0  0  0  0  0  0  0  0  0
    9.5670    0.9733   20.0164 H   0  0  0  0  0  0  0  0  0  0  0  0
   10.8953   -0.1407   21.1899 N   0  0  0  0  0  0  0  0  0  0  0  0
   10.6765   -1.2178   21.9875 N   0  0  0  0  0  0  0  0  0  0  0  0
   11.4762   -1.6425   22.4360 H   0  0  0  0  0  0  0  0  0  0  0  0
    9.3632   -1.5958   22.0034 C   0  0  0  0  0  0  0  0  0  0  0  0
    8.8136   -2.6269   22.6802 O   0  0  0  0  0  0  0  0  0  0  0  0
    9.5962   -3.3534   23.6403 C   0  0  0  0  0  0  0  0  0  0  0  0
   10.5556   -3.6188   23.1817 H   0  0  0  0  0  0  0  0  0  0  0  0
    9.8640   -2.5579   24.9136 C   0  0  0  0  0  0  0  0  0  0  0  0
   10.4443   -1.6523   24.7149 H   0  0  0  0  0  0  0  0  0  0  0  0
   10.4697   -3.2439   25.5166 H   0  0  0  0  0  0  0  0  0  0  0  0
    8.5843   -2.2425   25.6820 C   0  0  0  0  0  0  0  0  0  0  0  0
    8.8383   -1.7545   26.6300 H   0  0  0  0  0  0  0  0  0  0  0  0
    7.9549   -1.5390   25.1056 H   0  0  0  0  0  0  0  0  0  0  0  0
    7.9270   -3.5140   25.9754 N   0  0  0  0  0  0  0  0  0  0  0  0
    7.1320   -3.3754   26.5901 H   0  0  0  0  0  0  0  0  0  0  0  0
    7.5403   -4.2603   24.7775 C   0  0  0  0  0  0  0  0  0  0  0  0
    7.0503   -5.1854   25.1002 H   0  0  0  0  0  0  0  0  0  0  0  0
    6.8397   -3.7041   24.1280 H   0  0  0  0  0  0  0  0  0  0  0  0
    8.7994   -4.6063   23.9732 C   0  0  0  0  0  0  0  0  0  0  0  0
    9.4412   -5.2498   24.5881 H   0  0  0  0  0  0  0  0  0  0  0  0
    8.5461   -5.1347   23.0480 H   0  0  0  0  0  0  0  0  0  0  0  0
    5.4375    0.6255   20.1455 C   0  0  0  0  0  0  0  0  0  0  0  0
    5.0290    0.6106   21.1565 H   0  0  0  0  0  0  0  0  0  0  0  0
    4.8030    1.3014   19.0975 C   0  0  0  0  0  0  0  0  0  0  0  0
    3.8723    1.8400   19.2541 H   0  0  0  0  0  0  0  0  0  0  0  0
  1  2  1  0
  2  3  2  0
  3  4  1  0
  4  5  1  0
  4  6  2  0
  6  7  1  0
  7  8  1  0
  7  9  1  0
  9 10  1  0
 10 11  1  0
 10 12  2  0
 12 13  1  0
 13 14  1  0
 13 15  1  0
 15 16  1  0
 16 17  1  0
 17 18  1  0
 17 19  1  0
 19 20  1  0
 19 21  1  0
 19 22  1  0
 22 23  1  0
 22 24  1  0
 22 25  1  0
 25 26  1  0
 25 27  1  0
 27 28  1  0
 27 29  1  0
 27 30  1  0
 30 31  1  0
 30 32  1  0
  6 33  1  0
 33 34  1  0
 33 35  2  0
 35 36  1  0
 35  2  1  0
 15  9  2  0
 30 17  1  0
M  END
>  <cnnaffinity>  (1) 
-5.22914

>  <filename>  (1) 
c1cncc(Nc2cn[nH]c2OC2CCNCC2)c1

$$$$
