
     RDKit          3D

 41 43  0  0  0  0  0  0  0  0999 V2000
    4.9221    1.7886   16.9881 H   0  0  0  0  0  0  0  0  0  0  0  0
    5.4005    1.2943   17.8305 C   0  0  0  0  0  0  0  0  0  0  0  0
    6.5513    0.6690   17.5689 N   0  0  0  0  0  0  0  0  0  0  0  0
    7.1661    0.0618   18.5974 C   0  0  0  0  0  0  0  0  0  0  0  0
    8.1071   -0.4113   18.3397 H   0  0  0  0  0  0  0  0  0  0  0  0
    6.6794    0.0145   19.9191 C   0  0  0  0  0  0  0  0  0  0  0  0
    7.3634   -0.7656   21.0569 C   0  0  0  0  0  0  0  0  0  0  0  0
    6.4943   -2.0329   21.3173 C   0  0  0  0  0  0  0  0  0  0  0  0
    6.4318   -2.5876   20.3685 H   0  0  0  0  0  0  0  0  0  0  0  0
    5.4612   -1.7027   21.5018 H   0  0  0  0  0  0  0  0  0  0  0  0
    6.9893   -2.8859   22.3972 N   0  0  0  0  0  0  0  0  0  0  0  0
    7.3717   -4.2326   21.9648 C   0  0  0  0  0  0  0  0  0  0  0  0
    6.5095   -4.7863   21.5543 H   0  0  0  0  0  0  0  0  0  0  0  0
    8.1226   -4.1619   21.1680 H   0  0  0  0  0  0  0  0  0  0  0  0
    7.9502   -5.0283   23.1340 C   0  0  0  0  0  0  0  0  0  0  0  0
    8.8937   -4.5635   23.4592 H   0  0  0  0  0  0  0  0  0  0  0  0
    8.1482   -6.0564   22.8268 H   0  0  0  0  0  0  0  0  0  0  0  0
    7.0449   -5.0968   24.2292 O   0  0  0  0  0  0  0  0  0  0  0  0
    6.7141   -3.7862   24.6733 C   0  0  0  0  0  0  0  0  0  0  0  0
    6.0046   -3.9000   25.4951 H   0  0  0  0  0  0  0  0  0  0  0  0
    7.6160   -3.2798   25.0495 H   0  0  0  0  0  0  0  0  0  0  0  0
    6.0954   -2.9459   23.5590 C   0  0  0  0  0  0  0  0  0  0  0  0
    5.1155   -3.3799   23.2946 H   0  0  0  0  0  0  0  0  0  0  0  0
    5.9135   -1.9323   23.9360 H   0  0  0  0  0  0  0  0  0  0  0  0
    8.8187   -1.1997   20.7430 C   0  0  0  0  0  0  0  0  0  0  0  0
    9.1591   -1.8633   21.5487 H   0  0  0  0  0  0  0  0  0  0  0  0
    8.8804   -1.7592   19.8092 H   0  0  0  0  0  0  0  0  0  0  0  0
    9.7802   -0.0207   20.6805 C   0  0  0  0  0  0  0  0  0  0  0  0
    9.5357    0.6290   19.8225 H   0  0  0  0  0  0  0  0  0  0  0  0
   10.8049   -0.3879   20.5828 H   0  0  0  0  0  0  0  0  0  0  0  0
    9.7531    0.7429   21.8678 O   0  0  0  0  0  0  0  0  0  0  0  0
    8.4607    1.2449   22.1535 C   0  0  0  0  0  0  0  0  0  0  0  0
    8.5679    1.8423   23.0614 H   0  0  0  0  0  0  0  0  0  0  0  0
    8.1267    1.9076   21.3349 H   0  0  0  0  0  0  0  0  0  0  0  0
    7.4618    0.1039   22.3470 C   0  0  0  0  0  0  0  0  0  0  0  0
    6.4833    0.5053   22.6327 H   0  0  0  0  0  0  0  0  0  0  0  0
    7.8207   -0.5322   23.1670 H   0  0  0  0  0  0  0  0  0  0  0  0
    5.4505    0.6577   20.1528 C   0  0  0  0  0  0  0  0  0  0  0  0
    4.9909    0.6399   21.1451 H   0  0  0  0  0  0  0  0  0  0  0  0
    4.8131    1.3145   19.0993 C   0  0  0  0  0  0  0  0  0  0  0  0
    3.8807    1.8390   19.2526 H   0  0  0  0  0  0  0  0  0  0  0  0
  1  2  1  0
  2  3  2  0
  3  4  1  0
  4  5  1  0
  4  6  2  0
  6  7  1  0
  7  8  1  0
  8  9  1  0
  8 10  1  0
  8 11  1  0
 11 12  1  0
 12 13  1  0
 12 14  1  0
 12 15  1  0
 15 16  1  0
 15 17  1  0
 15 18  1  0
 18 19  1  0
 19 20  1  0
 19 21  1  0
 19 22  1  0
 22 23  1  0
 22 24  1  0
  7 25  1  0
 25 26  1  0
 25 27  1  0
 25 28  1  0
 28 29  1  0
 28 30  1  0
 28 31  1  0
 31 32  1  0
 32 33  1  0
 32 34  1  0
 32 35  1  0
 35 36  1  0
 35 37  1  0
  6 38  1  0
 38 39  1  0
 38 40  2  0
 40 41  1  0
 40  2  1  0
 35  7  1  0
 22 11  1  0
M  END
>  <cnnaffinity>  (1) 
-4.68669

>  <filename>  (1) 
c1cncc(C2(CN3CCOCC3)CCOCC2)c1

$$$$
