
     RDKit          3D

 33 36  0  0  0  0  0  0  0  0999 V2000
    4.9772    1.8781   16.9852 H   0  0  0  0  0  0  0  0  0  0  0  0
    5.4913    1.3448   17.7842 C   0  0  0  0  0  0  0  0  0  0  0  0
    6.6435    0.7445   17.4451 N   0  0  0  0  0  0  0  0  0  0  0  0
    7.3170    0.0820   18.3937 C   0  0  0  0  0  0  0  0  0  0  0  0
    8.2507   -0.3821   18.0729 H   0  0  0  0  0  0  0  0  0  0  0  0
    6.8551   -0.0492   19.7171 C   0  0  0  0  0  0  0  0  0  0  0  0
    7.5360   -0.8527   20.6669 N   0  0  0  0  0  0  0  0  0  0  0  0
    8.8819   -0.7801   21.0149 C   0  0  0  0  0  0  0  0  0  0  0  0
    9.5206   -0.0647   20.5228 H   0  0  0  0  0  0  0  0  0  0  0  0
    9.1315   -1.6526   22.0289 C   0  0  0  0  0  0  0  0  0  0  0  0
   10.0133   -1.8776   22.6032 H   0  0  0  0  0  0  0  0  0  0  0  0
    7.9236   -2.2639   22.3110 N   0  0  0  0  0  0  0  0  0  0  0  0
    7.4870   -3.1769   23.2301 N   0  0  0  0  0  0  0  0  0  0  0  0
    6.1973   -3.2664   22.9110 C   0  0  0  0  0  0  0  0  0  0  0  0
    5.2676   -4.0702   23.5260 N   0  0  0  0  0  0  0  0  0  0  0  0
    4.4668   -4.2117   22.9427 H   0  0  0  0  0  0  0  0  0  0  0  0
    5.4145   -5.0352   24.4884 C   0  0  0  0  0  0  0  0  0  0  0  0
    4.6439   -6.1891   24.3600 C   0  0  0  0  0  0  0  0  0  0  0  0
    3.9951   -6.3397   23.5075 H   0  0  0  0  0  0  0  0  0  0  0  0
    4.7573   -7.1565   25.3437 C   0  0  0  0  0  0  0  0  0  0  0  0
    4.1847   -8.0791   25.2640 H   0  0  0  0  0  0  0  0  0  0  0  0
    5.5450   -7.0343   26.4193 N   0  0  0  0  0  0  0  0  0  0  0  0
    6.2581   -5.9053   26.5271 C   0  0  0  0  0  0  0  0  0  0  0  0
    6.8754   -5.8222   27.4197 H   0  0  0  0  0  0  0  0  0  0  0  0
    6.2438   -4.8755   25.5909 C   0  0  0  0  0  0  0  0  0  0  0  0
    6.8436   -3.9826   25.6959 H   0  0  0  0  0  0  0  0  0  0  0  0
    5.7955   -2.4591   21.8382 C   0  0  0  0  0  0  0  0  0  0  0  0
    4.7828   -2.3542   21.5223 H   0  0  0  0  0  0  0  0  0  0  0  0
    6.9560   -1.8067   21.4842 C   0  0  0  0  0  0  0  0  0  0  0  0
    5.6598    0.5967   20.0687 C   0  0  0  0  0  0  0  0  0  0  0  0
    5.3049    0.5482   21.0994 H   0  0  0  0  0  0  0  0  0  0  0  0
    4.9680    1.3040   19.0823 C   0  0  0  0  0  0  0  0  0  0  0  0
    4.0439    1.8286   19.3033 H   0  0  0  0  0  0  0  0  0  0  0  0
  1  2  1  0
  2  3  2  0
  3  4  1  0
  4  5  1  0
  4  6  2  0
  6  7  1  0
  7  8  1  0
  8  9  1  0
  8 10  2  0
 10 11  1  0
 10 12  1  0
 12 13  1  0
 13 14  2  0
 14 15  1  0
 15 16  1  0
 15 17  1  0
 17 18  2  0
 18 19  1  0
 18 20  1  0
 20 21  1  0
 20 22  2  0
 22 23  1  0
 23 24  1  0
 23 25  2  0
 25 26  1  0
 14 27  1  0
 27 28  1  0
 27 29  2  0
  6 30  1  0
 30 31  1  0
 30 32  2  0
 32 33  1  0
 32  2  1  0
 29  7  1  0
 29 12  1  0
 25 17  1  0
M  END
>  <cnnaffinity>  (1) 
-5.20983

>  <filename>  (1) 
c1cncc(-n2ccn3nc(Nc4ccncc4)cc23)c1

$$$$
