
     RDKit          3D

 42 45  0  0  0  0  0  0  0  0999 V2000
    5.0115    1.7347   17.1637 H   0  0  0  0  0  0  0  0  0  0  0  0
    5.5522    1.2136   17.9487 C   0  0  0  0  0  0  0  0  0  0  0  0
    6.7243    0.6557   17.5937 N   0  0  0  0  0  0  0  0  0  0  0  0
    7.4047    0.0099   18.5523 C   0  0  0  0  0  0  0  0  0  0  0  0
    8.3502   -0.4403   18.2447 H   0  0  0  0  0  0  0  0  0  0  0  0
    6.9786   -0.1323   19.9046 C   0  0  0  0  0  0  0  0  0  0  0  0
    7.7579   -0.8390   20.8230 N   0  0  0  0  0  0  0  0  0  0  0  0
    8.7278   -0.9161   20.5395 H   0  0  0  0  0  0  0  0  0  0  0  0
    7.6370   -0.7748   22.2718 C   0  0  0  0  0  0  0  0  0  0  0  0
    7.6151    0.6617   22.8561 C   0  0  0  0  0  0  0  0  0  0  0  0
    6.8215    1.2576   22.4025 H   0  0  0  0  0  0  0  0  0  0  0  0
    7.3911    0.5886   23.9279 H   0  0  0  0  0  0  0  0  0  0  0  0
    8.9222    1.3807   22.6751 C   0  0  0  0  0  0  0  0  0  0  0  0
    9.2323    2.0217   21.4374 C   0  0  0  0  0  0  0  0  0  0  0  0
    8.4660    2.0799   20.6678 H   0  0  0  0  0  0  0  0  0  0  0  0
   10.4913    2.5312   21.2225 C   0  0  0  0  0  0  0  0  0  0  0  0
   10.8268    2.9542   20.2817 H   0  0  0  0  0  0  0  0  0  0  0  0
   11.4840    2.4505   22.2316 C   0  0  0  0  0  0  0  0  0  0  0  0
   12.7705    3.0345   22.0712 C   0  0  0  0  0  0  0  0  0  0  0  0
   12.9353    3.7434   21.2583 H   0  0  0  0  0  0  0  0  0  0  0  0
   13.7987    2.6337   22.8768 C   0  0  0  0  0  0  0  0  0  0  0  0
   14.7757    3.0615   22.6807 H   0  0  0  0  0  0  0  0  0  0  0  0
   13.5767    1.6389   23.8803 C   0  0  0  0  0  0  0  0  0  0  0  0
   14.3796    1.0845   24.3351 H   0  0  0  0  0  0  0  0  0  0  0  0
   12.3039    1.2553   24.2095 C   0  0  0  0  0  0  0  0  0  0  0  0
   12.1214    0.5672   25.0335 H   0  0  0  0  0  0  0  0  0  0  0  0
   11.2132    1.6970   23.4136 C   0  0  0  0  0  0  0  0  0  0  0  0
    9.8785    1.2961   23.6612 C   0  0  0  0  0  0  0  0  0  0  0  0
    9.6419    0.8553   24.6281 H   0  0  0  0  0  0  0  0  0  0  0  0
    8.6862   -1.7423   22.8814 C   0  0  0  0  0  0  0  0  0  0  0  0
    9.4292   -2.1193   22.1678 H   0  0  0  0  0  0  0  0  0  0  0  0
    9.2278   -1.3181   23.7289 H   0  0  0  0  0  0  0  0  0  0  0  0
    7.5568   -2.7311   23.2849 C   0  0  0  0  0  0  0  0  0  0  0  0
    7.5075   -2.9739   24.3539 H   0  0  0  0  0  0  0  0  0  0  0  0
    7.5538   -3.6743   22.7303 H   0  0  0  0  0  0  0  0  0  0  0  0
    6.5159   -1.6823   22.8177 C   0  0  0  0  0  0  0  0  0  0  0  0
    6.0364   -1.2151   23.6845 H   0  0  0  0  0  0  0  0  0  0  0  0
    5.7811   -1.9891   22.0641 H   0  0  0  0  0  0  0  0  0  0  0  0
    5.7410    0.4435   20.2330 C   0  0  0  0  0  0  0  0  0  0  0  0
    5.3596    0.3655   21.2493 H   0  0  0  0  0  0  0  0  0  0  0  0
    5.0282    1.1291   19.2426 C   0  0  0  0  0  0  0  0  0  0  0  0
    4.0837    1.6110   19.4731 H   0  0  0  0  0  0  0  0  0  0  0  0
  1  2  1  0
  2  3  2  0
  3  4  1  0
  4  5  1  0
  4  6  2  0
  6  7  1  0
  7  8  1  0
  7  9  1  0
  9 10  1  0
 10 11  1  0
 10 12  1  0
 10 13  1  0
 13 14  2  0
 14 15  1  0
 14 16  1  0
 16 17  1  0
 16 18  2  0
 18 19  1  0
 19 20  1  0
 19 21  2  0
 21 22  1  0
 21 23  1  0
 23 24  1  0
 23 25  2  0
 25 26  1  0
 25 27  1  0
 27 28  2  0
 28 29  1  0
  9 30  1  0
 30 31  1  0
 30 32  1  0
 30 33  1  0
 33 34  1  0
 33 35  1  0
 33 36  1  0
 36 37  1  0
 36 38  1  0
  6 39  1  0
 39 40  1  0
 39 41  2  0
 41 42  1  0
 41  2  1  0
 36  9  1  0
 28 13  1  0
 27 18  1  0
M  END
>  <cnnaffinity>  (1) 
-5.58552

>  <filename>  (1) 
c1cncc(NC2(Cc3ccc4ccccc4c3)CCC2)c1

$$$$
