
     RDKit          3D

 44 47  0  0  0  0  0  0  0  0999 V2000
    4.9777    1.8437   16.9420 H   0  0  0  0  0  0  0  0  0  0  0  0
    5.4123    1.3027   17.7811 C   0  0  0  0  0  0  0  0  0  0  0  0
    6.5534    0.6416   17.5311 N   0  0  0  0  0  0  0  0  0  0  0  0
    7.1359    0.0109   18.5550 C   0  0  0  0  0  0  0  0  0  0  0  0
    8.0413   -0.5442   18.3161 H   0  0  0  0  0  0  0  0  0  0  0  0
    6.6420    0.0294   19.8715 C   0  0  0  0  0  0  0  0  0  0  0  0
    7.4169   -0.5931   20.9508 C   0  0  0  0  0  0  0  0  0  0  0  0
    8.0000   -1.7797   20.7719 N   0  0  0  0  0  0  0  0  0  0  0  0
    8.5693   -2.0204   21.9527 N   0  0  0  0  0  0  0  0  0  0  0  0
    8.4412   -1.0461   22.8594 C   0  0  0  0  0  0  0  0  0  0  0  0
    7.6844   -0.0619   22.2550 C   0  0  0  0  0  0  0  0  0  0  0  0
    7.2341    1.2137   22.9147 C   0  0  0  0  0  0  0  0  0  0  0  0
    8.0704    1.7317   23.4054 H   0  0  0  0  0  0  0  0  0  0  0  0
    6.8516    1.9083   22.1585 H   0  0  0  0  0  0  0  0  0  0  0  0
    6.1781    0.9617   23.9942 C   0  0  0  0  0  0  0  0  0  0  0  0
    5.3201    0.4221   23.5581 H   0  0  0  0  0  0  0  0  0  0  0  0
    6.6133    0.2845   24.7438 H   0  0  0  0  0  0  0  0  0  0  0  0
    5.7413    2.2028   24.6221 N   0  0  0  0  0  0  0  0  0  0  0  0
    5.2036    2.0131   25.9728 C   0  0  0  0  0  0  0  0  0  0  0  0
    5.9727    1.5552   26.6089 H   0  0  0  0  0  0  0  0  0  0  0  0
    4.3255    1.3395   25.9872 H   0  0  0  0  0  0  0  0  0  0  0  0
    4.8196    3.3659   26.5785 C   0  0  0  0  0  0  0  0  0  0  0  0
    4.3403    3.2232   27.5528 H   0  0  0  0  0  0  0  0  0  0  0  0
    5.7357    3.9599   26.7243 H   0  0  0  0  0  0  0  0  0  0  0  0
    3.8892    4.0785   25.7668 O   0  0  0  0  0  0  0  0  0  0  0  0
    4.3782    4.2518   24.4396 C   0  0  0  0  0  0  0  0  0  0  0  0
    3.5735    4.7214   23.8627 H   0  0  0  0  0  0  0  0  0  0  0  0
    5.2508    4.9243   24.4325 H   0  0  0  0  0  0  0  0  0  0  0  0
    4.7664    2.9240   23.7905 C   0  0  0  0  0  0  0  0  0  0  0  0
    5.1971    3.1341   22.8046 H   0  0  0  0  0  0  0  0  0  0  0  0
    3.8496    2.3277   23.6217 H   0  0  0  0  0  0  0  0  0  0  0  0
    9.2422   -1.3743   24.0896 C   0  0  0  0  0  0  0  0  0  0  0  0
    8.5930   -1.5262   24.9578 H   0  0  0  0  0  0  0  0  0  0  0  0
    9.9487   -0.5757   24.3353 H   0  0  0  0  0  0  0  0  0  0  0  0
    9.9818   -2.6850   23.6989 C   0  0  0  0  0  0  0  0  0  0  0  0
   11.0578   -2.5330   23.6797 H   0  0  0  0  0  0  0  0  0  0  0  0
    9.7736   -3.4848   24.4102 H   0  0  0  0  0  0  0  0  0  0  0  0
    9.5111   -3.0535   22.2696 C   0  0  0  0  0  0  0  0  0  0  0  0
    9.0289   -4.0307   22.2015 H   0  0  0  0  0  0  0  0  0  0  0  0
   10.3294   -2.9674   21.5543 H   0  0  0  0  0  0  0  0  0  0  0  0
    5.4068    0.6580   20.0964 C   0  0  0  0  0  0  0  0  0  0  0  0
    4.9243    0.6079   21.0759 H   0  0  0  0  0  0  0  0  0  0  0  0
    4.7881    1.3115   19.0316 C   0  0  0  0  0  0  0  0  0  0  0  0
    3.8499    1.8386   19.1587 H   0  0  0  0  0  0  0  0  0  0  0  0
  1  2  1  0
  2  3  2  0
  3  4  1  0
  4  5  1  0
  4  6  2  0
  6  7  1  0
  7  8  2  0
  8  9  1  0
  9 10  1  0
 10 11  2  0
 11 12  1  0
 12 13  1  0
 12 14  1  0
 12 15  1  0
 15 16  1  0
 15 17  1  0
 15 18  1  0
 18 19  1  0
 19 20  1  0
 19 21  1  0
 19 22  1  0
 22 23  1  0
 22 24  1  0
 22 25  1  0
 25 26  1  0
 26 27  1  0
 26 28  1  0
 26 29  1  0
 29 30  1  0
 29 31  1  0
 10 32  1  0
 32 33  1  0
 32 34  1  0
 32 35  1  0
 35 36  1  0
 35 37  1  0
 35 38  1  0
 38 39  1  0
 38 40  1  0
  6 41  1  0
 41 42  1  0
 41 43  2  0
 43 44  1  0
 43  2  1  0
 11  7  1  0
 29 18  1  0
 38  9  1  0
M  END
>  <cnnaffinity>  (1) 
-5.35414

>  <filename>  (1) 
c1cncc(-c2nn3c(c2CCN2CCOCC2)CCC3)c1

$$$$
