
     RDKit          3D

 35 39  0  0  0  0  0  0  0  0999 V2000
    4.9263    1.8280   16.9761 H   0  0  0  0  0  0  0  0  0  0  0  0
    5.4764    1.3403   17.7822 C   0  0  0  0  0  0  0  0  0  0  0  0
    6.6450    0.7614   17.4608 N   0  0  0  0  0  0  0  0  0  0  0  0
    7.3114    0.1156   18.4275 C   0  0  0  0  0  0  0  0  0  0  0  0
    8.2347   -0.3672   18.1183 H   0  0  0  0  0  0  0  0  0  0  0  0
    6.8620    0.0042   19.7557 C   0  0  0  0  0  0  0  0  0  0  0  0
    7.5608   -0.7838   20.7133 N   0  0  0  0  0  0  0  0  0  0  0  0
    8.9206   -0.7773   21.0440 C   0  0  0  0  0  0  0  0  0  0  0  0
    9.6164   -0.1201   20.5472 H   0  0  0  0  0  0  0  0  0  0  0  0
    9.1497   -1.6744   22.0366 C   0  0  0  0  0  0  0  0  0  0  0  0
   10.0389   -1.9229   22.5898 H   0  0  0  0  0  0  0  0  0  0  0  0
    7.9222   -2.2556   22.3229 N   0  0  0  0  0  0  0  0  0  0  0  0
    7.4814   -3.2193   23.1679 N   0  0  0  0  0  0  0  0  0  0  0  0
    6.1676   -3.3100   22.8623 C   0  0  0  0  0  0  0  0  0  0  0  0
    5.1747   -4.2592   23.4410 C   0  0  0  0  0  0  0  0  0  0  0  0
    3.9902   -4.5419   22.8195 C   0  0  0  0  0  0  0  0  0  0  0  0
    3.6505   -4.1389   21.8763 H   0  0  0  0  0  0  0  0  0  0  0  0
    3.0191   -5.7352   23.5929 S   0  0  0  0  0  0  0  0  0  0  0  0
    4.1975   -5.9220   24.8513 C   0  0  0  0  0  0  0  0  0  0  0  0
    4.1392   -6.8487   25.9102 C   0  0  0  0  0  0  0  0  0  0  0  0
    3.2993   -7.5352   26.0179 H   0  0  0  0  0  0  0  0  0  0  0  0
    5.1906   -6.8648   26.8174 C   0  0  0  0  0  0  0  0  0  0  0  0
    5.1835   -7.5851   27.6284 H   0  0  0  0  0  0  0  0  0  0  0  0
    6.2706   -5.9663   26.6950 C   0  0  0  0  0  0  0  0  0  0  0  0
    7.0744   -5.9932   27.4264 H   0  0  0  0  0  0  0  0  0  0  0  0
    6.3192   -5.0601   25.6443 C   0  0  0  0  0  0  0  0  0  0  0  0
    7.1521   -4.3768   25.5315 H   0  0  0  0  0  0  0  0  0  0  0  0
    5.2907   -5.0433   24.6749 C   0  0  0  0  0  0  0  0  0  0  0  0
    5.8057   -2.4129   21.8314 C   0  0  0  0  0  0  0  0  0  0  0  0
    4.8104   -2.2526   21.5034 H   0  0  0  0  0  0  0  0  0  0  0  0
    6.9684   -1.7395   21.5220 C   0  0  0  0  0  0  0  0  0  0  0  0
    5.6610    0.6550   20.0894 C   0  0  0  0  0  0  0  0  0  0  0  0
    5.3068    0.6598   21.1206 H   0  0  0  0  0  0  0  0  0  0  0  0
    4.9537    1.3155   19.0798 C   0  0  0  0  0  0  0  0  0  0  0  0
    4.0061    1.8045   19.2859 H   0  0  0  0  0  0  0  0  0  0  0  0
  1  2  1  0
  2  3  2  0
  3  4  1  0
  4  5  1  0
  4  6  2  0
  6  7  1  0
  7  8  1  0
  8  9  1  0
  8 10  2  0
 10 11  1  0
 10 12  1  0
 12 13  1  0
 13 14  2  0
 14 15  1  0
 15 16  2  0
 16 17  1  0
 16 18  1  0
 18 19  1  0
 19 20  2  0
 20 21  1  0
 20 22  1  0
 22 23  1  0
 22 24  2  0
 24 25  1  0
 24 26  1  0
 26 27  1  0
 26 28  2  0
 14 29  1  0
 29 30  1  0
 29 31  2  0
  6 32  1  0
 32 33  1  0
 32 34  2  0
 34 35  1  0
 34  2  1  0
 31  7  1  0
 31 12  1  0
 28 15  1  0
 28 19  1  0
M  END
>  <cnnaffinity>  (1) 
-5.63837

>  <filename>  (1) 
c1cncc(-n2ccn3nc(-c4csc5ccccc45)cc23)c1

$$$$
