
     RDKit          3D

 32 35  0  0  0  0  0  0  0  0999 V2000
    4.9149    1.7851   16.9888 H   0  0  0  0  0  0  0  0  0  0  0  0
    5.3971    1.2972   17.8292 C   0  0  0  0  0  0  0  0  0  0  0  0
    6.5596    0.6815   17.5611 N   0  0  0  0  0  0  0  0  0  0  0  0
    7.1704    0.0752   18.5859 C   0  0  0  0  0  0  0  0  0  0  0  0
    8.1096   -0.4255   18.3596 H   0  0  0  0  0  0  0  0  0  0  0  0
    6.6641    0.0243   19.8934 C   0  0  0  0  0  0  0  0  0  0  0  0
    7.3932   -0.6910   20.9536 C   0  0  0  0  0  0  0  0  0  0  0  0
    8.7482   -0.7796   21.0713 C   0  0  0  0  0  0  0  0  0  0  0  0
    9.4636   -0.3131   20.4147 H   0  0  0  0  0  0  0  0  0  0  0  0
    9.2279   -1.6742   22.4578 S   0  0  0  0  0  0  0  0  0  0  0  0
    7.5699   -1.9813   22.9045 C   0  0  0  0  0  0  0  0  0  0  0  0
    7.1531   -2.7482   24.0597 C   0  0  0  0  0  0  0  0  0  0  0  0
    5.8504   -3.0303   24.4124 C   0  0  0  0  0  0  0  0  0  0  0  0
    4.9199   -2.7480   23.9258 H   0  0  0  0  0  0  0  0  0  0  0  0
    5.8392   -3.7815   25.5569 N   0  0  0  0  0  0  0  0  0  0  0  0
    5.0326   -4.1280   26.0435 H   0  0  0  0  0  0  0  0  0  0  0  0
    7.1236   -4.0064   25.9809 C   0  0  0  0  0  0  0  0  0  0  0  0
    7.5874   -4.7192   27.1008 C   0  0  0  0  0  0  0  0  0  0  0  0
    6.8864   -5.1999   27.7841 H   0  0  0  0  0  0  0  0  0  0  0  0
    8.9631   -4.7872   27.2837 C   0  0  0  0  0  0  0  0  0  0  0  0
    9.3712   -5.3343   28.1345 H   0  0  0  0  0  0  0  0  0  0  0  0
    9.8520   -4.1652   26.3699 C   0  0  0  0  0  0  0  0  0  0  0  0
   10.9213   -4.2732   26.5101 H   0  0  0  0  0  0  0  0  0  0  0  0
    9.3824   -3.4522   25.2731 C   0  0  0  0  0  0  0  0  0  0  0  0
   10.0733   -2.9710   24.5866 H   0  0  0  0  0  0  0  0  0  0  0  0
    7.9934   -3.3707   25.0652 C   0  0  0  0  0  0  0  0  0  0  0  0
    6.7391   -1.3914   21.9999 C   0  0  0  0  0  0  0  0  0  0  0  0
    5.6649   -1.4800   22.0236 H   0  0  0  0  0  0  0  0  0  0  0  0
    5.4347    0.6571   20.1461 C   0  0  0  0  0  0  0  0  0  0  0  0
    5.0184    0.6391   21.1574 H   0  0  0  0  0  0  0  0  0  0  0  0
    4.8005    1.3169   19.0970 C   0  0  0  0  0  0  0  0  0  0  0  0
    3.8685    1.8466   19.2542 H   0  0  0  0  0  0  0  0  0  0  0  0
  1  2  1  0
  2  3  2  0
  3  4  1  0
  4  5  1  0
  4  6  2  0
  6  7  1  0
  7  8  2  0
  8  9  1  0
  8 10  1  0
 10 11  1  0
 11 12  1  0
 12 13  2  0
 13 14  1  0
 13 15  1  0
 15 16  1  0
 15 17  1  0
 17 18  2  0
 18 19  1  0
 18 20  1  0
 20 21  1  0
 20 22  2  0
 22 23  1  0
 22 24  1  0
 24 25  1  0
 24 26  2  0
 11 27  2  0
 27 28  1  0
  6 29  1  0
 29 30  1  0
 29 31  2  0
 31 32  1  0
 31  2  1  0
 27  7  1  0
 26 12  1  0
 26 17  1  0
M  END
>  <cnnaffinity>  (1) 
-5.16542

>  <filename>  (1) 
c1cncc(-c2csc(-c3c[nH]c4ccccc34)c2)c1

$$$$
