
     RDKit          3D

 35 38  0  0  0  0  0  0  0  0999 V2000
    5.1998    1.6911   16.9473 H   0  0  0  0  0  0  0  0  0  0  0  0
    5.7105    1.2229   17.7864 C   0  0  0  0  0  0  0  0  0  0  0  0
    6.9286    0.7129   17.5456 N   0  0  0  0  0  0  0  0  0  0  0  0
    7.5817    0.1633   18.5736 C   0  0  0  0  0  0  0  0  0  0  0  0
    8.5821   -0.2093   18.3601 H   0  0  0  0  0  0  0  0  0  0  0  0
    7.0452    0.0415   19.8661 C   0  0  0  0  0  0  0  0  0  0  0  0
    7.8121   -0.6756   20.8793 C   0  0  0  0  0  0  0  0  0  0  0  0
    9.1905   -0.6439   20.8994 N   0  0  0  0  0  0  0  0  0  0  0  0
    9.5016   -1.4177   21.9002 C   0  0  0  0  0  0  0  0  0  0  0  0
    8.4212   -1.9172   22.5581 N   0  0  0  0  0  0  0  0  0  0  0  0
    7.3158   -1.5265   21.8571 C   0  0  0  0  0  0  0  0  0  0  0  0
    6.0027   -2.2114   22.0234 C   0  0  0  0  0  0  0  0  0  0  0  0
    5.2525   -1.5456   21.5924 H   0  0  0  0  0  0  0  0  0  0  0  0
    5.7726   -2.3435   23.0875 H   0  0  0  0  0  0  0  0  0  0  0  0
    5.8867   -3.5367   21.2933 C   0  0  0  0  0  0  0  0  0  0  0  0
    5.9016   -3.5221   19.8926 C   0  0  0  0  0  0  0  0  0  0  0  0
    6.0283   -2.5584   19.3818 H   0  0  0  0  0  0  0  0  0  0  0  0
    5.7437   -4.6151   19.1368 N   0  0  0  0  0  0  0  0  0  0  0  0
    5.5897   -5.7957   19.7526 C   0  0  0  0  0  0  0  0  0  0  0  0
    5.4389   -6.6740   19.1178 H   0  0  0  0  0  0  0  0  0  0  0  0
    5.5851   -5.9271   21.1423 C   0  0  0  0  0  0  0  0  0  0  0  0
    5.4361   -6.9027   21.5935 H   0  0  0  0  0  0  0  0  0  0  0  0
    5.7364   -4.7767   21.9264 C   0  0  0  0  0  0  0  0  0  0  0  0
    5.7504   -4.8526   23.0153 H   0  0  0  0  0  0  0  0  0  0  0  0
    8.6450   -3.0586   23.4177 C   0  0  0  0  0  0  0  0  0  0  0  0
    7.9315   -3.0470   24.2459 H   0  0  0  0  0  0  0  0  0  0  0  0
    8.5048   -3.9771   22.8345 H   0  0  0  0  0  0  0  0  0  0  0  0
   10.0874   -2.8701   23.8935 C   0  0  0  0  0  0  0  0  0  0  0  0
   10.5660   -3.7895   24.2319 H   0  0  0  0  0  0  0  0  0  0  0  0
   10.1035   -2.1514   24.7128 H   0  0  0  0  0  0  0  0  0  0  0  0
   10.9975   -2.1419   22.4738 S   0  0  0  0  0  0  0  0  0  0  0  0
    5.7801    0.6056   20.1075 C   0  0  0  0  0  0  0  0  0  0  0  0
    5.3393    0.6044   21.1050 H   0  0  0  0  0  0  0  0  0  0  0  0
    5.1053    1.1978   19.0446 C   0  0  0  0  0  0  0  0  0  0  0  0
    4.1305    1.6454   19.1900 H   0  0  0  0  0  0  0  0  0  0  0  0
  1  2  1  0
  2  3  2  0
  3  4  1  0
  4  5  1  0
  4  6  2  0
  6  7  1  0
  7  8  1  0
  8  9  2  0
  9 10  1  0
 10 11  1  0
 11 12  1  0
 12 13  1  0
 12 14  1  0
 12 15  1  0
 15 16  2  0
 16 17  1  0
 16 18  1  0
 18 19  2  0
 19 20  1  0
 19 21  1  0
 21 22  1  0
 21 23  2  0
 23 24  1  0
 10 25  1  0
 25 26  1  0
 25 27  1  0
 25 28  1  0
 28 29  1  0
 28 30  1  0
 28 31  1  0
  6 32  1  0
 32 33  1  0
 32 34  2  0
 34 35  1  0
 34  2  1  0
 11  7  2  0
 23 15  1  0
 31  9  1  0
M  END
>  <cnnaffinity>  (1) 
-5.72484

>  <filename>  (1) 
c1cncc(Cc2c(-c3cccnc3)nc3n2CCS3)c1

$$$$
