
     RDKit          3D

 30 32  0  0  0  0  0  0  0  0999 V2000
    9.3234   -0.2973   20.3479 H   0  0  0  0  0  0  0  0  0  0  0  0
    8.7328   -0.8037   21.1051 C   0  0  0  0  0  0  0  0  0  0  0  0
    9.4209   -1.4327   22.0825 N   0  0  0  0  0  0  0  0  0  0  0  0
    8.6911   -2.0428   23.0257 C   0  0  0  0  0  0  0  0  0  0  0  0
    9.2072   -2.5384   23.8513 H   0  0  0  0  0  0  0  0  0  0  0  0
    7.2662   -2.0019   22.9934 C   0  0  0  0  0  0  0  0  0  0  0  0
    6.4511   -2.5594   23.9425 N   0  0  0  0  0  0  0  0  0  0  0  0
    5.5409   -2.1303   23.8582 H   0  0  0  0  0  0  0  0  0  0  0  0
    6.7169   -3.6829   24.7079 C   0  0  0  0  0  0  0  0  0  0  0  0
    6.2106   -3.7888   26.0007 C   0  0  0  0  0  0  0  0  0  0  0  0
    5.6015   -2.9962   26.4234 H   0  0  0  0  0  0  0  0  0  0  0  0
    6.5596   -4.9179   26.7392 C   0  0  0  0  0  0  0  0  0  0  0  0
    6.2137   -5.0467   27.7665 H   0  0  0  0  0  0  0  0  0  0  0  0
    7.3336   -5.9055   26.2715 N   0  0  0  0  0  0  0  0  0  0  0  0
    7.7977   -5.7902   25.0213 C   0  0  0  0  0  0  0  0  0  0  0  0
    8.4314   -6.6078   24.6725 H   0  0  0  0  0  0  0  0  0  0  0  0
    7.5180   -4.7091   24.1945 C   0  0  0  0  0  0  0  0  0  0  0  0
    7.8938   -4.6629   23.1789 H   0  0  0  0  0  0  0  0  0  0  0  0
    6.5805   -1.3179   22.0598 N   0  0  0  0  0  0  0  0  0  0  0  0
    7.3156   -0.7530   21.0752 C   0  0  0  0  0  0  0  0  0  0  0  0
    6.5996   -0.0443   19.9719 C   0  0  0  0  0  0  0  0  0  0  0  0
    7.1461    0.0058   18.6731 C   0  0  0  0  0  0  0  0  0  0  0  0
    8.0955   -0.4682   18.4265 H   0  0  0  0  0  0  0  0  0  0  0  0
    6.5771    0.6325   17.6402 N   0  0  0  0  0  0  0  0  0  0  0  0
    5.4240    1.2758   17.8672 C   0  0  0  0  0  0  0  0  0  0  0  0
    4.9902    1.7803   17.0063 H   0  0  0  0  0  0  0  0  0  0  0  0
    4.7963    1.3070   19.1158 C   0  0  0  0  0  0  0  0  0  0  0  0
    3.8692    1.8590   19.2323 H   0  0  0  0  0  0  0  0  0  0  0  0
    5.3879    0.6344   20.1874 C   0  0  0  0  0  0  0  0  0  0  0  0
    4.9354    0.6419   21.1813 H   0  0  0  0  0  0  0  0  0  0  0  0
  1  2  1  0
  2  3  2  0
  3  4  1  0
  4  5  1  0
  4  6  2  0
  6  7  1  0
  7  8  1  0
  7  9  1  0
  9 10  2  0
 10 11  1  0
 10 12  1  0
 12 13  1  0
 12 14  2  0
 14 15  1  0
 15 16  1  0
 15 17  2  0
 17 18  1  0
  6 19  1  0
 19 20  2  0
 20 21  1  0
 21 22  2  0
 22 23  1  0
 22 24  1  0
 24 25  2  0
 25 26  1  0
 25 27  1  0
 27 28  1  0
 27 29  2  0
 29 30  1  0
 20  2  1  0
 29 21  1  0
 17  9  1  0
M  END
>  <cnnaffinity>  (1) 
-5.22702

>  <filename>  (1) 
c1cncc(-c2cncc(Nc3ccncc3)n2)c1

$$$$
