
     RDKit          3D

 29 31  0  0  0  0  0  0  0  0999 V2000
    9.3294   -0.3087   20.3614 H   0  0  0  0  0  0  0  0  0  0  0  0
    8.7226   -0.8085   21.1062 C   0  0  0  0  0  0  0  0  0  0  0  0
    9.3698   -1.4232   22.0735 N   0  0  0  0  0  0  0  0  0  0  0  0
    8.6525   -2.0510   23.0299 N   0  0  0  0  0  0  0  0  0  0  0  0
    7.3241   -1.9787   22.9851 C   0  0  0  0  0  0  0  0  0  0  0  0
    6.5488   -2.5391   23.9515 N   0  0  0  0  0  0  0  0  0  0  0  0
    5.6267   -2.1562   23.8197 H   0  0  0  0  0  0  0  0  0  0  0  0
    6.9309   -3.4535   24.9255 C   0  0  0  0  0  0  0  0  0  0  0  0
    6.3627   -3.4163   26.1981 C   0  0  0  0  0  0  0  0  0  0  0  0
    5.5910   -2.6947   26.4437 H   0  0  0  0  0  0  0  0  0  0  0  0
    6.8402   -4.3198   27.1473 C   0  0  0  0  0  0  0  0  0  0  0  0
    6.4405   -4.3197   28.1639 H   0  0  0  0  0  0  0  0  0  0  0  0
    7.7919   -5.2288   26.9026 N   0  0  0  0  0  0  0  0  0  0  0  0
    8.3055   -5.2692   25.6643 C   0  0  0  0  0  0  0  0  0  0  0  0
    9.0831   -6.0209   25.4962 H   0  0  0  0  0  0  0  0  0  0  0  0
    7.9107   -4.4162   24.6409 C   0  0  0  0  0  0  0  0  0  0  0  0
    8.3627   -4.4727   23.6574 H   0  0  0  0  0  0  0  0  0  0  0  0
    6.5863   -1.3245   22.0549 N   0  0  0  0  0  0  0  0  0  0  0  0
    7.2930   -0.7663   21.0775 C   0  0  0  0  0  0  0  0  0  0  0  0
    6.5971   -0.0506   19.9705 C   0  0  0  0  0  0  0  0  0  0  0  0
    7.1441    0.0084   18.6708 C   0  0  0  0  0  0  0  0  0  0  0  0
    8.0968   -0.4646   18.4268 H   0  0  0  0  0  0  0  0  0  0  0  0
    6.5766    0.6382   17.6395 N   0  0  0  0  0  0  0  0  0  0  0  0
    5.4193    1.2795   17.8648 C   0  0  0  0  0  0  0  0  0  0  0  0
    4.9779    1.7789   17.0035 H   0  0  0  0  0  0  0  0  0  0  0  0
    4.7959    1.3119   19.1149 C   0  0  0  0  0  0  0  0  0  0  0  0
    3.8674    1.8625   19.2349 H   0  0  0  0  0  0  0  0  0  0  0  0
    5.3892    0.6378   20.1836 C   0  0  0  0  0  0  0  0  0  0  0  0
    4.9410    0.6476   21.1782 H   0  0  0  0  0  0  0  0  0  0  0  0
  1  2  1  0
  2  3  2  0
  3  4  1  0
  4  5  2  0
  5  6  1  0
  6  7  1  0
  6  8  1  0
  8  9  2  0
  9 10  1  0
  9 11  1  0
 11 12  1  0
 11 13  2  0
 13 14  1  0
 14 15  1  0
 14 16  2  0
 16 17  1  0
  5 18  1  0
 18 19  2  0
 19 20  1  0
 20 21  2  0
 21 22  1  0
 21 23  1  0
 23 24  2  0
 24 25  1  0
 24 26  1  0
 26 27  1  0
 26 28  2  0
 28 29  1  0
 19  2  1  0
 28 20  1  0
 16  8  1  0
M  END
>  <cnnaffinity>  (1) 
-5.05805

>  <filename>  (1) 
c1cncc(-c2cnnc(Nc3ccncc3)n2)c1

$$$$
