
     RDKit          3D

 37 39  0  0  0  0  0  0  0  0999 V2000
    4.8436    2.0618   16.6599 H   0  0  0  0  0  0  0  0  0  0  0  0
    5.3564    1.5088   17.4427 C   0  0  0  0  0  0  0  0  0  0  0  0
    6.4311    0.7973   17.0682 N   0  0  0  0  0  0  0  0  0  0  0  0
    7.0953    0.1150   18.0097 C   0  0  0  0  0  0  0  0  0  0  0  0
    7.9826   -0.4170   17.6704 H   0  0  0  0  0  0  0  0  0  0  0  0
    6.7080    0.0852   19.3629 C   0  0  0  0  0  0  0  0  0  0  0  0
    7.3968   -0.6837   20.3436 N   0  0  0  0  0  0  0  0  0  0  0  0
    8.7393   -0.7088   20.6406 C   0  0  0  0  0  0  0  0  0  0  0  0
    9.4533   -0.1643   20.0369 H   0  0  0  0  0  0  0  0  0  0  0  0
    9.0034   -1.4070   21.7108 N   0  0  0  0  0  0  0  0  0  0  0  0
    7.7859   -1.8637   22.1647 C   0  0  0  0  0  0  0  0  0  0  0  0
    7.6705   -2.5465   23.4923 C   0  0  0  0  0  0  0  0  0  0  0  0
    6.6738   -2.9985   23.6034 H   0  0  0  0  0  0  0  0  0  0  0  0
    8.3993   -3.3644   23.5340 H   0  0  0  0  0  0  0  0  0  0  0  0
    7.9533   -1.5570   24.6470 C   0  0  0  0  0  0  0  0  0  0  0  0
    8.9087   -1.0639   24.4057 H   0  0  0  0  0  0  0  0  0  0  0  0
    6.8792   -0.4554   24.7437 C   0  0  0  0  0  0  0  0  0  0  0  0
    5.8916   -0.9217   24.8990 H   0  0  0  0  0  0  0  0  0  0  0  0
    6.8247    0.0720   23.7764 H   0  0  0  0  0  0  0  0  0  0  0  0
    7.1709    0.5423   25.8848 C   0  0  0  0  0  0  0  0  0  0  0  0
    6.3287    1.2368   25.9976 H   0  0  0  0  0  0  0  0  0  0  0  0
    8.0462    1.1485   25.6087 H   0  0  0  0  0  0  0  0  0  0  0  0
    7.4791   -0.1471   27.2271 C   0  0  0  0  0  0  0  0  0  0  0  0
    7.7716    0.5970   27.9827 H   0  0  0  0  0  0  0  0  0  0  0  0
    6.5733   -0.6373   27.6117 H   0  0  0  0  0  0  0  0  0  0  0  0
    8.5703   -1.2164   27.0700 C   0  0  0  0  0  0  0  0  0  0  0  0
    9.5236   -0.7470   26.7881 H   0  0  0  0  0  0  0  0  0  0  0  0
    8.7602   -1.7118   28.0217 H   0  0  0  0  0  0  0  0  0  0  0  0
    8.1931   -2.2472   25.9963 C   0  0  0  0  0  0  0  0  0  0  0  0
    8.9949   -2.9900   25.8782 H   0  0  0  0  0  0  0  0  0  0  0  0
    7.2965   -2.8001   26.3122 H   0  0  0  0  0  0  0  0  0  0  0  0
    6.7919   -1.4454   21.3289 C   0  0  0  0  0  0  0  0  0  0  0  0
    5.7250   -1.6202   21.3487 H   0  0  0  0  0  0  0  0  0  0  0  0
    5.5992    0.8539   19.7449 C   0  0  0  0  0  0  0  0  0  0  0  0
    5.3190    0.8939   20.7982 H   0  0  0  0  0  0  0  0  0  0  0  0
    4.9101    1.5729   18.7671 C   0  0  0  0  0  0  0  0  0  0  0  0
    4.0536    2.1839   19.0288 H   0  0  0  0  0  0  0  0  0  0  0  0
  1  2  1  0
  2  3  2  0
  3  4  1  0
  4  5  1  0
  4  6  2  0
  6  7  1  0
  7  8  1  0
  8  9  1  0
  8 10  2  0
 10 11  1  0
 11 12  1  0
 12 13  1  0
 12 14  1  0
 12 15  1  0
 15 16  1  0
 15 17  1  0
 17 18  1  0
 17 19  1  0
 17 20  1  0
 20 21  1  0
 20 22  1  0
 20 23  1  0
 23 24  1  0
 23 25  1  0
 23 26  1  0
 26 27  1  0
 26 28  1  0
 26 29  1  0
 29 30  1  0
 29 31  1  0
 11 32  2  0
 32 33  1  0
  6 34  1  0
 34 35  1  0
 34 36  2  0
 36 37  1  0
 36  2  1  0
 32  7  1  0
 29 15  1  0
M  END
>  <cnnaffinity>  (1) 
-5.08134

>  <filename>  (1) 
c1cncc(-n2cnc(CC3CCCCC3)c2)c1

$$$$
