
     RDKit          3D

 34 37  0  0  0  0  0  0  0  0999 V2000
    5.0669    1.7322   16.6121 H   0  0  0  0  0  0  0  0  0  0  0  0
    5.5008    1.2698   17.4950 C   0  0  0  0  0  0  0  0  0  0  0  0
    6.6704    0.6409   17.3163 N   0  0  0  0  0  0  0  0  0  0  0  0
    7.2471    0.0918   18.3901 C   0  0  0  0  0  0  0  0  0  0  0  0
    8.2085   -0.3907   18.2296 H   0  0  0  0  0  0  0  0  0  0  0  0
    6.6811    0.1150   19.6805 C   0  0  0  0  0  0  0  0  0  0  0  0
    7.3806   -0.5467   20.7913 C   0  0  0  0  0  0  0  0  0  0  0  0
    8.5735   -1.1170   20.5688 N   0  0  0  0  0  0  0  0  0  0  0  0
    8.8761   -1.6580   21.7624 N   0  0  0  0  0  0  0  0  0  0  0  0
    9.8758   -2.5126   22.1782 C   0  0  0  0  0  0  0  0  0  0  0  0
   10.6900   -2.7160   21.5022 H   0  0  0  0  0  0  0  0  0  0  0  0
    9.5650   -2.8390   23.4546 C   0  0  0  0  0  0  0  0  0  0  0  0
   10.0009   -3.5196   24.1623 H   0  0  0  0  0  0  0  0  0  0  0  0
    8.4025   -2.1873   23.8202 N   0  0  0  0  0  0  0  0  0  0  0  0
    8.0236   -2.0634   25.1614 N   0  0  0  0  0  0  0  0  0  0  0  0
    7.0611   -1.7417   25.1363 H   0  0  0  0  0  0  0  0  0  0  0  0
    8.8478   -1.0961   25.9272 C   0  0  0  0  0  0  0  0  0  0  0  0
    8.2584   -0.7719   26.7909 H   0  0  0  0  0  0  0  0  0  0  0  0
    9.7179   -1.6179   26.3490 H   0  0  0  0  0  0  0  0  0  0  0  0
    9.3287    0.0855   25.1091 C   0  0  0  0  0  0  0  0  0  0  0  0
    8.5847    0.5105   24.4352 H   0  0  0  0  0  0  0  0  0  0  0  0
   10.3888    0.9738   25.6785 C   0  0  0  0  0  0  0  0  0  0  0  0
   10.7496    0.7311   26.6741 H   0  0  0  0  0  0  0  0  0  0  0  0
   10.3532    2.0387   25.4680 H   0  0  0  0  0  0  0  0  0  0  0  0
   10.7367    0.0165   24.5749 C   0  0  0  0  0  0  0  0  0  0  0  0
   10.9883    0.3902   23.5853 H   0  0  0  0  0  0  0  0  0  0  0  0
   11.2853   -0.8670   24.8895 H   0  0  0  0  0  0  0  0  0  0  0  0
    7.9609   -1.4450   22.7308 C   0  0  0  0  0  0  0  0  0  0  0  0
    6.9347   -0.7129   22.1258 C   0  0  0  0  0  0  0  0  0  0  0  0
    6.0097   -0.3427   22.5264 H   0  0  0  0  0  0  0  0  0  0  0  0
    5.4485    0.7641   19.8430 C   0  0  0  0  0  0  0  0  0  0  0  0
    4.9609    0.8148   20.8161 H   0  0  0  0  0  0  0  0  0  0  0  0
    4.8533    1.3531   18.7306 C   0  0  0  0  0  0  0  0  0  0  0  0
    3.9129    1.8821   18.8069 H   0  0  0  0  0  0  0  0  0  0  0  0
  1  2  1  0
  2  3  2  0
  3  4  1  0
  4  5  1  0
  4  6  2  0
  6  7  1  0
  7  8  2  0
  8  9  1  0
  9 10  1  0
 10 11  1  0
 10 12  2  0
 12 13  1  0
 12 14  1  0
 14 15  1  0
 15 16  1  0
 15 17  1  0
 17 18  1  0
 17 19  1  0
 17 20  1  0
 20 21  1  0
 20 22  1  0
 22 23  1  0
 22 24  1  0
 22 25  1  0
 25 26  1  0
 25 27  1  0
 14 28  1  0
 28 29  2  0
 29 30  1  0
  6 31  1  0
 31 32  1  0
 31 33  2  0
 33 34  1  0
 33  2  1  0
 29  7  1  0
 28  9  1  0
 25 20  1  0
M  END
>  <cnnaffinity>  (1) 
-5.12762

>  <filename>  (1) 
c1cncc(-c2cc3n(NCC4CC4)ccn3n2)c1

$$$$
