
     RDKit          3D

 32 35  0  0  0  0  0  0  0  0999 V2000
    4.9154    1.8161   16.9692 H   0  0  0  0  0  0  0  0  0  0  0  0
    5.3809    1.3085   17.8085 C   0  0  0  0  0  0  0  0  0  0  0  0
    6.5396    0.6858   17.5430 N   0  0  0  0  0  0  0  0  0  0  0  0
    7.1582    0.0901   18.5706 C   0  0  0  0  0  0  0  0  0  0  0  0
    8.0998   -0.3999   18.3239 H   0  0  0  0  0  0  0  0  0  0  0  0
    6.6843    0.0692   19.9073 C   0  0  0  0  0  0  0  0  0  0  0  0
    7.4424   -0.6149   21.0103 C   0  0  0  0  0  0  0  0  0  0  0  0
    7.5116   -0.2788   22.4150 C   0  0  0  0  0  0  0  0  0  0  0  0
    7.0341    0.9179   23.0683 C   0  0  0  0  0  0  0  0  0  0  0  0
    7.3653    2.1351   22.5169 C   0  0  0  0  0  0  0  0  0  0  0  0
    7.9360    2.1568   21.5914 H   0  0  0  0  0  0  0  0  0  0  0  0
    7.0259    3.3276   23.0605 N   0  0  0  0  0  0  0  0  0  0  0  0
    6.3276    3.3026   24.1780 C   0  0  0  0  0  0  0  0  0  0  0  0
    6.0479    4.2686   24.5998 H   0  0  0  0  0  0  0  0  0  0  0  0
    5.9100    2.1065   24.8510 C   0  0  0  0  0  0  0  0  0  0  0  0
    5.1439    2.0951   26.0582 C   0  0  0  0  0  0  0  0  0  0  0  0
    4.8724    3.0351   26.5285 H   0  0  0  0  0  0  0  0  0  0  0  0
    4.7407    0.9101   26.6290 C   0  0  0  0  0  0  0  0  0  0  0  0
    4.1658    0.9028   27.5521 H   0  0  0  0  0  0  0  0  0  0  0  0
    5.0776   -0.3350   26.0328 C   0  0  0  0  0  0  0  0  0  0  0  0
    4.7437   -1.2677   26.4827 H   0  0  0  0  0  0  0  0  0  0  0  0
    5.8321   -0.3627   24.8838 C   0  0  0  0  0  0  0  0  0  0  0  0
    6.0978   -1.3079   24.4155 H   0  0  0  0  0  0  0  0  0  0  0  0
    6.2719    0.8570   24.2678 C   0  0  0  0  0  0  0  0  0  0  0  0
    8.1716   -1.1738   23.1151 N   0  0  0  0  0  0  0  0  0  0  0  0
    8.5816   -2.1141   22.2175 O   0  0  0  0  0  0  0  0  0  0  0  0
    8.1653   -1.7674   21.0003 C   0  0  0  0  0  0  0  0  0  0  0  0
    8.4988   -2.4565   20.2585 H   0  0  0  0  0  0  0  0  0  0  0  0
    5.4426    0.7039   20.1374 C   0  0  0  0  0  0  0  0  0  0  0  0
    4.9970    0.7036   21.1340 H   0  0  0  0  0  0  0  0  0  0  0  0
    4.7879    1.3321   19.0726 C   0  0  0  0  0  0  0  0  0  0  0  0
    3.8396    1.8471   19.2008 H   0  0  0  0  0  0  0  0  0  0  0  0
  1  2  1  0
  2  3  2  0
  3  4  1  0
  4  5  1  0
  4  6  2  0
  6  7  1  0
  7  8  1  0
  8  9  1  0
  9 10  2  0
 10 11  1  0
 10 12  1  0
 12 13  2  0
 13 14  1  0
 13 15  1  0
 15 16  2  0
 16 17  1  0
 16 18  1  0
 18 19  1  0
 18 20  2  0
 20 21  1  0
 20 22  1  0
 22 23  1  0
 22 24  2  0
  8 25  2  0
 25 26  1  0
 26 27  1  0
 27 28  1  0
  6 29  1  0
 29 30  1  0
 29 31  2  0
 31 32  1  0
 31  2  1  0
 27  7  2  0
 24  9  1  0
 24 15  1  0
M  END
>  <cnnaffinity>  (1) 
-4.73704

>  <filename>  (1) 
c1cncc(-c2conc2-c2cncc3ccccc23)c1

$$$$
