
     RDKit          3D

 33 37  0  0  0  0  0  0  0  0999 V2000
    4.9124    1.8088   16.9731 H   0  0  0  0  0  0  0  0  0  0  0  0
    5.3795    1.3040   17.8197 C   0  0  0  0  0  0  0  0  0  0  0  0
    6.5428    0.6848   17.5637 N   0  0  0  0  0  0  0  0  0  0  0  0
    7.1522    0.0754   18.5847 C   0  0  0  0  0  0  0  0  0  0  0  0
    8.1033   -0.3939   18.3392 H   0  0  0  0  0  0  0  0  0  0  0  0
    6.6590    0.0284   19.9102 C   0  0  0  0  0  0  0  0  0  0  0  0
    7.4072   -0.6712   20.9702 C   0  0  0  0  0  0  0  0  0  0  0  0
    8.3171   -1.7012   20.9081 C   0  0  0  0  0  0  0  0  0  0  0  0
    8.7177   -2.1156   20.0043 H   0  0  0  0  0  0  0  0  0  0  0  0
    8.7753   -2.1147   22.1289 N   0  0  0  0  0  0  0  0  0  0  0  0
    8.1703   -1.3002   22.9530 C   0  0  0  0  0  0  0  0  0  0  0  0
    8.2457   -0.9513   24.6406 S   0  0  0  0  0  0  0  0  0  0  0  0
    7.1264    0.3850   24.3253 C   0  0  0  0  0  0  0  0  0  0  0  0
    6.6612    1.2812   25.3951 C   0  0  0  0  0  0  0  0  0  0  0  0
    7.1021    1.1005   26.7193 C   0  0  0  0  0  0  0  0  0  0  0  0
    7.7954    0.3004   26.9635 H   0  0  0  0  0  0  0  0  0  0  0  0
    6.6690    1.9363   27.7586 C   0  0  0  0  0  0  0  0  0  0  0  0
    7.0049    1.7977   28.7796 H   0  0  0  0  0  0  0  0  0  0  0  0
    5.7913    2.9470   27.4250 C   0  0  0  0  0  0  0  0  0  0  0  0
    5.3462    3.1391   26.1137 C   0  0  0  0  0  0  0  0  0  0  0  0
    5.7570    2.3335   25.0766 C   0  0  0  0  0  0  0  0  0  0  0  0
    5.4049    2.5016   24.0620 H   0  0  0  0  0  0  0  0  0  0  0  0
    4.4919    4.2009   26.0751 O   0  0  0  0  0  0  0  0  0  0  0  0
    4.4033    4.6893   27.4110 C   0  0  0  0  0  0  0  0  0  0  0  0
    3.3631    4.6133   27.7526 H   0  0  0  0  0  0  0  0  0  0  0  0
    4.7631    5.7257   27.4397 H   0  0  0  0  0  0  0  0  0  0  0  0
    5.2321    3.8807   28.2418 O   0  0  0  0  0  0  0  0  0  0  0  0
    6.7469    0.5292   23.0915 N   0  0  0  0  0  0  0  0  0  0  0  0
    7.3302   -0.4208   22.3371 N   0  0  0  0  0  0  0  0  0  0  0  0
    5.4291    0.6666   20.1476 C   0  0  0  0  0  0  0  0  0  0  0  0
    5.0178    0.6536   21.1552 H   0  0  0  0  0  0  0  0  0  0  0  0
    4.7897    1.3154   19.0874 C   0  0  0  0  0  0  0  0  0  0  0  0
    3.8588    1.8496   19.2329 H   0  0  0  0  0  0  0  0  0  0  0  0
  1  2  1  0
  2  3  2  0
  3  4  1  0
  4  5  1  0
  4  6  2  0
  6  7  1  0
  7  8  2  0
  8  9  1  0
  8 10  1  0
 10 11  2  0
 11 12  1  0
 12 13  1  0
 13 14  1  0
 14 15  2  0
 15 16  1  0
 15 17  1  0
 17 18  1  0
 17 19  2  0
 19 20  1  0
 20 21  2  0
 21 22  1  0
 20 23  1  0
 23 24  1  0
 24 25  1  0
 24 26  1  0
 24 27  1  0
 13 28  2  0
 28 29  1  0
  6 30  1  0
 30 31  1  0
 30 32  2  0
 32 33  1  0
 32  2  1  0
 29  7  1  0
 29 11  1  0
 21 14  1  0
 27 19  1  0
M  END
>  <cnnaffinity>  (1) 
-5.20561

>  <filename>  (1) 
c1cncc(-c2cnc3sc(-c4ccc5c(c4)OCO5)nn23)c1

$$$$
