
     RDKit          3D

 39 42  0  0  0  0  0  0  0  0999 V2000
    4.9100    1.7802   16.9964 H   0  0  0  0  0  0  0  0  0  0  0  0
    5.3987    1.2955   17.8365 C   0  0  0  0  0  0  0  0  0  0  0  0
    6.5628    0.6795   17.5698 N   0  0  0  0  0  0  0  0  0  0  0  0
    7.1716    0.0699   18.5925 C   0  0  0  0  0  0  0  0  0  0  0  0
    8.1141   -0.4287   18.3701 H   0  0  0  0  0  0  0  0  0  0  0  0
    6.6615    0.0091   19.9021 C   0  0  0  0  0  0  0  0  0  0  0  0
    7.3773   -0.7156   20.9851 C   0  0  0  0  0  0  0  0  0  0  0  0
    8.7672   -0.5806   21.1633 C   0  0  0  0  0  0  0  0  0  0  0  0
    9.3279    0.0741   20.4977 H   0  0  0  0  0  0  0  0  0  0  0  0
    9.4493   -1.2044   22.1322 N   0  0  0  0  0  0  0  0  0  0  0  0
    8.7520   -1.9923   22.9661 C   0  0  0  0  0  0  0  0  0  0  0  0
    9.3290   -2.4947   23.7321 H   0  0  0  0  0  0  0  0  0  0  0  0
    7.3483   -2.2245   22.8940 C   0  0  0  0  0  0  0  0  0  0  0  0
    6.6696   -3.0776   23.7722 N   0  0  0  0  0  0  0  0  0  0  0  0
    7.0835   -3.1452   25.1770 C   0  0  0  0  0  0  0  0  0  0  0  0
    7.3610   -2.1427   25.5297 H   0  0  0  0  0  0  0  0  0  0  0  0
    8.0003   -3.7504   25.2696 H   0  0  0  0  0  0  0  0  0  0  0  0
    6.0323   -3.7169   26.1172 C   0  0  0  0  0  0  0  0  0  0  0  0
    5.9992   -3.3562   27.4661 C   0  0  0  0  0  0  0  0  0  0  0  0
    6.7071   -2.6113   27.8169 H   0  0  0  0  0  0  0  0  0  0  0  0
    5.0664   -3.9290   28.3392 C   0  0  0  0  0  0  0  0  0  0  0  0
    5.0461   -3.6462   29.3894 H   0  0  0  0  0  0  0  0  0  0  0  0
    4.1554   -4.8753   27.8546 C   0  0  0  0  0  0  0  0  0  0  0  0
    3.4250   -5.3288   28.5192 H   0  0  0  0  0  0  0  0  0  0  0  0
    4.1900   -5.2452   26.5073 C   0  0  0  0  0  0  0  0  0  0  0  0
    3.4933   -5.9864   26.1204 H   0  0  0  0  0  0  0  0  0  0  0  0
    5.1231   -4.6748   25.6382 C   0  0  0  0  0  0  0  0  0  0  0  0
    5.2169   -5.0518   24.1828 C   0  0  0  0  0  0  0  0  0  0  0  0
    6.0194   -5.7874   24.0514 H   0  0  0  0  0  0  0  0  0  0  0  0
    4.2912   -5.5284   23.8511 H   0  0  0  0  0  0  0  0  0  0  0  0
    5.4970   -3.8243   23.3109 C   0  0  0  0  0  0  0  0  0  0  0  0
    4.6013   -3.1845   23.3069 H   0  0  0  0  0  0  0  0  0  0  0  0
    5.6677   -4.1534   22.2781 H   0  0  0  0  0  0  0  0  0  0  0  0
    6.6721   -1.5497   21.8614 C   0  0  0  0  0  0  0  0  0  0  0  0
    5.5978   -1.6754   21.7385 H   0  0  0  0  0  0  0  0  0  0  0  0
    5.4377    0.6495   20.1514 C   0  0  0  0  0  0  0  0  0  0  0  0
    5.0136    0.6322   21.1595 H   0  0  0  0  0  0  0  0  0  0  0  0
    4.8043    1.3162   19.1041 C   0  0  0  0  0  0  0  0  0  0  0  0
    3.8699    1.8464   19.2606 H   0  0  0  0  0  0  0  0  0  0  0  0
  1  2  1  0
  2  3  2  0
  3  4  1  0
  4  5  1  0
  4  6  2  0
  6  7  1  0
  7  8  2  0
  8  9  1  0
  8 10  1  0
 10 11  2  0
 11 12  1  0
 11 13  1  0
 13 14  1  0
 14 15  1  0
 15 16  1  0
 15 17  1  0
 15 18  1  0
 18 19  2  0
 19 20  1  0
 19 21  1  0
 21 22  1  0
 21 23  2  0
 23 24  1  0
 23 25  1  0
 25 26  1  0
 25 27  2  0
 27 28  1  0
 28 29  1  0
 28 30  1  0
 28 31  1  0
 31 32  1  0
 31 33  1  0
 13 34  2  0
 34 35  1  0
  6 36  1  0
 36 37  1  0
 36 38  2  0
 38 39  1  0
 38  2  1  0
 34  7  1  0
 31 14  1  0
 27 18  1  0
M  END
>  <cnnaffinity>  (1) 
-5.3931

>  <filename>  (1) 
c1cncc(-c2cncc(N3CCc4ccccc4C3)c2)c1

$$$$
