
     RDKit          3D

 29 31  0  0  0  0  0  0  0  0999 V2000
    4.9667    1.8165   16.9702 H   0  0  0  0  0  0  0  0  0  0  0  0
    5.4305    1.2871   17.7999 C   0  0  0  0  0  0  0  0  0  0  0  0
    6.5893    0.6572   17.5348 N   0  0  0  0  0  0  0  0  0  0  0  0
    7.1961    0.0272   18.5450 C   0  0  0  0  0  0  0  0  0  0  0  0
    8.1275   -0.4969   18.3365 H   0  0  0  0  0  0  0  0  0  0  0  0
    6.6846    0.0155   19.8542 C   0  0  0  0  0  0  0  0  0  0  0  0
    7.4114   -0.6481   20.8914 N   0  0  0  0  0  0  0  0  0  0  0  0
    7.9559   -1.8690   20.6941 N   0  0  0  0  0  0  0  0  0  0  0  0
    8.3877   -2.2744   21.8286 N   0  0  0  0  0  0  0  0  0  0  0  0
    8.1528   -1.3641   22.7997 N   0  0  0  0  0  0  0  0  0  0  0  0
    7.5720   -0.3433   22.2060 C   0  0  0  0  0  0  0  0  0  0  0  0
    7.0913    1.1835   22.9744 S   0  0  0  0  0  0  0  0  0  0  0  0
    8.2710    2.2761   22.3940 N   0  0  0  0  0  0  0  0  0  0  0  0
    7.9080    2.9897   21.7697 H   0  0  0  0  0  0  0  0  0  0  0  0
    9.3256    2.7321   23.3127 C   0  0  0  0  0  0  0  0  0  0  0  0
    9.9299    3.4749   22.7702 H   0  0  0  0  0  0  0  0  0  0  0  0
    8.9248    3.2325   24.2089 H   0  0  0  0  0  0  0  0  0  0  0  0
   10.2499    1.6077   23.7000 C   0  0  0  0  0  0  0  0  0  0  0  0
   10.3035    0.9713   25.3071 S   0  0  0  0  0  0  0  0  0  0  0  0
   11.5295   -0.1487   24.8790 C   0  0  0  0  0  0  0  0  0  0  0  0
   11.9682   -0.8014   25.6196 H   0  0  0  0  0  0  0  0  0  0  0  0
   11.8627   -0.0615   23.5603 C   0  0  0  0  0  0  0  0  0  0  0  0
   12.6270   -0.6939   23.1216 H   0  0  0  0  0  0  0  0  0  0  0  0
   11.1134    0.9424   22.8722 C   0  0  0  0  0  0  0  0  0  0  0  0
   11.1542    1.1713   21.8073 H   0  0  0  0  0  0  0  0  0  0  0  0
    5.4586    0.6323   20.1251 C   0  0  0  0  0  0  0  0  0  0  0  0
    5.0197    0.6164   21.1253 H   0  0  0  0  0  0  0  0  0  0  0  0
    4.8261    1.2843   19.0618 C   0  0  0  0  0  0  0  0  0  0  0  0
    3.8874    1.8044   19.2142 H   0  0  0  0  0  0  0  0  0  0  0  0
  1  2  1  0
  2  3  2  0
  3  4  1  0
  4  5  1  0
  4  6  2  0
  6  7  1  0
  7  8  1  0
  8  9  2  0
  9 10  1  0
 10 11  2  0
 11 12  1  0
 12 13  1  0
 13 14  1  0
 13 15  1  0
 15 16  1  0
 15 17  1  0
 15 18  1  0
 18 19  1  0
 19 20  1  0
 20 21  1  0
 20 22  2  0
 22 23  1  0
 22 24  1  0
 24 25  1  0
  6 26  1  0
 26 27  1  0
 26 28  2  0
 28 29  1  0
 28  2  1  0
 11  7  1  0
 24 18  2  0
M  END
>  <cnnaffinity>  (1) 
-5.44343

>  <filename>  (1) 
c1cncc(-n2nnnc2SNCc2cccs2)c1

$$$$
