
     RDKit          3D

 33 37  0  0  0  0  0  0  0  0999 V2000
    4.9127    1.8154   16.9700 H   0  0  0  0  0  0  0  0  0  0  0  0
    5.3759    1.3055   17.8170 C   0  0  0  0  0  0  0  0  0  0  0  0
    6.5386    0.6850   17.5626 N   0  0  0  0  0  0  0  0  0  0  0  0
    7.1507    0.0764   18.5830 C   0  0  0  0  0  0  0  0  0  0  0  0
    8.1015   -0.3894   18.3323 H   0  0  0  0  0  0  0  0  0  0  0  0
    6.6640    0.0249   19.9109 C   0  0  0  0  0  0  0  0  0  0  0  0
    7.4239   -0.6836   20.9660 C   0  0  0  0  0  0  0  0  0  0  0  0
    8.3414   -1.7067   20.9105 C   0  0  0  0  0  0  0  0  0  0  0  0
    8.7570   -2.1175   20.0092 H   0  0  0  0  0  0  0  0  0  0  0  0
    8.7916   -2.1225   22.1348 N   0  0  0  0  0  0  0  0  0  0  0  0
    8.1780   -1.3137   22.9609 C   0  0  0  0  0  0  0  0  0  0  0  0
    8.2480   -0.9561   24.6560 S   0  0  0  0  0  0  0  0  0  0  0  0
    7.1411    0.3594   24.3079 C   0  0  0  0  0  0  0  0  0  0  0  0
    6.6665    1.2616   25.3261 C   0  0  0  0  0  0  0  0  0  0  0  0
    7.0978    1.0868   26.6201 O   0  0  0  0  0  0  0  0  0  0  0  0
    6.4859    2.0667   27.3387 C   0  0  0  0  0  0  0  0  0  0  0  0
    6.6122    2.2966   28.7101 C   0  0  0  0  0  0  0  0  0  0  0  0
    7.2447    1.6695   29.3307 H   0  0  0  0  0  0  0  0  0  0  0  0
    5.8824    3.3640   29.2318 C   0  0  0  0  0  0  0  0  0  0  0  0
    5.9398    3.5849   30.2917 H   0  0  0  0  0  0  0  0  0  0  0  0
    5.0615    4.1693   28.4155 C   0  0  0  0  0  0  0  0  0  0  0  0
    4.5077    4.9901   28.8548 H   0  0  0  0  0  0  0  0  0  0  0  0
    4.9494    3.9257   27.0538 C   0  0  0  0  0  0  0  0  0  0  0  0
    4.3234    4.5348   26.4113 H   0  0  0  0  0  0  0  0  0  0  0  0
    5.6724    2.8562   26.5014 C   0  0  0  0  0  0  0  0  0  0  0  0
    5.8142    2.3046   25.1887 C   0  0  0  0  0  0  0  0  0  0  0  0
    5.3640    2.6152   24.2513 H   0  0  0  0  0  0  0  0  0  0  0  0
    6.7537    0.5154   23.0762 N   0  0  0  0  0  0  0  0  0  0  0  0
    7.3374   -0.4378   22.3295 N   0  0  0  0  0  0  0  0  0  0  0  0
    5.4330    0.6679   20.1459 C   0  0  0  0  0  0  0  0  0  0  0  0
    5.0180    0.6645   21.1520 H   0  0  0  0  0  0  0  0  0  0  0  0
    4.7881    1.3152   19.0862 C   0  0  0  0  0  0  0  0  0  0  0  0
    3.8552    1.8499   19.2279 H   0  0  0  0  0  0  0  0  0  0  0  0
  1  2  1  0
  2  3  2  0
  3  4  1  0
  4  5  1  0
  4  6  2  0
  6  7  1  0
  7  8  2  0
  8  9  1  0
  8 10  1  0
 10 11  2  0
 11 12  1  0
 12 13  1  0
 13 14  1  0
 14 15  1  0
 15 16  1  0
 16 17  2  0
 17 18  1  0
 17 19  1  0
 19 20  1  0
 19 21  2  0
 21 22  1  0
 21 23  1  0
 23 24  1  0
 23 25  2  0
 25 26  1  0
 26 27  1  0
 13 28  2  0
 28 29  1  0
  6 30  1  0
 30 31  1  0
 30 32  2  0
 32 33  1  0
 32  2  1  0
 29  7  1  0
 29 11  1  0
 26 14  2  0
 25 16  1  0
M  END
>  <cnnaffinity>  (1) 
-5.2939

>  <filename>  (1) 
c1cncc(-c2cnc3sc(-c4cc5ccccc5o4)nn23)c1

$$$$
