
     RDKit          3D

 35 38  0  0  0  0  0  0  0  0999 V2000
    4.9195    1.7834   16.9981 H   0  0  0  0  0  0  0  0  0  0  0  0
    5.4032    1.2959   17.8391 C   0  0  0  0  0  0  0  0  0  0  0  0
    6.5690    0.6824   17.5749 N   0  0  0  0  0  0  0  0  0  0  0  0
    7.1700    0.0518   18.5872 C   0  0  0  0  0  0  0  0  0  0  0  0
    8.1205   -0.4351   18.3711 H   0  0  0  0  0  0  0  0  0  0  0  0
    6.6506    0.0080   19.8914 C   0  0  0  0  0  0  0  0  0  0  0  0
    7.3762   -0.6858   20.9648 C   0  0  0  0  0  0  0  0  0  0  0  0
    7.9597   -1.8984   20.7271 N   0  0  0  0  0  0  0  0  0  0  0  0
    8.4933   -2.4555   21.7404 N   0  0  0  0  0  0  0  0  0  0  0  0
    8.3276   -1.5076   23.1293 S   0  0  0  0  0  0  0  0  0  0  0  0
    7.5039   -0.2609   22.2856 C   0  0  0  0  0  0  0  0  0  0  0  0
    7.1256    0.9378   22.8264 N   0  0  0  0  0  0  0  0  0  0  0  0
    7.4552    2.2110   22.1729 C   0  0  0  0  0  0  0  0  0  0  0  0
    8.0270    2.0097   21.2603 H   0  0  0  0  0  0  0  0  0  0  0  0
    6.5414    2.7184   21.8256 H   0  0  0  0  0  0  0  0  0  0  0  0
    8.2309    3.1651   23.0792 C   0  0  0  0  0  0  0  0  0  0  0  0
    8.8055    4.3193   22.5348 C   0  0  0  0  0  0  0  0  0  0  0  0
    8.6539    4.5187   21.4810 H   0  0  0  0  0  0  0  0  0  0  0  0
    9.5198    5.2235   23.3266 C   0  0  0  0  0  0  0  0  0  0  0  0
    9.9736    6.1057   22.8779 H   0  0  0  0  0  0  0  0  0  0  0  0
    9.6344    4.9910   24.7015 C   0  0  0  0  0  0  0  0  0  0  0  0
   10.1745    5.6893   25.3368 H   0  0  0  0  0  0  0  0  0  0  0  0
    9.0433    3.8534   25.2580 C   0  0  0  0  0  0  0  0  0  0  0  0
    9.1207    3.6587   26.3248 H   0  0  0  0  0  0  0  0  0  0  0  0
    8.3440    2.9355   24.4616 C   0  0  0  0  0  0  0  0  0  0  0  0
    7.7497    1.6846   25.0767 C   0  0  0  0  0  0  0  0  0  0  0  0
    8.5489    0.9506   25.2218 H   0  0  0  0  0  0  0  0  0  0  0  0
    7.3469    1.9075   26.0695 H   0  0  0  0  0  0  0  0  0  0  0  0
    6.6641    1.0599   24.2021 C   0  0  0  0  0  0  0  0  0  0  0  0
    5.7737    1.7052   24.2111 H   0  0  0  0  0  0  0  0  0  0  0  0
    6.3621    0.0770   24.5745 H   0  0  0  0  0  0  0  0  0  0  0  0
    5.4330    0.6541   20.1536 C   0  0  0  0  0  0  0  0  0  0  0  0
    5.0134    0.6342   21.1611 H   0  0  0  0  0  0  0  0  0  0  0  0
    4.8029    1.3122   19.1023 C   0  0  0  0  0  0  0  0  0  0  0  0
    3.8720    1.8436   19.2555 H   0  0  0  0  0  0  0  0  0  0  0  0
  1  2  1  0
  2  3  2  0
  3  4  1  0
  4  5  1  0
  4  6  2  0
  6  7  1  0
  7  8  1  0
  8  9  2  0
  9 10  1  0
 10 11  1  0
 11 12  1  0
 12 13  1  0
 13 14  1  0
 13 15  1  0
 13 16  1  0
 16 17  2  0
 17 18  1  0
 17 19  1  0
 19 20  1  0
 19 21  2  0
 21 22  1  0
 21 23  1  0
 23 24  1  0
 23 25  2  0
 25 26  1  0
 26 27  1  0
 26 28  1  0
 26 29  1  0
 29 30  1  0
 29 31  1  0
  6 32  1  0
 32 33  1  0
 32 34  2  0
 34 35  1  0
 34  2  1  0
 11  7  2  0
 29 12  1  0
 25 16  1  0
M  END
>  <cnnaffinity>  (1) 
-5.15906

>  <filename>  (1) 
c1cncc(-c2nnsc2N2CCc3ccccc3C2)c1

$$$$
