
     RDKit          3D

 33 36  0  0  0  0  0  0  0  0999 V2000
    4.9386    1.8109   16.9660 H   0  0  0  0  0  0  0  0  0  0  0  0
    5.3971    1.3121   17.8136 C   0  0  0  0  0  0  0  0  0  0  0  0
    6.5628    0.6930   17.5711 N   0  0  0  0  0  0  0  0  0  0  0  0
    7.1567    0.0901   18.6093 C   0  0  0  0  0  0  0  0  0  0  0  0
    8.1081   -0.3931   18.3856 H   0  0  0  0  0  0  0  0  0  0  0  0
    6.6427    0.0607   19.9312 C   0  0  0  0  0  0  0  0  0  0  0  0
    7.3431   -0.6766   21.0275 C   0  0  0  0  0  0  0  0  0  0  0  0
    7.8089   -1.9704   21.0975 C   0  0  0  0  0  0  0  0  0  0  0  0
    7.7646   -2.7634   20.3834 H   0  0  0  0  0  0  0  0  0  0  0  0
    8.3123   -2.2226   22.3279 N   0  0  0  0  0  0  0  0  0  0  0  0
    8.1780   -1.1680   23.0550 N   0  0  0  0  0  0  0  0  0  0  0  0
    7.5782   -0.2208   22.3079 N   0  0  0  0  0  0  0  0  0  0  0  0
    7.2357    1.0153   22.9256 C   0  0  0  0  0  0  0  0  0  0  0  0
    6.6530    0.9943   24.2316 C   0  0  0  0  0  0  0  0  0  0  0  0
    6.5086    0.0336   24.7178 H   0  0  0  0  0  0  0  0  0  0  0  0
    6.2966    2.1704   24.8344 C   0  0  0  0  0  0  0  0  0  0  0  0
    5.8441    2.1663   25.8231 H   0  0  0  0  0  0  0  0  0  0  0  0
    6.5145    3.4179   24.1714 C   0  0  0  0  0  0  0  0  0  0  0  0
    6.1606    4.6601   24.7677 C   0  0  0  0  0  0  0  0  0  0  0  0
    5.7315    4.6425   25.7685 H   0  0  0  0  0  0  0  0  0  0  0  0
    6.3712    5.8431   24.0984 C   0  0  0  0  0  0  0  0  0  0  0  0
    6.1028    6.7868   24.5634 H   0  0  0  0  0  0  0  0  0  0  0  0
    6.9629    5.8519   22.7996 C   0  0  0  0  0  0  0  0  0  0  0  0
    7.1030    6.7972   22.2776 H   0  0  0  0  0  0  0  0  0  0  0  0
    7.3429    4.6700   22.2106 C   0  0  0  0  0  0  0  0  0  0  0  0
    7.8497    4.6769   21.2488 H   0  0  0  0  0  0  0  0  0  0  0  0
    7.1098    3.4264   22.8678 C   0  0  0  0  0  0  0  0  0  0  0  0
    7.4556    2.1919   22.2582 C   0  0  0  0  0  0  0  0  0  0  0  0
    7.8434    2.1747   21.2450 H   0  0  0  0  0  0  0  0  0  0  0  0
    5.4023    0.6989   20.1383 C   0  0  0  0  0  0  0  0  0  0  0  0
    4.9535    0.7110   21.1342 H   0  0  0  0  0  0  0  0  0  0  0  0
    4.7744    1.3324   19.0641 C   0  0  0  0  0  0  0  0  0  0  0  0
    3.8237    1.8432   19.1831 H   0  0  0  0  0  0  0  0  0  0  0  0
  1  2  1  0
  2  3  2  0
  3  4  1  0
  4  5  1  0
  4  6  2  0
  6  7  1  0
  7  8  2  0
  8  9  1  0
  8 10  1  0
 10 11  2  0
 11 12  1  0
 12 13  1  0
 13 14  2  0
 14 15  1  0
 14 16  1  0
 16 17  1  0
 16 18  2  0
 18 19  1  0
 19 20  1  0
 19 21  2  0
 21 22  1  0
 21 23  1  0
 23 24  1  0
 23 25  2  0
 25 26  1  0
 25 27  1  0
 27 28  2  0
 28 29  1  0
  6 30  1  0
 30 31  1  0
 30 32  2  0
 32 33  1  0
 32  2  1  0
 12  7  1  0
 28 13  1  0
 27 18  1  0
M  END
>  <cnnaffinity>  (1) 
-5.01665

>  <filename>  (1) 
c1cncc(-c2cnnn2-c2ccc3ccccc3c2)c1

$$$$
