
     RDKit          3D

 33 36  0  0  0  0  0  0  0  0999 V2000
    5.0311    1.8087   16.9464 H   0  0  0  0  0  0  0  0  0  0  0  0
    5.4630    1.2979   17.8053 C   0  0  0  0  0  0  0  0  0  0  0  0
    6.5936    0.6130   17.5759 N   0  0  0  0  0  0  0  0  0  0  0  0
    7.1462   -0.0418   18.6022 C   0  0  0  0  0  0  0  0  0  0  0  0
    8.0523   -0.6012   18.3818 H   0  0  0  0  0  0  0  0  0  0  0  0
    6.6268   -0.0142   19.9079 C   0  0  0  0  0  0  0  0  0  0  0  0
    7.3140   -0.7088   20.9912 C   0  0  0  0  0  0  0  0  0  0  0  0
    7.8094   -1.9882   20.8185 N   0  0  0  0  0  0  0  0  0  0  0  0
    8.2487   -2.3077   22.0036 C   0  0  0  0  0  0  0  0  0  0  0  0
    8.9650   -3.7283   22.7170 S   0  0  0  0  0  0  0  0  0  0  0  0
    9.2105   -2.8562   24.2189 C   0  0  0  0  0  0  0  0  0  0  0  0
    9.6864   -3.3511   25.0528 H   0  0  0  0  0  0  0  0  0  0  0  0
    8.7475   -1.5979   24.1730 C   0  0  0  0  0  0  0  0  0  0  0  0
    8.8176   -0.8394   24.9464 H   0  0  0  0  0  0  0  0  0  0  0  0
    8.1464   -1.3086   22.9442 N   0  0  0  0  0  0  0  0  0  0  0  0
    7.5280   -0.2545   22.2982 C   0  0  0  0  0  0  0  0  0  0  0  0
    7.2512    0.9297   22.9484 N   0  0  0  0  0  0  0  0  0  0  0  0
    7.6498    0.9584   23.8771 H   0  0  0  0  0  0  0  0  0  0  0  0
    7.4106    2.1871   22.2206 C   0  0  0  0  0  0  0  0  0  0  0  0
    8.0694    2.0345   21.3509 H   0  0  0  0  0  0  0  0  0  0  0  0
    6.4487    2.5157   21.8021 H   0  0  0  0  0  0  0  0  0  0  0  0
    7.9898    3.2347   23.1393 C   0  0  0  0  0  0  0  0  0  0  0  0
    7.4681    3.2915   24.0961 H   0  0  0  0  0  0  0  0  0  0  0  0
    8.4469    4.5349   22.5509 C   0  0  0  0  0  0  0  0  0  0  0  0
    8.3905    4.6403   21.4693 H   0  0  0  0  0  0  0  0  0  0  0  0
    8.2188    5.4596   23.0805 H   0  0  0  0  0  0  0  0  0  0  0  0
    9.4598    3.5786   23.1203 C   0  0  0  0  0  0  0  0  0  0  0  0
   10.1087    3.0317   22.4293 H   0  0  0  0  0  0  0  0  0  0  0  0
    9.9533    3.8212   24.0605 H   0  0  0  0  0  0  0  0  0  0  0  0
    5.4338    0.6915   20.1259 C   0  0  0  0  0  0  0  0  0  0  0  0
    5.0003    0.7218   21.1262 H   0  0  0  0  0  0  0  0  0  0  0  0
    4.8362    1.3548   19.0545 C   0  0  0  0  0  0  0  0  0  0  0  0
    3.9109    1.9037   19.1732 H   0  0  0  0  0  0  0  0  0  0  0  0
  1  2  1  0
  2  3  2  0
  3  4  1  0
  4  5  1  0
  4  6  2  0
  6  7  1  0
  7  8  1  0
  8  9  2  0
  9 10  1  0
 10 11  1  0
 11 12  1  0
 11 13  2  0
 13 14  1  0
 13 15  1  0
 15 16  1  0
 16 17  1  0
 17 18  1  0
 17 19  1  0
 19 20  1  0
 19 21  1  0
 19 22  1  0
 22 23  1  0
 22 24  1  0
 24 25  1  0
 24 26  1  0
 24 27  1  0
 27 28  1  0
 27 29  1  0
  6 30  1  0
 30 31  1  0
 30 32  2  0
 32 33  1  0
 32  2  1  0
 16  7  2  0
 27 22  1  0
 15  9  1  0
M  END
>  <cnnaffinity>  (1) 
-5.38328

>  <filename>  (1) 
c1cncc(-c2nc3sccn3c2NCC2CC2)c1

$$$$
