
     RDKit          3D

 31 34  0  0  0  0  0  0  0  0999 V2000
    4.9239    1.7831   16.9961 H   0  0  0  0  0  0  0  0  0  0  0  0
    5.4063    1.2932   17.8373 C   0  0  0  0  0  0  0  0  0  0  0  0
    6.5707    0.6809   17.5755 N   0  0  0  0  0  0  0  0  0  0  0  0
    7.1699    0.0493   18.5874 C   0  0  0  0  0  0  0  0  0  0  0  0
    8.1179   -0.4328   18.3645 H   0  0  0  0  0  0  0  0  0  0  0  0
    6.6458   -0.0119   19.8843 C   0  0  0  0  0  0  0  0  0  0  0  0
    7.3782   -0.7356   20.9337 C   0  0  0  0  0  0  0  0  0  0  0  0
    7.9561   -1.8881   20.7048 N   0  0  0  0  0  0  0  0  0  0  0  0
    8.4494   -2.3258   21.9124 O   0  0  0  0  0  0  0  0  0  0  0  0
    8.1718   -1.4200   22.8484 C   0  0  0  0  0  0  0  0  0  0  0  0
    8.5301   -1.6204   23.8490 H   0  0  0  0  0  0  0  0  0  0  0  0
    7.5145   -0.3629   22.3123 C   0  0  0  0  0  0  0  0  0  0  0  0
    7.1310    0.8801   22.9865 C   0  0  0  0  0  0  0  0  0  0  0  0
    6.6411    0.8095   24.3228 C   0  0  0  0  0  0  0  0  0  0  0  0
    6.5488   -0.1659   24.8004 H   0  0  0  0  0  0  0  0  0  0  0  0
    6.2762    1.9593   25.0023 C   0  0  0  0  0  0  0  0  0  0  0  0
    5.9111    1.9225   26.0258 H   0  0  0  0  0  0  0  0  0  0  0  0
    6.3986    3.2054   24.3536 C   0  0  0  0  0  0  0  0  0  0  0  0
    6.1300    4.5610   24.7424 C   0  0  0  0  0  0  0  0  0  0  0  0
    5.7479    4.8583   25.7055 H   0  0  0  0  0  0  0  0  0  0  0  0
    6.4473    5.3654   23.6844 C   0  0  0  0  0  0  0  0  0  0  0  0
    6.3859    6.4453   23.5770 H   0  0  0  0  0  0  0  0  0  0  0  0
    6.9067    4.5729   22.6464 N   0  0  0  0  0  0  0  0  0  0  0  0
    7.2057    4.8788   21.7386 H   0  0  0  0  0  0  0  0  0  0  0  0
    6.8922    3.2557   23.0263 C   0  0  0  0  0  0  0  0  0  0  0  0
    7.2772    2.1052   22.3319 C   0  0  0  0  0  0  0  0  0  0  0  0
    7.6442    2.1510   21.3081 H   0  0  0  0  0  0  0  0  0  0  0  0
    5.4240    0.6320   20.1459 C   0  0  0  0  0  0  0  0  0  0  0  0
    4.9999    0.6359   21.1555 H   0  0  0  0  0  0  0  0  0  0  0  0
    4.8017    1.3038   19.0997 C   0  0  0  0  0  0  0  0  0  0  0  0
    3.8740    1.8418   19.2549 H   0  0  0  0  0  0  0  0  0  0  0  0
  1  2  1  0
  2  3  2  0
  3  4  1  0
  4  5  1  0
  4  6  2  0
  6  7  1  0
  7  8  2  0
  8  9  1  0
  9 10  1  0
 10 11  1  0
 10 12  2  0
 12 13  1  0
 13 14  2  0
 14 15  1  0
 14 16  1  0
 16 17  1  0
 16 18  2  0
 18 19  1  0
 19 20  1  0
 19 21  2  0
 21 22  1  0
 21 23  1  0
 23 24  1  0
 23 25  1  0
 25 26  2  0
 26 27  1  0
  6 28  1  0
 28 29  1  0
 28 30  2  0
 30 31  1  0
 30  2  1  0
 12  7  1  0
 26 13  1  0
 25 18  1  0
M  END
>  <cnnaffinity>  (1) 
-5.08214

>  <filename>  (1) 
c1cncc(-c2nocc2-c2ccc3cc[nH]c3c2)c1

$$$$
