
     RDKit          3D

 24 26  0  0  0  0  0  0  0  0999 V2000
    9.4473   -3.4319   26.6645 H   0  0  0  0  0  0  0  0  0  0  0  0
    8.8322   -2.8800   25.9686 C   0  0  0  0  0  0  0  0  0  0  0  0
    7.6673   -2.2777   26.3448 N   0  0  0  0  0  0  0  0  0  0  0  0
    7.2533   -1.7359   25.2249 C   0  0  0  0  0  0  0  0  0  0  0  0
    6.3452   -1.1567   25.0975 H   0  0  0  0  0  0  0  0  0  0  0  0
    8.1330   -2.0033   24.2201 N   0  0  0  0  0  0  0  0  0  0  0  0
    8.0139   -1.5839   22.8861 C   0  0  0  0  0  0  0  0  0  0  0  0
    7.0293   -0.8368   22.2976 C   0  0  0  0  0  0  0  0  0  0  0  0
    6.1523   -0.4271   22.7712 H   0  0  0  0  0  0  0  0  0  0  0  0
    7.4126   -0.7159   20.9502 C   0  0  0  0  0  0  0  0  0  0  0  0
    6.6690    0.0042   19.9003 C   0  0  0  0  0  0  0  0  0  0  0  0
    7.1840    0.0593   18.5970 C   0  0  0  0  0  0  0  0  0  0  0  0
    8.1296   -0.4346   18.3789 H   0  0  0  0  0  0  0  0  0  0  0  0
    6.5698    0.6801   17.5846 N   0  0  0  0  0  0  0  0  0  0  0  0
    5.4031    1.2895   17.8470 C   0  0  0  0  0  0  0  0  0  0  0  0
    4.9085    1.7714   17.0067 H   0  0  0  0  0  0  0  0  0  0  0  0
    4.8063    1.3099   19.1136 C   0  0  0  0  0  0  0  0  0  0  0  0
    3.8715    1.8452   19.2678 H   0  0  0  0  0  0  0  0  0  0  0  0
    5.4473    0.6498   20.1579 C   0  0  0  0  0  0  0  0  0  0  0  0
    5.0051    0.6325   21.1537 H   0  0  0  0  0  0  0  0  0  0  0  0
    8.5612   -1.3489   20.7208 N   0  0  0  0  0  0  0  0  0  0  0  0
    8.9133   -1.8722   21.9117 N   0  0  0  0  0  0  0  0  0  0  0  0
    9.7642   -2.4101   22.0209 H   0  0  0  0  0  0  0  0  0  0  0  0
    9.1590   -2.7466   24.7017 N   0  0  0  0  0  0  0  0  0  0  0  0
  1  2  1  0
  2  3  1  0
  3  4  2  0
  4  5  1  0
  4  6  1  0
  6  7  1  0
  7  8  2  0
  8  9  1  0
  8 10  1  0
 10 11  1  0
 11 12  2  0
 12 13  1  0
 12 14  1  0
 14 15  2  0
 15 16  1  0
 15 17  1  0
 17 18  1  0
 17 19  2  0
 19 20  1  0
 10 21  2  0
 21 22  1  0
 22 23  1  0
  6 24  1  0
 24  2  2  0
 22  7  1  0
 19 11  1  0
M  END
>  <cnnaffinity>  (1) 
-4.46806

>  <filename>  (1) 
c1cncc(-c2cc(-n3cncn3)[nH]n2)c1

$$$$
