
     RDKit          3D

 31 34  0  0  0  0  0  0  0  0999 V2000
    4.9140    1.7849   16.9987 H   0  0  0  0  0  0  0  0  0  0  0  0
    5.3982    1.2921   17.8413 C   0  0  0  0  0  0  0  0  0  0  0  0
    6.5545    0.6679   17.5744 N   0  0  0  0  0  0  0  0  0  0  0  0
    7.1871    0.0584   18.5839 C   0  0  0  0  0  0  0  0  0  0  0  0
    8.1345   -0.4205   18.3560 H   0  0  0  0  0  0  0  0  0  0  0  0
    6.6867    0.0202   19.9014 C   0  0  0  0  0  0  0  0  0  0  0  0
    7.2910   -0.6972   20.9508 O   0  0  0  0  0  0  0  0  0  0  0  0
    8.6278   -0.7613   21.0723 C   0  0  0  0  0  0  0  0  0  0  0  0
    9.5461   -0.0725   20.4499 N   0  0  0  0  0  0  0  0  0  0  0  0
   10.7272   -0.5177   20.9493 N   0  0  0  0  0  0  0  0  0  0  0  0
   10.5599   -1.4356   21.8117 N   0  0  0  0  0  0  0  0  0  0  0  0
    9.2159   -1.6346   21.9243 N   0  0  0  0  0  0  0  0  0  0  0  0
    8.7210   -2.5916   22.8033 C   0  0  0  0  0  0  0  0  0  0  0  0
    9.4213   -3.3457   23.7003 C   0  0  0  0  0  0  0  0  0  0  0  0
   10.4906   -3.3210   23.8620 H   0  0  0  0  0  0  0  0  0  0  0  0
    8.4792   -4.1658   24.3733 C   0  0  0  0  0  0  0  0  0  0  0  0
    8.5842   -5.1410   25.3873 C   0  0  0  0  0  0  0  0  0  0  0  0
    9.5628   -5.3770   25.8038 H   0  0  0  0  0  0  0  0  0  0  0  0
    7.4314   -5.7789   25.8318 C   0  0  0  0  0  0  0  0  0  0  0  0
    7.4997   -6.5344   26.6162 H   0  0  0  0  0  0  0  0  0  0  0  0
    6.1632   -5.4545   25.2741 C   0  0  0  0  0  0  0  0  0  0  0  0
    5.2762   -5.9712   25.6453 H   0  0  0  0  0  0  0  0  0  0  0  0
    6.0298   -4.4952   24.2722 C   0  0  0  0  0  0  0  0  0  0  0  0
    5.0591   -4.2405   23.8444 H   0  0  0  0  0  0  0  0  0  0  0  0
    7.1977   -3.8589   23.8308 C   0  0  0  0  0  0  0  0  0  0  0  0
    7.3819   -2.8913   22.8710 N   0  0  0  0  0  0  0  0  0  0  0  0
    6.6546   -2.4643   22.3260 H   0  0  0  0  0  0  0  0  0  0  0  0
    5.4662    0.6430   20.1738 C   0  0  0  0  0  0  0  0  0  0  0  0
    5.0374    0.6109   21.1770 H   0  0  0  0  0  0  0  0  0  0  0  0
    4.8222    1.3009   19.1167 C   0  0  0  0  0  0  0  0  0  0  0  0
    3.8887    1.8303   19.2684 H   0  0  0  0  0  0  0  0  0  0  0  0
  1  2  1  0
  2  3  2  0
  3  4  1  0
  4  5  1  0
  4  6  2  0
  6  7  1  0
  7  8  1  0
  8  9  2  0
  9 10  1  0
 10 11  2  0
 11 12  1  0
 12 13  1  0
 13 14  2  0
 14 15  1  0
 14 16  1  0
 16 17  2  0
 17 18  1  0
 17 19  1  0
 19 20  1  0
 19 21  2  0
 21 22  1  0
 21 23  1  0
 23 24  1  0
 23 25  2  0
 25 26  1  0
 26 27  1  0
  6 28  1  0
 28 29  1  0
 28 30  2  0
 30 31  1  0
 30  2  1  0
 12  8  1  0
 26 13  1  0
 25 16  1  0
M  END
>  <cnnaffinity>  (1) 
-5.37476

>  <filename>  (1) 
c1cncc(Oc2nnnn2-c2cc3ccccc3[nH]2)c1

$$$$
