
     RDKit          3D

 33 36  0  0  0  0  0  0  0  0999 V2000
    4.9689    1.8351   16.9214 H   0  0  0  0  0  0  0  0  0  0  0  0
    5.4145    1.3233   17.7733 C   0  0  0  0  0  0  0  0  0  0  0  0
    6.5719    0.6843   17.5436 N   0  0  0  0  0  0  0  0  0  0  0  0
    7.1420    0.0596   18.5826 C   0  0  0  0  0  0  0  0  0  0  0  0
    8.0809   -0.4499   18.3716 H   0  0  0  0  0  0  0  0  0  0  0  0
    6.6021    0.0112   19.8823 C   0  0  0  0  0  0  0  0  0  0  0  0
    7.3187   -0.7158   20.9614 C   0  0  0  0  0  0  0  0  0  0  0  0
    6.6712   -1.5626   21.8665 C   0  0  0  0  0  0  0  0  0  0  0  0
    5.6072   -1.7607   21.8007 H   0  0  0  0  0  0  0  0  0  0  0  0
    7.4343   -2.2212   22.8311 C   0  0  0  0  0  0  0  0  0  0  0  0
    6.9505   -2.8880   23.5396 H   0  0  0  0  0  0  0  0  0  0  0  0
    8.7635   -2.1099   22.9469 N   0  0  0  0  0  0  0  0  0  0  0  0
    9.3864   -1.2591   22.1121 C   0  0  0  0  0  0  0  0  0  0  0  0
   10.8630   -1.1120   22.2111 C   0  0  0  0  0  0  0  0  0  0  0  0
   11.7266   -2.1607   22.1922 C   0  0  0  0  0  0  0  0  0  0  0  0
   11.4794   -3.2136   22.2504 H   0  0  0  0  0  0  0  0  0  0  0  0
   13.3889   -1.6909   22.1023 S   0  0  0  0  0  0  0  0  0  0  0  0
   12.9601   -0.0193   22.2842 C   0  0  0  0  0  0  0  0  0  0  0  0
   13.8438    1.0471   22.5021 C   0  0  0  0  0  0  0  0  0  0  0  0
   14.9125    0.8617   22.5659 H   0  0  0  0  0  0  0  0  0  0  0  0
   13.3150    2.3316   22.5721 C   0  0  0  0  0  0  0  0  0  0  0  0
   13.9860    3.1646   22.7412 H   0  0  0  0  0  0  0  0  0  0  0  0
   11.9355    2.5594   22.3931 C   0  0  0  0  0  0  0  0  0  0  0  0
   11.5513    3.5747   22.3930 H   0  0  0  0  0  0  0  0  0  0  0  0
   11.0633    1.4898   22.2511 C   0  0  0  0  0  0  0  0  0  0  0  0
    9.9934    1.6576   22.2212 H   0  0  0  0  0  0  0  0  0  0  0  0
   11.5645    0.1667   22.2285 C   0  0  0  0  0  0  0  0  0  0  0  0
    8.6992   -0.5745   21.1020 C   0  0  0  0  0  0  0  0  0  0  0  0
    9.2583    0.0924   20.4589 H   0  0  0  0  0  0  0  0  0  0  0  0
    5.3872    0.6818   20.0959 C   0  0  0  0  0  0  0  0  0  0  0  0
    4.9381    0.7069   21.0906 H   0  0  0  0  0  0  0  0  0  0  0  0
    4.7868    1.3466   19.0244 C   0  0  0  0  0  0  0  0  0  0  0  0
    3.8556    1.8878   19.1440 H   0  0  0  0  0  0  0  0  0  0  0  0
  1  2  1  0
  2  3  2  0
  3  4  1  0
  4  5  1  0
  4  6  2  0
  6  7  1  0
  7  8  2  0
  8  9  1  0
  8 10  1  0
 10 11  1  0
 10 12  2  0
 12 13  1  0
 13 14  1  0
 14 15  2  0
 15 16  1  0
 15 17  1  0
 17 18  1  0
 18 19  2  0
 19 20  1  0
 19 21  1  0
 21 22  1  0
 21 23  2  0
 23 24  1  0
 23 25  1  0
 25 26  1  0
 25 27  2  0
 13 28  2  0
 28 29  1  0
  6 30  1  0
 30 31  1  0
 30 32  2  0
 32 33  1  0
 32  2  1  0
 28  7  1  0
 27 14  1  0
 27 18  1  0
M  END
>  <cnnaffinity>  (1) 
-6.19919

>  <filename>  (1) 
c1cncc(-c2ccnc(-c3csc4ccccc34)c2)c1

$$$$
