
     RDKit          3D

 31 34  0  0  0  0  0  0  0  0999 V2000
    4.9118    1.7825   17.0000 H   0  0  0  0  0  0  0  0  0  0  0  0
    5.3982    1.2919   17.8422 C   0  0  0  0  0  0  0  0  0  0  0  0
    6.5560    0.6707   17.5756 N   0  0  0  0  0  0  0  0  0  0  0  0
    7.1890    0.0596   18.5842 C   0  0  0  0  0  0  0  0  0  0  0  0
    8.1359   -0.4233   18.3609 H   0  0  0  0  0  0  0  0  0  0  0  0
    6.6897    0.0238   19.9003 C   0  0  0  0  0  0  0  0  0  0  0  0
    7.2995   -0.6826   20.9486 O   0  0  0  0  0  0  0  0  0  0  0  0
    8.6339   -0.7719   21.0724 C   0  0  0  0  0  0  0  0  0  0  0  0
    9.5566   -0.0787   20.4548 N   0  0  0  0  0  0  0  0  0  0  0  0
   10.7313   -0.5175   20.9684 N   0  0  0  0  0  0  0  0  0  0  0  0
   10.5553   -1.4348   21.8364 N   0  0  0  0  0  0  0  0  0  0  0  0
    9.2110   -1.6406   21.9302 N   0  0  0  0  0  0  0  0  0  0  0  0
    8.6613   -2.6145   22.8236 C   0  0  0  0  0  0  0  0  0  0  0  0
    7.4093   -3.2185   22.5030 C   0  0  0  0  0  0  0  0  0  0  0  0
    6.8906   -2.9534   21.5886 H   0  0  0  0  0  0  0  0  0  0  0  0
    6.8432   -4.1390   23.3709 C   0  0  0  0  0  0  0  0  0  0  0  0
    5.8823   -4.6003   23.1573 H   0  0  0  0  0  0  0  0  0  0  0  0
    7.5138   -4.4814   24.5573 C   0  0  0  0  0  0  0  0  0  0  0  0
    7.2250   -5.3766   25.6407 C   0  0  0  0  0  0  0  0  0  0  0  0
    6.3378   -5.9871   25.7214 H   0  0  0  0  0  0  0  0  0  0  0  0
    8.2673   -5.3023   26.5199 C   0  0  0  0  0  0  0  0  0  0  0  0
    8.4231   -5.8289   27.4582 H   0  0  0  0  0  0  0  0  0  0  0  0
    9.1972   -4.3966   26.0367 N   0  0  0  0  0  0  0  0  0  0  0  0
   10.0668   -4.1452   26.4699 H   0  0  0  0  0  0  0  0  0  0  0  0
    8.7649   -3.8770   24.8412 C   0  0  0  0  0  0  0  0  0  0  0  0
    9.3603   -2.9385   23.9867 C   0  0  0  0  0  0  0  0  0  0  0  0
   10.3291   -2.4973   24.2215 H   0  0  0  0  0  0  0  0  0  0  0  0
    5.4655    0.6423   20.1714 C   0  0  0  0  0  0  0  0  0  0  0  0
    5.0349    0.6121   21.1734 H   0  0  0  0  0  0  0  0  0  0  0  0
    4.8204    1.3013   19.1167 C   0  0  0  0  0  0  0  0  0  0  0  0
    3.8867    1.8319   19.2689 H   0  0  0  0  0  0  0  0  0  0  0  0
  1  2  1  0
  2  3  2  0
  3  4  1  0
  4  5  1  0
  4  6  2  0
  6  7  1  0
  7  8  1  0
  8  9  2  0
  9 10  1  0
 10 11  2  0
 11 12  1  0
 12 13  1  0
 13 14  2  0
 14 15  1  0
 14 16  1  0
 16 17  1  0
 16 18  2  0
 18 19  1  0
 19 20  1  0
 19 21  2  0
 21 22  1  0
 21 23  1  0
 23 24  1  0
 23 25  1  0
 25 26  2  0
 26 27  1  0
  6 28  1  0
 28 29  1  0
 28 30  2  0
 30 31  1  0
 30  2  1  0
 12  8  1  0
 26 13  1  0
 25 18  1  0
M  END
>  <cnnaffinity>  (1) 
-5.4855

>  <filename>  (1) 
c1cncc(Oc2nnnn2-c2ccc3cc[nH]c3c2)c1

$$$$
