
     RDKit          3D

 38 41  0  0  0  0  0  0  0  0999 V2000
    5.0241    1.8204   16.9429 H   0  0  0  0  0  0  0  0  0  0  0  0
    5.4456    1.2919   17.7974 C   0  0  0  0  0  0  0  0  0  0  0  0
    6.5858    0.6212   17.5732 N   0  0  0  0  0  0  0  0  0  0  0  0
    7.1331   -0.0289   18.6060 C   0  0  0  0  0  0  0  0  0  0  0  0
    8.0406   -0.5878   18.3954 H   0  0  0  0  0  0  0  0  0  0  0  0
    6.6014   -0.0232   19.9056 C   0  0  0  0  0  0  0  0  0  0  0  0
    7.3234   -0.6968   20.9788 C   0  0  0  0  0  0  0  0  0  0  0  0
    7.8513   -1.9568   20.8241 N   0  0  0  0  0  0  0  0  0  0  0  0
    8.3825   -2.2159   21.9925 C   0  0  0  0  0  0  0  0  0  0  0  0
    9.2448   -3.5371   22.7314 S   0  0  0  0  0  0  0  0  0  0  0  0
    9.5995   -2.5357   24.1357 C   0  0  0  0  0  0  0  0  0  0  0  0
   10.2156   -2.9287   24.9344 H   0  0  0  0  0  0  0  0  0  0  0  0
    9.0464   -1.3176   24.0365 C   0  0  0  0  0  0  0  0  0  0  0  0
    9.1520   -0.4691   24.7048 H   0  0  0  0  0  0  0  0  0  0  0  0
    8.3036   -1.1679   22.8720 N   0  0  0  0  0  0  0  0  0  0  0  0
    7.5940   -0.1738   22.2329 C   0  0  0  0  0  0  0  0  0  0  0  0
    7.4705    1.1841   22.8256 C   0  0  0  0  0  0  0  0  0  0  0  0
    7.0491    1.0768   23.8375 H   0  0  0  0  0  0  0  0  0  0  0  0
    6.7401    1.7771   22.2510 H   0  0  0  0  0  0  0  0  0  0  0  0
    8.7764    1.8407   22.9180 N   0  0  0  0  0  0  0  0  0  0  0  0
    9.3695    2.1248   21.5960 C   0  0  0  0  0  0  0  0  0  0  0  0
    8.7923    2.9059   21.0559 H   0  0  0  0  0  0  0  0  0  0  0  0
    9.3283    1.2301   20.9669 H   0  0  0  0  0  0  0  0  0  0  0  0
   10.8328    2.5734   21.7730 C   0  0  0  0  0  0  0  0  0  0  0  0
   11.3092    2.7180   20.7942 H   0  0  0  0  0  0  0  0  0  0  0  0
   11.3774    1.7599   22.2759 H   0  0  0  0  0  0  0  0  0  0  0  0
   10.9717    3.8066   22.5754 N   0  0  0  0  0  0  0  0  0  0  0  0
   10.5776    4.5755   22.0249 H   0  0  0  0  0  0  0  0  0  0  0  0
   10.2194    3.6606   23.8368 C   0  0  0  0  0  0  0  0  0  0  0  0
   10.1640    4.6428   24.3232 H   0  0  0  0  0  0  0  0  0  0  0  0
   10.8136    2.9974   24.4814 H   0  0  0  0  0  0  0  0  0  0  0  0
    8.7911    3.0621   23.7328 C   0  0  0  0  0  0  0  0  0  0  0  0
    8.0763    3.8248   23.3561 H   0  0  0  0  0  0  0  0  0  0  0  0
    8.4773    2.8089   24.7524 H   0  0  0  0  0  0  0  0  0  0  0  0
    5.3945    0.6582   20.1175 C   0  0  0  0  0  0  0  0  0  0  0  0
    4.9060    0.6496   21.0980 H   0  0  0  0  0  0  0  0  0  0  0  0
    4.8038    1.3194   19.0421 C   0  0  0  0  0  0  0  0  0  0  0  0
    3.8728    1.8606   19.1509 H   0  0  0  0  0  0  0  0  0  0  0  0
  1  2  1  0
  2  3  2  0
  3  4  1  0
  4  5  1  0
  4  6  2  0
  6  7  1  0
  7  8  1  0
  8  9  2  0
  9 10  1  0
 10 11  1  0
 11 12  1  0
 11 13  2  0
 13 14  1  0
 13 15  1  0
 15 16  1  0
 16 17  1  0
 17 18  1  0
 17 19  1  0
 17 20  1  0
 20 21  1  0
 21 22  1  0
 21 23  1  0
 21 24  1  0
 24 25  1  0
 24 26  1  0
 24 27  1  0
 27 28  1  0
 27 29  1  0
 29 30  1  0
 29 31  1  0
 29 32  1  0
 32 33  1  0
 32 34  1  0
  6 35  1  0
 35 36  1  0
 35 37  2  0
 37 38  1  0
 37  2  1  0
 16  7  2  0
 32 20  1  0
 15  9  1  0
M  END
>  <cnnaffinity>  (1) 
-5.45788

>  <filename>  (1) 
c1cncc(-c2nc3sccn3c2CN2CCNCC2)c1

$$$$
