
     RDKit          3D

 38 40  0  0  0  0  0  0  0  0999 V2000
    5.6935   -1.4469   22.0217 H   0  0  0  0  0  0  0  0  0  0  0  0
    6.7766   -1.3891   22.0081 C   0  0  0  0  0  0  0  0  0  0  0  0
    7.4399   -2.0337   22.9810 N   0  0  0  0  0  0  0  0  0  0  0  0
    8.7815   -1.9982   22.9017 C   0  0  0  0  0  0  0  0  0  0  0  0
    9.3366   -2.5065   23.6936 H   0  0  0  0  0  0  0  0  0  0  0  0
    9.4595   -1.3491   21.8380 C   0  0  0  0  0  0  0  0  0  0  0  0
   10.9624   -1.3080   21.8041 C   0  0  0  0  0  0  0  0  0  0  0  0
   11.3427   -2.2989   22.0866 H   0  0  0  0  0  0  0  0  0  0  0  0
   11.2770   -1.1013   20.7763 H   0  0  0  0  0  0  0  0  0  0  0  0
   11.5789   -0.2542   22.7438 C   0  0  0  0  0  0  0  0  0  0  0  0
   11.2271   -0.4465   23.7757 H   0  0  0  0  0  0  0  0  0  0  0  0
   11.1583    1.1818   22.3646 C   0  0  0  0  0  0  0  0  0  0  0  0
   10.0638    1.2795   22.3530 H   0  0  0  0  0  0  0  0  0  0  0  0
   11.4821    1.3566   21.3243 H   0  0  0  0  0  0  0  0  0  0  0  0
   11.7998    2.2341   23.2886 C   0  0  0  0  0  0  0  0  0  0  0  0
   11.5302    3.2451   22.9538 H   0  0  0  0  0  0  0  0  0  0  0  0
   11.3847    2.1233   24.3039 H   0  0  0  0  0  0  0  0  0  0  0  0
   13.3297    2.0698   23.3412 C   0  0  0  0  0  0  0  0  0  0  0  0
   13.7450    2.2847   22.3496 H   0  0  0  0  0  0  0  0  0  0  0  0
   13.7860    2.8243   23.9836 H   0  0  0  0  0  0  0  0  0  0  0  0
   13.7311    0.6361   23.7361 C   0  0  0  0  0  0  0  0  0  0  0  0
   14.8145    0.5206   23.7560 H   0  0  0  0  0  0  0  0  0  0  0  0
   13.3823    0.4235   24.7593 H   0  0  0  0  0  0  0  0  0  0  0  0
   13.1136   -0.3500   22.7325 C   0  0  0  0  0  0  0  0  0  0  0  0
   13.4779   -0.0845   21.7302 H   0  0  0  0  0  0  0  0  0  0  0  0
   13.4448   -1.3862   22.8608 H   0  0  0  0  0  0  0  0  0  0  0  0
    8.7810   -0.7282   20.8527 N   0  0  0  0  0  0  0  0  0  0  0  0
    7.4339   -0.7114   20.9536 C   0  0  0  0  0  0  0  0  0  0  0  0
    6.6810    0.0150   19.9065 C   0  0  0  0  0  0  0  0  0  0  0  0
    7.1953    0.0665   18.5993 C   0  0  0  0  0  0  0  0  0  0  0  0
    8.1458   -0.4080   18.3639 H   0  0  0  0  0  0  0  0  0  0  0  0
    6.5745    0.6646   17.5798 N   0  0  0  0  0  0  0  0  0  0  0  0
    5.4113    1.2804   17.8397 C   0  0  0  0  0  0  0  0  0  0  0  0
    4.9416    1.7841   16.9987 H   0  0  0  0  0  0  0  0  0  0  0  0
    4.8166    1.3001   19.1057 C   0  0  0  0  0  0  0  0  0  0  0  0
    3.8816    1.8306   19.2494 H   0  0  0  0  0  0  0  0  0  0  0  0
    5.4533    0.6499   20.1599 C   0  0  0  0  0  0  0  0  0  0  0  0
    5.0053    0.6618   21.1570 H   0  0  0  0  0  0  0  0  0  0  0  0
  1  2  1  0
  2  3  2  0
  3  4  1  0
  4  5  1  0
  4  6  2  0
  6  7  1  0
  7  8  1  0
  7  9  1  0
  7 10  1  0
 10 11  1  0
 10 12  1  0
 12 13  1  0
 12 14  1  0
 12 15  1  0
 15 16  1  0
 15 17  1  0
 15 18  1  0
 18 19  1  0
 18 20  1  0
 18 21  1  0
 21 22  1  0
 21 23  1  0
 21 24  1  0
 24 25  1  0
 24 26  1  0
  6 27  1  0
 27 28  2  0
 28 29  1  0
 29 30  2  0
 30 31  1  0
 30 32  1  0
 32 33  2  0
 33 34  1  0
 33 35  1  0
 35 36  1  0
 35 37  2  0
 37 38  1  0
 28  2  1  0
 37 29  1  0
 24 10  1  0
M  END
>  <cnnaffinity>  (1) 
-5.57262

>  <filename>  (1) 
c1cncc(-c2cncc(CC3CCCCC3)n2)c1

$$$$
