
     RDKit          3D

 32 35  0  0  0  0  0  0  0  0999 V2000
    4.9525    1.8063   16.9652 H   0  0  0  0  0  0  0  0  0  0  0  0
    5.3995    1.3021   17.8211 C   0  0  0  0  0  0  0  0  0  0  0  0
    6.5634    0.6722   17.5945 N   0  0  0  0  0  0  0  0  0  0  0  0
    7.1540    0.0645   18.6262 C   0  0  0  0  0  0  0  0  0  0  0  0
    8.0878   -0.4460   18.3986 H   0  0  0  0  0  0  0  0  0  0  0  0
    6.6373    0.0641   19.9308 C   0  0  0  0  0  0  0  0  0  0  0  0
    7.3719   -0.6606   20.9792 C   0  0  0  0  0  0  0  0  0  0  0  0
    7.9332   -1.8223   20.8007 N   0  0  0  0  0  0  0  0  0  0  0  0
    8.3981   -2.2693   22.0133 N   0  0  0  0  0  0  0  0  0  0  0  0
    8.1239   -1.3557   22.8965 C   0  0  0  0  0  0  0  0  0  0  0  0
    8.3751   -1.4055   23.9500 H   0  0  0  0  0  0  0  0  0  0  0  0
    7.4924   -0.2936   22.3029 N   0  0  0  0  0  0  0  0  0  0  0  0
    7.1913    0.9228   22.9230 C   0  0  0  0  0  0  0  0  0  0  0  0
    6.7857    0.8461   24.1607 N   0  0  0  0  0  0  0  0  0  0  0  0
    6.4441    2.0242   24.7715 C   0  0  0  0  0  0  0  0  0  0  0  0
    5.9489    1.9637   26.1038 C   0  0  0  0  0  0  0  0  0  0  0  0
    5.8553    0.9730   26.5354 H   0  0  0  0  0  0  0  0  0  0  0  0
    5.6298    3.1171   26.7849 C   0  0  0  0  0  0  0  0  0  0  0  0
    5.2659    3.0728   27.8091 H   0  0  0  0  0  0  0  0  0  0  0  0
    5.7818    4.3882   26.1618 C   0  0  0  0  0  0  0  0  0  0  0  0
    5.5301    5.2869   26.7176 H   0  0  0  0  0  0  0  0  0  0  0  0
    6.2455    4.4811   24.8700 C   0  0  0  0  0  0  0  0  0  0  0  0
    6.3669    5.4474   24.3826 H   0  0  0  0  0  0  0  0  0  0  0  0
    6.5858    3.3039   24.1442 C   0  0  0  0  0  0  0  0  0  0  0  0
    7.0869    3.3197   22.8064 C   0  0  0  0  0  0  0  0  0  0  0  0
    7.2137    4.2757   22.3006 H   0  0  0  0  0  0  0  0  0  0  0  0
    7.3877    2.1306   22.1905 C   0  0  0  0  0  0  0  0  0  0  0  0
    7.7484    2.0581   21.1712 H   0  0  0  0  0  0  0  0  0  0  0  0
    5.3927    0.6801   20.1425 C   0  0  0  0  0  0  0  0  0  0  0  0
    4.9341    0.6636   21.1322 H   0  0  0  0  0  0  0  0  0  0  0  0
    4.7754    1.3219   19.0723 C   0  0  0  0  0  0  0  0  0  0  0  0
    3.8392    1.8528   19.2030 H   0  0  0  0  0  0  0  0  0  0  0  0
  1  2  1  0
  2  3  2  0
  3  4  1  0
  4  5  1  0
  4  6  2  0
  6  7  1  0
  7  8  2  0
  8  9  1  0
  9 10  2  0
 10 11  1  0
 10 12  1  0
 12 13  1  0
 13 14  2  0
 14 15  1  0
 15 16  2  0
 16 17  1  0
 16 18  1  0
 18 19  1  0
 18 20  2  0
 20 21  1  0
 20 22  1  0
 22 23  1  0
 22 24  2  0
 24 25  1  0
 25 26  1  0
 25 27  2  0
 27 28  1  0
  6 29  1  0
 29 30  1  0
 29 31  2  0
 31 32  1  0
 31  2  1  0
 12  7  1  0
 27 13  1  0
 24 15  1  0
M  END
>  <cnnaffinity>  (1) 
-5.17053

>  <filename>  (1) 
c1cncc(-c2nncn2-c2ccc3ccccc3n2)c1

$$$$
