
     RDKit          3D

 34 37  0  0  0  0  0  0  0  0999 V2000
    4.9136    1.7805   16.9945 H   0  0  0  0  0  0  0  0  0  0  0  0
    5.4010    1.2951   17.8346 C   0  0  0  0  0  0  0  0  0  0  0  0
    6.5633    0.6776   17.5679 N   0  0  0  0  0  0  0  0  0  0  0  0
    7.1716    0.0732   18.5936 C   0  0  0  0  0  0  0  0  0  0  0  0
    8.1128   -0.4269   18.3723 H   0  0  0  0  0  0  0  0  0  0  0  0
    6.6549    0.0167   19.8966 C   0  0  0  0  0  0  0  0  0  0  0  0
    7.3795   -0.6974   20.9627 C   0  0  0  0  0  0  0  0  0  0  0  0
    8.7564   -0.5513   21.1141 C   0  0  0  0  0  0  0  0  0  0  0  0
    9.3216    0.1072   20.4670 H   0  0  0  0  0  0  0  0  0  0  0  0
    9.3739   -1.2312   22.1604 C   0  0  0  0  0  0  0  0  0  0  0  0
   10.4401   -1.1175   22.3153 H   0  0  0  0  0  0  0  0  0  0  0  0
    8.7316   -2.0211   23.0273 N   0  0  0  0  0  0  0  0  0  0  0  0
    7.4038   -2.1939   22.8678 C   0  0  0  0  0  0  0  0  0  0  0  0
    6.7011   -3.0840   23.8404 C   0  0  0  0  0  0  0  0  0  0  0  0
    6.9688   -3.0086   25.2144 C   0  0  0  0  0  0  0  0  0  0  0  0
    7.7148   -2.2996   25.5650 H   0  0  0  0  0  0  0  0  0  0  0  0
    6.2929   -3.8323   26.1441 C   0  0  0  0  0  0  0  0  0  0  0  0
    6.5371   -3.7489   27.1995 H   0  0  0  0  0  0  0  0  0  0  0  0
    5.3359   -4.7616   25.7367 C   0  0  0  0  0  0  0  0  0  0  0  0
    4.8171   -5.4132   26.4417 H   0  0  0  0  0  0  0  0  0  0  0  0
    5.0726   -4.8395   24.3608 C   0  0  0  0  0  0  0  0  0  0  0  0
    5.7256   -4.0245   23.4031 C   0  0  0  0  0  0  0  0  0  0  0  0
    5.2219   -4.4365   22.1212 C   0  0  0  0  0  0  0  0  0  0  0  0
    5.5646   -4.0361   21.1797 H   0  0  0  0  0  0  0  0  0  0  0  0
    4.3169   -5.4412   22.3261 C   0  0  0  0  0  0  0  0  0  0  0  0
    3.7380   -6.0179   21.6080 H   0  0  0  0  0  0  0  0  0  0  0  0
    4.2214   -5.6762   23.6816 N   0  0  0  0  0  0  0  0  0  0  0  0
    3.6482   -6.3673   24.1336 H   0  0  0  0  0  0  0  0  0  0  0  0
    6.7029   -1.5319   21.8513 C   0  0  0  0  0  0  0  0  0  0  0  0
    5.6332   -1.6674   21.7527 H   0  0  0  0  0  0  0  0  0  0  0  0
    5.4316    0.6514   20.1507 C   0  0  0  0  0  0  0  0  0  0  0  0
    5.0135    0.6329   21.1620 H   0  0  0  0  0  0  0  0  0  0  0  0
    4.8022    1.3172   19.1021 C   0  0  0  0  0  0  0  0  0  0  0  0
    3.8685    1.8473   19.2587 H   0  0  0  0  0  0  0  0  0  0  0  0
  1  2  1  0
  2  3  2  0
  3  4  1  0
  4  5  1  0
  4  6  2  0
  6  7  1  0
  7  8  2  0
  8  9  1  0
  8 10  1  0
 10 11  1  0
 10 12  2  0
 12 13  1  0
 13 14  1  0
 14 15  2  0
 15 16  1  0
 15 17  1  0
 17 18  1  0
 17 19  2  0
 19 20  1  0
 19 21  1  0
 21 22  2  0
 22 23  1  0
 23 24  1  0
 23 25  2  0
 25 26  1  0
 25 27  1  0
 27 28  1  0
 13 29  2  0
 29 30  1  0
  6 31  1  0
 31 32  1  0
 31 33  2  0
 33 34  1  0
 33  2  1  0
 29  7  1  0
 22 14  1  0
 27 21  1  0
M  END
>  <cnnaffinity>  (1) 
-5.29847

>  <filename>  (1) 
c1cncc(-c2ccnc(-c3cccc4[nH]ccc34)c2)c1

$$$$
