
     RDKit          3D

 30 32  0  0  0  0  0  0  0  0999 V2000
    4.9825    1.8094   16.9962 H   0  0  0  0  0  0  0  0  0  0  0  0
    5.4170    1.2607   17.8307 C   0  0  0  0  0  0  0  0  0  0  0  0
    6.5608    0.6070   17.5802 N   0  0  0  0  0  0  0  0  0  0  0  0
    7.1294   -0.0422   18.6021 C   0  0  0  0  0  0  0  0  0  0  0  0
    8.0782   -0.5328   18.3849 H   0  0  0  0  0  0  0  0  0  0  0  0
    6.6162   -0.0883   19.9069 C   0  0  0  0  0  0  0  0  0  0  0  0
    7.3717   -0.8442   20.9754 C   0  0  0  0  0  0  0  0  0  0  0  0
    7.0137   -2.2693   20.8360 N   0  0  0  0  0  0  0  0  0  0  0  0
    6.0395   -2.3594   20.5680 H   0  0  0  0  0  0  0  0  0  0  0  0
    6.9974   -3.0591   21.9698 N   0  0  0  0  0  0  0  0  0  0  0  0
    5.8572   -3.6790   22.2295 N   0  0  0  0  0  0  0  0  0  0  0  0
    6.1295   -4.4361   23.2816 C   0  0  0  0  0  0  0  0  0  0  0  0
    5.3677   -5.0867   23.6988 H   0  0  0  0  0  0  0  0  0  0  0  0
    7.4714   -4.3142   23.6819 C   0  0  0  0  0  0  0  0  0  0  0  0
    7.9722   -4.8505   24.4765 H   0  0  0  0  0  0  0  0  0  0  0  0
    8.0057   -3.4068   22.7872 C   0  0  0  0  0  0  0  0  0  0  0  0
    8.9692   -2.9460   22.6478 H   0  0  0  0  0  0  0  0  0  0  0  0
    7.3149   -0.2254   22.4010 C   0  0  0  0  0  0  0  0  0  0  0  0
    6.8542    0.7629   22.3879 H   0  0  0  0  0  0  0  0  0  0  0  0
    6.8296   -0.8420   23.1635 H   0  0  0  0  0  0  0  0  0  0  0  0
    8.8588   -0.1208   22.4328 C   0  0  0  0  0  0  0  0  0  0  0  0
    9.3439   -0.7437   23.1903 H   0  0  0  0  0  0  0  0  0  0  0  0
    9.2460    0.8992   22.5306 H   0  0  0  0  0  0  0  0  0  0  0  0
    8.9190   -0.6776   20.9937 C   0  0  0  0  0  0  0  0  0  0  0  0
    9.3007    0.0372   20.2621 H   0  0  0  0  0  0  0  0  0  0  0  0
    9.4577   -1.6222   20.8731 H   0  0  0  0  0  0  0  0  0  0  0  0
    5.4031    0.5824   20.1405 C   0  0  0  0  0  0  0  0  0  0  0  0
    4.9557    0.5874   21.1365 H   0  0  0  0  0  0  0  0  0  0  0  0
    4.8019    1.2703   19.0854 C   0  0  0  0  0  0  0  0  0  0  0  0
    3.8875    1.8340   19.2292 H   0  0  0  0  0  0  0  0  0  0  0  0
  1  2  1  0
  2  3  2  0
  3  4  1  0
  4  5  1  0
  4  6  2  0
  6  7  1  0
  7  8  1  0
  8  9  1  0
  8 10  1  0
 10 11  1  0
 11 12  2  0
 12 13  1  0
 12 14  1  0
 14 15  1  0
 14 16  2  0
 16 17  1  0
  7 18  1  0
 18 19  1  0
 18 20  1  0
 18 21  1  0
 21 22  1  0
 21 23  1  0
 21 24  1  0
 24 25  1  0
 24 26  1  0
  6 27  1  0
 27 28  1  0
 27 29  2  0
 29 30  1  0
 29  2  1  0
 24  7  1  0
 16 10  1  0
M  END
>  <cnnaffinity>  (1) 
-4.79809

>  <filename>  (1) 
c1cncc(C2(Nn3cccn3)CCC2)c1

$$$$
