
     RDKit          3D

 29 31  0  0  0  0  0  0  0  0999 V2000
    4.9802    1.7800   17.0161 H   0  0  0  0  0  0  0  0  0  0  0  0
    5.4281    1.2730   17.8657 C   0  0  0  0  0  0  0  0  0  0  0  0
    6.5848    0.6367   17.6320 N   0  0  0  0  0  0  0  0  0  0  0  0
    7.1630    0.0166   18.6615 C   0  0  0  0  0  0  0  0  0  0  0  0
    8.1073   -0.4760   18.4290 H   0  0  0  0  0  0  0  0  0  0  0  0
    6.6278   -0.0261   19.9598 C   0  0  0  0  0  0  0  0  0  0  0  0
    7.3712   -0.7348   21.0161 C   0  0  0  0  0  0  0  0  0  0  0  0
    6.7104   -1.1523   22.1484 N   0  0  0  0  0  0  0  0  0  0  0  0
    7.5439   -1.7249   22.9645 C   0  0  0  0  0  0  0  0  0  0  0  0
    7.0700   -2.1744   24.1421 N   0  0  0  0  0  0  0  0  0  0  0  0
    6.0817   -1.9887   24.1287 H   0  0  0  0  0  0  0  0  0  0  0  0
    7.8084   -2.8819   25.1671 C   0  0  0  0  0  0  0  0  0  0  0  0
    8.7408   -2.3391   25.3735 H   0  0  0  0  0  0  0  0  0  0  0  0
    7.2244   -2.8459   26.0947 H   0  0  0  0  0  0  0  0  0  0  0  0
    8.1363   -4.3140   24.7793 C   0  0  0  0  0  0  0  0  0  0  0  0
    7.3200   -4.8200   24.2729 H   0  0  0  0  0  0  0  0  0  0  0  0
    9.0474   -5.2018   25.5878 C   0  0  0  0  0  0  0  0  0  0  0  0
    8.8083   -6.2567   25.7097 H   0  0  0  0  0  0  0  0  0  0  0  0
    9.5089   -4.7730   26.4735 H   0  0  0  0  0  0  0  0  0  0  0  0
    9.4851   -4.7036   24.2406 C   0  0  0  0  0  0  0  0  0  0  0  0
   10.2871   -3.9661   24.1900 H   0  0  0  0  0  0  0  0  0  0  0  0
    9.4349   -5.3708   23.3933 H   0  0  0  0  0  0  0  0  0  0  0  0
    9.1929   -1.8044   22.4258 S   0  0  0  0  0  0  0  0  0  0  0  0
    8.7081   -0.9917   20.9713 C   0  0  0  0  0  0  0  0  0  0  0  0
    9.4389   -0.7202   20.2224 H   0  0  0  0  0  0  0  0  0  0  0  0
    5.4079    0.6403   20.1850 C   0  0  0  0  0  0  0  0  0  0  0  0
    4.9596    0.6436   21.1805 H   0  0  0  0  0  0  0  0  0  0  0  0
    4.8030    1.3004   19.1182 C   0  0  0  0  0  0  0  0  0  0  0  0
    3.8705    1.8460   19.2434 H   0  0  0  0  0  0  0  0  0  0  0  0
  1  2  1  0
  2  3  2  0
  3  4  1  0
  4  5  1  0
  4  6  2  0
  6  7  1  0
  7  8  1  0
  8  9  2  0
  9 10  1  0
 10 11  1  0
 10 12  1  0
 12 13  1  0
 12 14  1  0
 12 15  1  0
 15 16  1  0
 15 17  1  0
 17 18  1  0
 17 19  1  0
 17 20  1  0
 20 21  1  0
 20 22  1  0
  9 23  1  0
 23 24  1  0
 24 25  1  0
  6 26  1  0
 26 27  1  0
 26 28  2  0
 28 29  1  0
 28  2  1  0
 24  7  2  0
 20 15  1  0
M  END
>  <cnnaffinity>  (1) 
-4.98097

>  <filename>  (1) 
c1cncc(-c2csc(NCC3CC3)n2)c1

$$$$
