
     RDKit          3D

 31 34  0  0  0  0  0  0  0  0999 V2000
    5.3218    2.7728   15.6092 H   0  0  0  0  0  0  0  0  0  0  0  0
    5.5860    2.2473   16.5198 C   0  0  0  0  0  0  0  0  0  0  0  0
    6.6619    1.4489   16.4704 N   0  0  0  0  0  0  0  0  0  0  0  0
    6.9675    0.7831   17.5908 C   0  0  0  0  0  0  0  0  0  0  0  0
    7.8389    0.1330   17.5383 H   0  0  0  0  0  0  0  0  0  0  0  0
    6.2262    0.8537   18.7821 C   0  0  0  0  0  0  0  0  0  0  0  0
    6.6703    0.1068   19.9607 C   0  0  0  0  0  0  0  0  0  0  0  0
    5.5555   -0.5836   21.0809 S   0  0  0  0  0  0  0  0  0  0  0  0
    6.8288   -1.1455   22.0807 C   0  0  0  0  0  0  0  0  0  0  0  0
    6.5892   -1.6184   23.0214 H   0  0  0  0  0  0  0  0  0  0  0  0
    8.0663   -0.8373   21.5822 C   0  0  0  0  0  0  0  0  0  0  0  0
    9.3386   -1.2918   22.1552 C   0  0  0  0  0  0  0  0  0  0  0  0
    9.5019   -2.5580   22.6201 C   0  0  0  0  0  0  0  0  0  0  0  0
    8.7393   -3.3197   22.7266 H   0  0  0  0  0  0  0  0  0  0  0  0
   11.1349   -2.9697   22.9663 S   0  0  0  0  0  0  0  0  0  0  0  0
   11.6899   -1.3985   22.4635 C   0  0  0  0  0  0  0  0  0  0  0  0
   13.0220   -0.9374   22.4359 C   0  0  0  0  0  0  0  0  0  0  0  0
   13.8576   -1.6163   22.5880 H   0  0  0  0  0  0  0  0  0  0  0  0
   13.2488    0.4116   22.2080 C   0  0  0  0  0  0  0  0  0  0  0  0
   14.2695    0.7867   22.2072 H   0  0  0  0  0  0  0  0  0  0  0  0
   12.1729    1.2849   21.9336 C   0  0  0  0  0  0  0  0  0  0  0  0
   12.3714    2.3412   21.7668 H   0  0  0  0  0  0  0  0  0  0  0  0
   10.8701    0.8091   21.8629 C   0  0  0  0  0  0  0  0  0  0  0  0
   10.0562    1.4970   21.6363 H   0  0  0  0  0  0  0  0  0  0  0  0
   10.6065   -0.5603   22.1197 C   0  0  0  0  0  0  0  0  0  0  0  0
    7.9543   -0.1166   20.3514 C   0  0  0  0  0  0  0  0  0  0  0  0
    8.8126    0.2300   19.7884 H   0  0  0  0  0  0  0  0  0  0  0  0
    5.0913    1.6765   18.7969 C   0  0  0  0  0  0  0  0  0  0  0  0
    4.4884    1.7672   19.6980 H   0  0  0  0  0  0  0  0  0  0  0  0
    4.7793    2.3936   17.6494 C   0  0  0  0  0  0  0  0  0  0  0  0
    3.9293    3.0657   17.6189 H   0  0  0  0  0  0  0  0  0  0  0  0
  1  2  1  0
  2  3  2  0
  3  4  1  0
  4  5  1  0
  4  6  2  0
  6  7  1  0
  7  8  1  0
  8  9  1  0
  9 10  1  0
  9 11  2  0
 11 12  1  0
 12 13  2  0
 13 14  1  0
 13 15  1  0
 15 16  1  0
 16 17  2  0
 17 18  1  0
 17 19  1  0
 19 20  1  0
 19 21  2  0
 21 22  1  0
 21 23  1  0
 23 24  1  0
 23 25  2  0
 11 26  1  0
 26 27  1  0
  6 28  1  0
 28 29  1  0
 28 30  2  0
 30 31  1  0
 30  2  1  0
 26  7  2  0
 25 12  1  0
 25 16  1  0
M  END
>  <cnnaffinity>  (1) 
-5.71139

>  <filename>  (1) 
c1cncc(-c2cc(-c3csc4ccccc34)cs2)c1

$$$$
