
     RDKit          3D

 43 45  0  0  0  0  0  0  0  0999 V2000
    4.9092    1.7866   16.9900 H   0  0  0  0  0  0  0  0  0  0  0  0
    5.3938    1.3001   17.8318 C   0  0  0  0  0  0  0  0  0  0  0  0
    6.5586    0.6859   17.5662 N   0  0  0  0  0  0  0  0  0  0  0  0
    7.1750    0.0795   18.5828 C   0  0  0  0  0  0  0  0  0  0  0  0
    8.1151   -0.4253   18.3698 H   0  0  0  0  0  0  0  0  0  0  0  0
    6.6739    0.0039   19.9029 C   0  0  0  0  0  0  0  0  0  0  0  0
    7.3843   -0.7448   20.8702 N   0  0  0  0  0  0  0  0  0  0  0  0
    6.6444   -1.5612   21.8314 C   0  0  0  0  0  0  0  0  0  0  0  0
    5.7932   -2.0088   21.3042 H   0  0  0  0  0  0  0  0  0  0  0  0
    6.2359   -0.9985   22.6920 H   0  0  0  0  0  0  0  0  0  0  0  0
    7.5593   -2.6725   22.3506 C   0  0  0  0  0  0  0  0  0  0  0  0
    7.7779   -3.3702   21.5283 H   0  0  0  0  0  0  0  0  0  0  0  0
    7.0686   -3.2247   23.1558 H   0  0  0  0  0  0  0  0  0  0  0  0
    8.7760   -2.1545   22.8694 O   0  0  0  0  0  0  0  0  0  0  0  0
    9.4873   -1.4585   21.8518 C   0  0  0  0  0  0  0  0  0  0  0  0
    9.6917   -2.1410   21.0133 H   0  0  0  0  0  0  0  0  0  0  0  0
   10.4456   -1.1508   22.2802 H   0  0  0  0  0  0  0  0  0  0  0  0
    8.6984   -0.2505   21.3239 C   0  0  2  0  0  0  0  0  0  0  0  0
    9.2114    0.1257   20.4306 H   0  0  0  0  0  0  0  0  0  0  0  0
    8.6175    0.9132   22.3371 C   0  0  0  0  0  0  0  0  0  0  0  0
    7.8891    1.6363   21.9434 H   0  0  0  0  0  0  0  0  0  0  0  0
    8.1786    0.5249   23.2640 H   0  0  0  0  0  0  0  0  0  0  0  0
    9.9812    1.6035   22.6217 C   0  0  0  0  0  0  0  0  0  0  0  0
   10.7191    1.2204   21.8998 H   0  0  0  0  0  0  0  0  0  0  0  0
   10.5190    1.3063   24.0388 C   0  0  0  0  0  0  0  0  0  0  0  0
   11.5776    1.5949   24.0809 H   0  0  0  0  0  0  0  0  0  0  0  0
   10.4816    0.2244   24.2271 H   0  0  0  0  0  0  0  0  0  0  0  0
    9.7615    2.0661   25.1400 C   0  0  0  0  0  0  0  0  0  0  0  0
   10.2262    1.8690   26.1125 H   0  0  0  0  0  0  0  0  0  0  0  0
    8.7359    1.6783   25.2107 H   0  0  0  0  0  0  0  0  0  0  0  0
    9.7033    3.5757   24.8591 C   0  0  0  0  0  0  0  0  0  0  0  0
   10.7164    3.9960   24.8675 H   0  0  0  0  0  0  0  0  0  0  0  0
    9.1310    4.0881   25.6410 H   0  0  0  0  0  0  0  0  0  0  0  0
    9.1251    3.8734   23.4762 C   0  0  0  0  0  0  0  0  0  0  0  0
    8.0734    3.5653   23.4422 H   0  0  0  0  0  0  0  0  0  0  0  0
    9.1412    4.9532   23.2797 H   0  0  0  0  0  0  0  0  0  0  0  0
    9.9077    3.1262   22.3906 C   0  0  0  0  0  0  0  0  0  0  0  0
    9.4275    3.2781   21.4218 H   0  0  0  0  0  0  0  0  0  0  0  0
   10.9268    3.5371   22.3340 H   0  0  0  0  0  0  0  0  0  0  0  0
    5.4457    0.6487   20.1583 C   0  0  0  0  0  0  0  0  0  0  0  0
    5.0216    0.6192   21.1670 H   0  0  0  0  0  0  0  0  0  0  0  0
    4.8102    1.3120   19.1046 C   0  0  0  0  0  0  0  0  0  0  0  0
    3.8749    1.8415   19.2587 H   0  0  0  0  0  0  0  0  0  0  0  0
  1  2  1  0
  2  3  2  0
  3  4  1  0
  4  5  1  0
  4  6  2  0
  6  7  1  0
  7  8  1  0
  8  9  1  0
  8 10  1  0
  8 11  1  0
 11 12  1  0
 11 13  1  0
 11 14  1  0
 14 15  1  0
 15 16  1  0
 15 17  1  0
 15 18  1  0
 18 19  1  6
 18 20  1  0
 20 21  1  0
 20 22  1  0
 20 23  1  0
 23 24  1  0
 23 25  1  0
 25 26  1  0
 25 27  1  0
 25 28  1  0
 28 29  1  0
 28 30  1  0
 28 31  1  0
 31 32  1  0
 31 33  1  0
 31 34  1  0
 34 35  1  0
 34 36  1  0
 34 37  1  0
 37 38  1  0
 37 39  1  0
  6 40  1  0
 40 41  1  0
 40 42  2  0
 42 43  1  0
 42  2  1  0
 18  7  1  0
 37 23  1  0
M  END
>  <cnnaffinity>  (1) 
-5.18805

>  <filename>  (1) 
c1cncc(N2CCOC[C@@H]2CC2CCCCC2)c1

$$$$
