
     RDKit          3D

 38 41  0  0  0  0  0  0  0  0999 V2000
    8.7790   -3.6529   21.3744 H   0  0  0  0  0  0  0  0  0  0  0  0
    8.4442   -2.6500   21.6217 C   0  0  0  0  0  0  0  0  0  0  0  0
    7.8530   -1.9557   20.6267 N   0  0  0  0  0  0  0  0  0  0  0  0
    7.4108   -0.7374   20.9334 C   0  0  0  0  0  0  0  0  0  0  0  0
    6.6520   -0.0179   19.8830 C   0  0  0  0  0  0  0  0  0  0  0  0
    7.1658    0.0334   18.5801 C   0  0  0  0  0  0  0  0  0  0  0  0
    8.1174   -0.4390   18.3480 H   0  0  0  0  0  0  0  0  0  0  0  0
    6.5685    0.6804   17.5760 N   0  0  0  0  0  0  0  0  0  0  0  0
    5.4047    1.2944   17.8394 C   0  0  0  0  0  0  0  0  0  0  0  0
    4.9258    1.7872   16.9968 H   0  0  0  0  0  0  0  0  0  0  0  0
    4.8096    1.3046   19.1037 C   0  0  0  0  0  0  0  0  0  0  0  0
    3.8813    1.8359   19.2522 H   0  0  0  0  0  0  0  0  0  0  0  0
    5.4427    0.6438   20.1519 C   0  0  0  0  0  0  0  0  0  0  0  0
    5.0141    0.6385   21.1571 H   0  0  0  0  0  0  0  0  0  0  0  0
    7.6166   -0.1692   22.2725 C   0  0  0  0  0  0  0  0  0  0  0  0
    7.2110    1.1327   22.5471 N   0  0  0  0  0  0  0  0  0  0  0  0
    6.5602    1.4694   23.8028 C   0  0  0  0  0  0  0  0  0  0  0  0
    6.2422    0.5592   24.3164 H   0  0  0  0  0  0  0  0  0  0  0  0
    5.6341    2.0260   23.5778 H   0  0  0  0  0  0  0  0  0  0  0  0
    7.4148    2.3222   24.7296 C   0  0  0  0  0  0  0  0  0  0  0  0
    7.0601    2.4538   26.0813 C   0  0  0  0  0  0  0  0  0  0  0  0
    6.1902    1.9212   26.4642 H   0  0  0  0  0  0  0  0  0  0  0  0
    7.8169    3.2565   26.9370 C   0  0  0  0  0  0  0  0  0  0  0  0
    7.5419    3.3408   27.9872 H   0  0  0  0  0  0  0  0  0  0  0  0
    8.9244    3.9473   26.4363 C   0  0  0  0  0  0  0  0  0  0  0  0
    9.5220    4.5861   27.0800 H   0  0  0  0  0  0  0  0  0  0  0  0
    9.2821    3.8172   25.0931 C   0  0  0  0  0  0  0  0  0  0  0  0
   10.1543    4.3381   24.7015 H   0  0  0  0  0  0  0  0  0  0  0  0
    8.5330    3.0121   24.2270 C   0  0  0  0  0  0  0  0  0  0  0  0
    8.9671    2.8482   22.7753 C   0  0  0  0  0  0  0  0  0  0  0  0
    9.3161    3.8071   22.3788 H   0  0  0  0  0  0  0  0  0  0  0  0
    9.8286    2.1727   22.7384 H   0  0  0  0  0  0  0  0  0  0  0  0
    7.8541    2.2750   21.8890 C   0  0  0  0  0  0  0  0  0  0  0  0
    8.2374    1.9827   20.9036 H   0  0  0  0  0  0  0  0  0  0  0  0
    7.0950    3.0496   21.7057 H   0  0  0  0  0  0  0  0  0  0  0  0
    8.1800   -0.8870   23.2524 N   0  0  0  0  0  0  0  0  0  0  0  0
    8.6101   -2.1169   22.8997 C   0  0  0  0  0  0  0  0  0  0  0  0
    9.1060   -2.7006   23.6665 H   0  0  0  0  0  0  0  0  0  0  0  0
  1  2  1  0
  2  3  2  0
  3  4  1  0
  4  5  1  0
  5  6  2  0
  6  7  1  0
  6  8  1  0
  8  9  2  0
  9 10  1  0
  9 11  1  0
 11 12  1  0
 11 13  2  0
 13 14  1  0
  4 15  2  0
 15 16  1  0
 16 17  1  0
 17 18  1  0
 17 19  1  0
 17 20  1  0
 20 21  2  0
 21 22  1  0
 21 23  1  0
 23 24  1  0
 23 25  2  0
 25 26  1  0
 25 27  1  0
 27 28  1  0
 27 29  2  0
 29 30  1  0
 30 31  1  0
 30 32  1  0
 30 33  1  0
 33 34  1  0
 33 35  1  0
 15 36  1  0
 36 37  2  0
 37 38  1  0
 37  2  1  0
 13  5  1  0
 33 16  1  0
 29 20  1  0
M  END
>  <cnnaffinity>  (1) 
-5.34165

>  <filename>  (1) 
c1cncc(-c2nccnc2N2CCc3ccccc3C2)c1

$$$$
