
     RDKit          3D

 22 23  0  0  0  0  0  0  0  0999 V2000
    4.9308    1.8513   17.0064 H   0  0  0  0  0  0  0  0  0  0  0  0
    5.4146    1.3312   17.8287 C   0  0  0  0  0  0  0  0  0  0  0  0
    6.5753    0.7136   17.5498 N   0  0  0  0  0  0  0  0  0  0  0  0
    7.1872    0.0366   18.5395 C   0  0  0  0  0  0  0  0  0  0  0  0
    8.1357   -0.4405   18.2850 H   0  0  0  0  0  0  0  0  0  0  0  0
    6.6675   -0.0812   19.8579 C   0  0  0  0  0  0  0  0  0  0  0  0
    7.2065   -0.8532   20.9100 N   0  0  0  0  0  0  0  0  0  0  0  0
    6.7507   -0.6903   21.7994 H   0  0  0  0  0  0  0  0  0  0  0  0
    8.7880   -1.4357   21.1256 S   0  0  0  0  0  0  0  0  0  0  0  0
    9.5764    0.0415   21.7497 C   0  0  0  0  0  0  0  0  0  0  0  0
    9.8493    1.0442   20.8070 C   0  0  0  0  0  0  0  0  0  0  0  0
    9.6185    0.9111   19.7582 H   0  0  0  0  0  0  0  0  0  0  0  0
   10.4474    2.1936   21.1195 N   0  0  0  0  0  0  0  0  0  0  0  0
   10.7589    2.4645   22.3875 N   0  0  0  0  0  0  0  0  0  0  0  0
   10.4621    1.5780   23.3425 C   0  0  0  0  0  0  0  0  0  0  0  0
   10.7021    1.9021   24.3495 H   0  0  0  0  0  0  0  0  0  0  0  0
    9.8827    0.3208   23.0798 C   0  0  0  0  0  0  0  0  0  0  0  0
    9.6975   -0.3616   23.9036 H   0  0  0  0  0  0  0  0  0  0  0  0
    5.4642    0.5997   20.1173 C   0  0  0  0  0  0  0  0  0  0  0  0
    5.0543    0.5850   21.1268 H   0  0  0  0  0  0  0  0  0  0  0  0
    4.8257    1.3053   19.0966 C   0  0  0  0  0  0  0  0  0  0  0  0
    3.8928    1.8341   19.2673 H   0  0  0  0  0  0  0  0  0  0  0  0
  1  2  1  0
  2  3  2  0
  3  4  1  0
  4  5  1  0
  4  6  2  0
  6  7  1  0
  7  8  1  0
  7  9  1  0
  9 10  1  0
 10 11  2  0
 11 12  1  0
 11 13  1  0
 13 14  2  0
 14 15  1  0
 15 16  1  0
 15 17  2  0
 17 18  1  0
  6 19  1  0
 19 20  1  0
 19 21  2  0
 21 22  1  0
 21  2  1  0
 17 10  1  0
M  END
>  <cnnaffinity>  (1) 
-4.80617

>  <filename>  (1) 
c1cncc(NSc2ccnnc2)c1

$$$$
