
     RDKit          3D

 34 38  0  0  0  0  0  0  0  0999 V2000
    4.9220    1.7731   17.0028 H   0  0  0  0  0  0  0  0  0  0  0  0
    5.4075    1.2870   17.8477 C   0  0  0  0  0  0  0  0  0  0  0  0
    6.5725    0.6695   17.5954 N   0  0  0  0  0  0  0  0  0  0  0  0
    7.1782    0.0555   18.6153 C   0  0  0  0  0  0  0  0  0  0  0  0
    8.1241   -0.4289   18.3747 H   0  0  0  0  0  0  0  0  0  0  0  0
    6.6539    0.0080   19.9190 C   0  0  0  0  0  0  0  0  0  0  0  0
    7.3519   -0.6931   20.9996 C   0  0  0  0  0  0  0  0  0  0  0  0
    6.8738   -0.7471   22.2038 N   0  0  0  0  0  0  0  0  0  0  0  0
    7.7267   -1.4481   22.9812 N   0  0  0  0  0  0  0  0  0  0  0  0
    7.7126   -1.8487   24.3040 C   0  0  0  0  0  0  0  0  0  0  0  0
    6.6959   -1.4946   25.2846 C   0  0  0  0  0  0  0  0  0  0  0  0
    6.0738   -0.2364   25.2989 C   0  0  0  0  0  0  0  0  0  0  0  0
    6.3381    0.4809   24.5292 H   0  0  0  0  0  0  0  0  0  0  0  0
    5.1184    0.0917   26.2845 C   0  0  0  0  0  0  0  0  0  0  0  0
    4.6532    1.0714   26.2637 H   0  0  0  0  0  0  0  0  0  0  0  0
    4.7548   -0.8153   27.2803 C   0  0  0  0  0  0  0  0  0  0  0  0
    4.0171   -0.5821   28.0456 H   0  0  0  0  0  0  0  0  0  0  0  0
    5.3781   -2.0713   27.2599 C   0  0  0  0  0  0  0  0  0  0  0  0
    6.3403   -2.4375   26.2901 C   0  0  0  0  0  0  0  0  0  0  0  0
    6.6989   -3.8004   26.5735 C   0  0  0  0  0  0  0  0  0  0  0  0
    7.3802   -4.3955   25.9842 H   0  0  0  0  0  0  0  0  0  0  0  0
    5.9877   -4.2021   27.6665 C   0  0  0  0  0  0  0  0  0  0  0  0
    5.9863   -5.1656   28.1675 H   0  0  0  0  0  0  0  0  0  0  0  0
    5.1949   -3.1548   28.0840 N   0  0  0  0  0  0  0  0  0  0  0  0
    4.5536   -3.1590   28.8570 H   0  0  0  0  0  0  0  0  0  0  0  0
    8.8784   -2.5744   24.4179 C   0  0  0  0  0  0  0  0  0  0  0  0
    9.2649   -3.0372   25.3144 H   0  0  0  0  0  0  0  0  0  0  0  0
    9.5868   -2.6450   23.2468 N   0  0  0  0  0  0  0  0  0  0  0  0
    8.8530   -1.9576   22.4120 C   0  0  0  0  0  0  0  0  0  0  0  0
    8.9027   -1.5153   20.7403 S   0  0  0  0  0  0  0  0  0  0  0  0
    5.4314    0.6556   20.1677 C   0  0  0  0  0  0  0  0  0  0  0  0
    5.0024    0.6326   21.1727 H   0  0  0  0  0  0  0  0  0  0  0  0
    4.8044    1.3101   19.1106 C   0  0  0  0  0  0  0  0  0  0  0  0
    3.8723    1.8447   19.2603 H   0  0  0  0  0  0  0  0  0  0  0  0
  1  2  1  0
  2  3  2  0
  3  4  1  0
  4  5  1  0
  4  6  2  0
  6  7  1  0
  7  8  2  0
  8  9  1  0
  9 10  1  0
 10 11  1  0
 11 12  2  0
 12 13  1  0
 12 14  1  0
 14 15  1  0
 14 16  2  0
 16 17  1  0
 16 18  1  0
 18 19  2  0
 19 20  1  0
 20 21  1  0
 20 22  2  0
 22 23  1  0
 22 24  1  0
 24 25  1  0
 10 26  2  0
 26 27  1  0
 26 28  1  0
 28 29  2  0
 29 30  1  0
  6 31  1  0
 31 32  1  0
 31 33  2  0
 33 34  1  0
 33  2  1  0
 30  7  1  0
 29  9  1  0
 19 11  1  0
 24 18  1  0
M  END
>  <cnnaffinity>  (1) 
-5.50291

>  <filename>  (1) 
c1cncc(-c2nn3c(-c4cccc5[nH]ccc45)cnc3s2)c1

$$$$
