
     RDKit          3D

 38 42  0  0  0  0  0  0  0  0999 V2000
    5.0332    1.8314   16.8947 H   0  0  0  0  0  0  0  0  0  0  0  0
    5.3940    1.3086   17.7771 C   0  0  0  0  0  0  0  0  0  0  0  0
    6.5379    0.6217   17.6319 N   0  0  0  0  0  0  0  0  0  0  0  0
    7.0110   -0.0001   18.7171 C   0  0  0  0  0  0  0  0  0  0  0  0
    7.9335   -0.5609   18.5793 H   0  0  0  0  0  0  0  0  0  0  0  0
    6.3931    0.0039   19.9820 C   0  0  0  0  0  0  0  0  0  0  0  0
    7.1353   -0.6116   21.0980 C   0  0  0  0  0  0  0  0  0  0  0  0
    8.4970   -0.6241   21.3214 C   0  0  0  0  0  0  0  0  0  0  0  0
    8.6826   -1.2418   22.5491 C   0  0  0  0  0  0  0  0  0  0  0  0
    7.5504   -1.6519   23.0891 N   0  0  0  0  0  0  0  0  0  0  0  0
    6.6123   -1.2409   22.1927 N   0  0  0  0  0  0  0  0  0  0  0  0
    5.6567   -1.5454   22.3261 H   0  0  0  0  0  0  0  0  0  0  0  0
   10.1227   -1.3177   22.9547 C   0  0  0  0  0  0  0  0  0  0  0  0
   10.2638   -0.8857   23.9514 H   0  0  0  0  0  0  0  0  0  0  0  0
   10.4752   -2.3525   23.0038 H   0  0  0  0  0  0  0  0  0  0  0  0
   10.8598   -0.5134   21.8149 C   0  0  2  0  0  0  0  0  0  0  0  0
   11.6648   -1.1215   21.3952 H   0  0  0  0  0  0  0  0  0  0  0  0
   11.4483    0.7654   22.3385 C   0  0  0  0  0  0  0  0  0  0  0  0
   13.1593    1.0941   22.3343 S   0  0  0  0  0  0  0  0  0  0  0  0
   12.8820    2.7210   22.8795 C   0  0  0  0  0  0  0  0  0  0  0  0
   13.8292    3.7470   22.9402 C   0  0  0  0  0  0  0  0  0  0  0  0
   14.8407    3.5842   22.5863 H   0  0  0  0  0  0  0  0  0  0  0  0
   13.4205    4.9756   23.4329 C   0  0  0  0  0  0  0  0  0  0  0  0
   14.0979    5.8177   23.3880 H   0  0  0  0  0  0  0  0  0  0  0  0
   12.1150    5.1656   23.9293 C   0  0  0  0  0  0  0  0  0  0  0  0
   11.8696    6.1146   24.3965 H   0  0  0  0  0  0  0  0  0  0  0  0
   11.1578    4.1702   23.7955 C   0  0  0  0  0  0  0  0  0  0  0  0
   10.1312    4.3428   24.1113 H   0  0  0  0  0  0  0  0  0  0  0  0
   11.5259    2.9408   23.2016 C   0  0  0  0  0  0  0  0  0  0  0  0
   10.7303    1.8121   22.8177 C   0  0  0  0  0  0  0  0  0  0  0  0
    9.6487    1.8221   22.8507 H   0  0  0  0  0  0  0  0  0  0  0  0
    9.7835   -0.1929   20.7060 C   0  0  0  0  0  0  0  0  0  0  0  0
    9.9877   -0.7479   19.7890 H   0  0  0  0  0  0  0  0  0  0  0  0
    9.7727    0.8669   20.4094 H   0  0  0  0  0  0  0  0  0  0  0  0
    5.1687    0.6875   20.0976 C   0  0  0  0  0  0  0  0  0  0  0  0
    4.6376    0.7065   21.0510 H   0  0  0  0  0  0  0  0  0  0  0  0
    4.6744    1.3610   18.9778 C   0  0  0  0  0  0  0  0  0  0  0  0
    3.7558    1.9359   19.0264 H   0  0  0  0  0  0  0  0  0  0  0  0
  1  2  1  0
  2  3  2  0
  3  4  1  0
  4  5  1  0
  4  6  2  0
  6  7  1  0
  7  8  2  0
  8  9  1  0
  9 10  2  0
 10 11  1  0
 11 12  1  0
  9 13  1  0
 13 14  1  0
 13 15  1  0
 13 16  1  0
 16 17  1  6
 16 18  1  0
 18 19  1  0
 19 20  1  0
 20 21  2  0
 21 22  1  0
 21 23  1  0
 23 24  1  0
 23 25  2  0
 25 26  1  0
 25 27  1  0
 27 28  1  0
 27 29  2  0
 29 30  1  0
 30 31  1  0
 16 32  1  0
 32 33  1  0
 32 34  1  0
  6 35  1  0
 35 36  1  0
 35 37  2  0
 37 38  1  0
 37  2  1  0
 11  7  1  0
 30 18  2  0
 32  8  1  0
 29 20  1  0
M  END
>  <cnnaffinity>  (1) 
-6.15917

>  <filename>  (1) 
c1cncc(-c2[nH]nc3c2C[C@@H](c2cc4ccccc4s2)C3)c1

$$$$
