
     RDKit          3D

 33 37  0  0  0  0  0  0  0  0999 V2000
    4.9211    1.7736   17.0023 H   0  0  0  0  0  0  0  0  0  0  0  0
    5.4066    1.2880   17.8467 C   0  0  0  0  0  0  0  0  0  0  0  0
    6.5714    0.6712   17.5921 N   0  0  0  0  0  0  0  0  0  0  0  0
    7.1770    0.0576   18.6113 C   0  0  0  0  0  0  0  0  0  0  0  0
    8.1234   -0.4283   18.3736 H   0  0  0  0  0  0  0  0  0  0  0  0
    6.6510    0.0119   19.9131 C   0  0  0  0  0  0  0  0  0  0  0  0
    7.3489   -0.6890   20.9903 C   0  0  0  0  0  0  0  0  0  0  0  0
    6.8724   -0.7396   22.1967 N   0  0  0  0  0  0  0  0  0  0  0  0
    7.7238   -1.4554   22.9817 N   0  0  0  0  0  0  0  0  0  0  0  0
    7.7141   -1.9572   24.2663 C   0  0  0  0  0  0  0  0  0  0  0  0
    6.6910   -1.6765   25.2797 C   0  0  0  0  0  0  0  0  0  0  0  0
    5.8969   -0.5188   25.2506 C   0  0  0  0  0  0  0  0  0  0  0  0
    6.0258    0.2021   24.4493 H   0  0  0  0  0  0  0  0  0  0  0  0
    4.9252   -0.2849   26.2481 C   0  0  0  0  0  0  0  0  0  0  0  0
    4.3248    0.6160   26.2006 H   0  0  0  0  0  0  0  0  0  0  0  0
    4.7155   -1.1826   27.2966 C   0  0  0  0  0  0  0  0  0  0  0  0
    3.9733   -1.0179   28.0750 H   0  0  0  0  0  0  0  0  0  0  0  0
    5.5109   -2.3357   27.3158 C   0  0  0  0  0  0  0  0  0  0  0  0
    6.4952   -2.6087   26.3359 C   0  0  0  0  0  0  0  0  0  0  0  0
    7.0759   -3.8795   26.6796 C   0  0  0  0  0  0  0  0  0  0  0  0
    7.8575   -4.3573   26.1070 H   0  0  0  0  0  0  0  0  0  0  0  0
    6.4600   -4.3190   27.8133 C   0  0  0  0  0  0  0  0  0  0  0  0
    6.6298   -5.2293   28.3813 H   0  0  0  0  0  0  0  0  0  0  0  0
    5.5134   -3.3892   28.1953 N   0  0  0  0  0  0  0  0  0  0  0  0
    4.9157   -3.4345   29.0028 H   0  0  0  0  0  0  0  0  0  0  0  0
    8.7752   -2.7229   24.4145 N   0  0  0  0  0  0  0  0  0  0  0  0
    9.4991   -2.7292   23.2470 N   0  0  0  0  0  0  0  0  0  0  0  0
    8.8373   -1.9821   22.4073 C   0  0  0  0  0  0  0  0  0  0  0  0
    8.8974   -1.5243   20.7323 S   0  0  0  0  0  0  0  0  0  0  0  0
    5.4297    0.6574   20.1655 C   0  0  0  0  0  0  0  0  0  0  0  0
    5.0019    0.6323   21.1711 H   0  0  0  0  0  0  0  0  0  0  0  0
    4.8029    1.3114   19.1094 C   0  0  0  0  0  0  0  0  0  0  0  0
    3.8712    1.8455   19.2599 H   0  0  0  0  0  0  0  0  0  0  0  0
  1  2  1  0
  2  3  2  0
  3  4  1  0
  4  5  1  0
  4  6  2  0
  6  7  1  0
  7  8  2  0
  8  9  1  0
  9 10  1  0
 10 11  1  0
 11 12  2  0
 12 13  1  0
 12 14  1  0
 14 15  1  0
 14 16  2  0
 16 17  1  0
 16 18  1  0
 18 19  2  0
 19 20  1  0
 20 21  1  0
 20 22  2  0
 22 23  1  0
 22 24  1  0
 24 25  1  0
 10 26  2  0
 26 27  1  0
 27 28  2  0
 28 29  1  0
  6 30  1  0
 30 31  1  0
 30 32  2  0
 32 33  1  0
 32  2  1  0
 29  7  1  0
 28  9  1  0
 19 11  1  0
 24 18  1  0
M  END
>  <cnnaffinity>  (1) 
-5.23298

>  <filename>  (1) 
c1cncc(-c2nn3c(-c4cccc5[nH]ccc45)nnc3s2)c1

$$$$
