
     RDKit          3D

 37 40  0  0  0  0  0  0  0  0999 V2000
    4.9273    1.7823   16.9949 H   0  0  0  0  0  0  0  0  0  0  0  0
    5.4038    1.2927   17.8375 C   0  0  0  0  0  0  0  0  0  0  0  0
    6.5671    0.6750   17.5806 N   0  0  0  0  0  0  0  0  0  0  0  0
    7.1609    0.0418   18.5947 C   0  0  0  0  0  0  0  0  0  0  0  0
    8.1130   -0.4363   18.3760 H   0  0  0  0  0  0  0  0  0  0  0  0
    6.6396    0.0042   19.8954 C   0  0  0  0  0  0  0  0  0  0  0  0
    7.3705   -0.7012   20.9402 C   0  0  0  0  0  0  0  0  0  0  0  0
    7.8710   -1.9632   20.7467 N   0  0  0  0  0  0  0  0  0  0  0  0
    8.3736   -2.2797   21.9055 C   0  0  0  0  0  0  0  0  0  0  0  0
    9.1483   -3.6714   22.6044 S   0  0  0  0  0  0  0  0  0  0  0  0
    9.4108   -2.8035   24.0978 C   0  0  0  0  0  0  0  0  0  0  0  0
    9.9380   -3.3109   24.8937 H   0  0  0  0  0  0  0  0  0  0  0  0
    8.8811   -1.5666   24.0686 C   0  0  0  0  0  0  0  0  0  0  0  0
    8.8619   -0.8357   24.8664 H   0  0  0  0  0  0  0  0  0  0  0  0
    8.2928   -1.2772   22.8402 N   0  0  0  0  0  0  0  0  0  0  0  0
    7.6426   -0.2259   22.2140 C   0  0  0  0  0  0  0  0  0  0  0  0
    7.4351    1.1140   22.8264 C   0  0  0  0  0  0  0  0  0  0  0  0
    6.9598    1.7519   22.0660 H   0  0  0  0  0  0  0  0  0  0  0  0
    6.4756    1.0630   24.0347 C   0  0  0  0  0  0  0  0  0  0  0  0
    5.5239    0.6124   23.7270 H   0  0  0  0  0  0  0  0  0  0  0  0
    6.8964    0.3936   24.7926 H   0  0  0  0  0  0  0  0  0  0  0  0
    6.2517    2.4566   24.6307 C   0  0  0  0  0  0  0  0  0  0  0  0
    5.7098    3.0721   23.8997 H   0  0  0  0  0  0  0  0  0  0  0  0
    5.6067    2.3923   25.5146 H   0  0  0  0  0  0  0  0  0  0  0  0
    7.5798    3.1431   24.9795 C   0  0  0  0  0  0  0  0  0  0  0  0
    7.3984    4.1498   25.3713 H   0  0  0  0  0  0  0  0  0  0  0  0
    8.0670    2.5816   25.7875 H   0  0  0  0  0  0  0  0  0  0  0  0
    8.5292    3.2006   23.7752 C   0  0  0  0  0  0  0  0  0  0  0  0
    9.4852    3.6572   24.0546 H   0  0  0  0  0  0  0  0  0  0  0  0
    8.0949    3.8504   23.0033 H   0  0  0  0  0  0  0  0  0  0  0  0
    8.7690    1.8108   23.1778 C   0  0  0  0  0  0  0  0  0  0  0  0
    9.3212    1.1917   23.8915 H   0  0  0  0  0  0  0  0  0  0  0  0
    9.3921    1.8754   22.2784 H   0  0  0  0  0  0  0  0  0  0  0  0
    5.4244    0.6610   20.1518 C   0  0  0  0  0  0  0  0  0  0  0  0
    4.9857    0.6411   21.1565 H   0  0  0  0  0  0  0  0  0  0  0  0
    4.7959    1.3121   19.0977 C   0  0  0  0  0  0  0  0  0  0  0  0
    3.8688    1.8458   19.2550 H   0  0  0  0  0  0  0  0  0  0  0  0
  1  2  1  0
  2  3  2  0
  3  4  1  0
  4  5  1  0
  4  6  2  0
  6  7  1  0
  7  8  1  0
  8  9  2  0
  9 10  1  0
 10 11  1  0
 11 12  1  0
 11 13  2  0
 13 14  1  0
 13 15  1  0
 15 16  1  0
 16 17  1  0
 17 18  1  0
 17 19  1  0
 19 20  1  0
 19 21  1  0
 19 22  1  0
 22 23  1  0
 22 24  1  0
 22 25  1  0
 25 26  1  0
 25 27  1  0
 25 28  1  0
 28 29  1  0
 28 30  1  0
 28 31  1  0
 31 32  1  0
 31 33  1  0
  6 34  1  0
 34 35  1  0
 34 36  2  0
 36 37  1  0
 36  2  1  0
 16  7  2  0
 31 17  1  0
 15  9  1  0
M  END
>  <cnnaffinity>  (1) 
-5.79879

>  <filename>  (1) 
c1cncc(-c2nc3sccn3c2C2CCCCC2)c1

$$$$
