
     RDKit          3D

 35 37  0  0  0  0  0  0  0  0999 V2000
    4.9154    1.8430   16.9326 H   0  0  0  0  0  0  0  0  0  0  0  0
    5.3706    1.3213   17.7710 C   0  0  0  0  0  0  0  0  0  0  0  0
    6.5351    0.6998   17.5268 N   0  0  0  0  0  0  0  0  0  0  0  0
    7.1347    0.0877   18.5598 C   0  0  0  0  0  0  0  0  0  0  0  0
    8.0902   -0.3837   18.3290 H   0  0  0  0  0  0  0  0  0  0  0  0
    6.6066    0.0204   19.8824 C   0  0  0  0  0  0  0  0  0  0  0  0
    7.2894   -0.5759   20.9725 N   0  0  0  0  0  0  0  0  0  0  0  0
    6.6800   -1.5814   21.8398 C   0  0  0  0  0  0  0  0  0  0  0  0
    6.6398   -1.2456   22.8882 H   0  0  0  0  0  0  0  0  0  0  0  0
    5.6420   -1.7369   21.5210 H   0  0  0  0  0  0  0  0  0  0  0  0
    7.3575   -2.9726   21.8113 C   0  0  0  0  0  0  0  0  0  0  0  0
    6.6677   -3.6935   22.2622 H   0  0  0  0  0  0  0  0  0  0  0  0
    7.4925   -3.2657   20.7661 H   0  0  0  0  0  0  0  0  0  0  0  0
    8.6561   -3.1325   22.5063 N   0  0  0  0  0  0  0  0  0  0  0  0
    8.5912   -3.4625   23.8489 N   0  0  0  0  0  0  0  0  0  0  0  0
    7.4379   -3.4072   24.5291 N   0  0  0  0  0  0  0  0  0  0  0  0
    7.7359   -3.8707   25.7357 C   0  0  0  0  0  0  0  0  0  0  0  0
    6.9661   -3.9816   26.4915 H   0  0  0  0  0  0  0  0  0  0  0  0
    9.0966   -4.2149   25.8446 C   0  0  0  0  0  0  0  0  0  0  0  0
    9.6151   -4.6153   26.7016 H   0  0  0  0  0  0  0  0  0  0  0  0
    9.6148   -3.9375   24.6017 C   0  0  0  0  0  0  0  0  0  0  0  0
   10.6075   -4.0076   24.1798 H   0  0  0  0  0  0  0  0  0  0  0  0
    9.8267   -2.2922   22.1950 C   0  0  0  0  0  0  0  0  0  0  0  0
   10.7051   -2.9448   22.0515 H   0  0  0  0  0  0  0  0  0  0  0  0
   10.0822   -1.6688   23.0742 H   0  0  0  0  0  0  0  0  0  0  0  0
    9.6605   -1.3620   21.0010 C   0  0  0  0  0  0  0  0  0  0  0  0
   10.6421   -0.9433   20.7611 H   0  0  0  0  0  0  0  0  0  0  0  0
    9.3485   -1.9215   20.1140 H   0  0  0  0  0  0  0  0  0  0  0  0
    8.6708   -0.2182   21.2535 C   0  0  0  0  0  0  0  0  0  0  0  0
    8.7608    0.1291   22.3006 H   0  0  0  0  0  0  0  0  0  0  0  0
    8.9362    0.6449   20.6325 H   0  0  0  0  0  0  0  0  0  0  0  0
    5.3678    0.6521   20.0911 C   0  0  0  0  0  0  0  0  0  0  0  0
    4.9515    0.6505   21.0993 H   0  0  0  0  0  0  0  0  0  0  0  0
    4.7546    1.3215   19.0279 C   0  0  0  0  0  0  0  0  0  0  0  0
    3.8235    1.8545   19.1709 H   0  0  0  0  0  0  0  0  0  0  0  0
  1  2  1  0
  2  3  2  0
  3  4  1  0
  4  5  1  0
  4  6  2  0
  6  7  1  0
  7  8  1  0
  8  9  1  0
  8 10  1  0
  8 11  1  0
 11 12  1  0
 11 13  1  0
 11 14  1  0
 14 15  1  0
 15 16  1  0
 16 17  2  0
 17 18  1  0
 17 19  1  0
 19 20  1  0
 19 21  2  0
 21 22  1  0
 14 23  1  0
 23 24  1  0
 23 25  1  0
 23 26  1  0
 26 27  1  0
 26 28  1  0
 26 29  1  0
 29 30  1  0
 29 31  1  0
  6 32  1  0
 32 33  1  0
 32 34  2  0
 34 35  1  0
 34  2  1  0
 29  7  1  0
 21 15  1  0
M  END
>  <cnnaffinity>  (1) 
-5.01335

>  <filename>  (1) 
c1cncc(N2CCCN(n3cccn3)CC2)c1

$$$$
