
     RDKit          3D

 34 37  0  0  0  0  0  0  0  0999 V2000
    4.9500    1.8243   16.9748 H   0  0  0  0  0  0  0  0  0  0  0  0
    5.4032    1.2965   17.8126 C   0  0  0  0  0  0  0  0  0  0  0  0
    6.5620    0.6691   17.5571 N   0  0  0  0  0  0  0  0  0  0  0  0
    7.1503    0.0177   18.5653 C   0  0  0  0  0  0  0  0  0  0  0  0
    8.1041   -0.4521   18.3287 H   0  0  0  0  0  0  0  0  0  0  0  0
    6.6204   -0.0398   19.8668 C   0  0  0  0  0  0  0  0  0  0  0  0
    7.3556   -0.7035   20.9462 C   0  0  0  0  0  0  0  0  0  0  0  0
    8.0827   -1.7972   20.7288 N   0  0  0  0  0  0  0  0  0  0  0  0
    8.5588   -2.0960   21.9368 N   0  0  0  0  0  0  0  0  0  0  0  0
    8.2275   -1.2662   22.9191 C   0  0  0  0  0  0  0  0  0  0  0  0
    7.4440   -0.2981   22.3173 C   0  0  0  0  0  0  0  0  0  0  0  0
    7.0878    0.9488   22.9631 C   0  0  0  0  0  0  0  0  0  0  0  0
    7.2780    2.1795   22.3250 C   0  0  0  0  0  0  0  0  0  0  0  0
    7.6649    2.2261   21.3116 H   0  0  0  0  0  0  0  0  0  0  0  0
    6.9612    3.3352   23.0281 C   0  0  0  0  0  0  0  0  0  0  0  0
    7.0868    4.3149   22.5682 H   0  0  0  0  0  0  0  0  0  0  0  0
    6.4918    3.3248   24.2853 N   0  0  0  0  0  0  0  0  0  0  0  0
    6.3277    2.1410   24.8893 C   0  0  0  0  0  0  0  0  0  0  0  0
    5.9444    2.1712   25.9095 H   0  0  0  0  0  0  0  0  0  0  0  0
    6.6220    0.9277   24.2787 C   0  0  0  0  0  0  0  0  0  0  0  0
    6.4806   -0.0120   24.8061 H   0  0  0  0  0  0  0  0  0  0  0  0
    9.0681   -1.5124   24.1523 C   0  0  0  0  0  0  0  0  0  0  0  0
    9.6674   -0.6182   24.3650 H   0  0  0  0  0  0  0  0  0  0  0  0
    8.4670   -1.7082   25.0483 H   0  0  0  0  0  0  0  0  0  0  0  0
    9.9388   -2.7339   23.7276 C   0  0  0  0  0  0  0  0  0  0  0  0
    9.7558   -3.6095   24.3498 H   0  0  0  0  0  0  0  0  0  0  0  0
   11.0018   -2.5142   23.7816 H   0  0  0  0  0  0  0  0  0  0  0  0
    9.5633   -3.0642   22.2571 C   0  0  0  0  0  0  0  0  0  0  0  0
   10.3959   -2.9076   21.5675 H   0  0  0  0  0  0  0  0  0  0  0  0
    9.1308   -4.0615   22.1469 H   0  0  0  0  0  0  0  0  0  0  0  0
    5.4071    0.6201   20.1155 C   0  0  0  0  0  0  0  0  0  0  0  0
    4.9869    0.6435   21.1217 H   0  0  0  0  0  0  0  0  0  0  0  0
    4.7890    1.2976   19.0685 C   0  0  0  0  0  0  0  0  0  0  0  0
    3.8655    1.8446   19.2218 H   0  0  0  0  0  0  0  0  0  0  0  0
  1  2  1  0
  2  3  2  0
  3  4  1  0
  4  5  1  0
  4  6  2  0
  6  7  1  0
  7  8  2  0
  8  9  1  0
  9 10  1  0
 10 11  2  0
 11 12  1  0
 12 13  2  0
 13 14  1  0
 13 15  1  0
 15 16  1  0
 15 17  2  0
 17 18  1  0
 18 19  1  0
 18 20  2  0
 20 21  1  0
 10 22  1  0
 22 23  1  0
 22 24  1  0
 22 25  1  0
 25 26  1  0
 25 27  1  0
 25 28  1  0
 28 29  1  0
 28 30  1  0
  6 31  1  0
 31 32  1  0
 31 33  2  0
 33 34  1  0
 33  2  1  0
 11  7  1  0
 20 12  1  0
 28  9  1  0
M  END
>  <cnnaffinity>  (1) 
-5.40783

>  <filename>  (1) 
c1cncc(-c2nn3c(c2-c2ccncc2)CCC3)c1

$$$$
