
     RDKit          3D

 42 45  0  0  0  0  0  0  0  0999 V2000
    4.9529    1.8295   16.9666 H   0  0  0  0  0  0  0  0  0  0  0  0
    5.3979    1.2962   17.8063 C   0  0  0  0  0  0  0  0  0  0  0  0
    6.5453    0.6444   17.5601 N   0  0  0  0  0  0  0  0  0  0  0  0
    7.1356    0.0099   18.5779 C   0  0  0  0  0  0  0  0  0  0  0  0
    8.0727   -0.4965   18.3516 H   0  0  0  0  0  0  0  0  0  0  0  0
    6.6367    0.0056   19.8872 C   0  0  0  0  0  0  0  0  0  0  0  0
    7.4220   -0.6383   20.9404 C   0  0  0  0  0  0  0  0  0  0  0  0
    7.9934   -1.8831   20.7786 N   0  0  0  0  0  0  0  0  0  0  0  0
    8.5068   -2.1401   21.9452 C   0  0  0  0  0  0  0  0  0  0  0  0
    8.4108   -1.1082   22.8233 N   0  0  0  0  0  0  0  0  0  0  0  0
    7.6891   -0.1267   22.2010 C   0  0  0  0  0  0  0  0  0  0  0  0
    7.3095    1.1250   22.9056 C   0  0  0  0  0  0  0  0  0  0  0  0
    6.9839    1.8615   22.1678 H   0  0  0  0  0  0  0  0  0  0  0  0
    8.1856    1.5561   23.4074 H   0  0  0  0  0  0  0  0  0  0  0  0
    6.2172    0.9272   23.9616 C   0  0  0  0  0  0  0  0  0  0  0  0
    5.3218    0.4718   23.5011 H   0  0  0  0  0  0  0  0  0  0  0  0
    6.5835    0.2078   24.7021 H   0  0  0  0  0  0  0  0  0  0  0  0
    5.8883    2.1787   24.6314 N   0  0  0  0  0  0  0  0  0  0  0  0
    5.2905    3.1628   23.6940 C   0  0  0  0  0  0  0  0  0  0  0  0
    6.0915    3.7076   23.1796 H   0  0  0  0  0  0  0  0  0  0  0  0
    4.6814    2.6701   22.9090 H   0  0  0  0  0  0  0  0  0  0  0  0
    4.3980    4.1725   24.4207 C   0  0  0  0  0  0  0  0  0  0  0  0
    3.9415    4.8653   23.7074 H   0  0  0  0  0  0  0  0  0  0  0  0
    5.0194    4.7596   25.1138 H   0  0  0  0  0  0  0  0  0  0  0  0
    3.3220    3.5586   25.1325 O   0  0  0  0  0  0  0  0  0  0  0  0
    3.5950    2.2484   25.6364 C   0  0  0  0  0  0  0  0  0  0  0  0
    3.2130    1.4942   24.9292 H   0  0  0  0  0  0  0  0  0  0  0  0
    3.0283    2.1467   26.5662 H   0  0  0  0  0  0  0  0  0  0  0  0
    5.0939    2.0038   25.8667 C   0  0  0  0  0  0  0  0  0  0  0  0
    5.2535    1.0013   26.2794 H   0  0  0  0  0  0  0  0  0  0  0  0
    5.4472    2.7111   26.6319 H   0  0  0  0  0  0  0  0  0  0  0  0
    9.0553   -1.2486   24.1112 C   0  0  0  0  0  0  0  0  0  0  0  0
    9.5623   -0.3192   24.3900 H   0  0  0  0  0  0  0  0  0  0  0  0
    8.3177   -1.4775   24.8867 H   0  0  0  0  0  0  0  0  0  0  0  0
   10.0504   -2.4012   23.9019 C   0  0  0  0  0  0  0  0  0  0  0  0
   10.9688   -2.0300   23.4387 H   0  0  0  0  0  0  0  0  0  0  0  0
   10.2942   -2.9456   24.8154 H   0  0  0  0  0  0  0  0  0  0  0  0
    9.2562   -3.5352   22.7010 S   0  0  0  0  0  0  0  0  0  0  0  0
    5.4130    0.6603   20.1188 C   0  0  0  0  0  0  0  0  0  0  0  0
    4.9578    0.6647   21.1096 H   0  0  0  0  0  0  0  0  0  0  0  0
    4.7817    1.3142   19.0609 C   0  0  0  0  0  0  0  0  0  0  0  0
    3.8544    1.8603   19.2044 H   0  0  0  0  0  0  0  0  0  0  0  0
  1  2  1  0
  2  3  2  0
  3  4  1  0
  4  5  1  0
  4  6  2  0
  6  7  1  0
  7  8  1  0
  8  9  2  0
  9 10  1  0
 10 11  1  0
 11 12  1  0
 12 13  1  0
 12 14  1  0
 12 15  1  0
 15 16  1  0
 15 17  1  0
 15 18  1  0
 18 19  1  0
 19 20  1  0
 19 21  1  0
 19 22  1  0
 22 23  1  0
 22 24  1  0
 22 25  1  0
 25 26  1  0
 26 27  1  0
 26 28  1  0
 26 29  1  0
 29 30  1  0
 29 31  1  0
 10 32  1  0
 32 33  1  0
 32 34  1  0
 32 35  1  0
 35 36  1  0
 35 37  1  0
 35 38  1  0
  6 39  1  0
 39 40  1  0
 39 41  2  0
 41 42  1  0
 41  2  1  0
 11  7  2  0
 29 18  1  0
 38  9  1  0
M  END
>  <cnnaffinity>  (1) 
-5.29963

>  <filename>  (1) 
c1cncc(-c2nc3n(c2CCN2CCOCC2)CCS3)c1

$$$$
