
     RDKit          3D

 36 39  0  0  0  0  0  0  0  0999 V2000
    4.9493    1.8692   16.9188 H   0  0  0  0  0  0  0  0  0  0  0  0
    5.3847    1.3187   17.7496 C   0  0  0  0  0  0  0  0  0  0  0  0
    6.5289    0.6643   17.4939 N   0  0  0  0  0  0  0  0  0  0  0  0
    7.1110    0.0216   18.5101 C   0  0  0  0  0  0  0  0  0  0  0  0
    8.0371   -0.5040   18.2811 H   0  0  0  0  0  0  0  0  0  0  0  0
    6.6035    0.0205   19.8231 C   0  0  0  0  0  0  0  0  0  0  0  0
    7.3706   -0.5736   20.9209 C   0  0  0  0  0  0  0  0  0  0  0  0
    8.1703   -1.6240   20.7342 N   0  0  0  0  0  0  0  0  0  0  0  0
    8.7037   -1.8186   21.9375 N   0  0  0  0  0  0  0  0  0  0  0  0
    8.3277   -0.9631   22.8952 C   0  0  0  0  0  0  0  0  0  0  0  0
    7.4118   -0.1223   22.2884 C   0  0  0  0  0  0  0  0  0  0  0  0
    6.6921    0.9435   22.8663 N   0  0  0  0  0  0  0  0  0  0  0  0
    6.9211    1.8432   22.4560 H   0  0  0  0  0  0  0  0  0  0  0  0
    6.5096    1.0355   24.2574 C   0  0  0  0  0  0  0  0  0  0  0  0
    6.0879   -0.0451   25.0701 C   0  0  0  0  0  0  0  0  0  0  0  0
    5.9946   -1.0347   24.6256 H   0  0  0  0  0  0  0  0  0  0  0  0
    5.8244    0.0634   26.3837 N   0  0  0  0  0  0  0  0  0  0  0  0
    5.9843    1.2671   26.9538 C   0  0  0  0  0  0  0  0  0  0  0  0
    5.7136    1.3460   28.0028 H   0  0  0  0  0  0  0  0  0  0  0  0
    6.4438    2.3866   26.2475 C   0  0  0  0  0  0  0  0  0  0  0  0
    6.5747    3.3333   26.7563 H   0  0  0  0  0  0  0  0  0  0  0  0
    6.7164    2.2684   24.8849 C   0  0  0  0  0  0  0  0  0  0  0  0
    7.1161    3.1043   24.3080 H   0  0  0  0  0  0  0  0  0  0  0  0
    9.1032   -1.2234   24.1649 C   0  0  0  0  0  0  0  0  0  0  0  0
    9.5769   -0.3147   24.5509 H   0  0  0  0  0  0  0  0  0  0  0  0
    8.4579   -1.6314   24.9517 H   0  0  0  0  0  0  0  0  0  0  0  0
   10.1681   -2.2527   23.6877 C   0  0  0  0  0  0  0  0  0  0  0  0
   11.0985   -1.7255   23.4877 H   0  0  0  0  0  0  0  0  0  0  0  0
   10.3694   -3.0349   24.4239 H   0  0  0  0  0  0  0  0  0  0  0  0
    9.6749   -2.8049   22.3235 C   0  0  0  0  0  0  0  0  0  0  0  0
    9.2079   -3.7934   22.3670 H   0  0  0  0  0  0  0  0  0  0  0  0
   10.4672   -2.8060   21.5767 H   0  0  0  0  0  0  0  0  0  0  0  0
    5.3769    0.6624   20.0610 C   0  0  0  0  0  0  0  0  0  0  0  0
    4.9339    0.6499   21.0588 H   0  0  0  0  0  0  0  0  0  0  0  0
    4.7628    1.3229   19.0028 C   0  0  0  0  0  0  0  0  0  0  0  0
    3.8364    1.8673   19.1420 H   0  0  0  0  0  0  0  0  0  0  0  0
  1  2  1  0
  2  3  2  0
  3  4  1  0
  4  5  1  0
  4  6  2  0
  6  7  1  0
  7  8  2  0
  8  9  1  0
  9 10  1  0
 10 11  2  0
 11 12  1  0
 12 13  1  0
 12 14  1  0
 14 15  2  0
 15 16  1  0
 15 17  1  0
 17 18  2  0
 18 19  1  0
 18 20  1  0
 20 21  1  0
 20 22  2  0
 22 23  1  0
 10 24  1  0
 24 25  1  0
 24 26  1  0
 24 27  1  0
 27 28  1  0
 27 29  1  0
 27 30  1  0
 30 31  1  0
 30 32  1  0
  6 33  1  0
 33 34  1  0
 33 35  2  0
 35 36  1  0
 35  2  1  0
 11  7  1  0
 22 14  1  0
 30  9  1  0
M  END
>  <cnnaffinity>  (1) 
-5.76883

>  <filename>  (1) 
c1cncc(Nc2c(-c3cccnc3)nn3c2CCC3)c1

$$$$
