
     RDKit          3D

 31 33  0  0  0  0  0  0  0  0999 V2000
    5.7576   -1.4991   21.9323 H   0  0  0  0  0  0  0  0  0  0  0  0
    6.8436   -1.5178   21.9635 C   0  0  0  0  0  0  0  0  0  0  0  0
    7.4198   -2.2974   22.9106 N   0  0  0  0  0  0  0  0  0  0  0  0
    8.7557   -2.3370   22.8903 C   0  0  0  0  0  0  0  0  0  0  0  0
    9.2456   -2.9445   23.6477 H   0  0  0  0  0  0  0  0  0  0  0  0
    9.5387   -1.6121   21.9282 C   0  0  0  0  0  0  0  0  0  0  0  0
   10.9092   -1.7178   21.8971 N   0  0  0  0  0  0  0  0  0  0  0  0
   11.3032   -2.3359   22.5844 H   0  0  0  0  0  0  0  0  0  0  0  0
   11.7838   -0.5737   21.6183 C   0  0  0  0  0  0  0  0  0  0  0  0
   11.6221    0.2322   22.3585 H   0  0  0  0  0  0  0  0  0  0  0  0
   11.4747   -0.1356   20.6664 H   0  0  0  0  0  0  0  0  0  0  0  0
   13.2572   -0.9960   21.6637 C   0  0  0  0  0  0  0  0  0  0  0  0
   13.4029   -1.6939   22.4275 H   0  0  0  0  0  0  0  0  0  0  0  0
   13.7288   -1.7760   20.5248 C   0  0  0  0  0  0  0  0  0  0  0  0
   14.9287   -1.2555   19.6080 H   0  0  0  0  0  0  0  0  0  0  0  0
   13.0391   -1.0707   19.2618 H   0  0  0  0  0  0  0  0  0  0  0  0
   13.6478   -1.8687   20.7933 C   0  0  0  0  0  0  0  0  0  0  0  0
   12.9112   -2.6589   20.2443 H   0  0  0  0  0  0  0  0  0  0  0  0
   14.5676   -2.6972   20.9746 H   0  0  0  0  0  0  0  0  0  0  0  0
    8.9623   -0.8365   20.9989 N   0  0  0  0  0  0  0  0  0  0  0  0
    7.6078   -0.7985   21.0146 C   0  0  0  0  0  0  0  0  0  0  0  0
    6.9449   -0.0094   19.9495 C   0  0  0  0  0  0  0  0  0  0  0  0
    7.5212    0.0509   18.6701 C   0  0  0  0  0  0  0  0  0  0  0  0
    8.4886   -0.4105   18.4844 H   0  0  0  0  0  0  0  0  0  0  0  0
    6.9317    0.6322   17.6206 N   0  0  0  0  0  0  0  0  0  0  0  0
    5.7457    1.2257   17.8212 C   0  0  0  0  0  0  0  0  0  0  0  0
    5.2843    1.6902   16.9510 H   0  0  0  0  0  0  0  0  0  0  0  0
    5.1069    1.2655   19.0642 C   0  0  0  0  0  0  0  0  0  0  0  0
    4.1574    1.7791   19.1679 H   0  0  0  0  0  0  0  0  0  0  0  0
    5.7123    0.6358   20.1499 C   0  0  0  0  0  0  0  0  0  0  0  0
    5.2409    0.6665   21.1350 H   0  0  0  0  0  0  0  0  0  0  0  0
  1  2  1  0
  2  3  2  0
  3  4  1  0
  4  5  1  0
  4  6  2  0
  6  7  1  0
  7  8  1  0
  7  9  1  0
  9 10  1  0
  9 11  1  0
  9 12  1  0
 12 13  1  0
 12 14  1  0
 14 15  1  0
 14 16  1  0
 14 17  1  0
 17 18  1  0
 17 19  1  0
  6 20  1  0
 20 21  2  0
 21 22  1  0
 22 23  2  0
 23 24  1  0
 23 25  1  0
 25 26  2  0
 26 27  1  0
 26 28  1  0
 28 29  1  0
 28 30  2  0
 30 31  1  0
 21  2  1  0
 30 22  1  0
 17 12  1  0
M  END
>  <cnnaffinity>  (1) 
-5.58428

>  <filename>  (1) 
c1cncc(-c2cncc(NCC3CC3)n2)c1

$$$$
