
     RDKit          3D

 36 38  0  0  0  0  0  0  0  0999 V2000
    4.9330    1.8026   16.9811 H   0  0  0  0  0  0  0  0  0  0  0  0
    5.3900    1.2978   17.8320 C   0  0  0  0  0  0  0  0  0  0  0  0
    6.5478    0.6781   17.5721 N   0  0  0  0  0  0  0  0  0  0  0  0
    7.1564    0.0639   18.5885 C   0  0  0  0  0  0  0  0  0  0  0  0
    8.1021   -0.4120   18.3418 H   0  0  0  0  0  0  0  0  0  0  0  0
    6.6515    0.0116   19.8971 C   0  0  0  0  0  0  0  0  0  0  0  0
    7.3960   -0.7063   20.9319 C   0  0  0  0  0  0  0  0  0  0  0  0
    6.8454   -0.8661   22.1980 N   0  0  0  0  0  0  0  0  0  0  0  0
    7.7383   -1.5106   22.8722 C   0  0  0  0  0  0  0  0  0  0  0  0
    7.7064   -1.9057   24.3086 C   0  0  0  0  0  0  0  0  0  0  0  0
    6.6555   -2.0713   24.5566 H   0  0  0  0  0  0  0  0  0  0  0  0
    8.2486   -2.8491   24.4066 H   0  0  0  0  0  0  0  0  0  0  0  0
    8.2963   -0.8492   25.2705 C   0  0  0  0  0  0  0  0  0  0  0  0
    8.1847   -1.2376   26.2996 H   0  0  0  0  0  0  0  0  0  0  0  0
    7.5176    0.4849   25.1930 C   0  0  0  0  0  0  0  0  0  0  0  0
    7.5928    0.8774   24.1654 H   0  0  0  0  0  0  0  0  0  0  0  0
    6.4453    0.3114   25.3772 H   0  0  0  0  0  0  0  0  0  0  0  0
    8.1026    1.5219   26.1566 C   0  0  0  0  0  0  0  0  0  0  0  0
    7.9704    1.1841   27.1986 H   0  0  0  0  0  0  0  0  0  0  0  0
    7.5702    2.4783   26.0841 H   0  0  0  0  0  0  0  0  0  0  0  0
    9.5940    1.7236   25.8617 C   0  0  0  0  0  0  0  0  0  0  0  0
    9.9399    2.5237   26.5003 H   0  0  0  0  0  0  0  0  0  0  0  0
    9.7239    2.0988   24.8328 H   0  0  0  0  0  0  0  0  0  0  0  0
   10.3858    0.4044   26.0020 C   0  0  0  0  0  0  0  0  0  0  0  0
   11.4542    0.5556   25.8076 H   0  0  0  0  0  0  0  0  0  0  0  0
   10.3203    0.0118   27.0308 H   0  0  0  0  0  0  0  0  0  0  0  0
    9.8041   -0.6312   25.0191 C   0  0  0  0  0  0  0  0  0  0  0  0
    9.9516   -0.2554   23.9965 H   0  0  0  0  0  0  0  0  0  0  0  0
   10.3196   -1.6028   25.0505 H   0  0  0  0  0  0  0  0  0  0  0  0
    8.8401   -1.8247   22.1571 O   0  0  0  0  0  0  0  0  0  0  0  0
    8.6146   -1.3015   20.9193 C   0  0  0  0  0  0  0  0  0  0  0  0
    9.3998   -1.4601   20.1998 H   0  0  0  0  0  0  0  0  0  0  0  0
    5.4296    0.6585   20.1566 C   0  0  0  0  0  0  0  0  0  0  0  0
    5.0073    0.6388   21.1627 H   0  0  0  0  0  0  0  0  0  0  0  0
    4.7939    1.3143   19.1001 C   0  0  0  0  0  0  0  0  0  0  0  0
    3.8609    1.8494   19.2337 H   0  0  0  0  0  0  0  0  0  0  0  0
  1  2  1  0
  2  3  2  0
  3  4  1  0
  4  5  1  0
  4  6  2  0
  6  7  1  0
  7  8  1  0
  8  9  2  0
  9 10  1  0
 10 11  1  0
 10 12  1  0
 10 13  1  0
 13 14  1  0
 13 15  1  0
 15 16  1  0
 15 17  1  0
 15 18  1  0
 18 19  1  0
 18 20  1  0
 18 21  1  0
 21 22  1  0
 21 23  1  0
 21 24  1  0
 24 25  1  0
 24 26  1  0
 24 27  1  0
 27 28  1  0
 27 29  1  0
  9 30  1  0
 30 31  1  0
 31 32  1  0
  6 33  1  0
 33 34  1  0
 33 35  2  0
 35 36  1  0
 35  2  1  0
 31  7  2  0
 27 13  1  0
M  END
>  <cnnaffinity>  (1) 
-5.61086

>  <filename>  (1) 
c1cncc(-c2coc(CC3CCCCC3)n2)c1

$$$$
