
     RDKit          3D

 36 38  0  0  0  0  0  0  0  0999 V2000
    8.0394   -2.9700   23.5906 H   0  0  0  0  0  0  0  0  0  0  0  0
    7.9885   -2.2229   22.8018 C   0  0  0  0  0  0  0  0  0  0  0  0
    8.9639   -1.4281   22.5122 N   0  0  0  0  0  0  0  0  0  0  0  0
    8.6258   -0.5727   21.4814 C   0  0  0  0  0  0  0  0  0  0  0  0
    9.6127    0.5054   21.1479 C   0  0  0  0  0  0  0  0  0  0  0  0
   10.6094    0.0518   21.1721 H   0  0  0  0  0  0  0  0  0  0  0  0
    9.4268    0.8725   20.1298 H   0  0  0  0  0  0  0  0  0  0  0  0
    9.5575    1.6803   22.1612 C   0  0  0  0  0  0  0  0  0  0  0  0
    9.6524    1.2588   23.1785 H   0  0  0  0  0  0  0  0  0  0  0  0
    8.1882    2.3734   22.0787 C   0  0  0  0  0  0  0  0  0  0  0  0
    7.9889    2.6916   21.0451 H   0  0  0  0  0  0  0  0  0  0  0  0
    7.3973    1.6490   22.3110 H   0  0  0  0  0  0  0  0  0  0  0  0
    8.0853    3.5608   23.0356 C   0  0  0  0  0  0  0  0  0  0  0  0
    8.1190    3.1841   24.0660 H   0  0  0  0  0  0  0  0  0  0  0  0
    7.1103    4.0486   22.9028 H   0  0  0  0  0  0  0  0  0  0  0  0
    9.2060    4.5901   22.8414 C   0  0  0  0  0  0  0  0  0  0  0  0
    8.9893    5.1738   21.9413 H   0  0  0  0  0  0  0  0  0  0  0  0
    9.1700    5.3179   23.6600 H   0  0  0  0  0  0  0  0  0  0  0  0
   10.6229    3.9836   22.7618 C   0  0  0  0  0  0  0  0  0  0  0  0
   11.3052    4.7276   22.3221 H   0  0  0  0  0  0  0  0  0  0  0  0
   10.9876    3.8042   23.7824 H   0  0  0  0  0  0  0  0  0  0  0  0
   10.7250    2.6679   21.9527 C   0  0  0  0  0  0  0  0  0  0  0  0
   10.8200    2.8777   20.8789 H   0  0  0  0  0  0  0  0  0  0  0  0
   11.6653    2.1683   22.2228 H   0  0  0  0  0  0  0  0  0  0  0  0
    7.3500   -0.7520   20.9711 C   0  0  0  0  0  0  0  0  0  0  0  0
    6.6379   -0.0347   19.8842 C   0  0  0  0  0  0  0  0  0  0  0  0
    7.1399   -0.0111   18.5633 C   0  0  0  0  0  0  0  0  0  0  0  0
    8.0512   -0.5590   18.3250 H   0  0  0  0  0  0  0  0  0  0  0  0
    6.5680    0.6420   17.5418 N   0  0  0  0  0  0  0  0  0  0  0  0
    5.4281    1.3007   17.7968 C   0  0  0  0  0  0  0  0  0  0  0  0
    4.9785    1.8245   16.9555 H   0  0  0  0  0  0  0  0  0  0  0  0
    4.8159    1.3226   19.0542 C   0  0  0  0  0  0  0  0  0  0  0  0
    3.8860    1.8678   19.1894 H   0  0  0  0  0  0  0  0  0  0  0  0
    5.4278    0.6504   20.1135 C   0  0  0  0  0  0  0  0  0  0  0  0
    4.9821    0.6576   21.1106 H   0  0  0  0  0  0  0  0  0  0  0  0
    6.5639   -2.0082   21.8560 S   0  0  0  0  0  0  0  0  0  0  0  0
  1  2  1  0
  2  3  2  0
  3  4  1  0
  4  5  1  0
  5  6  1  0
  5  7  1  0
  5  8  1  0
  8  9  1  0
  8 10  1  0
 10 11  1  0
 10 12  1  0
 10 13  1  0
 13 14  1  0
 13 15  1  0
 13 16  1  0
 16 17  1  0
 16 18  1  0
 16 19  1  0
 19 20  1  0
 19 21  1  0
 19 22  1  0
 22 23  1  0
 22 24  1  0
  4 25  2  0
 25 26  1  0
 26 27  2  0
 27 28  1  0
 27 29  1  0
 29 30  2  0
 30 31  1  0
 30 32  1  0
 32 33  1  0
 32 34  2  0
 34 35  1  0
 25 36  1  0
 36  2  1  0
 22  8  1  0
 34 26  1  0
M  END
>  <cnnaffinity>  (1) 
-5.58224

>  <filename>  (1) 
c1cncc(-c2scnc2CC2CCCCC2)c1

$$$$
