
     RDKit          3D

 34 37  0  0  0  0  0  0  0  0999 V2000
    4.9225    1.7784   17.0010 H   0  0  0  0  0  0  0  0  0  0  0  0
    5.4069    1.2917   17.8414 C   0  0  0  0  0  0  0  0  0  0  0  0
    6.5697    0.6747   17.5785 N   0  0  0  0  0  0  0  0  0  0  0  0
    7.1704    0.0454   18.5903 C   0  0  0  0  0  0  0  0  0  0  0  0
    8.1203   -0.4348   18.3694 H   0  0  0  0  0  0  0  0  0  0  0  0
    6.6500    0.0081   19.8924 C   0  0  0  0  0  0  0  0  0  0  0  0
    7.3739   -0.6791   20.9469 C   0  0  0  0  0  0  0  0  0  0  0  0
    8.1178   -1.8110   20.7169 N   0  0  0  0  0  0  0  0  0  0  0  0
    8.5383   -2.1397   21.9044 C   0  0  0  0  0  0  0  0  0  0  0  0
    9.5657   -3.3747   22.5684 S   0  0  0  0  0  0  0  0  0  0  0  0
    9.4806   -2.6597   24.1540 C   0  0  0  0  0  0  0  0  0  0  0  0
   10.0366   -3.1320   24.9525 H   0  0  0  0  0  0  0  0  0  0  0  0
    8.6937   -1.5711   24.1716 C   0  0  0  0  0  0  0  0  0  0  0  0
    8.4803   -0.9327   25.0183 H   0  0  0  0  0  0  0  0  0  0  0  0
    8.1411   -1.2997   22.9155 N   0  0  0  0  0  0  0  0  0  0  0  0
    7.3930   -0.3105   22.2949 C   0  0  0  0  0  0  0  0  0  0  0  0
    6.9061    0.8108   22.9152 N   0  0  0  0  0  0  0  0  0  0  0  0
    7.4195    2.1318   22.5177 C   0  0  0  0  0  0  0  0  0  0  0  0
    8.3235    2.3982   23.0861 H   0  0  0  0  0  0  0  0  0  0  0  0
    7.6927    2.0929   21.4596 H   0  0  0  0  0  0  0  0  0  0  0  0
    6.3468    3.1939   22.7402 C   0  0  0  0  0  0  0  0  0  0  0  0
    5.5342    3.0456   22.0123 H   0  0  0  0  0  0  0  0  0  0  0  0
    6.7640    4.1930   22.5921 H   0  0  0  0  0  0  0  0  0  0  0  0
    5.8288    3.1461   24.0610 O   0  0  0  0  0  0  0  0  0  0  0  0
    5.2310    1.8855   24.3211 C   0  0  0  0  0  0  0  0  0  0  0  0
    4.4074    1.7188   23.6116 H   0  0  0  0  0  0  0  0  0  0  0  0
    4.8086    1.9313   25.3263 H   0  0  0  0  0  0  0  0  0  0  0  0
    6.2454    0.7441   24.2139 C   0  0  0  0  0  0  0  0  0  0  0  0
    5.7361   -0.2192   24.2932 H   0  0  0  0  0  0  0  0  0  0  0  0
    6.9494    0.8290   25.0558 H   0  0  0  0  0  0  0  0  0  0  0  0
    5.4364    0.6650   20.1560 C   0  0  0  0  0  0  0  0  0  0  0  0
    5.0028    0.6346   21.1605 H   0  0  0  0  0  0  0  0  0  0  0  0
    4.8036    1.3135   19.1052 C   0  0  0  0  0  0  0  0  0  0  0  0
    3.8706    1.8430   19.2571 H   0  0  0  0  0  0  0  0  0  0  0  0
  1  2  1  0
  2  3  2  0
  3  4  1  0
  4  5  1  0
  4  6  2  0
  6  7  1  0
  7  8  1  0
  8  9  2  0
  9 10  1  0
 10 11  1  0
 11 12  1  0
 11 13  2  0
 13 14  1  0
 13 15  1  0
 15 16  1  0
 16 17  1  0
 17 18  1  0
 18 19  1  0
 18 20  1  0
 18 21  1  0
 21 22  1  0
 21 23  1  0
 21 24  1  0
 24 25  1  0
 25 26  1  0
 25 27  1  0
 25 28  1  0
 28 29  1  0
 28 30  1  0
  6 31  1  0
 31 32  1  0
 31 33  2  0
 33 34  1  0
 33  2  1  0
 16  7  2  0
 28 17  1  0
 15  9  1  0
M  END
>  <cnnaffinity>  (1) 
-5.25027

>  <filename>  (1) 
c1cncc(-c2nc3sccn3c2N2CCOCC2)c1

$$$$
