
     RDKit          3D

 39 41  0  0  0  0  0  0  0  0999 V2000
    4.9143    1.7864   16.9947 H   0  0  0  0  0  0  0  0  0  0  0  0
    5.3963    1.2968   17.8376 C   0  0  0  0  0  0  0  0  0  0  0  0
    6.5601    0.6814   17.5723 N   0  0  0  0  0  0  0  0  0  0  0  0
    7.1722    0.0591   18.5901 C   0  0  0  0  0  0  0  0  0  0  0  0
    8.1212   -0.4291   18.3753 H   0  0  0  0  0  0  0  0  0  0  0  0
    6.6628   -0.0139   19.9112 C   0  0  0  0  0  0  0  0  0  0  0  0
    7.3266   -0.7089   20.9277 N   0  0  0  0  0  0  0  0  0  0  0  0
    6.7639   -1.1241   21.6583 H   0  0  0  0  0  0  0  0  0  0  0  0
    8.7135   -0.7016   21.1352 C   0  0  0  0  0  0  0  0  0  0  0  0
    9.6940    0.1973   20.6595 C   0  0  0  0  0  0  0  0  0  0  0  0
    9.5252    1.0237   19.9916 H   0  0  0  0  0  0  0  0  0  0  0  0
   10.9074   -0.0785   21.1291 N   0  0  0  0  0  0  0  0  0  0  0  0
   10.7057   -1.1606   21.8957 N   0  0  0  0  0  0  0  0  0  0  0  0
   11.4845   -1.5494   22.4016 H   0  0  0  0  0  0  0  0  0  0  0  0
    9.4152   -1.5826   21.9281 C   0  0  0  0  0  0  0  0  0  0  0  0
    8.9153   -2.6593   22.8110 C   0  0  0  0  0  0  0  0  0  0  0  0
    9.6851   -3.4256   22.9649 H   0  0  0  0  0  0  0  0  0  0  0  0
    8.0687   -3.1489   22.3146 H   0  0  0  0  0  0  0  0  0  0  0  0
    8.4557   -2.1010   24.1758 C   0  0  0  0  0  0  0  0  0  0  0  0
    9.3288   -1.7035   24.7096 H   0  0  0  0  0  0  0  0  0  0  0  0
    7.7922   -1.2412   24.0099 H   0  0  0  0  0  0  0  0  0  0  0  0
    7.7825   -3.0539   25.0423 N   0  0  0  0  0  0  0  0  0  0  0  0
    6.4486   -3.4564   24.5770 C   0  0  0  0  0  0  0  0  0  0  0  0
    5.8303   -2.5639   24.4175 H   0  0  0  0  0  0  0  0  0  0  0  0
    6.4786   -4.0133   23.6219 H   0  0  0  0  0  0  0  0  0  0  0  0
    5.7781   -4.3531   25.6203 C   0  0  0  0  0  0  0  0  0  0  0  0
    5.6050   -3.7747   26.5397 H   0  0  0  0  0  0  0  0  0  0  0  0
    4.8164   -4.7128   25.2487 H   0  0  0  0  0  0  0  0  0  0  0  0
    6.5651   -5.5030   25.9140 O   0  0  0  0  0  0  0  0  0  0  0  0
    7.8485   -5.1093   26.3917 C   0  0  0  0  0  0  0  0  0  0  0  0
    8.4098   -6.0258   26.5874 H   0  0  0  0  0  0  0  0  0  0  0  0
    7.7421   -4.5547   27.3354 H   0  0  0  0  0  0  0  0  0  0  0  0
    8.5881   -4.2400   25.3728 C   0  0  0  0  0  0  0  0  0  0  0  0
    8.8001   -4.8697   24.4895 H   0  0  0  0  0  0  0  0  0  0  0  0
    9.5536   -3.9237   25.7885 H   0  0  0  0  0  0  0  0  0  0  0  0
    5.4408    0.6305   20.1633 C   0  0  0  0  0  0  0  0  0  0  0  0
    5.0193    0.6225   21.1690 H   0  0  0  0  0  0  0  0  0  0  0  0
    4.8119    1.3050   19.1089 C   0  0  0  0  0  0  0  0  0  0  0  0
    3.8825    1.8375   19.2634 H   0  0  0  0  0  0  0  0  0  0  0  0
  1  2  1  0
  2  3  2  0
  3  4  1  0
  4  5  1  0
  4  6  2  0
  6  7  1  0
  7  8  1  0
  7  9  1  0
  9 10  1  0
 10 11  1  0
 10 12  2  0
 12 13  1  0
 13 14  1  0
 13 15  1  0
 15 16  1  0
 16 17  1  0
 16 18  1  0
 16 19  1  0
 19 20  1  0
 19 21  1  0
 19 22  1  0
 22 23  1  0
 23 24  1  0
 23 25  1  0
 23 26  1  0
 26 27  1  0
 26 28  1  0
 26 29  1  0
 29 30  1  0
 30 31  1  0
 30 32  1  0
 30 33  1  0
 33 34  1  0
 33 35  1  0
  6 36  1  0
 36 37  1  0
 36 38  2  0
 38 39  1  0
 38  2  1  0
 15  9  2  0
 33 22  1  0
M  END
>  <cnnaffinity>  (1) 
-5.3513

>  <filename>  (1) 
c1cncc(Nc2cn[nH]c2CCN2CCOCC2)c1

$$$$
