
     RDKit          3D

 31 34  0  0  0  0  0  0  0  0999 V2000
    4.8080    1.2933   19.1051 C   0  0  0  0  0  0  0  0  0  0  0  0
    5.4096    1.2872   17.8443 C   0  0  0  0  0  0  0  0  0  0  0  0
    6.5774    0.6674   17.6000 N   0  0  0  0  0  0  0  0  0  0  0  0
    7.1740    0.0307   18.6120 C   0  0  0  0  0  0  0  0  0  0  0  0
    6.6452   -0.0183   19.9134 C   0  0  0  0  0  0  0  0  0  0  0  0
    7.3602   -0.6982   20.9387 N   0  0  0  0  0  0  0  0  0  0  0  0
    7.8659   -1.9280   20.7096 N   0  0  0  0  0  0  0  0  0  0  0  0
    8.3500   -2.3321   21.8743 C   0  0  0  0  0  0  0  0  0  0  0  0
    8.1809   -1.3648   22.8816 C   0  0  0  0  0  0  0  0  0  0  0  0
    7.5565   -0.3127   22.2460 C   0  0  0  0  0  0  0  0  0  0  0  0
    7.2589    1.0294   22.7734 C   0  0  0  0  0  0  0  0  0  0  0  0
    6.7321    1.1176   24.0984 C   0  0  0  0  0  0  0  0  0  0  0  0
    6.4448    2.3254   24.6915 C   0  0  0  0  0  0  0  0  0  0  0  0
    6.6974    3.5078   23.9420 C   0  0  0  0  0  0  0  0  0  0  0  0
    6.5585    4.9130   24.1501 C   0  0  0  0  0  0  0  0  0  0  0  0
    6.9540    5.6034   23.1020 N   0  0  0  0  0  0  0  0  0  0  0  0
    7.3558    4.6876   22.1878 N   0  0  0  0  0  0  0  0  0  0  0  0
    7.2325    3.4095   22.6316 C   0  0  0  0  0  0  0  0  0  0  0  0
    7.5310    2.1780   22.0305 C   0  0  0  0  0  0  0  0  0  0  0  0
    7.9302    2.0996   21.0246 H   0  0  0  0  0  0  0  0  0  0  0  0
    7.6985    4.9780   21.2837 H   0  0  0  0  0  0  0  0  0  0  0  0
    6.1865    5.4176   25.0322 H   0  0  0  0  0  0  0  0  0  0  0  0
    6.0521    2.3753   25.7023 H   0  0  0  0  0  0  0  0  0  0  0  0
    6.5558    0.1887   24.6412 H   0  0  0  0  0  0  0  0  0  0  0  0
    8.5150   -1.3719   23.9123 H   0  0  0  0  0  0  0  0  0  0  0  0
    8.8012   -3.3149   21.9481 H   0  0  0  0  0  0  0  0  0  0  0  0
    5.4242    0.6258   20.1639 C   0  0  0  0  0  0  0  0  0  0  0  0
    5.0075    0.6411   21.1734 H   0  0  0  0  0  0  0  0  0  0  0  0
    8.1229   -0.4462   18.3809 H   0  0  0  0  0  0  0  0  0  0  0  0
    4.9406    1.7844   16.9976 H   0  0  0  0  0  0  0  0  0  0  0  0
    3.8835    1.8330   19.2523 H   0  0  0  0  0  0  0  0  0  0  0  0
  1  2  2  0
  2  3  1  0
  3  4  2  0
  4  5  1  0
  5  6  1  0
  6  7  1  0
  7  8  2  0
  8  9  1  0
  9 10  2  0
 10 11  1  0
 11 12  2  0
 12 13  1  0
 13 14  2  0
 14 15  1  0
 15 16  2  0
 16 17  1  0
 17 18  1  0
 18 19  2  0
 19 20  1  0
 17 21  1  0
 15 22  1  0
 13 23  1  0
 12 24  1  0
  9 25  1  0
  8 26  1  0
  5 27  2  0
 27 28  1  0
  4 29  1  0
  2 30  1  0
  1 31  1  0
 27  1  1  0
 10  6  1  0
 19 11  1  0
 18 14  1  0
M  END
>  <cnnaffinity>  (1) 
-5.11208

>  <filename>  (1) 
c1cncc(-n2nccc2-c2ccc3cn[nH]c3c2)c1

$$$$
