
     RDKit          3D

 34 37  0  0  0  0  0  0  0  0999 V2000
    5.0719    1.8544   16.5272 H   0  0  0  0  0  0  0  0  0  0  0  0
    5.4357    1.4026   17.4469 C   0  0  0  0  0  0  0  0  0  0  0  0
    6.6377    0.8070   17.3672 N   0  0  0  0  0  0  0  0  0  0  0  0
    7.1290    0.2548   18.4827 C   0  0  0  0  0  0  0  0  0  0  0  0
    8.1044   -0.2233   18.4170 H   0  0  0  0  0  0  0  0  0  0  0  0
    6.4510    0.2486   19.7150 C   0  0  0  0  0  0  0  0  0  0  0  0
    7.0358   -0.4627   20.7490 O   0  0  0  0  0  0  0  0  0  0  0  0
    7.2162    0.0846   21.9973 C   0  0  0  0  0  0  0  0  0  0  0  0
    7.1903    1.4148   22.4969 C   0  0  0  0  0  0  0  0  0  0  0  0
    6.9974    2.3454   21.9896 H   0  0  0  0  0  0  0  0  0  0  0  0
    7.4875    1.4307   23.7949 N   0  0  0  0  0  0  0  0  0  0  0  0
    7.7084    0.1656   24.1209 N   0  0  0  0  0  0  0  0  0  0  0  0
    8.0067   -0.0989   25.0560 H   0  0  0  0  0  0  0  0  0  0  0  0
    7.5674   -0.6989   23.0825 C   0  0  0  0  0  0  0  0  0  0  0  0
    7.8445   -2.1307   23.2573 C   0  0  0  0  0  0  0  0  0  0  0  0
    8.5312   -2.4313   24.3490 N   0  0  0  0  0  0  0  0  0  0  0  0
    8.8883   -3.7231   24.5569 C   0  0  0  0  0  0  0  0  0  0  0  0
    9.6357   -4.0054   25.7361 C   0  0  0  0  0  0  0  0  0  0  0  0
    9.9020   -3.1488   26.3403 H   0  0  0  0  0  0  0  0  0  0  0  0
    9.9941   -5.2946   26.0487 C   0  0  0  0  0  0  0  0  0  0  0  0
   10.5405   -5.5051   26.9695 H   0  0  0  0  0  0  0  0  0  0  0  0
    9.6223   -6.3574   25.1761 C   0  0  0  0  0  0  0  0  0  0  0  0
    9.9344   -7.3653   25.4412 H   0  0  0  0  0  0  0  0  0  0  0  0
    8.9045   -6.1158   24.0239 C   0  0  0  0  0  0  0  0  0  0  0  0
    8.6481   -6.9268   23.3458 H   0  0  0  0  0  0  0  0  0  0  0  0
    8.5134   -4.7874   23.6765 C   0  0  0  0  0  0  0  0  0  0  0  0
    7.7405   -4.4332   22.5259 C   0  0  0  0  0  0  0  0  0  0  0  0
    7.4473   -5.2060   21.8144 H   0  0  0  0  0  0  0  0  0  0  0  0
    7.3956   -3.1169   22.3218 C   0  0  0  0  0  0  0  0  0  0  0  0
    6.7841   -2.7980   21.4876 H   0  0  0  0  0  0  0  0  0  0  0  0
    5.1961    0.8667   19.7956 C   0  0  0  0  0  0  0  0  0  0  0  0
    4.6207    0.8743   20.7221 H   0  0  0  0  0  0  0  0  0  0  0  0
    4.6888    1.4528   18.6269 C   0  0  0  0  0  0  0  0  0  0  0  0
    3.7271    1.9525   18.6149 H   0  0  0  0  0  0  0  0  0  0  0  0
  1  2  1  0
  2  3  2  0
  3  4  1  0
  4  5  1  0
  4  6  2  0
  6  7  1  0
  7  8  1  0
  8  9  1  0
  9 10  1  0
  9 11  2  0
 11 12  1  0
 12 13  1  0
 12 14  1  0
 14 15  1  0
 15 16  2  0
 16 17  1  0
 17 18  2  0
 18 19  1  0
 18 20  1  0
 20 21  1  0
 20 22  2  0
 22 23  1  0
 22 24  1  0
 24 25  1  0
 24 26  2  0
 26 27  1  0
 27 28  1  0
 27 29  2  0
 29 30  1  0
  6 31  1  0
 31 32  1  0
 31 33  2  0
 33 34  1  0
 33  2  1  0
 14  8  2  0
 29 15  1  0
 26 17  1  0
M  END
>  <cnnaffinity>  (1) 
-5.88258

>  <filename>  (1) 
c1cncc(Oc2cn[nH]c2-c2ccc3ccccc3n2)c1

$$$$
