
     RDKit          3D

 38 40  0  0  0  0  0  0  0  0999 V2000
    6.8428    0.5732   22.5953 H   0  0  0  0  0  0  0  0  0  0  0  0
    7.3871   -0.3196   22.3165 C   0  0  0  0  0  0  0  0  0  0  0  0
    8.0537   -0.9577   23.2924 N   0  0  0  0  0  0  0  0  0  0  0  0
    8.7520   -2.0548   22.9119 C   0  0  0  0  0  0  0  0  0  0  0  0
    9.4739   -2.8422   23.9652 C   0  0  0  0  0  0  0  0  0  0  0  0
    9.6244   -2.1976   24.8371 H   0  0  0  0  0  0  0  0  0  0  0  0
   10.4704   -3.1217   23.5968 H   0  0  0  0  0  0  0  0  0  0  0  0
    8.7242   -4.1189   24.3930 C   0  0  0  0  0  0  0  0  0  0  0  0
    8.5248   -4.7277   23.4942 H   0  0  0  0  0  0  0  0  0  0  0  0
    7.3651   -3.7967   25.0428 C   0  0  0  0  0  0  0  0  0  0  0  0
    7.5383   -3.1361   25.9051 H   0  0  0  0  0  0  0  0  0  0  0  0
    6.7332   -3.2298   24.3496 H   0  0  0  0  0  0  0  0  0  0  0  0
    6.6292   -5.0564   25.5126 C   0  0  0  0  0  0  0  0  0  0  0  0
    5.6911   -4.7839   26.0104 H   0  0  0  0  0  0  0  0  0  0  0  0
    6.3525   -5.6540   24.6323 H   0  0  0  0  0  0  0  0  0  0  0  0
    7.4985   -5.9042   26.4481 C   0  0  0  0  0  0  0  0  0  0  0  0
    7.6766   -5.3516   27.3806 H   0  0  0  0  0  0  0  0  0  0  0  0
    6.9668   -6.8226   26.7249 H   0  0  0  0  0  0  0  0  0  0  0  0
    8.8497   -6.2282   25.8043 C   0  0  0  0  0  0  0  0  0  0  0  0
    9.4734   -6.8200   26.4800 H   0  0  0  0  0  0  0  0  0  0  0  0
    8.6750   -6.8302   24.9135 H   0  0  0  0  0  0  0  0  0  0  0  0
    9.5891   -4.9718   25.3387 C   0  0  0  0  0  0  0  0  0  0  0  0
   10.5259   -5.2601   24.8391 H   0  0  0  0  0  0  0  0  0  0  0  0
    9.8705   -4.3747   26.2170 H   0  0  0  0  0  0  0  0  0  0  0  0
    8.7603   -2.4623   21.5571 C   0  0  0  0  0  0  0  0  0  0  0  0
    9.3175   -3.3429   21.2634 H   0  0  0  0  0  0  0  0  0  0  0  0
    8.1260   -1.8054   20.5780 N   0  0  0  0  0  0  0  0  0  0  0  0
    7.4032   -0.7281   20.9581 C   0  0  0  0  0  0  0  0  0  0  0  0
    6.6619   -0.0064   19.9028 C   0  0  0  0  0  0  0  0  0  0  0  0
    7.1735    0.0469   18.5931 C   0  0  0  0  0  0  0  0  0  0  0  0
    8.1220   -0.4335   18.3644 H   0  0  0  0  0  0  0  0  0  0  0  0
    6.5691    0.6781   17.5851 N   0  0  0  0  0  0  0  0  0  0  0  0
    5.4043    1.2893   17.8456 C   0  0  0  0  0  0  0  0  0  0  0  0
    4.9196    1.7781   17.0031 H   0  0  0  0  0  0  0  0  0  0  0  0
    4.8115    1.3047   19.1117 C   0  0  0  0  0  0  0  0  0  0  0  0
    3.8802    1.8390   19.2617 H   0  0  0  0  0  0  0  0  0  0  0  0
    5.4487    0.6488   20.1631 C   0  0  0  0  0  0  0  0  0  0  0  0
    4.9975    0.6332   21.1585 H   0  0  0  0  0  0  0  0  0  0  0  0
  1  2  1  0
  2  3  2  0
  3  4  1  0
  4  5  1  0
  5  6  1  0
  5  7  1  0
  5  8  1  0
  8  9  1  0
  8 10  1  0
 10 11  1  0
 10 12  1  0
 10 13  1  0
 13 14  1  0
 13 15  1  0
 13 16  1  0
 16 17  1  0
 16 18  1  0
 16 19  1  0
 19 20  1  0
 19 21  1  0
 19 22  1  0
 22 23  1  0
 22 24  1  0
  4 25  2  0
 25 26  1  0
 25 27  1  0
 27 28  2  0
 28 29  1  0
 29 30  2  0
 30 31  1  0
 30 32  1  0
 32 33  2  0
 33 34  1  0
 33 35  1  0
 35 36  1  0
 35 37  2  0
 37 38  1  0
 28  2  1  0
 37 29  1  0
 22  8  1  0
M  END
>  <cnnaffinity>  (1) 
-5.19423

>  <filename>  (1) 
c1cncc(-c2cnc(CC3CCCCC3)cn2)c1

$$$$
