
     RDKit          3D

 38 41  0  0  0  0  0  0  0  0999 V2000
    4.9883    1.8007   16.9953 H   0  0  0  0  0  0  0  0  0  0  0  0
    5.4354    1.2804   17.8396 C   0  0  0  0  0  0  0  0  0  0  0  0
    6.5926    0.6476   17.5972 N   0  0  0  0  0  0  0  0  0  0  0  0
    7.1770    0.0190   18.6212 C   0  0  0  0  0  0  0  0  0  0  0  0
    8.1141   -0.4935   18.4122 H   0  0  0  0  0  0  0  0  0  0  0  0
    6.6520    0.0013   19.9243 C   0  0  0  0  0  0  0  0  0  0  0  0
    7.3963   -0.7004   21.0009 C   0  0  0  0  0  0  0  0  0  0  0  0
    8.1066   -1.7838   20.6322 N   0  0  0  0  0  0  0  0  0  0  0  0
    8.7814   -2.4866   21.5406 N   0  0  0  0  0  0  0  0  0  0  0  0
    8.7955   -2.0941   22.8143 C   0  0  0  0  0  0  0  0  0  0  0  0
    9.3695   -2.7211   23.4813 H   0  0  0  0  0  0  0  0  0  0  0  0
    8.0833   -0.9518   23.2871 C   0  0  0  0  0  0  0  0  0  0  0  0
    8.0898   -0.5284   24.5985 N   0  0  0  0  0  0  0  0  0  0  0  0
    6.8852    0.1165   25.1399 C   0  0  0  0  0  0  0  0  0  0  0  0
    6.0029   -0.4206   24.7679 H   0  0  0  0  0  0  0  0  0  0  0  0
    6.8020    1.1453   24.7486 H   0  0  0  0  0  0  0  0  0  0  0  0
    6.8250    0.1598   26.6602 C   0  0  0  0  0  0  0  0  0  0  0  0
    5.6043    0.1041   27.3481 C   0  0  0  0  0  0  0  0  0  0  0  0
    4.6735   -0.0669   26.8119 H   0  0  0  0  0  0  0  0  0  0  0  0
    5.5676    0.1895   28.7441 C   0  0  0  0  0  0  0  0  0  0  0  0
    4.6237    0.1094   29.2779 H   0  0  0  0  0  0  0  0  0  0  0  0
    6.7499    0.4072   29.4558 C   0  0  0  0  0  0  0  0  0  0  0  0
    6.7310    0.4921   30.5400 H   0  0  0  0  0  0  0  0  0  0  0  0
    7.9708    0.4828   28.7719 C   0  0  0  0  0  0  0  0  0  0  0  0
    8.8859    0.6397   29.3371 H   0  0  0  0  0  0  0  0  0  0  0  0
    8.0249    0.2894   27.3860 C   0  0  0  0  0  0  0  0  0  0  0  0
    9.3266    0.1897   26.6185 C   0  0  0  0  0  0  0  0  0  0  0  0
    9.5978    1.1669   26.2048 H   0  0  0  0  0  0  0  0  0  0  0  0
   10.1439   -0.1107   27.2787 H   0  0  0  0  0  0  0  0  0  0  0  0
    9.2379   -0.8061   25.4621 C   0  0  0  0  0  0  0  0  0  0  0  0
   10.1517   -0.7363   24.8576 H   0  0  0  0  0  0  0  0  0  0  0  0
    9.1755   -1.8367   25.8404 H   0  0  0  0  0  0  0  0  0  0  0  0
    7.3538   -0.2579   22.3252 C   0  0  0  0  0  0  0  0  0  0  0  0
    6.7976    0.6283   22.6139 H   0  0  0  0  0  0  0  0  0  0  0  0
    5.4328    0.6515   20.1581 C   0  0  0  0  0  0  0  0  0  0  0  0
    4.9739    0.6452   21.1503 H   0  0  0  0  0  0  0  0  0  0  0  0
    4.8093    1.2971   19.0916 C   0  0  0  0  0  0  0  0  0  0  0  0
    3.8722    1.8287   19.2222 H   0  0  0  0  0  0  0  0  0  0  0  0
  1  2  1  0
  2  3  2  0
  3  4  1  0
  4  5  1  0
  4  6  2  0
  6  7  1  0
  7  8  2  0
  8  9  1  0
  9 10  2  0
 10 11  1  0
 10 12  1  0
 12 13  1  0
 13 14  1  0
 14 15  1  0
 14 16  1  0
 14 17  1  0
 17 18  2  0
 18 19  1  0
 18 20  1  0
 20 21  1  0
 20 22  2  0
 22 23  1  0
 22 24  1  0
 24 25  1  0
 24 26  2  0
 26 27  1  0
 27 28  1  0
 27 29  1  0
 27 30  1  0
 30 31  1  0
 30 32  1  0
 12 33  2  0
 33 34  1  0
  6 35  1  0
 35 36  1  0
 35 37  2  0
 37 38  1  0
 37  2  1  0
 33  7  1  0
 30 13  1  0
 26 17  1  0
M  END
>  <cnnaffinity>  (1) 
-5.35041

>  <filename>  (1) 
c1cncc(-c2cc(N3CCc4ccccc4C3)cnn2)c1

$$$$
