
     RDKit          3D

 33 37  0  0  0  0  0  0  0  0999 V2000
    4.9119    1.8141   16.9689 H   0  0  0  0  0  0  0  0  0  0  0  0
    5.3767    1.3066   17.8153 C   0  0  0  0  0  0  0  0  0  0  0  0
    6.5395    0.6863   17.5594 N   0  0  0  0  0  0  0  0  0  0  0  0
    7.1518    0.0766   18.5792 C   0  0  0  0  0  0  0  0  0  0  0  0
    8.1027   -0.3907   18.3325 H   0  0  0  0  0  0  0  0  0  0  0  0
    6.6639    0.0253   19.9063 C   0  0  0  0  0  0  0  0  0  0  0  0
    7.4153   -0.6810   20.9602 C   0  0  0  0  0  0  0  0  0  0  0  0
    8.3241   -1.7151   20.9053 C   0  0  0  0  0  0  0  0  0  0  0  0
    8.7278   -2.1310   20.0039 H   0  0  0  0  0  0  0  0  0  0  0  0
    8.7861   -2.1202   22.1275 N   0  0  0  0  0  0  0  0  0  0  0  0
    8.1880   -1.2969   22.9482 C   0  0  0  0  0  0  0  0  0  0  0  0
    8.2904   -0.9122   24.6230 S   0  0  0  0  0  0  0  0  0  0  0  0
    7.1891    0.4375   24.2943 C   0  0  0  0  0  0  0  0  0  0  0  0
    6.8218    1.3408   25.3753 C   0  0  0  0  0  0  0  0  0  0  0  0
    7.4834    1.3995   26.5656 C   0  0  0  0  0  0  0  0  0  0  0  0
    8.3341    0.8003   26.8795 H   0  0  0  0  0  0  0  0  0  0  0  0
    6.8430    2.5755   27.6423 S   0  0  0  0  0  0  0  0  0  0  0  0
    5.6129    3.0337   26.5000 C   0  0  0  0  0  0  0  0  0  0  0  0
    4.6228    4.0199   26.6632 C   0  0  0  0  0  0  0  0  0  0  0  0
    4.5654    4.6056   27.5757 H   0  0  0  0  0  0  0  0  0  0  0  0
    3.7208    4.2252   25.6264 C   0  0  0  0  0  0  0  0  0  0  0  0
    2.9546    4.9859   25.7349 H   0  0  0  0  0  0  0  0  0  0  0  0
    3.7870    3.4671   24.4386 C   0  0  0  0  0  0  0  0  0  0  0  0
    3.0731    3.6572   23.6405 H   0  0  0  0  0  0  0  0  0  0  0  0
    4.7675    2.5003   24.2795 C   0  0  0  0  0  0  0  0  0  0  0  0
    4.8561    1.9145   23.3712 H   0  0  0  0  0  0  0  0  0  0  0  0
    5.7073    2.2788   25.3145 C   0  0  0  0  0  0  0  0  0  0  0  0
    6.7814    0.5483   23.0640 N   0  0  0  0  0  0  0  0  0  0  0  0
    7.3466   -0.4220   22.3259 N   0  0  0  0  0  0  0  0  0  0  0  0
    5.4317    0.6635   20.1412 C   0  0  0  0  0  0  0  0  0  0  0  0
    5.0145    0.6443   21.1457 H   0  0  0  0  0  0  0  0  0  0  0  0
    4.7893    1.3155   19.0838 C   0  0  0  0  0  0  0  0  0  0  0  0
    3.8577    1.8472   19.2309 H   0  0  0  0  0  0  0  0  0  0  0  0
  1  2  1  0
  2  3  2  0
  3  4  1  0
  4  5  1  0
  4  6  2  0
  6  7  1  0
  7  8  2  0
  8  9  1  0
  8 10  1  0
 10 11  2  0
 11 12  1  0
 12 13  1  0
 13 14  1  0
 14 15  2  0
 15 16  1  0
 15 17  1  0
 17 18  1  0
 18 19  2  0
 19 20  1  0
 19 21  1  0
 21 22  1  0
 21 23  2  0
 23 24  1  0
 23 25  1  0
 25 26  1  0
 25 27  2  0
 13 28  2  0
 28 29  1  0
  6 30  1  0
 30 31  1  0
 30 32  2  0
 32 33  1  0
 32  2  1  0
 29  7  1  0
 29 11  1  0
 27 14  1  0
 27 18  1  0
M  END
>  <cnnaffinity>  (1) 
-5.46862

>  <filename>  (1) 
c1cncc(-c2cnc3sc(-c4csc5ccccc45)nn23)c1

$$$$
