
     RDKit          3D

 27 29  0  0  0  0  0  0  0  0999 V2000
   12.0009    2.7495   24.1993 H   0  0  0  0  0  0  0  0  0  0  0  0
   11.7528    2.0168   23.4382 C   0  0  0  0  0  0  0  0  0  0  0  0
   12.4852    0.9860   23.1487 N   0  0  0  0  0  0  0  0  0  0  0  0
   11.8912    0.2719   22.1361 C   0  0  0  0  0  0  0  0  0  0  0  0
   12.3834   -0.6267   21.7803 H   0  0  0  0  0  0  0  0  0  0  0  0
   10.7057    0.7439   21.6580 C   0  0  0  0  0  0  0  0  0  0  0  0
    9.7766    0.1066   20.6737 C   0  0  0  0  0  0  0  0  0  0  0  0
   10.3458   -0.5956   20.0615 H   0  0  0  0  0  0  0  0  0  0  0  0
    9.3531    0.8638   20.0033 H   0  0  0  0  0  0  0  0  0  0  0  0
    8.6823   -0.6931   21.3151 C   0  0  0  0  0  0  0  0  0  0  0  0
    8.7948   -1.6122   22.3839 C   0  0  0  0  0  0  0  0  0  0  0  0
    9.6814   -1.9060   22.9386 H   0  0  0  0  0  0  0  0  0  0  0  0
    7.6177   -2.1328   22.7048 N   0  0  0  0  0  0  0  0  0  0  0  0
    6.7558   -1.5567   21.8515 N   0  0  0  0  0  0  0  0  0  0  0  0
    5.7728   -1.7868   21.9051 H   0  0  0  0  0  0  0  0  0  0  0  0
    7.3456   -0.7087   20.9690 C   0  0  0  0  0  0  0  0  0  0  0  0
    6.6221    0.0040   19.9000 C   0  0  0  0  0  0  0  0  0  0  0  0
    7.1386    0.0615   18.5896 C   0  0  0  0  0  0  0  0  0  0  0  0
    8.0869   -0.4215   18.3626 H   0  0  0  0  0  0  0  0  0  0  0  0
    6.5423    0.6784   17.5597 N   0  0  0  0  0  0  0  0  0  0  0  0
    5.3841    1.3082   17.8099 C   0  0  0  0  0  0  0  0  0  0  0  0
    4.9255    1.8138   16.9603 H   0  0  0  0  0  0  0  0  0  0  0  0
    4.7838    1.3260   19.0754 C   0  0  0  0  0  0  0  0  0  0  0  0
    3.8547    1.8655   19.2164 H   0  0  0  0  0  0  0  0  0  0  0  0
    5.4035    0.6614   20.1346 C   0  0  0  0  0  0  0  0  0  0  0  0
    4.9793    0.6689   21.1391 H   0  0  0  0  0  0  0  0  0  0  0  0
   10.3055    2.1904   22.5054 S   0  0  0  0  0  0  0  0  0  0  0  0
  1  2  1  0
  2  3  2  0
  3  4  1  0
  4  5  1  0
  4  6  2  0
  6  7  1  0
  7  8  1  0
  7  9  1  0
  7 10  1  0
 10 11  1  0
 11 12  1  0
 11 13  2  0
 13 14  1  0
 14 15  1  0
 14 16  1  0
 16 17  1  0
 17 18  2  0
 18 19  1  0
 18 20  1  0
 20 21  2  0
 21 22  1  0
 21 23  1  0
 23 24  1  0
 23 25  2  0
 25 26  1  0
  6 27  1  0
 27  2  1  0
 16 10  2  0
 25 17  1  0
M  END
>  <cnnaffinity>  (1) 
-5.30419

>  <filename>  (1) 
c1cncc(-c2[nH]ncc2Cc2cncs2)c1

$$$$
