
     RDKit          3D

 39 42  0  0  0  0  0  0  0  0999 V2000
    4.9805    1.7864   17.0095 H   0  0  0  0  0  0  0  0  0  0  0  0
    5.4276    1.2714   17.8552 C   0  0  0  0  0  0  0  0  0  0  0  0
    6.5839    0.6400   17.6057 N   0  0  0  0  0  0  0  0  0  0  0  0
    7.1764    0.0173   18.6292 C   0  0  0  0  0  0  0  0  0  0  0  0
    8.1185   -0.4727   18.3912 H   0  0  0  0  0  0  0  0  0  0  0  0
    6.6539   -0.0005   19.9358 C   0  0  0  0  0  0  0  0  0  0  0  0
    7.4003   -0.6871   21.0105 C   0  0  0  0  0  0  0  0  0  0  0  0
    8.1116   -1.7554   20.6271 N   0  0  0  0  0  0  0  0  0  0  0  0
    8.7478   -2.4500   21.5730 C   0  0  0  0  0  0  0  0  0  0  0  0
    9.2575   -3.3473   21.2257 H   0  0  0  0  0  0  0  0  0  0  0  0
    8.7831   -2.0919   22.9106 C   0  0  0  0  0  0  0  0  0  0  0  0
    9.3348   -2.6714   23.6405 H   0  0  0  0  0  0  0  0  0  0  0  0
    8.0746   -0.9398   23.3015 C   0  0  0  0  0  0  0  0  0  0  0  0
    8.0879   -0.5110   24.6048 N   0  0  0  0  0  0  0  0  0  0  0  0
    6.8818    0.1143   25.1572 C   0  0  0  0  0  0  0  0  0  0  0  0
    6.8079    1.1495   24.7818 H   0  0  0  0  0  0  0  0  0  0  0  0
    6.0134   -0.4321   24.7612 H   0  0  0  0  0  0  0  0  0  0  0  0
    6.8193    0.1534   26.6834 C   0  0  0  0  0  0  0  0  0  0  0  0
    5.6004    0.1227   27.3769 C   0  0  0  0  0  0  0  0  0  0  0  0
    4.6696    0.0074   26.8244 H   0  0  0  0  0  0  0  0  0  0  0  0
    5.5720    0.2285   28.7756 C   0  0  0  0  0  0  0  0  0  0  0  0
    4.6268    0.1353   29.3058 H   0  0  0  0  0  0  0  0  0  0  0  0
    6.7652    0.3880   29.4836 C   0  0  0  0  0  0  0  0  0  0  0  0
    6.7586    0.3854   30.5737 H   0  0  0  0  0  0  0  0  0  0  0  0
    7.9845    0.4333   28.7901 C   0  0  0  0  0  0  0  0  0  0  0  0
    8.9214    0.4897   29.3416 H   0  0  0  0  0  0  0  0  0  0  0  0
    8.0260    0.2827   27.3981 C   0  0  0  0  0  0  0  0  0  0  0  0
    9.3261    0.2329   26.6109 C   0  0  0  0  0  0  0  0  0  0  0  0
   10.1664   -0.0732   27.2438 H   0  0  0  0  0  0  0  0  0  0  0  0
    9.5401    1.2364   26.2108 H   0  0  0  0  0  0  0  0  0  0  0  0
    9.2551   -0.7583   25.4416 C   0  0  0  0  0  0  0  0  0  0  0  0
    9.2465   -1.7981   25.8128 H   0  0  0  0  0  0  0  0  0  0  0  0
   10.1596   -0.6550   24.8218 H   0  0  0  0  0  0  0  0  0  0  0  0
    7.3569   -0.2364   22.3256 C   0  0  0  0  0  0  0  0  0  0  0  0
    6.8170    0.6654   22.5937 H   0  0  0  0  0  0  0  0  0  0  0  0
    5.4325    0.6480   20.1738 C   0  0  0  0  0  0  0  0  0  0  0  0
    4.9804    0.6475   21.1694 H   0  0  0  0  0  0  0  0  0  0  0  0
    4.8095    1.2938   19.1098 C   0  0  0  0  0  0  0  0  0  0  0  0
    3.8789    1.8310   19.2460 H   0  0  0  0  0  0  0  0  0  0  0  0
  1  2  1  0
  2  3  2  0
  3  4  1  0
  4  5  1  0
  4  6  2  0
  6  7  1  0
  7  8  2  0
  8  9  1  0
  9 10  1  0
  9 11  2  0
 11 12  1  0
 11 13  1  0
 13 14  1  0
 14 15  1  0
 15 16  1  0
 15 17  1  0
 15 18  1  0
 18 19  2  0
 19 20  1  0
 19 21  1  0
 21 22  1  0
 21 23  2  0
 23 24  1  0
 23 25  1  0
 25 26  1  0
 25 27  2  0
 27 28  1  0
 28 29  1  0
 28 30  1  0
 28 31  1  0
 31 32  1  0
 31 33  1  0
 13 34  2  0
 34 35  1  0
  6 36  1  0
 36 37  1  0
 36 38  2  0
 38 39  1  0
 38  2  1  0
 34  7  1  0
 31 14  1  0
 27 18  1  0
M  END
>  <cnnaffinity>  (1) 
-5.2667

>  <filename>  (1) 
c1cncc(-c2cc(N3CCc4ccccc4C3)ccn2)c1

$$$$
