
     RDKit          3D

 35 39  0  0  0  0  0  0  0  0999 V2000
    5.0318    1.8886   17.1512 H   0  0  0  0  0  0  0  0  0  0  0  0
    5.4823    1.2445   17.9044 C   0  0  0  0  0  0  0  0  0  0  0  0
    6.6052    0.6042   17.5377 N   0  0  0  0  0  0  0  0  0  0  0  0
    7.2181   -0.1390   18.4664 C   0  0  0  0  0  0  0  0  0  0  0  0
    8.1427   -0.6294   18.1503 H   0  0  0  0  0  0  0  0  0  0  0  0
    6.7308   -0.3063   19.7775 C   0  0  0  0  0  0  0  0  0  0  0  0
    7.5529   -0.9838   20.7880 C   0  0  0  0  0  0  0  0  0  0  0  0
    8.8560   -0.7326   21.0173 C   0  0  0  0  0  0  0  0  0  0  0  0
    9.5050   -0.1108   20.4188 H   0  0  0  0  0  0  0  0  0  0  0  0
    9.4320   -1.4235   22.5061 S   0  0  0  0  0  0  0  0  0  0  0  0
    7.8488   -2.0615   22.8251 C   0  0  0  0  0  0  0  0  0  0  0  0
    7.2250   -2.7292   23.7717 N   0  0  0  0  0  0  0  0  0  0  0  0
    5.9879   -2.9038   23.2357 C   0  0  0  0  0  0  0  0  0  0  0  0
    4.8980   -3.6038   23.9107 C   0  0  0  0  0  0  0  0  0  0  0  0
    4.0219   -4.2744   23.0898 C   0  0  0  0  0  0  0  0  0  0  0  0
    4.2084   -4.3212   22.0211 H   0  0  0  0  0  0  0  0  0  0  0  0
    2.8960   -4.9010   23.5068 N   0  0  0  0  0  0  0  0  0  0  0  0
    2.6293   -4.8733   24.7969 C   0  0  0  0  0  0  0  0  0  0  0  0
    1.7021   -5.3461   25.1227 H   0  0  0  0  0  0  0  0  0  0  0  0
    3.4572   -4.2500   25.7773 C   0  0  0  0  0  0  0  0  0  0  0  0
    3.1377   -4.2912   27.1728 C   0  0  0  0  0  0  0  0  0  0  0  0
    2.2619   -4.8512   27.5037 H   0  0  0  0  0  0  0  0  0  0  0  0
    3.9475   -3.6635   28.0873 C   0  0  0  0  0  0  0  0  0  0  0  0
    3.7197   -3.7036   29.1511 H   0  0  0  0  0  0  0  0  0  0  0  0
    5.1042   -2.9625   27.6500 C   0  0  0  0  0  0  0  0  0  0  0  0
    5.7179   -2.4477   28.3853 H   0  0  0  0  0  0  0  0  0  0  0  0
    5.4570   -2.9430   26.3153 C   0  0  0  0  0  0  0  0  0  0  0  0
    6.3557   -2.4395   25.9855 H   0  0  0  0  0  0  0  0  0  0  0  0
    4.6390   -3.5809   25.3295 C   0  0  0  0  0  0  0  0  0  0  0  0
    5.8252   -2.3969   22.0081 N   0  0  0  0  0  0  0  0  0  0  0  0
    7.0268   -1.8033   21.7907 N   0  0  0  0  0  0  0  0  0  0  0  0
    5.5185    0.3108   20.1215 C   0  0  0  0  0  0  0  0  0  0  0  0
    5.1071    0.1411   21.1189 H   0  0  0  0  0  0  0  0  0  0  0  0
    4.9013    1.1232   19.1734 C   0  0  0  0  0  0  0  0  0  0  0  0
    4.0024    1.6786   19.4137 H   0  0  0  0  0  0  0  0  0  0  0  0
  1  2  1  0
  2  3  2  0
  3  4  1  0
  4  5  1  0
  4  6  2  0
  6  7  1  0
  7  8  2  0
  8  9  1  0
  8 10  1  0
 10 11  1  0
 11 12  2  0
 12 13  1  0
 13 14  1  0
 14 15  2  0
 15 16  1  0
 15 17  1  0
 17 18  2  0
 18 19  1  0
 18 20  1  0
 20 21  2  0
 21 22  1  0
 21 23  1  0
 23 24  1  0
 23 25  2  0
 25 26  1  0
 25 27  1  0
 27 28  1  0
 27 29  2  0
 13 30  2  0
 30 31  1  0
  6 32  1  0
 32 33  1  0
 32 34  2  0
 34 35  1  0
 34  2  1  0
 31  7  1  0
 31 11  1  0
 29 14  1  0
 29 20  1  0
M  END
>  <cnnaffinity>  (1) 
-5.71168

>  <filename>  (1) 
c1cncc(-c2csc3nc(-c4cncc5ccccc45)nn23)c1

$$$$
