
     RDKit          3D

 34 38  0  0  0  0  0  0  0  0999 V2000
    4.9324    1.7732   17.0015 H   0  0  0  0  0  0  0  0  0  0  0  0
    5.4095    1.2849   17.8463 C   0  0  0  0  0  0  0  0  0  0  0  0
    6.5735    0.6660   17.5960 N   0  0  0  0  0  0  0  0  0  0  0  0
    7.1779    0.0524   18.6174 C   0  0  0  0  0  0  0  0  0  0  0  0
    8.1250   -0.4323   18.3872 H   0  0  0  0  0  0  0  0  0  0  0  0
    6.6428    0.0169   19.9123 C   0  0  0  0  0  0  0  0  0  0  0  0
    7.3665   -0.6887   20.9632 C   0  0  0  0  0  0  0  0  0  0  0  0
    8.5501   -1.3265   20.7493 N   0  0  0  0  0  0  0  0  0  0  0  0
    8.8143   -1.8061   21.9454 C   0  0  0  0  0  0  0  0  0  0  0  0
   10.0371   -2.7489   22.7488 S   0  0  0  0  0  0  0  0  0  0  0  0
    9.1391   -2.6552   24.2352 C   0  0  0  0  0  0  0  0  0  0  0  0
    9.5463   -3.1022   25.1298 H   0  0  0  0  0  0  0  0  0  0  0  0
    7.9936   -1.9432   24.1287 C   0  0  0  0  0  0  0  0  0  0  0  0
    7.0333   -1.6104   25.1601 C   0  0  0  0  0  0  0  0  0  0  0  0
    6.2737   -0.4676   25.2844 C   0  0  0  0  0  0  0  0  0  0  0  0
    6.2209    0.3787   24.5975 H   0  0  0  0  0  0  0  0  0  0  0  0
    5.5375   -0.5465   26.4405 N   0  0  0  0  0  0  0  0  0  0  0  0
    4.8871    0.1378   26.7793 H   0  0  0  0  0  0  0  0  0  0  0  0
    5.7753   -1.7454   27.0746 C   0  0  0  0  0  0  0  0  0  0  0  0
    5.2026   -2.2823   28.2441 C   0  0  0  0  0  0  0  0  0  0  0  0
    4.5123   -1.6864   28.8439 H   0  0  0  0  0  0  0  0  0  0  0  0
    5.5761   -3.5739   28.6073 C   0  0  0  0  0  0  0  0  0  0  0  0
    5.2347   -3.9820   29.5584 H   0  0  0  0  0  0  0  0  0  0  0  0
    6.5519   -4.2922   27.8555 C   0  0  0  0  0  0  0  0  0  0  0  0
    6.8982   -5.2650   28.2024 H   0  0  0  0  0  0  0  0  0  0  0  0
    7.1123   -3.7446   26.7075 C   0  0  0  0  0  0  0  0  0  0  0  0
    7.8149   -4.3197   26.1080 H   0  0  0  0  0  0  0  0  0  0  0  0
    6.7214   -2.4502   26.3024 C   0  0  0  0  0  0  0  0  0  0  0  0
    7.8472   -1.4734   22.8232 N   0  0  0  0  0  0  0  0  0  0  0  0
    6.8925   -0.7425   22.2048 N   0  0  0  0  0  0  0  0  0  0  0  0
    5.4223    0.6599   20.1697 C   0  0  0  0  0  0  0  0  0  0  0  0
    4.9961    0.6374   21.1781 H   0  0  0  0  0  0  0  0  0  0  0  0
    4.8041    1.3101   19.1081 C   0  0  0  0  0  0  0  0  0  0  0  0
    3.8736    1.8434   19.2542 H   0  0  0  0  0  0  0  0  0  0  0  0
  1  2  1  0
  2  3  2  0
  3  4  1  0
  4  5  1  0
  4  6  2  0
  6  7  1  0
  7  8  1  0
  8  9  2  0
  9 10  1  0
 10 11  1  0
 11 12  1  0
 11 13  2  0
 13 14  1  0
 14 15  2  0
 15 16  1  0
 15 17  1  0
 17 18  1  0
 17 19  1  0
 19 20  2  0
 20 21  1  0
 20 22  1  0
 22 23  1  0
 22 24  2  0
 24 25  1  0
 24 26  1  0
 26 27  1  0
 26 28  2  0
 13 29  1  0
 29 30  1  0
  6 31  1  0
 31 32  1  0
 31 33  2  0
 33 34  1  0
 33  2  1  0
 30  7  2  0
 29  9  1  0
 28 14  1  0
 28 19  1  0
M  END
>  <cnnaffinity>  (1) 
-5.71878

>  <filename>  (1) 
c1cncc(-c2nc3scc(-c4c[nH]c5ccccc45)n3n2)c1

$$$$
