
     RDKit          3D

 36 40  0  0  0  0  0  0  0  0999 V2000
    4.9433    1.7935   16.9250 H   0  0  0  0  0  0  0  0  0  0  0  0
    5.4310    1.3165   17.7722 C   0  0  0  0  0  0  0  0  0  0  0  0
    6.6016    0.7128   17.5141 N   0  0  0  0  0  0  0  0  0  0  0  0
    7.2237    0.1147   18.5349 C   0  0  0  0  0  0  0  0  0  0  0  0
    8.1645   -0.3831   18.3087 H   0  0  0  0  0  0  0  0  0  0  0  0
    6.7212    0.0878   19.8474 C   0  0  0  0  0  0  0  0  0  0  0  0
    7.4193   -0.6618   20.9057 C   0  0  0  0  0  0  0  0  0  0  0  0
    8.6387   -1.1979   20.7390 N   0  0  0  0  0  0  0  0  0  0  0  0
    8.7994   -1.9075   21.8813 N   0  0  0  0  0  0  0  0  0  0  0  0
    9.7461   -2.8043   22.3544 C   0  0  0  0  0  0  0  0  0  0  0  0
   10.7122   -2.8849   21.8896 H   0  0  0  0  0  0  0  0  0  0  0  0
    9.1985   -3.3734   23.4596 C   0  0  0  0  0  0  0  0  0  0  0  0
    9.5808   -4.1693   24.0734 H   0  0  0  0  0  0  0  0  0  0  0  0
    7.9442   -2.8086   23.7060 N   0  0  0  0  0  0  0  0  0  0  0  0
    6.9854   -3.1704   24.6897 C   0  0  0  0  0  0  0  0  0  0  0  0
    6.6229   -4.5084   24.8708 C   0  0  0  0  0  0  0  0  0  0  0  0
    7.1216   -5.2729   24.2770 H   0  0  0  0  0  0  0  0  0  0  0  0
    5.5845   -4.8597   25.7643 C   0  0  0  0  0  0  0  0  0  0  0  0
    5.3002   -5.9080   25.8533 H   0  0  0  0  0  0  0  0  0  0  0  0
    4.9147   -3.8926   26.5077 C   0  0  0  0  0  0  0  0  0  0  0  0
    4.0991   -4.1469   27.1811 H   0  0  0  0  0  0  0  0  0  0  0  0
    5.3113   -2.5525   26.3450 C   0  0  0  0  0  0  0  0  0  0  0  0
    6.3356   -2.1603   25.4528 C   0  0  0  0  0  0  0  0  0  0  0  0
    6.4282   -0.7241   25.5513 C   0  0  0  0  0  0  0  0  0  0  0  0
    7.1053   -0.0936   24.9867 H   0  0  0  0  0  0  0  0  0  0  0  0
    5.4988   -0.3100   26.4605 C   0  0  0  0  0  0  0  0  0  0  0  0
    5.2517    0.6895   26.8060 H   0  0  0  0  0  0  0  0  0  0  0  0
    4.8263   -1.4156   26.9397 N   0  0  0  0  0  0  0  0  0  0  0  0
    4.0808   -1.4288   27.6146 H   0  0  0  0  0  0  0  0  0  0  0  0
    7.7302   -1.8792   22.6996 C   0  0  0  0  0  0  0  0  0  0  0  0
    6.8257   -1.0005   22.1397 C   0  0  0  0  0  0  0  0  0  0  0  0
    5.9606   -0.5387   22.5769 H   0  0  0  0  0  0  0  0  0  0  0  0
    5.4912    0.7222   20.0995 C   0  0  0  0  0  0  0  0  0  0  0  0
    5.0429    0.7254   21.0973 H   0  0  0  0  0  0  0  0  0  0  0  0
    4.8388    1.3444   19.0410 C   0  0  0  0  0  0  0  0  0  0  0  0
    3.8830    1.8379   19.1821 H   0  0  0  0  0  0  0  0  0  0  0  0
  1  2  1  0
  2  3  2  0
  3  4  1  0
  4  5  1  0
  4  6  2  0
  6  7  1  0
  7  8  2  0
  8  9  1  0
  9 10  1  0
 10 11  1  0
 10 12  2  0
 12 13  1  0
 12 14  1  0
 14 15  1  0
 15 16  2  0
 16 17  1  0
 16 18  1  0
 18 19  1  0
 18 20  2  0
 20 21  1  0
 20 22  1  0
 22 23  2  0
 23 24  1  0
 24 25  1  0
 24 26  2  0
 26 27  1  0
 26 28  1  0
 28 29  1  0
 14 30  1  0
 30 31  2  0
 31 32  1  0
  6 33  1  0
 33 34  1  0
 33 35  2  0
 35 36  1  0
 35  2  1  0
 31  7  1  0
 30  9  1  0
 23 15  1  0
 28 22  1  0
M  END
>  <cnnaffinity>  (1) 
-5.87553

>  <filename>  (1) 
c1cncc(-c2cc3n(-c4cccc5[nH]ccc45)ccn3n2)c1

$$$$
