
     RDKit          3D

 34 38  0  0  0  0  0  0  0  0999 V2000
    4.9286    1.7727   17.0025 H   0  0  0  0  0  0  0  0  0  0  0  0
    5.4097    1.2853   17.8466 C   0  0  0  0  0  0  0  0  0  0  0  0
    6.5744    0.6668   17.5949 N   0  0  0  0  0  0  0  0  0  0  0  0
    7.1795    0.0531   18.6165 C   0  0  0  0  0  0  0  0  0  0  0  0
    8.1259   -0.4325   18.3857 H   0  0  0  0  0  0  0  0  0  0  0  0
    6.6450    0.0166   19.9118 C   0  0  0  0  0  0  0  0  0  0  0  0
    7.3647   -0.6886   20.9650 C   0  0  0  0  0  0  0  0  0  0  0  0
    8.5486   -1.3267   20.7528 N   0  0  0  0  0  0  0  0  0  0  0  0
    8.8035   -1.8173   21.9454 C   0  0  0  0  0  0  0  0  0  0  0  0
    9.9971   -2.8171   22.7235 S   0  0  0  0  0  0  0  0  0  0  0  0
    9.0823   -2.7690   24.1981 C   0  0  0  0  0  0  0  0  0  0  0  0
    9.4583   -3.2890   25.0683 H   0  0  0  0  0  0  0  0  0  0  0  0
    7.9623   -2.0166   24.1107 C   0  0  0  0  0  0  0  0  0  0  0  0
    6.9786   -1.7715   25.1833 C   0  0  0  0  0  0  0  0  0  0  0  0
    6.2447   -0.5427   25.2629 C   0  0  0  0  0  0  0  0  0  0  0  0
    6.4010    0.2193   24.5023 H   0  0  0  0  0  0  0  0  0  0  0  0
    5.3337   -0.3298   26.2837 C   0  0  0  0  0  0  0  0  0  0  0  0
    4.7623    0.5928   26.3502 H   0  0  0  0  0  0  0  0  0  0  0  0
    5.1326   -1.3309   27.2531 C   0  0  0  0  0  0  0  0  0  0  0  0
    4.2952   -1.4408   28.4117 C   0  0  0  0  0  0  0  0  0  0  0  0
    3.6091   -0.6791   28.7469 H   0  0  0  0  0  0  0  0  0  0  0  0
    4.5346   -2.6597   28.9783 C   0  0  0  0  0  0  0  0  0  0  0  0
    4.1067   -3.1105   29.8686 H   0  0  0  0  0  0  0  0  0  0  0  0
    5.4779   -3.3284   28.2193 N   0  0  0  0  0  0  0  0  0  0  0  0
    5.8692   -4.2338   28.4056 H   0  0  0  0  0  0  0  0  0  0  0  0
    5.8678   -2.5378   27.1667 C   0  0  0  0  0  0  0  0  0  0  0  0
    6.7949   -2.7729   26.1493 C   0  0  0  0  0  0  0  0  0  0  0  0
    7.3344   -3.7208   26.1156 H   0  0  0  0  0  0  0  0  0  0  0  0
    7.8383   -1.4825   22.8265 N   0  0  0  0  0  0  0  0  0  0  0  0
    6.8853   -0.7508   22.2027 N   0  0  0  0  0  0  0  0  0  0  0  0
    5.4245    0.6591   20.1688 C   0  0  0  0  0  0  0  0  0  0  0  0
    4.9981    0.6351   21.1768 H   0  0  0  0  0  0  0  0  0  0  0  0
    4.8044    1.3099   19.1088 C   0  0  0  0  0  0  0  0  0  0  0  0
    3.8738    1.8432   19.2571 H   0  0  0  0  0  0  0  0  0  0  0  0
  1  2  1  0
  2  3  2  0
  3  4  1  0
  4  5  1  0
  4  6  2  0
  6  7  1  0
  7  8  1  0
  8  9  2  0
  9 10  1  0
 10 11  1  0
 11 12  1  0
 11 13  2  0
 13 14  1  0
 14 15  2  0
 15 16  1  0
 15 17  1  0
 17 18  1  0
 17 19  2  0
 19 20  1  0
 20 21  1  0
 20 22  2  0
 22 23  1  0
 22 24  1  0
 24 25  1  0
 24 26  1  0
 26 27  2  0
 27 28  1  0
 13 29  1  0
 29 30  1  0
  6 31  1  0
 31 32  1  0
 31 33  2  0
 33 34  1  0
 33  2  1  0
 30  7  2  0
 29  9  1  0
 27 14  1  0
 26 19  1  0
M  END
>  <cnnaffinity>  (1) 
-5.75131

>  <filename>  (1) 
c1cncc(-c2nc3scc(-c4ccc5cc[nH]c5c4)n3n2)c1

$$$$
