
     RDKit          3D

 43 46  0  0  0  0  0  0  0  0999 V2000
    4.9560    1.8198   16.9631 H   0  0  0  0  0  0  0  0  0  0  0  0
    5.4071    1.2984   17.8038 C   0  0  0  0  0  0  0  0  0  0  0  0
    6.5591    0.6534   17.5585 N   0  0  0  0  0  0  0  0  0  0  0  0
    7.1441    0.0202   18.5794 C   0  0  0  0  0  0  0  0  0  0  0  0
    8.0797   -0.4931   18.3588 H   0  0  0  0  0  0  0  0  0  0  0  0
    6.6259    0.0139   19.8841 C   0  0  0  0  0  0  0  0  0  0  0  0
    7.3497   -0.6652   20.9565 C   0  0  0  0  0  0  0  0  0  0  0  0
    7.9507   -1.8975   20.7571 N   0  0  0  0  0  0  0  0  0  0  0  0
    8.3807   -2.2335   21.9393 C   0  0  0  0  0  0  0  0  0  0  0  0
    9.1208   -3.6361   22.6757 S   0  0  0  0  0  0  0  0  0  0  0  0
    9.2374   -2.7962   24.2088 C   0  0  0  0  0  0  0  0  0  0  0  0
    9.7641   -3.2765   25.0233 H   0  0  0  0  0  0  0  0  0  0  0  0
    8.6723   -1.5795   24.1687 C   0  0  0  0  0  0  0  0  0  0  0  0
    8.5537   -0.8680   24.9795 H   0  0  0  0  0  0  0  0  0  0  0  0
    8.1777   -1.2693   22.9038 N   0  0  0  0  0  0  0  0  0  0  0  0
    7.5232   -0.2410   22.2683 C   0  0  0  0  0  0  0  0  0  0  0  0
    7.1997    0.8668   22.9515 O   0  0  0  0  0  0  0  0  0  0  0  0
    7.5989    2.1249   22.3663 C   0  0  0  0  0  0  0  0  0  0  0  0
    6.9753    2.3430   21.4944 H   0  0  0  0  0  0  0  0  0  0  0  0
    7.3709    2.8655   23.1348 H   0  0  0  0  0  0  0  0  0  0  0  0
    9.0664    2.1826   21.9236 C   0  0  0  0  0  0  0  0  0  0  0  0
    9.1271    1.5988   20.9947 H   0  0  0  0  0  0  0  0  0  0  0  0
    9.3047    3.2310   21.6637 H   0  0  0  0  0  0  0  0  0  0  0  0
    9.9972    1.6086   22.8772 N   0  0  0  0  0  0  0  0  0  0  0  0
   11.2305    1.0905   22.2887 C   0  0  0  0  0  0  0  0  0  0  0  0
   10.9655    0.4382   21.4490 H   0  0  0  0  0  0  0  0  0  0  0  0
   11.8737    1.8926   21.8739 H   0  0  0  0  0  0  0  0  0  0  0  0
   12.0315    0.2713   23.3047 C   0  0  0  0  0  0  0  0  0  0  0  0
   12.9657   -0.0759   22.8517 H   0  0  0  0  0  0  0  0  0  0  0  0
   11.4480   -0.6279   23.5511 H   0  0  0  0  0  0  0  0  0  0  0  0
   12.2885    1.0818   24.5836 C   0  0  0  0  0  0  0  0  0  0  0  0
   12.8949    1.9733   24.3510 H   0  0  0  0  0  0  0  0  0  0  0  0
   12.8607    0.5015   25.3141 H   0  0  0  0  0  0  0  0  0  0  0  0
   10.9122    1.5035   25.1129 C   0  0  0  0  0  0  0  0  0  0  0  0
   10.9039    1.9562   26.1025 H   0  0  0  0  0  0  0  0  0  0  0  0
   10.3005    0.6012   25.2300 H   0  0  0  0  0  0  0  0  0  0  0  0
   10.2272    2.3993   24.0845 C   0  0  0  0  0  0  0  0  0  0  0  0
   10.8435    3.3058   23.8966 H   0  0  0  0  0  0  0  0  0  0  0  0
    9.2673    2.7531   24.4743 H   0  0  0  0  0  0  0  0  0  0  0  0
    5.4132    0.6823   20.1240 C   0  0  0  0  0  0  0  0  0  0  0  0
    4.9751    0.6960   21.1248 H   0  0  0  0  0  0  0  0  0  0  0  0
    4.7903    1.3291   19.0588 C   0  0  0  0  0  0  0  0  0  0  0  0
    3.8580    1.8652   19.1951 H   0  0  0  0  0  0  0  0  0  0  0  0
  1  2  1  0
  2  3  2  0
  3  4  1  0
  4  5  1  0
  4  6  2  0
  6  7  1  0
  7  8  1  0
  8  9  2  0
  9 10  1  0
 10 11  1  0
 11 12  1  0
 11 13  2  0
 13 14  1  0
 13 15  1  0
 15 16  1  0
 16 17  1  0
 17 18  1  0
 18 19  1  0
 18 20  1  0
 18 21  1  0
 21 22  1  0
 21 23  1  0
 21 24  1  0
 24 25  1  0
 25 26  1  0
 25 27  1  0
 25 28  1  0
 28 29  1  0
 28 30  1  0
 28 31  1  0
 31 32  1  0
 31 33  1  0
 31 34  1  0
 34 35  1  0
 34 36  1  0
 34 37  1  0
 37 38  1  0
 37 39  1  0
  6 40  1  0
 40 41  1  0
 40 42  2  0
 42 43  1  0
 42  2  1  0
 16  7  2  0
 37 24  1  0
 15  9  1  0
M  END
>  <cnnaffinity>  (1) 
-5.69771

>  <filename>  (1) 
c1cncc(-c2nc3sccn3c2OCCN2CCCCC2)c1

$$$$
