
     RDKit          3D

 45 47  0  0  0  0  0  0  0  0999 V2000
    4.9112    1.8268   16.9832 H   0  0  0  0  0  0  0  0  0  0  0  0
    5.3893    1.3195   17.8161 C   0  0  0  0  0  0  0  0  0  0  0  0
    6.5533    0.7038   17.5362 N   0  0  0  0  0  0  0  0  0  0  0  0
    7.1710    0.0746   18.5470 C   0  0  0  0  0  0  0  0  0  0  0  0
    8.1149   -0.4096   18.3004 H   0  0  0  0  0  0  0  0  0  0  0  0
    6.6777   -0.0167   19.8752 C   0  0  0  0  0  0  0  0  0  0  0  0
    7.3851   -0.7608   20.8600 N   0  0  0  0  0  0  0  0  0  0  0  0
    6.6521   -1.6041   21.8048 C   0  0  0  0  0  0  0  0  0  0  0  0
    5.7370   -1.9398   21.2995 H   0  0  0  0  0  0  0  0  0  0  0  0
    6.3407   -1.0520   22.7140 H   0  0  0  0  0  0  0  0  0  0  0  0
    7.5152   -2.8095   22.2031 C   0  0  0  0  0  0  0  0  0  0  0  0
    6.9648   -3.4376   22.9145 H   0  0  0  0  0  0  0  0  0  0  0  0
    7.6727   -3.4129   21.2993 H   0  0  0  0  0  0  0  0  0  0  0  0
    8.8770   -2.3601   22.7611 C   0  0  0  0  0  0  0  0  0  0  0  0
    8.7379   -1.8374   23.7215 H   0  0  0  0  0  0  0  0  0  0  0  0
    9.5202   -3.2215   22.9848 H   0  0  0  0  0  0  0  0  0  0  0  0
    9.5620   -1.4281   21.7439 C   0  0  0  0  0  0  0  0  0  0  0  0
    9.7795   -1.9828   20.8225 H   0  0  0  0  0  0  0  0  0  0  0  0
   10.5213   -1.0495   22.1184 H   0  0  0  0  0  0  0  0  0  0  0  0
    8.6792   -0.2389   21.3339 C   0  0  2  0  0  0  0  0  0  0  0  0
    9.1451    0.2469   20.4648 H   0  0  0  0  0  0  0  0  0  0  0  0
    8.5307    0.8418   22.4219 C   0  0  0  0  0  0  0  0  0  0  0  0
    7.9789    0.4297   23.2812 H   0  0  0  0  0  0  0  0  0  0  0  0
    7.8834    1.6265   22.0017 H   0  0  0  0  0  0  0  0  0  0  0  0
    9.8443    1.4847   22.9183 C   0  0  0  0  0  0  0  0  0  0  0  0
   10.4709    0.7140   23.4046 H   0  0  0  0  0  0  0  0  0  0  0  0
    9.4859    2.5363   23.9797 C   0  0  0  0  0  0  0  0  0  0  0  0
    8.9966    2.0348   24.8267 H   0  0  0  0  0  0  0  0  0  0  0  0
    8.7431    3.2290   23.5496 H   0  0  0  0  0  0  0  0  0  0  0  0
   10.6952    3.3197   24.4918 C   0  0  0  0  0  0  0  0  0  0  0  0
   10.3344    4.1258   25.1463 H   0  0  0  0  0  0  0  0  0  0  0  0
   11.3126    2.6236   25.0858 H   0  0  0  0  0  0  0  0  0  0  0  0
   11.5713    3.9142   23.3814 C   0  0  0  0  0  0  0  0  0  0  0  0
   12.4779    4.3422   23.8312 H   0  0  0  0  0  0  0  0  0  0  0  0
   11.0395    4.7535   22.9046 H   0  0  0  0  0  0  0  0  0  0  0  0
   11.9329    2.8657   22.3147 C   0  0  0  0  0  0  0  0  0  0  0  0
   12.4767    3.3411   21.4871 H   0  0  0  0  0  0  0  0  0  0  0  0
   12.6367    2.1300   22.7365 H   0  0  0  0  0  0  0  0  0  0  0  0
   10.6785    2.1350   21.7918 C   0  0  0  0  0  0  0  0  0  0  0  0
   10.0196    2.8583   21.2883 H   0  0  0  0  0  0  0  0  0  0  0  0
   10.9688    1.3994   21.0301 H   0  0  0  0  0  0  0  0  0  0  0  0
    5.4608    0.6409   20.1343 C   0  0  0  0  0  0  0  0  0  0  0  0
    5.0518    0.6125   21.1458 H   0  0  0  0  0  0  0  0  0  0  0  0
    4.8096    1.3169   19.0905 C   0  0  0  0  0  0  0  0  0  0  0  0
    3.8685    1.8379   19.2485 H   0  0  0  0  0  0  0  0  0  0  0  0
  1  2  1  0
  2  3  2  0
  3  4  1  0
  4  5  1  0
  4  6  2  0
  6  7  1  0
  7  8  1  0
  8  9  1  0
  8 10  1  0
  8 11  1  0
 11 12  1  0
 11 13  1  0
 11 14  1  0
 14 15  1  0
 14 16  1  0
 14 17  1  0
 17 18  1  0
 17 19  1  0
 17 20  1  0
 20 21  1  6
 20 22  1  0
 22 23  1  0
 22 24  1  0
 22 25  1  0
 25 26  1  0
 25 27  1  0
 27 28  1  0
 27 29  1  0
 27 30  1  0
 30 31  1  0
 30 32  1  0
 30 33  1  0
 33 34  1  0
 33 35  1  0
 33 36  1  0
 36 37  1  0
 36 38  1  0
 36 39  1  0
 39 40  1  0
 39 41  1  0
  6 42  1  0
 42 43  1  0
 42 44  2  0
 44 45  1  0
 44  2  1  0
 20  7  1  0
 39 25  1  0
M  END
>  <cnnaffinity>  (1) 
-5.66196

>  <filename>  (1) 
c1cncc(N2CCCC[C@@H]2CC2CCCCC2)c1

$$$$
