
     RDKit          3D

 40 42  0  0  0  0  0  0  0  0999 V2000
    4.9194    1.7859   16.9909 H   0  0  0  0  0  0  0  0  0  0  0  0
    5.4011    1.2936   17.8329 C   0  0  0  0  0  0  0  0  0  0  0  0
    6.5538    0.6705   17.5717 N   0  0  0  0  0  0  0  0  0  0  0  0
    7.1680    0.0610   18.5991 C   0  0  0  0  0  0  0  0  0  0  0  0
    8.1094   -0.4140   18.3445 H   0  0  0  0  0  0  0  0  0  0  0  0
    6.6802    0.0111   19.9202 C   0  0  0  0  0  0  0  0  0  0  0  0
    7.3663   -0.7697   21.0615 C   0  0  0  0  0  0  0  0  0  0  0  0
    6.5023   -2.0404   21.3285 C   0  0  0  0  0  0  0  0  0  0  0  0
    6.4416   -2.5965   20.3810 H   0  0  0  0  0  0  0  0  0  0  0  0
    5.4696   -1.7125   21.5150 H   0  0  0  0  0  0  0  0  0  0  0  0
    6.9845   -2.9006   22.4041 N   0  0  0  0  0  0  0  0  0  0  0  0
    7.3194   -4.2597   22.0032 C   0  0  0  0  0  0  0  0  0  0  0  0
    6.5560   -4.6706   21.3179 H   0  0  0  0  0  0  0  0  0  0  0  0
    8.2731   -4.2809   21.4606 H   0  0  0  0  0  0  0  0  0  0  0  0
    7.3687   -5.0617   23.3080 C   0  0  0  0  0  0  0  0  0  0  0  0
    6.9347   -6.0518   23.1555 H   0  0  0  0  0  0  0  0  0  0  0  0
    8.3976   -5.2155   23.6424 H   0  0  0  0  0  0  0  0  0  0  0  0
    6.5778   -4.2220   24.3331 C   0  0  0  0  0  0  0  0  0  0  0  0
    7.2094   -3.9437   25.1803 H   0  0  0  0  0  0  0  0  0  0  0  0
    5.7211   -4.7606   24.7434 H   0  0  0  0  0  0  0  0  0  0  0  0
    6.1043   -2.9850   23.5632 C   0  0  0  0  0  0  0  0  0  0  0  0
    5.0503   -3.1019   23.2522 H   0  0  0  0  0  0  0  0  0  0  0  0
    6.1544   -2.0674   24.1637 H   0  0  0  0  0  0  0  0  0  0  0  0
    7.4617    0.1034   22.3484 C   0  0  0  0  0  0  0  0  0  0  0  0
    6.4830    0.5016   22.6367 H   0  0  0  0  0  0  0  0  0  0  0  0
    7.8162   -0.5320   23.1698 H   0  0  0  0  0  0  0  0  0  0  0  0
    8.4606    1.2442   22.1525 C   0  0  0  0  0  0  0  0  0  0  0  0
    8.5614    1.8428   23.0607 H   0  0  0  0  0  0  0  0  0  0  0  0
    8.1298    1.9079   21.3333 H   0  0  0  0  0  0  0  0  0  0  0  0
    9.7537    0.7414   21.8673 O   0  0  0  0  0  0  0  0  0  0  0  0
    9.7801   -0.0212   20.6780 C   0  0  0  0  0  0  0  0  0  0  0  0
   10.8048   -0.3873   20.5732 H   0  0  0  0  0  0  0  0  0  0  0  0
    9.5360    0.6328   19.8232 H   0  0  0  0  0  0  0  0  0  0  0  0
    8.8206   -1.2026   20.7425 C   0  0  0  0  0  0  0  0  0  0  0  0
    8.8780   -1.7689   19.8128 H   0  0  0  0  0  0  0  0  0  0  0  0
    9.1602   -1.8695   21.5449 H   0  0  0  0  0  0  0  0  0  0  0  0
    5.4520    0.6560   20.1535 C   0  0  0  0  0  0  0  0  0  0  0  0
    4.9934    0.6392   21.1457 H   0  0  0  0  0  0  0  0  0  0  0  0
    4.8123    1.3138   19.1012 C   0  0  0  0  0  0  0  0  0  0  0  0
    3.8792    1.8400   19.2551 H   0  0  0  0  0  0  0  0  0  0  0  0
  1  2  1  0
  2  3  2  0
  3  4  1  0
  4  5  1  0
  4  6  2  0
  6  7  1  0
  7  8  1  0
  8  9  1  0
  8 10  1  0
  8 11  1  0
 11 12  1  0
 12 13  1  0
 12 14  1  0
 12 15  1  0
 15 16  1  0
 15 17  1  0
 15 18  1  0
 18 19  1  0
 18 20  1  0
 18 21  1  0
 21 22  1  0
 21 23  1  0
  7 24  1  0
 24 25  1  0
 24 26  1  0
 24 27  1  0
 27 28  1  0
 27 29  1  0
 27 30  1  0
 30 31  1  0
 31 32  1  0
 31 33  1  0
 31 34  1  0
 34 35  1  0
 34 36  1  0
  6 37  1  0
 37 38  1  0
 37 39  2  0
 39 40  1  0
 39  2  1  0
 34  7  1  0
 21 11  1  0
M  END
>  <cnnaffinity>  (1) 
-4.7104

>  <filename>  (1) 
c1cncc(C2(CN3CCCC3)CCOCC2)c1

$$$$
