
     RDKit          3D

 34 36  0  0  0  0  0  0  0  0999 V2000
    4.9612    1.8240   16.9728 H   0  0  0  0  0  0  0  0  0  0  0  0
    5.4151    1.2977   17.8082 C   0  0  0  0  0  0  0  0  0  0  0  0
    6.5683    0.6593   17.5627 N   0  0  0  0  0  0  0  0  0  0  0  0
    7.1548    0.0190   18.5790 C   0  0  0  0  0  0  0  0  0  0  0  0
    8.0916   -0.4933   18.3513 H   0  0  0  0  0  0  0  0  0  0  0  0
    6.6262   -0.0017   19.8791 C   0  0  0  0  0  0  0  0  0  0  0  0
    7.3662   -0.7073   20.9339 C   0  0  0  0  0  0  0  0  0  0  0  0
    8.0539   -1.8255   20.8131 N   0  0  0  0  0  0  0  0  0  0  0  0
    8.5598   -2.1018   22.0341 N   0  0  0  0  0  0  0  0  0  0  0  0
    8.2295   -1.1964   22.8849 N   0  0  0  0  0  0  0  0  0  0  0  0
    7.4994   -0.2896   22.2274 N   0  0  0  0  0  0  0  0  0  0  0  0
    6.9317    0.8403   22.8526 N   0  0  0  0  0  0  0  0  0  0  0  0
    7.2049    1.6878   22.3572 H   0  0  0  0  0  0  0  0  0  0  0  0
    7.2408    1.0692   24.2688 C   0  0  0  0  0  0  0  0  0  0  0  0
    7.1813    0.1233   24.8163 H   0  0  0  0  0  0  0  0  0  0  0  0
    8.6351    1.6750   24.4918 C   0  0  0  0  0  0  0  0  0  0  0  0
    9.3968    0.9724   24.1350 H   0  0  0  0  0  0  0  0  0  0  0  0
    8.7356    2.5894   23.8859 H   0  0  0  0  0  0  0  0  0  0  0  0
    8.8367    2.0227   25.9756 C   0  0  0  0  0  0  0  0  0  0  0  0
    8.8404    1.0954   26.5665 H   0  0  0  0  0  0  0  0  0  0  0  0
    9.8168    2.4808   26.1264 H   0  0  0  0  0  0  0  0  0  0  0  0
    7.7275    2.9442   26.5129 C   0  0  0  0  0  0  0  0  0  0  0  0
    7.8076    3.9262   26.0242 H   0  0  0  0  0  0  0  0  0  0  0  0
    7.8653    3.1182   27.5873 H   0  0  0  0  0  0  0  0  0  0  0  0
    6.3316    2.3588   26.2505 C   0  0  0  0  0  0  0  0  0  0  0  0
    5.5497    3.0555   26.5736 H   0  0  0  0  0  0  0  0  0  0  0  0
    6.2088    1.4432   26.8477 H   0  0  0  0  0  0  0  0  0  0  0  0
    6.1486    2.0093   24.7725 C   0  0  0  0  0  0  0  0  0  0  0  0
    5.1732    1.5464   24.5876 H   0  0  0  0  0  0  0  0  0  0  0  0
    6.2034    2.9264   24.1665 H   0  0  0  0  0  0  0  0  0  0  0  0
    5.4095    0.6619   20.1204 C   0  0  0  0  0  0  0  0  0  0  0  0
    4.9650    0.6704   21.1177 H   0  0  0  0  0  0  0  0  0  0  0  0
    4.7936    1.3159   19.0581 C   0  0  0  0  0  0  0  0  0  0  0  0
    3.8630    1.8533   19.1947 H   0  0  0  0  0  0  0  0  0  0  0  0
  1  2  1  0
  2  3  2  0
  3  4  1  0
  4  5  1  0
  4  6  2  0
  6  7  1  0
  7  8  2  0
  8  9  1  0
  9 10  2  0
 10 11  1  0
 11 12  1  0
 12 13  1  0
 12 14  1  0
 14 15  1  0
 14 16  1  0
 16 17  1  0
 16 18  1  0
 16 19  1  0
 19 20  1  0
 19 21  1  0
 19 22  1  0
 22 23  1  0
 22 24  1  0
 22 25  1  0
 25 26  1  0
 25 27  1  0
 25 28  1  0
 28 29  1  0
 28 30  1  0
  6 31  1  0
 31 32  1  0
 31 33  2  0
 33 34  1  0
 33  2  1  0
 11  7  1  0
 28 14  1  0
M  END
>  <cnnaffinity>  (1) 
-4.55609

>  <filename>  (1) 
c1cncc(-c2nnnn2NC2CCCCC2)c1

$$$$
