
     RDKit          3D

 37 39  0  0  0  0  0  0  0  0999 V2000
    4.9666    1.8454   17.1310 H   0  0  0  0  0  0  0  0  0  0  0  0
    5.4407    1.2477   17.9090 C   0  0  0  0  0  0  0  0  0  0  0  0
    6.5727    0.6207   17.5513 N   0  0  0  0  0  0  0  0  0  0  0  0
    7.1904   -0.1019   18.4932 C   0  0  0  0  0  0  0  0  0  0  0  0
    8.1080   -0.5998   18.1795 H   0  0  0  0  0  0  0  0  0  0  0  0
    6.7283   -0.2456   19.8229 C   0  0  0  0  0  0  0  0  0  0  0  0
    7.5476   -0.9472   20.8367 C   0  0  0  0  0  0  0  0  0  0  0  0
    8.8736   -0.7526   21.1706 C   0  0  0  0  0  0  0  0  0  0  0  0
    9.5339    0.0090   20.7830 H   0  0  0  0  0  0  0  0  0  0  0  0
    9.2369   -1.6516   22.1153 N   0  0  0  0  0  0  0  0  0  0  0  0
    8.2119   -2.4004   22.4069 N   0  0  0  0  0  0  0  0  0  0  0  0
    7.1910   -1.9579   21.6775 N   0  0  0  0  0  0  0  0  0  0  0  0
    5.9600   -2.5392   21.7152 O   0  0  0  0  0  0  0  0  0  0  0  0
    5.6205   -3.2368   22.9430 C   0  0  0  0  0  0  0  0  0  0  0  0
    4.5707   -3.0136   23.1267 H   0  0  0  0  0  0  0  0  0  0  0  0
    6.2173   -2.8591   23.7839 H   0  0  0  0  0  0  0  0  0  0  0  0
    5.7240   -4.7511   22.7305 C   0  0  0  0  0  0  0  0  0  0  0  0
    5.3566   -4.9476   21.7107 H   0  0  0  0  0  0  0  0  0  0  0  0
    6.7836   -5.0728   22.7779 H   0  0  0  0  0  0  0  0  0  0  0  0
    4.8859   -5.4532   23.7132 N   0  0  0  0  0  0  0  0  0  0  0  0
    4.4546   -6.8087   23.3191 C   0  0  0  0  0  0  0  0  0  0  0  0
    5.3048   -7.4967   23.1596 H   0  0  0  0  0  0  0  0  0  0  0  0
    3.8921   -6.7552   22.3785 H   0  0  0  0  0  0  0  0  0  0  0  0
    3.5461   -7.4094   24.4020 C   0  0  0  0  0  0  0  0  0  0  0  0
    2.6424   -6.7861   24.4964 H   0  0  0  0  0  0  0  0  0  0  0  0
    3.2336   -8.4279   24.1518 H   0  0  0  0  0  0  0  0  0  0  0  0
    4.2115   -7.4882   25.6575 O   0  0  0  0  0  0  0  0  0  0  0  0
    4.6259   -6.1933   26.0755 C   0  0  0  0  0  0  0  0  0  0  0  0
    3.7398   -5.5660   26.2652 H   0  0  0  0  0  0  0  0  0  0  0  0
    5.1685   -6.3253   27.0179 H   0  0  0  0  0  0  0  0  0  0  0  0
    5.5237   -5.5000   25.0423 C   0  0  0  0  0  0  0  0  0  0  0  0
    5.7152   -4.4762   25.3873 H   0  0  0  0  0  0  0  0  0  0  0  0
    6.4988   -6.0240   25.0160 H   0  0  0  0  0  0  0  0  0  0  0  0
    5.5196    0.3840   20.1582 C   0  0  0  0  0  0  0  0  0  0  0  0
    5.1204    0.2919   21.1668 H   0  0  0  0  0  0  0  0  0  0  0  0
    4.8740    1.1519   19.1824 C   0  0  0  0  0  0  0  0  0  0  0  0
    3.9634    1.7005   19.3991 H   0  0  0  0  0  0  0  0  0  0  0  0
  1  2  1  0
  2  3  2  0
  3  4  1  0
  4  5  1  0
  4  6  2  0
  6  7  1  0
  7  8  2  0
  8  9  1  0
  8 10  1  0
 10 11  2  0
 11 12  1  0
 12 13  1  0
 13 14  1  0
 14 15  1  0
 14 16  1  0
 14 17  1  0
 17 18  1  0
 17 19  1  0
 17 20  1  0
 20 21  1  0
 21 22  1  0
 21 23  1  0
 21 24  1  0
 24 25  1  0
 24 26  1  0
 24 27  1  0
 27 28  1  0
 28 29  1  0
 28 30  1  0
 28 31  1  0
 31 32  1  0
 31 33  1  0
  6 34  1  0
 34 35  1  0
 34 36  2  0
 36 37  1  0
 36  2  1  0
 12  7  1  0
 31 20  1  0
M  END
>  <cnnaffinity>  (1) 
-4.52532

>  <filename>  (1) 
c1cncc(-c2cnnn2OCCN2CCOCC2)c1

$$$$
