
     RDKit          3D

 34 37  0  0  0  0  0  0  0  0999 V2000
    4.9258    1.8032   16.9719 H   0  0  0  0  0  0  0  0  0  0  0  0
    5.3925    1.3025   17.8182 C   0  0  0  0  0  0  0  0  0  0  0  0
    6.5559    0.6814   17.5666 N   0  0  0  0  0  0  0  0  0  0  0  0
    7.1615    0.0655   18.5904 C   0  0  0  0  0  0  0  0  0  0  0  0
    8.1087   -0.4257   18.3601 H   0  0  0  0  0  0  0  0  0  0  0  0
    6.6452    0.0070   19.8971 C   0  0  0  0  0  0  0  0  0  0  0  0
    7.3624   -0.7245   20.9731 C   0  0  0  0  0  0  0  0  0  0  0  0
    6.6667   -1.5699   21.8505 C   0  0  0  0  0  0  0  0  0  0  0  0
    5.5960   -1.6944   21.7103 H   0  0  0  0  0  0  0  0  0  0  0  0
    7.3413   -2.2517   22.8664 C   0  0  0  0  0  0  0  0  0  0  0  0
    6.7850   -2.8933   23.5430 H   0  0  0  0  0  0  0  0  0  0  0  0
    8.7218   -2.0931   23.0225 C   0  0  0  0  0  0  0  0  0  0  0  0
    9.2492   -2.6046   23.8256 H   0  0  0  0  0  0  0  0  0  0  0  0
    9.4334   -1.2332   22.1680 C   0  0  0  0  0  0  0  0  0  0  0  0
   10.8964   -1.0623   22.2952 C   0  0  0  0  0  0  0  0  0  0  0  0
   11.7771   -2.0888   22.2587 C   0  0  0  0  0  0  0  0  0  0  0  0
   11.5432   -3.1417   22.3801 H   0  0  0  0  0  0  0  0  0  0  0  0
   13.4333   -1.5894   22.1509 S   0  0  0  0  0  0  0  0  0  0  0  0
   12.9772    0.0735   22.3695 C   0  0  0  0  0  0  0  0  0  0  0  0
   13.8266    1.1750   22.5527 C   0  0  0  0  0  0  0  0  0  0  0  0
   14.9003    1.0403   22.6440 H   0  0  0  0  0  0  0  0  0  0  0  0
   13.2676    2.4472   22.5616 C   0  0  0  0  0  0  0  0  0  0  0  0
   13.9238    3.3086   22.6020 H   0  0  0  0  0  0  0  0  0  0  0  0
   11.8766    2.6293   22.4337 C   0  0  0  0  0  0  0  0  0  0  0  0
   11.4670    3.6332   22.3619 H   0  0  0  0  0  0  0  0  0  0  0  0
   11.0339    1.5313   22.3620 C   0  0  0  0  0  0  0  0  0  0  0  0
    9.9594    1.6663   22.2824 H   0  0  0  0  0  0  0  0  0  0  0  0
   11.5750    0.2257   22.3510 C   0  0  0  0  0  0  0  0  0  0  0  0
    8.7421   -0.5765   21.1381 C   0  0  0  0  0  0  0  0  0  0  0  0
    9.2948    0.0818   20.4727 H   0  0  0  0  0  0  0  0  0  0  0  0
    5.4263    0.6620   20.1334 C   0  0  0  0  0  0  0  0  0  0  0  0
    5.0001    0.6576   21.1361 H   0  0  0  0  0  0  0  0  0  0  0  0
    4.7934    1.3245   19.0821 C   0  0  0  0  0  0  0  0  0  0  0  0
    3.8587    1.8572   19.2267 H   0  0  0  0  0  0  0  0  0  0  0  0
  1  2  1  0
  2  3  2  0
  3  4  1  0
  4  5  1  0
  4  6  2  0
  6  7  1  0
  7  8  2  0
  8  9  1  0
  8 10  1  0
 10 11  1  0
 10 12  2  0
 12 13  1  0
 12 14  1  0
 14 15  1  0
 15 16  2  0
 16 17  1  0
 16 18  1  0
 18 19  1  0
 19 20  2  0
 20 21  1  0
 20 22  1  0
 22 23  1  0
 22 24  2  0
 24 25  1  0
 24 26  1  0
 26 27  1  0
 26 28  2  0
 14 29  2  0
 29 30  1  0
  6 31  1  0
 31 32  1  0
 31 33  2  0
 33 34  1  0
 33  2  1  0
 29  7  1  0
 28 15  1  0
 28 19  1  0
M  END
>  <cnnaffinity>  (1) 
-5.94768

>  <filename>  (1) 
c1cncc(-c2cccc(-c3csc4ccccc34)c2)c1

$$$$
