
     RDKit          3D

 37 40  0  0  0  0  0  0  0  0999 V2000
    5.0787    1.6839   16.6777 H   0  0  0  0  0  0  0  0  0  0  0  0
    5.4785    1.2013   17.5650 C   0  0  0  0  0  0  0  0  0  0  0  0
    6.6300    0.5274   17.4034 N   0  0  0  0  0  0  0  0  0  0  0  0
    7.1674   -0.0368   18.4874 C   0  0  0  0  0  0  0  0  0  0  0  0
    8.0962   -0.5867   18.3326 H   0  0  0  0  0  0  0  0  0  0  0  0
    6.6028    0.0547   19.7768 C   0  0  0  0  0  0  0  0  0  0  0  0
    7.3567   -0.4437   20.9367 C   0  0  0  0  0  0  0  0  0  0  0  0
    8.4836   -1.1312   20.7153 N   0  0  0  0  0  0  0  0  0  0  0  0
    8.9228   -1.3996   21.9519 N   0  0  0  0  0  0  0  0  0  0  0  0
    9.9742   -2.1555   22.4379 C   0  0  0  0  0  0  0  0  0  0  0  0
   10.6725   -2.6124   21.7598 H   0  0  0  0  0  0  0  0  0  0  0  0
    9.8595   -2.1125   23.7818 C   0  0  0  0  0  0  0  0  0  0  0  0
   10.3992   -2.5899   24.5804 H   0  0  0  0  0  0  0  0  0  0  0  0
    8.7856   -1.3039   24.1230 N   0  0  0  0  0  0  0  0  0  0  0  0
    8.5181   -1.0106   25.4394 N   0  0  0  0  0  0  0  0  0  0  0  0
    7.1617   -1.2631   25.9444 C   0  0  0  0  0  0  0  0  0  0  0  0
    7.2528   -1.8087   26.8963 H   0  0  0  0  0  0  0  0  0  0  0  0
    6.6474   -1.9349   25.2481 H   0  0  0  0  0  0  0  0  0  0  0  0
    6.3129    0.0098   26.1612 C   0  0  0  0  0  0  0  0  0  0  0  0
    5.4152   -0.2650   26.7262 H   0  0  0  0  0  0  0  0  0  0  0  0
    5.9656    0.3843   25.1893 H   0  0  0  0  0  0  0  0  0  0  0  0
    7.0772    1.1280   26.8876 C   0  0  0  0  0  0  0  0  0  0  0  0
    7.2324    0.8591   27.9439 H   0  0  0  0  0  0  0  0  0  0  0  0
    6.4730    2.0440   26.8940 H   0  0  0  0  0  0  0  0  0  0  0  0
    8.4207    1.3945   26.1914 C   0  0  0  0  0  0  0  0  0  0  0  0
    8.2418    1.8077   25.1882 H   0  0  0  0  0  0  0  0  0  0  0  0
    9.0125    2.1269   26.7511 H   0  0  0  0  0  0  0  0  0  0  0  0
    9.2559    0.1098   26.0452 C   0  0  0  0  0  0  0  0  0  0  0  0
   10.1461    0.3189   25.4403 H   0  0  0  0  0  0  0  0  0  0  0  0
    9.6068   -0.2200   27.0360 H   0  0  0  0  0  0  0  0  0  0  0  0
    8.1620   -0.8980   22.9467 C   0  0  0  0  0  0  0  0  0  0  0  0
    7.0889   -0.2626   22.3171 C   0  0  0  0  0  0  0  0  0  0  0  0
    6.2319    0.2013   22.7654 H   0  0  0  0  0  0  0  0  0  0  0  0
    5.3602    0.6939   19.9126 C   0  0  0  0  0  0  0  0  0  0  0  0
    4.8583    0.7236   20.8847 H   0  0  0  0  0  0  0  0  0  0  0  0
    4.7978    1.2894   18.7871 C   0  0  0  0  0  0  0  0  0  0  0  0
    3.8557    1.8255   18.8452 H   0  0  0  0  0  0  0  0  0  0  0  0
  1  2  1  0
  2  3  2  0
  3  4  1  0
  4  5  1  0
  4  6  2  0
  6  7  1  0
  7  8  2  0
  8  9  1  0
  9 10  1  0
 10 11  1  0
 10 12  2  0
 12 13  1  0
 12 14  1  0
 14 15  1  0
 15 16  1  0
 16 17  1  0
 16 18  1  0
 16 19  1  0
 19 20  1  0
 19 21  1  0
 19 22  1  0
 22 23  1  0
 22 24  1  0
 22 25  1  0
 25 26  1  0
 25 27  1  0
 25 28  1  0
 28 29  1  0
 28 30  1  0
 14 31  1  0
 31 32  2  0
 32 33  1  0
  6 34  1  0
 34 35  1  0
 34 36  2  0
 36 37  1  0
 36  2  1  0
 32  7  1  0
 31  9  1  0
 28 15  1  0
M  END
>  <cnnaffinity>  (1) 
-5.20506

>  <filename>  (1) 
c1cncc(-c2cc3n(N4CCCCC4)ccn3n2)c1

$$$$
