
     RDKit          3D

 31 33  0  0  0  0  0  0  0  0999 V2000
    9.3011   -2.9090   22.8658 H   0  0  0  0  0  0  0  0  0  0  0  0
    8.6924   -2.0942   22.4803 C   0  0  0  0  0  0  0  0  0  0  0  0
    8.1779   -1.1308   23.1924 N   0  0  0  0  0  0  0  0  0  0  0  0
    7.4386   -0.3205   22.3852 C   0  0  0  0  0  0  0  0  0  0  0  0
    6.7924    0.7501   22.8483 O   0  0  0  0  0  0  0  0  0  0  0  0
    6.9770    1.1428   24.2212 C   0  0  0  0  0  0  0  0  0  0  0  0
    6.7545    0.2807   24.8673 H   0  0  0  0  0  0  0  0  0  0  0  0
    8.3827    1.6905   24.5116 C   0  0  0  0  0  0  0  0  0  0  0  0
    8.7837    2.1187   23.5843 H   0  0  0  0  0  0  0  0  0  0  0  0
    9.0639    0.8819   24.7990 H   0  0  0  0  0  0  0  0  0  0  0  0
    8.1877    2.7872   25.5922 C   0  0  0  0  0  0  0  0  0  0  0  0
    8.5634    2.4673   26.5719 H   0  0  0  0  0  0  0  0  0  0  0  0
    8.7557    3.6870   25.3284 H   0  0  0  0  0  0  0  0  0  0  0  0
    6.6561    3.0744   25.6599 C   0  0  0  0  0  0  0  0  0  0  0  0
    6.2432    2.6997   26.6056 H   0  0  0  0  0  0  0  0  0  0  0  0
    6.4267    4.1468   25.6234 H   0  0  0  0  0  0  0  0  0  0  0  0
    6.0371    2.3117   24.4715 C   0  0  0  0  0  0  0  0  0  0  0  0
    6.0219    2.9301   23.5616 H   0  0  0  0  0  0  0  0  0  0  0  0
    5.0077    1.9655   24.6372 H   0  0  0  0  0  0  0  0  0  0  0  0
    7.3765   -0.6415   21.0327 C   0  0  0  0  0  0  0  0  0  0  0  0
    6.6691    0.0214   19.9232 C   0  0  0  0  0  0  0  0  0  0  0  0
    7.1692    0.0515   18.5906 C   0  0  0  0  0  0  0  0  0  0  0  0
    8.1181   -0.4197   18.3450 H   0  0  0  0  0  0  0  0  0  0  0  0
    6.5549    0.6623   17.5679 N   0  0  0  0  0  0  0  0  0  0  0  0
    5.3951    1.2880   17.8280 C   0  0  0  0  0  0  0  0  0  0  0  0
    4.9359    1.8024   16.9843 H   0  0  0  0  0  0  0  0  0  0  0  0
    4.7929    1.3101   19.0900 C   0  0  0  0  0  0  0  0  0  0  0  0
    3.8563    1.8432   19.2298 H   0  0  0  0  0  0  0  0  0  0  0  0
    5.4430    0.6702   20.1504 C   0  0  0  0  0  0  0  0  0  0  0  0
    5.0327    0.6658   21.1567 H   0  0  0  0  0  0  0  0  0  0  0  0
    8.3445   -2.0533   20.8087 S   0  0  0  0  0  0  0  0  0  0  0  0
  1  2  1  0
  2  3  2  0
  3  4  1  0
  4  5  1  0
  5  6  1  0
  6  7  1  0
  6  8  1  0
  8  9  1  0
  8 10  1  0
  8 11  1  0
 11 12  1  0
 11 13  1  0
 11 14  1  0
 14 15  1  0
 14 16  1  0
 14 17  1  0
 17 18  1  0
 17 19  1  0
  4 20  2  0
 20 21  1  0
 21 22  2  0
 22 23  1  0
 22 24  1  0
 24 25  2  0
 25 26  1  0
 25 27  1  0
 27 28  1  0
 27 29  2  0
 29 30  1  0
 20 31  1  0
 31  2  1  0
 17  6  1  0
 29 21  1  0
M  END
>  <cnnaffinity>  (1) 
-4.87795

>  <filename>  (1) 
c1cncc(-c2scnc2OC2CCCC2)c1

$$$$
