
     RDKit          3D

 30 32  0  0  0  0  0  0  0  0999 V2000
    4.9161    1.7779   16.9984 H   0  0  0  0  0  0  0  0  0  0  0  0
    5.4007    1.2916   17.8446 C   0  0  0  0  0  0  0  0  0  0  0  0
    6.5691    0.6740   17.5971 N   0  0  0  0  0  0  0  0  0  0  0  0
    7.1808    0.0559   18.6157 C   0  0  0  0  0  0  0  0  0  0  0  0
    8.1249   -0.4391   18.3937 H   0  0  0  0  0  0  0  0  0  0  0  0
    6.6619    0.0138   19.9246 C   0  0  0  0  0  0  0  0  0  0  0  0
    7.3734   -0.7033   20.8604 O   0  0  0  0  0  0  0  0  0  0  0  0
    7.2494   -0.4028   22.2015 C   0  0  0  0  0  0  0  0  0  0  0  0
    7.1091   -1.3615   23.2206 C   0  0  0  0  0  0  0  0  0  0  0  0
    7.0594   -2.4341   23.1073 H   0  0  0  0  0  0  0  0  0  0  0  0
    7.0596   -0.8048   24.4244 N   0  0  0  0  0  0  0  0  0  0  0  0
    7.1866    0.5136   24.1775 N   0  0  0  0  0  0  0  0  0  0  0  0
    7.1435    1.1815   24.9282 H   0  0  0  0  0  0  0  0  0  0  0  0
    7.3260    0.8127   22.8591 C   0  0  0  0  0  0  0  0  0  0  0  0
    7.5030    2.0961   22.3874 N   0  0  0  0  0  0  0  0  0  0  0  0
    7.3592    2.2168   21.3979 H   0  0  0  0  0  0  0  0  0  0  0  0
    7.9249    3.2224   23.0679 C   0  0  0  0  0  0  0  0  0  0  0  0
    7.3974    4.4642   22.7263 C   0  0  0  0  0  0  0  0  0  0  0  0
    6.6616    4.5668   21.9377 H   0  0  0  0  0  0  0  0  0  0  0  0
    7.8144    5.5673   23.4580 C   0  0  0  0  0  0  0  0  0  0  0  0
    7.4156    6.5503   23.2302 H   0  0  0  0  0  0  0  0  0  0  0  0
    8.7063    5.5182   24.4551 N   0  0  0  0  0  0  0  0  0  0  0  0
    9.2147    4.3148   24.7405 C   0  0  0  0  0  0  0  0  0  0  0  0
    9.9397    4.2851   25.5417 H   0  0  0  0  0  0  0  0  0  0  0  0
    8.8690    3.1436   24.0873 C   0  0  0  0  0  0  0  0  0  0  0  0
    9.3269    2.1954   24.3398 H   0  0  0  0  0  0  0  0  0  0  0  0
    5.4417    0.6476   20.1746 C   0  0  0  0  0  0  0  0  0  0  0  0
    5.0186    0.6284   21.1817 H   0  0  0  0  0  0  0  0  0  0  0  0
    4.8076    1.3077   19.1099 C   0  0  0  0  0  0  0  0  0  0  0  0
    3.8754    1.8409   19.2600 H   0  0  0  0  0  0  0  0  0  0  0  0
  1  2  1  0
  2  3  2  0
  3  4  1  0
  4  5  1  0
  4  6  2  0
  6  7  1  0
  7  8  1  0
  8  9  1  0
  9 10  1  0
  9 11  2  0
 11 12  1  0
 12 13  1  0
 12 14  1  0
 14 15  1  0
 15 16  1  0
 15 17  1  0
 17 18  2  0
 18 19  1  0
 18 20  1  0
 20 21  1  0
 20 22  2  0
 22 23  1  0
 23 24  1  0
 23 25  2  0
 25 26  1  0
  6 27  1  0
 27 28  1  0
 27 29  2  0
 29 30  1  0
 29  2  1  0
 14  8  2  0
 25 17  1  0
M  END
>  <cnnaffinity>  (1) 
-5.05347

>  <filename>  (1) 
c1cncc(Oc2cn[nH]c2Nc2ccncc2)c1

$$$$
