
     RDKit          3D

 37 39  0  0  0  0  0  0  0  0999 V2000
    5.7328   -1.4822   22.0582 H   0  0  0  0  0  0  0  0  0  0  0  0
    6.8078   -1.3974   22.0030 C   0  0  0  0  0  0  0  0  0  0  0  0
    7.5038   -2.0201   22.9464 N   0  0  0  0  0  0  0  0  0  0  0  0
    8.8407   -1.9664   22.8863 N   0  0  0  0  0  0  0  0  0  0  0  0
    9.4329   -1.3471   21.8499 C   0  0  0  0  0  0  0  0  0  0  0  0
   10.9305   -1.3524   21.8422 C   0  0  0  0  0  0  0  0  0  0  0  0
   11.2439   -2.2911   22.3186 H   0  0  0  0  0  0  0  0  0  0  0  0
   11.2424   -1.3543   20.7946 H   0  0  0  0  0  0  0  0  0  0  0  0
   11.5584   -0.1332   22.5679 C   0  0  0  0  0  0  0  0  0  0  0  0
   12.6514   -0.2921   22.5276 H   0  0  0  0  0  0  0  0  0  0  0  0
   11.2266    1.2068   21.8707 C   0  0  0  0  0  0  0  0  0  0  0  0
   11.5047    1.1530   20.8161 H   0  0  0  0  0  0  0  0  0  0  0  0
   10.1345    1.3610   21.8899 H   0  0  0  0  0  0  0  0  0  0  0  0
   11.9197    2.4000   22.5476 C   0  0  0  0  0  0  0  0  0  0  0  0
   13.0100    2.3168   22.4107 H   0  0  0  0  0  0  0  0  0  0  0  0
   11.6279    3.3347   22.0501 H   0  0  0  0  0  0  0  0  0  0  0  0
   11.5844    2.4580   24.0481 C   0  0  0  0  0  0  0  0  0  0  0  0
   12.1012    3.2969   24.5201 H   0  0  0  0  0  0  0  0  0  0  0  0
   10.5105    2.6689   24.1698 H   0  0  0  0  0  0  0  0  0  0  0  0
   11.8817    1.1226   24.7502 C   0  0  0  0  0  0  0  0  0  0  0  0
   11.5326    1.1367   25.7856 H   0  0  0  0  0  0  0  0  0  0  0  0
   12.9650    0.9150   24.7516 H   0  0  0  0  0  0  0  0  0  0  0  0
   11.1304   -0.0087   24.0441 C   0  0  0  0  0  0  0  0  0  0  0  0
   10.0609    0.2385   24.0822 H   0  0  0  0  0  0  0  0  0  0  0  0
   11.2040   -0.9515   24.5963 H   0  0  0  0  0  0  0  0  0  0  0  0
    8.7836   -0.7313   20.8426 N   0  0  0  0  0  0  0  0  0  0  0  0
    7.4487   -0.7076   20.9454 C   0  0  0  0  0  0  0  0  0  0  0  0
    6.6892    0.0182   19.9058 C   0  0  0  0  0  0  0  0  0  0  0  0
    7.2036    0.0665   18.5993 C   0  0  0  0  0  0  0  0  0  0  0  0
    8.1557   -0.4097   18.3679 H   0  0  0  0  0  0  0  0  0  0  0  0
    6.5842    0.6625   17.5794 N   0  0  0  0  0  0  0  0  0  0  0  0
    5.4190    1.2795   17.8335 C   0  0  0  0  0  0  0  0  0  0  0  0
    4.9508    1.7850   16.9924 H   0  0  0  0  0  0  0  0  0  0  0  0
    4.8209    1.3013   19.0973 C   0  0  0  0  0  0  0  0  0  0  0  0
    3.8812    1.8287   19.2384 H   0  0  0  0  0  0  0  0  0  0  0  0
    5.4593    0.6587   20.1540 C   0  0  0  0  0  0  0  0  0  0  0  0
    5.0083    0.6734   21.1487 H   0  0  0  0  0  0  0  0  0  0  0  0
  1  2  1  0
  2  3  2  0
  3  4  1  0
  4  5  2  0
  5  6  1  0
  6  7  1  0
  6  8  1  0
  6  9  1  0
  9 10  1  0
  9 11  1  0
 11 12  1  0
 11 13  1  0
 11 14  1  0
 14 15  1  0
 14 16  1  0
 14 17  1  0
 17 18  1  0
 17 19  1  0
 17 20  1  0
 20 21  1  0
 20 22  1  0
 20 23  1  0
 23 24  1  0
 23 25  1  0
  5 26  1  0
 26 27  2  0
 27 28  1  0
 28 29  2  0
 29 30  1  0
 29 31  1  0
 31 32  2  0
 32 33  1  0
 32 34  1  0
 34 35  1  0
 34 36  2  0
 36 37  1  0
 27  2  1  0
 36 28  1  0
 23  9  1  0
M  END
>  <cnnaffinity>  (1) 
-5.4652

>  <filename>  (1) 
c1cncc(-c2cnnc(CC3CCCCC3)n2)c1

$$$$
