
     RDKit          3D

 36 39  0  0  0  0  0  0  0  0999 V2000
    4.8083    1.3067   19.1124 C   0  0  0  0  0  0  0  0  0  0  0  0
    5.4079    1.2870   17.8457 C   0  0  0  0  0  0  0  0  0  0  0  0
    6.5699    0.6717   17.5866 N   0  0  0  0  0  0  0  0  0  0  0  0
    7.1794    0.0568   18.6025 C   0  0  0  0  0  0  0  0  0  0  0  0
    6.6582    0.0083   19.9026 C   0  0  0  0  0  0  0  0  0  0  0  0
    7.3992   -0.7054   20.9365 C   0  0  0  0  0  0  0  0  0  0  0  0
    8.5424   -1.3122   20.7576 N   0  0  0  0  0  0  0  0  0  0  0  0
    8.8309   -1.8280   22.0108 O   0  0  0  0  0  0  0  0  0  0  0  0
    7.8365   -1.4765   22.8329 C   0  0  0  0  0  0  0  0  0  0  0  0
    7.8954   -1.9343   24.2437 C   0  0  0  0  0  0  0  0  0  0  0  0
    8.6761   -3.0614   24.5614 C   0  0  0  0  0  0  0  0  0  0  0  0
    8.6922   -3.5574   25.8637 C   0  0  0  0  0  0  0  0  0  0  0  0
    7.9346   -2.9368   26.8522 C   0  0  0  0  0  0  0  0  0  0  0  0
    7.1591   -1.8051   26.5716 C   0  0  0  0  0  0  0  0  0  0  0  0
    7.1558   -1.2723   25.2643 C   0  0  0  0  0  0  0  0  0  0  0  0
    6.3453   -0.0092   24.9664 C   0  0  0  0  0  0  0  0  0  0  0  0
    5.8778    0.7669   26.1967 C   0  0  0  0  0  0  0  0  0  0  0  0
    5.2996   -0.1758   27.2468 C   0  0  0  0  0  0  0  0  0  0  0  0
    6.3787   -1.1525   27.7056 C   0  0  0  0  0  0  0  0  0  0  0  0
    5.9434   -1.9213   28.3529 H   0  0  0  0  0  0  0  0  0  0  0  0
    7.0963   -0.5994   28.3203 H   0  0  0  0  0  0  0  0  0  0  0  0
    4.4663   -0.7426   26.8151 H   0  0  0  0  0  0  0  0  0  0  0  0
    4.9048    0.3843   28.1025 H   0  0  0  0  0  0  0  0  0  0  0  0
    5.1394    1.5206   25.9013 H   0  0  0  0  0  0  0  0  0  0  0  0
    6.7340    1.3081   26.6191 H   0  0  0  0  0  0  0  0  0  0  0  0
    5.4728   -0.3103   24.3876 H   0  0  0  0  0  0  0  0  0  0  0  0
    6.9015    0.6498   24.2966 H   0  0  0  0  0  0  0  0  0  0  0  0
    7.9470   -3.3391   27.8618 H   0  0  0  0  0  0  0  0  0  0  0  0
    9.2933   -4.4307   26.1108 H   0  0  0  0  0  0  0  0  0  0  0  0
    9.2650   -3.5586   23.7927 H   0  0  0  0  0  0  0  0  0  0  0  0
    6.9210   -0.7780   22.2183 N   0  0  0  0  0  0  0  0  0  0  0  0
    5.4377    0.6513   20.1690 C   0  0  0  0  0  0  0  0  0  0  0  0
    5.0045    0.6331   21.1727 H   0  0  0  0  0  0  0  0  0  0  0  0
    8.1231   -0.4271   18.3719 H   0  0  0  0  0  0  0  0  0  0  0  0
    4.9240    1.7749   17.0022 H   0  0  0  0  0  0  0  0  0  0  0  0
    3.8757    1.8419   19.2597 H   0  0  0  0  0  0  0  0  0  0  0  0
  1  2  2  0
  2  3  1  0
  3  4  2  0
  4  5  1  0
  5  6  1  0
  6  7  2  0
  7  8  1  0
  8  9  1  0
  9 10  1  0
 10 11  2  0
 11 12  1  0
 12 13  2  0
 13 14  1  0
 14 15  2  0
 15 16  1  0
 16 17  1  0
 17 18  1  0
 18 19  1  0
 19 20  1  0
 19 21  1  0
 18 22  1  0
 18 23  1  0
 17 24  1  0
 17 25  1  0
 16 26  1  0
 16 27  1  0
 13 28  1  0
 12 29  1  0
 11 30  1  0
  9 31  2  0
  5 32  2  0
 32 33  1  0
  4 34  1  0
  2 35  1  0
  1 36  1  0
 32  1  1  0
 31  6  1  0
 15 10  1  0
 19 14  1  0
M  END
>  <cnnaffinity>  (1) 
-5.32085

>  <filename>  (1) 
c1cncc(-c2noc(-c3cccc4c3CCCC4)n2)c1

$$$$
