
     RDKit          3D

 33 36  0  0  0  0  0  0  0  0999 V2000
    4.9776    1.8493   16.9083 H   0  0  0  0  0  0  0  0  0  0  0  0
    5.4153    1.2959   17.7391 C   0  0  0  0  0  0  0  0  0  0  0  0
    6.5599    0.6418   17.4903 N   0  0  0  0  0  0  0  0  0  0  0  0
    7.1425   -0.0035   18.5081 C   0  0  0  0  0  0  0  0  0  0  0  0
    8.0713   -0.5159   18.2703 H   0  0  0  0  0  0  0  0  0  0  0  0
    6.6174   -0.0368   19.8162 C   0  0  0  0  0  0  0  0  0  0  0  0
    7.3729   -0.6302   20.9355 C   0  0  0  0  0  0  0  0  0  0  0  0
    8.5136   -1.3091   20.7315 N   0  0  0  0  0  0  0  0  0  0  0  0
    8.9436   -1.5527   21.9858 N   0  0  0  0  0  0  0  0  0  0  0  0
   10.0931   -2.1109   22.5302 C   0  0  0  0  0  0  0  0  0  0  0  0
   10.8474   -2.5465   21.8997 H   0  0  0  0  0  0  0  0  0  0  0  0
   10.0028   -1.9291   23.8700 C   0  0  0  0  0  0  0  0  0  0  0  0
   10.6712   -2.1700   24.6838 H   0  0  0  0  0  0  0  0  0  0  0  0
    8.8069   -1.2798   24.1449 N   0  0  0  0  0  0  0  0  0  0  0  0
    8.4622   -0.8493   25.4169 N   0  0  0  0  0  0  0  0  0  0  0  0
    8.9260    0.0173   25.6524 H   0  0  0  0  0  0  0  0  0  0  0  0
    7.1118   -0.6814   25.7495 C   0  0  0  0  0  0  0  0  0  0  0  0
    6.1177   -1.5870   25.3991 C   0  0  0  0  0  0  0  0  0  0  0  0
    6.3390   -2.4363   24.7656 H   0  0  0  0  0  0  0  0  0  0  0  0
    4.8262   -1.3176   25.8490 C   0  0  0  0  0  0  0  0  0  0  0  0
    4.0176   -2.0048   25.6075 H   0  0  0  0  0  0  0  0  0  0  0  0
    4.4875   -0.2383   26.5664 N   0  0  0  0  0  0  0  0  0  0  0  0
    5.4667    0.6215   26.8768 C   0  0  0  0  0  0  0  0  0  0  0  0
    5.1761    1.4999   27.4540 H   0  0  0  0  0  0  0  0  0  0  0  0
    6.7926    0.4525   26.4986 C   0  0  0  0  0  0  0  0  0  0  0  0
    7.5486    1.1901   26.7571 H   0  0  0  0  0  0  0  0  0  0  0  0
    8.1551   -1.0460   22.9496 C   0  0  0  0  0  0  0  0  0  0  0  0
    7.0628   -0.4663   22.3087 C   0  0  0  0  0  0  0  0  0  0  0  0
    6.1803   -0.0478   22.7572 H   0  0  0  0  0  0  0  0  0  0  0  0
    5.3958    0.6152   20.0425 C   0  0  0  0  0  0  0  0  0  0  0  0
    4.9318    0.5990   21.0297 H   0  0  0  0  0  0  0  0  0  0  0  0
    4.7910    1.2977   18.9909 C   0  0  0  0  0  0  0  0  0  0  0  0
    3.8752    1.8567   19.1416 H   0  0  0  0  0  0  0  0  0  0  0  0
  1  2  1  0
  2  3  2  0
  3  4  1  0
  4  5  1  0
  4  6  2  0
  6  7  1  0
  7  8  2  0
  8  9  1  0
  9 10  1  0
 10 11  1  0
 10 12  2  0
 12 13  1  0
 12 14  1  0
 14 15  1  0
 15 16  1  0
 15 17  1  0
 17 18  2  0
 18 19  1  0
 18 20  1  0
 20 21  1  0
 20 22  2  0
 22 23  1  0
 23 24  1  0
 23 25  2  0
 25 26  1  0
 14 27  1  0
 27 28  2  0
 28 29  1  0
  6 30  1  0
 30 31  1  0
 30 32  2  0
 32 33  1  0
 32  2  1  0
 28  7  1  0
 27  9  1  0
 25 17  1  0
M  END
>  <cnnaffinity>  (1) 
-5.5965

>  <filename>  (1) 
c1cncc(-c2cc3n(Nc4ccncc4)ccn3n2)c1

$$$$
