
     RDKit          3D

 33 36  0  0  0  0  0  0  0  0999 V2000
    5.0508    1.8057   16.9442 H   0  0  0  0  0  0  0  0  0  0  0  0
    5.4114    1.2268   17.7915 C   0  0  0  0  0  0  0  0  0  0  0  0
    6.5013    0.4733   17.5694 N   0  0  0  0  0  0  0  0  0  0  0  0
    6.9913   -0.2100   18.6053 C   0  0  0  0  0  0  0  0  0  0  0  0
    7.8710   -0.8241   18.4100 H   0  0  0  0  0  0  0  0  0  0  0  0
    6.4563   -0.1503   19.9065 C   0  0  0  0  0  0  0  0  0  0  0  0
    7.2376   -0.7849   20.9814 C   0  0  0  0  0  0  0  0  0  0  0  0
    8.1474   -1.6975   20.7532 N   0  0  0  0  0  0  0  0  0  0  0  0
    8.7085   -2.0599   21.9489 N   0  0  0  0  0  0  0  0  0  0  0  0
    8.1418   -1.3328   22.8670 C   0  0  0  0  0  0  0  0  0  0  0  0
    8.3937   -1.3273   23.9172 H   0  0  0  0  0  0  0  0  0  0  0  0
    7.1924   -0.4977   22.3341 N   0  0  0  0  0  0  0  0  0  0  0  0
    6.7141    0.6823   23.0188 C   0  0  0  0  0  0  0  0  0  0  0  0
    5.8794    0.5144   24.1203 C   0  0  0  0  0  0  0  0  0  0  0  0
    5.6507   -0.4815   24.4836 H   0  0  0  0  0  0  0  0  0  0  0  0
    5.3209    1.6466   24.7566 C   0  0  0  0  0  0  0  0  0  0  0  0
    4.6818    1.5081   25.6251 H   0  0  0  0  0  0  0  0  0  0  0  0
    5.6105    2.9162   24.3169 C   0  0  0  0  0  0  0  0  0  0  0  0
    5.1683    3.7859   24.7988 H   0  0  0  0  0  0  0  0  0  0  0  0
    6.5737    3.1100   23.2672 C   0  0  0  0  0  0  0  0  0  0  0  0
    7.0110    4.4193   22.9129 C   0  0  0  0  0  0  0  0  0  0  0  0
    6.4496    5.2759   23.2584 H   0  0  0  0  0  0  0  0  0  0  0  0
    8.1836    4.6304   22.1254 C   0  0  0  0  0  0  0  0  0  0  0  0
    8.5253    5.6516   21.8932 H   0  0  0  0  0  0  0  0  0  0  0  0
    8.7760    3.5110   21.6826 C   0  0  0  0  0  0  0  0  0  0  0  0
    7.9949    1.9513   20.5231 H   0  0  0  0  0  0  0  0  0  0  0  0
    8.3247    2.1438   21.5966 C   0  0  0  0  0  0  0  0  0  0  0  0
    9.1567    1.4075   21.7979 H   0  0  0  0  0  0  0  0  0  0  0  0
    7.1656    1.9631   22.6431 C   0  0  0  0  0  0  0  0  0  0  0  0
    5.2715    0.5750   20.1074 C   0  0  0  0  0  0  0  0  0  0  0  0
    4.8001    0.6015   21.0932 H   0  0  0  0  0  0  0  0  0  0  0  0
    4.7471    1.2793   19.0231 C   0  0  0  0  0  0  0  0  0  0  0  0
    3.8578    1.8932   19.1228 H   0  0  0  0  0  0  0  0  0  0  0  0
  1  2  1  0
  2  3  2  0
  3  4  1  0
  4  5  1  0
  4  6  2  0
  6  7  1  0
  7  8  2  0
  8  9  1  0
  9 10  2  0
 10 11  1  0
 10 12  1  0
 12 13  1  0
 13 14  2  0
 14 15  1  0
 14 16  1  0
 16 17  1  0
 16 18  2  0
 18 19  1  0
 18 20  1  0
 20 21  2  0
 21 22  1  0
 21 23  1  0
 23 24  1  0
 23 25  2  0
 25 26  1  0
 25 27  1  0
 27 28  1  0
 27 29  2  0
  6 30  1  0
 30 31  1  0
 30 32  2  0
 32 33  1  0
 32  2  1  0
 12  7  1  0
 29 13  1  0
 29 20  1  0
M  END
>  <cnnaffinity>  (1) 
-4.56992

>  <filename>  (1) 
c1cncc(-c2nncn2-c2cccc3ccccc23)c1

$$$$
