
     RDKit          3D

 36 39  0  0  0  0  0  0  0  0999 V2000
    4.9266    1.8191   16.9660 H   0  0  0  0  0  0  0  0  0  0  0  0
    5.3869    1.3074   17.8091 C   0  0  0  0  0  0  0  0  0  0  0  0
    6.5492    0.6860   17.5486 N   0  0  0  0  0  0  0  0  0  0  0  0
    7.1529    0.0680   18.5717 C   0  0  0  0  0  0  0  0  0  0  0  0
    8.0999   -0.4171   18.3374 H   0  0  0  0  0  0  0  0  0  0  0  0
    6.6387    0.0015   19.8836 C   0  0  0  0  0  0  0  0  0  0  0  0
    7.3687   -0.7171   20.9662 C   0  0  0  0  0  0  0  0  0  0  0  0
    6.7163   -1.5587   21.8874 C   0  0  0  0  0  0  0  0  0  0  0  0
    5.6408   -1.7315   21.8243 H   0  0  0  0  0  0  0  0  0  0  0  0
    7.3546   -2.2261   22.8596 N   0  0  0  0  0  0  0  0  0  0  0  0
    8.6782   -2.0636   22.9864 C   0  0  0  0  0  0  0  0  0  0  0  0
    9.1410   -2.6161   23.8096 H   0  0  0  0  0  0  0  0  0  0  0  0
    9.4313   -1.2162   22.1533 C   0  0  0  0  0  0  0  0  0  0  0  0
   10.8992   -1.0678   22.3199 C   0  0  0  0  0  0  0  0  0  0  0  0
   11.6782   -2.1947   22.1781 C   0  0  0  0  0  0  0  0  0  0  0  0
   11.1640   -3.1474   22.1584 H   0  0  0  0  0  0  0  0  0  0  0  0
   13.0920   -2.1069   22.1246 C   0  0  0  0  0  0  0  0  0  0  0  0
   13.7126   -2.9848   21.9803 H   0  0  0  0  0  0  0  0  0  0  0  0
   13.7188   -0.9179   22.3928 C   0  0  0  0  0  0  0  0  0  0  0  0
   14.7998   -0.8861   22.5034 H   0  0  0  0  0  0  0  0  0  0  0  0
   12.9593    0.2592   22.6438 C   0  0  0  0  0  0  0  0  0  0  0  0
   13.5947    1.4962   22.9491 C   0  0  0  0  0  0  0  0  0  0  0  0
   14.6809    1.5049   22.9817 H   0  0  0  0  0  0  0  0  0  0  0  0
   12.8602    2.6381   23.1580 C   0  0  0  0  0  0  0  0  0  0  0  0
   13.3631    3.5814   23.3470 H   0  0  0  0  0  0  0  0  0  0  0  0
   11.4414    2.5947   23.0949 C   0  0  0  0  0  0  0  0  0  0  0  0
   10.8630    3.5036   23.2352 H   0  0  0  0  0  0  0  0  0  0  0  0
   10.7961    1.4060   22.8383 C   0  0  0  0  0  0  0  0  0  0  0  0
    9.7104    1.3602   22.8016 H   0  0  0  0  0  0  0  0  0  0  0  0
   11.5280    0.1999   22.5954 C   0  0  0  0  0  0  0  0  0  0  0  0
    8.7520   -0.5679   21.1136 C   0  0  0  0  0  0  0  0  0  0  0  0
    9.3089    0.0945   20.4505 H   0  0  0  0  0  0  0  0  0  0  0  0
    5.4204    0.6545   20.1260 C   0  0  0  0  0  0  0  0  0  0  0  0
    5.0027    0.6586   21.1331 H   0  0  0  0  0  0  0  0  0  0  0  0
    4.7858    1.3195   19.0735 C   0  0  0  0  0  0  0  0  0  0  0  0
    3.8535    1.8575   19.2183 H   0  0  0  0  0  0  0  0  0  0  0  0
  1  2  1  0
  2  3  2  0
  3  4  1  0
  4  5  1  0
  4  6  2  0
  6  7  1  0
  7  8  2  0
  8  9  1  0
  8 10  1  0
 10 11  2  0
 11 12  1  0
 11 13  1  0
 13 14  1  0
 14 15  2  0
 15 16  1  0
 15 17  1  0
 17 18  1  0
 17 19  2  0
 19 20  1  0
 19 21  1  0
 21 22  2  0
 22 23  1  0
 22 24  1  0
 24 25  1  0
 24 26  2  0
 26 27  1  0
 26 28  1  0
 28 29  1  0
 28 30  2  0
 13 31  2  0
 31 32  1  0
  6 33  1  0
 33 34  1  0
 33 35  2  0
 35 36  1  0
 35  2  1  0
 31  7  1  0
 30 14  1  0
 30 21  1  0
M  END
>  <cnnaffinity>  (1) 
-6.14914

>  <filename>  (1) 
c1cncc(-c2cncc(-c3cccc4ccccc34)c2)c1

$$$$
