
     RDKit          3D

 35 37  0  0  0  0  0  0  0  0999 V2000
    4.9278    1.7789   16.9980 H   0  0  0  0  0  0  0  0  0  0  0  0
    5.4033    1.2890   17.8447 C   0  0  0  0  0  0  0  0  0  0  0  0
    6.5649    0.6721   17.5877 N   0  0  0  0  0  0  0  0  0  0  0  0
    7.1704    0.0594   18.6063 C   0  0  0  0  0  0  0  0  0  0  0  0
    8.1167   -0.4268   18.3867 H   0  0  0  0  0  0  0  0  0  0  0  0
    6.6496    0.0152   19.9085 C   0  0  0  0  0  0  0  0  0  0  0  0
    7.4152   -0.7035   20.9196 C   0  0  0  0  0  0  0  0  0  0  0  0
    8.5472   -1.3211   20.7977 N   0  0  0  0  0  0  0  0  0  0  0  0
    8.8454   -1.8556   22.0410 N   0  0  0  0  0  0  0  0  0  0  0  0
    7.8781   -1.5167   22.8276 C   0  0  0  0  0  0  0  0  0  0  0  0
    7.7761   -1.8117   24.2774 C   0  0  0  0  0  0  0  0  0  0  0  0
    8.3290   -2.7411   24.4327 H   0  0  0  0  0  0  0  0  0  0  0  0
    6.7312   -2.0042   24.5404 H   0  0  0  0  0  0  0  0  0  0  0  0
    8.3576   -0.7114   25.1919 C   0  0  0  0  0  0  0  0  0  0  0  0
    8.2700   -1.0763   26.2282 H   0  0  0  0  0  0  0  0  0  0  0  0
    7.5504    0.5932   25.0964 C   0  0  0  0  0  0  0  0  0  0  0  0
    6.4950    0.4053   25.3171 H   0  0  0  0  0  0  0  0  0  0  0  0
    7.5921    0.9793   24.0727 H   0  0  0  0  0  0  0  0  0  0  0  0
    8.1053    1.6563   26.0356 C   0  0  0  0  0  0  0  0  0  0  0  0
    7.9824    1.3415   27.0826 H   0  0  0  0  0  0  0  0  0  0  0  0
    7.5584    2.6018   25.9390 H   0  0  0  0  0  0  0  0  0  0  0  0
    9.5900    1.8889   25.7641 C   0  0  0  0  0  0  0  0  0  0  0  0
    9.7364    2.3449   24.7752 H   0  0  0  0  0  0  0  0  0  0  0  0
    9.9041    2.6359   26.4709 H   0  0  0  0  0  0  0  0  0  0  0  0
   10.4222    0.6035   25.8647 C   0  0  0  0  0  0  0  0  0  0  0  0
   11.4763    0.7993   25.6357 H   0  0  0  0  0  0  0  0  0  0  0  0
   10.3991    0.2218   26.8952 H   0  0  0  0  0  0  0  0  0  0  0  0
    9.8549   -0.4621   24.9249 C   0  0  0  0  0  0  0  0  0  0  0  0
    9.9916   -0.1325   23.8869 H   0  0  0  0  0  0  0  0  0  0  0  0
   10.4157   -1.3986   25.0123 H   0  0  0  0  0  0  0  0  0  0  0  0
    6.9277   -0.7884   22.1878 O   0  0  0  0  0  0  0  0  0  0  0  0
    5.4263    0.6577   20.1709 C   0  0  0  0  0  0  0  0  0  0  0  0
    4.9902    0.6435   21.1742 H   0  0  0  0  0  0  0  0  0  0  0  0
    4.8022    1.3107   19.1096 C   0  0  0  0  0  0  0  0  0  0  0  0
    3.8714    1.8452   19.2524 H   0  0  0  0  0  0  0  0  0  0  0  0
  1  2  1  0
  2  3  2  0
  3  4  1  0
  4  5  1  0
  4  6  2  0
  6  7  1  0
  7  8  2  0
  8  9  1  0
  9 10  2  0
 10 11  1  0
 11 12  1  0
 11 13  1  0
 11 14  1  0
 14 15  1  0
 14 16  1  0
 16 17  1  0
 16 18  1  0
 16 19  1  0
 19 20  1  0
 19 21  1  0
 19 22  1  0
 22 23  1  0
 22 24  1  0
 22 25  1  0
 25 26  1  0
 25 27  1  0
 25 28  1  0
 28 29  1  0
 28 30  1  0
 10 31  1  0
  6 32  1  0
 32 33  1  0
 32 34  2  0
 34 35  1  0
 34  2  1  0
 31  7  1  0
 28 14  1  0
M  END
>  <cnnaffinity>  (1) 
-5.02588

>  <filename>  (1) 
c1cncc(-c2nnc(CC3CCCCC3)o2)c1

$$$$
