
     RDKit          3D

 27 30  0  0  0  0  0  0  0  0999 V2000
    4.9320    1.7729   17.0016 H   0  0  0  0  0  0  0  0  0  0  0  0
    5.4102    1.2845   17.8465 C   0  0  0  0  0  0  0  0  0  0  0  0
    6.5749    0.6643   17.5987 N   0  0  0  0  0  0  0  0  0  0  0  0
    7.1784    0.0509   18.6226 C   0  0  0  0  0  0  0  0  0  0  0  0
    8.1251   -0.4325   18.3871 H   0  0  0  0  0  0  0  0  0  0  0  0
    6.6429    0.0147   19.9210 C   0  0  0  0  0  0  0  0  0  0  0  0
    7.3581   -0.6890   20.9867 C   0  0  0  0  0  0  0  0  0  0  0  0
    8.5391   -1.3283   20.7669 N   0  0  0  0  0  0  0  0  0  0  0  0
    8.8122   -1.8008   21.9609 C   0  0  0  0  0  0  0  0  0  0  0  0
   10.0547   -2.7298   22.7495 S   0  0  0  0  0  0  0  0  0  0  0  0
    9.1901   -2.6232   24.2502 C   0  0  0  0  0  0  0  0  0  0  0  0
    9.5864   -3.0892   25.1428 H   0  0  0  0  0  0  0  0  0  0  0  0
    8.0356   -1.9246   24.1640 C   0  0  0  0  0  0  0  0  0  0  0  0
    7.0785   -1.6414   25.2430 C   0  0  0  0  0  0  0  0  0  0  0  0
    7.2913   -2.0900   26.4846 N   0  0  0  0  0  0  0  0  0  0  0  0
    6.2439   -1.6595   27.1917 N   0  0  0  0  0  0  0  0  0  0  0  0
    6.2043   -1.8871   28.1725 H   0  0  0  0  0  0  0  0  0  0  0  0
    5.3512   -0.9458   26.4636 C   0  0  0  0  0  0  0  0  0  0  0  0
    4.4478   -0.5316   26.8990 H   0  0  0  0  0  0  0  0  0  0  0  0
    5.8669   -0.9102   25.1950 C   0  0  0  0  0  0  0  0  0  0  0  0
    5.4864   -0.4173   24.3280 H   0  0  0  0  0  0  0  0  0  0  0  0
    7.8507   -1.4729   22.8528 N   0  0  0  0  0  0  0  0  0  0  0  0
    6.8913   -0.7455   22.2353 N   0  0  0  0  0  0  0  0  0  0  0  0
    5.4220    0.6599   20.1681 C   0  0  0  0  0  0  0  0  0  0  0  0
    4.9929    0.6396   21.1734 H   0  0  0  0  0  0  0  0  0  0  0  0
    4.8041    1.3100   19.1068 C   0  0  0  0  0  0  0  0  0  0  0  0
    3.8743    1.8429   19.2550 H   0  0  0  0  0  0  0  0  0  0  0  0
  1  2  1  0
  2  3  2  0
  3  4  1  0
  4  5  1  0
  4  6  2  0
  6  7  1  0
  7  8  1  0
  8  9  2  0
  9 10  1  0
 10 11  1  0
 11 12  1  0
 11 13  2  0
 13 14  1  0
 14 15  2  0
 15 16  1  0
 16 17  1  0
 16 18  1  0
 18 19  1  0
 18 20  2  0
 20 21  1  0
 13 22  1  0
 22 23  1  0
  6 24  1  0
 24 25  1  0
 24 26  2  0
 26 27  1  0
 26  2  1  0
 23  7  2  0
 22  9  1  0
 20 14  1  0
M  END
>  <cnnaffinity>  (1) 
-5.18909

>  <filename>  (1) 
c1cncc(-c2nc3scc(-c4cc[nH]n4)n3n2)c1

$$$$
