
     RDKit          3D

 40 43  0  0  0  0  0  0  0  0999 V2000
    4.9683    1.8122   16.9599 H   0  0  0  0  0  0  0  0  0  0  0  0
    5.4110    1.2878   17.8048 C   0  0  0  0  0  0  0  0  0  0  0  0
    6.5467    0.6136   17.5614 N   0  0  0  0  0  0  0  0  0  0  0  0
    7.1250   -0.0085   18.5936 C   0  0  0  0  0  0  0  0  0  0  0  0
    8.0324   -0.5674   18.3683 H   0  0  0  0  0  0  0  0  0  0  0  0
    6.6432    0.0489   19.9113 C   0  0  0  0  0  0  0  0  0  0  0  0
    7.4226   -0.5773   20.9814 C   0  0  0  0  0  0  0  0  0  0  0  0
    7.7991   -1.8967   20.8768 N   0  0  0  0  0  0  0  0  0  0  0  0
    8.4027   -2.1409   22.0117 C   0  0  0  0  0  0  0  0  0  0  0  0
    9.2037   -3.5049   22.7683 S   0  0  0  0  0  0  0  0  0  0  0  0
    9.7544   -2.4658   24.0767 C   0  0  0  0  0  0  0  0  0  0  0  0
   10.4691   -2.8353   24.8024 H   0  0  0  0  0  0  0  0  0  0  0  0
    9.2738   -1.2177   23.9672 C   0  0  0  0  0  0  0  0  0  0  0  0
    9.4410   -0.3715   24.6226 H   0  0  0  0  0  0  0  0  0  0  0  0
    8.4964   -1.0438   22.8261 N   0  0  0  0  0  0  0  0  0  0  0  0
    7.8582   -0.0043   22.1749 C   0  0  0  0  0  0  0  0  0  0  0  0
    7.7492    1.3612   22.7881 C   0  0  0  0  0  0  0  0  0  0  0  0
    7.2042    2.0022   22.0850 H   0  0  0  0  0  0  0  0  0  0  0  0
    8.7536    1.7967   22.8955 H   0  0  0  0  0  0  0  0  0  0  0  0
    7.0350    1.3920   24.1663 C   0  0  0  0  0  0  0  0  0  0  0  0
    7.5720    0.7185   24.8488 H   0  0  0  0  0  0  0  0  0  0  0  0
    5.6027    0.8531   24.0332 C   0  0  0  0  0  0  0  0  0  0  0  0
    5.7173   -0.1822   23.6993 H   0  0  0  0  0  0  0  0  0  0  0  0
    5.0636    1.4284   23.2604 H   0  0  0  0  0  0  0  0  0  0  0  0
    4.7794    0.9002   25.3272 C   0  0  0  0  0  0  0  0  0  0  0  0
    3.7397    0.6202   25.1080 H   0  0  0  0  0  0  0  0  0  0  0  0
    5.1627    0.1449   26.0251 H   0  0  0  0  0  0  0  0  0  0  0  0
    4.8341    2.2742   26.0056 C   0  0  0  0  0  0  0  0  0  0  0  0
    4.2898    3.0014   25.3844 H   0  0  0  0  0  0  0  0  0  0  0  0
    4.3269    2.2230   26.9796 H   0  0  0  0  0  0  0  0  0  0  0  0
    6.2847    2.7530   26.1828 C   0  0  0  0  0  0  0  0  0  0  0  0
    6.8000    2.0713   26.8796 H   0  0  0  0  0  0  0  0  0  0  0  0
    6.2940    3.7505   26.6404 H   0  0  0  0  0  0  0  0  0  0  0  0
    7.0526    2.7732   24.8453 C   0  0  0  0  0  0  0  0  0  0  0  0
    8.0918    3.0848   25.0279 H   0  0  0  0  0  0  0  0  0  0  0  0
    6.5959    3.5219   24.1782 H   0  0  0  0  0  0  0  0  0  0  0  0
    5.4212    0.7043   20.1364 C   0  0  0  0  0  0  0  0  0  0  0  0
    4.9564    0.7092   21.1273 H   0  0  0  0  0  0  0  0  0  0  0  0
    4.7984    1.3301   19.0608 C   0  0  0  0  0  0  0  0  0  0  0  0
    3.8604    1.8577   19.1837 H   0  0  0  0  0  0  0  0  0  0  0  0
  1  2  1  0
  2  3  2  0
  3  4  1  0
  4  5  1  0
  4  6  2  0
  6  7  1  0
  7  8  1  0
  8  9  2  0
  9 10  1  0
 10 11  1  0
 11 12  1  0
 11 13  2  0
 13 14  1  0
 13 15  1  0
 15 16  1  0
 16 17  1  0
 17 18  1  0
 17 19  1  0
 17 20  1  0
 20 21  1  0
 20 22  1  0
 22 23  1  0
 22 24  1  0
 22 25  1  0
 25 26  1  0
 25 27  1  0
 25 28  1  0
 28 29  1  0
 28 30  1  0
 28 31  1  0
 31 32  1  0
 31 33  1  0
 31 34  1  0
 34 35  1  0
 34 36  1  0
  6 37  1  0
 37 38  1  0
 37 39  2  0
 39 40  1  0
 39  2  1  0
 16  7  2  0
 34 20  1  0
 15  9  1  0
M  END
>  <cnnaffinity>  (1) 
-5.32789

>  <filename>  (1) 
c1cncc(-c2nc3sccn3c2CC2CCCCC2)c1

$$$$
