
     RDKit          3D

 43 46  0  0  0  0  0  0  0  0999 V2000
    5.0013    1.8470   17.0133 H   0  0  0  0  0  0  0  0  0  0  0  0
    5.5105    1.3166   17.8116 C   0  0  0  0  0  0  0  0  0  0  0  0
    6.6703    0.7261   17.4761 N   0  0  0  0  0  0  0  0  0  0  0  0
    7.3363    0.0588   18.4263 C   0  0  0  0  0  0  0  0  0  0  0  0
    8.2776   -0.4011   18.1145 H   0  0  0  0  0  0  0  0  0  0  0  0
    6.8643   -0.0787   19.7460 C   0  0  0  0  0  0  0  0  0  0  0  0
    7.5260   -0.9140   20.6915 N   0  0  0  0  0  0  0  0  0  0  0  0
    8.8635   -0.8422   21.0826 C   0  0  0  0  0  0  0  0  0  0  0  0
    9.5135   -0.1154   20.6206 H   0  0  0  0  0  0  0  0  0  0  0  0
    9.0859   -1.7124   22.1040 C   0  0  0  0  0  0  0  0  0  0  0  0
    9.9458   -1.9478   22.7064 H   0  0  0  0  0  0  0  0  0  0  0  0
    7.8712   -2.3369   22.3437 N   0  0  0  0  0  0  0  0  0  0  0  0
    7.4095   -3.2275   23.2606 N   0  0  0  0  0  0  0  0  0  0  0  0
    6.1122   -3.3045   22.9636 C   0  0  0  0  0  0  0  0  0  0  0  0
    5.1315   -4.1541   23.7198 C   0  0  0  0  0  0  0  0  0  0  0  0
    5.6318   -5.0268   24.1449 H   0  0  0  0  0  0  0  0  0  0  0  0
    4.4075   -4.5448   22.9977 H   0  0  0  0  0  0  0  0  0  0  0  0
    4.3413   -3.4491   24.8360 C   0  0  0  0  0  0  0  0  0  0  0  0
    5.0530   -3.1212   25.6062 H   0  0  0  0  0  0  0  0  0  0  0  0
    3.8459   -2.5276   24.4747 H   0  0  0  0  0  0  0  0  0  0  0  0
    3.3743   -4.3754   25.4350 N   0  0  0  0  0  0  0  0  0  0  0  0
    2.0979   -4.4684   24.7032 C   0  0  0  0  0  0  0  0  0  0  0  0
    1.5407   -3.5071   24.7291 H   0  0  0  0  0  0  0  0  0  0  0  0
    2.2983   -4.6803   23.6450 H   0  0  0  0  0  0  0  0  0  0  0  0
    1.2090   -5.5807   25.2769 C   0  0  0  0  0  0  0  0  0  0  0  0
    0.2584   -5.6215   24.7328 H   0  0  0  0  0  0  0  0  0  0  0  0
    1.7108   -6.5409   25.1102 H   0  0  0  0  0  0  0  0  0  0  0  0
    0.9658   -5.3988   26.7796 C   0  0  0  0  0  0  0  0  0  0  0  0
    0.4115   -6.2496   27.1917 H   0  0  0  0  0  0  0  0  0  0  0  0
    0.3357   -4.5168   26.9563 H   0  0  0  0  0  0  0  0  0  0  0  0
    2.3093   -5.2285   27.4942 C   0  0  0  0  0  0  0  0  0  0  0  0
    2.1681   -5.0265   28.5617 H   0  0  0  0  0  0  0  0  0  0  0  0
    2.8828   -6.1596   27.4169 H   0  0  0  0  0  0  0  0  0  0  0  0
    3.1358   -4.1099   26.8599 C   0  0  0  0  0  0  0  0  0  0  0  0
    2.6256   -3.1358   27.0244 H   0  0  0  0  0  0  0  0  0  0  0  0
    4.1085   -4.0487   27.3649 H   0  0  0  0  0  0  0  0  0  0  0  0
    5.7496   -2.5071   21.8670 C   0  0  0  0  0  0  0  0  0  0  0  0
    4.7482   -2.4175   21.5167 H   0  0  0  0  0  0  0  0  0  0  0  0
    6.9240   -1.8623   21.5084 C   0  0  0  0  0  0  0  0  0  0  0  0
    5.6769    0.5914   20.0958 C   0  0  0  0  0  0  0  0  0  0  0  0
    5.3265    0.5756   21.1277 H   0  0  0  0  0  0  0  0  0  0  0  0
    4.9801    1.2864   19.1059 C   0  0  0  0  0  0  0  0  0  0  0  0
    4.0539    1.8133   19.3242 H   0  0  0  0  0  0  0  0  0  0  0  0
  1  2  1  0
  2  3  2  0
  3  4  1  0
  4  5  1  0
  4  6  2  0
  6  7  1  0
  7  8  1  0
  8  9  1  0
  8 10  2  0
 10 11  1  0
 10 12  1  0
 12 13  1  0
 13 14  2  0
 14 15  1  0
 15 16  1  0
 15 17  1  0
 15 18  1  0
 18 19  1  0
 18 20  1  0
 18 21  1  0
 21 22  1  0
 22 23  1  0
 22 24  1  0
 22 25  1  0
 25 26  1  0
 25 27  1  0
 25 28  1  0
 28 29  1  0
 28 30  1  0
 28 31  1  0
 31 32  1  0
 31 33  1  0
 31 34  1  0
 34 35  1  0
 34 36  1  0
 14 37  1  0
 37 38  1  0
 37 39  2  0
  6 40  1  0
 40 41  1  0
 40 42  2  0
 42 43  1  0
 42  2  1  0
 39  7  1  0
 39 12  1  0
 34 21  1  0
M  END
>  <cnnaffinity>  (1) 
-5.10637

>  <filename>  (1) 
c1cncc(-n2ccn3nc(CCN4CCCCC4)cc23)c1

$$$$
