
     RDKit          3D

 32 35  0  0  0  0  0  0  0  0999 V2000
    4.9439    1.8222   16.9619 H   0  0  0  0  0  0  0  0  0  0  0  0
    5.4140    1.3061   17.7955 C   0  0  0  0  0  0  0  0  0  0  0  0
    6.5658    0.6663   17.5354 N   0  0  0  0  0  0  0  0  0  0  0  0
    7.1791    0.0422   18.5478 C   0  0  0  0  0  0  0  0  0  0  0  0
    8.1025   -0.4815   18.3014 H   0  0  0  0  0  0  0  0  0  0  0  0
    6.6825    0.0173   19.8643 C   0  0  0  0  0  0  0  0  0  0  0  0
    7.3857   -0.6692   20.8967 N   0  0  0  0  0  0  0  0  0  0  0  0
    8.7584   -0.7569   21.0458 C   0  0  0  0  0  0  0  0  0  0  0  0
    9.4164   -0.2800   20.3290 H   0  0  0  0  0  0  0  0  0  0  0  0
    9.0281   -1.4726   22.1763 C   0  0  0  0  0  0  0  0  0  0  0  0
   10.0176   -1.6682   22.5741 H   0  0  0  0  0  0  0  0  0  0  0  0
    7.7818   -1.8587   22.7809 C   0  0  0  0  0  0  0  0  0  0  0  0
    7.5527   -2.5679   24.0589 C   0  0  0  0  0  0  0  0  0  0  0  0
    6.5466   -2.2483   24.9166 C   0  0  0  0  0  0  0  0  0  0  0  0
    5.8309   -1.4423   24.8119 H   0  0  0  0  0  0  0  0  0  0  0  0
    6.4746   -3.2095   26.3474 S   0  0  0  0  0  0  0  0  0  0  0  0
    7.8742   -4.1184   25.8669 C   0  0  0  0  0  0  0  0  0  0  0  0
    8.4951   -5.1713   26.5724 C   0  0  0  0  0  0  0  0  0  0  0  0
    8.0898   -5.5476   27.5122 H   0  0  0  0  0  0  0  0  0  0  0  0
    9.6613   -5.7091   26.0408 C   0  0  0  0  0  0  0  0  0  0  0  0
   10.1852   -6.5019   26.5560 H   0  0  0  0  0  0  0  0  0  0  0  0
   10.1880   -5.2338   24.8258 C   0  0  0  0  0  0  0  0  0  0  0  0
   11.1588   -5.6047   24.5001 H   0  0  0  0  0  0  0  0  0  0  0  0
    9.5261   -4.2645   24.0896 C   0  0  0  0  0  0  0  0  0  0  0  0
    9.8991   -3.9633   23.1136 H   0  0  0  0  0  0  0  0  0  0  0  0
    8.3609   -3.6635   24.6144 C   0  0  0  0  0  0  0  0  0  0  0  0
    6.8094   -1.3561   21.9398 C   0  0  0  0  0  0  0  0  0  0  0  0
    5.7354   -1.4807   21.9582 H   0  0  0  0  0  0  0  0  0  0  0  0
    5.4698    0.6789   20.1201 C   0  0  0  0  0  0  0  0  0  0  0  0
    5.0559    0.7075   21.1282 H   0  0  0  0  0  0  0  0  0  0  0  0
    4.8253    1.3256   19.0639 C   0  0  0  0  0  0  0  0  0  0  0  0
    3.8824    1.8426   19.2159 H   0  0  0  0  0  0  0  0  0  0  0  0
  1  2  1  0
  2  3  2  0
  3  4  1  0
  4  5  1  0
  4  6  2  0
  6  7  1  0
  7  8  1  0
  8  9  1  0
  8 10  2  0
 10 11  1  0
 10 12  1  0
 12 13  1  0
 13 14  2  0
 14 15  1  0
 14 16  1  0
 16 17  1  0
 17 18  2  0
 18 19  1  0
 18 20  1  0
 20 21  1  0
 20 22  2  0
 22 23  1  0
 22 24  1  0
 24 25  1  0
 24 26  2  0
 12 27  2  0
 27 28  1  0
  6 29  1  0
 29 30  1  0
 29 31  2  0
 31 32  1  0
 31  2  1  0
 27  7  1  0
 26 13  1  0
 26 17  1  0
M  END
>  <cnnaffinity>  (1) 
-5.28336

>  <filename>  (1) 
c1cncc(-n2ccc(-c3csc4ccccc34)c2)c1

$$$$
