
     RDKit          3D

 30 32  0  0  0  0  0  0  0  0999 V2000
    5.0114    1.7170   17.0690 H   0  0  0  0  0  0  0  0  0  0  0  0
    5.4622    1.1470   17.8817 C   0  0  0  0  0  0  0  0  0  0  0  0
    6.5629    0.4453   17.5713 N   0  0  0  0  0  0  0  0  0  0  0  0
    7.1746   -0.2156   18.5620 C   0  0  0  0  0  0  0  0  0  0  0  0
    8.0488   -0.7861   18.2499 H   0  0  0  0  0  0  0  0  0  0  0  0
    6.7515   -0.2172   19.9138 C   0  0  0  0  0  0  0  0  0  0  0  0
    7.5690   -0.8560   20.9894 C   0  0  0  0  0  0  0  0  0  0  0  0
    7.3162   -1.7444   22.0366 C   0  0  0  0  0  0  0  0  0  0  0  0
    6.0671   -2.3029   22.3646 N   0  0  0  0  0  0  0  0  0  0  0  0
    5.3310   -1.6511   22.1024 H   0  0  0  0  0  0  0  0  0  0  0  0
    5.8342   -3.0049   23.6288 C   0  0  0  0  0  0  0  0  0  0  0  0
    4.8727   -3.5533   23.5329 H   0  0  0  0  0  0  0  0  0  0  0  0
    6.6166   -3.8003   23.6840 H   0  0  0  0  0  0  0  0  0  0  0  0
    5.7932   -1.9267   25.3880 C   0  0  0  0  0  0  0  0  0  0  0  0
    5.6649   -0.5740   24.6032 H   0  0  0  0  0  0  0  0  0  0  0  0
    5.7135   -2.1596   25.4203 C   0  0  0  0  0  0  0  0  0  0  0  0
    6.6181   -2.7586   25.7917 H   0  0  0  0  0  0  0  0  0  0  0  0
    6.8206   -1.0821   26.2046 H   0  0  0  0  0  0  0  0  0  0  0  0
    4.4815   -2.2275   25.8642 C   0  0  0  0  0  0  0  0  0  0  0  0
    3.9643   -1.3681   25.5578 H   0  0  0  0  0  0  0  0  0  0  0  0
    4.1571   -3.0491   26.5163 H   0  0  0  0  0  0  0  0  0  0  0  0
    8.5846   -1.9707   22.6488 C   0  0  0  0  0  0  0  0  0  0  0  0
    8.8443   -2.6293   23.4693 H   0  0  0  0  0  0  0  0  0  0  0  0
    9.5449   -1.2618   22.0581 N   0  0  0  0  0  0  0  0  0  0  0  0
    8.9131   -0.6123   21.0734 N   0  0  0  0  0  0  0  0  0  0  0  0
    9.4429    0.0100   20.4781 H   0  0  0  0  0  0  0  0  0  0  0  0
    5.5533    0.4673   20.1917 C   0  0  0  0  0  0  0  0  0  0  0  0
    5.1560    0.4899   21.2074 H   0  0  0  0  0  0  0  0  0  0  0  0
    4.9070    1.1634   19.1638 C   0  0  0  0  0  0  0  0  0  0  0  0
    3.9992    1.7297   19.3389 H   0  0  0  0  0  0  0  0  0  0  0  0
  1  2  1  0
  2  3  2  0
  3  4  1  0
  4  5  1  0
  4  6  2  0
  6  7  1  0
  7  8  2  0
  8  9  1  0
  9 10  1  0
  9 11  1  0
 11 12  1  0
 11 13  1  0
 11 14  1  0
 14 15  1  0
 14 16  1  0
 16 17  1  0
 16 18  1  0
 16 19  1  0
 19 20  1  0
 19 21  1  0
  8 22  1  0
 22 23  1  0
 22 24  2  0
 24 25  1  0
 25 26  1  0
  6 27  1  0
 27 28  1  0
 27 29  2  0
 29 30  1  0
 29  2  1  0
 25  7  1  0
 19 14  1  0
M  END
>  <cnnaffinity>  (1) 
-4.69869

>  <filename>  (1) 
c1cncc(-c2[nH]ncc2NCC2CC2)c1

$$$$
