
     RDKit          3D

 32 35  0  0  0  0  0  0  0  0999 V2000
    5.0109    2.1439   16.3175 H   0  0  0  0  0  0  0  0  0  0  0  0
    5.2517    1.6660   17.2673 C   0  0  0  0  0  0  0  0  0  0  0  0
    6.3781    0.9371   17.2878 N   0  0  0  0  0  0  0  0  0  0  0  0
    6.7036    0.3553   18.4429 C   0  0  0  0  0  0  0  0  0  0  0  0
    7.6169   -0.2372   18.4645 H   0  0  0  0  0  0  0  0  0  0  0  0
    5.9422    0.4590   19.6109 C   0  0  0  0  0  0  0  0  0  0  0  0
    6.4621   -0.2709   20.7591 C   0  0  0  0  0  0  0  0  0  0  0  0
    7.5203   -1.0108   20.7660 N   0  0  0  0  0  0  0  0  0  0  0  0
    7.5965   -1.5347   22.0489 C   0  0  0  0  0  0  0  0  0  0  0  0
    8.8072   -2.2590   22.4165 C   0  0  0  0  0  0  0  0  0  0  0  0
    9.9844   -1.7765   21.8695 C   0  0  0  0  0  0  0  0  0  0  0  0
    9.9561   -0.9917   21.1173 H   0  0  0  0  0  0  0  0  0  0  0  0
   11.2197   -2.1954   22.2216 N   0  0  0  0  0  0  0  0  0  0  0  0
   11.2955   -3.1482   23.1232 C   0  0  0  0  0  0  0  0  0  0  0  0
   12.2876   -3.5068   23.3875 H   0  0  0  0  0  0  0  0  0  0  0  0
   10.1803   -3.7412   23.7682 C   0  0  0  0  0  0  0  0  0  0  0  0
   10.3492   -4.7232   24.7892 C   0  0  0  0  0  0  0  0  0  0  0  0
   11.3549   -4.9600   25.1367 H   0  0  0  0  0  0  0  0  0  0  0  0
    9.2528   -5.3436   25.3218 C   0  0  0  0  0  0  0  0  0  0  0  0
    9.3813   -6.1039   26.0880 H   0  0  0  0  0  0  0  0  0  0  0  0
    7.9461   -4.9902   24.8938 C   0  0  0  0  0  0  0  0  0  0  0  0
    7.1024   -5.4897   25.3559 H   0  0  0  0  0  0  0  0  0  0  0  0
    7.7507   -4.0207   23.9292 C   0  0  0  0  0  0  0  0  0  0  0  0
    6.7383   -3.7748   23.6224 H   0  0  0  0  0  0  0  0  0  0  0  0
    8.8738   -3.3349   23.3645 C   0  0  0  0  0  0  0  0  0  0  0  0
    6.5681   -1.0232   22.7699 C   0  0  0  0  0  0  0  0  0  0  0  0
    6.2287   -1.1300   23.7881 H   0  0  0  0  0  0  0  0  0  0  0  0
    5.8425   -0.2005   21.9492 O   0  0  0  0  0  0  0  0  0  0  0  0
    4.7601    1.2180   19.5844 C   0  0  0  0  0  0  0  0  0  0  0  0
    4.1441    1.3340   20.4741 H   0  0  0  0  0  0  0  0  0  0  0  0
    4.4132    1.8220   18.3763 C   0  0  0  0  0  0  0  0  0  0  0  0
    3.5122    2.4183   18.2831 H   0  0  0  0  0  0  0  0  0  0  0  0
  1  2  1  0
  2  3  2  0
  3  4  1  0
  4  5  1  0
  4  6  2  0
  6  7  1  0
  7  8  2  0
  8  9  1  0
  9 10  1  0
 10 11  2  0
 11 12  1  0
 11 13  1  0
 13 14  2  0
 14 15  1  0
 14 16  1  0
 16 17  2  0
 17 18  1  0
 17 19  1  0
 19 20  1  0
 19 21  2  0
 21 22  1  0
 21 23  1  0
 23 24  1  0
 23 25  2  0
  9 26  2  0
 26 27  1  0
 26 28  1  0
  6 29  1  0
 29 30  1  0
 29 31  2  0
 31 32  1  0
 31  2  1  0
 28  7  1  0
 25 10  1  0
 25 16  1  0
M  END
>  <cnnaffinity>  (1) 
-5.63161

>  <filename>  (1) 
c1cncc(-c2nc(-c3cncc4ccccc34)co2)c1

$$$$
