
     RDKit          3D

 34 37  0  0  0  0  0  0  0  0999 V2000
    4.9460    1.8769   16.8717 H   0  0  0  0  0  0  0  0  0  0  0  0
    5.4275    1.3764   17.7073 C   0  0  0  0  0  0  0  0  0  0  0  0
    6.5924    0.7726   17.4303 N   0  0  0  0  0  0  0  0  0  0  0  0
    7.2030    0.1389   18.4391 C   0  0  0  0  0  0  0  0  0  0  0  0
    8.1476   -0.3578   18.2057 H   0  0  0  0  0  0  0  0  0  0  0  0
    6.6980    0.0714   19.7419 C   0  0  0  0  0  0  0  0  0  0  0  0
    7.3943   -0.7438   20.7993 C   0  0  0  0  0  0  0  0  0  0  0  0
    8.3912   -1.0656   20.4649 H   0  0  0  0  0  0  0  0  0  0  0  0
    7.5382   -0.1429   21.7006 H   0  0  0  0  0  0  0  0  0  0  0  0
    6.5995   -1.9165   21.1629 N   0  0  0  0  0  0  0  0  0  0  0  0
    6.0053   -2.7736   20.2804 C   0  0  0  0  0  0  0  0  0  0  0  0
    6.0039   -2.5675   19.2182 H   0  0  0  0  0  0  0  0  0  0  0  0
    5.4750   -3.8185   20.8618 N   0  0  0  0  0  0  0  0  0  0  0  0
    5.7405   -3.6452   22.1911 C   0  0  0  0  0  0  0  0  0  0  0  0
    5.4500   -4.3795   22.9319 H   0  0  0  0  0  0  0  0  0  0  0  0
    6.4295   -2.4763   22.4186 C   0  0  0  0  0  0  0  0  0  0  0  0
    6.8414   -1.8569   23.6650 C   0  0  0  0  0  0  0  0  0  0  0  0
    6.5366   -0.5915   24.0515 C   0  0  0  0  0  0  0  0  0  0  0  0
    6.0412    0.1514   23.4415 H   0  0  0  0  0  0  0  0  0  0  0  0
    6.9281   -0.2335   25.6919 S   0  0  0  0  0  0  0  0  0  0  0  0
    7.5348   -1.8512   25.9272 C   0  0  0  0  0  0  0  0  0  0  0  0
    8.0133   -2.4151   27.1217 C   0  0  0  0  0  0  0  0  0  0  0  0
    8.0257   -1.8098   28.0159 H   0  0  0  0  0  0  0  0  0  0  0  0
    8.4803   -3.7277   27.1050 C   0  0  0  0  0  0  0  0  0  0  0  0
    8.7985   -4.2389   28.0093 H   0  0  0  0  0  0  0  0  0  0  0  0
    8.5332   -4.4455   25.8920 C   0  0  0  0  0  0  0  0  0  0  0  0
    8.9435   -5.4501   25.9007 H   0  0  0  0  0  0  0  0  0  0  0  0
    8.0721   -3.8881   24.7086 C   0  0  0  0  0  0  0  0  0  0  0  0
    8.1744   -4.4073   23.7563 H   0  0  0  0  0  0  0  0  0  0  0  0
    7.4918   -2.5981   24.7320 C   0  0  0  0  0  0  0  0  0  0  0  0
    5.4760    0.7001   20.0095 C   0  0  0  0  0  0  0  0  0  0  0  0
    5.0417    0.6400   21.0114 H   0  0  0  0  0  0  0  0  0  0  0  0
    4.8250    1.3658   18.9704 C   0  0  0  0  0  0  0  0  0  0  0  0
    3.8709    1.8570   19.1245 H   0  0  0  0  0  0  0  0  0  0  0  0
  1  2  1  0
  2  3  2  0
  3  4  1  0
  4  5  1  0
  4  6  2  0
  6  7  1  0
  7  8  1  0
  7  9  1  0
  7 10  1  0
 10 11  1  0
 11 12  1  0
 11 13  2  0
 13 14  1  0
 14 15  1  0
 14 16  2  0
 16 17  1  0
 17 18  2  0
 18 19  1  0
 18 20  1  0
 20 21  1  0
 21 22  2  0
 22 23  1  0
 22 24  1  0
 24 25  1  0
 24 26  2  0
 26 27  1  0
 26 28  1  0
 28 29  1  0
 28 30  2  0
  6 31  1  0
 31 32  1  0
 31 33  2  0
 33 34  1  0
 33  2  1  0
 16 10  1  0
 30 17  1  0
 30 21  1  0
M  END
>  <cnnaffinity>  (1) 
-5.20624

>  <filename>  (1) 
c1cncc(Cn2cncc2-c2csc3ccccc23)c1

$$$$
