
     RDKit          3D

 38 40  0  0  0  0  0  0  0  0999 V2000
    4.9466    1.7770   17.0040 H   0  0  0  0  0  0  0  0  0  0  0  0
    5.4206    1.2665   17.8396 C   0  0  0  0  0  0  0  0  0  0  0  0
    6.5873    0.6491   17.5814 N   0  0  0  0  0  0  0  0  0  0  0  0
    7.2052    0.0499   18.6085 C   0  0  0  0  0  0  0  0  0  0  0  0
    8.1539   -0.4359   18.3726 H   0  0  0  0  0  0  0  0  0  0  0  0
    6.7069    0.0073   19.9335 C   0  0  0  0  0  0  0  0  0  0  0  0
    7.4447   -0.5637   20.9937 N   0  0  0  0  0  0  0  0  0  0  0  0
    8.4361   -0.6734   20.8246 H   0  0  0  0  0  0  0  0  0  0  0  0
    6.9408   -1.5065   21.9096 C   0  0  0  0  0  0  0  0  0  0  0  0
    5.8328   -2.3926   21.8342 C   0  0  0  0  0  0  0  0  0  0  0  0
    5.1729   -2.5826   21.0025 H   0  0  0  0  0  0  0  0  0  0  0  0
    5.6769   -3.0827   22.9624 N   0  0  0  0  0  0  0  0  0  0  0  0
    6.6854   -2.6679   23.7456 N   0  0  0  0  0  0  0  0  0  0  0  0
    6.6883   -2.9543   24.7199 H   0  0  0  0  0  0  0  0  0  0  0  0
    7.4974   -1.7463   23.1565 C   0  0  0  0  0  0  0  0  0  0  0  0
    8.7426   -1.1995   23.8165 C   0  0  0  0  0  0  0  0  0  0  0  0
    9.5417   -1.0950   23.0674 H   0  0  0  0  0  0  0  0  0  0  0  0
    9.1356   -1.9270   24.5496 H   0  0  0  0  0  0  0  0  0  0  0  0
    8.6012    0.0852   24.4959 N   0  0  0  0  0  0  0  0  0  0  0  0
    8.2615    1.1961   23.5927 C   0  0  0  0  0  0  0  0  0  0  0  0
    8.9417    1.1788   22.7324 H   0  0  0  0  0  0  0  0  0  0  0  0
    7.2341    1.1065   23.1890 H   0  0  0  0  0  0  0  0  0  0  0  0
    8.4264    2.5317   24.3223 C   0  0  0  0  0  0  0  0  0  0  0  0
    9.4879    2.6627   24.5724 H   0  0  0  0  0  0  0  0  0  0  0  0
    8.1578    3.3523   23.6477 H   0  0  0  0  0  0  0  0  0  0  0  0
    7.5865    2.5823   25.6049 C   0  0  0  0  0  0  0  0  0  0  0  0
    7.7906    3.5055   26.1596 H   0  0  0  0  0  0  0  0  0  0  0  0
    6.5163    2.5955   25.3464 H   0  0  0  0  0  0  0  0  0  0  0  0
    7.8857    1.3549   26.4742 C   0  0  0  0  0  0  0  0  0  0  0  0
    8.9155    1.4088   26.8471 H   0  0  0  0  0  0  0  0  0  0  0  0
    7.2306    1.3299   27.3518 H   0  0  0  0  0  0  0  0  0  0  0  0
    7.7211    0.0607   25.6724 C   0  0  0  0  0  0  0  0  0  0  0  0
    7.9953   -0.7951   26.3031 H   0  0  0  0  0  0  0  0  0  0  0  0
    6.6523   -0.0616   25.4022 H   0  0  0  0  0  0  0  0  0  0  0  0
    5.4693    0.6283   20.1686 C   0  0  0  0  0  0  0  0  0  0  0  0
    5.0429    0.6174   21.1713 H   0  0  0  0  0  0  0  0  0  0  0  0
    4.8283    1.2738   19.1061 C   0  0  0  0  0  0  0  0  0  0  0  0
    3.8903    1.7967   19.2565 H   0  0  0  0  0  0  0  0  0  0  0  0
  1  2  1  0
  2  3  2  0
  3  4  1  0
  4  5  1  0
  4  6  2  0
  6  7  1  0
  7  8  1  0
  7  9  1  0
  9 10  1  0
 10 11  1  0
 10 12  2  0
 12 13  1  0
 13 14  1  0
 13 15  1  0
 15 16  1  0
 16 17  1  0
 16 18  1  0
 16 19  1  0
 19 20  1  0
 20 21  1  0
 20 22  1  0
 20 23  1  0
 23 24  1  0
 23 25  1  0
 23 26  1  0
 26 27  1  0
 26 28  1  0
 26 29  1  0
 29 30  1  0
 29 31  1  0
 29 32  1  0
 32 33  1  0
 32 34  1  0
  6 35  1  0
 35 36  1  0
 35 37  2  0
 37 38  1  0
 37  2  1  0
 15  9  2  0
 32 19  1  0
M  END
>  <cnnaffinity>  (1) 
-5.60416

>  <filename>  (1) 
c1cncc(Nc2cn[nH]c2CN2CCCCC2)c1

$$$$
