
     RDKit          3D

 37 39  0  0  0  0  0  0  0  0999 V2000
    4.9360    1.8153   16.9399 H   0  0  0  0  0  0  0  0  0  0  0  0
    5.4346    1.3063   17.7615 C   0  0  0  0  0  0  0  0  0  0  0  0
    6.5904    0.6920   17.4599 N   0  0  0  0  0  0  0  0  0  0  0  0
    7.2382    0.0683   18.4524 C   0  0  0  0  0  0  0  0  0  0  0  0
    8.1669   -0.4272   18.1697 H   0  0  0  0  0  0  0  0  0  0  0  0
    6.7763    0.0172   19.7855 C   0  0  0  0  0  0  0  0  0  0  0  0
    7.5169   -0.6778   20.8625 C   0  0  0  0  0  0  0  0  0  0  0  0
    9.2110   -1.0343   20.7802 S   0  0  0  0  0  0  0  0  0  0  0  0
    9.1994   -1.7359   22.3578 C   0  0  0  0  0  0  0  0  0  0  0  0
   10.1085   -2.1496   22.7757 H   0  0  0  0  0  0  0  0  0  0  0  0
    7.9615   -1.7052   22.9308 C   0  0  0  0  0  0  0  0  0  0  0  0
    7.5456   -2.2328   24.2856 C   0  0  0  0  0  0  0  0  0  0  0  0
    8.4287   -2.4571   24.8984 H   0  0  0  0  0  0  0  0  0  0  0  0
    7.0076   -1.4340   24.8156 H   0  0  0  0  0  0  0  0  0  0  0  0
    6.6139   -3.4626   24.1858 C   0  0  0  0  0  0  0  0  0  0  0  0
    5.7845   -3.1806   23.5148 H   0  0  0  0  0  0  0  0  0  0  0  0
    7.3446   -4.6809   23.5900 C   0  0  0  0  0  0  0  0  0  0  0  0
    8.2002   -4.9139   24.2428 H   0  0  0  0  0  0  0  0  0  0  0  0
    7.7702   -4.4353   22.6086 H   0  0  0  0  0  0  0  0  0  0  0  0
    6.4646   -5.9367   23.4943 C   0  0  0  0  0  0  0  0  0  0  0  0
    5.6834   -5.7958   22.7345 H   0  0  0  0  0  0  0  0  0  0  0  0
    7.0769   -6.7701   23.1318 H   0  0  0  0  0  0  0  0  0  0  0  0
    5.7705   -6.2778   24.8260 C   0  0  0  0  0  0  0  0  0  0  0  0
    6.4988   -6.6210   25.5795 H   0  0  0  0  0  0  0  0  0  0  0  0
    5.0648   -7.1059   24.6784 H   0  0  0  0  0  0  0  0  0  0  0  0
    5.0360   -5.0579   25.3831 C   0  0  0  0  0  0  0  0  0  0  0  0
    4.2166   -4.7921   24.6976 H   0  0  0  0  0  0  0  0  0  0  0  0
    4.5827   -5.3063   26.3470 H   0  0  0  0  0  0  0  0  0  0  0  0
    5.9810   -3.8571   25.5320 C   0  0  0  0  0  0  0  0  0  0  0  0
    6.7905   -4.1002   26.2361 H   0  0  0  0  0  0  0  0  0  0  0  0
    5.4469   -3.0125   25.9826 H   0  0  0  0  0  0  0  0  0  0  0  0
    7.0107   -1.1091   22.0499 C   0  0  0  0  0  0  0  0  0  0  0  0
    5.9640   -1.0190   22.3083 H   0  0  0  0  0  0  0  0  0  0  0  0
    5.5565    0.6571   20.0697 C   0  0  0  0  0  0  0  0  0  0  0  0
    5.1625    0.6571   21.0854 H   0  0  0  0  0  0  0  0  0  0  0  0
    4.8730    1.3101   19.0422 C   0  0  0  0  0  0  0  0  0  0  0  0
    3.9324    1.8196   19.2244 H   0  0  0  0  0  0  0  0  0  0  0  0
  1  2  1  0
  2  3  2  0
  3  4  1  0
  4  5  1  0
  4  6  2  0
  6  7  1  0
  7  8  1  0
  8  9  1  0
  9 10  1  0
  9 11  2  0
 11 12  1  0
 12 13  1  0
 12 14  1  0
 12 15  1  0
 15 16  1  0
 15 17  1  0
 17 18  1  0
 17 19  1  0
 17 20  1  0
 20 21  1  0
 20 22  1  0
 20 23  1  0
 23 24  1  0
 23 25  1  0
 23 26  1  0
 26 27  1  0
 26 28  1  0
 26 29  1  0
 29 30  1  0
 29 31  1  0
 11 32  1  0
 32 33  1  0
  6 34  1  0
 34 35  1  0
 34 36  2  0
 36 37  1  0
 36  2  1  0
 32  7  2  0
 29 15  1  0
M  END
>  <cnnaffinity>  (1) 
-5.39278

>  <filename>  (1) 
c1cncc(-c2cc(CC3CCCCC3)cs2)c1

$$$$
