
     RDKit          3D

 42 46  0  0  0  0  0  0  0  0999 V2000
    4.9542    1.8149   16.9528 H   0  0  0  0  0  0  0  0  0  0  0  0
    5.4015    1.3102   17.8074 C   0  0  0  0  0  0  0  0  0  0  0  0
    6.5566    0.6701   17.5848 N   0  0  0  0  0  0  0  0  0  0  0  0
    7.1398    0.0661   18.6307 C   0  0  0  0  0  0  0  0  0  0  0  0
    8.0820   -0.4277   18.3870 H   0  0  0  0  0  0  0  0  0  0  0  0
    6.6332    0.0515   19.9499 C   0  0  0  0  0  0  0  0  0  0  0  0
    7.4466   -0.5453   21.1431 C   0  0  2  0  0  0  0  0  0  0  0  0
    8.3182    0.5883   21.7115 C   0  0  0  0  0  0  0  0  0  0  0  0
    7.9968    1.3047   22.8961 C   0  0  0  0  0  0  0  0  0  0  0  0
    7.1060    1.0530   23.4690 H   0  0  0  0  0  0  0  0  0  0  0  0
    8.7987    2.3424   23.3560 C   0  0  0  0  0  0  0  0  0  0  0  0
    8.5175    2.8726   24.2631 H   0  0  0  0  0  0  0  0  0  0  0  0
    9.9627    2.7018   22.6370 C   0  0  0  0  0  0  0  0  0  0  0  0
   11.0115    3.6805   22.7931 C   0  0  0  0  0  0  0  0  0  0  0  0
   11.0938    4.4231   23.5720 H   0  0  0  0  0  0  0  0  0  0  0  0
   11.8746    3.5218   21.7503 C   0  0  0  0  0  0  0  0  0  0  0  0
   12.7664    4.0765   21.4917 H   0  0  0  0  0  0  0  0  0  0  0  0
   11.4356    2.4963   20.9403 N   0  0  0  0  0  0  0  0  0  0  0  0
   11.8453    2.2296   20.0635 H   0  0  0  0  0  0  0  0  0  0  0  0
   10.2648    1.9899   21.4476 C   0  0  0  0  0  0  0  0  0  0  0  0
    9.4492    0.9631   20.9744 C   0  0  0  0  0  0  0  0  0  0  0  0
    9.6847    0.4653   20.0359 H   0  0  0  0  0  0  0  0  0  0  0  0
    8.3808   -1.7564   20.7436 C   0  0  0  0  0  0  0  0  0  0  0  0
    8.2194   -1.8726   19.6897 H   0  0  0  0  0  0  0  0  0  0  0  0
    9.4461   -1.5589   20.9061 H   0  0  0  0  0  0  0  0  0  0  0  0
    7.9667   -2.9668   21.6025 C   0  0  2  0  0  0  0  0  0  0  0  0
    8.7535   -3.7208   21.6867 H   0  0  0  0  0  0  0  0  0  0  0  0
    6.6150   -3.5234   21.1333 C   0  0  0  0  0  0  0  0  0  0  0  0
    6.6123   -3.8184   20.0795 H   0  0  0  0  0  0  0  0  0  0  0  0
    6.3364   -4.4103   21.7163 H   0  0  0  0  0  0  0  0  0  0  0  0
    5.6574   -2.3384   21.4338 C   0  0  0  0  0  0  0  0  0  0  0  0
    4.7752   -2.6523   22.0001 H   0  0  0  0  0  0  0  0  0  0  0  0
    5.3183   -1.9002   20.4934 H   0  0  0  0  0  0  0  0  0  0  0  0
    6.5636   -1.3179   22.1953 C   0  0  1  0  0  0  0  0  0  0  0  0
    6.0383   -0.6444   22.8729 H   0  0  0  0  0  0  0  0  0  0  0  0
    7.5598   -2.2610   22.9030 C   0  0  0  0  0  0  0  0  0  0  0  0
    7.0824   -2.9244   23.6423 H   0  0  0  0  0  0  0  0  0  0  0  0
    8.3932   -1.7421   23.3960 H   0  0  0  0  0  0  0  0  0  0  0  0
    5.4104    0.7188   20.1423 C   0  0  0  0  0  0  0  0  0  0  0  0
    4.9335    0.7371   21.1231 H   0  0  0  0  0  0  0  0  0  0  0  0
    4.7862    1.3500   19.0603 C   0  0  0  0  0  0  0  0  0  0  0  0
    3.8457    1.8748   19.1789 H   0  0  0  0  0  0  0  0  0  0  0  0
  1  2  1  0
  2  3  2  0
  3  4  1  0
  4  5  1  0
  4  6  2  0
  7  6  1  6
  7  8  1  0
  8  9  2  0
  9 10  1  0
  9 11  1  0
 11 12  1  0
 11 13  2  0
 13 14  1  0
 14 15  1  0
 14 16  2  0
 16 17  1  0
 16 18  1  0
 18 19  1  0
 18 20  1  0
 20 21  2  0
 21 22  1  0
  7 23  1  0
 23 24  1  0
 23 25  1  0
 23 26  1  0
 26 27  1  1
 26 28  1  0
 28 29  1  0
 28 30  1  0
 28 31  1  0
 31 32  1  0
 31 33  1  0
 31 34  1  0
 34 35  1  1
 34 36  1  0
 36 37  1  0
 36 38  1  0
  6 39  1  0
 39 40  1  0
 39 41  2  0
 41 42  1  0
 41  2  1  0
 34  7  1  0
 21  8  1  0
 36 26  1  0
 20 13  1  0
M  END
>  <cnnaffinity>  (1) 
-5.73924

>  <filename>  (1) 
c1cncc([C@]2(c3ccc4cc[nH]c4c3)C[C@@H]3CC[C@H]2C3)c1

$$$$
