
     RDKit          3D

 27 30  0  0  0  0  0  0  0  0999 V2000
    5.0366    1.7626   16.9950 H   0  0  0  0  0  0  0  0  0  0  0  0
    5.4618    1.2578   17.8616 C   0  0  0  0  0  0  0  0  0  0  0  0
    6.6205    0.6129   17.6620 N   0  0  0  0  0  0  0  0  0  0  0  0
    7.1763   -0.0047   18.7085 C   0  0  0  0  0  0  0  0  0  0  0  0
    8.1154   -0.5133   18.5137 H   0  0  0  0  0  0  0  0  0  0  0  0
    6.6176   -0.0194   19.9961 C   0  0  0  0  0  0  0  0  0  0  0  0
    7.3633   -0.7079   21.0571 C   0  0  0  0  0  0  0  0  0  0  0  0
    8.5415   -1.3505   20.8029 N   0  0  0  0  0  0  0  0  0  0  0  0
    8.8694   -1.7872   21.9974 C   0  0  0  0  0  0  0  0  0  0  0  0
   10.1577   -2.6983   22.7227 S   0  0  0  0  0  0  0  0  0  0  0  0
    9.3866   -2.5593   24.2769 C   0  0  0  0  0  0  0  0  0  0  0  0
    9.8311   -3.0610   25.1268 H   0  0  0  0  0  0  0  0  0  0  0  0
    8.2470   -1.8366   24.2520 C   0  0  0  0  0  0  0  0  0  0  0  0
    7.3534   -1.5242   25.3844 C   0  0  0  0  0  0  0  0  0  0  0  0
    7.6312   -1.7332   26.7166 C   0  0  0  0  0  0  0  0  0  0  0  0
    8.5801   -1.9885   27.1804 H   0  0  0  0  0  0  0  0  0  0  0  0
    6.2627   -1.4399   27.7120 S   0  0  0  0  0  0  0  0  0  0  0  0
    5.3101   -0.9741   26.3614 C   0  0  0  0  0  0  0  0  0  0  0  0
    4.2640   -0.7166   26.4861 H   0  0  0  0  0  0  0  0  0  0  0  0
    6.0131   -1.0280   25.2071 C   0  0  0  0  0  0  0  0  0  0  0  0
    5.6434   -0.7033   24.2467 H   0  0  0  0  0  0  0  0  0  0  0  0
    7.9599   -1.4345   22.9285 N   0  0  0  0  0  0  0  0  0  0  0  0
    6.9590   -0.7323   22.3202 N   0  0  0  0  0  0  0  0  0  0  0  0
    5.3974    0.6530   20.1969 C   0  0  0  0  0  0  0  0  0  0  0  0
    4.9209    0.6831   21.1765 H   0  0  0  0  0  0  0  0  0  0  0  0
    4.8167    1.2957   19.1029 C   0  0  0  0  0  0  0  0  0  0  0  0
    3.8855    1.8439   19.1914 H   0  0  0  0  0  0  0  0  0  0  0  0
  1  2  1  0
  2  3  2  0
  3  4  1  0
  4  5  1  0
  4  6  2  0
  6  7  1  0
  7  8  1  0
  8  9  2  0
  9 10  1  0
 10 11  1  0
 11 12  1  0
 11 13  2  0
 13 14  1  0
 14 15  2  0
 15 16  1  0
 15 17  1  0
 17 18  1  0
 18 19  1  0
 18 20  2  0
 20 21  1  0
 13 22  1  0
 22 23  1  0
  6 24  1  0
 24 25  1  0
 24 26  2  0
 26 27  1  0
 26  2  1  0
 23  7  2  0
 22  9  1  0
 20 14  1  0
M  END
>  <cnnaffinity>  (1) 
-5.3488

>  <filename>  (1) 
c1cncc(-c2nc3scc(-c4ccsc4)n3n2)c1

$$$$
