
     RDKit          3D

 34 38  0  0  0  0  0  0  0  0999 V2000
    4.9437    1.8165   16.9984 H   0  0  0  0  0  0  0  0  0  0  0  0
    5.4828    1.3233   17.8069 C   0  0  0  0  0  0  0  0  0  0  0  0
    6.6500    0.7378   17.4944 N   0  0  0  0  0  0  0  0  0  0  0  0
    7.3039    0.0869   18.4654 C   0  0  0  0  0  0  0  0  0  0  0  0
    8.2305   -0.3942   18.1635 H   0  0  0  0  0  0  0  0  0  0  0  0
    6.8397   -0.0263   19.7890 C   0  0  0  0  0  0  0  0  0  0  0  0
    7.5246   -0.8236   20.7455 N   0  0  0  0  0  0  0  0  0  0  0  0
    8.8849   -0.8265   21.0768 C   0  0  0  0  0  0  0  0  0  0  0  0
    9.5750   -0.1588   20.5877 H   0  0  0  0  0  0  0  0  0  0  0  0
    9.1122   -1.7324   22.0599 C   0  0  0  0  0  0  0  0  0  0  0  0
    9.9839   -2.0037   22.6295 H   0  0  0  0  0  0  0  0  0  0  0  0
    7.8854   -2.3124   22.3304 N   0  0  0  0  0  0  0  0  0  0  0  0
    7.4675   -3.2675   23.1794 N   0  0  0  0  0  0  0  0  0  0  0  0
    6.1593   -3.3422   22.8897 C   0  0  0  0  0  0  0  0  0  0  0  0
    5.1771   -4.2602   23.5048 C   0  0  0  0  0  0  0  0  0  0  0  0
    3.9214   -4.2272   23.1632 N   0  0  0  0  0  0  0  0  0  0  0  0
    3.2076   -5.2122   23.8048 C   0  0  0  0  0  0  0  0  0  0  0  0
    1.8288   -5.4337   23.6362 C   0  0  0  0  0  0  0  0  0  0  0  0
    1.2814   -4.7536   22.9942 H   0  0  0  0  0  0  0  0  0  0  0  0
    1.2258   -6.4982   24.2944 C   0  0  0  0  0  0  0  0  0  0  0  0
    0.1583   -6.6765   24.1683 H   0  0  0  0  0  0  0  0  0  0  0  0
    1.9944   -7.3450   25.1226 C   0  0  0  0  0  0  0  0  0  0  0  0
    1.5122   -8.1869   25.6108 H   0  0  0  0  0  0  0  0  0  0  0  0
    3.3581   -7.1245   25.3224 C   0  0  0  0  0  0  0  0  0  0  0  0
    3.9309   -7.7839   25.9718 H   0  0  0  0  0  0  0  0  0  0  0  0
    3.9634   -6.0377   24.6686 C   0  0  0  0  0  0  0  0  0  0  0  0
    5.6102   -5.4672   24.7070 S   0  0  0  0  0  0  0  0  0  0  0  0
    5.7633   -2.4658   21.8591 C   0  0  0  0  0  0  0  0  0  0  0  0
    4.7398   -2.4212   21.5593 H   0  0  0  0  0  0  0  0  0  0  0  0
    6.9199   -1.7874   21.5413 C   0  0  0  0  0  0  0  0  0  0  0  0
    5.6455    0.6410   20.1161 C   0  0  0  0  0  0  0  0  0  0  0  0
    5.2844    0.6511   21.1454 H   0  0  0  0  0  0  0  0  0  0  0  0
    4.9509    1.3057   19.1011 C   0  0  0  0  0  0  0  0  0  0  0  0
    4.0080    1.8046   19.3028 H   0  0  0  0  0  0  0  0  0  0  0  0
  1  2  1  0
  2  3  2  0
  3  4  1  0
  4  5  1  0
  4  6  2  0
  6  7  1  0
  7  8  1  0
  8  9  1  0
  8 10  2  0
 10 11  1  0
 10 12  1  0
 12 13  1  0
 13 14  2  0
 14 15  1  0
 15 16  2  0
 16 17  1  0
 17 18  2  0
 18 19  1  0
 18 20  1  0
 20 21  1  0
 20 22  2  0
 22 23  1  0
 22 24  1  0
 24 25  1  0
 24 26  2  0
 26 27  1  0
 14 28  1  0
 28 29  1  0
 28 30  2  0
  6 31  1  0
 31 32  1  0
 31 33  2  0
 33 34  1  0
 33  2  1  0
 30  7  1  0
 30 12  1  0
 27 15  1  0
 26 17  1  0
M  END
>  <cnnaffinity>  (1) 
-5.68413

>  <filename>  (1) 
c1cncc(-n2ccn3nc(-c4nc5ccccc5s4)cc23)c1

$$$$
