
     RDKit          3D

 31 34  0  0  0  0  0  0  0  0999 V2000
    5.3367    1.7546   16.9331 H   0  0  0  0  0  0  0  0  0  0  0  0
    5.8468    1.3318   17.7948 C   0  0  0  0  0  0  0  0  0  0  0  0
    7.1107    0.9227   17.5987 N   0  0  0  0  0  0  0  0  0  0  0  0
    7.7574    0.3988   18.6426 C   0  0  0  0  0  0  0  0  0  0  0  0
    8.7852    0.0870   18.4698 H   0  0  0  0  0  0  0  0  0  0  0  0
    7.1801    0.1981   19.9055 C   0  0  0  0  0  0  0  0  0  0  0  0
    7.9313   -0.5936   20.8807 C   0  0  0  0  0  0  0  0  0  0  0  0
    9.3103   -0.5945   20.8793 N   0  0  0  0  0  0  0  0  0  0  0  0
    9.6125   -1.4087   21.8494 C   0  0  0  0  0  0  0  0  0  0  0  0
   11.0790   -2.0869   22.4987 S   0  0  0  0  0  0  0  0  0  0  0  0
   10.1357   -2.9997   23.6601 C   0  0  0  0  0  0  0  0  0  0  0  0
   10.6493   -3.6302   24.3665 H   0  0  0  0  0  0  0  0  0  0  0  0
    8.8114   -2.8199   23.5192 C   0  0  0  0  0  0  0  0  0  0  0  0
    7.9881   -3.2525   24.0724 H   0  0  0  0  0  0  0  0  0  0  0  0
    8.5210   -1.9461   22.4802 N   0  0  0  0  0  0  0  0  0  0  0  0
    7.4123   -1.4956   21.8068 C   0  0  0  0  0  0  0  0  0  0  0  0
    6.0563   -2.1458   21.8447 C   0  0  0  0  0  0  0  0  0  0  0  0
    5.8192   -2.6011   22.8147 H   0  0  0  0  0  0  0  0  0  0  0  0
    5.3356   -1.3479   21.6564 H   0  0  0  0  0  0  0  0  0  0  0  0
    5.8165   -3.1337   20.7284 C   0  0  0  0  0  0  0  0  0  0  0  0
    5.7120   -4.4938   20.8656 N   0  0  0  0  0  0  0  0  0  0  0  0
    5.5455   -4.9668   19.6572 C   0  0  0  0  0  0  0  0  0  0  0  0
    5.4032   -6.0109   19.3982 H   0  0  0  0  0  0  0  0  0  0  0  0
    5.4946   -3.9613   18.7412 N   0  0  0  0  0  0  0  0  0  0  0  0
    5.4179   -4.0440   17.7394 H   0  0  0  0  0  0  0  0  0  0  0  0
    5.6635   -2.7889   19.4204 C   0  0  0  0  0  0  0  0  0  0  0  0
    5.6511   -1.8121   18.9605 H   0  0  0  0  0  0  0  0  0  0  0  0
    5.8803    0.7010   20.1117 C   0  0  0  0  0  0  0  0  0  0  0  0
    5.4127    0.6997   21.0966 H   0  0  0  0  0  0  0  0  0  0  0  0
    5.1988    1.2526   19.0309 C   0  0  0  0  0  0  0  0  0  0  0  0
    4.1829    1.6191   19.1332 H   0  0  0  0  0  0  0  0  0  0  0  0
  1  2  1  0
  2  3  2  0
  3  4  1  0
  4  5  1  0
  4  6  2  0
  6  7  1  0
  7  8  1  0
  8  9  2  0
  9 10  1  0
 10 11  1  0
 11 12  1  0
 11 13  2  0
 13 14  1  0
 13 15  1  0
 15 16  1  0
 16 17  1  0
 17 18  1  0
 17 19  1  0
 17 20  1  0
 20 21  1  0
 21 22  2  0
 22 23  1  0
 22 24  1  0
 24 25  1  0
 24 26  1  0
 26 27  1  0
  6 28  1  0
 28 29  1  0
 28 30  2  0
 30 31  1  0
 30  2  1  0
 16  7  2  0
 26 20  2  0
 15  9  1  0
M  END
>  <cnnaffinity>  (1) 
-5.5906

>  <filename>  (1) 
c1cncc(-c2nc3sccn3c2Cc2c[nH]cn2)c1

$$$$
