
     RDKit          3D

 33 36  0  0  0  0  0  0  0  0999 V2000
   12.4954    3.8145   21.0605 H   0  0  0  0  0  0  0  0  0  0  0  0
   12.5054    2.9551   21.7312 C   0  0  0  0  0  0  0  0  0  0  0  0
   11.7412    1.9282   21.3679 N   0  0  0  0  0  0  0  0  0  0  0  0
   11.7111    0.8674   22.1846 C   0  0  0  0  0  0  0  0  0  0  0  0
   10.9004   -0.3631   21.7906 C   0  0  1  0  0  0  0  0  0  0  0  0
   11.6360   -1.0651   21.3883 H   0  0  0  0  0  0  0  0  0  0  0  0
   10.1862   -1.0991   22.9951 C   0  0  0  0  0  0  0  0  0  0  0  0
   10.6110   -2.0980   23.1530 H   0  0  0  0  0  0  0  0  0  0  0  0
   10.2789   -0.5446   23.9364 H   0  0  0  0  0  0  0  0  0  0  0  0
    8.7606   -1.1587   22.5425 C   0  0  0  0  0  0  0  0  0  0  0  0
    7.6454   -1.6269   23.0721 N   0  0  0  0  0  0  0  0  0  0  0  0
    6.7019   -1.2811   22.1606 N   0  0  0  0  0  0  0  0  0  0  0  0
    5.7526   -1.5997   22.3127 H   0  0  0  0  0  0  0  0  0  0  0  0
    7.1990   -0.6160   21.0759 C   0  0  0  0  0  0  0  0  0  0  0  0
    6.4422   -0.0092   19.9677 C   0  0  0  0  0  0  0  0  0  0  0  0
    7.0414    0.0039   18.6942 C   0  0  0  0  0  0  0  0  0  0  0  0
    7.9729   -0.5374   18.5401 H   0  0  0  0  0  0  0  0  0  0  0  0
    6.5392    0.6257   17.6216 N   0  0  0  0  0  0  0  0  0  0  0  0
    5.3931    1.3024   17.7865 C   0  0  0  0  0  0  0  0  0  0  0  0
    5.0122    1.8250   16.9094 H   0  0  0  0  0  0  0  0  0  0  0  0
    4.7017    1.3428   19.0025 C   0  0  0  0  0  0  0  0  0  0  0  0
    3.7859    1.9143   19.0690 H   0  0  0  0  0  0  0  0  0  0  0  0
    5.2246    0.6750   20.1114 C   0  0  0  0  0  0  0  0  0  0  0  0
    4.7188    0.6995   21.0771 H   0  0  0  0  0  0  0  0  0  0  0  0
    8.5569   -0.5562   21.3082 C   0  0  0  0  0  0  0  0  0  0  0  0
    9.8229   -0.0746   20.6935 C   0  0  0  0  0  0  0  0  0  0  0  0
   10.0511   -0.6415   19.7856 H   0  0  0  0  0  0  0  0  0  0  0  0
    9.7899    0.9847   20.4139 H   0  0  0  0  0  0  0  0  0  0  0  0
   12.3986    0.7690   23.3279 N   0  0  0  0  0  0  0  0  0  0  0  0
   13.1719    1.7944   23.6590 C   0  0  0  0  0  0  0  0  0  0  0  0
   13.7227    1.6663   24.5841 H   0  0  0  0  0  0  0  0  0  0  0  0
   13.2719    2.9431   22.8892 C   0  0  0  0  0  0  0  0  0  0  0  0
   13.9290    3.7544   23.1562 H   0  0  0  0  0  0  0  0  0  0  0  0
  1  2  1  0
  2  3  2  0
  3  4  1  0
  4  5  1  0
  5  6  1  6
  5  7  1  0
  7  8  1  0
  7  9  1  0
  7 10  1  0
 10 11  2  0
 11 12  1  0
 12 13  1  0
 12 14  1  0
 14 15  1  0
 15 16  2  0
 16 17  1  0
 16 18  1  0
 18 19  2  0
 19 20  1  0
 19 21  1  0
 21 22  1  0
 21 23  2  0
 23 24  1  0
 14 25  2  0
 25 26  1  0
 26 27  1  0
 26 28  1  0
  4 29  2  0
 29 30  1  0
 30 31  1  0
 30 32  2  0
 32 33  1  0
 32  2  1  0
 26  5  1  0
 25 10  1  0
 23 15  1  0
M  END
>  <cnnaffinity>  (1) 
-5.68668

>  <filename>  (1) 
c1cnc([C@H]2Cc3n[nH]c(-c4cccnc4)c3C2)nc1

$$$$
