
     RDKit          3D

 33 37  0  0  0  0  0  0  0  0999 V2000
    4.9232    1.7810   16.9969 H   0  0  0  0  0  0  0  0  0  0  0  0
    5.4043    1.2905   17.8384 C   0  0  0  0  0  0  0  0  0  0  0  0
    6.5675    0.6759   17.5718 N   0  0  0  0  0  0  0  0  0  0  0  0
    7.1705    0.0543   18.5859 C   0  0  0  0  0  0  0  0  0  0  0  0
    8.1191   -0.4324   18.3681 H   0  0  0  0  0  0  0  0  0  0  0  0
    6.6450    0.0109   19.8897 C   0  0  0  0  0  0  0  0  0  0  0  0
    7.4079   -0.7007   20.9096 C   0  0  0  0  0  0  0  0  0  0  0  0
    8.3302   -1.6056   20.6936 N   0  0  0  0  0  0  0  0  0  0  0  0
    8.8302   -2.0426   21.8994 N   0  0  0  0  0  0  0  0  0  0  0  0
    8.2046   -1.3573   22.8137 C   0  0  0  0  0  0  0  0  0  0  0  0
    8.2605   -1.1130   24.5283 S   0  0  0  0  0  0  0  0  0  0  0  0
    7.0453    0.1456   24.3020 C   0  0  0  0  0  0  0  0  0  0  0  0
    6.5893    0.8941   25.4495 C   0  0  0  0  0  0  0  0  0  0  0  0
    6.9701    0.7772   26.7622 C   0  0  0  0  0  0  0  0  0  0  0  0
    7.6970    0.0880   27.1745 H   0  0  0  0  0  0  0  0  0  0  0  0
    6.2335    1.7385   27.5019 C   0  0  0  0  0  0  0  0  0  0  0  0
    6.1980    2.0818   28.8689 C   0  0  0  0  0  0  0  0  0  0  0  0
    6.8368    1.5453   29.5699 H   0  0  0  0  0  0  0  0  0  0  0  0
    5.3437    3.0961   29.2812 C   0  0  0  0  0  0  0  0  0  0  0  0
    5.3024    3.3722   30.3339 H   0  0  0  0  0  0  0  0  0  0  0  0
    4.5183    3.7780   28.3429 C   0  0  0  0  0  0  0  0  0  0  0  0
    3.8565    4.5699   28.6926 H   0  0  0  0  0  0  0  0  0  0  0  0
    4.5352    3.4582   26.9884 C   0  0  0  0  0  0  0  0  0  0  0  0
    3.9093    3.9728   26.2589 H   0  0  0  0  0  0  0  0  0  0  0  0
    5.4023    2.4304   26.5794 C   0  0  0  0  0  0  0  0  0  0  0  0
    5.6405    1.8959   25.3424 N   0  0  0  0  0  0  0  0  0  0  0  0
    5.2062    2.1824   24.4813 H   0  0  0  0  0  0  0  0  0  0  0  0
    6.6192    0.3454   23.0913 N   0  0  0  0  0  0  0  0  0  0  0  0
    7.2786   -0.5164   22.2687 N   0  0  0  0  0  0  0  0  0  0  0  0
    5.4282    0.6525   20.1626 C   0  0  0  0  0  0  0  0  0  0  0  0
    5.0090    0.6410   21.1725 H   0  0  0  0  0  0  0  0  0  0  0  0
    4.8050    1.3066   19.1046 C   0  0  0  0  0  0  0  0  0  0  0  0
    3.8752    1.8424   19.2555 H   0  0  0  0  0  0  0  0  0  0  0  0
  1  2  1  0
  2  3  2  0
  3  4  1  0
  4  5  1  0
  4  6  2  0
  6  7  1  0
  7  8  2  0
  8  9  1  0
  9 10  2  0
 10 11  1  0
 11 12  1  0
 12 13  1  0
 13 14  2  0
 14 15  1  0
 14 16  1  0
 16 17  2  0
 17 18  1  0
 17 19  1  0
 19 20  1  0
 19 21  2  0
 21 22  1  0
 21 23  1  0
 23 24  1  0
 23 25  2  0
 25 26  1  0
 26 27  1  0
 12 28  2  0
 28 29  1  0
  6 30  1  0
 30 31  1  0
 30 32  2  0
 32 33  1  0
 32  2  1  0
 29  7  1  0
 29 10  1  0
 26 13  1  0
 25 16  1  0
M  END
>  <cnnaffinity>  (1) 
-5.54929

>  <filename>  (1) 
c1cncc(-c2nnc3sc(-c4cc5ccccc5[nH]4)nn23)c1

$$$$
