
     RDKit          3D

 30 33  0  0  0  0  0  0  0  0999 V2000
    4.9153    1.7797   16.9989 H   0  0  0  0  0  0  0  0  0  0  0  0
    5.4046    1.2930   17.8415 C   0  0  0  0  0  0  0  0  0  0  0  0
    6.5720    0.6774   17.5838 N   0  0  0  0  0  0  0  0  0  0  0  0
    7.1798    0.0494   18.5919 C   0  0  0  0  0  0  0  0  0  0  0  0
    8.1272   -0.4399   18.3816 H   0  0  0  0  0  0  0  0  0  0  0  0
    6.6531    0.0009   19.8954 C   0  0  0  0  0  0  0  0  0  0  0  0
    7.3579   -0.6819   20.9336 N   0  0  0  0  0  0  0  0  0  0  0  0
    7.9036   -1.9010   20.7351 N   0  0  0  0  0  0  0  0  0  0  0  0
    8.3629   -2.2931   21.8657 N   0  0  0  0  0  0  0  0  0  0  0  0
    8.1424   -1.3750   22.8257 N   0  0  0  0  0  0  0  0  0  0  0  0
    7.5383   -0.3604   22.2430 C   0  0  0  0  0  0  0  0  0  0  0  0
    7.1950    0.9317   22.8528 C   0  0  0  0  0  0  0  0  0  0  0  0
    7.4255    2.1592   22.2058 C   0  0  0  0  0  0  0  0  0  0  0  0
    7.8487    2.1692   21.2039 H   0  0  0  0  0  0  0  0  0  0  0  0
    7.1083    3.3793   22.8373 C   0  0  0  0  0  0  0  0  0  0  0  0
    7.2948    4.3108   22.3132 H   0  0  0  0  0  0  0  0  0  0  0  0
    6.5624    3.4140   24.1226 C   0  0  0  0  0  0  0  0  0  0  0  0
    6.3151    4.3444   24.6285 H   0  0  0  0  0  0  0  0  0  0  0  0
    6.3413    2.1835   24.7586 C   0  0  0  0  0  0  0  0  0  0  0  0
    6.6438    0.9412   24.1552 C   0  0  0  0  0  0  0  0  0  0  0  0
    6.2635   -0.0791   25.0918 C   0  0  0  0  0  0  0  0  0  0  0  0
    6.3815   -1.1375   24.8988 H   0  0  0  0  0  0  0  0  0  0  0  0
    5.7756    0.5449   26.2020 C   0  0  0  0  0  0  0  0  0  0  0  0
    5.3948    0.1108   27.1236 H   0  0  0  0  0  0  0  0  0  0  0  0
    5.8246    1.9107   26.0019 N   0  0  0  0  0  0  0  0  0  0  0  0
    5.5267    2.6231   26.6431 H   0  0  0  0  0  0  0  0  0  0  0  0
    5.4353    0.6359   20.1613 C   0  0  0  0  0  0  0  0  0  0  0  0
    5.0088    0.6329   21.1674 H   0  0  0  0  0  0  0  0  0  0  0  0
    4.8081    1.3041   19.1074 C   0  0  0  0  0  0  0  0  0  0  0  0
    3.8767    1.8410   19.2628 H   0  0  0  0  0  0  0  0  0  0  0  0
  1  2  1  0
  2  3  2  0
  3  4  1  0
  4  5  1  0
  4  6  2  0
  6  7  1  0
  7  8  1  0
  8  9  2  0
  9 10  1  0
 10 11  2  0
 11 12  1  0
 12 13  2  0
 13 14  1  0
 13 15  1  0
 15 16  1  0
 15 17  2  0
 17 18  1  0
 17 19  1  0
 19 20  2  0
 20 21  1  0
 21 22  1  0
 21 23  2  0
 23 24  1  0
 23 25  1  0
 25 26  1  0
  6 27  1  0
 27 28  1  0
 27 29  2  0
 29 30  1  0
 29  2  1  0
 11  7  1  0
 20 12  1  0
 25 19  1  0
M  END
>  <cnnaffinity>  (1) 
-5.06541

>  <filename>  (1) 
c1cncc(-n2nnnc2-c2cccc3[nH]ccc23)c1

$$$$
