
     RDKit          3D

 32 35  0  0  0  0  0  0  0  0999 V2000
    4.9151    1.7779   17.0000 H   0  0  0  0  0  0  0  0  0  0  0  0
    5.4041    1.2910   17.8436 C   0  0  0  0  0  0  0  0  0  0  0  0
    6.5721    0.6763   17.5900 N   0  0  0  0  0  0  0  0  0  0  0  0
    7.1802    0.0492   18.5984 C   0  0  0  0  0  0  0  0  0  0  0  0
    8.1277   -0.4383   18.3816 H   0  0  0  0  0  0  0  0  0  0  0  0
    6.6537   -0.0055   19.9012 C   0  0  0  0  0  0  0  0  0  0  0  0
    7.3723   -0.6841   20.9305 N   0  0  0  0  0  0  0  0  0  0  0  0
    7.9836   -1.8686   20.7089 N   0  0  0  0  0  0  0  0  0  0  0  0
    8.5102   -2.2735   21.8199 N   0  0  0  0  0  0  0  0  0  0  0  0
    8.2469   -1.3548   22.7813 C   0  0  0  0  0  0  0  0  0  0  0  0
    8.5909   -1.4299   23.8007 H   0  0  0  0  0  0  0  0  0  0  0  0
    7.5167   -0.3200   22.2403 C   0  0  0  0  0  0  0  0  0  0  0  0
    7.1299    0.9635   22.8234 C   0  0  0  0  0  0  0  0  0  0  0  0
    7.5671    2.1613   22.2662 C   0  0  0  0  0  0  0  0  0  0  0  0
    8.1606    2.1270   21.3592 H   0  0  0  0  0  0  0  0  0  0  0  0
    7.3193    3.3907   22.7818 N   0  0  0  0  0  0  0  0  0  0  0  0
    6.6070    3.4385   23.8877 C   0  0  0  0  0  0  0  0  0  0  0  0
    6.4059    4.4213   24.3059 H   0  0  0  0  0  0  0  0  0  0  0  0
    6.0872    2.3031   24.5765 C   0  0  0  0  0  0  0  0  0  0  0  0
    5.3176    2.4119   25.7765 C   0  0  0  0  0  0  0  0  0  0  0  0
    5.1242    3.3991   26.1957 H   0  0  0  0  0  0  0  0  0  0  0  0
    4.8231    1.2856   26.3862 C   0  0  0  0  0  0  0  0  0  0  0  0
    4.2344    1.3654   27.2975 H   0  0  0  0  0  0  0  0  0  0  0  0
    5.0674   -0.0006   25.8361 C   0  0  0  0  0  0  0  0  0  0  0  0
    4.6625   -0.8855   26.3167 H   0  0  0  0  0  0  0  0  0  0  0  0
    5.8143   -0.1338   24.6856 C   0  0  0  0  0  0  0  0  0  0  0  0
    5.9814   -1.1122   24.2401 H   0  0  0  0  0  0  0  0  0  0  0  0
    6.3530    1.0129   24.0252 C   0  0  0  0  0  0  0  0  0  0  0  0
    5.4379    0.6386   20.1658 C   0  0  0  0  0  0  0  0  0  0  0  0
    5.0095    0.6348   21.1734 H   0  0  0  0  0  0  0  0  0  0  0  0
    4.8084    1.3029   19.1097 C   0  0  0  0  0  0  0  0  0  0  0  0
    3.8776    1.8411   19.2634 H   0  0  0  0  0  0  0  0  0  0  0  0
  1  2  1  0
  2  3  2  0
  3  4  1  0
  4  5  1  0
  4  6  2  0
  6  7  1  0
  7  8  1  0
  8  9  2  0
  9 10  1  0
 10 11  1  0
 10 12  2  0
 12 13  1  0
 13 14  2  0
 14 15  1  0
 14 16  1  0
 16 17  2  0
 17 18  1  0
 17 19  1  0
 19 20  2  0
 20 21  1  0
 20 22  1  0
 22 23  1  0
 22 24  2  0
 24 25  1  0
 24 26  1  0
 26 27  1  0
 26 28  2  0
  6 29  1  0
 29 30  1  0
 29 31  2  0
 31 32  1  0
 31  2  1  0
 12  7  1  0
 28 13  1  0
 28 19  1  0
M  END
>  <cnnaffinity>  (1) 
-5.08299

>  <filename>  (1) 
c1cncc(-n2nncc2-c2cncc3ccccc23)c1

$$$$
