
     RDKit          3D

 34 37  0  0  0  0  0  0  0  0999 V2000
    4.9337    1.8099   16.9762 H   0  0  0  0  0  0  0  0  0  0  0  0
    5.3958    1.2990   17.8187 C   0  0  0  0  0  0  0  0  0  0  0  0
    6.5575    0.6787   17.5595 N   0  0  0  0  0  0  0  0  0  0  0  0
    7.1652    0.0699   18.5897 C   0  0  0  0  0  0  0  0  0  0  0  0
    8.1161   -0.4141   18.3657 H   0  0  0  0  0  0  0  0  0  0  0  0
    6.6625    0.0309   19.8996 C   0  0  0  0  0  0  0  0  0  0  0  0
    7.3764   -0.7277   20.9866 C   0  0  0  0  0  0  0  0  0  0  0  0
    7.0047   -2.1818   21.1380 C   0  0  0  0  0  0  0  0  0  0  0  0
    6.0614   -2.8294   20.2689 C   0  0  0  0  0  0  0  0  0  0  0  0
    5.5735   -2.2256   19.5082 H   0  0  0  0  0  0  0  0  0  0  0  0
    5.7867   -4.1713   20.3753 C   0  0  0  0  0  0  0  0  0  0  0  0
    5.1758   -4.6908   19.6391 H   0  0  0  0  0  0  0  0  0  0  0  0
    6.3690   -4.9447   21.4208 C   0  0  0  0  0  0  0  0  0  0  0  0
    6.0713   -6.3259   21.6243 C   0  0  0  0  0  0  0  0  0  0  0  0
    5.3099   -6.8026   21.0117 H   0  0  0  0  0  0  0  0  0  0  0  0
    6.7394   -7.0450   22.5845 C   0  0  0  0  0  0  0  0  0  0  0  0
    6.4740   -8.0874   22.7334 H   0  0  0  0  0  0  0  0  0  0  0  0
    7.7338   -6.4085   23.3913 C   0  0  0  0  0  0  0  0  0  0  0  0
    8.3034   -6.9033   24.1619 H   0  0  0  0  0  0  0  0  0  0  0  0
    7.9910   -5.0774   23.2615 C   0  0  0  0  0  0  0  0  0  0  0  0
    8.7011   -4.5858   23.9185 H   0  0  0  0  0  0  0  0  0  0  0  0
    7.3178   -4.3104   22.2802 C   0  0  0  0  0  0  0  0  0  0  0  0
    7.6124   -2.9392   22.1152 C   0  0  0  0  0  0  0  0  0  0  0  0
    8.3592   -2.4980   22.7681 H   0  0  0  0  0  0  0  0  0  0  0  0
    7.7247    0.0681   22.2312 C   0  0  0  0  0  0  0  0  0  0  0  0
    7.3715    1.0976   22.2559 H   0  0  0  0  0  0  0  0  0  0  0  0
    7.6654   -0.4106   23.2091 H   0  0  0  0  0  0  0  0  0  0  0  0
    8.8109   -0.3033   21.2592 C   0  0  0  0  0  0  0  0  0  0  0  0
    9.5555   -1.0565   21.5209 H   0  0  0  0  0  0  0  0  0  0  0  0
    9.2194    0.4713   20.6113 H   0  0  0  0  0  0  0  0  0  0  0  0
    5.4369    0.6656   20.1404 C   0  0  0  0  0  0  0  0  0  0  0  0
    5.0236    0.6502   21.1517 H   0  0  0  0  0  0  0  0  0  0  0  0
    4.7923    1.3143   19.0838 C   0  0  0  0  0  0  0  0  0  0  0  0
    3.8606    1.8515   19.2296 H   0  0  0  0  0  0  0  0  0  0  0  0
  1  2  1  0
  2  3  2  0
  3  4  1  0
  4  5  1  0
  4  6  2  0
  6  7  1  0
  7  8  1  0
  8  9  2  0
  9 10  1  0
  9 11  1  0
 11 12  1  0
 11 13  2  0
 13 14  1  0
 14 15  1  0
 14 16  2  0
 16 17  1  0
 16 18  1  0
 18 19  1  0
 18 20  2  0
 20 21  1  0
 20 22  1  0
 22 23  2  0
 23 24  1  0
  7 25  1  0
 25 26  1  0
 25 27  1  0
 25 28  1  0
 28 29  1  0
 28 30  1  0
  6 31  1  0
 31 32  1  0
 31 33  2  0
 33 34  1  0
 33  2  1  0
 28  7  1  0
 23  8  1  0
 22 13  1  0
M  END
>  <cnnaffinity>  (1) 
-5.05263

>  <filename>  (1) 
c1cncc(C2(c3ccc4ccccc4c3)CC2)c1

$$$$
