
     RDKit          3D

 25 28  0  0  0  0  0  0  0  0999 V2000
    4.9188    1.7713   17.0051 H   0  0  0  0  0  0  0  0  0  0  0  0
    5.4078    1.2862   17.8479 C   0  0  0  0  0  0  0  0  0  0  0  0
    6.5740    0.6707   17.5958 N   0  0  0  0  0  0  0  0  0  0  0  0
    7.1829    0.0534   18.6142 C   0  0  0  0  0  0  0  0  0  0  0  0
    8.1288   -0.4345   18.3836 H   0  0  0  0  0  0  0  0  0  0  0  0
    6.6498    0.0135   19.9111 C   0  0  0  0  0  0  0  0  0  0  0  0
    7.3638   -0.6881   20.9739 C   0  0  0  0  0  0  0  0  0  0  0  0
    8.5478   -1.3282   20.7554 N   0  0  0  0  0  0  0  0  0  0  0  0
    8.8122   -1.7985   21.9576 C   0  0  0  0  0  0  0  0  0  0  0  0
   10.0463   -2.7263   22.7576 S   0  0  0  0  0  0  0  0  0  0  0  0
    9.1686   -2.6086   24.2540 C   0  0  0  0  0  0  0  0  0  0  0  0
    9.5738   -3.0781   25.1457 H   0  0  0  0  0  0  0  0  0  0  0  0
    8.0174   -1.9081   24.1499 C   0  0  0  0  0  0  0  0  0  0  0  0
    7.0325   -1.6030   25.2016 C   0  0  0  0  0  0  0  0  0  0  0  0
    7.1964   -2.0331   26.4855 N   0  0  0  0  0  0  0  0  0  0  0  0
    6.1712   -1.6073   27.1586 N   0  0  0  0  0  0  0  0  0  0  0  0
    5.4330   -0.9496   26.2928 N   0  0  0  0  0  0  0  0  0  0  0  0
    4.5636   -0.5085   26.5522 H   0  0  0  0  0  0  0  0  0  0  0  0
    5.9055   -0.9049   25.0671 N   0  0  0  0  0  0  0  0  0  0  0  0
    7.8451   -1.4648   22.8381 N   0  0  0  0  0  0  0  0  0  0  0  0
    6.8919   -0.7405   22.2158 N   0  0  0  0  0  0  0  0  0  0  0  0
    5.4297    0.6572   20.1651 C   0  0  0  0  0  0  0  0  0  0  0  0
    5.0028    0.6316   21.1712 H   0  0  0  0  0  0  0  0  0  0  0  0
    4.8043    1.3106   19.1106 C   0  0  0  0  0  0  0  0  0  0  0  0
    3.8739    1.8436   19.2625 H   0  0  0  0  0  0  0  0  0  0  0  0
  1  2  1  0
  2  3  2  0
  3  4  1  0
  4  5  1  0
  4  6  2  0
  6  7  1  0
  7  8  1  0
  8  9  2  0
  9 10  1  0
 10 11  1  0
 11 12  1  0
 11 13  2  0
 13 14  1  0
 14 15  1  0
 15 16  2  0
 16 17  1  0
 17 18  1  0
 17 19  1  0
 13 20  1  0
 20 21  1  0
  6 22  1  0
 22 23  1  0
 22 24  2  0
 24 25  1  0
 24  2  1  0
 21  7  2  0
 20  9  1  0
 19 14  2  0
M  END
>  <cnnaffinity>  (1) 
-5.26095

>  <filename>  (1) 
c1cncc(-c2nc3scc(-c4nn[nH]n4)n3n2)c1

$$$$
