
     RDKit          3D

 39 42  0  0  0  0  0  0  0  0999 V2000
    4.9079    1.7940   16.9872 H   0  0  0  0  0  0  0  0  0  0  0  0
    5.3921    1.3013   17.8287 C   0  0  0  0  0  0  0  0  0  0  0  0
    6.5547    0.6905   17.5527 N   0  0  0  0  0  0  0  0  0  0  0  0
    7.1639    0.0714   18.5718 C   0  0  0  0  0  0  0  0  0  0  0  0
    8.1085   -0.4277   18.3663 H   0  0  0  0  0  0  0  0  0  0  0  0
    6.6728   -0.0236   19.8951 C   0  0  0  0  0  0  0  0  0  0  0  0
    7.4117   -0.7626   20.8694 N   0  0  0  0  0  0  0  0  0  0  0  0
    6.8747   -1.4828   21.3431 H   0  0  0  0  0  0  0  0  0  0  0  0
    8.2684   -0.0208   21.8217 C   0  0  0  0  0  0  0  0  0  0  0  0
    7.5338    1.0686   22.6180 C   0  0  0  0  0  0  0  0  0  0  0  0
    7.5053    2.4282   22.1524 C   0  0  0  0  0  0  0  0  0  0  0  0
    8.0291    2.6855   21.2312 H   0  0  0  0  0  0  0  0  0  0  0  0
    6.8044    3.3976   22.8270 C   0  0  0  0  0  0  0  0  0  0  0  0
    6.7777    4.4230   22.4598 H   0  0  0  0  0  0  0  0  0  0  0  0
    6.0824    3.0768   24.0206 C   0  0  0  0  0  0  0  0  0  0  0  0
    5.3412    4.0578   24.7489 C   0  0  0  0  0  0  0  0  0  0  0  0
    5.3440    5.0805   24.3731 H   0  0  0  0  0  0  0  0  0  0  0  0
    4.6452    3.7072   25.8848 C   0  0  0  0  0  0  0  0  0  0  0  0
    4.0814    4.4597   26.4330 H   0  0  0  0  0  0  0  0  0  0  0  0
    4.6543    2.3565   26.3516 C   0  0  0  0  0  0  0  0  0  0  0  0
    4.0966    2.0980   27.2507 H   0  0  0  0  0  0  0  0  0  0  0  0
    5.3594    1.3890   25.6739 C   0  0  0  0  0  0  0  0  0  0  0  0
    5.3758    0.3523   26.0149 H   0  0  0  0  0  0  0  0  0  0  0  0
    6.0911    1.7226   24.4906 C   0  0  0  0  0  0  0  0  0  0  0  0
    6.8242    0.7440   23.7551 C   0  0  0  0  0  0  0  0  0  0  0  0
    6.8139   -0.2821   24.1210 H   0  0  0  0  0  0  0  0  0  0  0  0
    9.0729   -1.0213   22.6848 C   0  0  0  0  0  0  0  0  0  0  0  0
    9.0733   -0.7860   23.7505 H   0  0  0  0  0  0  0  0  0  0  0  0
    8.7418   -2.0553   22.5531 H   0  0  0  0  0  0  0  0  0  0  0  0
   10.3811   -0.6278   21.9582 C   0  0  0  0  0  0  0  0  0  0  0  0
   10.8360   -1.4277   21.3665 H   0  0  0  0  0  0  0  0  0  0  0  0
   11.1567   -0.2058   22.6045 H   0  0  0  0  0  0  0  0  0  0  0  0
    9.5904    0.4197   21.1375 C   0  0  0  0  0  0  0  0  0  0  0  0
    9.5796    0.2536   20.0605 H   0  0  0  0  0  0  0  0  0  0  0  0
    9.8796    1.4545   21.3265 H   0  0  0  0  0  0  0  0  0  0  0  0
    5.4479    0.6250   20.1597 C   0  0  0  0  0  0  0  0  0  0  0  0
    5.0493    0.6263   21.1805 H   0  0  0  0  0  0  0  0  0  0  0  0
    4.8099    1.3020   19.1043 C   0  0  0  0  0  0  0  0  0  0  0  0
    3.8780    1.8394   19.2560 H   0  0  0  0  0  0  0  0  0  0  0  0
  1  2  1  0
  2  3  2  0
  3  4  1  0
  4  5  1  0
  4  6  2  0
  6  7  1  0
  7  8  1  0
  7  9  1  0
  9 10  1  0
 10 11  2  0
 11 12  1  0
 11 13  1  0
 13 14  1  0
 13 15  2  0
 15 16  1  0
 16 17  1  0
 16 18  2  0
 18 19  1  0
 18 20  1  0
 20 21  1  0
 20 22  2  0
 22 23  1  0
 22 24  1  0
 24 25  2  0
 25 26  1  0
  9 27  1  0
 27 28  1  0
 27 29  1  0
 27 30  1  0
 30 31  1  0
 30 32  1  0
 30 33  1  0
 33 34  1  0
 33 35  1  0
  6 36  1  0
 36 37  1  0
 36 38  2  0
 38 39  1  0
 38  2  1  0
 33  9  1  0
 25 10  1  0
 24 15  1  0
M  END
>  <cnnaffinity>  (1) 
-5.15242

>  <filename>  (1) 
c1cncc(NC2(c3ccc4ccccc4c3)CCC2)c1

$$$$
