
     RDKit          3D

 43 46  0  0  0  0  0  0  0  0999 V2000
    4.9110    1.8187   17.0755 H   0  0  0  0  0  0  0  0  0  0  0  0
    5.4286    1.4150   17.9440 C   0  0  0  0  0  0  0  0  0  0  0  0
    6.6770    0.9650   17.7520 N   0  0  0  0  0  0  0  0  0  0  0  0
    7.3177    0.4553   18.8167 C   0  0  0  0  0  0  0  0  0  0  0  0
    8.3365    0.1308   18.6061 H   0  0  0  0  0  0  0  0  0  0  0  0
    6.7612    0.3113   20.1026 C   0  0  0  0  0  0  0  0  0  0  0  0
    7.5367   -0.4759   21.1972 C   0  0  0  0  0  0  0  0  0  0  0  0
    8.9153    0.1780   21.4352 C   0  0  0  0  0  0  0  0  0  0  0  0
   10.1449   -0.5492   21.3247 C   0  0  0  0  0  0  0  0  0  0  0  0
   10.1394   -1.5845   21.0029 H   0  0  0  0  0  0  0  0  0  0  0  0
   11.3493    0.0350   21.6245 C   0  0  0  0  0  0  0  0  0  0  0  0
   12.2731   -0.5196   21.4848 H   0  0  0  0  0  0  0  0  0  0  0  0
   11.4108    1.3811   22.0834 C   0  0  0  0  0  0  0  0  0  0  0  0
   12.6344    1.9810   22.4971 C   0  0  0  0  0  0  0  0  0  0  0  0
   13.5348    1.3669   22.4761 H   0  0  0  0  0  0  0  0  0  0  0  0
   12.6679    3.2898   22.9163 C   0  0  0  0  0  0  0  0  0  0  0  0
   13.6139    3.7342   23.2202 H   0  0  0  0  0  0  0  0  0  0  0  0
   11.4714    4.0686   22.9247 C   0  0  0  0  0  0  0  0  0  0  0  0
   11.5024    5.1055   23.2568 H   0  0  0  0  0  0  0  0  0  0  0  0
   10.2765    3.5155   22.5323 C   0  0  0  0  0  0  0  0  0  0  0  0
    9.3690    4.1167   22.4801 H   0  0  0  0  0  0  0  0  0  0  0  0
   10.2017    2.1435   22.1376 C   0  0  0  0  0  0  0  0  0  0  0  0
    8.9691    1.5079   21.7970 C   0  0  0  0  0  0  0  0  0  0  0  0
    8.0672    2.1199   21.7975 H   0  0  0  0  0  0  0  0  0  0  0  0
    7.6399   -1.9477   20.6990 C   0  0  0  0  0  0  0  0  0  0  0  0
    8.3868   -1.9038   19.9044 H   0  0  0  0  0  0  0  0  0  0  0  0
    6.6869   -2.2064   20.2227 H   0  0  0  0  0  0  0  0  0  0  0  0
    8.0013   -3.0466   21.7288 C   0  0  0  0  0  0  0  0  0  0  0  0
    7.7194   -4.0181   21.3006 H   0  0  0  0  0  0  0  0  0  0  0  0
    9.0864   -3.0901   21.8678 H   0  0  0  0  0  0  0  0  0  0  0  0
    7.3234   -2.8862   23.1038 C   0  0  0  0  0  0  0  0  0  0  0  0
    7.8252   -3.5282   23.8420 H   0  0  0  0  0  0  0  0  0  0  0  0
    6.2812   -3.2318   23.0438 H   0  0  0  0  0  0  0  0  0  0  0  0
    7.3060   -1.4317   23.5899 C   0  0  0  0  0  0  0  0  0  0  0  0
    8.3150   -1.0854   23.8568 H   0  0  0  0  0  0  0  0  0  0  0  0
    6.6896   -1.3652   24.4954 H   0  0  0  0  0  0  0  0  0  0  0  0
    6.7165   -0.5291   22.5086 C   0  0  0  0  0  0  0  0  0  0  0  0
    5.7785   -0.9697   22.1700 H   0  0  0  0  0  0  0  0  0  0  0  0
    6.5228    0.4801   22.8910 H   0  0  0  0  0  0  0  0  0  0  0  0
    5.4565    0.8039   20.2680 C   0  0  0  0  0  0  0  0  0  0  0  0
    4.9718    0.7434   21.2422 H   0  0  0  0  0  0  0  0  0  0  0  0
    4.7794    1.3569   19.1793 C   0  0  0  0  0  0  0  0  0  0  0  0
    3.7737    1.7506   19.2942 H   0  0  0  0  0  0  0  0  0  0  0  0
  1  2  1  0
  2  3  2  0
  3  4  1  0
  4  5  1  0
  4  6  2  0
  6  7  1  0
  7  8  1  0
  8  9  2  0
  9 10  1  0
  9 11  1  0
 11 12  1  0
 11 13  2  0
 13 14  1  0
 14 15  1  0
 14 16  2  0
 16 17  1  0
 16 18  1  0
 18 19  1  0
 18 20  2  0
 20 21  1  0
 20 22  1  0
 22 23  2  0
 23 24  1  0
  7 25  1  0
 25 26  1  0
 25 27  1  0
 25 28  1  0
 28 29  1  0
 28 30  1  0
 28 31  1  0
 31 32  1  0
 31 33  1  0
 31 34  1  0
 34 35  1  0
 34 36  1  0
 34 37  1  0
 37 38  1  0
 37 39  1  0
  6 40  1  0
 40 41  1  0
 40 42  2  0
 42 43  1  0
 42  2  1  0
 37  7  1  0
 23  8  1  0
 22 13  1  0
M  END
>  <cnnaffinity>  (1) 
-5.47352

>  <filename>  (1) 
c1cncc(C2(c3ccc4ccccc4c3)CCCCC2)c1

$$$$
