
     RDKit          3D

 34 37  0  0  0  0  0  0  0  0999 V2000
    4.9136    1.8320   16.9522 H   0  0  0  0  0  0  0  0  0  0  0  0
    5.3758    1.3191   17.7964 C   0  0  0  0  0  0  0  0  0  0  0  0
    6.5332    0.6904   17.5357 N   0  0  0  0  0  0  0  0  0  0  0  0
    7.1466    0.0744   18.5545 C   0  0  0  0  0  0  0  0  0  0  0  0
    8.0869   -0.4156   18.3102 H   0  0  0  0  0  0  0  0  0  0  0  0
    6.6543    0.0192   19.8732 C   0  0  0  0  0  0  0  0  0  0  0  0
    7.3635   -0.7184   20.9704 C   0  0  0  0  0  0  0  0  0  0  0  0
    8.7564   -0.6252   21.1975 C   0  0  0  0  0  0  0  0  0  0  0  0
    9.4084   -0.0022   20.5941 H   0  0  0  0  0  0  0  0  0  0  0  0
    9.3751   -1.2739   22.1886 N   0  0  0  0  0  0  0  0  0  0  0  0
    8.6878   -2.0578   23.0145 N   0  0  0  0  0  0  0  0  0  0  0  0
    7.3552   -2.2100   22.8721 C   0  0  0  0  0  0  0  0  0  0  0  0
    6.6536   -3.1207   23.8587 C   0  0  0  0  0  0  0  0  0  0  0  0
    5.3474   -3.2908   23.7353 N   0  0  0  0  0  0  0  0  0  0  0  0
    4.7049   -4.0891   24.6425 C   0  0  0  0  0  0  0  0  0  0  0  0
    3.2960   -4.2383   24.5308 C   0  0  0  0  0  0  0  0  0  0  0  0
    2.8081   -3.6923   23.7562 H   0  0  0  0  0  0  0  0  0  0  0  0
    2.5855   -5.0376   25.3864 C   0  0  0  0  0  0  0  0  0  0  0  0
    1.5093   -5.1258   25.2561 H   0  0  0  0  0  0  0  0  0  0  0  0
    3.2544   -5.7403   26.4266 C   0  0  0  0  0  0  0  0  0  0  0  0
    2.6750   -6.3714   27.0952 H   0  0  0  0  0  0  0  0  0  0  0  0
    4.6199   -5.6128   26.5773 C   0  0  0  0  0  0  0  0  0  0  0  0
    5.1469   -6.1407   27.3685 H   0  0  0  0  0  0  0  0  0  0  0  0
    5.3761   -4.7832   25.6931 C   0  0  0  0  0  0  0  0  0  0  0  0
    6.7882   -4.5920   25.7839 C   0  0  0  0  0  0  0  0  0  0  0  0
    7.3406   -5.1090   26.5661 H   0  0  0  0  0  0  0  0  0  0  0  0
    7.4219   -3.7704   24.8856 C   0  0  0  0  0  0  0  0  0  0  0  0
    8.4898   -3.5772   24.8985 H   0  0  0  0  0  0  0  0  0  0  0  0
    6.6643   -1.5432   21.8473 C   0  0  0  0  0  0  0  0  0  0  0  0
    5.5962   -1.7005   21.7494 H   0  0  0  0  0  0  0  0  0  0  0  0
    5.4337    0.6721   20.1142 C   0  0  0  0  0  0  0  0  0  0  0  0
    5.0226    0.6564   21.1246 H   0  0  0  0  0  0  0  0  0  0  0  0
    4.7868    1.3351   19.0663 C   0  0  0  0  0  0  0  0  0  0  0  0
    3.8506    1.8645   19.2150 H   0  0  0  0  0  0  0  0  0  0  0  0
  1  2  1  0
  2  3  2  0
  3  4  1  0
  4  5  1  0
  4  6  2  0
  6  7  1  0
  7  8  2  0
  8  9  1  0
  8 10  1  0
 10 11  2  0
 11 12  1  0
 12 13  1  0
 13 14  2  0
 14 15  1  0
 15 16  2  0
 16 17  1  0
 16 18  1  0
 18 19  1  0
 18 20  2  0
 20 21  1  0
 20 22  1  0
 22 23  1  0
 22 24  2  0
 24 25  1  0
 25 26  1  0
 25 27  2  0
 27 28  1  0
 12 29  2  0
 29 30  1  0
  6 31  1  0
 31 32  1  0
 31 33  2  0
 33 34  1  0
 33  2  1  0
 29  7  1  0
 27 13  1  0
 24 15  1  0
M  END
>  <cnnaffinity>  (1) 
-5.29514

>  <filename>  (1) 
c1cncc(-c2cnnc(-c3ccc4ccccc4n3)c2)c1

$$$$
