
     RDKit          3D

 38 40  0  0  0  0  0  0  0  0999 V2000
    6.7484   -3.3797   22.7917 H   0  0  0  0  0  0  0  0  0  0  0  0
    7.2877   -2.5272   22.3925 C   0  0  0  0  0  0  0  0  0  0  0  0
    8.5040   -2.3147   22.8834 N   0  0  0  0  0  0  0  0  0  0  0  0
    9.1425   -1.2498   22.3948 C   0  0  0  0  0  0  0  0  0  0  0  0
   10.1283   -1.0449   22.8144 H   0  0  0  0  0  0  0  0  0  0  0  0
    8.6295   -0.4018   21.4165 C   0  0  0  0  0  0  0  0  0  0  0  0
    9.3911    0.8451   21.0068 C   0  0  0  0  0  0  0  0  0  0  0  0
   10.4664    0.6208   20.9981 H   0  0  0  0  0  0  0  0  0  0  0  0
    9.1247    1.0904   19.9783 H   0  0  0  0  0  0  0  0  0  0  0  0
    9.1625    2.0943   21.8910 C   0  0  0  0  0  0  0  0  0  0  0  0
    9.7706    2.8997   21.4493 H   0  0  0  0  0  0  0  0  0  0  0  0
    7.7023    2.5835   21.8829 C   0  0  0  0  0  0  0  0  0  0  0  0
    7.0495    1.8044   22.2960 H   0  0  0  0  0  0  0  0  0  0  0  0
    7.3512    2.7231   20.8589 H   0  0  0  0  0  0  0  0  0  0  0  0
    7.5261    3.8688   22.7005 C   0  0  0  0  0  0  0  0  0  0  0  0
    6.4732    4.1735   22.7061 H   0  0  0  0  0  0  0  0  0  0  0  0
    8.0832    4.6832   22.2152 H   0  0  0  0  0  0  0  0  0  0  0  0
    8.0402    3.6938   24.1365 C   0  0  0  0  0  0  0  0  0  0  0  0
    7.9533    4.6342   24.6912 H   0  0  0  0  0  0  0  0  0  0  0  0
    7.4011    2.9647   24.6547 H   0  0  0  0  0  0  0  0  0  0  0  0
    9.4905    3.1930   24.1630 C   0  0  0  0  0  0  0  0  0  0  0  0
   10.1494    3.9692   23.7519 H   0  0  0  0  0  0  0  0  0  0  0  0
    9.8123    3.0157   25.1948 H   0  0  0  0  0  0  0  0  0  0  0  0
    9.6578    1.9146   23.3382 C   0  0  0  0  0  0  0  0  0  0  0  0
    9.0786    1.1226   23.8297 H   0  0  0  0  0  0  0  0  0  0  0  0
   10.7067    1.5901   23.3419 H   0  0  0  0  0  0  0  0  0  0  0  0
    7.3471   -0.7665   20.9644 C   0  0  0  0  0  0  0  0  0  0  0  0
    6.6494   -0.0022   19.9159 C   0  0  0  0  0  0  0  0  0  0  0  0
    7.1709    0.0457   18.6228 C   0  0  0  0  0  0  0  0  0  0  0  0
    8.1199   -0.4328   18.3775 H   0  0  0  0  0  0  0  0  0  0  0  0
    6.5714    0.6655   17.5970 N   0  0  0  0  0  0  0  0  0  0  0  0
    5.4109    1.2900   17.8482 C   0  0  0  0  0  0  0  0  0  0  0  0
    4.9231    1.7750   17.0038 H   0  0  0  0  0  0  0  0  0  0  0  0
    4.8119    1.3133   19.1127 C   0  0  0  0  0  0  0  0  0  0  0  0
    3.8772    1.8427   19.2618 H   0  0  0  0  0  0  0  0  0  0  0  0
    5.4333    0.6446   20.1644 C   0  0  0  0  0  0  0  0  0  0  0  0
    4.9903    0.6255   21.1653 H   0  0  0  0  0  0  0  0  0  0  0  0
    6.6711   -1.8080   21.4597 N   0  0  0  0  0  0  0  0  0  0  0  0
  1  2  1  0
  2  3  2  0
  3  4  1  0
  4  5  1  0
  4  6  2  0
  6  7  1  0
  7  8  1  0
  7  9  1  0
  7 10  1  0
 10 11  1  0
 10 12  1  0
 12 13  1  0
 12 14  1  0
 12 15  1  0
 15 16  1  0
 15 17  1  0
 15 18  1  0
 18 19  1  0
 18 20  1  0
 18 21  1  0
 21 22  1  0
 21 23  1  0
 21 24  1  0
 24 25  1  0
 24 26  1  0
  6 27  1  0
 27 28  1  0
 28 29  2  0
 29 30  1  0
 29 31  1  0
 31 32  2  0
 32 33  1  0
 32 34  1  0
 34 35  1  0
 34 36  2  0
 36 37  1  0
 27 38  2  0
 38  2  1  0
 24 10  1  0
 36 28  1  0
M  END
>  <cnnaffinity>  (1) 
-5.42804

>  <filename>  (1) 
c1cncc(-c2ncncc2CC2CCCCC2)c1

$$$$
