
     RDKit          3D

 34 38  0  0  0  0  0  0  0  0999 V2000
    4.9546    1.8027   16.9807 H   0  0  0  0  0  0  0  0  0  0  0  0
    5.4051    1.2896   17.8289 C   0  0  0  0  0  0  0  0  0  0  0  0
    6.5642    0.6586   17.5856 N   0  0  0  0  0  0  0  0  0  0  0  0
    7.1523    0.0235   18.6015 C   0  0  0  0  0  0  0  0  0  0  0  0
    8.0987   -0.4614   18.3705 H   0  0  0  0  0  0  0  0  0  0  0  0
    6.6342   -0.0102   19.9052 C   0  0  0  0  0  0  0  0  0  0  0  0
    7.3654   -0.7184   20.9504 C   0  0  0  0  0  0  0  0  0  0  0  0
    7.9254   -1.9496   20.7417 N   0  0  0  0  0  0  0  0  0  0  0  0
    8.3423   -2.3073   21.9282 C   0  0  0  0  0  0  0  0  0  0  0  0
    9.0756   -3.7183   22.6407 S   0  0  0  0  0  0  0  0  0  0  0  0
    9.2594   -2.8770   24.1667 C   0  0  0  0  0  0  0  0  0  0  0  0
    9.7819   -3.3827   24.9710 H   0  0  0  0  0  0  0  0  0  0  0  0
    8.7032   -1.6512   24.1393 C   0  0  0  0  0  0  0  0  0  0  0  0
    8.6112   -0.9126   24.9240 H   0  0  0  0  0  0  0  0  0  0  0  0
    8.1643   -1.3624   22.8915 N   0  0  0  0  0  0  0  0  0  0  0  0
    7.5386   -0.2975   22.2704 C   0  0  0  0  0  0  0  0  0  0  0  0
    7.3171    0.9935   22.8431 C   0  0  0  0  0  0  0  0  0  0  0  0
    7.1531    1.1174   24.2056 O   0  0  0  0  0  0  0  0  0  0  0  0
    6.9332    2.4434   24.4508 C   0  0  0  0  0  0  0  0  0  0  0  0
    6.6938    3.0385   25.6922 C   0  0  0  0  0  0  0  0  0  0  0  0
    6.6493    2.4532   26.6074 H   0  0  0  0  0  0  0  0  0  0  0  0
    6.5199    4.4238   25.6950 C   0  0  0  0  0  0  0  0  0  0  0  0
    6.3388    4.9383   26.6343 H   0  0  0  0  0  0  0  0  0  0  0  0
    6.5768    5.1830   24.5039 C   0  0  0  0  0  0  0  0  0  0  0  0
    6.4392    6.2595   24.5477 H   0  0  0  0  0  0  0  0  0  0  0  0
    6.8069    4.5704   23.2787 C   0  0  0  0  0  0  0  0  0  0  0  0
    6.8518    5.1363   22.3517 H   0  0  0  0  0  0  0  0  0  0  0  0
    6.9879    3.1765   23.2507 C   0  0  0  0  0  0  0  0  0  0  0  0
    7.2423    2.2072   22.2304 C   0  0  0  0  0  0  0  0  0  0  0  0
    7.3512    2.3686   21.1676 H   0  0  0  0  0  0  0  0  0  0  0  0
    5.4128    0.6476   20.1459 C   0  0  0  0  0  0  0  0  0  0  0  0
    4.9764    0.6744   21.1465 H   0  0  0  0  0  0  0  0  0  0  0  0
    4.7933    1.3055   19.0857 C   0  0  0  0  0  0  0  0  0  0  0  0
    3.8650    1.8463   19.2238 H   0  0  0  0  0  0  0  0  0  0  0  0
  1  2  1  0
  2  3  2  0
  3  4  1  0
  4  5  1  0
  4  6  2  0
  6  7  1  0
  7  8  1  0
  8  9  2  0
  9 10  1  0
 10 11  1  0
 11 12  1  0
 11 13  2  0
 13 14  1  0
 13 15  1  0
 15 16  1  0
 16 17  1  0
 17 18  1  0
 18 19  1  0
 19 20  2  0
 20 21  1  0
 20 22  1  0
 22 23  1  0
 22 24  2  0
 24 25  1  0
 24 26  1  0
 26 27  1  0
 26 28  2  0
 28 29  1  0
 29 30  1  0
  6 31  1  0
 31 32  1  0
 31 33  2  0
 33 34  1  0
 33  2  1  0
 16  7  2  0
 29 17  2  0
 15  9  1  0
 28 19  1  0
M  END
>  <cnnaffinity>  (1) 
-5.63452

>  <filename>  (1) 
c1cncc(-c2nc3sccn3c2-c2cc3ccccc3o2)c1

$$$$
