
     RDKit          3D

 33 36  0  0  0  0  0  0  0  0999 V2000
    4.9112    1.7826   16.9990 H   0  0  0  0  0  0  0  0  0  0  0  0
    5.3990    1.2920   17.8425 C   0  0  0  0  0  0  0  0  0  0  0  0
    6.5557    0.6710   17.5755 N   0  0  0  0  0  0  0  0  0  0  0  0
    7.1879    0.0604   18.5839 C   0  0  0  0  0  0  0  0  0  0  0  0
    8.1355   -0.4237   18.3620 H   0  0  0  0  0  0  0  0  0  0  0  0
    6.6906    0.0239   19.9010 C   0  0  0  0  0  0  0  0  0  0  0  0
    7.2999   -0.6849   20.9488 O   0  0  0  0  0  0  0  0  0  0  0  0
    8.6353   -0.7779   21.0740 C   0  0  0  0  0  0  0  0  0  0  0  0
    9.5599   -0.0840   20.4537 N   0  0  0  0  0  0  0  0  0  0  0  0
   10.7324   -0.5287   20.9673 N   0  0  0  0  0  0  0  0  0  0  0  0
   10.5531   -1.4483   21.8333 N   0  0  0  0  0  0  0  0  0  0  0  0
    9.2090   -1.6463   21.9317 N   0  0  0  0  0  0  0  0  0  0  0  0
    8.6408   -2.6303   22.8079 C   0  0  0  0  0  0  0  0  0  0  0  0
    9.3315   -2.9666   24.0165 C   0  0  0  0  0  0  0  0  0  0  0  0
   10.2914   -2.5046   24.2360 H   0  0  0  0  0  0  0  0  0  0  0  0
    8.7801   -3.8800   24.8822 C   0  0  0  0  0  0  0  0  0  0  0  0
    9.2918   -4.1538   25.8044 H   0  0  0  0  0  0  0  0  0  0  0  0
    7.5257   -4.5049   24.6007 C   0  0  0  0  0  0  0  0  0  0  0  0
    6.9285   -5.4547   25.4840 C   0  0  0  0  0  0  0  0  0  0  0  0
    7.4536   -5.7095   26.4056 H   0  0  0  0  0  0  0  0  0  0  0  0
    5.7178   -6.0349   25.1759 C   0  0  0  0  0  0  0  0  0  0  0  0
    5.2690   -6.7602   25.8538 H   0  0  0  0  0  0  0  0  0  0  0  0
    5.0435   -5.6950   23.9642 C   0  0  0  0  0  0  0  0  0  0  0  0
    4.0886   -6.1660   23.7369 H   0  0  0  0  0  0  0  0  0  0  0  0
    5.5942   -4.7829   23.0936 C   0  0  0  0  0  0  0  0  0  0  0  0
    5.0864   -4.5131   22.1669 H   0  0  0  0  0  0  0  0  0  0  0  0
    6.8483   -4.1659   23.3822 C   0  0  0  0  0  0  0  0  0  0  0  0
    7.4399   -3.2250   22.4938 C   0  0  0  0  0  0  0  0  0  0  0  0
    6.9184   -2.9731   21.5755 H   0  0  0  0  0  0  0  0  0  0  0  0
    5.4660    0.6414   20.1716 C   0  0  0  0  0  0  0  0  0  0  0  0
    5.0335    0.6125   21.1740 H   0  0  0  0  0  0  0  0  0  0  0  0
    4.8206    1.3008   19.1168 C   0  0  0  0  0  0  0  0  0  0  0  0
    3.8860    1.8328   19.2686 H   0  0  0  0  0  0  0  0  0  0  0  0
  1  2  1  0
  2  3  2  0
  3  4  1  0
  4  5  1  0
  4  6  2  0
  6  7  1  0
  7  8  1  0
  8  9  2  0
  9 10  1  0
 10 11  2  0
 11 12  1  0
 12 13  1  0
 13 14  2  0
 14 15  1  0
 14 16  1  0
 16 17  1  0
 16 18  2  0
 18 19  1  0
 19 20  1  0
 19 21  2  0
 21 22  1  0
 21 23  1  0
 23 24  1  0
 23 25  2  0
 25 26  1  0
 25 27  1  0
 27 28  2  0
 28 29  1  0
  6 30  1  0
 30 31  1  0
 30 32  2  0
 32 33  1  0
 32  2  1  0
 12  8  1  0
 28 13  1  0
 27 18  1  0
M  END
>  <cnnaffinity>  (1) 
-5.51766

>  <filename>  (1) 
c1cncc(Oc2nnnn2-c2ccc3ccccc3c2)c1

$$$$
