
     RDKit          3D

 32 35  0  0  0  0  0  0  0  0999 V2000
    4.9385    1.7848   17.0084 H   0  0  0  0  0  0  0  0  0  0  0  0
    5.4139    1.2831   17.8455 C   0  0  0  0  0  0  0  0  0  0  0  0
    6.5730    0.6641   17.5790 N   0  0  0  0  0  0  0  0  0  0  0  0
    7.1962    0.0449   18.5906 C   0  0  0  0  0  0  0  0  0  0  0  0
    8.1400   -0.4410   18.3535 H   0  0  0  0  0  0  0  0  0  0  0  0
    6.6910    0.0108   19.9045 C   0  0  0  0  0  0  0  0  0  0  0  0
    7.2815   -0.6795   20.9368 O   0  0  0  0  0  0  0  0  0  0  0  0
    8.6407   -0.7734   21.0717 C   0  0  0  0  0  0  0  0  0  0  0  0
    9.6656    0.0812   20.6152 C   0  0  0  0  0  0  0  0  0  0  0  0
    9.6044    0.9609   19.9858 H   0  0  0  0  0  0  0  0  0  0  0  0
   10.8463   -0.3230   21.0761 N   0  0  0  0  0  0  0  0  0  0  0  0
   10.5850   -1.4019   21.8183 N   0  0  0  0  0  0  0  0  0  0  0  0
   11.3582   -1.9206   22.2201 H   0  0  0  0  0  0  0  0  0  0  0  0
    9.2630   -1.7431   21.8584 C   0  0  0  0  0  0  0  0  0  0  0  0
    8.7348   -2.8406   22.6611 C   0  0  0  0  0  0  0  0  0  0  0  0
    9.1025   -3.1472   23.9369 C   0  0  0  0  0  0  0  0  0  0  0  0
    9.8390   -2.6354   24.5448 H   0  0  0  0  0  0  0  0  0  0  0  0
    8.1957   -4.4462   24.6298 S   0  0  0  0  0  0  0  0  0  0  0  0
    7.2843   -4.6612   23.1591 C   0  0  0  0  0  0  0  0  0  0  0  0
    6.2731   -5.6078   22.8912 C   0  0  0  0  0  0  0  0  0  0  0  0
    5.9328   -6.3011   23.6593 H   0  0  0  0  0  0  0  0  0  0  0  0
    5.7066   -5.6231   21.6207 C   0  0  0  0  0  0  0  0  0  0  0  0
    4.9298   -6.3485   21.3985 H   0  0  0  0  0  0  0  0  0  0  0  0
    6.0921   -4.6827   20.6400 C   0  0  0  0  0  0  0  0  0  0  0  0
    5.6646   -4.7287   19.6437 H   0  0  0  0  0  0  0  0  0  0  0  0
    7.0107   -3.6923   20.9438 C   0  0  0  0  0  0  0  0  0  0  0  0
    7.1950   -2.8667   20.2731 H   0  0  0  0  0  0  0  0  0  0  0  0
    7.6646   -3.7082   22.1915 C   0  0  0  0  0  0  0  0  0  0  0  0
    5.4702    0.6410   20.1715 C   0  0  0  0  0  0  0  0  0  0  0  0
    5.0562    0.6025   21.1789 H   0  0  0  0  0  0  0  0  0  0  0  0
    4.8294    1.2976   19.1183 C   0  0  0  0  0  0  0  0  0  0  0  0
    3.8922    1.8214   19.2691 H   0  0  0  0  0  0  0  0  0  0  0  0
  1  2  1  0
  2  3  2  0
  3  4  1  0
  4  5  1  0
  4  6  2  0
  6  7  1  0
  7  8  1  0
  8  9  1  0
  9 10  1  0
  9 11  2  0
 11 12  1  0
 12 13  1  0
 12 14  1  0
 14 15  1  0
 15 16  2  0
 16 17  1  0
 16 18  1  0
 18 19  1  0
 19 20  2  0
 20 21  1  0
 20 22  1  0
 22 23  1  0
 22 24  2  0
 24 25  1  0
 24 26  1  0
 26 27  1  0
 26 28  2  0
  6 29  1  0
 29 30  1  0
 29 31  2  0
 31 32  1  0
 31  2  1  0
 14  8  2  0
 28 15  1  0
 28 19  1  0
M  END
>  <cnnaffinity>  (1) 
-5.50012

>  <filename>  (1) 
c1cncc(Oc2cn[nH]c2-c2csc3ccccc23)c1

$$$$
