
     RDKit          3D

 42 44  0  0  0  0  0  0  0  0999 V2000
    5.0684    1.7542   16.9132 H   0  0  0  0  0  0  0  0  0  0  0  0
    5.4847    1.2642   17.7928 C   0  0  0  0  0  0  0  0  0  0  0  0
    6.6428    0.6105   17.6135 N   0  0  0  0  0  0  0  0  0  0  0  0
    7.1872   -0.0013   18.6806 C   0  0  0  0  0  0  0  0  0  0  0  0
    8.1047   -0.5546   18.4855 H   0  0  0  0  0  0  0  0  0  0  0  0
    6.6267    0.0126   19.9838 C   0  0  0  0  0  0  0  0  0  0  0  0
    7.2120   -0.6320   21.1314 N   0  0  0  0  0  0  0  0  0  0  0  0
    6.7905   -2.0319   21.2700 C   0  0  0  0  0  0  0  0  0  0  0  0
    7.2223   -2.6842   20.4916 H   0  0  0  0  0  0  0  0  0  0  0  0
    5.7007   -2.0807   21.1788 H   0  0  0  0  0  0  0  0  0  0  0  0
    7.2229   -2.5913   22.6229 C   0  0  0  0  0  0  0  0  0  0  0  0
    6.7345   -2.0370   23.4415 H   0  0  0  0  0  0  0  0  0  0  0  0
    6.9472   -3.6470   22.7051 H   0  0  0  0  0  0  0  0  0  0  0  0
    8.6362   -2.5329   22.7549 O   0  0  0  0  0  0  0  0  0  0  0  0
    9.0859   -1.1870   22.7073 C   0  0  0  0  0  0  0  0  0  0  0  0
    8.7183   -0.6476   23.5969 H   0  0  0  0  0  0  0  0  0  0  0  0
   10.1796   -1.2206   22.7552 H   0  0  0  0  0  0  0  0  0  0  0  0
    8.6612   -0.4271   21.4269 C   0  0  2  0  0  0  0  0  0  0  0  0
    9.2922   -0.8199   20.6105 H   0  0  0  0  0  0  0  0  0  0  0  0
    8.9742    1.0711   21.5969 C   0  0  0  0  0  0  0  0  0  0  0  0
    8.8573    1.5203   20.6020 H   0  0  0  0  0  0  0  0  0  0  0  0
    8.2011    1.5283   22.2469 H   0  0  0  0  0  0  0  0  0  0  0  0
   10.3571    1.3405   22.0752 N   0  0  0  0  0  0  0  0  0  0  0  0
   10.3948    1.1676   23.0794 H   0  0  0  0  0  0  0  0  0  0  0  0
   10.7107    2.7455   21.8944 C   0  0  0  0  0  0  0  0  0  0  0  0
   10.4334    2.9470   20.8588 H   0  0  0  0  0  0  0  0  0  0  0  0
   10.0358    3.7221   22.8863 C   0  0  0  0  0  0  0  0  0  0  0  0
   10.0312    3.2349   23.8706 H   0  0  0  0  0  0  0  0  0  0  0  0
    8.9865    3.9157   22.6318 H   0  0  0  0  0  0  0  0  0  0  0  0
   10.9253    4.9986   22.9167 C   0  0  0  0  0  0  0  0  0  0  0  0
   11.1667    5.2689   23.9519 H   0  0  0  0  0  0  0  0  0  0  0  0
   10.4180    5.8660   22.4812 H   0  0  0  0  0  0  0  0  0  0  0  0
   12.2140    4.6328   22.1266 C   0  0  0  0  0  0  0  0  0  0  0  0
   12.2003    5.0821   21.1236 H   0  0  0  0  0  0  0  0  0  0  0  0
   13.1249    4.9981   22.6153 H   0  0  0  0  0  0  0  0  0  0  0  0
   12.1907    3.0954   22.0013 C   0  0  0  0  0  0  0  0  0  0  0  0
   12.7171    2.7304   21.1206 H   0  0  0  0  0  0  0  0  0  0  0  0
   12.6317    2.6152   22.8807 H   0  0  0  0  0  0  0  0  0  0  0  0
    5.3829    0.6556   20.1244 C   0  0  0  0  0  0  0  0  0  0  0  0
    4.8974    0.6316   21.1017 H   0  0  0  0  0  0  0  0  0  0  0  0
    4.8156    1.3082   19.0225 C   0  0  0  0  0  0  0  0  0  0  0  0
    3.8706    1.8388   19.1038 H   0  0  0  0  0  0  0  0  0  0  0  0
  1  2  1  0
  2  3  2  0
  3  4  1  0
  4  5  1  0
  4  6  2  0
  6  7  1  0
  7  8  1  0
  8  9  1  0
  8 10  1  0
  8 11  1  0
 11 12  1  0
 11 13  1  0
 11 14  1  0
 14 15  1  0
 15 16  1  0
 15 17  1  0
 15 18  1  0
 18 19  1  6
 18 20  1  0
 20 21  1  0
 20 22  1  0
 20 23  1  0
 23 24  1  0
 23 25  1  0
 25 26  1  0
 25 27  1  0
 27 28  1  0
 27 29  1  0
 27 30  1  0
 30 31  1  0
 30 32  1  0
 30 33  1  0
 33 34  1  0
 33 35  1  0
 33 36  1  0
 36 37  1  0
 36 38  1  0
  6 39  1  0
 39 40  1  0
 39 41  2  0
 41 42  1  0
 41  2  1  0
 18  7  1  0
 36 25  1  0
M  END
>  <cnnaffinity>  (1) 
-5.02409

>  <filename>  (1) 
c1cncc(N2CCOC[C@@H]2CNC2CCCC2)c1

$$$$
