
     RDKit          3D

 43 46  0  0  0  0  0  0  0  0999 V2000
    4.9423    1.7908   17.0069 H   0  0  0  0  0  0  0  0  0  0  0  0
    5.4131    1.2792   17.8438 C   0  0  0  0  0  0  0  0  0  0  0  0
    6.5720    0.6566   17.5784 N   0  0  0  0  0  0  0  0  0  0  0  0
    7.1888    0.0441   18.5983 C   0  0  0  0  0  0  0  0  0  0  0  0
    8.1367   -0.4292   18.3436 H   0  0  0  0  0  0  0  0  0  0  0  0
    6.7060   -0.0091   19.9462 C   0  0  0  0  0  0  0  0  0  0  0  0
    7.4049   -0.6100   20.9833 N   0  0  0  0  0  0  0  0  0  0  0  0
    8.6678   -1.3061   20.7943 C   0  0  0  0  0  0  0  0  0  0  0  0
    8.5845   -2.0881   20.0464 H   0  0  0  0  0  0  0  0  0  0  0  0
    9.4455   -0.6164   20.4428 H   0  0  0  0  0  0  0  0  0  0  0  0
    9.0128   -1.9210   22.1325 C   0  0  1  0  0  0  0  0  0  0  0  0
   10.0629   -1.9687   22.3890 H   0  0  0  0  0  0  0  0  0  0  0  0
    7.9317   -1.5490   23.0981 C   0  0  1  0  0  0  0  0  0  0  0  0
    8.1176   -1.2723   24.1295 H   0  0  0  0  0  0  0  0  0  0  0  0
    6.8920   -0.7385   22.3430 C   0  0  0  0  0  0  0  0  0  0  0  0
    5.9305   -1.2656   22.3535 H   0  0  0  0  0  0  0  0  0  0  0  0
    6.7473    0.2453   22.8074 H   0  0  0  0  0  0  0  0  0  0  0  0
    8.1110   -3.0002   22.6991 C   0  0  1  0  0  0  0  0  0  0  0  0
    8.5933   -3.6093   23.4609 H   0  0  0  0  0  0  0  0  0  0  0  0
    7.0786   -3.7671   21.8899 C   0  0  0  0  0  0  0  0  0  0  0  0
    7.5674   -4.6110   21.3761 H   0  0  0  0  0  0  0  0  0  0  0  0
    6.6683   -3.1276   21.0947 H   0  0  0  0  0  0  0  0  0  0  0  0
    5.9075   -4.3139   22.7478 C   0  0  0  0  0  0  0  0  0  0  0  0
    5.5624   -3.4974   23.4081 H   0  0  0  0  0  0  0  0  0  0  0  0
    6.2951   -5.5048   23.6485 C   0  0  0  0  0  0  0  0  0  0  0  0
    7.0998   -5.2075   24.3360 H   0  0  0  0  0  0  0  0  0  0  0  0
    6.7093   -6.3090   23.0173 H   0  0  0  0  0  0  0  0  0  0  0  0
    5.0910   -6.0545   24.4409 C   0  0  0  0  0  0  0  0  0  0  0  0
    5.3943   -6.9092   25.0601 H   0  0  0  0  0  0  0  0  0  0  0  0
    4.7371   -5.2807   25.1409 H   0  0  0  0  0  0  0  0  0  0  0  0
    3.9292   -6.4508   23.5122 C   0  0  0  0  0  0  0  0  0  0  0  0
    3.0705   -6.8091   24.0972 H   0  0  0  0  0  0  0  0  0  0  0  0
    4.2349   -7.3010   22.8840 H   0  0  0  0  0  0  0  0  0  0  0  0
    3.5133   -5.2698   22.6174 C   0  0  0  0  0  0  0  0  0  0  0  0
    2.7262   -5.5792   21.9170 H   0  0  0  0  0  0  0  0  0  0  0  0
    3.0700   -4.4838   23.2473 H   0  0  0  0  0  0  0  0  0  0  0  0
    4.7132   -4.6825   21.8493 C   0  0  0  0  0  0  0  0  0  0  0  0
    5.0409   -5.3965   21.0746 H   0  0  0  0  0  0  0  0  0  0  0  0
    4.4311   -3.7534   21.3378 H   0  0  0  0  0  0  0  0  0  0  0  0
    5.4628    0.6337   20.1706 C   0  0  0  0  0  0  0  0  0  0  0  0
    5.0236    0.6315   21.1674 H   0  0  0  0  0  0  0  0  0  0  0  0
    4.8238    1.2874   19.1120 C   0  0  0  0  0  0  0  0  0  0  0  0
    3.8869    1.8216   19.2690 H   0  0  0  0  0  0  0  0  0  0  0  0
  1  2  1  0
  2  3  2  0
  3  4  1  0
  4  5  1  0
  4  6  2  0
  6  7  1  0
  7  8  1  0
  8  9  1  0
  8 10  1  0
  8 11  1  0
 11 12  1  1
 11 13  1  0
 13 14  1  1
 13 15  1  0
 15 16  1  0
 15 17  1  0
 13 18  1  0
 18 19  1  1
 18 20  1  0
 20 21  1  0
 20 22  1  0
 20 23  1  0
 23 24  1  0
 23 25  1  0
 25 26  1  0
 25 27  1  0
 25 28  1  0
 28 29  1  0
 28 30  1  0
 28 31  1  0
 31 32  1  0
 31 33  1  0
 31 34  1  0
 34 35  1  0
 34 36  1  0
 34 37  1  0
 37 38  1  0
 37 39  1  0
  6 40  1  0
 40 41  1  0
 40 42  2  0
 42 43  1  0
 42  2  1  0
 15  7  1  0
 37 23  1  0
 18 11  1  0
M  END
>  <cnnaffinity>  (1) 
-5.12409

>  <filename>  (1) 
c1cncc(N2C[C@@H]3[C@H](CC4CCCCC4)[C@@H]3C2)c1

$$$$
