
     RDKit          3D

 37 41  0  0  0  0  0  0  0  0999 V2000
    5.0055    1.8413   16.9077 H   0  0  0  0  0  0  0  0  0  0  0  0
    5.3890    1.3098   17.7811 C   0  0  0  0  0  0  0  0  0  0  0  0
    6.5387    0.6412   17.6062 N   0  0  0  0  0  0  0  0  0  0  0  0
    7.0499    0.0177   18.6776 C   0  0  0  0  0  0  0  0  0  0  0  0
    7.9864   -0.5093   18.5096 H   0  0  0  0  0  0  0  0  0  0  0  0
    6.4572   -0.0132   19.9579 C   0  0  0  0  0  0  0  0  0  0  0  0
    7.2052   -0.6349   21.0719 C   0  0  0  0  0  0  0  0  0  0  0  0
    8.5607   -0.5793   21.3127 C   0  0  0  0  0  0  0  0  0  0  0  0
    8.7615   -1.1908   22.5433 C   0  0  0  0  0  0  0  0  0  0  0  0
    7.6438   -1.6609   23.0680 N   0  0  0  0  0  0  0  0  0  0  0  0
    6.7032   -1.3060   22.1550 N   0  0  0  0  0  0  0  0  0  0  0  0
    5.7405   -1.5550   22.3489 H   0  0  0  0  0  0  0  0  0  0  0  0
   10.1898   -1.1325   23.0023 C   0  0  0  0  0  0  0  0  0  0  0  0
   10.2921   -0.6216   23.9670 H   0  0  0  0  0  0  0  0  0  0  0  0
   10.6090   -2.1392   23.1219 H   0  0  0  0  0  0  0  0  0  0  0  0
   10.9010   -0.3585   21.8231 C   0  0  2  0  0  0  0  0  0  0  0  0
   11.6805   -1.0013   21.4153 H   0  0  0  0  0  0  0  0  0  0  0  0
   11.6380    0.8815   22.2206 C   0  0  0  0  0  0  0  0  0  0  0  0
   12.8961    1.1223   22.0565 N   0  0  0  0  0  0  0  0  0  0  0  0
   13.0599    2.4149   22.5611 C   0  0  0  0  0  0  0  0  0  0  0  0
   14.1789    3.2454   22.6627 C   0  0  0  0  0  0  0  0  0  0  0  0
   15.1437    2.9036   22.3044 H   0  0  0  0  0  0  0  0  0  0  0  0
   14.0390    4.4825   23.2870 C   0  0  0  0  0  0  0  0  0  0  0  0
   14.9185    5.1074   23.3872 H   0  0  0  0  0  0  0  0  0  0  0  0
   12.7931    4.9058   23.7879 C   0  0  0  0  0  0  0  0  0  0  0  0
   12.7233    5.8687   24.2874 H   0  0  0  0  0  0  0  0  0  0  0  0
   11.6527    4.1051   23.6564 C   0  0  0  0  0  0  0  0  0  0  0  0
   10.6730    4.4216   23.9913 H   0  0  0  0  0  0  0  0  0  0  0  0
   11.8306    2.8738   23.0327 C   0  0  0  0  0  0  0  0  0  0  0  0
   10.9134    1.8900   22.7953 O   0  0  0  0  0  0  0  0  0  0  0  0
    9.8282   -0.0817   20.7085 C   0  0  0  0  0  0  0  0  0  0  0  0
    9.7566    0.9689   20.3991 H   0  0  0  0  0  0  0  0  0  0  0  0
   10.0737   -0.6549   19.8105 H   0  0  0  0  0  0  0  0  0  0  0  0
    5.2379    0.6713   20.1097 C   0  0  0  0  0  0  0  0  0  0  0  0
    4.7316    0.7112   21.0762 H   0  0  0  0  0  0  0  0  0  0  0  0
    4.7068    1.3415   19.0035 C   0  0  0  0  0  0  0  0  0  0  0  0
    3.7916    1.9162   19.0750 H   0  0  0  0  0  0  0  0  0  0  0  0
  1  2  1  0
  2  3  2  0
  3  4  1  0
  4  5  1  0
  4  6  2  0
  6  7  1  0
  7  8  2  0
  8  9  1  0
  9 10  2  0
 10 11  1  0
 11 12  1  0
  9 13  1  0
 13 14  1  0
 13 15  1  0
 13 16  1  0
 16 17  1  6
 16 18  1  0
 18 19  2  0
 19 20  1  0
 20 21  2  0
 21 22  1  0
 21 23  1  0
 23 24  1  0
 23 25  2  0
 25 26  1  0
 25 27  1  0
 27 28  1  0
 27 29  2  0
 29 30  1  0
 16 31  1  0
 31 32  1  0
 31 33  1  0
  6 34  1  0
 34 35  1  0
 34 36  2  0
 36 37  1  0
 36  2  1  0
 11  7  1  0
 30 18  1  0
 31  8  1  0
 29 20  1  0
M  END
>  <cnnaffinity>  (1) 
-5.92269

>  <filename>  (1) 
c1cncc(-c2[nH]nc3c2C[C@@H](c2nc4ccccc4o2)C3)c1

$$$$
