
     RDKit          3D

 36 38  0  0  0  0  0  0  0  0999 V2000
    5.1124    1.7908   16.7824 H   0  0  0  0  0  0  0  0  0  0  0  0
    5.5197    1.3059   17.6634 C   0  0  0  0  0  0  0  0  0  0  0  0
    6.6772    0.6495   17.4905 N   0  0  0  0  0  0  0  0  0  0  0  0
    7.2020    0.0348   18.5549 C   0  0  0  0  0  0  0  0  0  0  0  0
    8.1343   -0.5055   18.3976 H   0  0  0  0  0  0  0  0  0  0  0  0
    6.6085    0.0542   19.8335 C   0  0  0  0  0  0  0  0  0  0  0  0
    7.2688   -0.6433   20.9386 C   0  0  0  0  0  0  0  0  0  0  0  0
    8.3622   -1.4458   20.7095 N   0  0  0  0  0  0  0  0  0  0  0  0
    8.7064   -1.9189   21.8782 C   0  0  0  0  0  0  0  0  0  0  0  0
    9.5221   -2.6101   22.0677 H   0  0  0  0  0  0  0  0  0  0  0  0
    7.9155   -1.4551   22.8804 N   0  0  0  0  0  0  0  0  0  0  0  0
    8.0199   -1.9397   24.2423 C   0  0  0  0  0  0  0  0  0  0  0  0
    7.4567   -1.2673   24.9096 H   0  0  0  0  0  0  0  0  0  0  0  0
    9.0754   -1.8932   24.5518 H   0  0  0  0  0  0  0  0  0  0  0  0
    7.5563   -3.3152   24.2827 N   0  0  0  0  0  0  0  0  0  0  0  0
    6.6993   -3.3791   23.7419 H   0  0  0  0  0  0  0  0  0  0  0  0
    7.4129   -3.9490   25.5891 C   0  0  0  0  0  0  0  0  0  0  0  0
    6.9987   -3.2605   26.3620 H   0  0  0  0  0  0  0  0  0  0  0  0
    8.7432   -4.5469   26.1032 C   0  0  0  0  0  0  0  0  0  0  0  0
    9.3158   -4.8645   25.2241 H   0  0  0  0  0  0  0  0  0  0  0  0
    9.3718   -3.8166   26.6224 H   0  0  0  0  0  0  0  0  0  0  0  0
    8.3703   -5.7815   26.9712 C   0  0  0  0  0  0  0  0  0  0  0  0
    8.8886   -6.6697   26.5942 H   0  0  0  0  0  0  0  0  0  0  0  0
    8.6714   -5.6737   28.0214 H   0  0  0  0  0  0  0  0  0  0  0  0
    6.8402   -5.9549   26.8073 C   0  0  0  0  0  0  0  0  0  0  0  0
    6.5334   -7.0058   26.7660 H   0  0  0  0  0  0  0  0  0  0  0  0
    6.3093   -5.4987   27.6531 H   0  0  0  0  0  0  0  0  0  0  0  0
    6.5094   -5.1849   25.5222 C   0  0  0  0  0  0  0  0  0  0  0  0
    6.7970   -5.7724   24.6374 H   0  0  0  0  0  0  0  0  0  0  0  0
    5.4434   -4.9468   25.4225 H   0  0  0  0  0  0  0  0  0  0  0  0
    6.9668   -0.6353   22.2758 C   0  0  0  0  0  0  0  0  0  0  0  0
    6.1656   -0.1608   22.8235 H   0  0  0  0  0  0  0  0  0  0  0  0
    5.3962    0.7432   19.9931 C   0  0  0  0  0  0  0  0  0  0  0  0
    4.8990    0.7859   20.9635 H   0  0  0  0  0  0  0  0  0  0  0  0
    4.8408    1.3758   18.8847 C   0  0  0  0  0  0  0  0  0  0  0  0
    3.9078    1.9231   18.9528 H   0  0  0  0  0  0  0  0  0  0  0  0
  1  2  1  0
  2  3  2  0
  3  4  1  0
  4  5  1  0
  4  6  2  0
  6  7  1  0
  7  8  1  0
  8  9  2  0
  9 10  1  0
  9 11  1  0
 11 12  1  0
 12 13  1  0
 12 14  1  0
 12 15  1  0
 15 16  1  0
 15 17  1  0
 17 18  1  0
 17 19  1  0
 19 20  1  0
 19 21  1  0
 19 22  1  0
 22 23  1  0
 22 24  1  0
 22 25  1  0
 25 26  1  0
 25 27  1  0
 25 28  1  0
 28 29  1  0
 28 30  1  0
 11 31  1  0
 31 32  1  0
  6 33  1  0
 33 34  1  0
 33 35  2  0
 35 36  1  0
 35  2  1  0
 31  7  2  0
 28 17  1  0
M  END
>  <cnnaffinity>  (1) 
-4.80669

>  <filename>  (1) 
c1cncc(-c2cn(CNC3CCCC3)cn2)c1

$$$$
