
     RDKit          3D

 41 44  0  0  0  0  0  0  0  0999 V2000
    4.9503    1.7924   16.9769 H   0  0  0  0  0  0  0  0  0  0  0  0
    5.4003    1.2875   17.8261 C   0  0  0  0  0  0  0  0  0  0  0  0
    6.5612    0.6571   17.5915 N   0  0  0  0  0  0  0  0  0  0  0  0
    7.1566    0.0685   18.6327 C   0  0  0  0  0  0  0  0  0  0  0  0
    8.1067   -0.4121   18.3993 H   0  0  0  0  0  0  0  0  0  0  0  0
    6.6468    0.0751   19.9523 C   0  0  0  0  0  0  0  0  0  0  0  0
    7.4034   -0.6093   21.0227 C   0  0  0  0  0  0  0  0  0  0  0  0
    8.2644   -1.6338   20.8743 C   0  0  0  0  0  0  0  0  0  0  0  0
    8.6647   -1.9999   19.9493 H   0  0  0  0  0  0  0  0  0  0  0  0
    8.8746   -2.2814   22.3705 S   0  0  0  0  0  0  0  0  0  0  0  0
    8.1049   -0.9794   23.2171 C   0  0  0  0  0  0  0  0  0  0  0  0
    8.1837   -0.4170   24.4042 N   0  0  0  0  0  0  0  0  0  0  0  0
    7.3752    0.6705   24.2377 C   0  0  0  0  0  0  0  0  0  0  0  0
    7.2066    1.6783   25.3193 C   0  0  0  0  0  0  0  0  0  0  0  0
    6.2549    2.1912   25.1740 H   0  0  0  0  0  0  0  0  0  0  0  0
    7.1732    1.1674   26.2851 H   0  0  0  0  0  0  0  0  0  0  0  0
    8.3650    2.6797   25.2940 C   0  0  0  0  0  0  0  0  0  0  0  0
    9.3018    2.1224   25.4256 H   0  0  0  0  0  0  0  0  0  0  0  0
    8.3003    3.3615   26.1646 H   0  0  0  0  0  0  0  0  0  0  0  0
    8.3930    3.3765   24.0112 N   0  0  0  0  0  0  0  0  0  0  0  0
    7.5232    4.5531   23.9180 C   0  0  0  0  0  0  0  0  0  0  0  0
    6.5302    4.2963   24.3027 H   0  0  0  0  0  0  0  0  0  0  0  0
    7.3833    4.7766   22.8506 H   0  0  0  0  0  0  0  0  0  0  0  0
    8.0945    5.7918   24.6355 C   0  0  0  0  0  0  0  0  0  0  0  0
    7.4116    6.6407   24.5247 H   0  0  0  0  0  0  0  0  0  0  0  0
    8.1397    5.5671   25.7085 H   0  0  0  0  0  0  0  0  0  0  0  0
    9.5116    6.1340   24.1407 C   0  0  0  0  0  0  0  0  0  0  0  0
    9.9568    6.9198   24.7634 H   0  0  0  0  0  0  0  0  0  0  0  0
    9.4693    6.5444   23.1231 H   0  0  0  0  0  0  0  0  0  0  0  0
   10.3901    4.8727   24.1751 C   0  0  0  0  0  0  0  0  0  0  0  0
   11.3921    5.0491   23.7686 H   0  0  0  0  0  0  0  0  0  0  0  0
   10.5260    4.5925   25.2222 H   0  0  0  0  0  0  0  0  0  0  0  0
    9.7143    3.6914   23.4638 C   0  0  0  0  0  0  0  0  0  0  0  0
    9.5792    3.9275   22.3994 H   0  0  0  0  0  0  0  0  0  0  0  0
   10.3412    2.7913   23.4867 H   0  0  0  0  0  0  0  0  0  0  0  0
    6.8187    0.8086   23.0468 N   0  0  0  0  0  0  0  0  0  0  0  0
    7.3053   -0.2781   22.3819 N   0  0  0  0  0  0  0  0  0  0  0  0
    5.4108    0.7142   20.1650 C   0  0  0  0  0  0  0  0  0  0  0  0
    4.9776    0.7413   21.1678 H   0  0  0  0  0  0  0  0  0  0  0  0
    4.7835    1.3243   19.0818 C   0  0  0  0  0  0  0  0  0  0  0  0
    3.8403    1.8441   19.1982 H   0  0  0  0  0  0  0  0  0  0  0  0
  1  2  1  0
  2  3  2  0
  3  4  1  0
  4  5  1  0
  4  6  2  0
  6  7  1  0
  7  8  2  0
  8  9  1  0
  8 10  1  0
 10 11  1  0
 11 12  2  0
 12 13  1  0
 13 14  1  0
 14 15  1  0
 14 16  1  0
 14 17  1  0
 17 18  1  0
 17 19  1  0
 17 20  1  0
 20 21  1  0
 21 22  1  0
 21 23  1  0
 21 24  1  0
 24 25  1  0
 24 26  1  0
 24 27  1  0
 27 28  1  0
 27 29  1  0
 27 30  1  0
 30 31  1  0
 30 32  1  0
 30 33  1  0
 33 34  1  0
 33 35  1  0
 13 36  2  0
 36 37  1  0
  6 38  1  0
 38 39  1  0
 38 40  2  0
 40 41  1  0
 40  2  1  0
 37  7  1  0
 37 11  1  0
 33 20  1  0
M  END
>  <cnnaffinity>  (1) 
-5.45434

>  <filename>  (1) 
c1cncc(-c2csc3nc(CCN4CCCCC4)nn23)c1

$$$$
