
     RDKit          3D

 43 46  0  0  0  0  0  0  0  0999 V2000
    4.9094    1.8169   16.9821 H   0  0  0  0  0  0  0  0  0  0  0  0
    5.3905    1.3119   17.8170 C   0  0  0  0  0  0  0  0  0  0  0  0
    6.5564    0.7027   17.5418 N   0  0  0  0  0  0  0  0  0  0  0  0
    7.1757    0.0752   18.5508 C   0  0  0  0  0  0  0  0  0  0  0  0
    8.1281   -0.3965   18.3089 H   0  0  0  0  0  0  0  0  0  0  0  0
    6.6785   -0.0281   19.8772 C   0  0  0  0  0  0  0  0  0  0  0  0
    7.3613   -0.7478   20.8788 N   0  0  0  0  0  0  0  0  0  0  0  0
    8.8125   -0.6152   20.9793 C   0  0  0  0  0  0  0  0  0  0  0  0
    9.0773    0.3696   20.5658 H   0  0  0  0  0  0  0  0  0  0  0  0
    9.3217   -1.3740   20.3601 H   0  0  0  0  0  0  0  0  0  0  0  0
    9.4139   -0.7542   22.4055 C   0  0  0  0  0  0  0  0  0  0  0  0
    9.3891   -1.8168   22.6755 H   0  0  0  0  0  0  0  0  0  0  0  0
   10.4778   -0.4928   22.3521 H   0  0  0  0  0  0  0  0  0  0  0  0
    8.7481   -0.0524   23.5156 N   0  0  0  0  0  0  0  0  0  0  0  0
    8.6262    1.3277   23.5292 C   0  0  0  0  0  0  0  0  0  0  0  0
    7.6046    1.8676   24.1658 N   0  0  0  0  0  0  0  0  0  0  0  0
    7.5505    3.2342   24.2335 C   0  0  0  0  0  0  0  0  0  0  0  0
    6.4525    3.8273   24.9168 C   0  0  0  0  0  0  0  0  0  0  0  0
    5.7074    3.1534   25.3261 H   0  0  0  0  0  0  0  0  0  0  0  0
    6.3618    5.1976   25.0487 C   0  0  0  0  0  0  0  0  0  0  0  0
    5.5240    5.6548   25.5715 H   0  0  0  0  0  0  0  0  0  0  0  0
    7.3681    6.0382   24.4972 C   0  0  0  0  0  0  0  0  0  0  0  0
    7.2826    7.1149   24.6007 H   0  0  0  0  0  0  0  0  0  0  0  0
    8.4405    5.4995   23.8248 C   0  0  0  0  0  0  0  0  0  0  0  0
    9.2162    6.1284   23.3903 H   0  0  0  0  0  0  0  0  0  0  0  0
    8.5522    4.0896   23.6750 C   0  0  0  0  0  0  0  0  0  0  0  0
    9.6317    3.4603   22.9879 C   0  0  0  0  0  0  0  0  0  0  0  0
   10.4180    4.0737   22.5512 H   0  0  0  0  0  0  0  0  0  0  0  0
    9.6662    2.0964   22.9074 C   0  0  0  0  0  0  0  0  0  0  0  0
   10.4448    1.5455   22.4037 H   0  0  0  0  0  0  0  0  0  0  0  0
    7.6875   -0.8544   24.1102 C   0  0  0  0  0  0  0  0  0  0  0  0
    7.3671   -0.3965   25.0518 H   0  0  0  0  0  0  0  0  0  0  0  0
    8.1187   -1.8387   24.3503 H   0  0  0  0  0  0  0  0  0  0  0  0
    6.4682   -1.0489   23.2229 C   0  0  0  0  0  0  0  0  0  0  0  0
    5.8371   -1.7533   23.7741 H   0  0  0  0  0  0  0  0  0  0  0  0
    5.9415   -0.0872   23.1533 H   0  0  0  0  0  0  0  0  0  0  0  0
    6.6666   -1.6191   21.8128 C   0  0  0  0  0  0  0  0  0  0  0  0
    7.2081   -2.5795   21.8696 H   0  0  0  0  0  0  0  0  0  0  0  0
    5.6809   -1.8474   21.3847 H   0  0  0  0  0  0  0  0  0  0  0  0
    5.4548    0.6265   20.1312 C   0  0  0  0  0  0  0  0  0  0  0  0
    5.0402    0.6016   21.1390 H   0  0  0  0  0  0  0  0  0  0  0  0
    4.8095    1.3087   19.0905 C   0  0  0  0  0  0  0  0  0  0  0  0
    3.8720    1.8373   19.2550 H   0  0  0  0  0  0  0  0  0  0  0  0
  1  2  1  0
  2  3  2  0
  3  4  1  0
  4  5  1  0
  4  6  2  0
  6  7  1  0
  7  8  1  0
  8  9  1  0
  8 10  1  0
  8 11  1  0
 11 12  1  0
 11 13  1  0
 11 14  1  0
 14 15  1  0
 15 16  2  0
 16 17  1  0
 17 18  2  0
 18 19  1  0
 18 20  1  0
 20 21  1  0
 20 22  2  0
 22 23  1  0
 22 24  1  0
 24 25  1  0
 24 26  2  0
 26 27  1  0
 27 28  1  0
 27 29  2  0
 29 30  1  0
 14 31  1  0
 31 32  1  0
 31 33  1  0
 31 34  1  0
 34 35  1  0
 34 36  1  0
 34 37  1  0
 37 38  1  0
 37 39  1  0
  6 40  1  0
 40 41  1  0
 40 42  2  0
 42 43  1  0
 42  2  1  0
 37  7  1  0
 29 15  1  0
 26 17  1  0
M  END
>  <cnnaffinity>  (1) 
-5.46866

>  <filename>  (1) 
c1cncc(N2CCCN(c3ccc4ccccc4n3)CC2)c1

$$$$
