
     RDKit          3D

 34 37  0  0  0  0  0  0  0  0999 V2000
    4.9562    1.8354   16.9486 H   0  0  0  0  0  0  0  0  0  0  0  0
    5.4053    1.3042   17.7875 C   0  0  0  0  0  0  0  0  0  0  0  0
    6.5477    0.6508   17.5298 N   0  0  0  0  0  0  0  0  0  0  0  0
    7.1336    0.0136   18.5495 C   0  0  0  0  0  0  0  0  0  0  0  0
    8.0536   -0.5169   18.3162 H   0  0  0  0  0  0  0  0  0  0  0  0
    6.6327    0.0179   19.8635 C   0  0  0  0  0  0  0  0  0  0  0  0
    7.3906   -0.6191   20.9446 C   0  0  0  0  0  0  0  0  0  0  0  0
    8.0919   -1.7364   20.7522 N   0  0  0  0  0  0  0  0  0  0  0  0
    8.6263   -1.9681   21.9504 N   0  0  0  0  0  0  0  0  0  0  0  0
    8.3649   -1.0633   22.8994 C   0  0  0  0  0  0  0  0  0  0  0  0
    7.5228   -0.1434   22.2997 C   0  0  0  0  0  0  0  0  0  0  0  0
    6.8576    0.9486   22.8793 N   0  0  0  0  0  0  0  0  0  0  0  0
    6.9515    1.7957   22.3253 H   0  0  0  0  0  0  0  0  0  0  0  0
    7.0362    1.1787   24.2764 C   0  0  0  0  0  0  0  0  0  0  0  0
    8.0563    1.3828   24.6249 H   0  0  0  0  0  0  0  0  0  0  0  0
    5.8774    1.8539   24.9322 C   0  0  0  0  0  0  0  0  0  0  0  0
    6.0677    2.5367   25.7527 H   0  0  0  0  0  0  0  0  0  0  0  0
    5.0528    2.1372   24.2822 H   0  0  0  0  0  0  0  0  0  0  0  0
    6.1174    0.3873   25.1542 C   0  0  0  0  0  0  0  0  0  0  0  0
    6.4922    0.0764   26.1266 H   0  0  0  0  0  0  0  0  0  0  0  0
    5.4680   -0.3144   24.6376 H   0  0  0  0  0  0  0  0  0  0  0  0
    9.1436   -1.3939   24.1526 C   0  0  0  0  0  0  0  0  0  0  0  0
    8.4653   -1.5792   24.9928 H   0  0  0  0  0  0  0  0  0  0  0  0
    9.8285   -0.5874   24.4386 H   0  0  0  0  0  0  0  0  0  0  0  0
    9.9425   -2.6708   23.7561 C   0  0  0  0  0  0  0  0  0  0  0  0
    9.7385   -3.4996   24.4348 H   0  0  0  0  0  0  0  0  0  0  0  0
   11.0134   -2.4924   23.7776 H   0  0  0  0  0  0  0  0  0  0  0  0
    9.5478   -3.0091   22.2978 C   0  0  0  0  0  0  0  0  0  0  0  0
    9.0625   -3.9814   22.1938 H   0  0  0  0  0  0  0  0  0  0  0  0
   10.4011   -2.9286   21.6246 H   0  0  0  0  0  0  0  0  0  0  0  0
    5.4154    0.6750   20.1093 C   0  0  0  0  0  0  0  0  0  0  0  0
    4.9824    0.6718   21.1114 H   0  0  0  0  0  0  0  0  0  0  0  0
    4.7917    1.3235   19.0437 C   0  0  0  0  0  0  0  0  0  0  0  0
    3.8592    1.8568   19.1788 H   0  0  0  0  0  0  0  0  0  0  0  0
  1  2  1  0
  2  3  2  0
  3  4  1  0
  4  5  1  0
  4  6  2  0
  6  7  1  0
  7  8  2  0
  8  9  1  0
  9 10  1  0
 10 11  2  0
 11 12  1  0
 12 13  1  0
 12 14  1  0
 14 15  1  0
 14 16  1  0
 16 17  1  0
 16 18  1  0
 16 19  1  0
 19 20  1  0
 19 21  1  0
 10 22  1  0
 22 23  1  0
 22 24  1  0
 22 25  1  0
 25 26  1  0
 25 27  1  0
 25 28  1  0
 28 29  1  0
 28 30  1  0
  6 31  1  0
 31 32  1  0
 31 33  2  0
 33 34  1  0
 33  2  1  0
 11  7  1  0
 19 14  1  0
 28  9  1  0
M  END
>  <cnnaffinity>  (1) 
-5.15352

>  <filename>  (1) 
c1cncc(-c2nn3c(c2NC2CC2)CCC3)c1

$$$$
