
     RDKit          3D

 31 34  0  0  0  0  0  0  0  0999 V2000
    4.9999    1.8214   16.8921 H   0  0  0  0  0  0  0  0  0  0  0  0
    5.4373    1.2896   17.7337 C   0  0  0  0  0  0  0  0  0  0  0  0
    6.5791    0.6311   17.4889 N   0  0  0  0  0  0  0  0  0  0  0  0
    7.1546   -0.0197   18.5056 C   0  0  0  0  0  0  0  0  0  0  0  0
    8.0831   -0.5358   18.2720 H   0  0  0  0  0  0  0  0  0  0  0  0
    6.6287   -0.0402   19.8128 C   0  0  0  0  0  0  0  0  0  0  0  0
    7.3806   -0.6471   20.9274 C   0  0  0  0  0  0  0  0  0  0  0  0
    8.5205   -1.3237   20.7134 N   0  0  0  0  0  0  0  0  0  0  0  0
    8.9406   -1.6015   21.9634 N   0  0  0  0  0  0  0  0  0  0  0  0
   10.0643   -2.2251   22.4897 C   0  0  0  0  0  0  0  0  0  0  0  0
   10.7805   -2.7036   21.8431 H   0  0  0  0  0  0  0  0  0  0  0  0
    9.9363   -2.1128   23.8365 C   0  0  0  0  0  0  0  0  0  0  0  0
   10.5358   -2.4743   24.6511 H   0  0  0  0  0  0  0  0  0  0  0  0
    8.7702   -1.4327   24.1331 N   0  0  0  0  0  0  0  0  0  0  0  0
    8.3304   -1.3055   25.4599 N   0  0  0  0  0  0  0  0  0  0  0  0
    9.0574   -0.8491   26.0016 H   0  0  0  0  0  0  0  0  0  0  0  0
    7.0988   -0.5644   25.6423 C   0  0  0  0  0  0  0  0  0  0  0  0
    7.0803    0.4738   25.2953 H   0  0  0  0  0  0  0  0  0  0  0  0
    6.3368   -0.9317   26.8743 C   0  0  0  0  0  0  0  0  0  0  0  0
    5.7557   -0.1691   27.3906 H   0  0  0  0  0  0  0  0  0  0  0  0
    6.8230   -1.6441   27.5344 H   0  0  0  0  0  0  0  0  0  0  0  0
    5.8663   -1.4031   25.5257 C   0  0  0  0  0  0  0  0  0  0  0  0
    6.0457   -2.4391   25.2598 H   0  0  0  0  0  0  0  0  0  0  0  0
    4.9580   -0.9806   25.1046 H   0  0  0  0  0  0  0  0  0  0  0  0
    8.1365   -1.1392   22.9424 C   0  0  0  0  0  0  0  0  0  0  0  0
    7.0607   -0.5217   22.3029 C   0  0  0  0  0  0  0  0  0  0  0  0
    6.1904   -0.0923   22.7662 H   0  0  0  0  0  0  0  0  0  0  0  0
    5.4092    0.6205   20.0340 C   0  0  0  0  0  0  0  0  0  0  0  0
    4.9397    0.6055   21.0188 H   0  0  0  0  0  0  0  0  0  0  0  0
    4.8072    1.3049   18.9823 C   0  0  0  0  0  0  0  0  0  0  0  0
    3.8800    1.8523   19.1161 H   0  0  0  0  0  0  0  0  0  0  0  0
  1  2  1  0
  2  3  2  0
  3  4  1  0
  4  5  1  0
  4  6  2  0
  6  7  1  0
  7  8  2  0
  8  9  1  0
  9 10  1  0
 10 11  1  0
 10 12  2  0
 12 13  1  0
 12 14  1  0
 14 15  1  0
 15 16  1  0
 15 17  1  0
 17 18  1  0
 17 19  1  0
 19 20  1  0
 19 21  1  0
 19 22  1  0
 22 23  1  0
 22 24  1  0
 14 25  1  0
 25 26  2  0
 26 27  1  0
  6 28  1  0
 28 29  1  0
 28 30  2  0
 30 31  1  0
 30  2  1  0
 26  7  1  0
 25  9  1  0
 22 17  1  0
M  END
>  <cnnaffinity>  (1) 
-5.06125

>  <filename>  (1) 
c1cncc(-c2cc3n(NC4CC4)ccn3n2)c1

$$$$
