
     RDKit          3D

 39 41  0  0  0  0  0  0  0  0999 V2000
    4.9527    1.7769   16.9984 H   0  0  0  0  0  0  0  0  0  0  0  0
    5.4210    1.2754   17.8433 C   0  0  0  0  0  0  0  0  0  0  0  0
    6.5840    0.6565   17.5906 N   0  0  0  0  0  0  0  0  0  0  0  0
    7.2021    0.0586   18.6140 C   0  0  0  0  0  0  0  0  0  0  0  0
    8.1518   -0.4174   18.3819 H   0  0  0  0  0  0  0  0  0  0  0  0
    6.6866    0.0133   19.9160 C   0  0  0  0  0  0  0  0  0  0  0  0
    7.4332   -0.7216   20.9631 C   0  0  0  0  0  0  0  0  0  0  0  0
    8.7732   -0.7185   20.8803 N   0  0  0  0  0  0  0  0  0  0  0  0
    9.4656   -1.3337   21.8498 C   0  0  0  0  0  0  0  0  0  0  0  0
   10.9718   -1.2593   21.7876 C   0  0  0  0  0  0  0  0  0  0  0  0
   11.3787   -2.2456   22.0514 H   0  0  0  0  0  0  0  0  0  0  0  0
   11.2658   -1.0349   20.7576 H   0  0  0  0  0  0  0  0  0  0  0  0
   11.5820   -0.2024   22.7333 C   0  0  0  0  0  0  0  0  0  0  0  0
   11.2371   -0.4069   23.7654 H   0  0  0  0  0  0  0  0  0  0  0  0
   11.1359    1.2283   22.3618 C   0  0  0  0  0  0  0  0  0  0  0  0
   11.4476    1.4167   21.3194 H   0  0  0  0  0  0  0  0  0  0  0  0
   10.0393    1.3007   22.3611 H   0  0  0  0  0  0  0  0  0  0  0  0
   11.7642    2.2900   23.2846 C   0  0  0  0  0  0  0  0  0  0  0  0
   11.3634    2.1657   24.3041 H   0  0  0  0  0  0  0  0  0  0  0  0
   11.4693    3.2968   22.9573 H   0  0  0  0  0  0  0  0  0  0  0  0
   13.2971    2.1560   23.3138 C   0  0  0  0  0  0  0  0  0  0  0  0
   13.6876    2.3727   22.3123 H   0  0  0  0  0  0  0  0  0  0  0  0
   13.7526    2.9180   23.9494 H   0  0  0  0  0  0  0  0  0  0  0  0
   13.7296    0.7325   23.7095 C   0  0  0  0  0  0  0  0  0  0  0  0
   13.3991    0.5140   24.7375 H   0  0  0  0  0  0  0  0  0  0  0  0
   14.8159    0.6344   23.7057 H   0  0  0  0  0  0  0  0  0  0  0  0
   13.1190   -0.2780   22.7276 C   0  0  0  0  0  0  0  0  0  0  0  0
   13.4614   -1.3049   22.9003 H   0  0  0  0  0  0  0  0  0  0  0  0
   13.4857   -0.0356   21.7218 H   0  0  0  0  0  0  0  0  0  0  0  0
    8.8494   -2.0064   22.9169 C   0  0  0  0  0  0  0  0  0  0  0  0
    9.4844   -2.4742   23.6648 H   0  0  0  0  0  0  0  0  0  0  0  0
    7.4568   -2.0485   22.9799 C   0  0  0  0  0  0  0  0  0  0  0  0
    6.9423   -2.5544   23.7954 H   0  0  0  0  0  0  0  0  0  0  0  0
    6.7429   -1.4032   21.9710 C   0  0  0  0  0  0  0  0  0  0  0  0
    5.6651   -1.4266   21.9041 H   0  0  0  0  0  0  0  0  0  0  0  0
    5.4583    0.6558   20.1624 C   0  0  0  0  0  0  0  0  0  0  0  0
    5.0048    0.6681   21.1564 H   0  0  0  0  0  0  0  0  0  0  0  0
    4.8211    1.3036   19.1060 C   0  0  0  0  0  0  0  0  0  0  0  0
    3.8814    1.8314   19.2468 H   0  0  0  0  0  0  0  0  0  0  0  0
  1  2  1  0
  2  3  2  0
  3  4  1  0
  4  5  1  0
  4  6  2  0
  6  7  1  0
  7  8  2  0
  8  9  1  0
  9 10  1  0
 10 11  1  0
 10 12  1  0
 10 13  1  0
 13 14  1  0
 13 15  1  0
 15 16  1  0
 15 17  1  0
 15 18  1  0
 18 19  1  0
 18 20  1  0
 18 21  1  0
 21 22  1  0
 21 23  1  0
 21 24  1  0
 24 25  1  0
 24 26  1  0
 24 27  1  0
 27 28  1  0
 27 29  1  0
  9 30  2  0
 30 31  1  0
 30 32  1  0
 32 33  1  0
 32 34  2  0
 34 35  1  0
  6 36  1  0
 36 37  1  0
 36 38  2  0
 38 39  1  0
 38  2  1  0
 34  7  1  0
 27 13  1  0
M  END
>  <cnnaffinity>  (1) 
-5.46081

>  <filename>  (1) 
c1cncc(-c2cccc(CC3CCCCC3)n2)c1

$$$$
