
     RDKit          3D

 36 39  0  0  0  0  0  0  0  0999 V2000
    4.8243    2.1108   16.6959 H   0  0  0  0  0  0  0  0  0  0  0  0
    5.1925    1.5511   17.5511 C   0  0  0  0  0  0  0  0  0  0  0  0
    6.3771    0.9445   17.3821 N   0  0  0  0  0  0  0  0  0  0  0  0
    6.9078    0.3361   18.4454 C   0  0  0  0  0  0  0  0  0  0  0  0
    7.8627   -0.1656   18.2706 H   0  0  0  0  0  0  0  0  0  0  0  0
    6.3086    0.2898   19.7133 C   0  0  0  0  0  0  0  0  0  0  0  0
    7.1283   -0.1745   20.8913 C   0  0  0  0  0  0  0  0  0  0  0  0
    7.7756    1.0102   21.4275 N   0  0  0  0  0  0  0  0  0  0  0  0
    7.9836    1.6870   20.7080 H   0  0  0  0  0  0  0  0  0  0  0  0
    8.9464    0.9592   22.1335 C   0  0  0  0  0  0  0  0  0  0  0  0
    9.9944    1.6276   21.7597 N   0  0  0  0  0  0  0  0  0  0  0  0
   10.9467    1.3227   22.7246 C   0  0  0  0  0  0  0  0  0  0  0  0
   12.2905    1.7059   22.8003 C   0  0  0  0  0  0  0  0  0  0  0  0
   12.6925    2.3709   22.0439 H   0  0  0  0  0  0  0  0  0  0  0  0
   13.0590    1.2233   23.8591 C   0  0  0  0  0  0  0  0  0  0  0  0
   14.1160    1.4646   23.8876 H   0  0  0  0  0  0  0  0  0  0  0  0
   12.4849    0.4073   24.8579 C   0  0  0  0  0  0  0  0  0  0  0  0
   13.1000    0.1064   25.6990 H   0  0  0  0  0  0  0  0  0  0  0  0
   11.1433    0.0209   24.8050 C   0  0  0  0  0  0  0  0  0  0  0  0
   10.6952   -0.5940   25.5803 H   0  0  0  0  0  0  0  0  0  0  0  0
   10.3980    0.4734   23.7106 C   0  0  0  0  0  0  0  0  0  0  0  0
    9.0876    0.2697   23.2926 N   0  0  0  0  0  0  0  0  0  0  0  0
    8.4196   -0.4058   23.6059 H   0  0  0  0  0  0  0  0  0  0  0  0
    6.4065   -1.0061   21.9653 C   0  0  0  0  0  0  0  0  0  0  0  0
    5.4306   -1.3243   21.5987 H   0  0  0  0  0  0  0  0  0  0  0  0
    6.2917   -0.5038   22.9286 H   0  0  0  0  0  0  0  0  0  0  0  0
    7.4404   -2.1463   21.8285 C   0  0  0  0  0  0  0  0  0  0  0  0
    8.1263   -2.2535   22.6725 H   0  0  0  0  0  0  0  0  0  0  0  0
    7.0123   -3.1325   21.6223 H   0  0  0  0  0  0  0  0  0  0  0  0
    8.0387   -1.4032   20.6079 C   0  0  0  0  0  0  0  0  0  0  0  0
    9.1180   -1.2154   20.5974 H   0  0  0  0  0  0  0  0  0  0  0  0
    7.7174   -1.8424   19.6684 H   0  0  0  0  0  0  0  0  0  0  0  0
    5.0231    0.8311   19.8391 C   0  0  0  0  0  0  0  0  0  0  0  0
    4.4824    0.7597   20.7845 H   0  0  0  0  0  0  0  0  0  0  0  0
    4.4606    1.4820   18.7403 C   0  0  0  0  0  0  0  0  0  0  0  0
    3.5030    1.9828   18.8057 H   0  0  0  0  0  0  0  0  0  0  0  0
  1  2  1  0
  2  3  2  0
  3  4  1  0
  4  5  1  0
  4  6  2  0
  6  7  1  0
  7  8  1  0
  8  9  1  0
  8 10  1  0
 10 11  2  0
 11 12  1  0
 12 13  2  0
 13 14  1  0
 13 15  1  0
 15 16  1  0
 15 17  2  0
 17 18  1  0
 17 19  1  0
 19 20  1  0
 19 21  2  0
 21 22  1  0
 22 23  1  0
  7 24  1  0
 24 25  1  0
 24 26  1  0
 24 27  1  0
 27 28  1  0
 27 29  1  0
 27 30  1  0
 30 31  1  0
 30 32  1  0
  6 33  1  0
 33 34  1  0
 33 35  2  0
 35 36  1  0
 35  2  1  0
 30  7  1  0
 22 10  1  0
 21 12  1  0
M  END
>  <cnnaffinity>  (1) 
-5.56603

>  <filename>  (1) 
c1cncc(C2(Nc3nc4ccccc4[nH]3)CCC2)c1

$$$$
