
     RDKit          3D

 33 36  0  0  0  0  0  0  0  0999 V2000
    4.9664    1.8492   16.9253 H   0  0  0  0  0  0  0  0  0  0  0  0
    5.4104    1.2984   17.7564 C   0  0  0  0  0  0  0  0  0  0  0  0
    6.5599    0.6516   17.5008 N   0  0  0  0  0  0  0  0  0  0  0  0
    7.1441    0.0009   18.5129 C   0  0  0  0  0  0  0  0  0  0  0  0
    8.0841   -0.4950   18.2788 H   0  0  0  0  0  0  0  0  0  0  0  0
    6.6177   -0.0494   19.8191 C   0  0  0  0  0  0  0  0  0  0  0  0
    7.3657   -0.6561   20.9326 C   0  0  0  0  0  0  0  0  0  0  0  0
    8.5050   -1.3349   20.7238 N   0  0  0  0  0  0  0  0  0  0  0  0
    8.9368   -1.5794   21.9812 N   0  0  0  0  0  0  0  0  0  0  0  0
   10.0976   -2.1110   22.5244 C   0  0  0  0  0  0  0  0  0  0  0  0
   10.8465   -2.5427   21.8857 H   0  0  0  0  0  0  0  0  0  0  0  0
   10.0140   -1.9039   23.8618 C   0  0  0  0  0  0  0  0  0  0  0  0
   10.6945   -2.1168   24.6704 H   0  0  0  0  0  0  0  0  0  0  0  0
    8.8172   -1.2624   24.1381 N   0  0  0  0  0  0  0  0  0  0  0  0
    8.4703   -0.8589   25.4203 N   0  0  0  0  0  0  0  0  0  0  0  0
    8.9654   -0.0070   25.6595 H   0  0  0  0  0  0  0  0  0  0  0  0
    7.0974   -0.6670   25.7511 C   0  0  0  0  0  0  0  0  0  0  0  0
    6.0514   -1.5601   25.4246 C   0  0  0  0  0  0  0  0  0  0  0  0
    6.2657   -2.4258   24.8018 H   0  0  0  0  0  0  0  0  0  0  0  0
    4.7821   -1.3980   25.8385 N   0  0  0  0  0  0  0  0  0  0  0  0
    4.4952   -0.3140   26.5727 C   0  0  0  0  0  0  0  0  0  0  0  0
    3.4667   -0.2208   26.9212 H   0  0  0  0  0  0  0  0  0  0  0  0
    5.4538    0.6509   26.9094 C   0  0  0  0  0  0  0  0  0  0  0  0
    5.1661    1.5181   27.4908 H   0  0  0  0  0  0  0  0  0  0  0  0
    6.7756    0.4735   26.4955 C   0  0  0  0  0  0  0  0  0  0  0  0
    7.5435    1.2187   26.7243 H   0  0  0  0  0  0  0  0  0  0  0  0
    8.1550   -1.0580   22.9447 C   0  0  0  0  0  0  0  0  0  0  0  0
    7.0657   -0.4791   22.3052 C   0  0  0  0  0  0  0  0  0  0  0  0
    6.1925   -0.0311   22.7460 H   0  0  0  0  0  0  0  0  0  0  0  0
    5.4001    0.6081   20.0567 C   0  0  0  0  0  0  0  0  0  0  0  0
    4.9489    0.6114   21.0511 H   0  0  0  0  0  0  0  0  0  0  0  0
    4.7915    1.2939   19.0120 C   0  0  0  0  0  0  0  0  0  0  0  0
    3.8758    1.8566   19.1677 H   0  0  0  0  0  0  0  0  0  0  0  0
  1  2  1  0
  2  3  2  0
  3  4  1  0
  4  5  1  0
  4  6  2  0
  6  7  1  0
  7  8  2  0
  8  9  1  0
  9 10  1  0
 10 11  1  0
 10 12  2  0
 12 13  1  0
 12 14  1  0
 14 15  1  0
 15 16  1  0
 15 17  1  0
 17 18  2  0
 18 19  1  0
 18 20  1  0
 20 21  2  0
 21 22  1  0
 21 23  1  0
 23 24  1  0
 23 25  2  0
 25 26  1  0
 14 27  1  0
 27 28  2  0
 28 29  1  0
  6 30  1  0
 30 31  1  0
 30 32  2  0
 32 33  1  0
 32  2  1  0
 28  7  1  0
 27  9  1  0
 25 17  1  0
M  END
>  <cnnaffinity>  (1) 
-5.66568

>  <filename>  (1) 
c1cncc(Nn2ccn3nc(-c4cccnc4)cc23)c1

$$$$
