
     RDKit          3D

 26 29  0  0  0  0  0  0  0  0999 V2000
    4.9181    1.7769   17.0007 H   0  0  0  0  0  0  0  0  0  0  0  0
    5.4042    1.2902   17.8415 C   0  0  0  0  0  0  0  0  0  0  0  0
    6.5691    0.6777   17.5755 N   0  0  0  0  0  0  0  0  0  0  0  0
    7.1739    0.0560   18.5885 C   0  0  0  0  0  0  0  0  0  0  0  0
    8.1227   -0.4337   18.3728 H   0  0  0  0  0  0  0  0  0  0  0  0
    6.6475    0.0101   19.8907 C   0  0  0  0  0  0  0  0  0  0  0  0
    7.4052   -0.7027   20.9135 C   0  0  0  0  0  0  0  0  0  0  0  0
    8.3301   -1.6055   20.6982 N   0  0  0  0  0  0  0  0  0  0  0  0
    8.8285   -2.0391   21.9052 N   0  0  0  0  0  0  0  0  0  0  0  0
    8.1977   -1.3555   22.8202 C   0  0  0  0  0  0  0  0  0  0  0  0
    8.2549   -1.0986   24.5389 S   0  0  0  0  0  0  0  0  0  0  0  0
    7.0323    0.1623   24.3059 C   0  0  0  0  0  0  0  0  0  0  0  0
    6.5600    0.9228   25.4404 C   0  0  0  0  0  0  0  0  0  0  0  0
    5.6314    1.9146   25.3797 C   0  0  0  0  0  0  0  0  0  0  0  0
    5.0686    2.3403   24.5568 H   0  0  0  0  0  0  0  0  0  0  0  0
    5.4205    2.4165   26.6141 O   0  0  0  0  0  0  0  0  0  0  0  0
    6.2281    1.7366   27.4791 C   0  0  0  0  0  0  0  0  0  0  0  0
    6.1813    2.0186   28.5214 H   0  0  0  0  0  0  0  0  0  0  0  0
    6.9525    0.8071   26.8223 C   0  0  0  0  0  0  0  0  0  0  0  0
    7.6753    0.1246   27.2490 H   0  0  0  0  0  0  0  0  0  0  0  0
    6.6133    0.3569   23.0944 N   0  0  0  0  0  0  0  0  0  0  0  0
    7.2706   -0.5169   22.2747 N   0  0  0  0  0  0  0  0  0  0  0  0
    5.4314    0.6526   20.1622 C   0  0  0  0  0  0  0  0  0  0  0  0
    5.0100    0.6383   21.1713 H   0  0  0  0  0  0  0  0  0  0  0  0
    4.8047    1.3080   19.1076 C   0  0  0  0  0  0  0  0  0  0  0  0
    3.8742    1.8434   19.2601 H   0  0  0  0  0  0  0  0  0  0  0  0
  1  2  1  0
  2  3  2  0
  3  4  1  0
  4  5  1  0
  4  6  2  0
  6  7  1  0
  7  8  2  0
  8  9  1  0
  9 10  2  0
 10 11  1  0
 11 12  1  0
 12 13  1  0
 13 14  2  0
 14 15  1  0
 14 16  1  0
 16 17  1  0
 17 18  1  0
 17 19  2  0
 19 20  1  0
 12 21  2  0
 21 22  1  0
  6 23  1  0
 23 24  1  0
 23 25  2  0
 25 26  1  0
 25  2  1  0
 22  7  1  0
 22 10  1  0
 19 13  1  0
M  END
>  <cnnaffinity>  (1) 
-4.96315

>  <filename>  (1) 
c1cncc(-c2nnc3sc(-c4ccoc4)nn23)c1

$$$$
