
     RDKit          3D

 30 33  0  0  0  0  0  0  0  0999 V2000
    4.9977    1.8277   16.9289 H   0  0  0  0  0  0  0  0  0  0  0  0
    5.4378    1.3028   17.7741 C   0  0  0  0  0  0  0  0  0  0  0  0
    6.5870    0.6513   17.5338 N   0  0  0  0  0  0  0  0  0  0  0  0
    7.1666    0.0278   18.5614 C   0  0  0  0  0  0  0  0  0  0  0  0
    8.0943   -0.4950   18.3262 H   0  0  0  0  0  0  0  0  0  0  0  0
    6.6469    0.0143   19.8594 C   0  0  0  0  0  0  0  0  0  0  0  0
    7.3622   -0.6477   20.9500 C   0  0  0  0  0  0  0  0  0  0  0  0
    6.8642   -0.8892   22.1361 N   0  0  0  0  0  0  0  0  0  0  0  0
    7.8792   -1.4947   22.8125 C   0  0  0  0  0  0  0  0  0  0  0  0
    7.6413   -1.9764   24.1784 C   0  0  0  0  0  0  0  0  0  0  0  0
    8.6470   -2.5841   24.8870 O   0  0  0  0  0  0  0  0  0  0  0  0
    8.0501   -3.1014   25.9975 C   0  0  0  0  0  0  0  0  0  0  0  0
    8.7271   -3.9870   26.9309 C   0  0  0  0  0  0  0  0  0  0  0  0
    9.7964   -4.1645   26.7845 H   0  0  0  0  0  0  0  0  0  0  0  0
    8.0504   -4.5561   27.9206 C   0  0  0  0  0  0  0  0  0  0  0  0
    8.4117   -5.3602   28.5633 H   0  0  0  0  0  0  0  0  0  0  0  0
    5.6109   -5.1756   26.4698 C   0  0  0  0  0  0  0  0  0  0  0  0
    6.5241   -3.7424   27.9924 H   0  0  0  0  0  0  0  0  0  0  0  0
    5.8600   -3.5871   27.0575 C   0  0  0  0  0  0  0  0  0  0  0  0
    4.9043   -3.0358   27.2647 H   0  0  0  0  0  0  0  0  0  0  0  0
    6.7350   -2.7457   26.0625 C   0  0  0  0  0  0  0  0  0  0  0  0
    6.4617   -2.0278   24.8762 C   0  0  0  0  0  0  0  0  0  0  0  0
    5.5386   -1.5883   24.5147 H   0  0  0  0  0  0  0  0  0  0  0  0
    8.9898   -1.6371   22.0946 N   0  0  0  0  0  0  0  0  0  0  0  0
    8.6382   -1.0978   20.9100 N   0  0  0  0  0  0  0  0  0  0  0  0
    9.3116   -1.0454   20.1611 H   0  0  0  0  0  0  0  0  0  0  0  0
    5.4240    0.6672   20.0918 C   0  0  0  0  0  0  0  0  0  0  0  0
    4.9786    0.6553   21.0879 H   0  0  0  0  0  0  0  0  0  0  0  0
    4.8183    1.3271   19.0282 C   0  0  0  0  0  0  0  0  0  0  0  0
    3.8941    1.8756   19.1616 H   0  0  0  0  0  0  0  0  0  0  0  0
  1  2  1  0
  2  3  2  0
  3  4  1  0
  4  5  1  0
  4  6  2  0
  6  7  1  0
  7  8  2  0
  8  9  1  0
  9 10  1  0
 10 11  1  0
 11 12  1  0
 12 13  2  0
 13 14  1  0
 13 15  1  0
 15 16  1  0
 15 17  2  0
 17 18  1  0
 17 19  1  0
 19 20  1  0
 19 21  2  0
 21 22  1  0
 22 23  1  0
  9 24  2  0
 24 25  1  0
 25 26  1  0
  6 27  1  0
 27 28  1  0
 27 29  2  0
 29 30  1  0
 29  2  1  0
 25  7  1  0
 22 10  2  0
 21 12  1  0
M  END
>  <cnnaffinity>  (1) 
-4.97144

>  <filename>  (1) 
c1cncc(-c2nc(-c3cc4ccccc4o3)n[nH]2)c1

$$$$
