
     RDKit          3D

 34 36  0  0  0  0  0  0  0  0999 V2000
    4.9115    1.7915   16.9874 H   0  0  0  0  0  0  0  0  0  0  0  0
    5.3902    1.3015   17.8308 C   0  0  0  0  0  0  0  0  0  0  0  0
    6.5549    0.6903   17.5639 N   0  0  0  0  0  0  0  0  0  0  0  0
    7.1742    0.0785   18.5801 C   0  0  0  0  0  0  0  0  0  0  0  0
    8.1156   -0.4234   18.3609 H   0  0  0  0  0  0  0  0  0  0  0  0
    6.6728    0.0003   19.9009 C   0  0  0  0  0  0  0  0  0  0  0  0
    7.3815   -0.7421   20.8686 N   0  0  0  0  0  0  0  0  0  0  0  0
    6.6431   -1.5588   21.8331 C   0  0  0  0  0  0  0  0  0  0  0  0
    5.7858   -2.0009   21.3097 H   0  0  0  0  0  0  0  0  0  0  0  0
    6.2466   -0.9924   22.6969 H   0  0  0  0  0  0  0  0  0  0  0  0
    7.5549   -2.6782   22.3490 C   0  0  0  0  0  0  0  0  0  0  0  0
    7.7666   -3.3726   21.5194 H   0  0  0  0  0  0  0  0  0  0  0  0
    7.0676   -3.2306   23.1570 H   0  0  0  0  0  0  0  0  0  0  0  0
    8.7739   -2.1611   22.8685 O   0  0  0  0  0  0  0  0  0  0  0  0
    9.4887   -1.4666   21.8517 C   0  0  0  0  0  0  0  0  0  0  0  0
    9.6992   -2.1434   21.0092 H   0  0  0  0  0  0  0  0  0  0  0  0
   10.4378   -1.1472   22.2910 H   0  0  0  0  0  0  0  0  0  0  0  0
    8.7008   -0.2589   21.3115 C   0  0  2  0  0  0  0  0  0  0  0  0
    9.2176    0.1141   20.4205 H   0  0  0  0  0  0  0  0  0  0  0  0
    8.6258    0.9125   22.3307 C   0  0  0  0  0  0  0  0  0  0  0  0
    8.2141    0.5235   23.2693 H   0  0  0  0  0  0  0  0  0  0  0  0
    7.9184    1.6596   21.9467 H   0  0  0  0  0  0  0  0  0  0  0  0
    9.9688    1.5328   22.6082 C   0  0  0  0  0  0  0  0  0  0  0  0
   10.7331    2.5760   21.4677 S   0  0  0  0  0  0  0  0  0  0  0  0
   12.1174    2.7807   22.4653 C   0  0  0  0  0  0  0  0  0  0  0  0
   12.9156    3.4332   22.1405 H   0  0  0  0  0  0  0  0  0  0  0  0
   12.0219    2.0501   23.6076 C   0  0  0  0  0  0  0  0  0  0  0  0
   12.7949    2.0086   24.3660 H   0  0  0  0  0  0  0  0  0  0  0  0
   10.7864    1.3313   23.6823 C   0  0  0  0  0  0  0  0  0  0  0  0
   10.5146    0.6671   24.4939 H   0  0  0  0  0  0  0  0  0  0  0  0
    5.4470    0.6476   20.1563 C   0  0  0  0  0  0  0  0  0  0  0  0
    5.0263    0.6177   21.1627 H   0  0  0  0  0  0  0  0  0  0  0  0
    4.8106    1.3128   19.1022 C   0  0  0  0  0  0  0  0  0  0  0  0
    3.8793    1.8383   19.2551 H   0  0  0  0  0  0  0  0  0  0  0  0
  1  2  1  0
  2  3  2  0
  3  4  1  0
  4  5  1  0
  4  6  2  0
  6  7  1  0
  7  8  1  0
  8  9  1  0
  8 10  1  0
  8 11  1  0
 11 12  1  0
 11 13  1  0
 11 14  1  0
 14 15  1  0
 15 16  1  0
 15 17  1  0
 15 18  1  0
 18 19  1  6
 18 20  1  0
 20 21  1  0
 20 22  1  0
 20 23  1  0
 23 24  1  0
 24 25  1  0
 25 26  1  0
 25 27  2  0
 27 28  1  0
 27 29  1  0
 29 30  1  0
  6 31  1  0
 31 32  1  0
 31 33  2  0
 33 34  1  0
 33  2  1  0
 18  7  1  0
 29 23  2  0
M  END
>  <cnnaffinity>  (1) 
-5.22859

>  <filename>  (1) 
c1cncc(N2CCOC[C@@H]2Cc2cccs2)c1

$$$$
