
     RDKit          3D

 37 40  0  0  0  0  0  0  0  0999 V2000
    5.8980    1.5021   16.9073 H   0  0  0  0  0  0  0  0  0  0  0  0
    6.1425    0.9186   17.7938 C   0  0  0  0  0  0  0  0  0  0  0  0
    7.3352    0.3078   17.7870 N   0  0  0  0  0  0  0  0  0  0  0  0
    7.6620   -0.4040   18.8723 C   0  0  0  0  0  0  0  0  0  0  0  0
    8.6401   -0.8842   18.8419 H   0  0  0  0  0  0  0  0  0  0  0  0
    6.8398   -0.5475   20.0003 C   0  0  0  0  0  0  0  0  0  0  0  0
    7.3133   -1.3186   21.1458 C   0  0  0  0  0  0  0  0  0  0  0  0
    6.5370   -2.2916   21.7258 N   0  0  0  0  0  0  0  0  0  0  0  0
    7.2980   -2.7847   22.6659 C   0  0  0  0  0  0  0  0  0  0  0  0
    7.1827   -4.0854   23.8269 S   0  0  0  0  0  0  0  0  0  0  0  0
    8.8202   -3.7451   24.3715 C   0  0  0  0  0  0  0  0  0  0  0  0
    9.2592   -4.3514   25.1547 H   0  0  0  0  0  0  0  0  0  0  0  0
    9.3730   -2.7135   23.7118 C   0  0  0  0  0  0  0  0  0  0  0  0
   10.3510   -2.2708   23.8456 H   0  0  0  0  0  0  0  0  0  0  0  0
    8.5218   -2.1708   22.7566 N   0  0  0  0  0  0  0  0  0  0  0  0
    8.5461   -1.2038   21.7690 C   0  0  0  0  0  0  0  0  0  0  0  0
    9.6447   -0.1868   21.5711 C   0  0  0  0  0  0  0  0  0  0  0  0
   10.5793   -0.7456   21.3939 H   0  0  0  0  0  0  0  0  0  0  0  0
    9.4433    0.3293   20.6223 H   0  0  0  0  0  0  0  0  0  0  0  0
    9.8603    0.8805   22.6198 N   0  0  0  0  0  0  0  0  0  0  0  0
   11.1945    0.7005   23.2918 C   0  0  0  0  0  0  0  0  0  0  0  0
   11.1102    0.9177   24.3776 H   0  0  0  0  0  0  0  0  0  0  0  0
   11.5375   -0.3484   23.2274 H   0  0  0  0  0  0  0  0  0  0  0  0
   12.2542    1.6771   22.5889 C   0  0  0  0  0  0  0  0  0  0  0  0
   13.1488    1.7046   23.2828 H   0  0  0  0  0  0  0  0  0  0  0  0
   12.6376    1.0937   21.6963 H   0  0  0  0  0  0  0  0  0  0  0  0
   11.7843    2.8536   22.2809 O   0  0  0  0  0  0  0  0  0  0  0  0
    9.3102    3.2401   22.5640 C   0  0  0  0  0  0  0  0  0  0  0  0
   10.1389    3.4743   23.5544 H   0  0  0  0  0  0  0  0  0  0  0  0
    8.9894    4.5411   22.6033 H   0  0  0  0  0  0  0  0  0  0  0  0
    9.4997    3.3187   22.4123 C   0  0  0  0  0  0  0  0  0  0  0  0
    8.6778    3.0593   21.4453 H   0  0  0  0  0  0  0  0  0  0  0  0
    9.7046    1.8689   22.2832 H   0  0  0  0  0  0  0  0  0  0  0  0
    5.5847    0.0788   19.9791 C   0  0  0  0  0  0  0  0  0  0  0  0
    4.9139   -0.0074   20.8349 H   0  0  0  0  0  0  0  0  0  0  0  0
    5.2385    0.8288   18.8579 C   0  0  0  0  0  0  0  0  0  0  0  0
    4.2897    1.3494   18.7973 H   0  0  0  0  0  0  0  0  0  0  0  0
  1  2  1  0
  2  3  2  0
  3  4  1  0
  4  5  1  0
  4  6  2  0
  6  7  1  0
  7  8  1  0
  8  9  2  0
  9 10  1  0
 10 11  1  0
 11 12  1  0
 11 13  2  0
 13 14  1  0
 13 15  1  0
 15 16  1  0
 16 17  1  0
 17 18  1  0
 17 19  1  0
 17 20  1  0
 20 21  1  0
 21 22  1  0
 21 23  1  0
 21 24  1  0
 24 25  1  0
 24 26  1  0
 24 27  1  0
 27 28  1  0
 28 29  1  0
 28 30  1  0
 28 31  1  0
 31 32  1  0
 31 33  1  0
  6 34  1  0
 34 35  1  0
 34 36  2  0
 36 37  1  0
 36  2  1  0
 16  7  2  0
 31 20  1  0
 15  9  1  0
M  END
>  <cnnaffinity>  (1) 
-5.46955

>  <filename>  (1) 
c1cncc(-c2nc3sccn3c2CN2CCOCC2)c1

$$$$
