
     RDKit          3D

 32 35  0  0  0  0  0  0  0  0999 V2000
    4.8770    1.8951   16.6559 H   0  0  0  0  0  0  0  0  0  0  0  0
    5.2592    1.4673   17.5811 C   0  0  0  0  0  0  0  0  0  0  0  0
    6.4343    0.8237   17.4937 N   0  0  0  0  0  0  0  0  0  0  0  0
    6.9419    0.3255   18.6283 C   0  0  0  0  0  0  0  0  0  0  0  0
    7.8976   -0.1893   18.5187 H   0  0  0  0  0  0  0  0  0  0  0  0
    6.3400    0.4323   19.8984 C   0  0  0  0  0  0  0  0  0  0  0  0
    7.0416   -0.1195   21.1253 C   0  0  1  0  0  0  0  0  0  0  0  0
    6.4314    0.0873   22.0135 H   0  0  0  0  0  0  0  0  0  0  0  0
    7.2221   -1.6678   21.0630 C   0  0  0  0  0  0  0  0  0  0  0  0
    7.0657   -2.0694   20.0519 H   0  0  0  0  0  0  0  0  0  0  0  0
    6.5243   -2.2033   21.7149 H   0  0  0  0  0  0  0  0  0  0  0  0
    8.6337   -1.8461   21.5113 C   0  0  0  0  0  0  0  0  0  0  0  0
    9.3229   -2.9344   21.7658 N   0  0  0  0  0  0  0  0  0  0  0  0
   10.5520   -2.4573   22.0668 N   0  0  0  0  0  0  0  0  0  0  0  0
   11.3163   -3.1136   22.1835 H   0  0  0  0  0  0  0  0  0  0  0  0
   10.6585   -1.0932   21.9727 C   0  0  0  0  0  0  0  0  0  0  0  0
   11.9322   -0.4025   22.1536 C   0  0  0  0  0  0  0  0  0  0  0  0
   12.1624    0.9944   22.3026 C   0  0  0  0  0  0  0  0  0  0  0  0
   11.4597    1.8114   22.2167 H   0  0  0  0  0  0  0  0  0  0  0  0
   13.4334    1.2580   22.5654 N   0  0  0  0  0  0  0  0  0  0  0  0
   14.0373    0.0640   22.5529 N   0  0  0  0  0  0  0  0  0  0  0  0
   15.0227    0.0167   22.7634 H   0  0  0  0  0  0  0  0  0  0  0  0
   13.1977   -0.9596   22.3052 C   0  0  0  0  0  0  0  0  0  0  0  0
   13.5663   -1.9748   22.2160 H   0  0  0  0  0  0  0  0  0  0  0  0
    9.3707   -0.6631   21.6551 C   0  0  0  0  0  0  0  0  0  0  0  0
    8.4627    0.5204   21.3894 C   0  0  0  0  0  0  0  0  0  0  0  0
    8.7837    1.1286   20.5333 H   0  0  0  0  0  0  0  0  0  0  0  0
    8.3993    1.2288   22.2262 H   0  0  0  0  0  0  0  0  0  0  0  0
    5.0897    1.0667   19.9478 C   0  0  0  0  0  0  0  0  0  0  0  0
    4.5589    1.1455   20.8973 H   0  0  0  0  0  0  0  0  0  0  0  0
    4.5447    1.5970   18.7749 C   0  0  0  0  0  0  0  0  0  0  0  0
    3.5906    2.1145   18.7823 H   0  0  0  0  0  0  0  0  0  0  0  0
  1  2  1  0
  2  3  2  0
  3  4  1  0
  4  5  1  0
  4  6  2  0
  6  7  1  0
  7  8  1  1
  7  9  1  0
  9 10  1  0
  9 11  1  0
  9 12  1  0
 12 13  2  0
 13 14  1  0
 14 15  1  0
 14 16  1  0
 16 17  1  0
 17 18  1  0
 18 19  1  0
 18 20  2  0
 20 21  1  0
 21 22  1  0
 21 23  1  0
 23 24  1  0
 16 25  2  0
 25 26  1  0
 26 27  1  0
 26 28  1  0
  6 29  1  0
 29 30  1  0
 29 31  2  0
 31 32  1  0
 31  2  1  0
 26  7  1  0
 25 12  1  0
 23 17  2  0
M  END
>  <cnnaffinity>  (1) 
-5.6755

>  <filename>  (1) 
c1cncc([C@H]2Cc3n[nH]c(-c4cn[nH]c4)c3C2)c1

$$$$
