
     RDKit          3D

 37 40  0  0  0  0  0  0  0  0999 V2000
    4.9797    1.7806   16.9494 H   0  0  0  0  0  0  0  0  0  0  0  0
    5.4233    1.2947   17.8151 C   0  0  0  0  0  0  0  0  0  0  0  0
    6.5831    0.6560   17.6147 N   0  0  0  0  0  0  0  0  0  0  0  0
    7.1564    0.0747   18.6768 C   0  0  0  0  0  0  0  0  0  0  0  0
    8.0921   -0.4415   18.4573 H   0  0  0  0  0  0  0  0  0  0  0  0
    6.6311    0.0952   19.9781 C   0  0  0  0  0  0  0  0  0  0  0  0
    7.3689   -0.6515   21.0720 C   0  0  0  0  0  0  0  0  0  0  0  0
    6.8549   -0.4552   22.3876 N   0  0  0  0  0  0  0  0  0  0  0  0
    6.1971   -1.1094   22.7776 H   0  0  0  0  0  0  0  0  0  0  0  0
    7.0073    0.6993   23.1034 C   0  0  0  0  0  0  0  0  0  0  0  0
    7.5809    1.8444   22.5436 C   0  0  0  0  0  0  0  0  0  0  0  0
    7.8849    1.8275   21.4990 H   0  0  0  0  0  0  0  0  0  0  0  0
    7.7391    3.0124   23.3113 C   0  0  0  0  0  0  0  0  0  0  0  0
    8.1909    3.8935   22.8589 H   0  0  0  0  0  0  0  0  0  0  0  0
    7.3306    3.0572   24.6405 C   0  0  0  0  0  0  0  0  0  0  0  0
    7.4539    3.9534   25.2404 H   0  0  0  0  0  0  0  0  0  0  0  0
    6.7502    1.8942   25.1835 C   0  0  0  0  0  0  0  0  0  0  0  0
    6.5672    0.7012   24.4485 C   0  0  0  0  0  0  0  0  0  0  0  0
    5.9534   -0.2515   25.3451 C   0  0  0  0  0  0  0  0  0  0  0  0
    5.6690   -1.2815   25.1523 H   0  0  0  0  0  0  0  0  0  0  0  0
    5.7941    0.3758   26.5397 C   0  0  0  0  0  0  0  0  0  0  0  0
    5.3784   -0.0057   27.4664 H   0  0  0  0  0  0  0  0  0  0  0  0
    6.2676    1.6648   26.4460 N   0  0  0  0  0  0  0  0  0  0  0  0
    6.2831    2.3383   27.1876 H   0  0  0  0  0  0  0  0  0  0  0  0
    7.4953   -2.1673   20.8237 C   0  0  0  0  0  0  0  0  0  0  0  0
    7.0882   -2.7656   21.6435 H   0  0  0  0  0  0  0  0  0  0  0  0
    6.9976   -2.4903   19.9091 H   0  0  0  0  0  0  0  0  0  0  0  0
    9.0407   -2.0443   20.8019 C   0  0  0  0  0  0  0  0  0  0  0  0
    9.5807   -2.6768   21.5145 H   0  0  0  0  0  0  0  0  0  0  0  0
    9.4837   -2.1875   19.8282 H   0  0  0  0  0  0  0  0  0  0  0  0
    8.9299   -0.5321   21.0857 C   0  0  0  0  0  0  0  0  0  0  0  0
    9.3614    0.1265   20.3284 H   0  0  0  0  0  0  0  0  0  0  0  0
    9.3284   -0.2188   22.0532 H   0  0  0  0  0  0  0  0  0  0  0  0
    5.3944    0.7404   20.1529 C   0  0  0  0  0  0  0  0  0  0  0  0
    4.9291    0.7602   21.1380 H   0  0  0  0  0  0  0  0  0  0  0  0
    4.7856    1.3479   19.0581 C   0  0  0  0  0  0  0  0  0  0  0  0
    3.8411    1.8663   19.1661 H   0  0  0  0  0  0  0  0  0  0  0  0
  1  2  1  0
  2  3  2  0
  3  4  1  0
  4  5  1  0
  4  6  2  0
  6  7  1  0
  7  8  1  0
  8  9  1  0
  8 10  1  0
 10 11  2  0
 11 12  1  0
 11 13  1  0
 13 14  1  0
 13 15  2  0
 15 16  1  0
 15 17  1  0
 17 18  2  0
 18 19  1  0
 19 20  1  0
 19 21  2  0
 21 22  1  0
 21 23  1  0
 23 24  1  0
  7 25  1  0
 25 26  1  0
 25 27  1  0
 25 28  1  0
 28 29  1  0
 28 30  1  0
 28 31  1  0
 31 32  1  0
 31 33  1  0
  6 34  1  0
 34 35  1  0
 34 36  2  0
 36 37  1  0
 36  2  1  0
 31  7  1  0
 18 10  1  0
 23 17  1  0
M  END
>  <cnnaffinity>  (1) 
-4.63054

>  <filename>  (1) 
c1cncc(C2(Nc3cccc4[nH]ccc34)CCC2)c1

$$$$
