
     RDKit          3D

 38 40  0  0  0  0  0  0  0  0999 V2000
    5.0738    1.8865   16.8808 H   0  0  0  0  0  0  0  0  0  0  0  0
    5.4623    1.3488   17.7429 C   0  0  0  0  0  0  0  0  0  0  0  0
    6.5986    0.6641   17.5418 N   0  0  0  0  0  0  0  0  0  0  0  0
    7.0908   -0.0057   18.5849 C   0  0  0  0  0  0  0  0  0  0  0  0
    8.0005   -0.5734   18.3879 H   0  0  0  0  0  0  0  0  0  0  0  0
    6.5068   -0.0331   19.8614 C   0  0  0  0  0  0  0  0  0  0  0  0
    7.1939   -0.8088   20.9327 C   0  0  0  0  0  0  0  0  0  0  0  0
    6.4311   -1.3921   21.8766 N   0  0  0  0  0  0  0  0  0  0  0  0
    6.9865   -2.1251   22.8481 N   0  0  0  0  0  0  0  0  0  0  0  0
    8.3115   -2.2881   22.8934 C   0  0  0  0  0  0  0  0  0  0  0  0
    8.7025   -2.8857   23.7094 H   0  0  0  0  0  0  0  0  0  0  0  0
    9.1834   -1.7116   21.9487 C   0  0  0  0  0  0  0  0  0  0  0  0
   10.6781   -1.8361   22.0175 C   0  0  0  0  0  0  0  0  0  0  0  0
   10.9683   -2.6587   22.6823 H   0  0  0  0  0  0  0  0  0  0  0  0
   11.0436   -2.1058   21.0182 H   0  0  0  0  0  0  0  0  0  0  0  0
   11.3648   -0.5228   22.4377 C   0  0  0  0  0  0  0  0  0  0  0  0
   11.0040    0.2628   21.7480 H   0  0  0  0  0  0  0  0  0  0  0  0
   12.8819   -0.6303   22.2194 C   0  0  0  0  0  0  0  0  0  0  0  0
   13.2936   -1.4590   22.7980 H   0  0  0  0  0  0  0  0  0  0  0  0
   13.0629   -0.9284   21.1803 H   0  0  0  0  0  0  0  0  0  0  0  0
   13.6039    0.6730   22.5760 C   0  0  0  0  0  0  0  0  0  0  0  0
   14.6879    0.5783   22.4270 H   0  0  0  0  0  0  0  0  0  0  0  0
   13.2453    1.4519   21.8927 H   0  0  0  0  0  0  0  0  0  0  0  0
   13.2833    1.1147   24.0100 C   0  0  0  0  0  0  0  0  0  0  0  0
   13.7210    0.3915   24.7080 H   0  0  0  0  0  0  0  0  0  0  0  0
   13.7377    2.0884   24.2218 H   0  0  0  0  0  0  0  0  0  0  0  0
   11.7744    1.2171   24.2677 C   0  0  0  0  0  0  0  0  0  0  0  0
   11.3812    2.0649   23.6888 H   0  0  0  0  0  0  0  0  0  0  0  0
   11.6015    1.4441   25.3277 H   0  0  0  0  0  0  0  0  0  0  0  0
   11.0012   -0.0506   23.8643 C   0  0  0  0  0  0  0  0  0  0  0  0
   11.1793   -0.8467   24.6014 H   0  0  0  0  0  0  0  0  0  0  0  0
    9.9221    0.1434   23.9191 H   0  0  0  0  0  0  0  0  0  0  0  0
    8.5908   -0.9422   20.9589 C   0  0  0  0  0  0  0  0  0  0  0  0
    9.2027   -0.4231   20.2241 H   0  0  0  0  0  0  0  0  0  0  0  0
    5.3063    0.6724   20.0511 C   0  0  0  0  0  0  0  0  0  0  0  0
    4.8072    0.6696   21.0243 H   0  0  0  0  0  0  0  0  0  0  0  0
    4.7805    1.3764   18.9647 C   0  0  0  0  0  0  0  0  0  0  0  0
    3.8561    1.9413   19.0452 H   0  0  0  0  0  0  0  0  0  0  0  0
  1  2  1  0
  2  3  2  0
  3  4  1  0
  4  5  1  0
  4  6  2  0
  6  7  1  0
  7  8  2  0
  8  9  1  0
  9 10  2  0
 10 11  1  0
 10 12  1  0
 12 13  1  0
 13 14  1  0
 13 15  1  0
 13 16  1  0
 16 17  1  0
 16 18  1  0
 18 19  1  0
 18 20  1  0
 18 21  1  0
 21 22  1  0
 21 23  1  0
 21 24  1  0
 24 25  1  0
 24 26  1  0
 24 27  1  0
 27 28  1  0
 27 29  1  0
 27 30  1  0
 30 31  1  0
 30 32  1  0
 12 33  2  0
 33 34  1  0
  6 35  1  0
 35 36  1  0
 35 37  2  0
 37 38  1  0
 37  2  1  0
 33  7  1  0
 30 16  1  0
M  END
>  <cnnaffinity>  (1) 
-5.50088

>  <filename>  (1) 
c1cncc(-c2cc(CC3CCCCC3)cnn2)c1

$$$$
