
     RDKit          3D

 33 36  0  0  0  0  0  0  0  0999 V2000
    6.2879    4.2779   24.8501 H   0  0  0  0  0  0  0  0  0  0  0  0
    6.4916    3.3489   24.3122 C   0  0  0  0  0  0  0  0  0  0  0  0
    6.3138    2.2025   24.9733 N   0  0  0  0  0  0  0  0  0  0  0  0
    6.6165    1.0813   24.3132 C   0  0  0  0  0  0  0  0  0  0  0  0
    6.4681    0.1404   24.8514 H   0  0  0  0  0  0  0  0  0  0  0  0
    7.0755    1.0603   22.9910 C   0  0  0  0  0  0  0  0  0  0  0  0
    7.4949   -0.1786   22.3263 C   0  0  0  0  0  0  0  0  0  0  0  0
    7.3606   -0.6382   20.9623 C   0  0  0  0  0  0  0  0  0  0  0  0
    6.6121   -0.0080   19.8650 C   0  0  0  0  0  0  0  0  0  0  0  0
    7.1263   -0.0215   18.5534 C   0  0  0  0  0  0  0  0  0  0  0  0
    8.0319   -0.5780   18.3191 H   0  0  0  0  0  0  0  0  0  0  0  0
    6.5672    0.6231   17.5254 N   0  0  0  0  0  0  0  0  0  0  0  0
    5.4294    1.2955   17.7617 C   0  0  0  0  0  0  0  0  0  0  0  0
    5.0165    1.8551   16.9235 H   0  0  0  0  0  0  0  0  0  0  0  0
    4.7892    1.2981   19.0048 C   0  0  0  0  0  0  0  0  0  0  0  0
    3.8555    1.8366   19.1161 H   0  0  0  0  0  0  0  0  0  0  0  0
    5.3783    0.6296   20.0757 C   0  0  0  0  0  0  0  0  0  0  0  0
    4.8868    0.5981   21.0519 H   0  0  0  0  0  0  0  0  0  0  0  0
    8.0386   -1.7692   20.7682 N   0  0  0  0  0  0  0  0  0  0  0  0
    8.5442   -2.0413   21.9700 N   0  0  0  0  0  0  0  0  0  0  0  0
    8.2795   -1.1564   22.9276 C   0  0  0  0  0  0  0  0  0  0  0  0
    9.0450   -1.5050   24.1855 C   0  0  0  0  0  0  0  0  0  0  0  0
    9.7007   -0.6913   24.5093 H   0  0  0  0  0  0  0  0  0  0  0  0
    8.3684   -1.7331   25.0134 H   0  0  0  0  0  0  0  0  0  0  0  0
    9.8711   -2.7527   23.7712 C   0  0  0  0  0  0  0  0  0  0  0  0
    9.6716   -3.5937   24.4357 H   0  0  0  0  0  0  0  0  0  0  0  0
   10.9380   -2.5454   23.8161 H   0  0  0  0  0  0  0  0  0  0  0  0
    9.4902   -3.0718   22.3037 C   0  0  0  0  0  0  0  0  0  0  0  0
    9.0285   -4.0529   22.1768 H   0  0  0  0  0  0  0  0  0  0  0  0
   10.3493   -2.9614   21.6424 H   0  0  0  0  0  0  0  0  0  0  0  0
    7.1852    2.3253   22.4062 C   0  0  0  0  0  0  0  0  0  0  0  0
    7.5397    2.4076   21.3751 H   0  0  0  0  0  0  0  0  0  0  0  0
    6.9086    3.4615   23.0512 N   0  0  0  0  0  0  0  0  0  0  0  0
  1  2  1  0
  2  3  2  0
  3  4  1  0
  4  5  1  0
  4  6  2  0
  6  7  1  0
  7  8  1  0
  8  9  1  0
  9 10  2  0
 10 11  1  0
 10 12  1  0
 12 13  2  0
 13 14  1  0
 13 15  1  0
 15 16  1  0
 15 17  2  0
 17 18  1  0
  8 19  2  0
 19 20  1  0
 20 21  1  0
 21 22  1  0
 22 23  1  0
 22 24  1  0
 22 25  1  0
 25 26  1  0
 25 27  1  0
 25 28  1  0
 28 29  1  0
 28 30  1  0
  6 31  1  0
 31 32  1  0
 31 33  2  0
 33  2  1  0
 21  7  2  0
 17  9  1  0
 28 20  1  0
M  END
>  <cnnaffinity>  (1) 
-5.37921

>  <filename>  (1) 
c1cncc(-c2nn3c(c2-c2cncnc2)CCC3)c1

$$$$
