
     RDKit          3D

 30 32  0  0  0  0  0  0  0  0999 V2000
    4.9952    1.7568   17.0985 H   0  0  0  0  0  0  0  0  0  0  0  0
    5.5031    1.2432   17.9130 C   0  0  0  0  0  0  0  0  0  0  0  0
    6.6812    0.6708   17.6096 N   0  0  0  0  0  0  0  0  0  0  0  0
    7.3145    0.0029   18.5827 C   0  0  0  0  0  0  0  0  0  0  0  0
    8.2646   -0.4476   18.2991 H   0  0  0  0  0  0  0  0  0  0  0  0
    6.8264   -0.1618   19.9136 C   0  0  0  0  0  0  0  0  0  0  0  0
    7.4948   -0.9520   20.8410 N   0  0  0  0  0  0  0  0  0  0  0  0
    8.9386   -1.1623   20.9222 C   0  0  0  0  0  0  0  0  0  0  0  0
    9.2952   -2.0143   20.3261 H   0  0  0  0  0  0  0  0  0  0  0  0
    9.5275   -0.2737   20.6521 H   0  0  0  0  0  0  0  0  0  0  0  0
    8.7845   -1.4108   22.4376 C   0  0  0  0  0  0  0  0  0  0  0  0
    9.2694   -0.6669   23.0728 H   0  0  0  0  0  0  0  0  0  0  0  0
    9.0866   -2.4115   22.7628 H   0  0  0  0  0  0  0  0  0  0  0  0
    7.2583   -1.2034   22.2680 C   0  0  2  0  0  0  0  0  0  0  0  0
    6.8671   -0.3338   22.8247 H   0  0  0  0  0  0  0  0  0  0  0  0
    6.4267   -2.4640   22.5309 C   0  0  0  0  0  0  0  0  0  0  0  0
    5.4477   -2.3472   22.0454 H   0  0  0  0  0  0  0  0  0  0  0  0
    6.9243   -3.3132   22.0432 H   0  0  0  0  0  0  0  0  0  0  0  0
    6.2529   -2.7825   23.9952 C   0  0  0  0  0  0  0  0  0  0  0  0
    5.7332   -1.5691   25.1124 S   0  0  0  0  0  0  0  0  0  0  0  0
    5.6616   -2.6921   26.4101 C   0  0  0  0  0  0  0  0  0  0  0  0
    5.3068   -2.3419   27.3701 H   0  0  0  0  0  0  0  0  0  0  0  0
    6.0465   -3.9372   26.0162 C   0  0  0  0  0  0  0  0  0  0  0  0
    6.0739   -4.7952   26.6811 H   0  0  0  0  0  0  0  0  0  0  0  0
    6.3878   -3.9827   24.6274 C   0  0  0  0  0  0  0  0  0  0  0  0
    6.7276   -4.8768   24.1151 H   0  0  0  0  0  0  0  0  0  0  0  0
    5.6049    0.4820   20.2090 C   0  0  0  0  0  0  0  0  0  0  0  0
    5.2007    0.4286   21.2189 H   0  0  0  0  0  0  0  0  0  0  0  0
    4.9416    1.1829   19.1939 C   0  0  0  0  0  0  0  0  0  0  0  0
    3.9946    1.6809   19.3817 H   0  0  0  0  0  0  0  0  0  0  0  0
  1  2  1  0
  2  3  2  0
  3  4  1  0
  4  5  1  0
  4  6  2  0
  6  7  1  0
  7  8  1  0
  8  9  1  0
  8 10  1  0
  8 11  1  0
 11 12  1  0
 11 13  1  0
 11 14  1  0
 14 15  1  1
 14 16  1  0
 16 17  1  0
 16 18  1  0
 16 19  1  0
 19 20  1  0
 20 21  1  0
 21 22  1  0
 21 23  2  0
 23 24  1  0
 23 25  1  0
 25 26  1  0
  6 27  1  0
 27 28  1  0
 27 29  2  0
 29 30  1  0
 29  2  1  0
 14  7  1  0
 25 19  2  0
M  END
>  <cnnaffinity>  (1) 
-4.71546

>  <filename>  (1) 
c1cncc(N2CC[C@@H]2Cc2cccs2)c1

$$$$
