
     RDKit          3D

 39 43  0  0  0  0  0  0  0  0999 V2000
    5.0126    1.8463   16.9037 H   0  0  0  0  0  0  0  0  0  0  0  0
    5.3880    1.3129   17.7782 C   0  0  0  0  0  0  0  0  0  0  0  0
    6.5336    0.6341   17.6139 N   0  0  0  0  0  0  0  0  0  0  0  0
    7.0343    0.0103   18.6873 C   0  0  0  0  0  0  0  0  0  0  0  0
    7.9653   -0.5292   18.5242 H   0  0  0  0  0  0  0  0  0  0  0  0
    6.4353   -0.0065   19.9625 C   0  0  0  0  0  0  0  0  0  0  0  0
    7.1820   -0.6186   21.0780 C   0  0  0  0  0  0  0  0  0  0  0  0
    8.5411   -0.5845   21.3059 C   0  0  0  0  0  0  0  0  0  0  0  0
    8.7416   -1.1909   22.5361 C   0  0  0  0  0  0  0  0  0  0  0  0
    7.6218   -1.6366   23.0740 N   0  0  0  0  0  0  0  0  0  0  0  0
    6.6763   -1.2696   22.1697 N   0  0  0  0  0  0  0  0  0  0  0  0
    5.7159   -1.5429   22.3503 H   0  0  0  0  0  0  0  0  0  0  0  0
   10.1776   -1.2149   22.9614 C   0  0  0  0  0  0  0  0  0  0  0  0
   10.5459   -2.2463   23.0337 H   0  0  0  0  0  0  0  0  0  0  0  0
   10.3253   -0.7470   23.9403 H   0  0  0  0  0  0  0  0  0  0  0  0
   10.8987   -0.4278   21.8050 C   0  0  2  0  0  0  0  0  0  0  0  0
   11.6551   -1.0893   21.3784 H   0  0  0  0  0  0  0  0  0  0  0  0
   11.6180    0.8121   22.2483 C   0  0  0  0  0  0  0  0  0  0  0  0
   12.9386    1.1561   22.1544 C   0  0  0  0  0  0  0  0  0  0  0  0
   13.7526    0.5189   21.8275 H   0  0  0  0  0  0  0  0  0  0  0  0
   13.0641    2.5027   22.6228 C   0  0  0  0  0  0  0  0  0  0  0  0
   14.1459    3.3941   22.7098 C   0  0  0  0  0  0  0  0  0  0  0  0
   15.1187    3.1029   22.3203 H   0  0  0  0  0  0  0  0  0  0  0  0
   13.9620    4.6132   23.3352 C   0  0  0  0  0  0  0  0  0  0  0  0
   14.8108    5.2741   23.4101 H   0  0  0  0  0  0  0  0  0  0  0  0
   12.6992    4.9812   23.8647 C   0  0  0  0  0  0  0  0  0  0  0  0
   12.6000    5.9212   24.4019 H   0  0  0  0  0  0  0  0  0  0  0  0
   11.5932    4.1483   23.7209 C   0  0  0  0  0  0  0  0  0  0  0  0
   10.6124    4.4367   24.0901 H   0  0  0  0  0  0  0  0  0  0  0  0
   11.7858    2.9164   23.0670 C   0  0  0  0  0  0  0  0  0  0  0  0
   10.9225    1.8751   22.7968 N   0  0  0  0  0  0  0  0  0  0  0  0
    9.9235    1.9033   22.9018 H   0  0  0  0  0  0  0  0  0  0  0  0
    9.8207   -0.1239   20.6987 C   0  0  0  0  0  0  0  0  0  0  0  0
   10.0342   -0.6967   19.7931 H   0  0  0  0  0  0  0  0  0  0  0  0
    9.7824    0.9327   20.4009 H   0  0  0  0  0  0  0  0  0  0  0  0
    5.2155    0.6778   20.1026 C   0  0  0  0  0  0  0  0  0  0  0  0
    4.6997    0.7071   21.0639 H   0  0  0  0  0  0  0  0  0  0  0  0
    4.6951    1.3494   18.9940 C   0  0  0  0  0  0  0  0  0  0  0  0
    3.7822    1.9291   19.0591 H   0  0  0  0  0  0  0  0  0  0  0  0
  1  2  1  0
  2  3  2  0
  3  4  1  0
  4  5  1  0
  4  6  2  0
  6  7  1  0
  7  8  2  0
  8  9  1  0
  9 10  2  0
 10 11  1  0
 11 12  1  0
  9 13  1  0
 13 14  1  0
 13 15  1  0
 13 16  1  0
 16 17  1  6
 16 18  1  0
 18 19  2  0
 19 20  1  0
 19 21  1  0
 21 22  2  0
 22 23  1  0
 22 24  1  0
 24 25  1  0
 24 26  2  0
 26 27  1  0
 26 28  1  0
 28 29  1  0
 28 30  2  0
 30 31  1  0
 31 32  1  0
 16 33  1  0
 33 34  1  0
 33 35  1  0
  6 36  1  0
 36 37  1  0
 36 38  2  0
 38 39  1  0
 38  2  1  0
 11  7  1  0
 31 18  1  0
 33  8  1  0
 30 21  1  0
M  END
>  <cnnaffinity>  (1) 
-5.849

>  <filename>  (1) 
c1cncc(-c2[nH]nc3c2C[C@@H](c2cc4ccccc4[nH]2)C3)c1

$$$$
