
     RDKit          3D

 36 38  0  0  0  0  0  0  0  0999 V2000
    4.9343    1.8299   16.9878 H   0  0  0  0  0  0  0  0  0  0  0  0
    5.3994    1.3076   17.8205 C   0  0  0  0  0  0  0  0  0  0  0  0
    6.5571    0.6827   17.5580 N   0  0  0  0  0  0  0  0  0  0  0  0
    7.1552    0.0506   18.5764 C   0  0  0  0  0  0  0  0  0  0  0  0
    8.1075   -0.4279   18.3383 H   0  0  0  0  0  0  0  0  0  0  0  0
    6.6426   -0.0241   19.8869 C   0  0  0  0  0  0  0  0  0  0  0  0
    7.4234   -0.7215   20.9848 C   0  0  0  0  0  0  0  0  0  0  0  0
    7.6600   -1.7498   20.6803 H   0  0  0  0  0  0  0  0  0  0  0  0
    6.8091   -0.8043   21.8937 H   0  0  0  0  0  0  0  0  0  0  0  0
    8.7360    0.0020   21.3404 C   0  0  0  0  0  0  0  0  0  0  0  0
    9.2961   -0.6036   22.0637 H   0  0  0  0  0  0  0  0  0  0  0  0
    9.3746    0.0689   20.4519 H   0  0  0  0  0  0  0  0  0  0  0  0
    8.5175    1.4076   21.9270 C   0  0  0  0  0  0  0  0  0  0  0  0
    9.4932    1.8795   22.1020 H   0  0  0  0  0  0  0  0  0  0  0  0
    8.0030    2.0366   21.1915 H   0  0  0  0  0  0  0  0  0  0  0  0
    7.7384    1.3739   23.2285 C   0  0  0  0  0  0  0  0  0  0  0  0
    6.4315    1.9293   23.3542 C   0  0  0  0  0  0  0  0  0  0  0  0
    6.0049    2.4419   22.4966 H   0  0  0  0  0  0  0  0  0  0  0  0
    5.7126    1.8443   24.5294 C   0  0  0  0  0  0  0  0  0  0  0  0
    4.7270    2.2967   24.5995 H   0  0  0  0  0  0  0  0  0  0  0  0
    6.2836    1.2240   25.6874 C   0  0  0  0  0  0  0  0  0  0  0  0
    5.6196    1.1536   26.9551 C   0  0  0  0  0  0  0  0  0  0  0  0
    4.5922    1.5012   27.0374 H   0  0  0  0  0  0  0  0  0  0  0  0
    6.2771    0.6889   28.0713 C   0  0  0  0  0  0  0  0  0  0  0  0
    5.7600    0.6220   29.0289 H   0  0  0  0  0  0  0  0  0  0  0  0
    7.6379    0.2702   27.9821 C   0  0  0  0  0  0  0  0  0  0  0  0
    8.1668    0.0484   28.9043 H   0  0  0  0  0  0  0  0  0  0  0  0
    8.2629    0.2078   26.7593 C   0  0  0  0  0  0  0  0  0  0  0  0
    9.2601   -0.2208   26.6548 H   0  0  0  0  0  0  0  0  0  0  0  0
    7.6126    0.7005   25.5853 C   0  0  0  0  0  0  0  0  0  0  0  0
    8.2895    0.7555   24.3334 C   0  0  0  0  0  0  0  0  0  0  0  0
    9.2879    0.3324   24.2891 H   0  0  0  0  0  0  0  0  0  0  0  0
    5.4232    0.6299   20.1229 C   0  0  0  0  0  0  0  0  0  0  0  0
    4.9838    0.6206   21.1216 H   0  0  0  0  0  0  0  0  0  0  0  0
    4.7917    1.3100   19.0778 C   0  0  0  0  0  0  0  0  0  0  0  0
    3.8617    1.8512   19.2274 H   0  0  0  0  0  0  0  0  0  0  0  0
  1  2  1  0
  2  3  2  0
  3  4  1  0
  4  5  1  0
  4  6  2  0
  6  7  1  0
  7  8  1  0
  7  9  1  0
  7 10  1  0
 10 11  1  0
 10 12  1  0
 10 13  1  0
 13 14  1  0
 13 15  1  0
 13 16  1  0
 16 17  2  0
 17 18  1  0
 17 19  1  0
 19 20  1  0
 19 21  2  0
 21 22  1  0
 22 23  1  0
 22 24  2  0
 24 25  1  0
 24 26  1  0
 26 27  1  0
 26 28  2  0
 28 29  1  0
 28 30  1  0
 30 31  2  0
 31 32  1  0
  6 33  1  0
 33 34  1  0
 33 35  2  0
 35 36  1  0
 35  2  1  0
 31 16  1  0
 30 21  1  0
M  END
>  <cnnaffinity>  (1) 
-4.78487

>  <filename>  (1) 
c1cncc(CCCc2ccc3ccccc3c2)c1

$$$$
