
     RDKit          3D

 31 34  0  0  0  0  0  0  0  0999 V2000
    8.5764   -1.9291   19.8667 H   0  0  0  0  0  0  0  0  0  0  0  0
    8.2790   -1.6354   20.8524 C   0  0  0  0  0  0  0  0  0  0  0  0
    8.7985   -2.3323   21.8593 N   0  0  0  0  0  0  0  0  0  0  0  0
    8.5197   -1.9201   23.1004 N   0  0  0  0  0  0  0  0  0  0  0  0
    7.7860   -0.8019   23.3008 C   0  0  0  0  0  0  0  0  0  0  0  0
    7.6787   -0.3416   24.6995 C   0  0  0  0  0  0  0  0  0  0  0  0
    7.9687   -1.1122   25.7849 C   0  0  0  0  0  0  0  0  0  0  0  0
    8.3480   -2.1300   25.7558 H   0  0  0  0  0  0  0  0  0  0  0  0
    7.6821   -0.3263   27.2959 S   0  0  0  0  0  0  0  0  0  0  0  0
    7.1833    1.1293   26.4785 C   0  0  0  0  0  0  0  0  0  0  0  0
    6.7481    2.3250   27.0742 C   0  0  0  0  0  0  0  0  0  0  0  0
    6.6760    2.4034   28.1548 H   0  0  0  0  0  0  0  0  0  0  0  0
    6.4064    3.3936   26.2534 C   0  0  0  0  0  0  0  0  0  0  0  0
    6.0610    4.3216   26.7005 H   0  0  0  0  0  0  0  0  0  0  0  0
    6.4984    3.2877   24.8499 C   0  0  0  0  0  0  0  0  0  0  0  0
    6.2263    4.1368   24.2256 H   0  0  0  0  0  0  0  0  0  0  0  0
    6.9236    2.1068   24.2580 C   0  0  0  0  0  0  0  0  0  0  0  0
    7.0048    2.0210   23.1798 H   0  0  0  0  0  0  0  0  0  0  0  0
    7.2507    0.9956   25.0761 C   0  0  0  0  0  0  0  0  0  0  0  0
    7.1653   -0.1241   22.3072 N   0  0  0  0  0  0  0  0  0  0  0  0
    7.3802   -0.5613   21.0714 C   0  0  0  0  0  0  0  0  0  0  0  0
    6.6335    0.0899   19.9735 C   0  0  0  0  0  0  0  0  0  0  0  0
    7.1663    0.0918   18.6763 C   0  0  0  0  0  0  0  0  0  0  0  0
    8.1230   -0.3875   18.4679 H   0  0  0  0  0  0  0  0  0  0  0  0
    6.5764    0.6666   17.6303 N   0  0  0  0  0  0  0  0  0  0  0  0
    5.4065    1.2839   17.8497 C   0  0  0  0  0  0  0  0  0  0  0  0
    4.9709    1.7794   16.9886 H   0  0  0  0  0  0  0  0  0  0  0  0
    4.7679    1.3200   19.0940 C   0  0  0  0  0  0  0  0  0  0  0  0
    3.8205    1.8405   19.1966 H   0  0  0  0  0  0  0  0  0  0  0  0
    5.3902    0.7129   20.1834 C   0  0  0  0  0  0  0  0  0  0  0  0
    4.9416    0.7175   21.1798 H   0  0  0  0  0  0  0  0  0  0  0  0
  1  2  1  0
  2  3  2  0
  3  4  1  0
  4  5  2  0
  5  6  1  0
  6  7  2  0
  7  8  1  0
  7  9  1  0
  9 10  1  0
 10 11  2  0
 11 12  1  0
 11 13  1  0
 13 14  1  0
 13 15  2  0
 15 16  1  0
 15 17  1  0
 17 18  1  0
 17 19  2  0
  5 20  1  0
 20 21  2  0
 21 22  1  0
 22 23  2  0
 23 24  1  0
 23 25  1  0
 25 26  2  0
 26 27  1  0
 26 28  1  0
 28 29  1  0
 28 30  2  0
 30 31  1  0
 21  2  1  0
 30 22  1  0
 19  6  1  0
 19 10  1  0
M  END
>  <cnnaffinity>  (1) 
-5.38216

>  <filename>  (1) 
c1cncc(-c2cnnc(-c3csc4ccccc34)n2)c1

$$$$
