
     RDKit          3D

 31 34  0  0  0  0  0  0  0  0999 V2000
   14.0997    2.7442   22.7172 H   0  0  0  0  0  0  0  0  0  0  0  0
   13.0849    2.3670   22.6898 C   0  0  0  0  0  0  0  0  0  0  0  0
   12.0148    2.9516   23.1078 N   0  0  0  0  0  0  0  0  0  0  0  0
   11.0106    2.0429   22.8236 C   0  0  0  0  0  0  0  0  0  0  0  0
    9.9781    2.2569   23.0571 H   0  0  0  0  0  0  0  0  0  0  0  0
   11.5424    0.9397   22.2510 C   0  0  0  0  0  0  0  0  0  0  0  0
   10.9425   -0.3356   21.7831 C   0  0  1  0  0  0  0  0  0  0  0  0
   11.7527   -0.9435   21.3823 H   0  0  0  0  0  0  0  0  0  0  0  0
   10.2495   -1.1139   22.9613 C   0  0  0  0  0  0  0  0  0  0  0  0
   10.6793   -2.1054   23.1072 H   0  0  0  0  0  0  0  0  0  0  0  0
   10.3623   -0.5890   23.9185 H   0  0  0  0  0  0  0  0  0  0  0  0
    8.8234   -1.2028   22.5152 C   0  0  0  0  0  0  0  0  0  0  0  0
    7.7041   -1.6548   23.0515 N   0  0  0  0  0  0  0  0  0  0  0  0
    6.7553   -1.2904   22.1480 N   0  0  0  0  0  0  0  0  0  0  0  0
    5.7900   -1.4895   22.3807 H   0  0  0  0  0  0  0  0  0  0  0  0
    7.2561   -0.6405   21.0478 C   0  0  0  0  0  0  0  0  0  0  0  0
    6.5107   -0.0129   19.9329 C   0  0  0  0  0  0  0  0  0  0  0  0
    7.0883    0.0280   18.6425 C   0  0  0  0  0  0  0  0  0  0  0  0
    8.0336   -0.4764   18.4353 H   0  0  0  0  0  0  0  0  0  0  0  0
    6.5440    0.6533   17.5887 N   0  0  0  0  0  0  0  0  0  0  0  0
    5.3886    1.3044   17.7908 C   0  0  0  0  0  0  0  0  0  0  0  0
    4.9760    1.8397   16.9402 H   0  0  0  0  0  0  0  0  0  0  0  0
    4.7249    1.3343   19.0215 C   0  0  0  0  0  0  0  0  0  0  0  0
    3.8084    1.9060   19.1277 H   0  0  0  0  0  0  0  0  0  0  0  0
    5.2872    0.6623   20.1067 C   0  0  0  0  0  0  0  0  0  0  0  0
    4.8140    0.7093   21.0888 H   0  0  0  0  0  0  0  0  0  0  0  0
    8.6135   -0.6042   21.2773 C   0  0  0  0  0  0  0  0  0  0  0  0
    9.8677   -0.0875   20.6724 C   0  0  0  0  0  0  0  0  0  0  0  0
    9.7902    0.9677   20.3732 H   0  0  0  0  0  0  0  0  0  0  0  0
   10.1330   -0.6308   19.7641 H   0  0  0  0  0  0  0  0  0  0  0  0
   12.8898    1.1409   22.1589 O   0  0  0  0  0  0  0  0  0  0  0  0
  1  2  1  0
  2  3  2  0
  3  4  1  0
  4  5  1  0
  4  6  2  0
  6  7  1  0
  7  8  1  6
  7  9  1  0
  9 10  1  0
  9 11  1  0
  9 12  1  0
 12 13  2  0
 13 14  1  0
 14 15  1  0
 14 16  1  0
 16 17  1  0
 17 18  2  0
 18 19  1  0
 18 20  1  0
 20 21  2  0
 21 22  1  0
 21 23  1  0
 23 24  1  0
 23 25  2  0
 25 26  1  0
 16 27  2  0
 27 28  1  0
 28 29  1  0
 28 30  1  0
  6 31  1  0
 31  2  1  0
 28  7  1  0
 27 12  1  0
 25 17  1  0
M  END
>  <cnnaffinity>  (1) 
-5.32425

>  <filename>  (1) 
c1cncc(-c2[nH]nc3c2C[C@@H](c2cnco2)C3)c1

$$$$
