
     RDKit          3D

 35 39  0  0  0  0  0  0  0  0999 V2000
    4.9166    1.7758   17.0018 H   0  0  0  0  0  0  0  0  0  0  0  0
    5.4045    1.2900   17.8425 C   0  0  0  0  0  0  0  0  0  0  0  0
    6.5698    0.6780   17.5765 N   0  0  0  0  0  0  0  0  0  0  0  0
    7.1737    0.0563   18.5894 C   0  0  0  0  0  0  0  0  0  0  0  0
    8.1239   -0.4343   18.3743 H   0  0  0  0  0  0  0  0  0  0  0  0
    6.6460    0.0089   19.8902 C   0  0  0  0  0  0  0  0  0  0  0  0
    7.4045   -0.7028   20.9150 C   0  0  0  0  0  0  0  0  0  0  0  0
    8.3323   -1.6013   20.6978 N   0  0  0  0  0  0  0  0  0  0  0  0
    8.8465   -2.0184   21.9055 N   0  0  0  0  0  0  0  0  0  0  0  0
    8.2227   -1.3231   22.8163 C   0  0  0  0  0  0  0  0  0  0  0  0
    8.3620   -0.9877   24.5166 S   0  0  0  0  0  0  0  0  0  0  0  0
    7.1277    0.2779   24.2880 C   0  0  0  0  0  0  0  0  0  0  0  0
    6.7703    1.2096   25.3741 C   0  0  0  0  0  0  0  0  0  0  0  0
    6.8545    2.5725   25.1213 C   0  0  0  0  0  0  0  0  0  0  0  0
    7.1265    2.9156   24.1262 H   0  0  0  0  0  0  0  0  0  0  0  0
    6.5908    3.5227   26.1359 C   0  0  0  0  0  0  0  0  0  0  0  0
    6.6574    4.5797   25.8973 H   0  0  0  0  0  0  0  0  0  0  0  0
    6.2493    3.1123   27.4030 C   0  0  0  0  0  0  0  0  0  0  0  0
    6.0492    3.8394   28.1885 H   0  0  0  0  0  0  0  0  0  0  0  0
    6.1426    1.7247   27.7107 C   0  0  0  0  0  0  0  0  0  0  0  0
    5.7688    1.2943   29.0207 C   0  0  0  0  0  0  0  0  0  0  0  0
    5.5891    2.0499   29.7843 H   0  0  0  0  0  0  0  0  0  0  0  0
    5.6250   -0.0413   29.3063 C   0  0  0  0  0  0  0  0  0  0  0  0
    5.3397   -0.3639   30.3059 H   0  0  0  0  0  0  0  0  0  0  0  0
    5.8368   -1.0136   28.2950 C   0  0  0  0  0  0  0  0  0  0  0  0
    5.7032   -2.0656   28.5289 H   0  0  0  0  0  0  0  0  0  0  0  0
    6.2004   -0.6332   27.0189 C   0  0  0  0  0  0  0  0  0  0  0  0
    6.3384   -1.3840   26.2478 H   0  0  0  0  0  0  0  0  0  0  0  0
    6.3891    0.7458   26.6882 C   0  0  0  0  0  0  0  0  0  0  0  0
    6.6832    0.4236   23.0765 N   0  0  0  0  0  0  0  0  0  0  0  0
    7.2730   -0.5133   22.2755 N   0  0  0  0  0  0  0  0  0  0  0  0
    5.4323    0.6517   20.1626 C   0  0  0  0  0  0  0  0  0  0  0  0
    5.0105    0.6365   21.1718 H   0  0  0  0  0  0  0  0  0  0  0  0
    4.8043    1.3082   19.1090 C   0  0  0  0  0  0  0  0  0  0  0  0
    3.8735    1.8440   19.2613 H   0  0  0  0  0  0  0  0  0  0  0  0
  1  2  1  0
  2  3  2  0
  3  4  1  0
  4  5  1  0
  4  6  2  0
  6  7  1  0
  7  8  2  0
  8  9  1  0
  9 10  2  0
 10 11  1  0
 11 12  1  0
 12 13  1  0
 13 14  2  0
 14 15  1  0
 14 16  1  0
 16 17  1  0
 16 18  2  0
 18 19  1  0
 18 20  1  0
 20 21  2  0
 21 22  1  0
 21 23  1  0
 23 24  1  0
 23 25  2  0
 25 26  1  0
 25 27  1  0
 27 28  1  0
 27 29  2  0
 12 30  2  0
 30 31  1  0
  6 32  1  0
 32 33  1  0
 32 34  2  0
 34 35  1  0
 34  2  1  0
 31  7  1  0
 31 10  1  0
 29 13  1  0
 29 20  1  0
M  END
>  <cnnaffinity>  (1) 
-5.55122

>  <filename>  (1) 
c1cncc(-c2nnc3sc(-c4cccc5ccccc45)nn23)c1

$$$$
