
     RDKit          3D

 42 45  0  0  0  0  0  0  0  0999 V2000
    4.9139    1.8106   16.9797 H   0  0  0  0  0  0  0  0  0  0  0  0
    5.3938    1.3087   17.8177 C   0  0  0  0  0  0  0  0  0  0  0  0
    6.5613    0.7020   17.5487 N   0  0  0  0  0  0  0  0  0  0  0  0
    7.1853    0.0838   18.5624 C   0  0  0  0  0  0  0  0  0  0  0  0
    8.1282   -0.4011   18.3153 H   0  0  0  0  0  0  0  0  0  0  0  0
    6.6940   -0.0092   19.8903 C   0  0  0  0  0  0  0  0  0  0  0  0
    7.3881   -0.7217   20.8969 N   0  0  0  0  0  0  0  0  0  0  0  0
    6.6937   -1.6576   21.7718 C   0  0  0  0  0  0  0  0  0  0  0  0
    7.2204   -2.6297   21.7881 H   0  0  0  0  0  0  0  0  0  0  0  0
    5.7036   -1.8309   21.3414 H   0  0  0  0  0  0  0  0  0  0  0  0
    6.4725   -1.1878   23.2247 C   0  0  0  0  0  0  0  0  0  0  0  0
    6.0257   -0.1790   23.2073 H   0  0  0  0  0  0  0  0  0  0  0  0
    5.7521   -1.8812   23.6762 H   0  0  0  0  0  0  0  0  0  0  0  0
    7.6214   -1.1813   24.1048 N   0  0  0  0  0  0  0  0  0  0  0  0
    7.7297   -2.2247   25.0199 C   0  0  0  0  0  0  0  0  0  0  0  0
    8.7320   -3.1393   25.1624 C   0  0  0  0  0  0  0  0  0  0  0  0
    9.6264   -3.2325   24.5588 H   0  0  0  0  0  0  0  0  0  0  0  0
    8.4158   -4.0088   26.1895 N   0  0  0  0  0  0  0  0  0  0  0  0
    9.0095   -4.7338   26.5600 H   0  0  0  0  0  0  0  0  0  0  0  0
    7.2074   -3.6414   26.7361 C   0  0  0  0  0  0  0  0  0  0  0  0
    6.5029   -4.1690   27.8331 C   0  0  0  0  0  0  0  0  0  0  0  0
    6.9044   -4.9950   28.4102 H   0  0  0  0  0  0  0  0  0  0  0  0
    5.3084   -3.5616   28.2020 C   0  0  0  0  0  0  0  0  0  0  0  0
    4.7616   -3.9244   29.0682 H   0  0  0  0  0  0  0  0  0  0  0  0
    4.8008   -2.4539   27.4839 C   0  0  0  0  0  0  0  0  0  0  0  0
    3.8683   -1.9941   27.7961 H   0  0  0  0  0  0  0  0  0  0  0  0
    5.4909   -1.9385   26.3949 C   0  0  0  0  0  0  0  0  0  0  0  0
    5.0893   -1.0779   25.8613 H   0  0  0  0  0  0  0  0  0  0  0  0
    6.7222   -2.5285   26.0158 C   0  0  0  0  0  0  0  0  0  0  0  0
    8.7889   -0.4335   23.6938 C   0  0  0  0  0  0  0  0  0  0  0  0
    9.5049   -0.4599   24.5289 H   0  0  0  0  0  0  0  0  0  0  0  0
    8.4869    0.6216   23.5698 H   0  0  0  0  0  0  0  0  0  0  0  0
    9.4284   -0.9514   22.3923 C   0  0  0  0  0  0  0  0  0  0  0  0
    9.3995   -2.0499   22.3836 H   0  0  0  0  0  0  0  0  0  0  0  0
   10.4824   -0.6541   22.3715 H   0  0  0  0  0  0  0  0  0  0  0  0
    8.8003   -0.4193   21.0940 C   0  0  0  0  0  0  0  0  0  0  0  0
    9.3883   -0.7985   20.2373 H   0  0  0  0  0  0  0  0  0  0  0  0
    8.9077    0.6791   21.0621 H   0  0  0  0  0  0  0  0  0  0  0  0
    5.4632    0.6345   20.1371 C   0  0  0  0  0  0  0  0  0  0  0  0
    5.0388    0.6004   21.1403 H   0  0  0  0  0  0  0  0  0  0  0  0
    4.8150    1.3088   19.0927 C   0  0  0  0  0  0  0  0  0  0  0  0
    3.8753    1.8300   19.2523 H   0  0  0  0  0  0  0  0  0  0  0  0
  1  2  1  0
  2  3  2  0
  3  4  1  0
  4  5  1  0
  4  6  2  0
  6  7  1  0
  7  8  1  0
  8  9  1  0
  8 10  1  0
  8 11  1  0
 11 12  1  0
 11 13  1  0
 11 14  1  0
 14 15  1  0
 15 16  2  0
 16 17  1  0
 16 18  1  0
 18 19  1  0
 18 20  1  0
 20 21  2  0
 21 22  1  0
 21 23  1  0
 23 24  1  0
 23 25  2  0
 25 26  1  0
 25 27  1  0
 27 28  1  0
 27 29  2  0
 14 30  1  0
 30 31  1  0
 30 32  1  0
 30 33  1  0
 33 34  1  0
 33 35  1  0
 33 36  1  0
 36 37  1  0
 36 38  1  0
  6 39  1  0
 39 40  1  0
 39 41  2  0
 41 42  1  0
 41  2  1  0
 36  7  1  0
 29 15  1  0
 29 20  1  0
M  END
>  <cnnaffinity>  (1) 
-5.38077

>  <filename>  (1) 
c1cncc(N2CCCN(c3c[nH]c4ccccc34)CC2)c1

$$$$
