
     RDKit          3D

 36 38  0  0  0  0  0  0  0  0999 V2000
    4.8924    1.8536   17.0020 H   0  0  0  0  0  0  0  0  0  0  0  0
    5.3969    1.3249   17.8082 C   0  0  0  0  0  0  0  0  0  0  0  0
    6.5542    0.7212   17.4911 N   0  0  0  0  0  0  0  0  0  0  0  0
    7.1977    0.0714   18.4773 C   0  0  0  0  0  0  0  0  0  0  0  0
    8.1268   -0.4249   18.2067 H   0  0  0  0  0  0  0  0  0  0  0  0
    6.7446   -0.0282   19.8135 C   0  0  0  0  0  0  0  0  0  0  0  0
    7.5088   -0.7617   20.7890 N   0  0  0  0  0  0  0  0  0  0  0  0
    8.3222    0.0976   21.6644 C   0  0  0  0  0  0  0  0  0  0  0  0
    8.7488    0.9171   21.0744 H   0  0  0  0  0  0  0  0  0  0  0  0
    7.7003    0.5654   22.4528 H   0  0  0  0  0  0  0  0  0  0  0  0
    9.4443   -0.7203   22.3069 C   0  0  0  0  0  0  0  0  0  0  0  0
   10.0789   -0.0726   22.9245 H   0  0  0  0  0  0  0  0  0  0  0  0
   10.0690   -1.1323   21.5012 H   0  0  0  0  0  0  0  0  0  0  0  0
    8.8691   -1.8801   23.1236 C   0  0  0  0  0  0  0  0  0  0  0  0
    8.3102   -1.5032   23.9967 H   0  0  0  0  0  0  0  0  0  0  0  0
    9.6840   -2.5092   23.5042 H   0  0  0  0  0  0  0  0  0  0  0  0
    7.9499   -2.7145   22.2276 C   0  0  0  0  0  0  0  0  0  0  0  0
    7.4765   -3.5156   22.8098 H   0  0  0  0  0  0  0  0  0  0  0  0
    8.5701   -3.1984   21.4557 H   0  0  0  0  0  0  0  0  0  0  0  0
    6.8613   -1.8674   21.5232 C   0  0  2  0  0  0  0  0  0  0  0  0
    6.1887   -1.4537   22.3031 H   0  0  0  0  0  0  0  0  0  0  0  0
    6.0461   -2.7477   20.5659 C   0  0  0  0  0  0  0  0  0  0  0  0
    6.7152   -3.1736   19.8260 H   0  0  0  0  0  0  0  0  0  0  0  0
    5.3262   -2.1382   20.0033 H   0  0  0  0  0  0  0  0  0  0  0  0
    5.3946   -3.8838   21.2765 C   0  0  0  0  0  0  0  0  0  0  0  0
    5.7033   -5.1863   20.9755 N   0  0  0  0  0  0  0  0  0  0  0  0
    4.9688   -5.9271   21.7628 C   0  0  0  0  0  0  0  0  0  0  0  0
    4.9842   -7.0099   21.7690 H   0  0  0  0  0  0  0  0  0  0  0  0
    4.1928   -5.1637   22.5840 N   0  0  0  0  0  0  0  0  0  0  0  0
    3.4354   -5.4948   23.1623 H   0  0  0  0  0  0  0  0  0  0  0  0
    4.4736   -3.8481   22.2797 C   0  0  0  0  0  0  0  0  0  0  0  0
    4.0756   -3.0042   22.8172 H   0  0  0  0  0  0  0  0  0  0  0  0
    5.5365    0.6199   20.1175 C   0  0  0  0  0  0  0  0  0  0  0  0
    5.1355    0.5809   21.1306 H   0  0  0  0  0  0  0  0  0  0  0  0
    4.8525    1.2972   19.0976 C   0  0  0  0  0  0  0  0  0  0  0  0
    3.9191    1.8128   19.2914 H   0  0  0  0  0  0  0  0  0  0  0  0
  1  2  1  0
  2  3  2  0
  3  4  1  0
  4  5  1  0
  4  6  2  0
  6  7  1  0
  7  8  1  0
  8  9  1  0
  8 10  1  0
  8 11  1  0
 11 12  1  0
 11 13  1  0
 11 14  1  0
 14 15  1  0
 14 16  1  0
 14 17  1  0
 17 18  1  0
 17 19  1  0
 17 20  1  0
 20 21  1  1
 20 22  1  0
 22 23  1  0
 22 24  1  0
 22 25  1  0
 25 26  1  0
 26 27  2  0
 27 28  1  0
 27 29  1  0
 29 30  1  0
 29 31  1  0
 31 32  1  0
  6 33  1  0
 33 34  1  0
 33 35  2  0
 35 36  1  0
 35  2  1  0
 20  7  1  0
 31 25  2  0
M  END
>  <cnnaffinity>  (1) 
-5.52489

>  <filename>  (1) 
c1cncc(N2CCCC[C@@H]2Cc2c[nH]cn2)c1

$$$$
