
     RDKit          3D

 28 30  0  0  0  0  0  0  0  0999 V2000
    6.7263   -6.5649   26.3928 H   0  0  0  0  0  0  0  0  0  0  0  0
    7.1359   -5.9359   25.6123 C   0  0  0  0  0  0  0  0  0  0  0  0
    6.4152   -4.8380   25.1977 N   0  0  0  0  0  0  0  0  0  0  0  0
    7.0514   -4.2601   24.2298 C   0  0  0  0  0  0  0  0  0  0  0  0
    6.6348   -3.0596   23.7514 N   0  0  0  0  0  0  0  0  0  0  0  0
    5.7194   -2.8309   24.1186 H   0  0  0  0  0  0  0  0  0  0  0  0
    7.3629   -2.1998   22.9009 C   0  0  0  0  0  0  0  0  0  0  0  0
    8.7664   -1.9736   22.9959 C   0  0  0  0  0  0  0  0  0  0  0  0
    9.3573   -2.4491   23.7799 H   0  0  0  0  0  0  0  0  0  0  0  0
    9.4432   -1.1909   22.1485 N   0  0  0  0  0  0  0  0  0  0  0  0
    8.7610   -0.5879   21.1668 C   0  0  0  0  0  0  0  0  0  0  0  0
    9.3461    0.0512   20.5084 H   0  0  0  0  0  0  0  0  0  0  0  0
    7.3721   -0.7200   20.9821 C   0  0  0  0  0  0  0  0  0  0  0  0
    6.6506    0.0022   19.8953 C   0  0  0  0  0  0  0  0  0  0  0  0
    7.1577    0.0606   18.5822 C   0  0  0  0  0  0  0  0  0  0  0  0
    8.1021   -0.4275   18.3448 H   0  0  0  0  0  0  0  0  0  0  0  0
    6.5515    0.6777   17.5614 N   0  0  0  0  0  0  0  0  0  0  0  0
    5.3928    1.3014   17.8229 C   0  0  0  0  0  0  0  0  0  0  0  0
    4.9254    1.8046   16.9792 H   0  0  0  0  0  0  0  0  0  0  0  0
    4.7984    1.3189   19.0892 C   0  0  0  0  0  0  0  0  0  0  0  0
    3.8665    1.8510   19.2375 H   0  0  0  0  0  0  0  0  0  0  0  0
    5.4318    0.6533   20.1396 C   0  0  0  0  0  0  0  0  0  0  0  0
    5.0119    0.6509   21.1473 H   0  0  0  0  0  0  0  0  0  0  0  0
    6.6767   -1.5472   21.8807 C   0  0  0  0  0  0  0  0  0  0  0  0
    5.6064   -1.7137   21.7792 H   0  0  0  0  0  0  0  0  0  0  0  0
    8.4615   -5.0910   23.6203 S   0  0  0  0  0  0  0  0  0  0  0  0
    8.2870   -6.1856   24.9382 C   0  0  0  0  0  0  0  0  0  0  0  0
    9.0386   -6.9306   25.1209 H   0  0  0  0  0  0  0  0  0  0  0  0
  1  2  1  0
  2  3  1  0
  3  4  2  0
  4  5  1  0
  5  6  1  0
  5  7  1  0
  7  8  2  0
  8  9  1  0
  8 10  1  0
 10 11  2  0
 11 12  1  0
 11 13  1  0
 13 14  1  0
 14 15  2  0
 15 16  1  0
 15 17  1  0
 17 18  2  0
 18 19  1  0
 18 20  1  0
 20 21  1  0
 20 22  2  0
 22 23  1  0
 13 24  2  0
 24 25  1  0
  4 26  1  0
 26 27  1  0
 27 28  1  0
 27  2  2  0
 24  7  1  0
 22 14  1  0
M  END
>  <cnnaffinity>  (1) 
-5.27715

>  <filename>  (1) 
c1cncc(-c2cncc(Nc3nccs3)c2)c1

$$$$
