
     RDKit          3D

 31 34  0  0  0  0  0  0  0  0999 V2000
    4.9197    1.7801   16.9970 H   0  0  0  0  0  0  0  0  0  0  0  0
    5.4042    1.2939   17.8384 C   0  0  0  0  0  0  0  0  0  0  0  0
    6.5702    0.6792   17.5781 N   0  0  0  0  0  0  0  0  0  0  0  0
    7.1699    0.0578   18.5957 C   0  0  0  0  0  0  0  0  0  0  0  0
    8.1157   -0.4369   18.3791 H   0  0  0  0  0  0  0  0  0  0  0  0
    6.6482    0.0227   19.8967 C   0  0  0  0  0  0  0  0  0  0  0  0
    7.3733   -0.7209   20.9277 C   0  0  0  0  0  0  0  0  0  0  0  0
    7.9420   -1.8818   20.7402 N   0  0  0  0  0  0  0  0  0  0  0  0
    8.4407   -2.3092   21.9444 N   0  0  0  0  0  0  0  0  0  0  0  0
    8.1754   -1.3806   22.8186 C   0  0  0  0  0  0  0  0  0  0  0  0
    8.4633   -1.3906   23.8604 H   0  0  0  0  0  0  0  0  0  0  0  0
    7.4988   -0.3327   22.2461 N   0  0  0  0  0  0  0  0  0  0  0  0
    7.1589    0.9149   22.8675 C   0  0  0  0  0  0  0  0  0  0  0  0
    6.5802    0.9031   24.1677 C   0  0  0  0  0  0  0  0  0  0  0  0
    6.4039   -0.0514   24.6580 H   0  0  0  0  0  0  0  0  0  0  0  0
    6.2351    2.0866   24.8152 C   0  0  0  0  0  0  0  0  0  0  0  0
    5.8029    2.0993   25.8152 H   0  0  0  0  0  0  0  0  0  0  0  0
    6.4776    3.2933   24.1351 C   0  0  0  0  0  0  0  0  0  0  0  0
    7.0531    3.3213   22.8443 C   0  0  0  0  0  0  0  0  0  0  0  0
    7.4073    2.1177   22.2108 C   0  0  0  0  0  0  0  0  0  0  0  0
    7.8346    2.1384   21.2138 H   0  0  0  0  0  0  0  0  0  0  0  0
    7.1506    4.6995   22.4616 C   0  0  0  0  0  0  0  0  0  0  0  0
    7.5471    5.0568   21.5215 H   0  0  0  0  0  0  0  0  0  0  0  0
    6.6581    5.4466   23.4924 C   0  0  0  0  0  0  0  0  0  0  0  0
    6.5639    6.5260   23.5849 H   0  0  0  0  0  0  0  0  0  0  0  0
    6.2507    4.5963   24.5059 N   0  0  0  0  0  0  0  0  0  0  0  0
    5.8494    4.8612   25.3867 H   0  0  0  0  0  0  0  0  0  0  0  0
    5.4212    0.6520   20.1517 C   0  0  0  0  0  0  0  0  0  0  0  0
    5.0034    0.6402   21.1625 H   0  0  0  0  0  0  0  0  0  0  0  0
    4.7962    1.3103   19.0998 C   0  0  0  0  0  0  0  0  0  0  0  0
    3.8671    1.8458   19.2560 H   0  0  0  0  0  0  0  0  0  0  0  0
  1  2  1  0
  2  3  2  0
  3  4  1  0
  4  5  1  0
  4  6  2  0
  6  7  1  0
  7  8  2  0
  8  9  1  0
  9 10  2  0
 10 11  1  0
 10 12  1  0
 12 13  1  0
 13 14  2  0
 14 15  1  0
 14 16  1  0
 16 17  1  0
 16 18  2  0
 18 19  1  0
 19 20  2  0
 20 21  1  0
 19 22  1  0
 22 23  1  0
 22 24  2  0
 24 25  1  0
 24 26  1  0
 26 27  1  0
  6 28  1  0
 28 29  1  0
 28 30  2  0
 30 31  1  0
 30  2  1  0
 12  7  1  0
 20 13  1  0
 26 18  1  0
M  END
>  <cnnaffinity>  (1) 
-5.14187

>  <filename>  (1) 
c1cncc(-c2nncn2-c2ccc3[nH]ccc3c2)c1

$$$$
