
     RDKit          3D

 28 30  0  0  0  0  0  0  0  0999 V2000
    7.6527   -5.9605   24.3176 H   0  0  0  0  0  0  0  0  0  0  0  0
    8.0222   -5.0823   23.8020 C   0  0  0  0  0  0  0  0  0  0  0  0
    9.0389   -4.4363   24.3733 N   0  0  0  0  0  0  0  0  0  0  0  0
    9.4902   -3.3628   23.7325 C   0  0  0  0  0  0  0  0  0  0  0  0
   10.3132   -2.8171   24.1965 H   0  0  0  0  0  0  0  0  0  0  0  0
    8.9479   -2.9066   22.5268 C   0  0  0  0  0  0  0  0  0  0  0  0
    9.4160   -1.7120   21.8316 C   0  0  0  0  0  0  0  0  0  0  0  0
    8.7126   -0.7684   21.1005 C   0  0  0  0  0  0  0  0  0  0  0  0
    7.3233   -0.7064   20.9279 N   0  0  0  0  0  0  0  0  0  0  0  0
    6.7614   -1.0571   21.6971 H   0  0  0  0  0  0  0  0  0  0  0  0
    6.6654   -0.0078   19.9116 C   0  0  0  0  0  0  0  0  0  0  0  0
    7.1743    0.0618   18.5900 C   0  0  0  0  0  0  0  0  0  0  0  0
    8.1211   -0.4302   18.3768 H   0  0  0  0  0  0  0  0  0  0  0  0
    6.5625    0.6829   17.5736 N   0  0  0  0  0  0  0  0  0  0  0  0
    5.3969    1.2971   17.8383 C   0  0  0  0  0  0  0  0  0  0  0  0
    4.9094    1.7817   16.9966 H   0  0  0  0  0  0  0  0  0  0  0  0
    4.8103    1.3080   19.1106 C   0  0  0  0  0  0  0  0  0  0  0  0
    3.8776    1.8410   19.2651 H   0  0  0  0  0  0  0  0  0  0  0  0
    5.4433    0.6373   20.1619 C   0  0  0  0  0  0  0  0  0  0  0  0
    5.0176    0.6226   21.1674 H   0  0  0  0  0  0  0  0  0  0  0  0
    9.7004    0.1436   20.6669 C   0  0  0  0  0  0  0  0  0  0  0  0
    9.5227    1.0235   20.0740 H   0  0  0  0  0  0  0  0  0  0  0  0
   10.9127   -0.1753   21.1020 N   0  0  0  0  0  0  0  0  0  0  0  0
   10.7105   -1.2957   21.8089 N   0  0  0  0  0  0  0  0  0  0  0  0
   11.4959   -1.7557   22.2392 H   0  0  0  0  0  0  0  0  0  0  0  0
    7.8823   -3.6739   22.0412 C   0  0  0  0  0  0  0  0  0  0  0  0
    7.4119   -3.3976   21.0984 H   0  0  0  0  0  0  0  0  0  0  0  0
    7.4207   -4.7607   22.6556 N   0  0  0  0  0  0  0  0  0  0  0  0
  1  2  1  0
  2  3  2  0
  3  4  1  0
  4  5  1  0
  4  6  2  0
  6  7  1  0
  7  8  2  0
  8  9  1  0
  9 10  1  0
  9 11  1  0
 11 12  2  0
 12 13  1  0
 12 14  1  0
 14 15  2  0
 15 16  1  0
 15 17  1  0
 17 18  1  0
 17 19  2  0
 19 20  1  0
  8 21  1  0
 21 22  1  0
 21 23  2  0
 23 24  1  0
 24 25  1  0
  6 26  1  0
 26 27  1  0
 26 28  2  0
 28  2  1  0
 24  7  1  0
 19 11  1  0
M  END
>  <cnnaffinity>  (1) 
-5.58697

>  <filename>  (1) 
c1cncc(Nc2cn[nH]c2-c2cncnc2)c1

$$$$
