
     RDKit          3D

 34 37  0  0  0  0  0  0  0  0999 V2000
    4.9292    1.7749   17.0000 H   0  0  0  0  0  0  0  0  0  0  0  0
    5.4079    1.2868   17.8455 C   0  0  0  0  0  0  0  0  0  0  0  0
    6.5713    0.6678   17.5949 N   0  0  0  0  0  0  0  0  0  0  0  0
    7.1761    0.0546   18.6158 C   0  0  0  0  0  0  0  0  0  0  0  0
    8.1224   -0.4271   18.3737 H   0  0  0  0  0  0  0  0  0  0  0  0
    6.6505    0.0103   19.9178 C   0  0  0  0  0  0  0  0  0  0  0  0
    7.3514   -0.6915   21.0012 C   0  0  0  0  0  0  0  0  0  0  0  0
    6.8713   -0.7388   22.2022 N   0  0  0  0  0  0  0  0  0  0  0  0
    7.7163   -1.4476   22.9936 N   0  0  0  0  0  0  0  0  0  0  0  0
    7.7344   -1.8273   24.3300 C   0  0  0  0  0  0  0  0  0  0  0  0
    6.7906   -1.4377   25.2570 N   0  0  0  0  0  0  0  0  0  0  0  0
    5.9942   -0.9205   24.9124 H   0  0  0  0  0  0  0  0  0  0  0  0
    6.7921   -2.0012   26.5993 C   0  0  0  0  0  0  0  0  0  0  0  0
    6.0665   -1.4535   27.2082 H   0  0  0  0  0  0  0  0  0  0  0  0
    7.7748   -1.8450   27.0614 H   0  0  0  0  0  0  0  0  0  0  0  0
    6.4669   -3.4808   26.6500 C   0  0  0  0  0  0  0  0  0  0  0  0
    5.2341   -3.9490   26.1875 C   0  0  0  0  0  0  0  0  0  0  0  0
    4.4928   -3.2605   25.7979 H   0  0  0  0  0  0  0  0  0  0  0  0
    4.9664   -5.3162   26.2148 C   0  0  0  0  0  0  0  0  0  0  0  0
    4.0107   -5.6844   25.8589 H   0  0  0  0  0  0  0  0  0  0  0  0
    5.8229   -6.2408   26.6620 N   0  0  0  0  0  0  0  0  0  0  0  0
    7.0016   -5.7906   27.1072 C   0  0  0  0  0  0  0  0  0  0  0  0
    7.6935   -6.5402   27.4742 H   0  0  0  0  0  0  0  0  0  0  0  0
    7.3682   -4.4419   27.1246 C   0  0  0  0  0  0  0  0  0  0  0  0
    8.3463   -4.1548   27.4955 H   0  0  0  0  0  0  0  0  0  0  0  0
    8.9048   -2.5531   24.4377 C   0  0  0  0  0  0  0  0  0  0  0  0
    9.2744   -3.0272   25.3378 H   0  0  0  0  0  0  0  0  0  0  0  0
    9.5940   -2.6383   23.2463 N   0  0  0  0  0  0  0  0  0  0  0  0
    8.8455   -1.9607   22.4244 C   0  0  0  0  0  0  0  0  0  0  0  0
    8.8948   -1.5236   20.7511 S   0  0  0  0  0  0  0  0  0  0  0  0
    5.4262    0.6579   20.1664 C   0  0  0  0  0  0  0  0  0  0  0  0
    4.9958    0.6384   21.1701 H   0  0  0  0  0  0  0  0  0  0  0  0
    4.8035    1.3109   19.1069 C   0  0  0  0  0  0  0  0  0  0  0  0
    3.8726    1.8447   19.2549 H   0  0  0  0  0  0  0  0  0  0  0  0
  1  2  1  0
  2  3  2  0
  3  4  1  0
  4  5  1  0
  4  6  2  0
  6  7  1  0
  7  8  2  0
  8  9  1  0
  9 10  1  0
 10 11  1  0
 11 12  1  0
 11 13  1  0
 13 14  1  0
 13 15  1  0
 13 16  1  0
 16 17  2  0
 17 18  1  0
 17 19  1  0
 19 20  1  0
 19 21  2  0
 21 22  1  0
 22 23  1  0
 22 24  2  0
 24 25  1  0
 10 26  2  0
 26 27  1  0
 26 28  1  0
 28 29  2  0
 29 30  1  0
  6 31  1  0
 31 32  1  0
 31 33  2  0
 33 34  1  0
 33  2  1  0
 30  7  1  0
 29  9  1  0
 24 16  1  0
M  END
>  <cnnaffinity>  (1) 
-5.234

>  <filename>  (1) 
c1cncc(-c2nn3c(NCc4ccncc4)cnc3s2)c1

$$$$
