
     RDKit          3D

 38 41  0  0  0  0  0  0  0  0999 V2000
    5.2921    1.7490   17.2391 H   0  0  0  0  0  0  0  0  0  0  0  0
    5.6513    1.0450   17.9914 C   0  0  0  0  0  0  0  0  0  0  0  0
    6.7623    0.3651   17.6692 N   0  0  0  0  0  0  0  0  0  0  0  0
    7.2894   -0.4317   18.6095 C   0  0  0  0  0  0  0  0  0  0  0  0
    8.1677   -0.9961   18.3013 H   0  0  0  0  0  0  0  0  0  0  0  0
    6.7740   -0.5734   19.9153 C   0  0  0  0  0  0  0  0  0  0  0  0
    7.6203   -1.1762   20.9847 C   0  0  0  0  0  0  0  0  0  0  0  0
    8.9399   -0.9629   21.1758 C   0  0  0  0  0  0  0  0  0  0  0  0
    9.6252   -0.4694   20.4991 H   0  0  0  0  0  0  0  0  0  0  0  0
    9.5306   -1.5004   22.7286 S   0  0  0  0  0  0  0  0  0  0  0  0
    7.9411   -2.0982   23.1048 C   0  0  0  0  0  0  0  0  0  0  0  0
    7.3516   -2.7722   24.0746 N   0  0  0  0  0  0  0  0  0  0  0  0
    6.0962   -2.9285   23.5665 C   0  0  0  0  0  0  0  0  0  0  0  0
    5.0367   -3.6671   24.2970 C   0  0  0  0  0  0  0  0  0  0  0  0
    5.5489   -4.4067   24.9158 H   0  0  0  0  0  0  0  0  0  0  0  0
    4.4300   -4.1934   23.5535 H   0  0  0  0  0  0  0  0  0  0  0  0
    4.1368   -2.7960   25.1838 C   0  0  0  0  0  0  0  0  0  0  0  0
    3.4792   -2.1744   24.5596 H   0  0  0  0  0  0  0  0  0  0  0  0
    3.4510   -3.4595   25.7529 H   0  0  0  0  0  0  0  0  0  0  0  0
    4.9012   -1.9292   26.0650 N   0  0  0  0  0  0  0  0  0  0  0  0
    4.1531   -0.7826   26.5632 C   0  0  0  0  0  0  0  0  0  0  0  0
    3.9639   -0.0664   25.7539 H   0  0  0  0  0  0  0  0  0  0  0  0
    3.1680   -1.0934   26.9643 H   0  0  0  0  0  0  0  0  0  0  0  0
    5.0364   -0.2024   27.6727 C   0  0  0  0  0  0  0  0  0  0  0  0
    4.4302    0.1691   28.5028 H   0  0  0  0  0  0  0  0  0  0  0  0
    5.6222    0.6408   27.2986 H   0  0  0  0  0  0  0  0  0  0  0  0
    5.9556   -1.3684   28.0934 C   0  0  0  0  0  0  0  0  0  0  0  0
    7.0010   -1.1376   27.8715 H   0  0  0  0  0  0  0  0  0  0  0  0
    5.8773   -1.5757   29.1647 H   0  0  0  0  0  0  0  0  0  0  0  0
    5.4916   -2.5627   27.2453 C   0  0  0  0  0  0  0  0  0  0  0  0
    4.7428   -3.1613   27.8030 H   0  0  0  0  0  0  0  0  0  0  0  0
    6.3122   -3.2420   26.9732 H   0  0  0  0  0  0  0  0  0  0  0  0
    5.8933   -2.4415   22.3528 N   0  0  0  0  0  0  0  0  0  0  0  0
    7.0901   -1.8588   22.0861 N   0  0  0  0  0  0  0  0  0  0  0  0
    5.5303    0.0358   20.1743 C   0  0  0  0  0  0  0  0  0  0  0  0
    5.0312   -0.1392   21.1273 H   0  0  0  0  0  0  0  0  0  0  0  0
    4.9803    0.8799   19.2058 C   0  0  0  0  0  0  0  0  0  0  0  0
    4.0692    1.4424   19.3913 H   0  0  0  0  0  0  0  0  0  0  0  0
  1  2  1  0
  2  3  2  0
  3  4  1  0
  4  5  1  0
  4  6  2  0
  6  7  1  0
  7  8  2  0
  8  9  1  0
  8 10  1  0
 10 11  1  0
 11 12  2  0
 12 13  1  0
 13 14  1  0
 14 15  1  0
 14 16  1  0
 14 17  1  0
 17 18  1  0
 17 19  1  0
 17 20  1  0
 20 21  1  0
 21 22  1  0
 21 23  1  0
 21 24  1  0
 24 25  1  0
 24 26  1  0
 24 27  1  0
 27 28  1  0
 27 29  1  0
 27 30  1  0
 30 31  1  0
 30 32  1  0
 13 33  2  0
 33 34  1  0
  6 35  1  0
 35 36  1  0
 35 37  2  0
 37 38  1  0
 37  2  1  0
 34  7  1  0
 34 11  1  0
 30 20  1  0
M  END
>  <cnnaffinity>  (1) 
-5.03684

>  <filename>  (1) 
c1cncc(-c2csc3nc(CCN4CCCC4)nn23)c1

$$$$
