
     RDKit          3D

 35 38  0  0  0  0  0  0  0  0999 V2000
    4.9142    1.8144   16.9688 H   0  0  0  0  0  0  0  0  0  0  0  0
    5.3806    1.3082   17.8129 C   0  0  0  0  0  0  0  0  0  0  0  0
    6.5422    0.6856   17.5534 N   0  0  0  0  0  0  0  0  0  0  0  0
    7.1563    0.0715   18.5712 C   0  0  0  0  0  0  0  0  0  0  0  0
    8.1101   -0.3908   18.3197 H   0  0  0  0  0  0  0  0  0  0  0  0
    6.6592    0.0304   19.8942 C   0  0  0  0  0  0  0  0  0  0  0  0
    7.3784   -0.6331   21.0014 C   0  0  0  0  0  0  0  0  0  0  0  0
    7.5149   -0.3100   22.3487 C   0  0  0  0  0  0  0  0  0  0  0  0
    6.9863    0.8386   22.9830 N   0  0  0  0  0  0  0  0  0  0  0  0
    7.0550    1.7400   22.5404 H   0  0  0  0  0  0  0  0  0  0  0  0
    6.7941    1.0385   24.3333 C   0  0  0  0  0  0  0  0  0  0  0  0
    6.9594    2.2705   24.7608 N   0  0  0  0  0  0  0  0  0  0  0  0
    6.7663    2.4742   26.1080 C   0  0  0  0  0  0  0  0  0  0  0  0
    6.9827    3.7733   26.6596 C   0  0  0  0  0  0  0  0  0  0  0  0
    7.3141    4.5475   25.9760 H   0  0  0  0  0  0  0  0  0  0  0  0
    6.7670    4.0167   28.0039 C   0  0  0  0  0  0  0  0  0  0  0  0
    6.9177    5.0104   28.4187 H   0  0  0  0  0  0  0  0  0  0  0  0
    6.3312    2.9802   28.8718 C   0  0  0  0  0  0  0  0  0  0  0  0
    6.1570    3.1876   29.9241 H   0  0  0  0  0  0  0  0  0  0  0  0
    6.1246    1.7147   28.3790 C   0  0  0  0  0  0  0  0  0  0  0  0
    5.7905    0.9044   29.0237 H   0  0  0  0  0  0  0  0  0  0  0  0
    6.3374    1.4353   27.0033 C   0  0  0  0  0  0  0  0  0  0  0  0
    6.1258    0.1405   26.4510 C   0  0  0  0  0  0  0  0  0  0  0  0
    5.7872   -0.6713   27.0918 H   0  0  0  0  0  0  0  0  0  0  0  0
    6.3546   -0.0572   25.1210 C   0  0  0  0  0  0  0  0  0  0  0  0
    6.2120   -0.9784   24.5786 H   0  0  0  0  0  0  0  0  0  0  0  0
    8.2984   -1.3747   22.8883 C   0  0  0  0  0  0  0  0  0  0  0  0
    8.6568   -1.5055   23.9058 H   0  0  0  0  0  0  0  0  0  0  0  0
    8.6131   -2.2763   21.9632 N   0  0  0  0  0  0  0  0  0  0  0  0
    8.0556   -1.8052   20.8397 N   0  0  0  0  0  0  0  0  0  0  0  0
    8.1198   -2.3490   19.9871 H   0  0  0  0  0  0  0  0  0  0  0  0
    5.4329    0.6697   20.1353 C   0  0  0  0  0  0  0  0  0  0  0  0
    5.0168    0.6402   21.1406 H   0  0  0  0  0  0  0  0  0  0  0  0
    4.7878    1.3207   19.0801 C   0  0  0  0  0  0  0  0  0  0  0  0
    3.8562    1.8524   19.2282 H   0  0  0  0  0  0  0  0  0  0  0  0
  1  2  1  0
  2  3  2  0
  3  4  1  0
  4  5  1  0
  4  6  2  0
  6  7  1  0
  7  8  2  0
  8  9  1  0
  9 10  1  0
  9 11  1  0
 11 12  2  0
 12 13  1  0
 13 14  2  0
 14 15  1  0
 14 16  1  0
 16 17  1  0
 16 18  2  0
 18 19  1  0
 18 20  1  0
 20 21  1  0
 20 22  2  0
 22 23  1  0
 23 24  1  0
 23 25  2  0
 25 26  1  0
  8 27  1  0
 27 28  1  0
 27 29  2  0
 29 30  1  0
 30 31  1  0
  6 32  1  0
 32 33  1  0
 32 34  2  0
 34 35  1  0
 34  2  1  0
 30  7  1  0
 25 11  1  0
 22 13  1  0
M  END
>  <cnnaffinity>  (1) 
-5.51242

>  <filename>  (1) 
c1cncc(-c2[nH]ncc2Nc2ccc3ccccc3n2)c1

$$$$
