
     RDKit          3D

 36 38  0  0  0  0  0  0  0  0999 V2000
    4.7487    1.6491   18.4211 C   0  0  0  0  0  0  0  0  0  0  0  0
    5.3716    1.6575   17.1683 C   0  0  0  0  0  0  0  0  0  0  0  0
    6.5250    1.0261   16.9154 N   0  0  0  0  0  0  0  0  0  0  0  0
    7.1048    0.3752   17.9256 C   0  0  0  0  0  0  0  0  0  0  0  0
    6.5764    0.3101   19.2221 C   0  0  0  0  0  0  0  0  0  0  0  0
    7.2838   -0.4296   20.2702 C   0  0  0  0  0  0  0  0  0  0  0  0
    8.4328   -1.1411   20.1037 C   0  0  0  0  0  0  0  0  0  0  0  0
    8.8565   -1.9055   21.6040 S   0  0  0  0  0  0  0  0  0  0  0  0
    7.4803   -1.1173   22.3357 C   0  0  0  0  0  0  0  0  0  0  0  0
    7.1390   -1.1901   23.6370 N   0  0  0  0  0  0  0  0  0  0  0  0
    8.0334   -1.6788   24.6533 C   0  0  0  0  0  0  0  0  0  0  0  0
    7.7141   -1.3193   26.1164 C   0  0  0  0  0  0  0  0  0  0  0  0
    6.4198   -1.9228   26.7081 C   0  0  0  0  0  0  0  0  0  0  0  0
    6.3901   -3.4551   26.6346 C   0  0  0  0  0  0  0  0  0  0  0  0
    7.7330   -4.2253   27.5927 S   0  0  0  0  0  0  0  0  0  0  0  0
    9.1494   -3.2917   26.9443 C   0  0  0  0  0  0  0  0  0  0  0  0
    8.9205   -1.7671   26.9886 C   0  0  0  0  0  0  0  0  0  0  0  0
    8.7642   -1.4517   28.0269 H   0  0  0  0  0  0  0  0  0  0  0  0
    9.8315   -1.2544   26.6565 H   0  0  0  0  0  0  0  0  0  0  0  0
    9.3910   -3.6305   25.9299 H   0  0  0  0  0  0  0  0  0  0  0  0
    9.9861   -3.6105   27.5692 H   0  0  0  0  0  0  0  0  0  0  0  0
    5.4603   -3.8432   27.0651 H   0  0  0  0  0  0  0  0  0  0  0  0
    6.4315   -3.7910   25.5897 H   0  0  0  0  0  0  0  0  0  0  0  0
    6.3583   -1.6259   27.7688 H   0  0  0  0  0  0  0  0  0  0  0  0
    5.5268   -1.5182   26.2096 H   0  0  0  0  0  0  0  0  0  0  0  0
    7.6271   -0.2251   26.1587 H   0  0  0  0  0  0  0  0  0  0  0  0
    9.0499   -1.3052   24.4475 H   0  0  0  0  0  0  0  0  0  0  0  0
    8.0945   -2.7691   24.5535 H   0  0  0  0  0  0  0  0  0  0  0  0
    6.2953   -0.6503   23.7576 H   0  0  0  0  0  0  0  0  0  0  0  0
    6.7460   -0.4167   21.5338 N   0  0  0  0  0  0  0  0  0  0  0  0
    9.0637   -1.2263   19.2333 H   0  0  0  0  0  0  0  0  0  0  0  0
    5.3634    0.9754   19.4713 C   0  0  0  0  0  0  0  0  0  0  0  0
    4.9366    0.9655   20.4747 H   0  0  0  0  0  0  0  0  0  0  0  0
    8.0421   -0.1158   17.6710 H   0  0  0  0  0  0  0  0  0  0  0  0
    4.9286    2.1946   16.3333 H   0  0  0  0  0  0  0  0  0  0  0  0
    3.8115    2.1749   18.5616 H   0  0  0  0  0  0  0  0  0  0  0  0
  1  2  2  0
  2  3  1  0
  3  4  2  0
  4  5  1  0
  5  6  1  0
  6  7  2  0
  7  8  1  0
  8  9  1  0
  9 10  1  0
 10 11  1  0
 11 12  1  0
 12 13  1  0
 13 14  1  0
 14 15  1  0
 15 16  1  0
 16 17  1  0
 17 18  1  0
 17 19  1  0
 16 20  1  0
 16 21  1  0
 14 22  1  0
 14 23  1  0
 13 24  1  0
 13 25  1  0
 12 26  1  0
 11 27  1  0
 11 28  1  0
 10 29  1  0
  9 30  2  0
  7 31  1  0
  5 32  2  0
 32 33  1  0
  4 34  1  0
  2 35  1  0
  1 36  1  0
 32  1  1  0
 30  6  1  0
 17 12  1  0
M  END
>  <cnnaffinity>  (1) 
-5.42831

>  <filename>  (1) 
c1cncc(-c2csc(NCC3CCSCC3)n2)c1

$$$$
