
     RDKit          3D

 34 36  0  0  0  0  0  0  0  0999 V2000
    4.9116    1.8096   16.9689 H   0  0  0  0  0  0  0  0  0  0  0  0
    5.3824    1.3092   17.8130 C   0  0  0  0  0  0  0  0  0  0  0  0
    6.5478    0.6928   17.5482 N   0  0  0  0  0  0  0  0  0  0  0  0
    7.1539    0.0645   18.5620 C   0  0  0  0  0  0  0  0  0  0  0  0
    8.1142   -0.3953   18.3248 H   0  0  0  0  0  0  0  0  0  0  0  0
    6.6471    0.0054   19.8740 C   0  0  0  0  0  0  0  0  0  0  0  0
    7.3693   -0.6727   20.9619 C   0  0  0  0  0  0  0  0  0  0  0  0
    7.5722   -0.3042   22.2895 C   0  0  0  0  0  0  0  0  0  0  0  0
    7.1531    0.8652   22.8752 N   0  0  0  0  0  0  0  0  0  0  0  0
    6.8904    1.6178   22.2502 H   0  0  0  0  0  0  0  0  0  0  0  0
    7.3230    1.0838   24.2330 N   0  0  0  0  0  0  0  0  0  0  0  0
    6.0228    1.3799   24.8746 C   0  0  0  0  0  0  0  0  0  0  0  0
    5.3108    0.6290   24.5191 H   0  0  0  0  0  0  0  0  0  0  0  0
    6.1721    1.2490   25.9496 H   0  0  0  0  0  0  0  0  0  0  0  0
    5.5019    2.8039   24.5923 C   0  0  0  0  0  0  0  0  0  0  0  0
    4.5880    2.9735   25.1696 H   0  0  0  0  0  0  0  0  0  0  0  0
    5.2222    2.8567   23.5217 H   0  0  0  0  0  0  0  0  0  0  0  0
    6.5145    3.8021   24.9798 N   0  0  0  0  0  0  0  0  0  0  0  0
    6.1658    4.7363   24.7788 H   0  0  0  0  0  0  0  0  0  0  0  0
    7.7745    3.5792   24.2480 C   0  0  0  0  0  0  0  0  0  0  0  0
    8.5167    4.3120   24.5811 H   0  0  0  0  0  0  0  0  0  0  0  0
    7.6751    3.6988   23.1518 H   0  0  0  0  0  0  0  0  0  0  0  0
    8.3046    2.1564   24.5199 C   0  0  0  0  0  0  0  0  0  0  0  0
    8.5559    2.0578   25.5802 H   0  0  0  0  0  0  0  0  0  0  0  0
    9.1998    1.9567   23.9231 H   0  0  0  0  0  0  0  0  0  0  0  0
    8.2885   -1.3793   22.8753 C   0  0  0  0  0  0  0  0  0  0  0  0
    8.6225   -1.4816   23.9021 H   0  0  0  0  0  0  0  0  0  0  0  0
    8.5244   -2.3338   21.9815 N   0  0  0  0  0  0  0  0  0  0  0  0
    7.9753   -1.8791   20.8418 N   0  0  0  0  0  0  0  0  0  0  0  0
    7.9940   -2.4566   20.0087 H   0  0  0  0  0  0  0  0  0  0  0  0
    5.4285    0.6581   20.1278 C   0  0  0  0  0  0  0  0  0  0  0  0
    5.0167    0.6284   21.1381 H   0  0  0  0  0  0  0  0  0  0  0  0
    4.7894    1.3192   19.0798 C   0  0  0  0  0  0  0  0  0  0  0  0
    3.8608    1.8516   19.2351 H   0  0  0  0  0  0  0  0  0  0  0  0
  1  2  1  0
  2  3  2  0
  3  4  1  0
  4  5  1  0
  4  6  2  0
  6  7  1  0
  7  8  2  0
  8  9  1  0
  9 10  1  0
  9 11  1  0
 11 12  1  0
 12 13  1  0
 12 14  1  0
 12 15  1  0
 15 16  1  0
 15 17  1  0
 15 18  1  0
 18 19  1  0
 18 20  1  0
 20 21  1  0
 20 22  1  0
 20 23  1  0
 23 24  1  0
 23 25  1  0
  8 26  1  0
 26 27  1  0
 26 28  2  0
 28 29  1  0
 29 30  1  0
  6 31  1  0
 31 32  1  0
 31 33  2  0
 33 34  1  0
 33  2  1  0
 29  7  1  0
 23 11  1  0
M  END
>  <cnnaffinity>  (1) 
-4.7856

>  <filename>  (1) 
c1cncc(-c2[nH]ncc2NN2CCNCC2)c1

$$$$
