
     RDKit          3D

 37 40  0  0  0  0  0  0  0  0999 V2000
    4.9658    1.8026   16.9879 H   0  0  0  0  0  0  0  0  0  0  0  0
    5.4398    1.3189   17.8436 C   0  0  0  0  0  0  0  0  0  0  0  0
    6.6163    0.7144   17.6140 N   0  0  0  0  0  0  0  0  0  0  0  0
    7.1990    0.0892   18.6496 C   0  0  0  0  0  0  0  0  0  0  0  0
    8.1546   -0.3803   18.4268 H   0  0  0  0  0  0  0  0  0  0  0  0
    6.6685    0.0243   19.9627 C   0  0  0  0  0  0  0  0  0  0  0  0
    7.3293   -0.6685   21.1070 C   0  0  0  0  0  0  0  0  0  0  0  0
    8.0387   -1.8991   21.1890 C   0  0  0  0  0  0  0  0  0  0  0  0
    8.2621   -2.6248   20.4342 H   0  0  0  0  0  0  0  0  0  0  0  0
    8.4536   -2.1935   22.4058 N   0  0  0  0  0  0  0  0  0  0  0  0
    8.0006   -1.1673   23.1514 N   0  0  0  0  0  0  0  0  0  0  0  0
    8.2854   -1.0412   24.1069 H   0  0  0  0  0  0  0  0  0  0  0  0
    7.3446   -0.2248   22.4337 C   0  0  0  0  0  0  0  0  0  0  0  0
    6.8763    0.9395   23.0159 N   0  0  0  0  0  0  0  0  0  0  0  0
    7.2650    2.2271   22.4302 C   0  0  0  0  0  0  0  0  0  0  0  0
    6.3766    2.7714   22.0592 H   0  0  0  0  0  0  0  0  0  0  0  0
    7.8878    2.0363   21.5450 H   0  0  0  0  0  0  0  0  0  0  0  0
    8.0402    3.1362   23.3870 C   0  0  0  0  0  0  0  0  0  0  0  0
    8.6112    4.3145   22.8831 C   0  0  0  0  0  0  0  0  0  0  0  0
    8.5221    4.5326   21.8185 H   0  0  0  0  0  0  0  0  0  0  0  0
    9.2839    5.2040   23.7264 C   0  0  0  0  0  0  0  0  0  0  0  0
    9.7185    6.1113   23.3085 H   0  0  0  0  0  0  0  0  0  0  0  0
    9.3932    4.9179   25.0933 C   0  0  0  0  0  0  0  0  0  0  0  0
    9.9088    5.6103   25.7571 H   0  0  0  0  0  0  0  0  0  0  0  0
    8.8400    3.7354   25.6009 C   0  0  0  0  0  0  0  0  0  0  0  0
    8.9226    3.5012   26.6622 H   0  0  0  0  0  0  0  0  0  0  0  0
    8.1726    2.8319   24.7573 C   0  0  0  0  0  0  0  0  0  0  0  0
    7.6272    1.5195   25.3055 C   0  0  0  0  0  0  0  0  0  0  0  0
    7.2548    1.6645   26.3261 H   0  0  0  0  0  0  0  0  0  0  0  0
    8.4498    0.7901   25.3686 H   0  0  0  0  0  0  0  0  0  0  0  0
    6.4971    0.9678   24.4270 C   0  0  0  0  0  0  0  0  0  0  0  0
    6.1994   -0.0388   24.7482 H   0  0  0  0  0  0  0  0  0  0  0  0
    5.6153    1.6172   24.5133 H   0  0  0  0  0  0  0  0  0  0  0  0
    5.4533    0.6941   20.1707 C   0  0  0  0  0  0  0  0  0  0  0  0
    5.0234    0.7169   21.1714 H   0  0  0  0  0  0  0  0  0  0  0  0
    4.8253    1.3326   19.0972 C   0  0  0  0  0  0  0  0  0  0  0  0
    3.8751    1.8360   19.2227 H   0  0  0  0  0  0  0  0  0  0  0  0
  1  2  1  0
  2  3  2  0
  3  4  1  0
  4  5  1  0
  4  6  2  0
  6  7  1  0
  7  8  1  0
  8  9  1  0
  8 10  2  0
 10 11  1  0
 11 12  1  0
 11 13  1  0
 13 14  1  0
 14 15  1  0
 15 16  1  0
 15 17  1  0
 15 18  1  0
 18 19  2  0
 19 20  1  0
 19 21  1  0
 21 22  1  0
 21 23  2  0
 23 24  1  0
 23 25  1  0
 25 26  1  0
 25 27  2  0
 27 28  1  0
 28 29  1  0
 28 30  1  0
 28 31  1  0
 31 32  1  0
 31 33  1  0
  6 34  1  0
 34 35  1  0
 34 36  2  0
 36 37  1  0
 36  2  1  0
 13  7  2  0
 31 14  1  0
 27 18  1  0
M  END
>  <cnnaffinity>  (1) 
-5.11174

>  <filename>  (1) 
c1cncc(-c2cn[nH]c2N2CCc3ccccc3C2)c1

$$$$
