
     RDKit          3D

 27 29  0  0  0  0  0  0  0  0999 V2000
    5.0163    1.7217   17.0023 H   0  0  0  0  0  0  0  0  0  0  0  0
    5.4838    1.2834   17.8821 C   0  0  0  0  0  0  0  0  0  0  0  0
    6.6657    0.6803   17.6815 N   0  0  0  0  0  0  0  0  0  0  0  0
    7.2461    0.1074   18.7426 C   0  0  0  0  0  0  0  0  0  0  0  0
    8.1885   -0.4073   18.5524 H   0  0  0  0  0  0  0  0  0  0  0  0
    6.6858    0.0857   20.0286 C   0  0  0  0  0  0  0  0  0  0  0  0
    7.3722   -0.6870   21.1029 C   0  0  0  0  0  0  0  0  0  0  0  0
    8.5264   -0.0101   21.6745 N   0  0  0  0  0  0  0  0  0  0  0  0
    9.0299    0.4115   20.9003 H   0  0  0  0  0  0  0  0  0  0  0  0
    8.2415    1.0131   22.5784 N   0  0  0  0  0  0  0  0  0  0  0  0
    7.0080    1.2324   23.0230 N   0  0  0  0  0  0  0  0  0  0  0  0
    7.1404    2.2074   23.9082 C   0  0  0  0  0  0  0  0  0  0  0  0
    6.2734    2.5769   24.4410 H   0  0  0  0  0  0  0  0  0  0  0  0
    8.4844    2.6120   24.0414 C   0  0  0  0  0  0  0  0  0  0  0  0
    8.8816    3.3638   24.7052 H   0  0  0  0  0  0  0  0  0  0  0  0
    9.1686    1.8042   23.1583 C   0  0  0  0  0  0  0  0  0  0  0  0
   10.2108    1.6925   22.8906 H   0  0  0  0  0  0  0  0  0  0  0  0
    6.6412   -1.6231   22.0069 C   0  0  0  0  0  0  0  0  0  0  0  0
    7.0075   -1.6335   23.0261 H   0  0  0  0  0  0  0  0  0  0  0  0
    5.5719   -1.7199   21.8606 H   0  0  0  0  0  0  0  0  0  0  0  0
    7.5329   -2.1727   20.9466 C   0  0  0  0  0  0  0  0  0  0  0  0
    7.0410   -2.6137   20.0877 H   0  0  0  0  0  0  0  0  0  0  0  0
    8.4840   -2.6067   21.2275 H   0  0  0  0  0  0  0  0  0  0  0  0
    5.4823    0.7771   20.2344 C   0  0  0  0  0  0  0  0  0  0  0  0
    5.0723    0.8466   21.2431 H   0  0  0  0  0  0  0  0  0  0  0  0
    4.8554    1.3577   19.1312 C   0  0  0  0  0  0  0  0  0  0  0  0
    3.8933    1.8530   19.2251 H   0  0  0  0  0  0  0  0  0  0  0  0
  1  2  1  0
  2  3  2  0
  3  4  1  0
  4  5  1  0
  4  6  2  0
  6  7  1  0
  7  8  1  0
  8  9  1  0
  8 10  1  0
 10 11  1  0
 11 12  2  0
 12 13  1  0
 12 14  1  0
 14 15  1  0
 14 16  2  0
 16 17  1  0
  7 18  1  0
 18 19  1  0
 18 20  1  0
 18 21  1  0
 21 22  1  0
 21 23  1  0
  6 24  1  0
 24 25  1  0
 24 26  2  0
 26 27  1  0
 26  2  1  0
 21  7  1  0
 16 10  1  0
M  END
>  <cnnaffinity>  (1) 
-4.31189

>  <filename>  (1) 
c1cncc(C2(Nn3cccn3)CC2)c1

$$$$
