
     RDKit          3D

 35 38  0  0  0  0  0  0  0  0999 V2000
    4.9642    1.8840   16.5485 H   0  0  0  0  0  0  0  0  0  0  0  0
    5.3726    1.3188   17.3845 C   0  0  0  0  0  0  0  0  0  0  0  0
    6.5011    0.6358   17.1489 N   0  0  0  0  0  0  0  0  0  0  0  0
    7.0653   -0.0120   18.1741 C   0  0  0  0  0  0  0  0  0  0  0  0
    7.9609   -0.5747   17.9246 H   0  0  0  0  0  0  0  0  0  0  0  0
    6.5638    0.0130   19.4923 C   0  0  0  0  0  0  0  0  0  0  0  0
    7.3438   -0.5318   20.6225 C   0  0  0  0  0  0  0  0  0  0  0  0
    8.4897   -1.1812   20.3777 N   0  0  0  0  0  0  0  0  0  0  0  0
    8.9527   -1.4481   21.6094 N   0  0  0  0  0  0  0  0  0  0  0  0
   10.0704   -2.1053   22.0815 C   0  0  0  0  0  0  0  0  0  0  0  0
   10.7934   -2.4928   21.3863 H   0  0  0  0  0  0  0  0  0  0  0  0
    9.9865   -2.0240   23.4337 C   0  0  0  0  0  0  0  0  0  0  0  0
   10.6363   -2.4212   24.1954 H   0  0  0  0  0  0  0  0  0  0  0  0
    8.8386   -1.3115   23.7906 N   0  0  0  0  0  0  0  0  0  0  0  0
    8.5133   -0.7072   25.0873 C   0  0  0  0  0  0  0  0  0  0  0  0
    8.5358    0.3843   24.9610 H   0  0  0  0  0  0  0  0  0  0  0  0
    9.4397   -1.0789   26.2445 C   0  0  0  0  0  0  0  0  0  0  0  0
    9.5778   -2.1674   26.2294 H   0  0  0  0  0  0  0  0  0  0  0  0
   10.4239   -0.6048   26.1760 H   0  0  0  0  0  0  0  0  0  0  0  0
    8.6619   -0.7054   27.5089 C   0  0  0  0  0  0  0  0  0  0  0  0
    9.0357   -1.2707   28.3666 H   0  0  0  0  0  0  0  0  0  0  0  0
    8.7864    0.3558   27.7629 H   0  0  0  0  0  0  0  0  0  0  0  0
    7.1829   -0.9949   27.1507 C   0  0  0  0  0  0  0  0  0  0  0  0
    6.8238   -1.9253   27.6029 H   0  0  0  0  0  0  0  0  0  0  0  0
    6.5370   -0.1949   27.5254 H   0  0  0  0  0  0  0  0  0  0  0  0
    7.1292   -1.1198   25.6090 C   0  0  0  0  0  0  0  0  0  0  0  0
    6.3456   -0.5093   25.1529 H   0  0  0  0  0  0  0  0  0  0  0  0
    6.9392   -2.1564   25.3166 H   0  0  0  0  0  0  0  0  0  0  0  0
    8.1813   -0.9907   22.6151 C   0  0  0  0  0  0  0  0  0  0  0  0
    7.0725   -0.3980   22.0132 C   0  0  0  0  0  0  0  0  0  0  0  0
    6.2118    0.0768   22.4508 H   0  0  0  0  0  0  0  0  0  0  0  0
    5.3380    0.6652   19.6925 C   0  0  0  0  0  0  0  0  0  0  0  0
    4.8615    0.6584   20.6705 H   0  0  0  0  0  0  0  0  0  0  0  0
    4.7419    1.3374   18.6292 C   0  0  0  0  0  0  0  0  0  0  0  0
    3.8347    1.9111   18.7680 H   0  0  0  0  0  0  0  0  0  0  0  0
  1  2  1  0
  2  3  2  0
  3  4  1  0
  4  5  1  0
  4  6  2  0
  6  7  1  0
  7  8  2  0
  8  9  1  0
  9 10  1  0
 10 11  1  0
 10 12  2  0
 12 13  1  0
 12 14  1  0
 14 15  1  0
 15 16  1  0
 15 17  1  0
 17 18  1  0
 17 19  1  0
 17 20  1  0
 20 21  1  0
 20 22  1  0
 20 23  1  0
 23 24  1  0
 23 25  1  0
 23 26  1  0
 26 27  1  0
 26 28  1  0
 14 29  1  0
 29 30  2  0
 30 31  1  0
  6 32  1  0
 32 33  1  0
 32 34  2  0
 34 35  1  0
 34  2  1  0
 30  7  1  0
 29  9  1  0
 26 15  1  0
M  END
>  <cnnaffinity>  (1) 
-5.3912

>  <filename>  (1) 
c1cncc(-c2cc3n(C4CCCC4)ccn3n2)c1

$$$$
