
     RDKit          3D

 32 35  0  0  0  0  0  0  0  0999 V2000
    4.9169    1.7754   16.9997 H   0  0  0  0  0  0  0  0  0  0  0  0
    5.4049    1.2906   17.8407 C   0  0  0  0  0  0  0  0  0  0  0  0
    6.5696    0.6754   17.5811 N   0  0  0  0  0  0  0  0  0  0  0  0
    7.1750    0.0640   18.6006 C   0  0  0  0  0  0  0  0  0  0  0  0
    8.1179   -0.4278   18.3596 H   0  0  0  0  0  0  0  0  0  0  0  0
    6.6546    0.0173   19.8997 C   0  0  0  0  0  0  0  0  0  0  0  0
    7.3461   -0.6889   20.9758 C   0  0  0  0  0  0  0  0  0  0  0  0
    6.8138   -1.0027   22.1393 N   0  0  0  0  0  0  0  0  0  0  0  0
    7.8046   -1.6338   22.8169 C   0  0  0  0  0  0  0  0  0  0  0  0
    7.6340   -2.2040   24.1613 C   0  0  0  0  0  0  0  0  0  0  0  0
    8.2530   -3.4051   24.4319 C   0  0  0  0  0  0  0  0  0  0  0  0
    8.8800   -3.8850   23.6905 H   0  0  0  0  0  0  0  0  0  0  0  0
    8.1319   -4.0879   25.6005 N   0  0  0  0  0  0  0  0  0  0  0  0
    7.3807   -3.5617   26.5446 C   0  0  0  0  0  0  0  0  0  0  0  0
    7.2794   -4.1111   27.4816 H   0  0  0  0  0  0  0  0  0  0  0  0
    6.6982   -2.3175   26.4219 C   0  0  0  0  0  0  0  0  0  0  0  0
    5.9028   -1.7744   27.4798 C   0  0  0  0  0  0  0  0  0  0  0  0
    5.7832   -2.3334   28.4089 H   0  0  0  0  0  0  0  0  0  0  0  0
    5.2993   -0.5520   27.3294 C   0  0  0  0  0  0  0  0  0  0  0  0
    4.6963   -0.1302   28.1311 H   0  0  0  0  0  0  0  0  0  0  0  0
    5.4676    0.1853   26.1259 C   0  0  0  0  0  0  0  0  0  0  0  0
    4.9967    1.1577   26.0208 H   0  0  0  0  0  0  0  0  0  0  0  0
    6.2261   -0.3156   25.0921 C   0  0  0  0  0  0  0  0  0  0  0  0
    6.3700    0.2514   24.1788 H   0  0  0  0  0  0  0  0  0  0  0  0
    6.8440   -1.5970   25.1947 C   0  0  0  0  0  0  0  0  0  0  0  0
    8.9348   -1.7347   22.1273 N   0  0  0  0  0  0  0  0  0  0  0  0
    8.6204   -1.1131   20.9655 N   0  0  0  0  0  0  0  0  0  0  0  0
    9.2985   -1.0035   20.2325 H   0  0  0  0  0  0  0  0  0  0  0  0
    5.4330    0.6576   20.1562 C   0  0  0  0  0  0  0  0  0  0  0  0
    5.0056    0.6283   21.1630 H   0  0  0  0  0  0  0  0  0  0  0  0
    4.8035    1.3134   19.1056 C   0  0  0  0  0  0  0  0  0  0  0  0
    3.8704    1.8460   19.2602 H   0  0  0  0  0  0  0  0  0  0  0  0
  1  2  1  0
  2  3  2  0
  3  4  1  0
  4  5  1  0
  4  6  2  0
  6  7  1  0
  7  8  2  0
  8  9  1  0
  9 10  1  0
 10 11  2  0
 11 12  1  0
 11 13  1  0
 13 14  2  0
 14 15  1  0
 14 16  1  0
 16 17  2  0
 17 18  1  0
 17 19  1  0
 19 20  1  0
 19 21  2  0
 21 22  1  0
 21 23  1  0
 23 24  1  0
 23 25  2  0
  9 26  2  0
 26 27  1  0
 27 28  1  0
  6 29  1  0
 29 30  1  0
 29 31  2  0
 31 32  1  0
 31  2  1  0
 27  7  1  0
 25 10  1  0
 25 16  1  0
M  END
>  <cnnaffinity>  (1) 
-5.43769

>  <filename>  (1) 
c1cncc(-c2nc(-c3cncc4ccccc34)n[nH]2)c1

$$$$
