
     RDKit          3D

 41 44  0  0  0  0  0  0  0  0999 V2000
    4.9247    1.8016   16.9772 H   0  0  0  0  0  0  0  0  0  0  0  0
    5.4012    1.2948   17.8174 C   0  0  0  0  0  0  0  0  0  0  0  0
    6.5623    0.6766   17.5601 N   0  0  0  0  0  0  0  0  0  0  0  0
    7.1822    0.0593   18.5746 C   0  0  0  0  0  0  0  0  0  0  0  0
    8.1296   -0.4159   18.3328 H   0  0  0  0  0  0  0  0  0  0  0  0
    6.6709    0.0095   19.8849 C   0  0  0  0  0  0  0  0  0  0  0  0
    7.3872   -0.6957   20.9611 C   0  0  0  0  0  0  0  0  0  0  0  0
    8.6081   -1.2285   20.7854 N   0  0  0  0  0  0  0  0  0  0  0  0
    8.8790   -1.7571   22.0015 N   0  0  0  0  0  0  0  0  0  0  0  0
    9.9512   -2.4227   22.5742 C   0  0  0  0  0  0  0  0  0  0  0  0
   10.8245   -2.6214   21.9758 H   0  0  0  0  0  0  0  0  0  0  0  0
    9.5995   -2.6700   23.8636 C   0  0  0  0  0  0  0  0  0  0  0  0
   10.1104   -3.1636   24.6751 H   0  0  0  0  0  0  0  0  0  0  0  0
    8.3359   -2.1532   24.0660 N   0  0  0  0  0  0  0  0  0  0  0  0
    7.7051   -2.2426   25.2781 O   0  0  0  0  0  0  0  0  0  0  0  0
    6.3897   -1.6311   25.3694 C   0  0  0  0  0  0  0  0  0  0  0  0
    6.0177   -2.1032   26.2807 H   0  0  0  0  0  0  0  0  0  0  0  0
    5.7650   -1.9268   24.5166 H   0  0  0  0  0  0  0  0  0  0  0  0
    6.4616   -0.1048   25.5229 C   0  0  0  0  0  0  0  0  0  0  0  0
    6.9753    0.1042   26.4827 H   0  0  0  0  0  0  0  0  0  0  0  0
    7.1076    0.3035   24.7297 H   0  0  0  0  0  0  0  0  0  0  0  0
    5.1474    0.5478   25.4728 N   0  0  0  0  0  0  0  0  0  0  0  0
    4.2904    0.2910   26.6395 C   0  0  0  0  0  0  0  0  0  0  0  0
    4.8804    0.2247   27.5735 H   0  0  0  0  0  0  0  0  0  0  0  0
    3.7618   -0.6675   26.5375 H   0  0  0  0  0  0  0  0  0  0  0  0
    3.3064    1.4802   26.7216 C   0  0  0  0  0  0  0  0  0  0  0  0
    2.3029    1.1968   26.3840 H   0  0  0  0  0  0  0  0  0  0  0  0
    3.1947    1.8143   27.7605 H   0  0  0  0  0  0  0  0  0  0  0  0
    3.9076    2.5748   25.8102 C   0  0  0  0  0  0  0  0  0  0  0  0
    4.0520    3.5282   26.3335 H   0  0  0  0  0  0  0  0  0  0  0  0
    3.2473    2.7864   24.9621 H   0  0  0  0  0  0  0  0  0  0  0  0
    5.2531    2.0028   25.3353 C   0  0  0  0  0  0  0  0  0  0  0  0
    5.4745    2.2732   24.2933 H   0  0  0  0  0  0  0  0  0  0  0  0
    6.0745    2.4188   25.9503 H   0  0  0  0  0  0  0  0  0  0  0  0
    7.8971   -1.5889   22.9038 C   0  0  0  0  0  0  0  0  0  0  0  0
    6.8845   -0.8841   22.2681 C   0  0  0  0  0  0  0  0  0  0  0  0
    5.9805   -0.5053   22.6913 H   0  0  0  0  0  0  0  0  0  0  0  0
    5.4499    0.6567   20.1310 C   0  0  0  0  0  0  0  0  0  0  0  0
    5.0030    0.6560   21.1258 H   0  0  0  0  0  0  0  0  0  0  0  0
    4.8068    1.3124   19.0838 C   0  0  0  0  0  0  0  0  0  0  0  0
    3.8730    1.8410   19.2403 H   0  0  0  0  0  0  0  0  0  0  0  0
  1  2  1  0
  2  3  2  0
  3  4  1  0
  4  5  1  0
  4  6  2  0
  6  7  1  0
  7  8  2  0
  8  9  1  0
  9 10  1  0
 10 11  1  0
 10 12  2  0
 12 13  1  0
 12 14  1  0
 14 15  1  0
 15 16  1  0
 16 17  1  0
 16 18  1  0
 16 19  1  0
 19 20  1  0
 19 21  1  0
 19 22  1  0
 22 23  1  0
 23 24  1  0
 23 25  1  0
 23 26  1  0
 26 27  1  0
 26 28  1  0
 26 29  1  0
 29 30  1  0
 29 31  1  0
 29 32  1  0
 32 33  1  0
 32 34  1  0
 14 35  1  0
 35 36  2  0
 36 37  1  0
  6 38  1  0
 38 39  1  0
 38 40  2  0
 40 41  1  0
 40  2  1  0
 36  7  1  0
 35  9  1  0
 32 22  1  0
M  END
>  <cnnaffinity>  (1) 
-5.35424

>  <filename>  (1) 
c1cncc(-c2cc3n(OCCN4CCCC4)ccn3n2)c1

$$$$
