
     RDKit          3D

 36 38  0  0  0  0  0  0  0  0999 V2000
    4.8025    1.3163   19.1265 C   0  0  0  0  0  0  0  0  0  0  0  0
    5.4367    1.2769   17.8780 C   0  0  0  0  0  0  0  0  0  0  0  0
    6.6107    0.6651   17.6681 N   0  0  0  0  0  0  0  0  0  0  0  0
    7.1862    0.0703   18.7127 C   0  0  0  0  0  0  0  0  0  0  0  0
    6.6433    0.0386   20.0086 C   0  0  0  0  0  0  0  0  0  0  0  0
    7.3999   -0.6481   21.0648 C   0  0  0  0  0  0  0  0  0  0  0  0
    8.4562   -1.4734   20.8383 C   0  0  0  0  0  0  0  0  0  0  0  0
    9.1110   -2.0411   22.3354 S   0  0  0  0  0  0  0  0  0  0  0  0
    7.9116   -1.0700   23.1462 C   0  0  0  0  0  0  0  0  0  0  0  0
    7.8592   -0.9547   24.4840 N   0  0  0  0  0  0  0  0  0  0  0  0
    8.5516   -1.8399   25.3828 C   0  0  0  0  0  0  0  0  0  0  0  0
    8.2463   -1.5010   26.8444 C   0  0  0  0  0  0  0  0  0  0  0  0
    8.9165   -0.1877   27.3163 C   0  0  0  0  0  0  0  0  0  0  0  0
    8.0730    1.0749   27.0537 C   0  0  0  0  0  0  0  0  0  0  0  0
    6.6359    0.8369   27.4979 C   0  0  0  0  0  0  0  0  0  0  0  0
    6.0780   -0.2725   26.8054 O   0  0  0  0  0  0  0  0  0  0  0  0
    6.7257   -1.5006   27.1143 C   0  0  0  0  0  0  0  0  0  0  0  0
    6.2445   -2.2570   26.4833 H   0  0  0  0  0  0  0  0  0  0  0  0
    6.4996   -1.7707   28.1545 H   0  0  0  0  0  0  0  0  0  0  0  0
    6.6204    0.6629   28.5890 H   0  0  0  0  0  0  0  0  0  0  0  0
    5.9833    1.6907   27.2830 H   0  0  0  0  0  0  0  0  0  0  0  0
    8.4763    1.9241   27.6184 H   0  0  0  0  0  0  0  0  0  0  0  0
    8.0738    1.3395   25.9902 H   0  0  0  0  0  0  0  0  0  0  0  0
    9.0958   -0.2600   28.3961 H   0  0  0  0  0  0  0  0  0  0  0  0
    9.9060   -0.0861   26.8468 H   0  0  0  0  0  0  0  0  0  0  0  0
    8.6757   -2.3323   27.4188 H   0  0  0  0  0  0  0  0  0  0  0  0
    9.6286   -1.7697   25.1856 H   0  0  0  0  0  0  0  0  0  0  0  0
    8.2968   -2.8929   25.1856 H   0  0  0  0  0  0  0  0  0  0  0  0
    6.9612   -0.5712   24.7363 H   0  0  0  0  0  0  0  0  0  0  0  0
    7.0722   -0.4382   22.3864 N   0  0  0  0  0  0  0  0  0  0  0  0
    8.8997   -1.7504   19.9001 H   0  0  0  0  0  0  0  0  0  0  0  0
    5.4157    0.6964   20.2135 C   0  0  0  0  0  0  0  0  0  0  0  0
    4.9776    0.7279   21.2140 H   0  0  0  0  0  0  0  0  0  0  0  0
    8.1424   -0.3977   18.4880 H   0  0  0  0  0  0  0  0  0  0  0  0
    4.9831    1.7454   17.0096 H   0  0  0  0  0  0  0  0  0  0  0  0
    3.8604    1.8439   19.2310 H   0  0  0  0  0  0  0  0  0  0  0  0
  1  2  2  0
  2  3  1  0
  3  4  2  0
  4  5  1  0
  5  6  1  0
  6  7  2  0
  7  8  1  0
  8  9  1  0
  9 10  1  0
 10 11  1  0
 11 12  1  0
 12 13  1  0
 13 14  1  0
 14 15  1  0
 15 16  1  0
 16 17  1  0
 17 18  1  0
 17 19  1  0
 15 20  1  0
 15 21  1  0
 14 22  1  0
 14 23  1  0
 13 24  1  0
 13 25  1  0
 12 26  1  0
 11 27  1  0
 11 28  1  0
 10 29  1  0
  9 30  2  0
  7 31  1  0
  5 32  2  0
 32 33  1  0
  4 34  1  0
  2 35  1  0
  1 36  1  0
 32  1  1  0
 30  6  1  0
 17 12  1  0
M  END
>  <cnnaffinity>  (1) 
-4.78356

>  <filename>  (1) 
c1cncc(-c2csc(NCC3CCCOC3)n2)c1

$$$$
