
     RDKit          3D

 32 35  0  0  0  0  0  0  0  0999 V2000
    9.1220   -2.9347   22.2891 H   0  0  0  0  0  0  0  0  0  0  0  0
    8.3947   -2.1582   22.0717 C   0  0  0  0  0  0  0  0  0  0  0  0
    7.9938   -1.8375   20.8143 N   0  0  0  0  0  0  0  0  0  0  0  0
    7.1347   -0.8638   21.0111 C   0  0  0  0  0  0  0  0  0  0  0  0
    6.4122   -0.1946   19.9176 C   0  0  0  0  0  0  0  0  0  0  0  0
    6.9644   -0.3088   18.6305 C   0  0  0  0  0  0  0  0  0  0  0  0
    7.8334   -0.9404   18.4643 H   0  0  0  0  0  0  0  0  0  0  0  0
    6.5035    0.3492   17.5634 N   0  0  0  0  0  0  0  0  0  0  0  0
    5.4420    1.1488   17.7408 C   0  0  0  0  0  0  0  0  0  0  0  0
    5.1159    1.7185   16.8702 H   0  0  0  0  0  0  0  0  0  0  0  0
    4.7794    1.2800   18.9652 C   0  0  0  0  0  0  0  0  0  0  0  0
    3.9273    1.9440   19.0393 H   0  0  0  0  0  0  0  0  0  0  0  0
    5.2538    0.5806   20.0748 C   0  0  0  0  0  0  0  0  0  0  0  0
    4.7556    0.6443   21.0442 H   0  0  0  0  0  0  0  0  0  0  0  0
    7.0579   -0.5852   22.3587 N   0  0  0  0  0  0  0  0  0  0  0  0
    6.6016    0.5834   23.0564 C   0  0  0  0  0  0  0  0  0  0  0  0
    5.7538    0.4205   24.1510 C   0  0  0  0  0  0  0  0  0  0  0  0
    5.5263   -0.5654   24.5465 H   0  0  0  0  0  0  0  0  0  0  0  0
    5.1663    1.4671   24.7712 N   0  0  0  0  0  0  0  0  0  0  0  0
    5.4645    2.6837   24.3599 C   0  0  0  0  0  0  0  0  0  0  0  0
    4.9604    3.5051   24.8659 H   0  0  0  0  0  0  0  0  0  0  0  0
    6.4575    2.9702   23.3586 C   0  0  0  0  0  0  0  0  0  0  0  0
    6.9052    4.2952   23.1101 C   0  0  0  0  0  0  0  0  0  0  0  0
    6.3709    5.1331   23.5419 H   0  0  0  0  0  0  0  0  0  0  0  0
    8.0747    4.5402   22.3298 C   0  0  0  0  0  0  0  0  0  0  0  0
    8.4186    5.5778   22.2360 H   0  0  0  0  0  0  0  0  0  0  0  0
    8.6586    3.4669   21.7803 C   0  0  0  0  0  0  0  0  0  0  0  0
    8.0461    1.7716   20.6551 H   0  0  0  0  0  0  0  0  0  0  0  0
    8.2751    2.0714   21.7304 C   0  0  0  0  0  0  0  0  0  0  0  0
    9.1273    1.4155   22.0600 H   0  0  0  0  0  0  0  0  0  0  0  0
    7.0679    1.8628   22.7125 C   0  0  0  0  0  0  0  0  0  0  0  0
    7.8609   -1.4452   23.0363 N   0  0  0  0  0  0  0  0  0  0  0  0
  1  2  1  0
  2  3  1  0
  3  4  2  0
  4  5  1  0
  5  6  2  0
  6  7  1  0
  6  8  1  0
  8  9  2  0
  9 10  1  0
  9 11  1  0
 11 12  1  0
 11 13  2  0
 13 14  1  0
  4 15  1  0
 15 16  1  0
 16 17  2  0
 17 18  1  0
 17 19  1  0
 19 20  2  0
 20 21  1  0
 20 22  1  0
 22 23  2  0
 23 24  1  0
 23 25  1  0
 25 26  1  0
 25 27  2  0
 27 28  1  0
 27 29  1  0
 29 30  1  0
 29 31  2  0
 15 32  1  0
 32  2  2  0
 13  5  1  0
 31 16  1  0
 31 22  1  0
M  END
>  <cnnaffinity>  (1) 
-4.63186

>  <filename>  (1) 
c1cncc(-c2ncnn2-c2cncc3ccccc23)c1

$$$$
