
     RDKit          3D

 40 44  0  0  0  0  0  0  0  0999 V2000
    4.9922    1.8069   16.8755 H   0  0  0  0  0  0  0  0  0  0  0  0
    5.4031    1.2840   17.7358 C   0  0  0  0  0  0  0  0  0  0  0  0
    6.5695    0.6500   17.5369 N   0  0  0  0  0  0  0  0  0  0  0  0
    7.1120    0.0250   18.5854 C   0  0  0  0  0  0  0  0  0  0  0  0
    8.0356   -0.5184   18.3896 H   0  0  0  0  0  0  0  0  0  0  0  0
    6.5631    0.0445   19.8810 C   0  0  0  0  0  0  0  0  0  0  0  0
    7.3476   -0.5252   20.9875 C   0  0  0  0  0  0  0  0  0  0  0  0
    7.9867   -1.6766   20.7859 N   0  0  0  0  0  0  0  0  0  0  0  0
    8.5526   -1.9538   21.9548 N   0  0  0  0  0  0  0  0  0  0  0  0
    8.3849   -1.0366   22.9006 C   0  0  0  0  0  0  0  0  0  0  0  0
    7.5834   -0.0558   22.3207 C   0  0  0  0  0  0  0  0  0  0  0  0
    7.1564    1.1898   22.9472 C   0  0  0  0  0  0  0  0  0  0  0  0
    7.0166    2.2704   22.2037 N   0  0  0  0  0  0  0  0  0  0  0  0
    6.7335    3.4477   22.8225 C   0  0  0  0  0  0  0  0  0  0  0  0
    6.5698    4.5975   21.9946 C   0  0  0  0  0  0  0  0  0  0  0  0
    6.5664    4.4294   20.9269 H   0  0  0  0  0  0  0  0  0  0  0  0
    6.4144    5.8428   22.5537 C   0  0  0  0  0  0  0  0  0  0  0  0
    6.3245    6.7184   21.9120 H   0  0  0  0  0  0  0  0  0  0  0  0
    6.3747    5.9888   23.9722 C   0  0  0  0  0  0  0  0  0  0  0  0
    6.3102    6.9853   24.3968 H   0  0  0  0  0  0  0  0  0  0  0  0
    6.4455    4.8894   24.7994 C   0  0  0  0  0  0  0  0  0  0  0  0
    6.3914    4.9855   25.8831 H   0  0  0  0  0  0  0  0  0  0  0  0
    6.6144    3.5875   24.2412 C   0  0  0  0  0  0  0  0  0  0  0  0
    6.7001    2.3903   25.0063 C   0  0  0  0  0  0  0  0  0  0  0  0
    6.5739    2.4390   26.0846 H   0  0  0  0  0  0  0  0  0  0  0  0
    6.9584    1.2062   24.3635 C   0  0  0  0  0  0  0  0  0  0  0  0
    7.0117    0.2680   24.9021 H   0  0  0  0  0  0  0  0  0  0  0  0
    9.1858   -1.4032   24.1258 C   0  0  0  0  0  0  0  0  0  0  0  0
    9.8582   -0.5947   24.4238 H   0  0  0  0  0  0  0  0  0  0  0  0
    8.5269   -1.6156   24.9731 H   0  0  0  0  0  0  0  0  0  0  0  0
    9.9641   -2.6720   23.6812 C   0  0  0  0  0  0  0  0  0  0  0  0
   11.0342   -2.4916   23.6532 H   0  0  0  0  0  0  0  0  0  0  0  0
    9.7925   -3.4996   24.3672 H   0  0  0  0  0  0  0  0  0  0  0  0
    9.4836   -3.0100   22.2480 C   0  0  0  0  0  0  0  0  0  0  0  0
   10.2944   -2.9337   21.5247 H   0  0  0  0  0  0  0  0  0  0  0  0
    8.9872   -3.9793   22.1761 H   0  0  0  0  0  0  0  0  0  0  0  0
    5.2933    0.6240   20.0422 C   0  0  0  0  0  0  0  0  0  0  0  0
    4.7905    0.6056   21.0114 H   0  0  0  0  0  0  0  0  0  0  0  0
    4.7173    1.2756   18.9524 C   0  0  0  0  0  0  0  0  0  0  0  0
    3.7632    1.7846   19.0359 H   0  0  0  0  0  0  0  0  0  0  0  0
  1  2  1  0
  2  3  2  0
  3  4  1  0
  4  5  1  0
  4  6  2  0
  6  7  1  0
  7  8  2  0
  8  9  1  0
  9 10  1  0
 10 11  2  0
 11 12  1  0
 12 13  2  0
 13 14  1  0
 14 15  2  0
 15 16  1  0
 15 17  1  0
 17 18  1  0
 17 19  2  0
 19 20  1  0
 19 21  1  0
 21 22  1  0
 21 23  2  0
 23 24  1  0
 24 25  1  0
 24 26  2  0
 26 27  1  0
 10 28  1  0
 28 29  1  0
 28 30  1  0
 28 31  1  0
 31 32  1  0
 31 33  1  0
 31 34  1  0
 34 35  1  0
 34 36  1  0
  6 37  1  0
 37 38  1  0
 37 39  2  0
 39 40  1  0
 39  2  1  0
 11  7  1  0
 26 12  1  0
 34  9  1  0
 23 14  1  0
M  END
>  <cnnaffinity>  (1) 
-5.73428

>  <filename>  (1) 
c1cncc(-c2nn3c(c2-c2ccc4ccccc4n2)CCC3)c1

$$$$
