
     RDKit          3D

 34 37  0  0  0  0  0  0  0  0999 V2000
    4.9555    1.8169   16.9671 H   0  0  0  0  0  0  0  0  0  0  0  0
    5.3788    1.3542   17.8589 C   0  0  0  0  0  0  0  0  0  0  0  0
    6.5138    0.6625   17.6924 N   0  0  0  0  0  0  0  0  0  0  0  0
    7.0496    0.0837   18.7759 C   0  0  0  0  0  0  0  0  0  0  0  0
    7.9836   -0.4464   18.5880 H   0  0  0  0  0  0  0  0  0  0  0  0
    6.5044    0.1392   20.0778 C   0  0  0  0  0  0  0  0  0  0  0  0
    7.1673   -0.5893   21.2155 C   0  0  0  0  0  0  0  0  0  0  0  0
    6.6804   -0.3645   22.5494 N   0  0  0  0  0  0  0  0  0  0  0  0
    5.6905   -0.5716   22.6391 H   0  0  0  0  0  0  0  0  0  0  0  0
    6.9920    0.7864   23.2443 C   0  0  0  0  0  0  0  0  0  0  0  0
    7.7803    1.8598   22.9487 C   0  0  0  0  0  0  0  0  0  0  0  0
    8.3344    1.9801   22.0332 H   0  0  0  0  0  0  0  0  0  0  0  0
    7.7263    2.7442   24.0838 C   0  0  0  0  0  0  0  0  0  0  0  0
    8.2887    4.0037   24.3857 C   0  0  0  0  0  0  0  0  0  0  0  0
    8.9026    4.5076   23.6461 H   0  0  0  0  0  0  0  0  0  0  0  0
    8.0203    4.5887   25.6195 C   0  0  0  0  0  0  0  0  0  0  0  0
    8.4288    5.5674   25.8531 H   0  0  0  0  0  0  0  0  0  0  0  0
    7.1997    3.9367   26.5712 C   0  0  0  0  0  0  0  0  0  0  0  0
    6.9974    4.4199   27.5245 H   0  0  0  0  0  0  0  0  0  0  0  0
    6.6299    2.6939   26.3000 C   0  0  0  0  0  0  0  0  0  0  0  0
    5.9866    2.1990   27.0225 H   0  0  0  0  0  0  0  0  0  0  0  0
    6.8944    2.1174   25.0518 C   0  0  0  0  0  0  0  0  0  0  0  0
    6.4246    0.9420   24.4880 N   0  0  0  0  0  0  0  0  0  0  0  0
    6.1293    0.1264   25.0004 H   0  0  0  0  0  0  0  0  0  0  0  0
    8.6243   -0.9709   21.0993 C   0  0  0  0  0  0  0  0  0  0  0  0
    9.2037   -0.9481   22.0191 H   0  0  0  0  0  0  0  0  0  0  0  0
    9.1650   -0.6887   20.1987 H   0  0  0  0  0  0  0  0  0  0  0  0
    7.5617   -2.0239   20.9879 C   0  0  0  0  0  0  0  0  0  0  0  0
    7.2953   -2.4210   20.0203 H   0  0  0  0  0  0  0  0  0  0  0  0
    7.4569   -2.7161   21.8209 H   0  0  0  0  0  0  0  0  0  0  0  0
    5.3241    0.8838   20.2254 C   0  0  0  0  0  0  0  0  0  0  0  0
    4.8505    1.0011   21.2032 H   0  0  0  0  0  0  0  0  0  0  0  0
    4.7559    1.4901   19.1049 C   0  0  0  0  0  0  0  0  0  0  0  0
    3.8364    2.0534   19.1890 H   0  0  0  0  0  0  0  0  0  0  0  0
  1  2  1  0
  2  3  2  0
  3  4  1  0
  4  5  1  0
  4  6  2  0
  6  7  1  0
  7  8  1  0
  8  9  1  0
  8 10  1  0
 10 11  2  0
 11 12  1  0
 11 13  1  0
 13 14  2  0
 14 15  1  0
 14 16  1  0
 16 17  1  0
 16 18  2  0
 18 19  1  0
 18 20  1  0
 20 21  1  0
 20 22  2  0
 22 23  1  0
 23 24  1  0
  7 25  1  0
 25 26  1  0
 25 27  1  0
 25 28  1  0
 28 29  1  0
 28 30  1  0
  6 31  1  0
 31 32  1  0
 31 33  2  0
 33 34  1  0
 33  2  1  0
 28  7  1  0
 23 10  1  0
 22 13  1  0
M  END
>  <cnnaffinity>  (1) 
-4.77224

>  <filename>  (1) 
c1cncc(C2(Nc3cc4ccccc4[nH]3)CC2)c1

$$$$
