
     RDKit          3D

 33 36  0  0  0  0  0  0  0  0999 V2000
    5.0155    1.8594   16.9228 H   0  0  0  0  0  0  0  0  0  0  0  0
    5.4263    1.2948   17.7610 C   0  0  0  0  0  0  0  0  0  0  0  0
    6.5662    0.6265   17.5261 N   0  0  0  0  0  0  0  0  0  0  0  0
    7.1297   -0.0175   18.5530 C   0  0  0  0  0  0  0  0  0  0  0  0
    8.0395   -0.5643   18.3151 H   0  0  0  0  0  0  0  0  0  0  0  0
    6.6140   -0.0097   19.8641 C   0  0  0  0  0  0  0  0  0  0  0  0
    7.3637   -0.6332   20.9653 C   0  0  0  0  0  0  0  0  0  0  0  0
    8.0469   -1.7587   20.7696 N   0  0  0  0  0  0  0  0  0  0  0  0
    8.5477   -2.0396   21.9712 N   0  0  0  0  0  0  0  0  0  0  0  0
    8.2669   -1.1671   22.9356 C   0  0  0  0  0  0  0  0  0  0  0  0
    7.4843   -0.1907   22.3330 C   0  0  0  0  0  0  0  0  0  0  0  0
    7.0722    1.0585   22.9724 C   0  0  0  0  0  0  0  0  0  0  0  0
    6.6201    1.0935   24.3111 C   0  0  0  0  0  0  0  0  0  0  0  0
    6.4721    0.1764   24.8682 H   0  0  0  0  0  0  0  0  0  0  0  0
    6.3284    2.2263   24.9629 N   0  0  0  0  0  0  0  0  0  0  0  0
    6.4817    3.4024   24.3462 N   0  0  0  0  0  0  0  0  0  0  0  0
    6.9062    3.4313   23.0742 C   0  0  0  0  0  0  0  0  0  0  0  0
    7.0334    4.4117   22.6365 H   0  0  0  0  0  0  0  0  0  0  0  0
    7.2031    2.2829   22.3356 C   0  0  0  0  0  0  0  0  0  0  0  0
    7.5521    2.3466   21.3070 H   0  0  0  0  0  0  0  0  0  0  0  0
    9.0444   -1.5064   24.1935 C   0  0  0  0  0  0  0  0  0  0  0  0
    8.3799   -1.7341   25.0324 H   0  0  0  0  0  0  0  0  0  0  0  0
    9.6982   -0.6840   24.5043 H   0  0  0  0  0  0  0  0  0  0  0  0
    9.8773   -2.7528   23.7738 C   0  0  0  0  0  0  0  0  0  0  0  0
    9.6832   -3.6012   24.4322 H   0  0  0  0  0  0  0  0  0  0  0  0
   10.9442   -2.5397   23.8132 H   0  0  0  0  0  0  0  0  0  0  0  0
    9.4922   -3.0727   22.3035 C   0  0  0  0  0  0  0  0  0  0  0  0
    9.0198   -4.0501   22.1785 H   0  0  0  0  0  0  0  0  0  0  0  0
   10.3506   -2.9628   21.6396 H   0  0  0  0  0  0  0  0  0  0  0  0
    5.3766    0.6215   20.0723 C   0  0  0  0  0  0  0  0  0  0  0  0
    4.8860    0.5936   21.0485 H   0  0  0  0  0  0  0  0  0  0  0  0
    4.7844    1.2925   19.0026 C   0  0  0  0  0  0  0  0  0  0  0  0
    3.8541    1.8330   19.1161 H   0  0  0  0  0  0  0  0  0  0  0  0
  1  2  1  0
  2  3  2  0
  3  4  1  0
  4  5  1  0
  4  6  2  0
  6  7  1  0
  7  8  2  0
  8  9  1  0
  9 10  1  0
 10 11  2  0
 11 12  1  0
 12 13  2  0
 13 14  1  0
 13 15  1  0
 15 16  2  0
 16 17  1  0
 17 18  1  0
 17 19  2  0
 19 20  1  0
 10 21  1  0
 21 22  1  0
 21 23  1  0
 21 24  1  0
 24 25  1  0
 24 26  1  0
 24 27  1  0
 27 28  1  0
 27 29  1  0
  6 30  1  0
 30 31  1  0
 30 32  2  0
 32 33  1  0
 32  2  1  0
 11  7  1  0
 19 12  1  0
 27  9  1  0
M  END
>  <cnnaffinity>  (1) 
-5.34193

>  <filename>  (1) 
c1cncc(-c2nn3c(c2-c2ccnnc2)CCC3)c1

$$$$
