
     RDKit          3D

 38 42  0  0  0  0  0  0  0  0999 V2000
    4.9150    1.8433   16.9309 H   0  0  0  0  0  0  0  0  0  0  0  0
    5.4075    1.3362   17.7572 C   0  0  0  0  0  0  0  0  0  0  0  0
    6.5631    0.7199   17.4676 N   0  0  0  0  0  0  0  0  0  0  0  0
    7.1966    0.1025   18.4725 C   0  0  0  0  0  0  0  0  0  0  0  0
    8.1266   -0.4046   18.2106 H   0  0  0  0  0  0  0  0  0  0  0  0
    6.7356    0.0610   19.8015 C   0  0  0  0  0  0  0  0  0  0  0  0
    7.4990   -0.6459   20.9008 C   0  0  1  0  0  0  0  0  0  0  0  0
    8.4346   -1.0266   20.4777 H   0  0  0  0  0  0  0  0  0  0  0  0
    7.8738    0.3060   22.0970 C   0  0  0  0  0  0  0  0  0  0  0  0
    8.9526    0.4735   22.1500 H   0  0  0  0  0  0  0  0  0  0  0  0
    7.4300    1.3042   22.0056 H   0  0  0  0  0  0  0  0  0  0  0  0
    7.3514   -0.4275   23.2927 C   0  0  0  0  0  0  0  0  0  0  0  0
    7.2557   -0.1518   24.5789 N   0  0  0  0  0  0  0  0  0  0  0  0
    6.6325   -1.2466   25.0855 N   0  0  0  0  0  0  0  0  0  0  0  0
    6.2429   -1.1640   26.0142 H   0  0  0  0  0  0  0  0  0  0  0  0
    6.2984   -2.1818   24.1352 C   0  0  0  0  0  0  0  0  0  0  0  0
    5.6481   -3.4701   24.3698 C   0  0  0  0  0  0  0  0  0  0  0  0
    4.5928   -3.9093   23.6416 C   0  0  0  0  0  0  0  0  0  0  0  0
    4.0939   -3.3446   22.8687 H   0  0  0  0  0  0  0  0  0  0  0  0
    4.0151   -5.4694   24.0918 S   0  0  0  0  0  0  0  0  0  0  0  0
    5.2220   -5.5895   25.3414 C   0  0  0  0  0  0  0  0  0  0  0  0
    5.4045   -6.6441   26.2586 C   0  0  0  0  0  0  0  0  0  0  0  0
    4.7281   -7.4938   26.2924 H   0  0  0  0  0  0  0  0  0  0  0  0
    6.4815   -6.5734   27.1342 C   0  0  0  0  0  0  0  0  0  0  0  0
    6.6383   -7.3588   27.8700 H   0  0  0  0  0  0  0  0  0  0  0  0
    7.3847   -5.4918   27.0925 C   0  0  0  0  0  0  0  0  0  0  0  0
    8.2262   -5.4751   27.7798 H   0  0  0  0  0  0  0  0  0  0  0  0
    7.2053   -4.4511   26.1934 C   0  0  0  0  0  0  0  0  0  0  0  0
    7.9394   -3.6500   26.1133 H   0  0  0  0  0  0  0  0  0  0  0  0
    6.0776   -4.4645   25.3406 C   0  0  0  0  0  0  0  0  0  0  0  0
    6.7702   -1.6470   22.9588 C   0  0  0  0  0  0  0  0  0  0  0  0
    6.7183   -1.8761   21.4837 C   0  0  0  0  0  0  0  0  0  0  0  0
    5.6803   -1.9081   21.1181 H   0  0  0  0  0  0  0  0  0  0  0  0
    7.1731   -2.8236   21.1722 H   0  0  0  0  0  0  0  0  0  0  0  0
    5.5090    0.6875   20.0680 C   0  0  0  0  0  0  0  0  0  0  0  0
    5.0935    0.6649   21.0774 H   0  0  0  0  0  0  0  0  0  0  0  0
    4.8340    1.3358   19.0333 C   0  0  0  0  0  0  0  0  0  0  0  0
    3.8914    1.8424   19.2040 H   0  0  0  0  0  0  0  0  0  0  0  0
  1  2  1  0
  2  3  2  0
  3  4  1  0
  4  5  1  0
  4  6  2  0
  6  7  1  0
  7  8  1  6
  7  9  1  0
  9 10  1  0
  9 11  1  0
  9 12  1  0
 12 13  2  0
 13 14  1  0
 14 15  1  0
 14 16  1  0
 16 17  1  0
 17 18  2  0
 18 19  1  0
 18 20  1  0
 20 21  1  0
 21 22  2  0
 22 23  1  0
 22 24  1  0
 24 25  1  0
 24 26  2  0
 26 27  1  0
 26 28  1  0
 28 29  1  0
 28 30  2  0
 16 31  2  0
 31 32  1  0
 32 33  1  0
 32 34  1  0
  6 35  1  0
 35 36  1  0
 35 37  2  0
 37 38  1  0
 37  2  1  0
 32  7  1  0
 31 12  1  0
 30 17  1  0
 30 21  1  0
M  END
>  <cnnaffinity>  (1) 
-5.50782

>  <filename>  (1) 
c1cncc([C@H]2Cc3n[nH]c(-c4csc5ccccc45)c3C2)c1

$$$$
