
     RDKit          3D

 32 35  0  0  0  0  0  0  0  0999 V2000
    4.9352    1.8027   16.9783 H   0  0  0  0  0  0  0  0  0  0  0  0
    5.4044    1.2936   17.8161 C   0  0  0  0  0  0  0  0  0  0  0  0
    6.5651    0.6738   17.5545 N   0  0  0  0  0  0  0  0  0  0  0  0
    7.1767    0.0526   18.5682 C   0  0  0  0  0  0  0  0  0  0  0  0
    8.1267   -0.4251   18.3344 H   0  0  0  0  0  0  0  0  0  0  0  0
    6.6582    0.0058   19.8733 C   0  0  0  0  0  0  0  0  0  0  0  0
    7.3908   -0.6943   20.9350 C   0  0  0  0  0  0  0  0  0  0  0  0
    8.5242   -1.3535   20.6965 N   0  0  0  0  0  0  0  0  0  0  0  0
    8.8866   -1.8520   21.8916 N   0  0  0  0  0  0  0  0  0  0  0  0
    9.7775   -2.3219   22.0038 H   0  0  0  0  0  0  0  0  0  0  0  0
    8.0269   -1.5168   22.8939 C   0  0  0  0  0  0  0  0  0  0  0  0
    8.1830   -1.9084   24.2939 C   0  0  0  0  0  0  0  0  0  0  0  0
    7.7932   -1.0055   25.2930 C   0  0  0  0  0  0  0  0  0  0  0  0
    7.3888   -0.0405   24.9946 H   0  0  0  0  0  0  0  0  0  0  0  0
    7.8821   -1.3385   26.6553 C   0  0  0  0  0  0  0  0  0  0  0  0
    7.5763   -0.6165   27.4117 H   0  0  0  0  0  0  0  0  0  0  0  0
    8.3346   -2.5984   27.0342 C   0  0  0  0  0  0  0  0  0  0  0  0
    8.2962   -2.9152   28.0601 H   0  0  0  0  0  0  0  0  0  0  0  0
    8.7550   -3.4940   26.0396 C   0  0  0  0  0  0  0  0  0  0  0  0
    8.6687   -3.1944   24.6597 C   0  0  0  0  0  0  0  0  0  0  0  0
    9.0786   -4.3952   23.9629 C   0  0  0  0  0  0  0  0  0  0  0  0
    9.0554   -4.5613   22.8920 H   0  0  0  0  0  0  0  0  0  0  0  0
    9.4223   -5.3194   24.9091 C   0  0  0  0  0  0  0  0  0  0  0  0
    9.7835   -6.3361   24.8082 H   0  0  0  0  0  0  0  0  0  0  0  0
    9.2357   -4.7769   26.1606 N   0  0  0  0  0  0  0  0  0  0  0  0
    9.4034   -5.2449   27.0376 H   0  0  0  0  0  0  0  0  0  0  0  0
    7.0411   -0.7645   22.2956 C   0  0  0  0  0  0  0  0  0  0  0  0
    6.1597   -0.3532   22.7699 H   0  0  0  0  0  0  0  0  0  0  0  0
    5.4400    0.6548   20.1275 C   0  0  0  0  0  0  0  0  0  0  0  0
    5.0027    0.6523   21.1273 H   0  0  0  0  0  0  0  0  0  0  0  0
    4.8051    1.3106   19.0806 C   0  0  0  0  0  0  0  0  0  0  0  0
    3.8736    1.8407   19.2375 H   0  0  0  0  0  0  0  0  0  0  0  0
  1  2  1  0
  2  3  2  0
  3  4  1  0
  4  5  1  0
  4  6  2  0
  6  7  1  0
  7  8  2  0
  8  9  1  0
  9 10  1  0
  9 11  1  0
 11 12  1  0
 12 13  2  0
 13 14  1  0
 13 15  1  0
 15 16  1  0
 15 17  2  0
 17 18  1  0
 17 19  1  0
 19 20  2  0
 20 21  1  0
 21 22  1  0
 21 23  2  0
 23 24  1  0
 23 25  1  0
 25 26  1  0
 11 27  2  0
 27 28  1  0
  6 29  1  0
 29 30  1  0
 29 31  2  0
 31 32  1  0
 31  2  1  0
 27  7  1  0
 20 12  1  0
 25 19  1  0
M  END
>  <cnnaffinity>  (1) 
-5.31123

>  <filename>  (1) 
c1cncc(-c2cc(-c3cccc4[nH]ccc34)[nH]n2)c1

$$$$
