
     RDKit          3D

 37 40  0  0  0  0  0  0  0  0999 V2000
    4.9652    1.8207   16.8997 H   0  0  0  0  0  0  0  0  0  0  0  0
    5.4579    1.3064   17.7213 C   0  0  0  0  0  0  0  0  0  0  0  0
    6.6016    0.6697   17.4170 N   0  0  0  0  0  0  0  0  0  0  0  0
    7.2449    0.0544   18.4164 C   0  0  0  0  0  0  0  0  0  0  0  0
    8.1563   -0.4716   18.1291 H   0  0  0  0  0  0  0  0  0  0  0  0
    6.8078    0.0431   19.7610 C   0  0  0  0  0  0  0  0  0  0  0  0
    7.5703   -0.5656   20.8651 C   0  0  0  0  0  0  0  0  0  0  0  0
    8.9272   -0.9811   20.9087 C   0  0  0  0  0  0  0  0  0  0  0  0
    9.6566   -0.9347   20.1128 H   0  0  0  0  0  0  0  0  0  0  0  0
    9.2527   -1.5066   22.0766 N   0  0  0  0  0  0  0  0  0  0  0  0
    8.1392   -1.4228   22.8222 N   0  0  0  0  0  0  0  0  0  0  0  0
    8.0339   -2.1880   24.0623 C   0  0  0  0  0  0  0  0  0  0  0  0
    7.4510   -1.5968   24.7748 H   0  0  0  0  0  0  0  0  0  0  0  0
    9.0456   -2.2756   24.4618 H   0  0  0  0  0  0  0  0  0  0  0  0
    7.3644   -3.5365   23.8398 C   0  0  0  0  0  0  0  0  0  0  0  0
    8.1223   -4.6848   23.4514 C   0  0  0  0  0  0  0  0  0  0  0  0
    9.2135   -4.6273   23.4372 H   0  0  0  0  0  0  0  0  0  0  0  0
    7.4895   -5.8697   23.1468 C   0  0  0  0  0  0  0  0  0  0  0  0
    8.0597   -6.7231   22.7785 H   0  0  0  0  0  0  0  0  0  0  0  0
    6.0707   -6.0042   23.3058 C   0  0  0  0  0  0  0  0  0  0  0  0
    5.3910   -7.2595   23.1820 C   0  0  0  0  0  0  0  0  0  0  0  0
    5.9829   -8.1403   22.9409 H   0  0  0  0  0  0  0  0  0  0  0  0
    4.0390   -7.3569   23.4298 C   0  0  0  0  0  0  0  0  0  0  0  0
    3.5110   -8.3079   23.3566 H   0  0  0  0  0  0  0  0  0  0  0  0
    3.2928   -6.2024   23.8042 C   0  0  0  0  0  0  0  0  0  0  0  0
    2.2393   -6.3148   24.0453 H   0  0  0  0  0  0  0  0  0  0  0  0
    3.9000   -4.9714   23.8790 C   0  0  0  0  0  0  0  0  0  0  0  0
    3.3350   -4.0722   24.1281 H   0  0  0  0  0  0  0  0  0  0  0  0
    5.3060   -4.8462   23.6680 C   0  0  0  0  0  0  0  0  0  0  0  0
    5.9897   -3.6180   23.9047 C   0  0  0  0  0  0  0  0  0  0  0  0
    5.3926   -2.7309   24.1222 H   0  0  0  0  0  0  0  0  0  0  0  0
    7.1134   -0.8699   22.1321 C   0  0  0  0  0  0  0  0  0  0  0  0
    6.1387   -0.7565   22.5922 H   0  0  0  0  0  0  0  0  0  0  0  0
    5.5812    0.6674   20.0335 C   0  0  0  0  0  0  0  0  0  0  0  0
    5.1797    0.6509   21.0469 H   0  0  0  0  0  0  0  0  0  0  0  0
    4.9030    1.3148   19.0048 C   0  0  0  0  0  0  0  0  0  0  0  0
    3.9686    1.8310   19.1923 H   0  0  0  0  0  0  0  0  0  0  0  0
  1  2  1  0
  2  3  2  0
  3  4  1  0
  4  5  1  0
  4  6  2  0
  6  7  1  0
  7  8  1  0
  8  9  1  0
  8 10  2  0
 10 11  1  0
 11 12  1  0
 12 13  1  0
 12 14  1  0
 12 15  1  0
 15 16  2  0
 16 17  1  0
 16 18  1  0
 18 19  1  0
 18 20  2  0
 20 21  1  0
 21 22  1  0
 21 23  2  0
 23 24  1  0
 23 25  1  0
 25 26  1  0
 25 27  2  0
 27 28  1  0
 27 29  1  0
 29 30  2  0
 30 31  1  0
 11 32  1  0
 32 33  1  0
  6 34  1  0
 34 35  1  0
 34 36  2  0
 36 37  1  0
 36  2  1  0
 32  7  2  0
 30 15  1  0
 29 20  1  0
M  END
>  <cnnaffinity>  (1) 
-5.32492

>  <filename>  (1) 
c1cncc(-c2cnn(Cc3ccc4ccccc4c3)c2)c1

$$$$
