
     RDKit          3D

 31 33  0  0  0  0  0  0  0  0999 V2000
    4.9245    1.7870   17.0012 H   0  0  0  0  0  0  0  0  0  0  0  0
    5.4007    1.2914   17.8455 C   0  0  0  0  0  0  0  0  0  0  0  0
    6.5671    0.6748   17.5784 N   0  0  0  0  0  0  0  0  0  0  0  0
    7.1773    0.0439   18.5840 C   0  0  0  0  0  0  0  0  0  0  0  0
    8.1250   -0.4448   18.3637 H   0  0  0  0  0  0  0  0  0  0  0  0
    6.6552    0.0085   19.8908 C   0  0  0  0  0  0  0  0  0  0  0  0
    7.3387   -0.6860   20.9250 N   0  0  0  0  0  0  0  0  0  0  0  0
    7.7492   -1.9657   20.7649 N   0  0  0  0  0  0  0  0  0  0  0  0
    8.2451   -2.3452   21.8786 N   0  0  0  0  0  0  0  0  0  0  0  0
    8.1872   -1.3753   22.8170 N   0  0  0  0  0  0  0  0  0  0  0  0
    7.6249   -0.3617   22.2155 C   0  0  0  0  0  0  0  0  0  0  0  0
    7.3270    0.8675   22.9120 O   0  0  0  0  0  0  0  0  0  0  0  0
    7.2380    2.0057   21.9968 O   0  0  0  0  0  0  0  0  0  0  0  0
    6.8924    3.1373   22.8413 C   0  0  0  0  0  0  0  0  0  0  0  0
    6.8096    3.9875   22.1412 H   0  0  0  0  0  0  0  0  0  0  0  0
    5.5739    2.8929   23.6224 C   0  0  0  0  0  0  0  0  0  0  0  0
    5.2477    1.8623   23.4543 H   0  0  0  0  0  0  0  0  0  0  0  0
    4.7666    3.5379   23.2669 H   0  0  0  0  0  0  0  0  0  0  0  0
    5.9007    3.1194   25.1122 C   0  0  0  0  0  0  0  0  0  0  0  0
    5.6379    4.1448   25.3987 H   0  0  0  0  0  0  0  0  0  0  0  0
    5.3274    2.4631   25.7790 H   0  0  0  0  0  0  0  0  0  0  0  0
    7.4158    2.8995   25.2384 C   0  0  0  0  0  0  0  0  0  0  0  0
    7.6363    1.8315   25.3601 H   0  0  0  0  0  0  0  0  0  0  0  0
    7.8492    3.4414   26.0885 H   0  0  0  0  0  0  0  0  0  0  0  0
    7.9980    3.3693   23.8958 C   0  0  0  0  0  0  0  0  0  0  0  0
    8.2713    4.4282   23.9203 H   0  0  0  0  0  0  0  0  0  0  0  0
    8.8948    2.8011   23.6315 H   0  0  0  0  0  0  0  0  0  0  0  0
    5.4516    0.6420   20.1772 C   0  0  0  0  0  0  0  0  0  0  0  0
    5.0579    0.6334   21.1972 H   0  0  0  0  0  0  0  0  0  0  0  0
    4.8118    1.2982   19.1139 C   0  0  0  0  0  0  0  0  0  0  0  0
    3.8841    1.8336   19.2651 H   0  0  0  0  0  0  0  0  0  0  0  0
  1  2  1  0
  2  3  2  0
  3  4  1  0
  4  5  1  0
  4  6  2  0
  6  7  1  0
  7  8  1  0
  8  9  2  0
  9 10  1  0
 10 11  2  0
 11 12  1  0
 12 13  1  0
 13 14  1  0
 14 15  1  0
 14 16  1  0
 16 17  1  0
 16 18  1  0
 16 19  1  0
 19 20  1  0
 19 21  1  0
 19 22  1  0
 22 23  1  0
 22 24  1  0
 22 25  1  0
 25 26  1  0
 25 27  1  0
  6 28  1  0
 28 29  1  0
 28 30  2  0
 30 31  1  0
 30  2  1  0
 11  7  1  0
 25 14  1  0
M  END
>  <cnnaffinity>  (1) 
-4.88096

>  <filename>  (1) 
c1cncc(-n2nnnc2OOC2CCCC2)c1

$$$$
