
     RDKit          3D

 40 43  0  0  0  0  0  0  0  0999 V2000
    4.7930    1.3138   19.0780 C   0  0  0  0  0  0  0  0  0  0  0  0
    5.3972    1.3040   17.8170 C   0  0  0  0  0  0  0  0  0  0  0  0
    6.5539    0.6795   17.5583 N   0  0  0  0  0  0  0  0  0  0  0  0
    7.1526    0.0416   18.5753 C   0  0  0  0  0  0  0  0  0  0  0  0
    6.6391   -0.0307   19.8895 C   0  0  0  0  0  0  0  0  0  0  0  0
    7.3632   -0.7284   21.0345 C   0  0  0  0  0  0  0  0  0  0  0  0
    8.0939    0.2562   21.9949 C   0  0  0  0  0  0  0  0  0  0  0  0
    9.2638    0.9571   21.2836 C   0  0  0  0  0  0  0  0  0  0  0  0
   10.4350    0.9678   22.2712 C   0  0  0  0  0  0  0  0  0  0  0  0
   10.1588   -0.1914   23.2392 C   0  0  0  0  0  0  0  0  0  0  0  0
    8.7175   -0.3909   23.1488 N   0  0  0  0  0  0  0  0  0  0  0  0
    8.0191   -1.0691   24.1038 C   0  0  0  0  0  0  0  0  0  0  0  0
    6.6048   -0.8471   24.2407 C   0  0  0  0  0  0  0  0  0  0  0  0
    5.9064   -1.5307   25.1994 C   0  0  0  0  0  0  0  0  0  0  0  0
    6.6103   -2.4596   26.0202 C   0  0  0  0  0  0  0  0  0  0  0  0
    6.0155   -3.2482   27.0447 C   0  0  0  0  0  0  0  0  0  0  0  0
    6.8164   -4.1190   27.7452 C   0  0  0  0  0  0  0  0  0  0  0  0
    8.2091   -4.1664   27.4430 C   0  0  0  0  0  0  0  0  0  0  0  0
    8.7955   -3.4449   26.5169 N   0  0  0  0  0  0  0  0  0  0  0  0
    8.0245   -2.5913   25.7925 C   0  0  0  0  0  0  0  0  0  0  0  0
    8.7098   -1.8833   24.8750 N   0  0  0  0  0  0  0  0  0  0  0  0
    8.8492   -4.8359   28.0190 H   0  0  0  0  0  0  0  0  0  0  0  0
    6.4251   -4.7362   28.5500 H   0  0  0  0  0  0  0  0  0  0  0  0
    4.9473   -3.1364   27.2521 H   0  0  0  0  0  0  0  0  0  0  0  0
    4.8333   -1.3910   25.3467 H   0  0  0  0  0  0  0  0  0  0  0  0
    6.1329   -0.1361   23.5736 H   0  0  0  0  0  0  0  0  0  0  0  0
   10.4644    0.0453   24.2666 H   0  0  0  0  0  0  0  0  0  0  0  0
   10.6913   -1.1117   22.9639 H   0  0  0  0  0  0  0  0  0  0  0  0
   10.4543    1.9145   22.8200 H   0  0  0  0  0  0  0  0  0  0  0  0
   11.4005    0.8482   21.7679 H   0  0  0  0  0  0  0  0  0  0  0  0
    8.9692    1.9601   20.9585 H   0  0  0  0  0  0  0  0  0  0  0  0
    9.5279    0.3847   20.3857 H   0  0  0  0  0  0  0  0  0  0  0  0
    7.3676    1.0050   22.3511 H   0  0  0  0  0  0  0  0  0  0  0  0
    8.1111   -1.4377   20.6571 H   0  0  0  0  0  0  0  0  0  0  0  0
    6.6515   -1.3317   21.6073 H   0  0  0  0  0  0  0  0  0  0  0  0
    5.4277    0.6413   20.1243 C   0  0  0  0  0  0  0  0  0  0  0  0
    4.9944    0.6494   21.1277 H   0  0  0  0  0  0  0  0  0  0  0  0
    8.1027   -0.4349   18.3263 H   0  0  0  0  0  0  0  0  0  0  0  0
    4.9333    1.8215   16.9805 H   0  0  0  0  0  0  0  0  0  0  0  0
    3.8627    1.8556   19.2249 H   0  0  0  0  0  0  0  0  0  0  0  0
  1  2  2  0
  2  3  1  0
  3  4  2  0
  4  5  1  0
  5  6  1  0
  6  7  1  0
  7  8  1  0
  8  9  1  0
  9 10  1  0
 10 11  1  0
 11 12  1  0
 12 13  2  0
 13 14  1  0
 14 15  2  0
 15 16  1  0
 16 17  2  0
 17 18  1  0
 18 19  2  0
 19 20  1  0
 20 21  2  0
 18 22  1  0
 17 23  1  0
 16 24  1  0
 14 25  1  0
 13 26  1  0
 10 27  1  0
 10 28  1  0
  9 29  1  0
  9 30  1  0
  8 31  1  0
  8 32  1  0
  7 33  1  0
  6 34  1  0
  6 35  1  0
  5 36  2  0
 36 37  1  0
  4 38  1  0
  2 39  1  0
  1 40  1  0
 36  1  1  0
 11  7  1  0
 21 12  1  0
 20 15  1  0
M  END
>  <cnnaffinity>  (1) 
-5.37829

>  <filename>  (1) 
c1cncc(CC2CCCN2c2ccc3cccnc3n2)c1

$$$$
