
     RDKit          3D

 30 33  0  0  0  0  0  0  0  0999 V2000
    4.9175    1.7792   16.9977 H   0  0  0  0  0  0  0  0  0  0  0  0
    5.4053    1.2926   17.8420 C   0  0  0  0  0  0  0  0  0  0  0  0
    6.5745    0.6769   17.5908 N   0  0  0  0  0  0  0  0  0  0  0  0
    7.1817    0.0513   18.6015 C   0  0  0  0  0  0  0  0  0  0  0  0
    8.1261   -0.4411   18.3812 H   0  0  0  0  0  0  0  0  0  0  0  0
    6.6558    0.0067   19.9041 C   0  0  0  0  0  0  0  0  0  0  0  0
    7.3534   -0.6942   20.9287 N   0  0  0  0  0  0  0  0  0  0  0  0
    7.8046   -1.9464   20.7405 N   0  0  0  0  0  0  0  0  0  0  0  0
    8.2899   -2.3780   21.8609 N   0  0  0  0  0  0  0  0  0  0  0  0
    8.1537   -1.4148   22.7999 C   0  0  0  0  0  0  0  0  0  0  0  0
    8.4884   -1.5083   23.8225 H   0  0  0  0  0  0  0  0  0  0  0  0
    7.5682   -0.3275   22.2199 C   0  0  0  0  0  0  0  0  0  0  0  0
    7.3217    0.9501   22.8129 C   0  0  0  0  0  0  0  0  0  0  0  0
    7.1402    1.0927   24.0973 N   0  0  0  0  0  0  0  0  0  0  0  0
    6.9784    2.4511   24.2819 C   0  0  0  0  0  0  0  0  0  0  0  0
    6.7528    3.1987   25.4544 C   0  0  0  0  0  0  0  0  0  0  0  0
    6.6651    2.6825   26.4056 H   0  0  0  0  0  0  0  0  0  0  0  0
    6.6579    4.5881   25.3456 C   0  0  0  0  0  0  0  0  0  0  0  0
    6.4842    5.1888   26.2367 H   0  0  0  0  0  0  0  0  0  0  0  0
    6.7849    5.2382   24.0875 C   0  0  0  0  0  0  0  0  0  0  0  0
    6.7085    6.3194   24.0217 H   0  0  0  0  0  0  0  0  0  0  0  0
    7.0100    4.5117   22.9173 C   0  0  0  0  0  0  0  0  0  0  0  0
    7.1143    4.9732   21.9352 H   0  0  0  0  0  0  0  0  0  0  0  0
    7.1018    3.1282   23.0521 C   0  0  0  0  0  0  0  0  0  0  0  0
    7.3244    2.1336   22.1353 N   0  0  0  0  0  0  0  0  0  0  0  0
    7.4807    2.2539   21.1540 H   0  0  0  0  0  0  0  0  0  0  0  0
    5.4352    0.6390   20.1637 C   0  0  0  0  0  0  0  0  0  0  0  0
    4.9991    0.6293   21.1669 H   0  0  0  0  0  0  0  0  0  0  0  0
    4.8063    1.3049   19.1069 C   0  0  0  0  0  0  0  0  0  0  0  0
    3.8744    1.8414   19.2621 H   0  0  0  0  0  0  0  0  0  0  0  0
  1  2  1  0
  2  3  2  0
  3  4  1  0
  4  5  1  0
  4  6  2  0
  6  7  1  0
  7  8  1  0
  8  9  2  0
  9 10  1  0
 10 11  1  0
 10 12  2  0
 12 13  1  0
 13 14  2  0
 14 15  1  0
 15 16  2  0
 16 17  1  0
 16 18  1  0
 18 19  1  0
 18 20  2  0
 20 21  1  0
 20 22  1  0
 22 23  1  0
 22 24  2  0
 24 25  1  0
 25 26  1  0
  6 27  1  0
 27 28  1  0
 27 29  2  0
 29 30  1  0
 29  2  1  0
 12  7  1  0
 25 13  1  0
 24 15  1  0
M  END
>  <cnnaffinity>  (1) 
-5.23193

>  <filename>  (1) 
c1cncc(-n2nncc2-c2nc3ccccc3[nH]2)c1

$$$$
