
     RDKit          3D

 28 30  0  0  0  0  0  0  0  0999 V2000
    4.9177    1.7906   16.9866 H   0  0  0  0  0  0  0  0  0  0  0  0
    5.3967    1.2972   17.8284 C   0  0  0  0  0  0  0  0  0  0  0  0
    6.5603    0.6819   17.5630 N   0  0  0  0  0  0  0  0  0  0  0  0
    7.1536    0.0443   18.5808 C   0  0  0  0  0  0  0  0  0  0  0  0
    8.1109   -0.4263   18.3619 H   0  0  0  0  0  0  0  0  0  0  0  0
    6.6220   -0.0458   19.8822 C   0  0  0  0  0  0  0  0  0  0  0  0
    7.5378   -0.8571   21.1868 S   0  0  0  0  0  0  0  0  0  0  0  0
    8.4568    0.5893   21.7210 C   0  0  0  0  0  0  0  0  0  0  0  0
    9.7054    0.8772   21.0944 C   0  0  0  0  0  0  0  0  0  0  0  0
   10.0620    0.1631   20.3589 H   0  0  0  0  0  0  0  0  0  0  0  0
   10.4161    2.0079   21.4292 C   0  0  0  0  0  0  0  0  0  0  0  0
   11.3797    2.2262   20.9696 H   0  0  0  0  0  0  0  0  0  0  0  0
    9.9044    2.9135   22.4119 C   0  0  0  0  0  0  0  0  0  0  0  0
   10.6209    4.0834   22.8093 C   0  0  0  0  0  0  0  0  0  0  0  0
   11.5772    4.2840   22.3294 H   0  0  0  0  0  0  0  0  0  0  0  0
   10.0935    4.9422   23.7529 C   0  0  0  0  0  0  0  0  0  0  0  0
   10.6410    5.8366   24.0402 H   0  0  0  0  0  0  0  0  0  0  0  0
    8.8255    4.6673   24.3503 C   0  0  0  0  0  0  0  0  0  0  0  0
    8.4243    5.3565   25.0940 H   0  0  0  0  0  0  0  0  0  0  0  0
    8.1129    3.5474   23.9921 C   0  0  0  0  0  0  0  0  0  0  0  0
    7.1432    3.3206   24.4383 H   0  0  0  0  0  0  0  0  0  0  0  0
    8.6317    2.6406   23.0187 C   0  0  0  0  0  0  0  0  0  0  0  0
    7.9207    1.4609   22.6427 C   0  0  0  0  0  0  0  0  0  0  0  0
    6.9447    1.2705   23.0861 H   0  0  0  0  0  0  0  0  0  0  0  0
    5.4225    0.6309   20.1491 C   0  0  0  0  0  0  0  0  0  0  0  0
    5.0058    0.6315   21.1619 H   0  0  0  0  0  0  0  0  0  0  0  0
    4.7996    1.3105   19.0971 C   0  0  0  0  0  0  0  0  0  0  0  0
    3.8710    1.8482   19.2540 H   0  0  0  0  0  0  0  0  0  0  0  0
  1  2  1  0
  2  3  2  0
  3  4  1  0
  4  5  1  0
  4  6  2  0
  6  7  1  0
  7  8  1  0
  8  9  2  0
  9 10  1  0
  9 11  1  0
 11 12  1  0
 11 13  2  0
 13 14  1  0
 14 15  1  0
 14 16  2  0
 16 17  1  0
 16 18  1  0
 18 19  1  0
 18 20  2  0
 20 21  1  0
 20 22  1  0
 22 23  2  0
 23 24  1  0
  6 25  1  0
 25 26  1  0
 25 27  2  0
 27 28  1  0
 27  2  1  0
 23  8  1  0
 22 13  1  0
M  END
>  <cnnaffinity>  (1) 
-4.62058

>  <filename>  (1) 
c1cncc(Sc2ccc3ccccc3c2)c1

$$$$
