
     RDKit          3D

 38 41  0  0  0  0  0  0  0  0999 V2000
    4.9259    1.8139   16.9633 H   0  0  0  0  0  0  0  0  0  0  0  0
    5.3880    1.3065   17.8077 C   0  0  0  0  0  0  0  0  0  0  0  0
    6.5485    0.6795   17.5588 N   0  0  0  0  0  0  0  0  0  0  0  0
    7.1603    0.0662   18.5821 C   0  0  0  0  0  0  0  0  0  0  0  0
    8.1052   -0.4212   18.3407 H   0  0  0  0  0  0  0  0  0  0  0  0
    6.6621    0.0418   19.9112 C   0  0  0  0  0  0  0  0  0  0  0  0
    7.2696   -0.6401   20.9853 N   0  0  0  0  0  0  0  0  0  0  0  0
    7.8446   -1.9436   20.7392 C   0  0  0  0  0  0  0  0  0  0  0  0
    8.9119   -1.8814   20.4459 H   0  0  0  0  0  0  0  0  0  0  0  0
    7.2560   -2.3490   19.9127 H   0  0  0  0  0  0  0  0  0  0  0  0
    7.6987   -2.8695   21.9480 C   0  0  0  0  0  0  0  0  0  0  0  0
    6.6343   -3.1144   22.0565 H   0  0  0  0  0  0  0  0  0  0  0  0
    8.2276   -3.8115   21.7474 H   0  0  0  0  0  0  0  0  0  0  0  0
    8.2369   -2.1860   23.2314 C   0  0  0  0  0  0  0  0  0  0  0  0
    9.3247   -2.0430   23.1346 H   0  0  0  0  0  0  0  0  0  0  0  0
    8.1008   -3.0590   24.4417 C   0  0  0  0  0  0  0  0  0  0  0  0
    9.0465   -3.5158   25.1876 N   0  0  0  0  0  0  0  0  0  0  0  0
    8.3724   -4.2529   26.1588 C   0  0  0  0  0  0  0  0  0  0  0  0
    8.8523   -4.9805   27.2469 C   0  0  0  0  0  0  0  0  0  0  0  0
    9.9239   -5.0217   27.4136 H   0  0  0  0  0  0  0  0  0  0  0  0
    7.9176   -5.6240   28.0567 C   0  0  0  0  0  0  0  0  0  0  0  0
    8.2639   -6.2075   28.8994 H   0  0  0  0  0  0  0  0  0  0  0  0
    6.5349   -5.5375   27.7863 C   0  0  0  0  0  0  0  0  0  0  0  0
    5.8422   -6.0547   28.4410 H   0  0  0  0  0  0  0  0  0  0  0  0
    6.0423   -4.8119   26.6987 C   0  0  0  0  0  0  0  0  0  0  0  0
    4.9808   -4.7419   26.4828 H   0  0  0  0  0  0  0  0  0  0  0  0
    6.9991   -4.1871   25.9106 C   0  0  0  0  0  0  0  0  0  0  0  0
    6.8284   -3.4180   24.7955 O   0  0  0  0  0  0  0  0  0  0  0  0
    7.5457   -0.8014   23.4047 C   0  0  0  0  0  0  0  0  0  0  0  0
    6.4656   -0.9521   23.5494 H   0  0  0  0  0  0  0  0  0  0  0  0
    7.9307   -0.2779   24.2896 H   0  0  0  0  0  0  0  0  0  0  0  0
    7.7532    0.0706   22.1573 C   0  0  0  0  0  0  0  0  0  0  0  0
    7.2030    1.0176   22.2361 H   0  0  0  0  0  0  0  0  0  0  0  0
    8.8275    0.3296   22.0537 H   0  0  0  0  0  0  0  0  0  0  0  0
    5.4416    0.6921   20.1368 C   0  0  0  0  0  0  0  0  0  0  0  0
    5.0405    0.6436   21.1478 H   0  0  0  0  0  0  0  0  0  0  0  0
    4.7962    1.3291   19.0757 C   0  0  0  0  0  0  0  0  0  0  0  0
    3.8610    1.8509   19.2301 H   0  0  0  0  0  0  0  0  0  0  0  0
  1  2  1  0
  2  3  2  0
  3  4  1  0
  4  5  1  0
  4  6  2  0
  6  7  1  0
  7  8  1  0
  8  9  1  0
  8 10  1  0
  8 11  1  0
 11 12  1  0
 11 13  1  0
 11 14  1  0
 14 15  1  0
 14 16  1  0
 16 17  2  0
 17 18  1  0
 18 19  2  0
 19 20  1  0
 19 21  1  0
 21 22  1  0
 21 23  2  0
 23 24  1  0
 23 25  1  0
 25 26  1  0
 25 27  2  0
 27 28  1  0
 14 29  1  0
 29 30  1  0
 29 31  1  0
 29 32  1  0
 32 33  1  0
 32 34  1  0
  6 35  1  0
 35 36  1  0
 35 37  2  0
 37 38  1  0
 37  2  1  0
 32  7  1  0
 28 16  1  0
 27 18  1  0
M  END
>  <cnnaffinity>  (1) 
-5.15787

>  <filename>  (1) 
c1cncc(N2CCC(c3nc4ccccc4o3)CC2)c1

$$$$
