
     RDKit          3D

 38 41  0  0  0  0  0  0  0  0999 V2000
    4.9332    1.7735   17.0003 H   0  0  0  0  0  0  0  0  0  0  0  0
    5.4098    1.2850   17.8455 C   0  0  0  0  0  0  0  0  0  0  0  0
    6.5740    0.6647   17.5979 N   0  0  0  0  0  0  0  0  0  0  0  0
    7.1768    0.0518   18.6219 C   0  0  0  0  0  0  0  0  0  0  0  0
    8.1242   -0.4319   18.3875 H   0  0  0  0  0  0  0  0  0  0  0  0
    6.6408    0.0159   19.9192 C   0  0  0  0  0  0  0  0  0  0  0  0
    7.3606   -0.6942   20.9787 C   0  0  0  0  0  0  0  0  0  0  0  0
    8.5438   -1.3330   20.7532 N   0  0  0  0  0  0  0  0  0  0  0  0
    8.8165   -1.8173   21.9434 C   0  0  0  0  0  0  0  0  0  0  0  0
   10.0467   -2.7685   22.7353 S   0  0  0  0  0  0  0  0  0  0  0  0
    9.1707   -2.6445   24.2430 C   0  0  0  0  0  0  0  0  0  0  0  0
    9.5490   -3.1587   25.1154 H   0  0  0  0  0  0  0  0  0  0  0  0
    8.0354   -1.9216   24.1434 C   0  0  0  0  0  0  0  0  0  0  0  0
    6.9830   -1.6682   25.1894 C   0  0  0  0  0  0  0  0  0  0  0  0
    6.6987   -0.6090   25.2112 H   0  0  0  0  0  0  0  0  0  0  0  0
    7.4242   -1.8741   26.1735 H   0  0  0  0  0  0  0  0  0  0  0  0
    5.7729   -2.4874   25.0490 N   0  0  0  0  0  0  0  0  0  0  0  0
    5.4181   -2.3135   24.1077 H   0  0  0  0  0  0  0  0  0  0  0  0
    6.0003   -3.9298   25.2290 C   0  0  0  0  0  0  0  0  0  0  0  0
    6.8281   -4.3103   24.6038 H   0  0  0  0  0  0  0  0  0  0  0  0
    4.7541   -4.7400   24.8902 C   0  0  0  0  0  0  0  0  0  0  0  0
    4.6672   -4.9194   23.8117 H   0  0  0  0  0  0  0  0  0  0  0  0
    3.8755   -4.1637   25.2023 H   0  0  0  0  0  0  0  0  0  0  0  0
    4.8749   -6.0468   25.6950 C   0  0  0  0  0  0  0  0  0  0  0  0
    3.8922   -6.4242   25.9930 H   0  0  0  0  0  0  0  0  0  0  0  0
    5.3380   -6.8335   25.0892 H   0  0  0  0  0  0  0  0  0  0  0  0
    5.7666   -5.7173   26.9188 C   0  0  0  0  0  0  0  0  0  0  0  0
    5.2029   -5.7681   27.8554 H   0  0  0  0  0  0  0  0  0  0  0  0
    6.5798   -6.4445   27.0114 H   0  0  0  0  0  0  0  0  0  0  0  0
    6.3101   -4.2893   26.6890 C   0  0  0  0  0  0  0  0  0  0  0  0
    7.3807   -4.2115   26.9097 H   0  0  0  0  0  0  0  0  0  0  0  0
    5.8027   -3.5667   27.3350 H   0  0  0  0  0  0  0  0  0  0  0  0
    7.8576   -1.4906   22.8306 N   0  0  0  0  0  0  0  0  0  0  0  0
    6.8963   -0.7633   22.2218 N   0  0  0  0  0  0  0  0  0  0  0  0
    5.4193    0.6616   20.1683 C   0  0  0  0  0  0  0  0  0  0  0  0
    4.9891    0.6423   21.1751 H   0  0  0  0  0  0  0  0  0  0  0  0
    4.8030    1.3109   19.1058 C   0  0  0  0  0  0  0  0  0  0  0  0
    3.8729    1.8443   19.2526 H   0  0  0  0  0  0  0  0  0  0  0  0
  1  2  1  0
  2  3  2  0
  3  4  1  0
  4  5  1  0
  4  6  2  0
  6  7  1  0
  7  8  1  0
  8  9  2  0
  9 10  1  0
 10 11  1  0
 11 12  1  0
 11 13  2  0
 13 14  1  0
 14 15  1  0
 14 16  1  0
 14 17  1  0
 17 18  1  0
 17 19  1  0
 19 20  1  0
 19 21  1  0
 21 22  1  0
 21 23  1  0
 21 24  1  0
 24 25  1  0
 24 26  1  0
 24 27  1  0
 27 28  1  0
 27 29  1  0
 27 30  1  0
 30 31  1  0
 30 32  1  0
 13 33  1  0
 33 34  1  0
  6 35  1  0
 35 36  1  0
 35 37  2  0
 37 38  1  0
 37  2  1  0
 34  7  2  0
 33  9  1  0
 30 19  1  0
M  END
>  <cnnaffinity>  (1) 
-5.5238

>  <filename>  (1) 
c1cncc(-c2nc3scc(CNC4CCCC4)n3n2)c1

$$$$
