
     RDKit          3D

 36 39  0  0  0  0  0  0  0  0999 V2000
    5.1952    1.7998   16.7734 H   0  0  0  0  0  0  0  0  0  0  0  0
    5.6267    1.3362   17.6575 C   0  0  0  0  0  0  0  0  0  0  0  0
    6.7972    0.7024   17.4842 N   0  0  0  0  0  0  0  0  0  0  0  0
    7.3332    0.0976   18.5480 C   0  0  0  0  0  0  0  0  0  0  0  0
    8.3010   -0.3745   18.3954 H   0  0  0  0  0  0  0  0  0  0  0  0
    6.7211    0.0479   19.8153 C   0  0  0  0  0  0  0  0  0  0  0  0
    7.3153   -0.7780   20.8832 C   0  0  0  0  0  0  0  0  0  0  0  0
    8.4788   -1.4147   20.6727 N   0  0  0  0  0  0  0  0  0  0  0  0
    8.6779   -2.0679   21.8312 N   0  0  0  0  0  0  0  0  0  0  0  0
    9.7555   -2.7505   22.3743 C   0  0  0  0  0  0  0  0  0  0  0  0
   10.6439   -2.9037   21.7898 H   0  0  0  0  0  0  0  0  0  0  0  0
    9.3788   -3.0810   23.6360 C   0  0  0  0  0  0  0  0  0  0  0  0
    9.9067   -3.5447   24.4573 H   0  0  0  0  0  0  0  0  0  0  0  0
    8.0832   -2.6417   23.8413 N   0  0  0  0  0  0  0  0  0  0  0  0
    7.3744   -2.8387   25.0225 N   0  0  0  0  0  0  0  0  0  0  0  0
    6.4781   -2.3671   24.9085 H   0  0  0  0  0  0  0  0  0  0  0  0
    7.1152   -4.2577   25.3382 C   0  0  0  0  0  0  0  0  0  0  0  0
    6.9509   -4.8650   24.4364 H   0  0  0  0  0  0  0  0  0  0  0  0
    8.0014   -4.6799   25.8346 H   0  0  0  0  0  0  0  0  0  0  0  0
    5.9069   -4.3449   26.2206 C   0  0  0  0  0  0  0  0  0  0  0  0
    5.7941   -3.5165   27.3467 C   0  0  0  0  0  0  0  0  0  0  0  0
    6.5989   -2.8205   27.6006 H   0  0  0  0  0  0  0  0  0  0  0  0
    4.7322   -3.5182   28.1600 N   0  0  0  0  0  0  0  0  0  0  0  0
    3.7240   -4.3518   27.8688 C   0  0  0  0  0  0  0  0  0  0  0  0
    2.8642   -4.3156   28.5370 H   0  0  0  0  0  0  0  0  0  0  0  0
    3.7391   -5.2315   26.7835 C   0  0  0  0  0  0  0  0  0  0  0  0
    2.8888   -5.8797   26.5870 H   0  0  0  0  0  0  0  0  0  0  0  0
    4.8597   -5.2353   25.9517 C   0  0  0  0  0  0  0  0  0  0  0  0
    4.9190   -5.9091   25.0957 H   0  0  0  0  0  0  0  0  0  0  0  0
    7.6781   -1.9228   22.7339 C   0  0  0  0  0  0  0  0  0  0  0  0
    6.7743   -1.0248   22.1652 C   0  0  0  0  0  0  0  0  0  0  0  0
    5.9588   -0.4866   22.6178 H   0  0  0  0  0  0  0  0  0  0  0  0
    5.5327    0.7805   19.9924 C   0  0  0  0  0  0  0  0  0  0  0  0
    5.0530    0.8681   20.9683 H   0  0  0  0  0  0  0  0  0  0  0  0
    4.9755    1.4270   18.8925 C   0  0  0  0  0  0  0  0  0  0  0  0
    4.0505    1.9915   18.9762 H   0  0  0  0  0  0  0  0  0  0  0  0
  1  2  1  0
  2  3  2  0
  3  4  1  0
  4  5  1  0
  4  6  2  0
  6  7  1  0
  7  8  2  0
  8  9  1  0
  9 10  1  0
 10 11  1  0
 10 12  2  0
 12 13  1  0
 12 14  1  0
 14 15  1  0
 15 16  1  0
 15 17  1  0
 17 18  1  0
 17 19  1  0
 17 20  1  0
 20 21  2  0
 21 22  1  0
 21 23  1  0
 23 24  2  0
 24 25  1  0
 24 26  1  0
 26 27  1  0
 26 28  2  0
 28 29  1  0
 14 30  1  0
 30 31  2  0
 31 32  1  0
  6 33  1  0
 33 34  1  0
 33 35  2  0
 35 36  1  0
 35  2  1  0
 31  7  1  0
 30  9  1  0
 28 20  1  0
M  END
>  <cnnaffinity>  (1) 
-5.37935

>  <filename>  (1) 
c1cncc(CNn2ccn3nc(-c4cccnc4)cc23)c1

$$$$
