
     RDKit          3D

 38 40  0  0  0  0  0  0  0  0999 V2000
    4.9128    1.7865   16.9926 H   0  0  0  0  0  0  0  0  0  0  0  0
    5.4002    1.2976   17.8356 C   0  0  0  0  0  0  0  0  0  0  0  0
    6.5592    0.6765   17.5741 N   0  0  0  0  0  0  0  0  0  0  0  0
    7.1745    0.0631   18.5922 C   0  0  0  0  0  0  0  0  0  0  0  0
    8.1148   -0.4302   18.3630 H   0  0  0  0  0  0  0  0  0  0  0  0
    6.6635    0.0072   19.9055 C   0  0  0  0  0  0  0  0  0  0  0  0
    7.3418   -0.7036   20.9396 N   0  0  0  0  0  0  0  0  0  0  0  0
    6.7847   -1.7410   21.6631 C   0  0  0  0  0  0  0  0  0  0  0  0
    5.7731   -2.0628   21.4383 H   0  0  0  0  0  0  0  0  0  0  0  0
    7.7147   -2.1989   22.5652 C   0  0  0  0  0  0  0  0  0  0  0  0
    7.5792   -3.0114   23.2707 H   0  0  0  0  0  0  0  0  0  0  0  0
    8.8786   -1.4086   22.3988 C   0  0  0  0  0  0  0  0  0  0  0  0
    9.8001   -1.4564   22.9706 H   0  0  0  0  0  0  0  0  0  0  0  0
    8.6389   -0.4913   21.3992 C   0  0  0  0  0  0  0  0  0  0  0  0
    9.5238    0.6416   20.9770 C   0  0  0  0  0  0  0  0  0  0  0  0
   10.5577    0.2814   21.0499 H   0  0  0  0  0  0  0  0  0  0  0  0
    9.3647    0.8882   19.9210 H   0  0  0  0  0  0  0  0  0  0  0  0
    9.3907    1.9241   21.8363 C   0  0  0  0  0  0  0  0  0  0  0  0
   10.0960    2.6561   21.4092 H   0  0  0  0  0  0  0  0  0  0  0  0
    9.7837    1.7096   23.3072 C   0  0  0  0  0  0  0  0  0  0  0  0
   10.7915    1.2819   23.3692 H   0  0  0  0  0  0  0  0  0  0  0  0
    9.1045    0.9731   23.7595 H   0  0  0  0  0  0  0  0  0  0  0  0
    9.7021    3.0151   24.1056 C   0  0  0  0  0  0  0  0  0  0  0  0
    9.9527    2.8296   25.1555 H   0  0  0  0  0  0  0  0  0  0  0  0
   10.4583    3.7123   23.7211 H   0  0  0  0  0  0  0  0  0  0  0  0
    8.3160    3.6650   23.9919 C   0  0  0  0  0  0  0  0  0  0  0  0
    7.5796    3.0168   24.4854 H   0  0  0  0  0  0  0  0  0  0  0  0
    8.2951    4.6194   24.5300 H   0  0  0  0  0  0  0  0  0  0  0  0
    7.8967    3.8607   22.5273 C   0  0  0  0  0  0  0  0  0  0  0  0
    6.8829    4.2743   22.4691 H   0  0  0  0  0  0  0  0  0  0  0  0
    8.5571    4.6040   22.0600 H   0  0  0  0  0  0  0  0  0  0  0  0
    7.9867    2.5385   21.7539 C   0  0  0  0  0  0  0  0  0  0  0  0
    7.7062    2.6366   20.7073 H   0  0  0  0  0  0  0  0  0  0  0  0
    7.2407    1.8393   22.1511 H   0  0  0  0  0  0  0  0  0  0  0  0
    5.4383    0.6442   20.1614 C   0  0  0  0  0  0  0  0  0  0  0  0
    5.0095    0.6250   21.1677 H   0  0  0  0  0  0  0  0  0  0  0  0
    4.8072    1.3105   19.1047 C   0  0  0  0  0  0  0  0  0  0  0  0
    3.8740    1.8428   19.2592 H   0  0  0  0  0  0  0  0  0  0  0  0
  1  2  1  0
  2  3  2  0
  3  4  1  0
  4  5  1  0
  4  6  2  0
  6  7  1  0
  7  8  1  0
  8  9  1  0
  8 10  2  0
 10 11  1  0
 10 12  1  0
 12 13  1  0
 12 14  2  0
 14 15  1  0
 15 16  1  0
 15 17  1  0
 15 18  1  0
 18 19  1  0
 18 20  1  0
 20 21  1  0
 20 22  1  0
 20 23  1  0
 23 24  1  0
 23 25  1  0
 23 26  1  0
 26 27  1  0
 26 28  1  0
 26 29  1  0
 29 30  1  0
 29 31  1  0
 29 32  1  0
 32 33  1  0
 32 34  1  0
  6 35  1  0
 35 36  1  0
 35 37  2  0
 37 38  1  0
 37  2  1  0
 14  7  1  0
 32 18  1  0
M  END
>  <cnnaffinity>  (1) 
-5.14709

>  <filename>  (1) 
c1cncc(-n2cccc2CC2CCCCC2)c1

$$$$
