
     RDKit          3D

 39 41  0  0  0  0  0  0  0  0999 V2000
    5.2066    1.7935   17.3731 H   0  0  0  0  0  0  0  0  0  0  0  0
    5.6026    1.1573   18.1621 C   0  0  0  0  0  0  0  0  0  0  0  0
    6.7410    0.5028   17.8771 N   0  0  0  0  0  0  0  0  0  0  0  0
    7.2583   -0.2738   18.8356 C   0  0  0  0  0  0  0  0  0  0  0  0
    8.1954   -0.7757   18.6071 H   0  0  0  0  0  0  0  0  0  0  0  0
    6.6844   -0.4766   20.1181 C   0  0  0  0  0  0  0  0  0  0  0  0
    7.3330   -1.3317   21.0134 N   0  0  0  0  0  0  0  0  0  0  0  0
    8.7972   -1.3211   21.1385 C   0  0  0  0  0  0  0  0  0  0  0  0
    9.2887   -2.1173   20.5664 H   0  0  0  0  0  0  0  0  0  0  0  0
    9.2454   -0.3496   20.8782 H   0  0  0  0  0  0  0  0  0  0  0  0
    8.6477   -1.5512   22.6447 C   0  0  0  0  0  0  0  0  0  0  0  0
    8.9790   -2.5470   22.9516 H   0  0  0  0  0  0  0  0  0  0  0  0
    9.1161   -0.8001   23.2821 H   0  0  0  0  0  0  0  0  0  0  0  0
    7.1195   -1.4173   22.4689 C   0  0  2  0  0  0  0  0  0  0  0  0
    6.7165   -0.4762   22.8865 H   0  0  0  0  0  0  0  0  0  0  0  0
    6.2423   -2.5986   22.8705 C   0  0  0  0  0  0  0  0  0  0  0  0
    6.7589   -3.5421   22.6512 H   0  0  0  0  0  0  0  0  0  0  0  0
    5.3802   -2.5968   22.1946 H   0  0  0  0  0  0  0  0  0  0  0  0
    5.7602   -2.6300   24.3353 C   0  0  0  0  0  0  0  0  0  0  0  0
    5.5343   -1.5999   24.6531 H   0  0  0  0  0  0  0  0  0  0  0  0
    6.8275   -3.1838   25.3324 C   0  0  0  0  0  0  0  0  0  0  0  0
    6.8979   -2.5180   26.2071 H   0  0  0  0  0  0  0  0  0  0  0  0
    7.8249   -3.1653   24.8714 H   0  0  0  0  0  0  0  0  0  0  0  0
    6.5063   -4.6158   25.8080 C   0  0  0  0  0  0  0  0  0  0  0  0
    6.5566   -5.2804   24.9319 H   0  0  0  0  0  0  0  0  0  0  0  0
    7.2675   -4.9646   26.5157 H   0  0  0  0  0  0  0  0  0  0  0  0
    5.0993   -4.7510   26.4475 C   0  0  0  0  0  0  0  0  0  0  0  0
    4.7417   -5.7705   26.2538 H   0  0  0  0  0  0  0  0  0  0  0  0
    5.1473   -4.6292   27.5381 H   0  0  0  0  0  0  0  0  0  0  0  0
    4.0686   -3.7527   25.8748 C   0  0  0  0  0  0  0  0  0  0  0  0
    4.0600   -2.8303   26.4708 H   0  0  0  0  0  0  0  0  0  0  0  0
    3.0547   -4.1598   25.9618 H   0  0  0  0  0  0  0  0  0  0  0  0
    4.4054   -3.3938   24.4277 C   0  0  0  0  0  0  0  0  0  0  0  0
    4.4354   -4.3167   23.8234 H   0  0  0  0  0  0  0  0  0  0  0  0
    3.6074   -2.7764   24.0021 H   0  0  0  0  0  0  0  0  0  0  0  0
    5.4776    0.1986   20.3819 C   0  0  0  0  0  0  0  0  0  0  0  0
    4.9916    0.0783   21.3503 H   0  0  0  0  0  0  0  0  0  0  0  0
    4.9465    1.0383   19.3935 C   0  0  0  0  0  0  0  0  0  0  0  0
    4.0441    1.6178   19.5710 H   0  0  0  0  0  0  0  0  0  0  0  0
  1  2  1  0
  2  3  2  0
  3  4  1  0
  4  5  1  0
  4  6  2  0
  6  7  1  0
  7  8  1  0
  8  9  1  0
  8 10  1  0
  8 11  1  0
 11 12  1  0
 11 13  1  0
 11 14  1  0
 14 15  1  1
 14 16  1  0
 16 17  1  0
 16 18  1  0
 16 19  1  0
 19 20  1  0
 19 21  1  0
 21 22  1  0
 21 23  1  0
 21 24  1  0
 24 25  1  0
 24 26  1  0
 24 27  1  0
 27 28  1  0
 27 29  1  0
 27 30  1  0
 30 31  1  0
 30 32  1  0
 30 33  1  0
 33 34  1  0
 33 35  1  0
  6 36  1  0
 36 37  1  0
 36 38  2  0
 38 39  1  0
 38  2  1  0
 14  7  1  0
 33 19  1  0
M  END
>  <cnnaffinity>  (1) 
-4.90768

>  <filename>  (1) 
c1cncc(N2CC[C@@H]2CC2CCCCC2)c1

$$$$
