
     RDKit          3D

 33 36  0  0  0  0  0  0  0  0999 V2000
   14.8998    1.6821   22.7480 H   0  0  0  0  0  0  0  0  0  0  0  0
   14.0064    1.0864   22.5575 C   0  0  0  0  0  0  0  0  0  0  0  0
   12.8574    1.7494   22.4284 N   0  0  0  0  0  0  0  0  0  0  0  0
   11.7733    1.0157   22.1791 C   0  0  0  0  0  0  0  0  0  0  0  0
   10.8346    1.5576   22.0524 H   0  0  0  0  0  0  0  0  0  0  0  0
   11.7872   -0.3790   22.0799 C   0  0  0  0  0  0  0  0  0  0  0  0
   10.5448   -1.1336   21.8539 C   0  0  0  0  0  0  0  0  0  0  0  0
    9.2638   -0.7048   21.5521 C   0  0  0  0  0  0  0  0  0  0  0  0
    8.5077   -1.8689   21.4401 C   0  0  0  0  0  0  0  0  0  0  0  0
    9.1965   -2.9657   21.6540 N   0  0  0  0  0  0  0  0  0  0  0  0
   10.4374   -2.4955   21.9206 N   0  0  0  0  0  0  0  0  0  0  0  0
   11.1587   -3.1792   22.0950 H   0  0  0  0  0  0  0  0  0  0  0  0
    7.0877   -1.6452   21.0697 C   0  0  0  0  0  0  0  0  0  0  0  0
    6.8806   -2.0713   20.0825 H   0  0  0  0  0  0  0  0  0  0  0  0
    6.4073   -2.1325   21.7694 H   0  0  0  0  0  0  0  0  0  0  0  0
    6.9592   -0.0935   21.1007 C   0  0  2  0  0  0  0  0  0  0  0  0
    6.3493    0.1661   21.9736 H   0  0  0  0  0  0  0  0  0  0  0  0
    6.2896    0.4495   19.8643 C   0  0  0  0  0  0  0  0  0  0  0  0
    6.9124    0.3256   18.6074 C   0  0  0  0  0  0  0  0  0  0  0  0
    7.8643   -0.2032   18.5125 H   0  0  0  0  0  0  0  0  0  0  0  0
    6.4207    0.8257   17.4685 N   0  0  0  0  0  0  0  0  0  0  0  0
    5.2534    1.4834   17.5427 C   0  0  0  0  0  0  0  0  0  0  0  0
    4.8914    1.8996   16.6069 H   0  0  0  0  0  0  0  0  0  0  0  0
    4.5255    1.6312   18.7262 C   0  0  0  0  0  0  0  0  0  0  0  0
    3.5851    2.1695   18.7165 H   0  0  0  0  0  0  0  0  0  0  0  0
    5.0519    1.1018   19.9059 C   0  0  0  0  0  0  0  0  0  0  0  0
    4.5259    1.1934   20.8575 H   0  0  0  0  0  0  0  0  0  0  0  0
    8.3989    0.5015   21.3228 C   0  0  0  0  0  0  0  0  0  0  0  0
    8.3922    1.2094   22.1621 H   0  0  0  0  0  0  0  0  0  0  0  0
    8.7130    1.0708   20.4389 H   0  0  0  0  0  0  0  0  0  0  0  0
   13.0637   -0.9474   22.1978 C   0  0  0  0  0  0  0  0  0  0  0  0
   13.2113   -2.0252   22.0879 H   0  0  0  0  0  0  0  0  0  0  0  0
   14.1641   -0.2350   22.4350 N   0  0  0  0  0  0  0  0  0  0  0  0
  1  2  1  0
  2  3  2  0
  3  4  1  0
  4  5  1  0
  4  6  2  0
  6  7  1  0
  7  8  2  0
  8  9  1  0
  9 10  2  0
 10 11  1  0
 11 12  1  0
  9 13  1  0
 13 14  1  0
 13 15  1  0
 13 16  1  0
 16 17  1  1
 16 18  1  0
 18 19  2  0
 19 20  1  0
 19 21  1  0
 21 22  2  0
 22 23  1  0
 22 24  1  0
 24 25  1  0
 24 26  2  0
 26 27  1  0
 16 28  1  0
 28 29  1  0
 28 30  1  0
  6 31  1  0
 31 32  1  0
 31 33  2  0
 33  2  1  0
 11  7  1  0
 26 18  1  0
 28  8  1  0
M  END
>  <cnnaffinity>  (1) 
-5.71618

>  <filename>  (1) 
c1cncc([C@H]2Cc3n[nH]c(-c4cncnc4)c3C2)c1

$$$$
