
     RDKit          3D

 31 34  0  0  0  0  0  0  0  0999 V2000
    5.0342    1.8893   17.1106 H   0  0  0  0  0  0  0  0  0  0  0  0
    5.4957    1.2652   17.8744 C   0  0  0  0  0  0  0  0  0  0  0  0
    6.6185    0.6244   17.5105 N   0  0  0  0  0  0  0  0  0  0  0  0
    7.2423   -0.1064   18.4427 C   0  0  0  0  0  0  0  0  0  0  0  0
    8.1547   -0.6139   18.1192 H   0  0  0  0  0  0  0  0  0  0  0  0
    6.7741   -0.2470   19.7627 C   0  0  0  0  0  0  0  0  0  0  0  0
    7.5960   -0.9199   20.7813 C   0  0  0  0  0  0  0  0  0  0  0  0
    8.8991   -0.6943   21.0347 C   0  0  0  0  0  0  0  0  0  0  0  0
    9.5441   -0.0181   20.4852 H   0  0  0  0  0  0  0  0  0  0  0  0
    9.4743   -1.5776   22.4261 S   0  0  0  0  0  0  0  0  0  0  0  0
    7.8911   -2.2672   22.6530 C   0  0  0  0  0  0  0  0  0  0  0  0
    7.2816   -3.0586   23.5173 N   0  0  0  0  0  0  0  0  0  0  0  0
    6.0102   -2.9847   23.0604 C   0  0  0  0  0  0  0  0  0  0  0  0
    4.9077   -3.5003   23.6760 N   0  0  0  0  0  0  0  0  0  0  0  0
    4.2065   -2.7893   23.5981 H   0  0  0  0  0  0  0  0  0  0  0  0
    4.8851   -4.2321   24.8461 C   0  0  0  0  0  0  0  0  0  0  0  0
    3.8748   -3.9686   25.7630 C   0  0  0  0  0  0  0  0  0  0  0  0
    3.1921   -3.1480   25.5926 H   0  0  0  0  0  0  0  0  0  0  0  0
    3.7759   -4.7851   26.8816 C   0  0  0  0  0  0  0  0  0  0  0  0
    3.0049   -4.5950   27.6259 H   0  0  0  0  0  0  0  0  0  0  0  0
    4.5863   -5.8248   27.1190 N   0  0  0  0  0  0  0  0  0  0  0  0
    5.5581   -6.0488   26.2244 C   0  0  0  0  0  0  0  0  0  0  0  0
    6.2029   -6.8998   26.4368 H   0  0  0  0  0  0  0  0  0  0  0  0
    5.7714   -5.2756   25.0847 C   0  0  0  0  0  0  0  0  0  0  0  0
    6.5845   -5.4676   24.4020 H   0  0  0  0  0  0  0  0  0  0  0  0
    5.7891   -2.2664   21.9679 N   0  0  0  0  0  0  0  0  0  0  0  0
    7.0511   -1.8110   21.7034 N   0  0  0  0  0  0  0  0  0  0  0  0
    5.5518    0.3571   20.0989 C   0  0  0  0  0  0  0  0  0  0  0  0
    5.1330    0.1785   21.0904 H   0  0  0  0  0  0  0  0  0  0  0  0
    4.9219    1.1540   19.1477 C   0  0  0  0  0  0  0  0  0  0  0  0
    4.0092    1.6924   19.3794 H   0  0  0  0  0  0  0  0  0  0  0  0
  1  2  1  0
  2  3  2  0
  3  4  1  0
  4  5  1  0
  4  6  2  0
  6  7  1  0
  7  8  2  0
  8  9  1  0
  8 10  1  0
 10 11  1  0
 11 12  2  0
 12 13  1  0
 13 14  1  0
 14 15  1  0
 14 16  1  0
 16 17  2  0
 17 18  1  0
 17 19  1  0
 19 20  1  0
 19 21  2  0
 21 22  1  0
 22 23  1  0
 22 24  2  0
 24 25  1  0
 13 26  2  0
 26 27  1  0
  6 28  1  0
 28 29  1  0
 28 30  2  0
 30 31  1  0
 30  2  1  0
 27  7  1  0
 27 11  1  0
 24 16  1  0
M  END
>  <cnnaffinity>  (1) 
-5.32465

>  <filename>  (1) 
c1cncc(-c2csc3nc(Nc4ccncc4)nn23)c1

$$$$
