
     RDKit          3D

 35 37  0  0  0  0  0  0  0  0999 V2000
    4.9564    1.7958   17.0038 H   0  0  0  0  0  0  0  0  0  0  0  0
    5.4092    1.2840   17.8496 C   0  0  0  0  0  0  0  0  0  0  0  0
    6.5728    0.6579   17.6004 N   0  0  0  0  0  0  0  0  0  0  0  0
    7.1738    0.0316   18.6125 C   0  0  0  0  0  0  0  0  0  0  0  0
    8.1169   -0.4614   18.3935 H   0  0  0  0  0  0  0  0  0  0  0  0
    6.6549    0.0001   19.9165 C   0  0  0  0  0  0  0  0  0  0  0  0
    7.3859   -0.6734   20.9393 N   0  0  0  0  0  0  0  0  0  0  0  0
    7.8595   -1.9210   20.7307 N   0  0  0  0  0  0  0  0  0  0  0  0
    8.4387   -2.3158   21.8130 N   0  0  0  0  0  0  0  0  0  0  0  0
    8.3621   -1.3250   22.7443 C   0  0  0  0  0  0  0  0  0  0  0  0
    8.7953   -1.4617   23.7291 H   0  0  0  0  0  0  0  0  0  0  0  0
    7.7072   -0.2562   22.1985 C   0  0  0  0  0  0  0  0  0  0  0  0
    7.3488    1.0746   22.7649 C   0  0  0  0  0  0  0  0  0  0  0  0
    8.1803    1.4074   23.4098 H   0  0  0  0  0  0  0  0  0  0  0  0
    7.2672    1.8223   21.9590 H   0  0  0  0  0  0  0  0  0  0  0  0
    6.0635    1.0000   23.4653 N   0  0  0  0  0  0  0  0  0  0  0  0
    6.1199    0.3380   24.2408 H   0  0  0  0  0  0  0  0  0  0  0  0
    5.5771    2.2801   23.9625 C   0  0  0  0  0  0  0  0  0  0  0  0
    5.5123    2.9669   23.0940 H   0  0  0  0  0  0  0  0  0  0  0  0
    4.1894    2.1617   24.5981 C   0  0  0  0  0  0  0  0  0  0  0  0
    4.1319    1.2198   25.1658 H   0  0  0  0  0  0  0  0  0  0  0  0
    3.4129    2.1298   23.8313 H   0  0  0  0  0  0  0  0  0  0  0  0
    4.0348    3.3980   25.5153 C   0  0  0  0  0  0  0  0  0  0  0  0
    3.4028    3.1856   26.3875 H   0  0  0  0  0  0  0  0  0  0  0  0
    3.5221    4.2049   24.9740 H   0  0  0  0  0  0  0  0  0  0  0  0
    5.4813    3.8348   25.8951 C   0  0  0  0  0  0  0  0  0  0  0  0
    5.6345    4.8995   25.6755 H   0  0  0  0  0  0  0  0  0  0  0  0
    5.6786    3.7236   26.9678 H   0  0  0  0  0  0  0  0  0  0  0  0
    6.4386    2.9374   25.0632 C   0  0  0  0  0  0  0  0  0  0  0  0
    6.8779    2.1470   25.6949 H   0  0  0  0  0  0  0  0  0  0  0  0
    7.2833    3.4858   24.6258 H   0  0  0  0  0  0  0  0  0  0  0  0
    5.4370    0.6396   20.1749 C   0  0  0  0  0  0  0  0  0  0  0  0
    5.0202    0.6359   21.1832 H   0  0  0  0  0  0  0  0  0  0  0  0
    4.8044    1.2944   19.1111 C   0  0  0  0  0  0  0  0  0  0  0  0
    3.8726    1.8340   19.2451 H   0  0  0  0  0  0  0  0  0  0  0  0
  1  2  1  0
  2  3  2  0
  3  4  1  0
  4  5  1  0
  4  6  2  0
  6  7  1  0
  7  8  1  0
  8  9  2  0
  9 10  1  0
 10 11  1  0
 10 12  2  0
 12 13  1  0
 13 14  1  0
 13 15  1  0
 13 16  1  0
 16 17  1  0
 16 18  1  0
 18 19  1  0
 18 20  1  0
 20 21  1  0
 20 22  1  0
 20 23  1  0
 23 24  1  0
 23 25  1  0
 23 26  1  0
 26 27  1  0
 26 28  1  0
 26 29  1  0
 29 30  1  0
 29 31  1  0
  6 32  1  0
 32 33  1  0
 32 34  2  0
 34 35  1  0
 34  2  1  0
 12  7  1  0
 29 18  1  0
M  END
>  <cnnaffinity>  (1) 
-4.85957

>  <filename>  (1) 
c1cncc(-n2nncc2CNC2CCCC2)c1

$$$$
