
     RDKit          3D

 33 36  0  0  0  0  0  0  0  0999 V2000
    4.9227    1.8175   16.9736 H   0  0  0  0  0  0  0  0  0  0  0  0
    5.3876    1.3001   17.8123 C   0  0  0  0  0  0  0  0  0  0  0  0
    6.5479    0.6788   17.5469 N   0  0  0  0  0  0  0  0  0  0  0  0
    7.1557    0.0597   18.5657 C   0  0  0  0  0  0  0  0  0  0  0  0
    8.1106   -0.4100   18.3295 H   0  0  0  0  0  0  0  0  0  0  0  0
    6.6634    0.0165   19.8835 C   0  0  0  0  0  0  0  0  0  0  0  0
    7.4040   -0.6786   20.9898 C   0  0  0  0  0  0  0  0  0  0  0  0
    7.6449   -2.0555   20.8994 C   0  0  0  0  0  0  0  0  0  0  0  0
    7.2286   -2.5817   20.0466 H   0  0  0  0  0  0  0  0  0  0  0  0
    8.2815   -2.7919   21.8120 N   0  0  0  0  0  0  0  0  0  0  0  0
    8.6600   -2.1773   22.9415 C   0  0  0  0  0  0  0  0  0  0  0  0
    9.1523   -2.8060   23.6842 H   0  0  0  0  0  0  0  0  0  0  0  0
    8.4095   -0.8308   23.1865 C   0  0  0  0  0  0  0  0  0  0  0  0
    8.6715   -0.3772   24.1361 H   0  0  0  0  0  0  0  0  0  0  0  0
    7.7883   -0.0494   22.1918 C   0  0  0  0  0  0  0  0  0  0  0  0
    7.5601    1.3974   22.3948 C   0  0  0  0  0  0  0  0  0  0  0  0
    8.0327    2.3685   21.5759 C   0  0  0  0  0  0  0  0  0  0  0  0
    8.5978    2.1990   20.6648 H   0  0  0  0  0  0  0  0  0  0  0  0
    7.6354    3.9762   22.0928 S   0  0  0  0  0  0  0  0  0  0  0  0
    6.7349    3.3502   23.4517 C   0  0  0  0  0  0  0  0  0  0  0  0
    6.0258    4.0800   24.4225 C   0  0  0  0  0  0  0  0  0  0  0  0
    6.0047    5.1667   24.3910 H   0  0  0  0  0  0  0  0  0  0  0  0
    5.3544    3.3798   25.4180 C   0  0  0  0  0  0  0  0  0  0  0  0
    4.8100    3.9304   26.1760 H   0  0  0  0  0  0  0  0  0  0  0  0
    5.3671    1.9701   25.4564 C   0  0  0  0  0  0  0  0  0  0  0  0
    4.8323    1.4439   26.2409 H   0  0  0  0  0  0  0  0  0  0  0  0
    6.0618    1.2522   24.4960 C   0  0  0  0  0  0  0  0  0  0  0  0
    6.0572    0.1654   24.4946 H   0  0  0  0  0  0  0  0  0  0  0  0
    6.7776    1.9401   23.4893 C   0  0  0  0  0  0  0  0  0  0  0  0
    5.4399    0.6553   20.1316 C   0  0  0  0  0  0  0  0  0  0  0  0
    5.0441    0.6563   21.1502 H   0  0  0  0  0  0  0  0  0  0  0  0
    4.7924    1.3052   19.0781 C   0  0  0  0  0  0  0  0  0  0  0  0
    3.8626    1.8433   19.2253 H   0  0  0  0  0  0  0  0  0  0  0  0
  1  2  1  0
  2  3  2  0
  3  4  1  0
  4  5  1  0
  4  6  2  0
  6  7  1  0
  7  8  2  0
  8  9  1  0
  8 10  1  0
 10 11  2  0
 11 12  1  0
 11 13  1  0
 13 14  1  0
 13 15  2  0
 15 16  1  0
 16 17  2  0
 17 18  1  0
 17 19  1  0
 19 20  1  0
 20 21  2  0
 21 22  1  0
 21 23  1  0
 23 24  1  0
 23 25  2  0
 25 26  1  0
 25 27  1  0
 27 28  1  0
 27 29  2  0
  6 30  1  0
 30 31  1  0
 30 32  2  0
 32 33  1  0
 32  2  1  0
 15  7  1  0
 29 16  1  0
 29 20  1  0
M  END
>  <cnnaffinity>  (1) 
-5.24342

>  <filename>  (1) 
c1cncc(-c2cnccc2-c2csc3ccccc23)c1

$$$$
