
     RDKit          3D

 31 34  0  0  0  0  0  0  0  0999 V2000
    4.9877    1.8557   16.8975 H   0  0  0  0  0  0  0  0  0  0  0  0
    5.4187    1.3031   17.7293 C   0  0  0  0  0  0  0  0  0  0  0  0
    6.5632    0.6501   17.4771 N   0  0  0  0  0  0  0  0  0  0  0  0
    7.1344    0.0001   18.4974 C   0  0  0  0  0  0  0  0  0  0  0  0
    8.0680   -0.5163   18.2844 H   0  0  0  0  0  0  0  0  0  0  0  0
    6.6017   -0.0339   19.8011 C   0  0  0  0  0  0  0  0  0  0  0  0
    7.3606   -0.6539   20.9034 C   0  0  0  0  0  0  0  0  0  0  0  0
    8.4916   -1.3410   20.6748 N   0  0  0  0  0  0  0  0  0  0  0  0
    8.9371   -1.6134   21.9209 N   0  0  0  0  0  0  0  0  0  0  0  0
   10.0603   -2.2301   22.4590 C   0  0  0  0  0  0  0  0  0  0  0  0
   10.8053   -2.6779   21.8279 H   0  0  0  0  0  0  0  0  0  0  0  0
    9.9524   -2.0876   23.8067 C   0  0  0  0  0  0  0  0  0  0  0  0
   10.5899   -2.4516   24.5958 H   0  0  0  0  0  0  0  0  0  0  0  0
    8.7854   -1.3850   24.1094 N   0  0  0  0  0  0  0  0  0  0  0  0
    8.3132   -0.9787   25.3770 C   0  0  0  0  0  0  0  0  0  0  0  0
    6.9210   -0.9014   25.6038 C   0  0  0  0  0  0  0  0  0  0  0  0
    6.2498   -1.1992   24.7986 H   0  0  0  0  0  0  0  0  0  0  0  0
    6.3688   -0.4456   26.7297 N   0  0  0  0  0  0  0  0  0  0  0  0
    7.1901   -0.0600   27.7181 C   0  0  0  0  0  0  0  0  0  0  0  0
    6.7213    0.3686   28.6040 H   0  0  0  0  0  0  0  0  0  0  0  0
    8.5819   -0.1637   27.6190 C   0  0  0  0  0  0  0  0  0  0  0  0
    9.1982    0.1015   28.4690 H   0  0  0  0  0  0  0  0  0  0  0  0
    9.1679   -0.6093   26.4296 C   0  0  0  0  0  0  0  0  0  0  0  0
   10.2554   -0.6315   26.3348 H   0  0  0  0  0  0  0  0  0  0  0  0
    8.1587   -1.1158   22.8976 C   0  0  0  0  0  0  0  0  0  0  0  0
    7.0757   -0.5098   22.2818 C   0  0  0  0  0  0  0  0  0  0  0  0
    6.2139   -0.0443   22.7220 H   0  0  0  0  0  0  0  0  0  0  0  0
    5.3810    0.6199   20.0349 C   0  0  0  0  0  0  0  0  0  0  0  0
    4.9133    0.6167   21.0244 H   0  0  0  0  0  0  0  0  0  0  0  0
    4.7868    1.3029   18.9790 C   0  0  0  0  0  0  0  0  0  0  0  0
    3.8716    1.8639   19.1226 H   0  0  0  0  0  0  0  0  0  0  0  0
  1  2  1  0
  2  3  2  0
  3  4  1  0
  4  5  1  0
  4  6  2  0
  6  7  1  0
  7  8  2  0
  8  9  1  0
  9 10  1  0
 10 11  1  0
 10 12  2  0
 12 13  1  0
 12 14  1  0
 14 15  1  0
 15 16  2  0
 16 17  1  0
 16 18  1  0
 18 19  2  0
 19 20  1  0
 19 21  1  0
 21 22  1  0
 21 23  2  0
 23 24  1  0
 14 25  1  0
 25 26  2  0
 26 27  1  0
  6 28  1  0
 28 29  1  0
 28 30  2  0
 30 31  1  0
 30  2  1  0
 26  7  1  0
 25  9  1  0
 23 15  1  0
M  END
>  <cnnaffinity>  (1) 
-5.31009

>  <filename>  (1) 
c1cncc(-c2cc3n(-c4cccnc4)ccn3n2)c1

$$$$
