
     RDKit          3D

 36 39  0  0  0  0  0  0  0  0999 V2000
    4.9346    1.8115   16.9795 H   0  0  0  0  0  0  0  0  0  0  0  0
    5.3988    1.2985   17.8187 C   0  0  0  0  0  0  0  0  0  0  0  0
    6.5618    0.6750   17.5589 N   0  0  0  0  0  0  0  0  0  0  0  0
    7.1692    0.0407   18.5732 C   0  0  0  0  0  0  0  0  0  0  0  0
    8.1233   -0.4306   18.3401 H   0  0  0  0  0  0  0  0  0  0  0  0
    6.6619   -0.0236   19.8919 C   0  0  0  0  0  0  0  0  0  0  0  0
    7.3208   -0.7002   20.9310 N   0  0  0  0  0  0  0  0  0  0  0  0
    7.8339   -1.5545   20.7519 H   0  0  0  0  0  0  0  0  0  0  0  0
    7.4082   -0.2803   22.2561 C   0  0  0  0  0  0  0  0  0  0  0  0
    7.2301    1.0061   22.8318 C   0  0  0  0  0  0  0  0  0  0  0  0
    6.9764    1.9378   22.3331 H   0  0  0  0  0  0  0  0  0  0  0  0
    7.4569    0.9785   24.1442 N   0  0  0  0  0  0  0  0  0  0  0  0
    7.7921   -0.2972   24.4080 N   0  0  0  0  0  0  0  0  0  0  0  0
    7.9645   -0.5739   25.3681 H   0  0  0  0  0  0  0  0  0  0  0  0
    7.7775   -1.1108   23.3131 C   0  0  0  0  0  0  0  0  0  0  0  0
    8.1345   -2.5474   23.3351 C   0  0  0  0  0  0  0  0  0  0  0  0
    9.3372   -2.9562   23.8886 C   0  0  0  0  0  0  0  0  0  0  0  0
    9.9959   -2.2074   24.3201 H   0  0  0  0  0  0  0  0  0  0  0  0
    9.7320   -4.3159   23.8713 C   0  0  0  0  0  0  0  0  0  0  0  0
   10.7097   -4.5800   24.2684 H   0  0  0  0  0  0  0  0  0  0  0  0
    8.9066   -5.2723   23.3192 C   0  0  0  0  0  0  0  0  0  0  0  0
    9.1443   -6.3352   23.3188 H   0  0  0  0  0  0  0  0  0  0  0  0
    7.6709   -4.9073   22.7248 C   0  0  0  0  0  0  0  0  0  0  0  0
    6.8330   -5.8908   22.1133 C   0  0  0  0  0  0  0  0  0  0  0  0
    7.1990   -6.9155   22.0709 H   0  0  0  0  0  0  0  0  0  0  0  0
    5.5796   -5.5660   21.6515 C   0  0  0  0  0  0  0  0  0  0  0  0
    4.9477   -6.3354   21.2132 H   0  0  0  0  0  0  0  0  0  0  0  0
    5.1105   -4.2322   21.7918 C   0  0  0  0  0  0  0  0  0  0  0  0
    4.0828   -3.9642   21.5806 H   0  0  0  0  0  0  0  0  0  0  0  0
    5.9369   -3.2519   22.2832 C   0  0  0  0  0  0  0  0  0  0  0  0
    5.6088   -2.2216   22.3242 H   0  0  0  0  0  0  0  0  0  0  0  0
    7.2496   -3.5410   22.7644 C   0  0  0  0  0  0  0  0  0  0  0  0
    5.4477    0.6407   20.1356 C   0  0  0  0  0  0  0  0  0  0  0  0
    5.0516    0.6291   21.1499 H   0  0  0  0  0  0  0  0  0  0  0  0
    4.8053    1.3061   19.0869 C   0  0  0  0  0  0  0  0  0  0  0  0
    3.8713    1.8405   19.2440 H   0  0  0  0  0  0  0  0  0  0  0  0
  1  2  1  0
  2  3  2  0
  3  4  1  0
  4  5  1  0
  4  6  2  0
  6  7  1  0
  7  8  1  0
  7  9  1  0
  9 10  1  0
 10 11  1  0
 10 12  2  0
 12 13  1  0
 13 14  1  0
 13 15  1  0
 15 16  1  0
 16 17  2  0
 17 18  1  0
 17 19  1  0
 19 20  1  0
 19 21  2  0
 21 22  1  0
 21 23  1  0
 23 24  2  0
 24 25  1  0
 24 26  1  0
 26 27  1  0
 26 28  2  0
 28 29  1  0
 28 30  1  0
 30 31  1  0
 30 32  2  0
  6 33  1  0
 33 34  1  0
 33 35  2  0
 35 36  1  0
 35  2  1  0
 15  9  2  0
 32 16  1  0
 32 23  1  0
M  END
>  <cnnaffinity>  (1) 
-5.83835

>  <filename>  (1) 
c1cncc(Nc2cn[nH]c2-c2cccc3ccccc23)c1

$$$$
