
     RDKit          3D

 44 48  0  0  0  0  0  0  0  0999 V2000
    5.0313    1.6499   16.8259 H   0  0  0  0  0  0  0  0  0  0  0  0
    5.3902    1.1866   17.7441 C   0  0  0  0  0  0  0  0  0  0  0  0
    6.5625    0.5386   17.6677 N   0  0  0  0  0  0  0  0  0  0  0  0
    7.0375   -0.0004   18.7979 C   0  0  0  0  0  0  0  0  0  0  0  0
    7.9819   -0.5346   18.6942 H   0  0  0  0  0  0  0  0  0  0  0  0
    6.3954    0.0646   20.0533 C   0  0  0  0  0  0  0  0  0  0  0  0
    7.1018   -0.4615   21.2403 C   0  0  0  0  0  0  0  0  0  0  0  0
    8.4617   -0.5000   21.4793 C   0  0  0  0  0  0  0  0  0  0  0  0
    8.6186   -1.1918   22.6755 C   0  0  0  0  0  0  0  0  0  0  0  0
    7.4700   -1.5711   23.2050 N   0  0  0  0  0  0  0  0  0  0  0  0
    6.5547   -1.1032   22.3170 N   0  0  0  0  0  0  0  0  0  0  0  0
    5.5754   -1.2417   22.5392 H   0  0  0  0  0  0  0  0  0  0  0  0
   10.0600   -1.4234   23.0185 C   0  0  0  0  0  0  0  0  0  0  0  0
   10.2951   -1.1998   24.0645 H   0  0  0  0  0  0  0  0  0  0  0  0
   10.3245   -2.4754   22.8573 H   0  0  0  0  0  0  0  0  0  0  0  0
   10.8042   -0.4959   22.0003 C   0  0  2  0  0  0  0  0  0  0  0  0
   11.6129   -1.0748   21.5435 H   0  0  0  0  0  0  0  0  0  0  0  0
   11.4727    0.7362   22.6587 C   0  0  0  0  0  0  0  0  0  0  0  0
   12.1668    1.1600   21.9233 H   0  0  0  0  0  0  0  0  0  0  0  0
   12.1006    0.3787   23.4840 H   0  0  0  0  0  0  0  0  0  0  0  0
   10.5634    1.8450   23.1757 C   0  0  0  0  0  0  0  0  0  0  0  0
   10.3105    2.9980   22.3666 C   0  0  0  0  0  0  0  0  0  0  0  0
   10.6643    2.9941   21.3334 H   0  0  0  0  0  0  0  0  0  0  0  0
    9.6909    4.1158   22.8765 C   0  0  0  0  0  0  0  0  0  0  0  0
    9.5658    5.0122   22.2735 H   0  0  0  0  0  0  0  0  0  0  0  0
    9.1709    4.1163   24.2073 C   0  0  0  0  0  0  0  0  0  0  0  0
    8.4840    5.2375   24.7707 C   0  0  0  0  0  0  0  0  0  0  0  0
    8.3799    6.1402   24.1730 H   0  0  0  0  0  0  0  0  0  0  0  0
    7.9530    5.1761   26.0409 C   0  0  0  0  0  0  0  0  0  0  0  0
    7.3897    6.0138   26.4491 H   0  0  0  0  0  0  0  0  0  0  0  0
    8.1098    3.9920   26.8209 C   0  0  0  0  0  0  0  0  0  0  0  0
    7.6940    3.9509   27.8242 H   0  0  0  0  0  0  0  0  0  0  0  0
    8.7765    2.9034   26.3108 C   0  0  0  0  0  0  0  0  0  0  0  0
    8.9037    1.9914   26.8894 H   0  0  0  0  0  0  0  0  0  0  0  0
    9.3302    2.9341   24.9964 C   0  0  0  0  0  0  0  0  0  0  0  0
   10.0308    1.8157   24.4468 C   0  0  0  0  0  0  0  0  0  0  0  0
   10.1679    0.9482   25.0890 H   0  0  0  0  0  0  0  0  0  0  0  0
    9.7803   -0.1255   20.8774 C   0  0  0  0  0  0  0  0  0  0  0  0
    9.9782   -0.7055   19.9681 H   0  0  0  0  0  0  0  0  0  0  0  0
    9.8315    0.9297   20.5791 H   0  0  0  0  0  0  0  0  0  0  0  0
    5.1438    0.7017   20.0930 C   0  0  0  0  0  0  0  0  0  0  0  0
    4.5894    0.7650   21.0298 H   0  0  0  0  0  0  0  0  0  0  0  0
    4.6421    1.2755   18.9229 C   0  0  0  0  0  0  0  0  0  0  0  0
    3.6949    1.8033   18.9146 H   0  0  0  0  0  0  0  0  0  0  0  0
  1  2  1  0
  2  3  2  0
  3  4  1  0
  4  5  1  0
  4  6  2  0
  6  7  1  0
  7  8  2  0
  8  9  1  0
  9 10  2  0
 10 11  1  0
 11 12  1  0
  9 13  1  0
 13 14  1  0
 13 15  1  0
 13 16  1  0
 16 17  1  6
 16 18  1  0
 18 19  1  0
 18 20  1  0
 18 21  1  0
 21 22  2  0
 22 23  1  0
 22 24  1  0
 24 25  1  0
 24 26  2  0
 26 27  1  0
 27 28  1  0
 27 29  2  0
 29 30  1  0
 29 31  1  0
 31 32  1  0
 31 33  2  0
 33 34  1  0
 33 35  1  0
 35 36  2  0
 36 37  1  0
 16 38  1  0
 38 39  1  0
 38 40  1  0
  6 41  1  0
 41 42  1  0
 41 43  2  0
 43 44  1  0
 43  2  1  0
 11  7  1  0
 36 21  1  0
 38  8  1  0
 35 26  1  0
M  END
>  <cnnaffinity>  (1) 
-5.7154

>  <filename>  (1) 
c1cncc(-c2[nH]nc3c2C[C@@H](Cc2ccc4ccccc4c2)C3)c1

$$$$
