
     RDKit          3D

 34 37  0  0  0  0  0  0  0  0999 V2000
    4.9106    1.8325   16.9634 H   0  0  0  0  0  0  0  0  0  0  0  0
    5.3880    1.3174   17.7949 C   0  0  0  0  0  0  0  0  0  0  0  0
    6.5445    0.6989   17.5159 N   0  0  0  0  0  0  0  0  0  0  0  0
    7.1689    0.0818   18.5274 C   0  0  0  0  0  0  0  0  0  0  0  0
    8.1124   -0.4037   18.2746 H   0  0  0  0  0  0  0  0  0  0  0  0
    6.6940    0.0267   19.8515 C   0  0  0  0  0  0  0  0  0  0  0  0
    7.4590   -0.6926   20.9526 C   0  0  1  0  0  0  0  0  0  0  0  0
    8.3899   -1.0878   20.5233 H   0  0  0  0  0  0  0  0  0  0  0  0
    7.8552    0.2552   22.1448 C   0  0  0  0  0  0  0  0  0  0  0  0
    8.9423    0.3675   22.2075 H   0  0  0  0  0  0  0  0  0  0  0  0
    7.4581    1.2690   22.0447 H   0  0  0  0  0  0  0  0  0  0  0  0
    7.2831   -0.4354   23.3446 C   0  0  0  0  0  0  0  0  0  0  0  0
    7.2745   -0.1892   24.6395 N   0  0  0  0  0  0  0  0  0  0  0  0
    6.6492   -1.2752   25.1577 N   0  0  0  0  0  0  0  0  0  0  0  0
    6.6080   -1.3446   26.1623 H   0  0  0  0  0  0  0  0  0  0  0  0
    6.2459   -2.1910   24.2213 C   0  0  0  0  0  0  0  0  0  0  0  0
    5.6203   -3.5165   24.4697 C   0  0  0  0  0  0  0  0  0  0  0  0
    4.7196   -4.0514   23.5342 C   0  0  0  0  0  0  0  0  0  0  0  0
    4.3858   -3.4735   22.6769 H   0  0  0  0  0  0  0  0  0  0  0  0
    4.2448   -5.3530   23.7127 C   0  0  0  0  0  0  0  0  0  0  0  0
    3.5586   -5.7904   22.9919 H   0  0  0  0  0  0  0  0  0  0  0  0
    4.5996   -6.1406   24.7375 N   0  0  0  0  0  0  0  0  0  0  0  0
    5.4518   -5.6239   25.6331 C   0  0  0  0  0  0  0  0  0  0  0  0
    5.7459   -6.2775   26.4522 H   0  0  0  0  0  0  0  0  0  0  0  0
    5.9813   -4.3336   25.5548 C   0  0  0  0  0  0  0  0  0  0  0  0
    6.6989   -3.9980   26.2983 H   0  0  0  0  0  0  0  0  0  0  0  0
    6.6591   -1.6360   23.0240 C   0  0  0  0  0  0  0  0  0  0  0  0
    6.6589   -1.9044   21.5565 C   0  0  0  0  0  0  0  0  0  0  0  0
    5.6338   -1.9438   21.1648 H   0  0  0  0  0  0  0  0  0  0  0  0
    7.1261   -2.8606   21.2847 H   0  0  0  0  0  0  0  0  0  0  0  0
    5.4678    0.6665   20.1054 C   0  0  0  0  0  0  0  0  0  0  0  0
    5.0375    0.6628   21.1081 H   0  0  0  0  0  0  0  0  0  0  0  0
    4.8034    1.3219   19.0644 C   0  0  0  0  0  0  0  0  0  0  0  0
    3.8642    1.8446   19.2208 H   0  0  0  0  0  0  0  0  0  0  0  0
  1  2  1  0
  2  3  2  0
  3  4  1  0
  4  5  1  0
  4  6  2  0
  6  7  1  0
  7  8  1  6
  7  9  1  0
  9 10  1  0
  9 11  1  0
  9 12  1  0
 12 13  2  0
 13 14  1  0
 14 15  1  0
 14 16  1  0
 16 17  1  0
 17 18  2  0
 18 19  1  0
 18 20  1  0
 20 21  1  0
 20 22  2  0
 22 23  1  0
 23 24  1  0
 23 25  2  0
 25 26  1  0
 16 27  2  0
 27 28  1  0
 28 29  1  0
 28 30  1  0
  6 31  1  0
 31 32  1  0
 31 33  2  0
 33 34  1  0
 33  2  1  0
 28  7  1  0
 27 12  1  0
 25 17  1  0
M  END
>  <cnnaffinity>  (1) 
-5.11722

>  <filename>  (1) 
c1cncc([C@H]2Cc3n[nH]c(-c4ccncc4)c3C2)c1

$$$$
