
     RDKit          3D

 46 49  0  0  0  0  0  0  0  0999 V2000
    4.9732    1.6942   17.0379 H   0  0  0  0  0  0  0  0  0  0  0  0
    5.5396    1.1771   17.8096 C   0  0  0  0  0  0  0  0  0  0  0  0
    6.6852    0.5869   17.4283 N   0  0  0  0  0  0  0  0  0  0  0  0
    7.3959   -0.0529   18.3672 C   0  0  0  0  0  0  0  0  0  0  0  0
    8.3147   -0.5175   18.0101 H   0  0  0  0  0  0  0  0  0  0  0  0
    7.0310   -0.1579   19.7380 C   0  0  0  0  0  0  0  0  0  0  0  0
    7.8195   -0.8559   20.6747 N   0  0  0  0  0  0  0  0  0  0  0  0
    8.7457   -1.0790   20.3360 H   0  0  0  0  0  0  0  0  0  0  0  0
    7.8590   -0.5110   22.1059 C   0  0  0  0  0  0  0  0  0  0  0  0
    8.1266    0.9737   22.4063 C   0  0  0  0  0  0  0  0  0  0  0  0
    7.0864    1.8480   22.7732 C   0  0  0  0  0  0  0  0  0  0  0  0
    6.0691    1.4817   22.8664 H   0  0  0  0  0  0  0  0  0  0  0  0
    7.3122    3.2008   22.9986 C   0  0  0  0  0  0  0  0  0  0  0  0
    6.5070    3.8628   23.2970 H   0  0  0  0  0  0  0  0  0  0  0  0
    8.6040    3.7436   22.8888 C   0  0  0  0  0  0  0  0  0  0  0  0
    8.7973    5.1075   23.1558 N   0  0  0  0  0  0  0  0  0  0  0  0
    8.0583    6.1355   22.4160 C   0  0  0  0  0  0  0  0  0  0  0  0
    7.1218    5.7295   22.0179 H   0  0  0  0  0  0  0  0  0  0  0  0
    8.6500    6.5013   21.5594 H   0  0  0  0  0  0  0  0  0  0  0  0
    7.7983    7.3272   23.3415 C   0  0  0  0  0  0  0  0  0  0  0  0
    7.1378    7.0164   24.1630 H   0  0  0  0  0  0  0  0  0  0  0  0
    7.3084    8.1411   22.7970 H   0  0  0  0  0  0  0  0  0  0  0  0
    9.0194    7.8577   23.8571 O   0  0  0  0  0  0  0  0  0  0  0  0
    9.8156    6.8679   24.5061 C   0  0  0  0  0  0  0  0  0  0  0  0
    9.3494    6.5551   25.4540 H   0  0  0  0  0  0  0  0  0  0  0  0
   10.7683    7.3395   24.7506 H   0  0  0  0  0  0  0  0  0  0  0  0
   10.0747    5.6401   23.6169 C   0  0  0  0  0  0  0  0  0  0  0  0
   10.6367    4.8866   24.1794 H   0  0  0  0  0  0  0  0  0  0  0  0
   10.7203    5.9374   22.7711 H   0  0  0  0  0  0  0  0  0  0  0  0
    9.6571    2.8754   22.5544 C   0  0  0  0  0  0  0  0  0  0  0  0
   10.6556    3.2920   22.4887 H   0  0  0  0  0  0  0  0  0  0  0  0
    9.4198    1.5208   22.3166 C   0  0  0  0  0  0  0  0  0  0  0  0
   10.2651    0.8776   22.0802 H   0  0  0  0  0  0  0  0  0  0  0  0
    8.8288   -1.4689   22.8449 C   0  0  0  0  0  0  0  0  0  0  0  0
    9.3088   -2.1868   22.1786 H   0  0  0  0  0  0  0  0  0  0  0  0
    9.6269   -0.9735   23.3991 H   0  0  0  0  0  0  0  0  0  0  0  0
    7.6684   -2.0233   23.7120 C   0  0  0  0  0  0  0  0  0  0  0  0
    7.5066   -3.1070   23.6721 H   0  0  0  0  0  0  0  0  0  0  0  0
    7.7406   -1.7438   24.7692 H   0  0  0  0  0  0  0  0  0  0  0  0
    6.6796   -1.1462   22.9035 C   0  0  0  0  0  0  0  0  0  0  0  0
    5.9955   -1.6955   22.2496 H   0  0  0  0  0  0  0  0  0  0  0  0
    6.1142   -0.4423   23.5193 H   0  0  0  0  0  0  0  0  0  0  0  0
    5.8170    0.4488   20.0949 C   0  0  0  0  0  0  0  0  0  0  0  0
    5.4744    0.4041   21.1246 H   0  0  0  0  0  0  0  0  0  0  0  0
    5.0763    1.1348   19.1274 C   0  0  0  0  0  0  0  0  0  0  0  0
    4.1530    1.6383   19.3918 H   0  0  0  0  0  0  0  0  0  0  0  0
  1  2  1  0
  2  3  2  0
  3  4  1  0
  4  5  1  0
  4  6  2  0
  6  7  1  0
  7  8  1  0
  7  9  1  0
  9 10  1  0
 10 11  2  0
 11 12  1  0
 11 13  1  0
 13 14  1  0
 13 15  2  0
 15 16  1  0
 16 17  1  0
 17 18  1  0
 17 19  1  0
 17 20  1  0
 20 21  1  0
 20 22  1  0
 20 23  1  0
 23 24  1  0
 24 25  1  0
 24 26  1  0
 24 27  1  0
 27 28  1  0
 27 29  1  0
 15 30  1  0
 30 31  1  0
 30 32  2  0
 32 33  1  0
  9 34  1  0
 34 35  1  0
 34 36  1  0
 34 37  1  0
 37 38  1  0
 37 39  1  0
 37 40  1  0
 40 41  1  0
 40 42  1  0
  6 43  1  0
 43 44  1  0
 43 45  2  0
 45 46  1  0
 45  2  1  0
 40  9  1  0
 32 10  1  0
 27 16  1  0
M  END
>  <cnnaffinity>  (1) 
-5.39169

>  <filename>  (1) 
c1cncc(NC2(c3ccc(N4CCOCC4)cc3)CCC2)c1

$$$$
