
     RDKit          3D

 32 35  0  0  0  0  0  0  0  0999 V2000
    4.9232    1.7780   16.9992 H   0  0  0  0  0  0  0  0  0  0  0  0
    5.4059    1.2887   17.8438 C   0  0  0  0  0  0  0  0  0  0  0  0
    6.5731    0.6710   17.5934 N   0  0  0  0  0  0  0  0  0  0  0  0
    7.1846    0.0485   18.6050 C   0  0  0  0  0  0  0  0  0  0  0  0
    8.1288   -0.4340   18.3741 H   0  0  0  0  0  0  0  0  0  0  0  0
    6.6631   -0.0019   19.9091 C   0  0  0  0  0  0  0  0  0  0  0  0
    7.3605   -0.6824   20.9389 N   0  0  0  0  0  0  0  0  0  0  0  0
    8.2925   -1.6207   20.6646 N   0  0  0  0  0  0  0  0  0  0  0  0
    8.7304   -2.0170   21.8437 C   0  0  0  0  0  0  0  0  0  0  0  0
    9.5113   -2.7602   21.9170 H   0  0  0  0  0  0  0  0  0  0  0  0
    8.1078   -1.3323   22.9160 C   0  0  0  0  0  0  0  0  0  0  0  0
    8.3475   -1.4446   24.3559 C   0  0  0  0  0  0  0  0  0  0  0  0
    8.2669   -0.3072   25.1696 C   0  0  0  0  0  0  0  0  0  0  0  0
    8.0202    0.6512   24.7177 H   0  0  0  0  0  0  0  0  0  0  0  0
    8.5165   -0.3769   26.5529 C   0  0  0  0  0  0  0  0  0  0  0  0
    8.4544    0.5216   27.1669 H   0  0  0  0  0  0  0  0  0  0  0  0
    8.8407   -1.5846   27.1570 C   0  0  0  0  0  0  0  0  0  0  0  0
    9.0261   -1.6068   28.2216 H   0  0  0  0  0  0  0  0  0  0  0  0
    8.9047   -2.7324   26.3488 C   0  0  0  0  0  0  0  0  0  0  0  0
    8.6587   -2.6939   24.9554 C   0  0  0  0  0  0  0  0  0  0  0  0
    8.7640   -4.0526   24.4884 C   0  0  0  0  0  0  0  0  0  0  0  0
    8.5814   -4.3653   23.4712 H   0  0  0  0  0  0  0  0  0  0  0  0
    9.0723   -4.8428   25.5575 C   0  0  0  0  0  0  0  0  0  0  0  0
    9.2217   -5.9185   25.6076 H   0  0  0  0  0  0  0  0  0  0  0  0
    9.1649   -4.0408   26.6785 N   0  0  0  0  0  0  0  0  0  0  0  0
    9.3592   -4.3467   27.6141 H   0  0  0  0  0  0  0  0  0  0  0  0
    7.2400   -0.4804   22.2761 C   0  0  0  0  0  0  0  0  0  0  0  0
    6.5596    0.2529   22.6878 H   0  0  0  0  0  0  0  0  0  0  0  0
    5.4449    0.6460   20.1677 C   0  0  0  0  0  0  0  0  0  0  0  0
    4.9939    0.6280   21.1615 H   0  0  0  0  0  0  0  0  0  0  0  0
    4.8134    1.3032   19.1105 C   0  0  0  0  0  0  0  0  0  0  0  0
    3.8817    1.8367   19.2646 H   0  0  0  0  0  0  0  0  0  0  0  0
  1  2  1  0
  2  3  2  0
  3  4  1  0
  4  5  1  0
  4  6  2  0
  6  7  1  0
  7  8  1  0
  8  9  2  0
  9 10  1  0
  9 11  1  0
 11 12  1  0
 12 13  2  0
 13 14  1  0
 13 15  1  0
 15 16  1  0
 15 17  2  0
 17 18  1  0
 17 19  1  0
 19 20  2  0
 20 21  1  0
 21 22  1  0
 21 23  2  0
 23 24  1  0
 23 25  1  0
 25 26  1  0
 11 27  2  0
 27 28  1  0
  6 29  1  0
 29 30  1  0
 29 31  2  0
 31 32  1  0
 31  2  1  0
 27  7  1  0
 20 12  1  0
 25 19  1  0
M  END
>  <cnnaffinity>  (1) 
-5.42605

>  <filename>  (1) 
c1cncc(-n2cc(-c3cccc4[nH]ccc34)cn2)c1

$$$$
