
     RDKit          3D

 35 39  0  0  0  0  0  0  0  0999 V2000
    4.9122    1.8107   16.9729 H   0  0  0  0  0  0  0  0  0  0  0  0
    5.3778    1.3043   17.8190 C   0  0  0  0  0  0  0  0  0  0  0  0
    6.5408    0.6850   17.5622 N   0  0  0  0  0  0  0  0  0  0  0  0
    7.1504    0.0746   18.5819 C   0  0  0  0  0  0  0  0  0  0  0  0
    8.1021   -0.3929   18.3375 H   0  0  0  0  0  0  0  0  0  0  0  0
    6.6574    0.0259   19.9071 C   0  0  0  0  0  0  0  0  0  0  0  0
    7.4099   -0.6724   20.9634 C   0  0  0  0  0  0  0  0  0  0  0  0
    8.3235   -1.6981   20.9067 C   0  0  0  0  0  0  0  0  0  0  0  0
    8.7278   -2.1161   20.0040 H   0  0  0  0  0  0  0  0  0  0  0  0
    8.7899   -2.0983   22.1279 N   0  0  0  0  0  0  0  0  0  0  0  0
    8.1865   -1.2761   22.9466 C   0  0  0  0  0  0  0  0  0  0  0  0
    8.3139   -0.8839   24.6200 S   0  0  0  0  0  0  0  0  0  0  0  0
    7.1865    0.4393   24.2958 C   0  0  0  0  0  0  0  0  0  0  0  0
    6.8138    1.3858   25.3338 C   0  0  0  0  0  0  0  0  0  0  0  0
    6.9618    2.7298   25.0555 C   0  0  0  0  0  0  0  0  0  0  0  0
    7.2839    3.0766   24.0725 H   0  0  0  0  0  0  0  0  0  0  0  0
    6.7489    3.7047   25.9704 N   0  0  0  0  0  0  0  0  0  0  0  0
    6.3594    3.3509   27.1780 C   0  0  0  0  0  0  0  0  0  0  0  0
    6.1867    4.1654   27.8819 H   0  0  0  0  0  0  0  0  0  0  0  0
    6.1399    2.0044   27.5935 C   0  0  0  0  0  0  0  0  0  0  0  0
    5.7038    1.6586   28.9088 C   0  0  0  0  0  0  0  0  0  0  0  0
    5.5443    2.4510   29.6367 H   0  0  0  0  0  0  0  0  0  0  0  0
    5.4805    0.3439   29.2388 C   0  0  0  0  0  0  0  0  0  0  0  0
    5.1490    0.0815   30.2397 H   0  0  0  0  0  0  0  0  0  0  0  0
    5.6714   -0.6843   28.2787 C   0  0  0  0  0  0  0  0  0  0  0  0
    5.4832   -1.7182   28.5565 H   0  0  0  0  0  0  0  0  0  0  0  0
    6.0933   -0.3746   27.0019 C   0  0  0  0  0  0  0  0  0  0  0  0
    6.2311   -1.1553   26.2631 H   0  0  0  0  0  0  0  0  0  0  0  0
    6.3595    0.9765   26.6305 C   0  0  0  0  0  0  0  0  0  0  0  0
    6.8125    0.5968   23.0631 N   0  0  0  0  0  0  0  0  0  0  0  0
    7.3345   -0.4087   22.3275 N   0  0  0  0  0  0  0  0  0  0  0  0
    5.4286    0.6664   20.1475 C   0  0  0  0  0  0  0  0  0  0  0  0
    5.0210    0.6590   21.1571 H   0  0  0  0  0  0  0  0  0  0  0  0
    4.7886    1.3148   19.0873 C   0  0  0  0  0  0  0  0  0  0  0  0
    3.8581    1.8501   19.2325 H   0  0  0  0  0  0  0  0  0  0  0  0
  1  2  1  0
  2  3  2  0
  3  4  1  0
  4  5  1  0
  4  6  2  0
  6  7  1  0
  7  8  2  0
  8  9  1  0
  8 10  1  0
 10 11  2  0
 11 12  1  0
 12 13  1  0
 13 14  1  0
 14 15  2  0
 15 16  1  0
 15 17  1  0
 17 18  2  0
 18 19  1  0
 18 20  1  0
 20 21  2  0
 21 22  1  0
 21 23  1  0
 23 24  1  0
 23 25  2  0
 25 26  1  0
 25 27  1  0
 27 28  1  0
 27 29  2  0
 13 30  2  0
 30 31  1  0
  6 32  1  0
 32 33  1  0
 32 34  2  0
 34 35  1  0
 34  2  1  0
 31  7  1  0
 31 11  1  0
 29 14  1  0
 29 20  1  0
M  END
>  <cnnaffinity>  (1) 
-5.6067

>  <filename>  (1) 
c1cncc(-c2cnc3sc(-c4cncc5ccccc45)nn23)c1

$$$$
