
     RDKit          3D

 38 41  0  0  0  0  0  0  0  0999 V2000
    5.0122    1.7910   17.0089 H   0  0  0  0  0  0  0  0  0  0  0  0
    5.4347    1.2386   17.8453 C   0  0  0  0  0  0  0  0  0  0  0  0
    6.5724    0.5684   17.6037 N   0  0  0  0  0  0  0  0  0  0  0  0
    7.1291   -0.0837   18.6322 C   0  0  0  0  0  0  0  0  0  0  0  0
    8.0752   -0.5817   18.4156 H   0  0  0  0  0  0  0  0  0  0  0  0
    6.6142   -0.1033   19.9348 C   0  0  0  0  0  0  0  0  0  0  0  0
    7.3221   -0.8875   21.0143 C   0  0  0  0  0  0  0  0  0  0  0  0
    6.8226   -2.2558   20.9210 N   0  0  0  0  0  0  0  0  0  0  0  0
    5.8805   -2.3016   20.5528 H   0  0  0  0  0  0  0  0  0  0  0  0
    6.7117   -3.0919   22.0131 C   0  0  0  0  0  0  0  0  0  0  0  0
    5.5130   -3.6223   22.1220 N   0  0  0  0  0  0  0  0  0  0  0  0
    5.2995   -4.4341   23.2113 C   0  0  0  0  0  0  0  0  0  0  0  0
    3.9910   -4.9537   23.4205 C   0  0  0  0  0  0  0  0  0  0  0  0
    3.2394   -4.6450   22.7028 H   0  0  0  0  0  0  0  0  0  0  0  0
    3.7193   -5.7928   24.4851 C   0  0  0  0  0  0  0  0  0  0  0  0
    2.7113   -6.1747   24.6351 H   0  0  0  0  0  0  0  0  0  0  0  0
    4.7512   -6.1550   25.3951 C   0  0  0  0  0  0  0  0  0  0  0  0
    4.5147   -6.8206   26.2248 H   0  0  0  0  0  0  0  0  0  0  0  0
    6.0259   -5.6627   25.2347 C   0  0  0  0  0  0  0  0  0  0  0  0
    6.8157   -5.9293   25.9376 H   0  0  0  0  0  0  0  0  0  0  0  0
    6.3295   -4.7842   24.1488 C   0  0  0  0  0  0  0  0  0  0  0  0
    7.6244   -4.2181   23.9384 C   0  0  0  0  0  0  0  0  0  0  0  0
    8.4320   -4.4702   24.6317 H   0  0  0  0  0  0  0  0  0  0  0  0
    7.8106   -3.3712   22.8765 C   0  0  0  0  0  0  0  0  0  0  0  0
    8.7478   -2.8744   22.6670 H   0  0  0  0  0  0  0  0  0  0  0  0
    8.8763   -0.7778   21.0095 C   0  0  0  0  0  0  0  0  0  0  0  0
    9.2512   -0.0764   20.2616 H   0  0  0  0  0  0  0  0  0  0  0  0
    9.4075   -1.7275   20.8990 H   0  0  0  0  0  0  0  0  0  0  0  0
    8.8666   -0.1472   22.4209 C   0  0  0  0  0  0  0  0  0  0  0  0
    9.3399   -0.7492   23.2025 H   0  0  0  0  0  0  0  0  0  0  0  0
    9.2926    0.8600   22.4724 H   0  0  0  0  0  0  0  0  0  0  0  0
    7.3202   -0.1842   22.4126 C   0  0  0  0  0  0  0  0  0  0  0  0
    6.8978    0.8180   22.3487 H   0  0  0  0  0  0  0  0  0  0  0  0
    6.8263   -0.7207   23.2288 H   0  0  0  0  0  0  0  0  0  0  0  0
    5.4046    0.5803   20.1565 C   0  0  0  0  0  0  0  0  0  0  0  0
    4.9544    0.5930   21.1504 H   0  0  0  0  0  0  0  0  0  0  0  0
    4.8139    1.2624   19.0962 C   0  0  0  0  0  0  0  0  0  0  0  0
    3.9031    1.8318   19.2341 H   0  0  0  0  0  0  0  0  0  0  0  0
  1  2  1  0
  2  3  2  0
  3  4  1  0
  4  5  1  0
  4  6  2  0
  6  7  1  0
  7  8  1  0
  8  9  1  0
  8 10  1  0
 10 11  2  0
 11 12  1  0
 12 13  2  0
 13 14  1  0
 13 15  1  0
 15 16  1  0
 15 17  2  0
 17 18  1  0
 17 19  1  0
 19 20  1  0
 19 21  2  0
 21 22  1  0
 22 23  1  0
 22 24  2  0
 24 25  1  0
  7 26  1  0
 26 27  1  0
 26 28  1  0
 26 29  1  0
 29 30  1  0
 29 31  1  0
 29 32  1  0
 32 33  1  0
 32 34  1  0
  6 35  1  0
 35 36  1  0
 35 37  2  0
 37 38  1  0
 37  2  1  0
 32  7  1  0
 24 10  1  0
 21 12  1  0
M  END
>  <cnnaffinity>  (1) 
-5.42733

>  <filename>  (1) 
c1cncc(C2(Nc3ccc4ccccc4n3)CCC2)c1

$$$$
