
     RDKit          3D

 37 40  0  0  0  0  0  0  0  0999 V2000
    4.9984    1.8091   16.9151 H   0  0  0  0  0  0  0  0  0  0  0  0
    5.4404    1.3027   17.7693 C   0  0  0  0  0  0  0  0  0  0  0  0
    6.5963    0.6581   17.5436 N   0  0  0  0  0  0  0  0  0  0  0  0
    7.1684    0.0365   18.5838 C   0  0  0  0  0  0  0  0  0  0  0  0
    8.0869   -0.5113   18.3541 H   0  0  0  0  0  0  0  0  0  0  0  0
    6.6530    0.0454   19.8945 C   0  0  0  0  0  0  0  0  0  0  0  0
    7.3980   -0.5789   21.0561 C   0  0  0  0  0  0  0  0  0  0  0  0
    7.9127   -1.4799   20.6982 H   0  0  0  0  0  0  0  0  0  0  0  0
    6.6718   -0.9101   21.8099 H   0  0  0  0  0  0  0  0  0  0  0  0
    8.4472    0.3417   21.7159 C   0  0  0  0  0  0  0  0  0  0  0  0
    7.9504    1.6339   22.3416 C   0  0  0  0  0  0  0  0  0  0  0  0
    7.3547    1.6089   23.6419 C   0  0  0  0  0  0  0  0  0  0  0  0
    7.3652    0.6817   24.2003 H   0  0  0  0  0  0  0  0  0  0  0  0
    6.8024    2.7367   24.2032 C   0  0  0  0  0  0  0  0  0  0  0  0
    6.3310    2.7060   25.1817 H   0  0  0  0  0  0  0  0  0  0  0  0
    6.8184    3.9749   23.4986 C   0  0  0  0  0  0  0  0  0  0  0  0
    6.1624    5.1338   24.0099 C   0  0  0  0  0  0  0  0  0  0  0  0
    5.6739    5.0594   24.9777 H   0  0  0  0  0  0  0  0  0  0  0  0
    6.1460    6.3099   23.2970 C   0  0  0  0  0  0  0  0  0  0  0  0
    5.5960    7.1726   23.6623 H   0  0  0  0  0  0  0  0  0  0  0  0
    6.8439    6.3983   22.0552 C   0  0  0  0  0  0  0  0  0  0  0  0
    6.8305    7.3302   21.4923 H   0  0  0  0  0  0  0  0  0  0  0  0
    7.5158    5.3087   21.5589 C   0  0  0  0  0  0  0  0  0  0  0  0
    8.0857    5.4020   20.6367 H   0  0  0  0  0  0  0  0  0  0  0  0
    7.4820    4.0478   22.2339 C   0  0  0  0  0  0  0  0  0  0  0  0
    8.0519    2.8495   21.6968 C   0  0  0  0  0  0  0  0  0  0  0  0
    8.6018    2.9062   20.7652 H   0  0  0  0  0  0  0  0  0  0  0  0
    9.8054    0.3279   21.0574 C   0  0  0  0  0  0  0  0  0  0  0  0
   10.3867    1.2451   21.0026 H   0  0  0  0  0  0  0  0  0  0  0  0
    9.9046   -0.3361   20.2033 H   0  0  0  0  0  0  0  0  0  0  0  0
    9.6194   -0.3314   22.3914 C   0  0  0  0  0  0  0  0  0  0  0  0
   10.0587    0.1680   23.2499 H   0  0  0  0  0  0  0  0  0  0  0  0
    9.6309   -1.4161   22.4416 H   0  0  0  0  0  0  0  0  0  0  0  0
    5.4319    0.7041   20.0915 C   0  0  0  0  0  0  0  0  0  0  0  0
    4.9783    0.7066   21.0854 H   0  0  0  0  0  0  0  0  0  0  0  0
    4.8072    1.3345   19.0156 C   0  0  0  0  0  0  0  0  0  0  0  0
    3.8572    1.8474   19.1303 H   0  0  0  0  0  0  0  0  0  0  0  0
  1  2  1  0
  2  3  2  0
  3  4  1  0
  4  5  1  0
  4  6  2  0
  6  7  1  0
  7  8  1  0
  7  9  1  0
  7 10  1  0
 10 11  1  0
 11 12  2  0
 12 13  1  0
 12 14  1  0
 14 15  1  0
 14 16  2  0
 16 17  1  0
 17 18  1  0
 17 19  2  0
 19 20  1  0
 19 21  1  0
 21 22  1  0
 21 23  2  0
 23 24  1  0
 23 25  1  0
 25 26  2  0
 26 27  1  0
 10 28  1  0
 28 29  1  0
 28 30  1  0
 28 31  1  0
 31 32  1  0
 31 33  1  0
  6 34  1  0
 34 35  1  0
 34 36  2  0
 36 37  1  0
 36  2  1  0
 31 10  1  0
 26 11  1  0
 25 16  1  0
M  END
>  <cnnaffinity>  (1) 
-4.95617

>  <filename>  (1) 
c1cncc(CC2(c3ccc4ccccc4c3)CC2)c1

$$$$
