
     RDKit          3D

 34 37  0  0  0  0  0  0  0  0999 V2000
    4.9266    1.8069   16.9699 H   0  0  0  0  0  0  0  0  0  0  0  0
    5.3895    1.3021   17.8197 C   0  0  0  0  0  0  0  0  0  0  0  0
    6.5518    0.6802   17.5703 N   0  0  0  0  0  0  0  0  0  0  0  0
    7.1571    0.0627   18.5922 C   0  0  0  0  0  0  0  0  0  0  0  0
    8.0999   -0.4226   18.3476 H   0  0  0  0  0  0  0  0  0  0  0  0
    6.6602    0.0034   19.9094 C   0  0  0  0  0  0  0  0  0  0  0  0
    7.4019   -0.7153   20.9730 C   0  0  0  0  0  0  0  0  0  0  0  0
    8.8027   -1.0185   21.0347 C   0  0  0  0  0  0  0  0  0  0  0  0
    9.5235   -0.7209   20.2862 H   0  0  0  0  0  0  0  0  0  0  0  0
    9.0511   -1.6902   22.1959 C   0  0  0  0  0  0  0  0  0  0  0  0
    9.9548   -2.0958   22.6374 H   0  0  0  0  0  0  0  0  0  0  0  0
    7.8507   -1.8346   22.8870 N   0  0  0  0  0  0  0  0  0  0  0  0
    7.6884   -2.4841   24.1466 C   0  0  0  0  0  0  0  0  0  0  0  0
    8.7322   -3.1222   24.6191 N   0  0  0  0  0  0  0  0  0  0  0  0
    8.6086   -3.7625   25.8189 C   0  0  0  0  0  0  0  0  0  0  0  0
    9.7512   -4.4460   26.3191 C   0  0  0  0  0  0  0  0  0  0  0  0
   10.6493   -4.4074   25.7100 H   0  0  0  0  0  0  0  0  0  0  0  0
    9.6715   -5.1428   27.5015 C   0  0  0  0  0  0  0  0  0  0  0  0
   10.5664   -5.5938   27.9171 H   0  0  0  0  0  0  0  0  0  0  0  0
    8.4359   -5.2381   28.1998 C   0  0  0  0  0  0  0  0  0  0  0  0
    8.3585   -5.8830   29.0684 H   0  0  0  0  0  0  0  0  0  0  0  0
    7.3398   -4.5199   27.7858 C   0  0  0  0  0  0  0  0  0  0  0  0
    6.4311   -4.4872   28.3812 H   0  0  0  0  0  0  0  0  0  0  0  0
    7.4004   -3.7731   26.5794 C   0  0  0  0  0  0  0  0  0  0  0  0
    6.2969   -3.0494   26.0456 C   0  0  0  0  0  0  0  0  0  0  0  0
    5.3608   -3.0298   26.6003 H   0  0  0  0  0  0  0  0  0  0  0  0
    6.4323   -2.4135   24.8395 C   0  0  0  0  0  0  0  0  0  0  0  0
    5.6089   -1.8578   24.4167 H   0  0  0  0  0  0  0  0  0  0  0  0
    6.8712   -1.2398   22.1137 C   0  0  0  0  0  0  0  0  0  0  0  0
    5.8442   -1.2720   22.4090 H   0  0  0  0  0  0  0  0  0  0  0  0
    5.4351    0.6581   20.1415 C   0  0  0  0  0  0  0  0  0  0  0  0
    4.9930    0.6710   21.1367 H   0  0  0  0  0  0  0  0  0  0  0  0
    4.7967    1.3159   19.0867 C   0  0  0  0  0  0  0  0  0  0  0  0
    3.8641    1.8502   19.2282 H   0  0  0  0  0  0  0  0  0  0  0  0
  1  2  1  0
  2  3  2  0
  3  4  1  0
  4  5  1  0
  4  6  2  0
  6  7  1  0
  7  8  1  0
  8  9  1  0
  8 10  2  0
 10 11  1  0
 10 12  1  0
 12 13  1  0
 13 14  2  0
 14 15  1  0
 15 16  2  0
 16 17  1  0
 16 18  1  0
 18 19  1  0
 18 20  2  0
 20 21  1  0
 20 22  1  0
 22 23  1  0
 22 24  2  0
 24 25  1  0
 25 26  1  0
 25 27  2  0
 27 28  1  0
 12 29  1  0
 29 30  1  0
  6 31  1  0
 31 32  1  0
 31 33  2  0
 33 34  1  0
 33  2  1  0
 29  7  2  0
 27 13  1  0
 24 15  1  0
M  END
>  <cnnaffinity>  (1) 
-5.34259

>  <filename>  (1) 
c1cncc(-c2ccn(-c3ccc4ccccc4n3)c2)c1

$$$$
