
     RDKit          3D

 35 38  0  0  0  0  0  0  0  0999 V2000
    4.9151    1.7870   16.9891 H   0  0  0  0  0  0  0  0  0  0  0  0
    5.3976    1.2965   17.8305 C   0  0  0  0  0  0  0  0  0  0  0  0
    6.5627    0.6843   17.5684 N   0  0  0  0  0  0  0  0  0  0  0  0
    7.1632    0.0644   18.5925 C   0  0  0  0  0  0  0  0  0  0  0  0
    8.1147   -0.4189   18.3673 H   0  0  0  0  0  0  0  0  0  0  0  0
    6.6433   -0.0078   19.8941 C   0  0  0  0  0  0  0  0  0  0  0  0
    7.4187   -0.6649   21.0094 C   0  0  0  0  0  0  0  0  0  0  0  0
    6.7239   -1.0120   21.7851 H   0  0  0  0  0  0  0  0  0  0  0  0
    7.9366   -1.5536   20.6271 H   0  0  0  0  0  0  0  0  0  0  0  0
    8.4474    0.2741   21.6578 C   0  0  0  0  0  0  0  0  0  0  0  0
    7.8912    1.5526   22.2435 C   0  0  0  0  0  0  0  0  0  0  0  0
    7.3636    1.5681   23.5639 C   0  0  0  0  0  0  0  0  0  0  0  0
    7.3971    0.6499   24.1441 H   0  0  0  0  0  0  0  0  0  0  0  0
    6.8383    2.7280   24.1145 C   0  0  0  0  0  0  0  0  0  0  0  0
    6.4418    2.7415   25.1243 H   0  0  0  0  0  0  0  0  0  0  0  0
    6.8173    3.9090   23.3463 C   0  0  0  0  0  0  0  0  0  0  0  0
    6.3447    5.2457   23.5906 C   0  0  0  0  0  0  0  0  0  0  0  0
    5.8866    5.5815   24.5097 H   0  0  0  0  0  0  0  0  0  0  0  0
    6.5766    5.9742   22.4584 C   0  0  0  0  0  0  0  0  0  0  0  0
    6.3543    7.0174   22.2362 H   0  0  0  0  0  0  0  0  0  0  0  0
    7.1822    5.1544   21.5195 N   0  0  0  0  0  0  0  0  0  0  0  0
    7.4445    5.4142   20.5856 H   0  0  0  0  0  0  0  0  0  0  0  0
    7.3384    3.8859   22.0287 C   0  0  0  0  0  0  0  0  0  0  0  0
    7.8880    2.7116   21.4742 C   0  0  0  0  0  0  0  0  0  0  0  0
    8.3347    2.6421   20.4857 H   0  0  0  0  0  0  0  0  0  0  0  0
    9.6162   -0.3564   22.3653 C   0  0  0  0  0  0  0  0  0  0  0  0
    9.9828    0.1405   23.2592 H   0  0  0  0  0  0  0  0  0  0  0  0
    9.6551   -1.4399   22.3991 H   0  0  0  0  0  0  0  0  0  0  0  0
    9.8287    0.3289   21.0485 C   0  0  0  0  0  0  0  0  0  0  0  0
   10.3626    1.2772   21.0532 H   0  0  0  0  0  0  0  0  0  0  0  0
   10.0168   -0.2947   20.1796 H   0  0  0  0  0  0  0  0  0  0  0  0
    5.4263    0.6431   20.1444 C   0  0  0  0  0  0  0  0  0  0  0  0
    5.0121    0.6428   21.1591 H   0  0  0  0  0  0  0  0  0  0  0  0
    4.7967    1.3127   19.0946 C   0  0  0  0  0  0  0  0  0  0  0  0
    3.8661    1.8483   19.2497 H   0  0  0  0  0  0  0  0  0  0  0  0
  1  2  1  0
  2  3  2  0
  3  4  1  0
  4  5  1  0
  4  6  2  0
  6  7  1  0
  7  8  1  0
  7  9  1  0
  7 10  1  0
 10 11  1  0
 11 12  2  0
 12 13  1  0
 12 14  1  0
 14 15  1  0
 14 16  2  0
 16 17  1  0
 17 18  1  0
 17 19  2  0
 19 20  1  0
 19 21  1  0
 21 22  1  0
 21 23  1  0
 23 24  2  0
 24 25  1  0
 10 26  1  0
 26 27  1  0
 26 28  1  0
 26 29  1  0
 29 30  1  0
 29 31  1  0
  6 32  1  0
 32 33  1  0
 32 34  2  0
 34 35  1  0
 34  2  1  0
 29 10  1  0
 24 11  1  0
 23 16  1  0
M  END
>  <cnnaffinity>  (1) 
-4.95252

>  <filename>  (1) 
c1cncc(CC2(c3ccc4cc[nH]c4c3)CC2)c1

$$$$
