
     RDKit          3D

 32 35  0  0  0  0  0  0  0  0999 V2000
    4.9552    1.8334   16.8962 H   0  0  0  0  0  0  0  0  0  0  0  0
    5.4044    1.3194   17.7427 C   0  0  0  0  0  0  0  0  0  0  0  0
    6.5676    0.6842   17.5089 N   0  0  0  0  0  0  0  0  0  0  0  0
    7.1692    0.0898   18.5491 C   0  0  0  0  0  0  0  0  0  0  0  0
    8.1039   -0.4319   18.3400 H   0  0  0  0  0  0  0  0  0  0  0  0
    6.6656    0.1047   19.8716 C   0  0  0  0  0  0  0  0  0  0  0  0
    7.3751   -0.4388   20.9447 N   0  0  0  0  0  0  0  0  0  0  0  0
    7.8496   -1.3266   20.8330 H   0  0  0  0  0  0  0  0  0  0  0  0
    7.3261    0.0283   22.2535 C   0  0  0  0  0  0  0  0  0  0  0  0
    7.2891    1.3368   22.8025 C   0  0  0  0  0  0  0  0  0  0  0  0
    7.1491    2.2721   22.2786 H   0  0  0  0  0  0  0  0  0  0  0  0
    7.4447    1.3142   24.1216 N   0  0  0  0  0  0  0  0  0  0  0  0
    7.5516    0.0227   24.4385 N   0  0  0  0  0  0  0  0  0  0  0  0
    7.7707   -0.2542   25.3903 H   0  0  0  0  0  0  0  0  0  0  0  0
    7.4520   -0.7958   23.3552 C   0  0  0  0  0  0  0  0  0  0  0  0
    7.5014   -2.2408   23.4329 C   0  0  0  0  0  0  0  0  0  0  0  0
    7.9299   -2.8673   24.4777 N   0  0  0  0  0  0  0  0  0  0  0  0
    8.1329   -4.2035   24.1912 C   0  0  0  0  0  0  0  0  0  0  0  0
    8.7835   -5.1025   25.0553 C   0  0  0  0  0  0  0  0  0  0  0  0
    9.0178   -4.7821   26.0655 H   0  0  0  0  0  0  0  0  0  0  0  0
    9.1645   -6.3491   24.5774 C   0  0  0  0  0  0  0  0  0  0  0  0
    9.7710   -6.9963   25.2128 H   0  0  0  0  0  0  0  0  0  0  0  0
    8.8080   -6.7536   23.2703 C   0  0  0  0  0  0  0  0  0  0  0  0
    9.1374   -7.7252   22.9060 H   0  0  0  0  0  0  0  0  0  0  0  0
    8.0831   -5.9107   22.4348 C   0  0  0  0  0  0  0  0  0  0  0  0
    7.8070   -6.2317   21.4370 H   0  0  0  0  0  0  0  0  0  0  0  0
    7.7673   -4.6188   22.8883 C   0  0  0  0  0  0  0  0  0  0  0  0
    7.0811   -3.2653   22.0473 S   0  0  0  0  0  0  0  0  0  0  0  0
    5.4078    0.6943   20.0691 C   0  0  0  0  0  0  0  0  0  0  0  0
    4.9560    0.6344   21.0585 H   0  0  0  0  0  0  0  0  0  0  0  0
    4.7794    1.3272   18.9937 C   0  0  0  0  0  0  0  0  0  0  0  0
    3.8313    1.8388   19.1239 H   0  0  0  0  0  0  0  0  0  0  0  0
  1  2  1  0
  2  3  2  0
  3  4  1  0
  4  5  1  0
  4  6  2  0
  6  7  1  0
  7  8  1  0
  7  9  1  0
  9 10  1  0
 10 11  1  0
 10 12  2  0
 12 13  1  0
 13 14  1  0
 13 15  1  0
 15 16  1  0
 16 17  2  0
 17 18  1  0
 18 19  2  0
 19 20  1  0
 19 21  1  0
 21 22  1  0
 21 23  2  0
 23 24  1  0
 23 25  1  0
 25 26  1  0
 25 27  2  0
 27 28  1  0
  6 29  1  0
 29 30  1  0
 29 31  2  0
 31 32  1  0
 31  2  1  0
 15  9  2  0
 28 16  1  0
 27 18  1  0
M  END
>  <cnnaffinity>  (1) 
-5.83069

>  <filename>  (1) 
c1cncc(Nc2cn[nH]c2-c2nc3ccccc3s2)c1

$$$$
