
     RDKit          3D

 33 36  0  0  0  0  0  0  0  0999 V2000
    4.9096    1.7819   16.9959 H   0  0  0  0  0  0  0  0  0  0  0  0
    5.4017    1.2964   17.8363 C   0  0  0  0  0  0  0  0  0  0  0  0
    6.5670    0.6817   17.5743 N   0  0  0  0  0  0  0  0  0  0  0  0
    7.1733    0.0575   18.5945 C   0  0  0  0  0  0  0  0  0  0  0  0
    8.1226   -0.4287   18.3774 H   0  0  0  0  0  0  0  0  0  0  0  0
    6.6657    0.0039   19.9157 C   0  0  0  0  0  0  0  0  0  0  0  0
    7.3462   -0.6912   20.9500 N   0  0  0  0  0  0  0  0  0  0  0  0
    7.4308   -0.3667   22.3069 C   0  0  0  0  0  0  0  0  0  0  0  0
    7.2142    1.0179   22.7839 C   0  0  0  0  0  0  0  0  0  0  0  0
    7.5969    2.1452   22.1305 C   0  0  0  0  0  0  0  0  0  0  0  0
    8.0612    2.2024   21.1502 H   0  0  0  0  0  0  0  0  0  0  0  0
    7.2788    3.6018   22.9998 S   0  0  0  0  0  0  0  0  0  0  0  0
    6.6001    2.6967   24.3293 C   0  0  0  0  0  0  0  0  0  0  0  0
    6.0671    3.2127   25.5258 C   0  0  0  0  0  0  0  0  0  0  0  0
    6.0516    4.2844   25.7044 H   0  0  0  0  0  0  0  0  0  0  0  0
    5.5550    2.3208   26.4657 C   0  0  0  0  0  0  0  0  0  0  0  0
    5.1362    2.6973   27.3967 H   0  0  0  0  0  0  0  0  0  0  0  0
    5.5662    0.9272   26.2232 C   0  0  0  0  0  0  0  0  0  0  0  0
    5.1587    0.2457   26.9658 H   0  0  0  0  0  0  0  0  0  0  0  0
    6.0906    0.4165   25.0434 C   0  0  0  0  0  0  0  0  0  0  0  0
    6.1109   -0.6506   24.8336 H   0  0  0  0  0  0  0  0  0  0  0  0
    6.6292    1.3082   24.0793 C   0  0  0  0  0  0  0  0  0  0  0  0
    7.7791   -1.3345   23.0735 N   0  0  0  0  0  0  0  0  0  0  0  0
    8.0251   -2.5029   22.2433 C   0  0  0  0  0  0  0  0  0  0  0  0
    7.3429   -3.3066   22.5394 H   0  0  0  0  0  0  0  0  0  0  0  0
    9.0505   -2.8651   22.3874 H   0  0  0  0  0  0  0  0  0  0  0  0
    7.7866   -2.0714   20.7908 C   0  0  0  0  0  0  0  0  0  0  0  0
    8.7085   -2.1073   20.1990 H   0  0  0  0  0  0  0  0  0  0  0  0
    7.0109   -2.6707   20.2954 H   0  0  0  0  0  0  0  0  0  0  0  0
    5.4409    0.6450   20.1617 C   0  0  0  0  0  0  0  0  0  0  0  0
    5.0155    0.6248   21.1680 H   0  0  0  0  0  0  0  0  0  0  0  0
    4.8090    1.3080   19.1054 C   0  0  0  0  0  0  0  0  0  0  0  0
    3.8763    1.8417   19.2621 H   0  0  0  0  0  0  0  0  0  0  0  0
  1  2  1  0
  2  3  2  0
  3  4  1  0
  4  5  1  0
  4  6  2  0
  6  7  1  0
  7  8  1  0
  8  9  1  0
  9 10  2  0
 10 11  1  0
 10 12  1  0
 12 13  1  0
 13 14  2  0
 14 15  1  0
 14 16  1  0
 16 17  1  0
 16 18  2  0
 18 19  1  0
 18 20  1  0
 20 21  1  0
 20 22  2  0
  8 23  2  0
 23 24  1  0
 24 25  1  0
 24 26  1  0
 24 27  1  0
 27 28  1  0
 27 29  1  0
  6 30  1  0
 30 31  1  0
 30 32  2  0
 32 33  1  0
 32  2  1  0
 27  7  1  0
 22  9  1  0
 22 13  1  0
M  END
>  <cnnaffinity>  (1) 
-5.23131

>  <filename>  (1) 
c1cncc(N2CCN=C2c2csc3ccccc23)c1

$$$$
