
     RDKit          3D

 38 42  0  0  0  0  0  0  0  0999 V2000
    5.0047    1.8340   16.9166 H   0  0  0  0  0  0  0  0  0  0  0  0
    5.4227    1.2933   17.7651 C   0  0  0  0  0  0  0  0  0  0  0  0
    6.5635    0.6242   17.5399 N   0  0  0  0  0  0  0  0  0  0  0  0
    7.1210   -0.0103   18.5745 C   0  0  0  0  0  0  0  0  0  0  0  0
    8.0322   -0.5610   18.3515 H   0  0  0  0  0  0  0  0  0  0  0  0
    6.6052    0.0102   19.8852 C   0  0  0  0  0  0  0  0  0  0  0  0
    7.3677   -0.6177   20.9786 C   0  0  0  0  0  0  0  0  0  0  0  0
    8.0564   -1.7398   20.7740 N   0  0  0  0  0  0  0  0  0  0  0  0
    8.5617   -2.0236   21.9747 N   0  0  0  0  0  0  0  0  0  0  0  0
    8.2896   -1.1552   22.9451 C   0  0  0  0  0  0  0  0  0  0  0  0
    7.5051   -0.1828   22.3388 C   0  0  0  0  0  0  0  0  0  0  0  0
    7.0688    1.0449   22.9761 C   0  0  0  0  0  0  0  0  0  0  0  0
    7.2162    2.2821   22.3319 C   0  0  0  0  0  0  0  0  0  0  0  0
    7.5772    2.2922   21.3080 H   0  0  0  0  0  0  0  0  0  0  0  0
    6.9190    3.4899   22.9841 C   0  0  0  0  0  0  0  0  0  0  0  0
    7.0747    4.4510   22.5042 H   0  0  0  0  0  0  0  0  0  0  0  0
    6.4416    3.4010   24.2791 C   0  0  0  0  0  0  0  0  0  0  0  0
    6.2644    2.1648   24.9107 C   0  0  0  0  0  0  0  0  0  0  0  0
    6.5804    0.9808   24.2972 C   0  0  0  0  0  0  0  0  0  0  0  0
    6.4490    0.0261   24.7998 H   0  0  0  0  0  0  0  0  0  0  0  0
    5.7916    2.3627   26.1757 O   0  0  0  0  0  0  0  0  0  0  0  0
    5.6604    3.7723   26.3404 C   0  0  0  0  0  0  0  0  0  0  0  0
    4.6056    4.0195   26.5237 H   0  0  0  0  0  0  0  0  0  0  0  0
    6.2930    4.1015   27.1764 H   0  0  0  0  0  0  0  0  0  0  0  0
    6.0943    4.4055   25.1380 O   0  0  0  0  0  0  0  0  0  0  0  0
    9.0546   -1.5100   24.2073 C   0  0  0  0  0  0  0  0  0  0  0  0
    9.7054   -0.6955   24.5440 H   0  0  0  0  0  0  0  0  0  0  0  0
    8.3846   -1.7469   25.0407 H   0  0  0  0  0  0  0  0  0  0  0  0
    9.8856   -2.7535   23.7737 C   0  0  0  0  0  0  0  0  0  0  0  0
   10.9522   -2.5399   23.8083 H   0  0  0  0  0  0  0  0  0  0  0  0
    9.6976   -3.6009   24.4347 H   0  0  0  0  0  0  0  0  0  0  0  0
    9.4956   -3.0638   22.3026 C   0  0  0  0  0  0  0  0  0  0  0  0
   10.3502   -2.9569   21.6346 H   0  0  0  0  0  0  0  0  0  0  0  0
    9.0128   -4.0347   22.1712 H   0  0  0  0  0  0  0  0  0  0  0  0
    5.3729    0.6588   20.0870 C   0  0  0  0  0  0  0  0  0  0  0  0
    4.8908    0.6659   21.0679 H   0  0  0  0  0  0  0  0  0  0  0  0
    4.7821    1.3111   19.0074 C   0  0  0  0  0  0  0  0  0  0  0  0
    3.8437    1.8419   19.1094 H   0  0  0  0  0  0  0  0  0  0  0  0
  1  2  1  0
  2  3  2  0
  3  4  1  0
  4  5  1  0
  4  6  2  0
  6  7  1  0
  7  8  2  0
  8  9  1  0
  9 10  1  0
 10 11  2  0
 11 12  1  0
 12 13  2  0
 13 14  1  0
 13 15  1  0
 15 16  1  0
 15 17  2  0
 17 18  1  0
 18 19  2  0
 19 20  1  0
 18 21  1  0
 21 22  1  0
 22 23  1  0
 22 24  1  0
 22 25  1  0
 10 26  1  0
 26 27  1  0
 26 28  1  0
 26 29  1  0
 29 30  1  0
 29 31  1  0
 29 32  1  0
 32 33  1  0
 32 34  1  0
  6 35  1  0
 35 36  1  0
 35 37  2  0
 37 38  1  0
 37  2  1  0
 11  7  1  0
 19 12  1  0
 32  9  1  0
 25 17  1  0
M  END
>  <cnnaffinity>  (1) 
-5.50181

>  <filename>  (1) 
c1cncc(-c2nn3c(c2-c2ccc4c(c2)OCO4)CCC3)c1

$$$$
