
     RDKit          3D

 26 28  0  0  0  0  0  0  0  0999 V2000
    8.5732   -5.8002   24.4145 H   0  0  0  0  0  0  0  0  0  0  0  0
    8.5238   -4.9675   23.7217 C   0  0  0  0  0  0  0  0  0  0  0  0
    7.5533   -4.7918   22.8787 N   0  0  0  0  0  0  0  0  0  0  0  0
    7.7816   -3.6512   22.1505 C   0  0  0  0  0  0  0  0  0  0  0  0
    7.0920   -3.3605   21.3685 H   0  0  0  0  0  0  0  0  0  0  0  0
    8.9363   -2.9701   22.4273 C   0  0  0  0  0  0  0  0  0  0  0  0
    9.4161   -1.7681   21.7856 C   0  0  0  0  0  0  0  0  0  0  0  0
    8.7136   -0.7954   21.0900 C   0  0  0  0  0  0  0  0  0  0  0  0
    7.3228   -0.7197   20.9298 N   0  0  0  0  0  0  0  0  0  0  0  0
    6.7632   -1.0227   21.7175 H   0  0  0  0  0  0  0  0  0  0  0  0
    6.6672   -0.0086   19.9139 C   0  0  0  0  0  0  0  0  0  0  0  0
    7.1756    0.0615   18.5929 C   0  0  0  0  0  0  0  0  0  0  0  0
    8.1220   -0.4303   18.3757 H   0  0  0  0  0  0  0  0  0  0  0  0
    6.5636    0.6828   17.5753 N   0  0  0  0  0  0  0  0  0  0  0  0
    5.3978    1.2961   17.8398 C   0  0  0  0  0  0  0  0  0  0  0  0
    4.9089    1.7803   16.9978 H   0  0  0  0  0  0  0  0  0  0  0  0
    4.8110    1.3076   19.1120 C   0  0  0  0  0  0  0  0  0  0  0  0
    3.8770    1.8412   19.2658 H   0  0  0  0  0  0  0  0  0  0  0  0
    5.4464    0.6369   20.1633 C   0  0  0  0  0  0  0  0  0  0  0  0
    5.0166    0.6233   21.1671 H   0  0  0  0  0  0  0  0  0  0  0  0
    9.7005    0.1251   20.6759 C   0  0  0  0  0  0  0  0  0  0  0  0
    9.5269    1.0276   20.1122 H   0  0  0  0  0  0  0  0  0  0  0  0
   10.9126   -0.2173   21.0965 N   0  0  0  0  0  0  0  0  0  0  0  0
   10.7140   -1.3592   21.7617 N   0  0  0  0  0  0  0  0  0  0  0  0
   11.4939   -1.8275   22.1978 H   0  0  0  0  0  0  0  0  0  0  0  0
    9.7838   -3.7894   23.6894 S   0  0  0  0  0  0  0  0  0  0  0  0
  1  2  1  0
  2  3  2  0
  3  4  1  0
  4  5  1  0
  4  6  2  0
  6  7  1  0
  7  8  2  0
  8  9  1  0
  9 10  1  0
  9 11  1  0
 11 12  2  0
 12 13  1  0
 12 14  1  0
 14 15  2  0
 15 16  1  0
 15 17  1  0
 17 18  1  0
 17 19  2  0
 19 20  1  0
  8 21  1  0
 21 22  1  0
 21 23  2  0
 23 24  1  0
 24 25  1  0
  6 26  1  0
 26  2  1  0
 24  7  1  0
 19 11  1  0
M  END
>  <cnnaffinity>  (1) 
-5.70427

>  <filename>  (1) 
c1cncc(Nc2cn[nH]c2-c2cncs2)c1

$$$$
