
     RDKit          3D

 37 40  0  0  0  0  0  0  0  0999 V2000
    5.0592    1.8283   16.9149 H   0  0  0  0  0  0  0  0  0  0  0  0
    5.4452    1.2987   17.7854 C   0  0  0  0  0  0  0  0  0  0  0  0
    6.5650    0.5866   17.5877 N   0  0  0  0  0  0  0  0  0  0  0  0
    7.0809   -0.0483   18.6423 C   0  0  0  0  0  0  0  0  0  0  0  0
    7.9659   -0.6514   18.4563 H   0  0  0  0  0  0  0  0  0  0  0  0
    6.5467    0.0152   19.9430 C   0  0  0  0  0  0  0  0  0  0  0  0
    7.2723   -0.6479   21.0388 C   0  0  0  0  0  0  0  0  0  0  0  0
    7.9906   -1.7515   20.8152 N   0  0  0  0  0  0  0  0  0  0  0  0
    8.5183   -2.0258   22.0037 N   0  0  0  0  0  0  0  0  0  0  0  0
    8.2434   -1.1556   22.9815 C   0  0  0  0  0  0  0  0  0  0  0  0
    7.4158   -0.2066   22.4089 C   0  0  0  0  0  0  0  0  0  0  0  0
    6.9482    0.9657   23.0196 N   0  0  0  0  0  0  0  0  0  0  0  0
    7.2151    0.9568   23.9998 H   0  0  0  0  0  0  0  0  0  0  0  0
    7.2866    2.2146   22.3387 C   0  0  0  0  0  0  0  0  0  0  0  0
    7.9868    2.0128   21.5115 H   0  0  0  0  0  0  0  0  0  0  0  0
    6.3837    2.6137   21.8578 H   0  0  0  0  0  0  0  0  0  0  0  0
    7.8769    3.2268   23.2868 C   0  0  0  0  0  0  0  0  0  0  0  0
    7.3147    3.2976   24.2186 H   0  0  0  0  0  0  0  0  0  0  0  0
    8.4559    4.5021   22.7438 C   0  0  0  0  0  0  0  0  0  0  0  0
    8.2619    5.4112   23.3057 H   0  0  0  0  0  0  0  0  0  0  0  0
    8.4874    4.6442   21.6662 H   0  0  0  0  0  0  0  0  0  0  0  0
    9.3656    3.4700   23.3451 C   0  0  0  0  0  0  0  0  0  0  0  0
    9.8250    3.6420   24.3118 H   0  0  0  0  0  0  0  0  0  0  0  0
    9.9840    2.8877   22.6659 H   0  0  0  0  0  0  0  0  0  0  0  0
    9.0996   -1.4530   24.1821 C   0  0  0  0  0  0  0  0  0  0  0  0
    8.5023   -1.5447   25.0909 H   0  0  0  0  0  0  0  0  0  0  0  0
    9.8198   -0.6435   24.3487 H   0  0  0  0  0  0  0  0  0  0  0  0
    9.8053   -2.7905   23.8051 C   0  0  0  0  0  0  0  0  0  0  0  0
    9.4440   -3.6128   24.4224 H   0  0  0  0  0  0  0  0  0  0  0  0
   10.8872   -2.7285   23.9285 H   0  0  0  0  0  0  0  0  0  0  0  0
    9.4534   -3.0705   22.3220 C   0  0  0  0  0  0  0  0  0  0  0  0
   10.3149   -2.9751   21.6640 H   0  0  0  0  0  0  0  0  0  0  0  0
    8.9888   -4.0472   22.1583 H   0  0  0  0  0  0  0  0  0  0  0  0
    5.3504    0.7313   20.1257 C   0  0  0  0  0  0  0  0  0  0  0  0
    4.8776    0.7862   21.1081 H   0  0  0  0  0  0  0  0  0  0  0  0
    4.7919    1.3789   19.0193 C   0  0  0  0  0  0  0  0  0  0  0  0
    3.8815    1.9614   19.1006 H   0  0  0  0  0  0  0  0  0  0  0  0
  1  2  1  0
  2  3  2  0
  3  4  1  0
  4  5  1  0
  4  6  2  0
  6  7  1  0
  7  8  2  0
  8  9  1  0
  9 10  1  0
 10 11  2  0
 11 12  1  0
 12 13  1  0
 12 14  1  0
 14 15  1  0
 14 16  1  0
 14 17  1  0
 17 18  1  0
 17 19  1  0
 19 20  1  0
 19 21  1  0
 19 22  1  0
 22 23  1  0
 22 24  1  0
 10 25  1  0
 25 26  1  0
 25 27  1  0
 25 28  1  0
 28 29  1  0
 28 30  1  0
 28 31  1  0
 31 32  1  0
 31 33  1  0
  6 34  1  0
 34 35  1  0
 34 36  2  0
 36 37  1  0
 36  2  1  0
 11  7  1  0
 22 17  1  0
 31  9  1  0
M  END
>  <cnnaffinity>  (1) 
-5.58748

>  <filename>  (1) 
c1cncc(-c2nn3c(c2NCC2CC2)CCC3)c1

$$$$
