
     RDKit          3D

 39 43  0  0  0  0  0  0  0  0999 V2000
    4.9630    1.8387   16.9606 H   0  0  0  0  0  0  0  0  0  0  0  0
    5.4056    1.2947   17.7913 C   0  0  0  0  0  0  0  0  0  0  0  0
    6.5571    0.6520   17.5387 N   0  0  0  0  0  0  0  0  0  0  0  0
    7.1427    0.0060   18.5534 C   0  0  0  0  0  0  0  0  0  0  0  0
    8.0863   -0.4875   18.3207 H   0  0  0  0  0  0  0  0  0  0  0  0
    6.6237   -0.0278   19.8626 C   0  0  0  0  0  0  0  0  0  0  0  0
    7.3697   -0.6821   20.9528 C   0  0  0  0  0  0  0  0  0  0  0  0
    8.0776   -1.7911   20.7469 N   0  0  0  0  0  0  0  0  0  0  0  0
    8.5622   -2.0849   21.9510 N   0  0  0  0  0  0  0  0  0  0  0  0
    8.2566   -1.2355   22.9226 C   0  0  0  0  0  0  0  0  0  0  0  0
    7.4690   -0.2715   22.3229 C   0  0  0  0  0  0  0  0  0  0  0  0
    7.0794    0.9668   22.9650 C   0  0  0  0  0  0  0  0  0  0  0  0
    7.2672    2.2109   22.3064 C   0  0  0  0  0  0  0  0  0  0  0  0
    7.6607    2.2192   21.2932 H   0  0  0  0  0  0  0  0  0  0  0  0
    6.9766    3.4094   22.9316 C   0  0  0  0  0  0  0  0  0  0  0  0
    7.1318    4.3605   22.4317 H   0  0  0  0  0  0  0  0  0  0  0  0
    6.4793    3.3401   24.2487 C   0  0  0  0  0  0  0  0  0  0  0  0
    6.2843    2.1103   24.9302 C   0  0  0  0  0  0  0  0  0  0  0  0
    6.6007    0.9155   24.2699 C   0  0  0  0  0  0  0  0  0  0  0  0
    6.4731   -0.0604   24.7300 H   0  0  0  0  0  0  0  0  0  0  0  0
    5.7719    2.4431   26.2302 C   0  0  0  0  0  0  0  0  0  0  0  0
    5.5131    1.7526   27.0202 H   0  0  0  0  0  0  0  0  0  0  0  0
    5.6701    3.7974   26.2908 C   0  0  0  0  0  0  0  0  0  0  0  0
    5.3202    4.4263   27.0978 H   0  0  0  0  0  0  0  0  0  0  0  0
    6.0997    4.3449   25.0979 N   0  0  0  0  0  0  0  0  0  0  0  0
    6.1146    5.3209   24.8665 H   0  0  0  0  0  0  0  0  0  0  0  0
    9.0705   -1.5085   24.1550 C   0  0  0  0  0  0  0  0  0  0  0  0
    8.4442   -1.7154   25.0231 H   0  0  0  0  0  0  0  0  0  0  0  0
    9.6760   -0.6354   24.4180 H   0  0  0  0  0  0  0  0  0  0  0  0
    9.9233   -2.7355   23.7362 C   0  0  0  0  0  0  0  0  0  0  0  0
    9.7359   -3.5938   24.3768 H   0  0  0  0  0  0  0  0  0  0  0  0
   10.9802   -2.5034   23.7894 H   0  0  0  0  0  0  0  0  0  0  0  0
    9.5521   -3.0681   22.2711 C   0  0  0  0  0  0  0  0  0  0  0  0
   10.3915   -2.9333   21.5924 H   0  0  0  0  0  0  0  0  0  0  0  0
    9.1198   -4.0579   22.1371 H   0  0  0  0  0  0  0  0  0  0  0  0
    5.3974    0.6211   20.0932 C   0  0  0  0  0  0  0  0  0  0  0  0
    4.9722    0.6401   21.0976 H   0  0  0  0  0  0  0  0  0  0  0  0
    4.7818    1.2944   19.0416 C   0  0  0  0  0  0  0  0  0  0  0  0
    3.8593    1.8438   19.1928 H   0  0  0  0  0  0  0  0  0  0  0  0
  1  2  1  0
  2  3  2  0
  3  4  1  0
  4  5  1  0
  4  6  2  0
  6  7  1  0
  7  8  2  0
  8  9  1  0
  9 10  1  0
 10 11  2  0
 11 12  1  0
 12 13  2  0
 13 14  1  0
 13 15  1  0
 15 16  1  0
 15 17  2  0
 17 18  1  0
 18 19  2  0
 19 20  1  0
 18 21  1  0
 21 22  1  0
 21 23  2  0
 23 24  1  0
 23 25  1  0
 25 26  1  0
 10 27  1  0
 27 28  1  0
 27 29  1  0
 27 30  1  0
 30 31  1  0
 30 32  1  0
 30 33  1  0
 33 34  1  0
 33 35  1  0
  6 36  1  0
 36 37  1  0
 36 38  2  0
 38 39  1  0
 38  2  1  0
 11  7  1  0
 19 12  1  0
 33  9  1  0
 25 17  1  0
M  END
>  <cnnaffinity>  (1) 
-5.68574

>  <filename>  (1) 
c1cncc(-c2nn3c(c2-c2ccc4[nH]ccc4c2)CCC3)c1

$$$$
