
     RDKit          3D

 40 42  0  0  0  0  0  0  0  0999 V2000
    4.9194    1.7870   16.9894 H   0  0  0  0  0  0  0  0  0  0  0  0
    5.3982    1.2962   17.8341 C   0  0  0  0  0  0  0  0  0  0  0  0
    6.5588    0.6790   17.5752 N   0  0  0  0  0  0  0  0  0  0  0  0
    7.1639    0.0672   18.5977 C   0  0  0  0  0  0  0  0  0  0  0  0
    8.1149   -0.4148   18.3814 H   0  0  0  0  0  0  0  0  0  0  0  0
    6.6441    0.0112   19.9010 C   0  0  0  0  0  0  0  0  0  0  0  0
    7.4097   -0.7153   20.9791 C   0  0  0  0  0  0  0  0  0  0  0  0
    7.6293   -1.7502   20.6926 H   0  0  0  0  0  0  0  0  0  0  0  0
    6.8522   -0.7421   21.9190 H   0  0  0  0  0  0  0  0  0  0  0  0
    8.6873   -0.0919   21.2792 N   0  0  0  0  0  0  0  0  0  0  0  0
    9.8439   -0.5412   20.7655 N   0  0  0  0  0  0  0  0  0  0  0  0
   10.7578    0.2758   21.1428 N   0  0  0  0  0  0  0  0  0  0  0  0
   10.2392    1.2802   21.8728 N   0  0  0  0  0  0  0  0  0  0  0  0
    8.9462    1.0488   21.9448 C   0  0  0  0  0  0  0  0  0  0  0  0
    7.9763    1.8912   22.7015 C   0  0  0  0  0  0  0  0  0  0  0  0
    6.9709    1.7604   22.2956 H   0  0  0  0  0  0  0  0  0  0  0  0
    8.2543    2.9390   22.5639 H   0  0  0  0  0  0  0  0  0  0  0  0
    8.0022    1.5434   24.1897 C   0  0  0  0  0  0  0  0  0  0  0  0
    7.3877    2.2685   24.7521 H   0  0  0  0  0  0  0  0  0  0  0  0
    9.0308    1.6695   24.5506 H   0  0  0  0  0  0  0  0  0  0  0  0
    7.5744    0.1578   24.3973 N   0  0  0  0  0  0  0  0  0  0  0  0
    8.3414   -0.5632   25.4266 C   0  0  0  0  0  0  0  0  0  0  0  0
    9.4095   -0.4470   25.2099 H   0  0  0  0  0  0  0  0  0  0  0  0
    8.1326   -1.6357   25.3201 H   0  0  0  0  0  0  0  0  0  0  0  0
    8.0147   -0.1220   26.8620 C   0  0  0  0  0  0  0  0  0  0  0  0
    8.3107    0.9288   26.9740 H   0  0  0  0  0  0  0  0  0  0  0  0
    8.6146   -0.6879   27.5854 H   0  0  0  0  0  0  0  0  0  0  0  0
    6.5136   -0.2754   27.1439 C   0  0  0  0  0  0  0  0  0  0  0  0
    6.2619    0.1024   28.1421 H   0  0  0  0  0  0  0  0  0  0  0  0
    6.2585   -1.3439   27.1424 H   0  0  0  0  0  0  0  0  0  0  0  0
    5.6867    0.4396   26.0654 C   0  0  0  0  0  0  0  0  0  0  0  0
    5.8004    1.5254   26.1708 H   0  0  0  0  0  0  0  0  0  0  0  0
    4.6170    0.2336   26.1929 H   0  0  0  0  0  0  0  0  0  0  0  0
    6.1279    0.0294   24.6475 C   0  0  0  0  0  0  0  0  0  0  0  0
    5.5747    0.6112   23.9002 H   0  0  0  0  0  0  0  0  0  0  0  0
    5.8495   -1.0185   24.4826 H   0  0  0  0  0  0  0  0  0  0  0  0
    5.4284    0.6521   20.1524 C   0  0  0  0  0  0  0  0  0  0  0  0
    4.9913    0.6358   21.1571 H   0  0  0  0  0  0  0  0  0  0  0  0
    4.7965    1.3157   19.0981 C   0  0  0  0  0  0  0  0  0  0  0  0
    3.8657    1.8510   19.2477 H   0  0  0  0  0  0  0  0  0  0  0  0
  1  2  1  0
  2  3  2  0
  3  4  1  0
  4  5  1  0
  4  6  2  0
  6  7  1  0
  7  8  1  0
  7  9  1  0
  7 10  1  0
 10 11  1  0
 11 12  2  0
 12 13  1  0
 13 14  2  0
 14 15  1  0
 15 16  1  0
 15 17  1  0
 15 18  1  0
 18 19  1  0
 18 20  1  0
 18 21  1  0
 21 22  1  0
 22 23  1  0
 22 24  1  0
 22 25  1  0
 25 26  1  0
 25 27  1  0
 25 28  1  0
 28 29  1  0
 28 30  1  0
 28 31  1  0
 31 32  1  0
 31 33  1  0
 31 34  1  0
 34 35  1  0
 34 36  1  0
  6 37  1  0
 37 38  1  0
 37 39  2  0
 39 40  1  0
 39  2  1  0
 14 10  1  0
 34 21  1  0
M  END
>  <cnnaffinity>  (1) 
-5.15585

>  <filename>  (1) 
c1cncc(Cn2nnnc2CCN2CCCCC2)c1

$$$$
