
     RDKit          3D

 43 46  0  0  0  0  0  0  0  0999 V2000
    5.0945    1.8124   16.8909 H   0  0  0  0  0  0  0  0  0  0  0  0
    5.4920    1.2989   17.7645 C   0  0  0  0  0  0  0  0  0  0  0  0
    6.6434    0.6302   17.5878 N   0  0  0  0  0  0  0  0  0  0  0  0
    7.1534   -0.0245   18.6377 C   0  0  0  0  0  0  0  0  0  0  0  0
    8.0786   -0.5678   18.4489 H   0  0  0  0  0  0  0  0  0  0  0  0
    6.5603   -0.0290   19.9119 C   0  0  0  0  0  0  0  0  0  0  0  0
    7.1651   -0.7499   21.0385 C   0  0  0  0  0  0  0  0  0  0  0  0
    7.6431   -1.9875   20.9048 N   0  0  0  0  0  0  0  0  0  0  0  0
    8.0054   -2.3117   22.1492 N   0  0  0  0  0  0  0  0  0  0  0  0
    7.8276   -1.3425   23.0556 C   0  0  0  0  0  0  0  0  0  0  0  0
    7.3058   -0.2618   22.3717 C   0  0  0  0  0  0  0  0  0  0  0  0
    7.0283    1.1276   22.8749 C   0  0  0  0  0  0  0  0  0  0  0  0
    6.9526    1.8024   22.0109 H   0  0  0  0  0  0  0  0  0  0  0  0
    6.0327    1.1527   23.3613 H   0  0  0  0  0  0  0  0  0  0  0  0
    8.0766    1.6214   23.7612 N   0  0  0  0  0  0  0  0  0  0  0  0
    8.2357    0.9431   24.4972 H   0  0  0  0  0  0  0  0  0  0  0  0
    7.8334    2.9212   24.3623 C   0  0  0  0  0  0  0  0  0  0  0  0
    7.7912    3.6732   23.5539 H   0  0  0  0  0  0  0  0  0  0  0  0
    8.9450    3.3105   25.3363 C   0  0  0  0  0  0  0  0  0  0  0  0
    9.1133    2.4666   26.0202 H   0  0  0  0  0  0  0  0  0  0  0  0
    9.8977    3.4992   24.8309 H   0  0  0  0  0  0  0  0  0  0  0  0
    8.3830    4.5192   26.1061 C   0  0  0  0  0  0  0  0  0  0  0  0
    8.6361    5.4477   25.5819 H   0  0  0  0  0  0  0  0  0  0  0  0
    8.8098    4.6110   27.1090 H   0  0  0  0  0  0  0  0  0  0  0  0
    6.8415    4.3129   26.1259 C   0  0  0  0  0  0  0  0  0  0  0  0
    6.3293    5.1965   25.7298 H   0  0  0  0  0  0  0  0  0  0  0  0
    6.4548    4.1655   27.1400 H   0  0  0  0  0  0  0  0  0  0  0  0
    6.5658    3.0793   25.2326 C   0  0  0  0  0  0  0  0  0  0  0  0
    5.6482    3.1733   24.6381 H   0  0  0  0  0  0  0  0  0  0  0  0
    6.4450    2.1737   25.8446 H   0  0  0  0  0  0  0  0  0  0  0  0
    8.3883   -1.7845   24.3764 C   0  0  0  0  0  0  0  0  0  0  0  0
    7.6664   -1.6918   25.1900 H   0  0  0  0  0  0  0  0  0  0  0  0
    9.2519   -1.1614   24.6253 H   0  0  0  0  0  0  0  0  0  0  0  0
    8.7898   -3.2668   24.1302 C   0  0  0  0  0  0  0  0  0  0  0  0
    9.7769   -3.5091   24.5301 H   0  0  0  0  0  0  0  0  0  0  0  0
    8.0675   -3.9383   24.5955 H   0  0  0  0  0  0  0  0  0  0  0  0
    8.7531   -3.4629   22.5953 C   0  0  0  0  0  0  0  0  0  0  0  0
    9.7544   -3.4213   22.1633 H   0  0  0  0  0  0  0  0  0  0  0  0
    8.2508   -4.3858   22.2922 H   0  0  0  0  0  0  0  0  0  0  0  0
    5.3563    0.6766   20.0732 C   0  0  0  0  0  0  0  0  0  0  0  0
    4.8617    0.6984   21.0440 H   0  0  0  0  0  0  0  0  0  0  0  0
    4.8066    1.3412   18.9811 C   0  0  0  0  0  0  0  0  0  0  0  0
    3.8773    1.8938   19.0683 H   0  0  0  0  0  0  0  0  0  0  0  0
  1  2  1  0
  2  3  2  0
  3  4  1  0
  4  5  1  0
  4  6  2  0
  6  7  1  0
  7  8  2  0
  8  9  1  0
  9 10  1  0
 10 11  2  0
 11 12  1  0
 12 13  1  0
 12 14  1  0
 12 15  1  0
 15 16  1  0
 15 17  1  0
 17 18  1  0
 17 19  1  0
 19 20  1  0
 19 21  1  0
 19 22  1  0
 22 23  1  0
 22 24  1  0
 22 25  1  0
 25 26  1  0
 25 27  1  0
 25 28  1  0
 28 29  1  0
 28 30  1  0
 10 31  1  0
 31 32  1  0
 31 33  1  0
 31 34  1  0
 34 35  1  0
 34 36  1  0
 34 37  1  0
 37 38  1  0
 37 39  1  0
  6 40  1  0
 40 41  1  0
 40 42  2  0
 42 43  1  0
 42  2  1  0
 11  7  1  0
 28 17  1  0
 37  9  1  0
M  END
>  <cnnaffinity>  (1) 
-5.40368

>  <filename>  (1) 
c1cncc(-c2nn3c(c2CNC2CCCC2)CCC3)c1

$$$$
