
     RDKit          3D

 35 38  0  0  0  0  0  0  0  0999 V2000
    4.9178    1.7752   17.0038 H   0  0  0  0  0  0  0  0  0  0  0  0
    5.4080    1.2889   17.8471 C   0  0  0  0  0  0  0  0  0  0  0  0
    6.5739    0.6759   17.5899 N   0  0  0  0  0  0  0  0  0  0  0  0
    7.1716    0.0379   18.6004 C   0  0  0  0  0  0  0  0  0  0  0  0
    8.1242   -0.4377   18.3735 H   0  0  0  0  0  0  0  0  0  0  0  0
    6.6507   -0.0191   19.8974 C   0  0  0  0  0  0  0  0  0  0  0  0
    7.4045   -0.7437   20.9504 C   0  0  0  0  0  0  0  0  0  0  0  0
    7.7586   -2.0089   20.6733 N   0  0  0  0  0  0  0  0  0  0  0  0
    8.3767   -2.7113   21.6280 C   0  0  0  0  0  0  0  0  0  0  0  0
    8.6385   -3.7340   21.3797 H   0  0  0  0  0  0  0  0  0  0  0  0
    8.7100   -2.1935   22.8817 C   0  0  0  0  0  0  0  0  0  0  0  0
    9.2286   -2.8022   23.6106 H   0  0  0  0  0  0  0  0  0  0  0  0
    8.3742   -0.8752   23.1632 C   0  0  0  0  0  0  0  0  0  0  0  0
    8.6143   -0.4193   24.1240 H   0  0  0  0  0  0  0  0  0  0  0  0
    7.7104   -0.1138   22.1896 C   0  0  0  0  0  0  0  0  0  0  0  0
    7.4335    1.3286   22.4684 C   0  0  0  0  0  0  0  0  0  0  0  0
    8.0809    2.3224   21.7502 C   0  0  0  0  0  0  0  0  0  0  0  0
    8.7848    2.0332   20.9768 H   0  0  0  0  0  0  0  0  0  0  0  0
    7.9205    3.6583   21.9516 N   0  0  0  0  0  0  0  0  0  0  0  0
    7.0630    4.0270   22.8779 C   0  0  0  0  0  0  0  0  0  0  0  0
    6.9267    5.0945   23.0426 H   0  0  0  0  0  0  0  0  0  0  0  0
    6.3058    3.1263   23.6866 C   0  0  0  0  0  0  0  0  0  0  0  0
    5.3814    3.5693   24.6833 C   0  0  0  0  0  0  0  0  0  0  0  0
    5.2518    4.6397   24.8476 H   0  0  0  0  0  0  0  0  0  0  0  0
    4.6651    2.6568   25.4162 C   0  0  0  0  0  0  0  0  0  0  0  0
    3.9612    2.9927   26.1747 H   0  0  0  0  0  0  0  0  0  0  0  0
    4.8268    1.2634   25.1950 C   0  0  0  0  0  0  0  0  0  0  0  0
    4.2519    0.5488   25.7748 H   0  0  0  0  0  0  0  0  0  0  0  0
    5.7156    0.8110   24.2444 C   0  0  0  0  0  0  0  0  0  0  0  0
    5.8380   -0.2538   24.0633 H   0  0  0  0  0  0  0  0  0  0  0  0
    6.4954    1.7263   23.4759 C   0  0  0  0  0  0  0  0  0  0  0  0
    5.4446    0.6474   20.1621 C   0  0  0  0  0  0  0  0  0  0  0  0
    5.0137    0.6432   21.1701 H   0  0  0  0  0  0  0  0  0  0  0  0
    4.8068    1.3052   19.1115 C   0  0  0  0  0  0  0  0  0  0  0  0
    3.8750    1.8426   19.2624 H   0  0  0  0  0  0  0  0  0  0  0  0
  1  2  1  0
  2  3  2  0
  3  4  1  0
  4  5  1  0
  4  6  2  0
  6  7  1  0
  7  8  2  0
  8  9  1  0
  9 10  1  0
  9 11  2  0
 11 12  1  0
 11 13  1  0
 13 14  1  0
 13 15  2  0
 15 16  1  0
 16 17  2  0
 17 18  1  0
 17 19  1  0
 19 20  2  0
 20 21  1  0
 20 22  1  0
 22 23  2  0
 23 24  1  0
 23 25  1  0
 25 26  1  0
 25 27  2  0
 27 28  1  0
 27 29  1  0
 29 30  1  0
 29 31  2  0
  6 32  1  0
 32 33  1  0
 32 34  2  0
 34 35  1  0
 34  2  1  0
 15  7  1  0
 31 16  1  0
 31 22  1  0
M  END
>  <cnnaffinity>  (1) 
-5.19524

>  <filename>  (1) 
c1cncc(-c2ncccc2-c2cncc3ccccc23)c1

$$$$
