
     RDKit          3D

 32 36  0  0  0  0  0  0  0  0999 V2000
    4.9164    1.7756   17.0020 H   0  0  0  0  0  0  0  0  0  0  0  0
    5.4044    1.2900   17.8428 C   0  0  0  0  0  0  0  0  0  0  0  0
    6.5698    0.6779   17.5773 N   0  0  0  0  0  0  0  0  0  0  0  0
    7.1747    0.0567   18.5903 C   0  0  0  0  0  0  0  0  0  0  0  0
    8.1242   -0.4344   18.3743 H   0  0  0  0  0  0  0  0  0  0  0  0
    6.6479    0.0110   19.8916 C   0  0  0  0  0  0  0  0  0  0  0  0
    7.4036   -0.7005   20.9191 C   0  0  0  0  0  0  0  0  0  0  0  0
    8.3300   -1.6007   20.7001 N   0  0  0  0  0  0  0  0  0  0  0  0
    8.8304   -2.0339   21.9069 N   0  0  0  0  0  0  0  0  0  0  0  0
    8.1968   -1.3528   22.8209 C   0  0  0  0  0  0  0  0  0  0  0  0
    8.2628   -1.0932   24.5387 S   0  0  0  0  0  0  0  0  0  0  0  0
    7.0304    0.1801   24.3301 C   0  0  0  0  0  0  0  0  0  0  0  0
    6.5300    0.9761   25.4804 C   0  0  0  0  0  0  0  0  0  0  0  0
    7.0067    0.7558   26.7913 C   0  0  0  0  0  0  0  0  0  0  0  0
    7.7578   -0.0078   26.9966 H   0  0  0  0  0  0  0  0  0  0  0  0
    6.5285    1.5166   27.8765 C   0  0  0  0  0  0  0  0  0  0  0  0
    6.8908    1.3507   28.8841 H   0  0  0  0  0  0  0  0  0  0  0  0
    5.5774    2.4858   27.6157 C   0  0  0  0  0  0  0  0  0  0  0  0
    5.0998    2.7114   26.3247 C   0  0  0  0  0  0  0  0  0  0  0  0
    5.5496    1.9829   25.2459 C   0  0  0  0  0  0  0  0  0  0  0  0
    5.1754    2.1660   24.2445 H   0  0  0  0  0  0  0  0  0  0  0  0
    4.1727    3.7160   26.3436 O   0  0  0  0  0  0  0  0  0  0  0  0
    4.0715    4.1316   27.7028 C   0  0  0  0  0  0  0  0  0  0  0  0
    4.3390    5.1898   27.7865 H   0  0  0  0  0  0  0  0  0  0  0  0
    3.0447    3.9913   28.0557 H   0  0  0  0  0  0  0  0  0  0  0  0
    4.9656    3.3427   28.4875 O   0  0  0  0  0  0  0  0  0  0  0  0
    6.6214    0.3564   23.1096 N   0  0  0  0  0  0  0  0  0  0  0  0
    7.2694   -0.5182   22.2821 N   0  0  0  0  0  0  0  0  0  0  0  0
    5.4332    0.6524   20.1619 C   0  0  0  0  0  0  0  0  0  0  0  0
    5.0095    0.6356   21.1695 H   0  0  0  0  0  0  0  0  0  0  0  0
    4.8046    1.3085   19.1088 C   0  0  0  0  0  0  0  0  0  0  0  0
    3.8739    1.8437   19.2615 H   0  0  0  0  0  0  0  0  0  0  0  0
  1  2  1  0
  2  3  2  0
  3  4  1  0
  4  5  1  0
  4  6  2  0
  6  7  1  0
  7  8  2  0
  8  9  1  0
  9 10  2  0
 10 11  1  0
 11 12  1  0
 12 13  1  0
 13 14  2  0
 14 15  1  0
 14 16  1  0
 16 17  1  0
 16 18  2  0
 18 19  1  0
 19 20  2  0
 20 21  1  0
 19 22  1  0
 22 23  1  0
 23 24  1  0
 23 25  1  0
 23 26  1  0
 12 27  2  0
 27 28  1  0
  6 29  1  0
 29 30  1  0
 29 31  2  0
 31 32  1  0
 31  2  1  0
 28  7  1  0
 28 10  1  0
 20 13  1  0
 26 18  1  0
M  END
>  <cnnaffinity>  (1) 
-5.41052

>  <filename>  (1) 
c1cncc(-c2nnc3sc(-c4ccc5c(c4)OCO5)nn23)c1

$$$$
