
     RDKit          3D

 38 42  0  0  0  0  0  0  0  0999 V2000
    4.9195    1.7779   16.9996 H   0  0  0  0  0  0  0  0  0  0  0  0
    5.4049    1.2898   17.8412 C   0  0  0  0  0  0  0  0  0  0  0  0
    6.5690    0.6764   17.5752 N   0  0  0  0  0  0  0  0  0  0  0  0
    7.1724    0.0549   18.5903 C   0  0  0  0  0  0  0  0  0  0  0  0
    8.1220   -0.4333   18.3711 H   0  0  0  0  0  0  0  0  0  0  0  0
    6.6454    0.0115   19.8936 C   0  0  0  0  0  0  0  0  0  0  0  0
    7.3997   -0.6878   20.9340 C   0  0  0  0  0  0  0  0  0  0  0  0
    8.3237   -1.5928   20.7112 N   0  0  0  0  0  0  0  0  0  0  0  0
    8.8251   -2.0241   21.9209 N   0  0  0  0  0  0  0  0  0  0  0  0
    8.1947   -1.3357   22.8323 C   0  0  0  0  0  0  0  0  0  0  0  0
    8.2745   -1.0759   24.5594 S   0  0  0  0  0  0  0  0  0  0  0  0
    7.0416    0.1988   24.3472 C   0  0  0  0  0  0  0  0  0  0  0  0
    6.5926    0.9268   25.4092 N   0  0  0  0  0  0  0  0  0  0  0  0
    5.8123    2.1439   25.1181 C   0  0  0  0  0  0  0  0  0  0  0  0
    4.8710    1.8625   24.6288 H   0  0  0  0  0  0  0  0  0  0  0  0
    6.3427    2.7679   24.3882 H   0  0  0  0  0  0  0  0  0  0  0  0
    5.4799    3.0137   26.3309 C   0  0  0  0  0  0  0  0  0  0  0  0
    5.0622    4.3442   26.1557 C   0  0  0  0  0  0  0  0  0  0  0  0
    5.0000    4.7670   25.1541 H   0  0  0  0  0  0  0  0  0  0  0  0
    4.7105    5.1369   27.2542 C   0  0  0  0  0  0  0  0  0  0  0  0
    4.3896    6.1658   27.1068 H   0  0  0  0  0  0  0  0  0  0  0  0
    4.7652    4.6045   28.5482 C   0  0  0  0  0  0  0  0  0  0  0  0
    4.4901    5.2108   29.4092 H   0  0  0  0  0  0  0  0  0  0  0  0
    5.1703    3.2797   28.7299 C   0  0  0  0  0  0  0  0  0  0  0  0
    5.2094    2.8479   29.7291 H   0  0  0  0  0  0  0  0  0  0  0  0
    5.5270    2.4839   27.6319 C   0  0  0  0  0  0  0  0  0  0  0  0
    5.9454    1.0442   27.7909 C   0  0  0  0  0  0  0  0  0  0  0  0
    6.3130    0.8667   28.8055 H   0  0  0  0  0  0  0  0  0  0  0  0
    5.0710    0.3971   27.6625 H   0  0  0  0  0  0  0  0  0  0  0  0
    7.0240    0.6485   26.7863 C   0  0  0  0  0  0  0  0  0  0  0  0
    7.2434   -0.4172   26.9064 H   0  0  0  0  0  0  0  0  0  0  0  0
    7.9470    1.2025   27.0158 H   0  0  0  0  0  0  0  0  0  0  0  0
    6.6191    0.3880   23.1273 N   0  0  0  0  0  0  0  0  0  0  0  0
    7.2681   -0.5012   22.2994 N   0  0  0  0  0  0  0  0  0  0  0  0
    5.4308    0.6523   20.1635 C   0  0  0  0  0  0  0  0  0  0  0  0
    5.0106    0.6386   21.1736 H   0  0  0  0  0  0  0  0  0  0  0  0
    4.8049    1.3072   19.1075 C   0  0  0  0  0  0  0  0  0  0  0  0
    3.8738    1.8434   19.2587 H   0  0  0  0  0  0  0  0  0  0  0  0
  1  2  1  0
  2  3  2  0
  3  4  1  0
  4  5  1  0
  4  6  2  0
  6  7  1  0
  7  8  2  0
  8  9  1  0
  9 10  2  0
 10 11  1  0
 11 12  1  0
 12 13  1  0
 13 14  1  0
 14 15  1  0
 14 16  1  0
 14 17  1  0
 17 18  2  0
 18 19  1  0
 18 20  1  0
 20 21  1  0
 20 22  2  0
 22 23  1  0
 22 24  1  0
 24 25  1  0
 24 26  2  0
 26 27  1  0
 27 28  1  0
 27 29  1  0
 27 30  1  0
 30 31  1  0
 30 32  1  0
 12 33  2  0
 33 34  1  0
  6 35  1  0
 35 36  1  0
 35 37  2  0
 37 38  1  0
 37  2  1  0
 34  7  1  0
 34 10  1  0
 30 13  1  0
 26 17  1  0
M  END
>  <cnnaffinity>  (1) 
-5.46813

>  <filename>  (1) 
c1cncc(-c2nnc3sc(N4CCc5ccccc5C4)nn23)c1

$$$$
