
     RDKit          3D

 43 47  0  0  0  0  0  0  0  0999 V2000
    4.9298    1.7728   17.0024 H   0  0  0  0  0  0  0  0  0  0  0  0
    5.4090    1.2852   17.8467 C   0  0  0  0  0  0  0  0  0  0  0  0
    6.5735    0.6670   17.5954 N   0  0  0  0  0  0  0  0  0  0  0  0
    7.1789    0.0529   18.6164 C   0  0  0  0  0  0  0  0  0  0  0  0
    8.1259   -0.4327   18.3859 H   0  0  0  0  0  0  0  0  0  0  0  0
    6.6451    0.0168   19.9124 C   0  0  0  0  0  0  0  0  0  0  0  0
    7.3664   -0.6882   20.9666 C   0  0  0  0  0  0  0  0  0  0  0  0
    8.5458   -1.3338   20.7544 N   0  0  0  0  0  0  0  0  0  0  0  0
    8.8003   -1.8190   21.9481 C   0  0  0  0  0  0  0  0  0  0  0  0
    9.9926   -2.8174   22.7249 S   0  0  0  0  0  0  0  0  0  0  0  0
    9.0828   -2.7598   24.2053 C   0  0  0  0  0  0  0  0  0  0  0  0
    9.4635   -3.2755   25.0746 H   0  0  0  0  0  0  0  0  0  0  0  0
    7.9624   -2.0079   24.1231 C   0  0  0  0  0  0  0  0  0  0  0  0
    6.9855   -1.7430   25.1994 C   0  0  0  0  0  0  0  0  0  0  0  0
    6.2677   -0.5320   25.2855 C   0  0  0  0  0  0  0  0  0  0  0  0
    6.4166    0.2328   24.5290 H   0  0  0  0  0  0  0  0  0  0  0  0
    5.3551   -0.3284   26.3122 C   0  0  0  0  0  0  0  0  0  0  0  0
    4.8084    0.6058   26.3904 H   0  0  0  0  0  0  0  0  0  0  0  0
    5.1416   -1.3035   27.3053 C   0  0  0  0  0  0  0  0  0  0  0  0
    4.2528   -1.0130   28.3559 N   0  0  0  0  0  0  0  0  0  0  0  0
    2.8384   -0.7550   28.0677 C   0  0  0  0  0  0  0  0  0  0  0  0
    2.2435   -1.6793   27.9552 H   0  0  0  0  0  0  0  0  0  0  0  0
    2.7497   -0.2086   27.1222 H   0  0  0  0  0  0  0  0  0  0  0  0
    2.2186    0.0877   29.1874 C   0  0  0  0  0  0  0  0  0  0  0  0
    1.1406    0.1904   29.0415 H   0  0  0  0  0  0  0  0  0  0  0  0
    2.6628    1.0945   29.1832 H   0  0  0  0  0  0  0  0  0  0  0  0
    2.4092   -0.5088   30.4633 O   0  0  0  0  0  0  0  0  0  0  0  0
    3.7976   -0.6322   30.7386 C   0  0  0  0  0  0  0  0  0  0  0  0
    4.2597    0.3660   30.7495 H   0  0  0  0  0  0  0  0  0  0  0  0
    3.8928   -1.0602   31.7383 H   0  0  0  0  0  0  0  0  0  0  0  0
    4.5083   -1.5159   29.7055 C   0  0  0  0  0  0  0  0  0  0  0  0
    5.5870   -1.4783   29.8945 H   0  0  0  0  0  0  0  0  0  0  0  0
    4.1818   -2.5598   29.8634 H   0  0  0  0  0  0  0  0  0  0  0  0
    5.8653   -2.5098   27.2304 C   0  0  0  0  0  0  0  0  0  0  0  0
    5.7089   -3.2706   27.9903 H   0  0  0  0  0  0  0  0  0  0  0  0
    6.7696   -2.7211   26.1927 C   0  0  0  0  0  0  0  0  0  0  0  0
    7.3114   -3.6646   26.1509 H   0  0  0  0  0  0  0  0  0  0  0  0
    7.8402   -1.4784   22.8332 N   0  0  0  0  0  0  0  0  0  0  0  0
    6.8910   -0.7433   22.2067 N   0  0  0  0  0  0  0  0  0  0  0  0
    5.4240    0.6596   20.1683 C   0  0  0  0  0  0  0  0  0  0  0  0
    4.9977    0.6359   21.1770 H   0  0  0  0  0  0  0  0  0  0  0  0
    4.8042    1.3101   19.1084 C   0  0  0  0  0  0  0  0  0  0  0  0
    3.8742    1.8430   19.2562 H   0  0  0  0  0  0  0  0  0  0  0  0
  1  2  1  0
  2  3  2  0
  3  4  1  0
  4  5  1  0
  4  6  2  0
  6  7  1  0
  7  8  1  0
  8  9  2  0
  9 10  1  0
 10 11  1  0
 11 12  1  0
 11 13  2  0
 13 14  1  0
 14 15  2  0
 15 16  1  0
 15 17  1  0
 17 18  1  0
 17 19  2  0
 19 20  1  0
 20 21  1  0
 21 22  1  0
 21 23  1  0
 21 24  1  0
 24 25  1  0
 24 26  1  0
 24 27  1  0
 27 28  1  0
 28 29  1  0
 28 30  1  0
 28 31  1  0
 31 32  1  0
 31 33  1  0
 19 34  1  0
 34 35  1  0
 34 36  2  0
 36 37  1  0
 13 38  1  0
 38 39  1  0
  6 40  1  0
 40 41  1  0
 40 42  2  0
 42 43  1  0
 42  2  1  0
 39  7  2  0
 38  9  1  0
 36 14  1  0
 31 20  1  0
M  END
>  <cnnaffinity>  (1) 
-5.70776

>  <filename>  (1) 
c1cncc(-c2nc3scc(-c4ccc(N5CCOCC5)cc4)n3n2)c1

$$$$
