
     RDKit          3D

 31 34  0  0  0  0  0  0  0  0999 V2000
    5.0536    1.7962   16.8900 H   0  0  0  0  0  0  0  0  0  0  0  0
    5.4709    1.2914   17.7594 C   0  0  0  0  0  0  0  0  0  0  0  0
    6.6311    0.6430   17.5617 N   0  0  0  0  0  0  0  0  0  0  0  0
    7.1681    0.0276   18.6161 C   0  0  0  0  0  0  0  0  0  0  0  0
    8.1085   -0.4980   18.4614 H   0  0  0  0  0  0  0  0  0  0  0  0
    6.5870    0.0246   19.8855 C   0  0  0  0  0  0  0  0  0  0  0  0
    7.2895   -0.6515   20.9581 C   0  0  0  0  0  0  0  0  0  0  0  0
    6.9657   -0.7073   22.2039 N   0  0  0  0  0  0  0  0  0  0  0  0
    7.9924   -1.4411   22.8025 C   0  0  0  0  0  0  0  0  0  0  0  0
    8.0215   -1.7738   24.2313 C   0  0  0  0  0  0  0  0  0  0  0  0
    9.0492   -2.5965   24.7231 C   0  0  0  0  0  0  0  0  0  0  0  0
    9.8540   -2.9300   24.0698 H   0  0  0  0  0  0  0  0  0  0  0  0
    9.0382   -3.0471   26.0538 C   0  0  0  0  0  0  0  0  0  0  0  0
    9.8668   -3.6495   26.4151 H   0  0  0  0  0  0  0  0  0  0  0  0
    7.9867   -2.7303   26.9105 C   0  0  0  0  0  0  0  0  0  0  0  0
    7.9528   -3.1344   27.9102 H   0  0  0  0  0  0  0  0  0  0  0  0
    6.9696   -1.8875   26.4387 C   0  0  0  0  0  0  0  0  0  0  0  0
    6.9871   -1.3481   25.1273 C   0  0  0  0  0  0  0  0  0  0  0  0
    5.8300   -0.4816   25.0488 C   0  0  0  0  0  0  0  0  0  0  0  0
    5.5676    0.1383   24.2044 H   0  0  0  0  0  0  0  0  0  0  0  0
    5.1533   -0.5672   26.2298 C   0  0  0  0  0  0  0  0  0  0  0  0
    4.2176   -0.0896   26.5155 H   0  0  0  0  0  0  0  0  0  0  0  0
    5.8393   -1.4207   27.0759 N   0  0  0  0  0  0  0  0  0  0  0  0
    5.6105   -1.6343   28.0328 H   0  0  0  0  0  0  0  0  0  0  0  0
    8.8778   -1.7918   21.8300 C   0  0  0  0  0  0  0  0  0  0  0  0
    9.7984   -2.3517   21.7860 H   0  0  0  0  0  0  0  0  0  0  0  0
    8.4392   -1.2888   20.6492 O   0  0  0  0  0  0  0  0  0  0  0  0
    5.3736    0.6939   20.0889 C   0  0  0  0  0  0  0  0  0  0  0  0
    4.9031    0.7118   21.0754 H   0  0  0  0  0  0  0  0  0  0  0  0
    4.8049    1.3341   18.9923 C   0  0  0  0  0  0  0  0  0  0  0  0
    3.8697    1.8774   19.0773 H   0  0  0  0  0  0  0  0  0  0  0  0
  1  2  1  0
  2  3  2  0
  3  4  1  0
  4  5  1  0
  4  6  2  0
  6  7  1  0
  7  8  2  0
  8  9  1  0
  9 10  1  0
 10 11  2  0
 11 12  1  0
 11 13  1  0
 13 14  1  0
 13 15  2  0
 15 16  1  0
 15 17  1  0
 17 18  2  0
 18 19  1  0
 19 20  1  0
 19 21  2  0
 21 22  1  0
 21 23  1  0
 23 24  1  0
  9 25  2  0
 25 26  1  0
 25 27  1  0
  6 28  1  0
 28 29  1  0
 28 30  2  0
 30 31  1  0
 30  2  1  0
 27  7  1  0
 18 10  1  0
 23 17  1  0
M  END
>  <cnnaffinity>  (1) 
-4.9868

>  <filename>  (1) 
c1cncc(-c2nc(-c3cccc4[nH]ccc34)co2)c1

$$$$
