
     RDKit          3D

 26 29  0  0  0  0  0  0  0  0999 V2000
    6.1189   -1.9285   28.1964 H   0  0  0  0  0  0  0  0  0  0  0  0
    6.1728   -1.6741   27.1440 C   0  0  0  0  0  0  0  0  0  0  0  0
    5.3174   -0.9876   26.4661 N   0  0  0  0  0  0  0  0  0  0  0  0
    5.8650   -0.9589   25.1945 C   0  0  0  0  0  0  0  0  0  0  0  0
    5.4326   -0.4433   24.3586 H   0  0  0  0  0  0  0  0  0  0  0  0
    7.0357   -1.6445   25.1758 C   0  0  0  0  0  0  0  0  0  0  0  0
    8.0189   -1.9413   24.1481 C   0  0  0  0  0  0  0  0  0  0  0  0
    9.1735   -2.6425   24.2439 C   0  0  0  0  0  0  0  0  0  0  0  0
    9.5688   -3.1161   25.1331 H   0  0  0  0  0  0  0  0  0  0  0  0
   10.0547   -2.7462   22.7560 S   0  0  0  0  0  0  0  0  0  0  0  0
    8.8117   -1.8073   21.9589 C   0  0  0  0  0  0  0  0  0  0  0  0
    8.5422   -1.3268   20.7593 N   0  0  0  0  0  0  0  0  0  0  0  0
    7.3577   -0.6905   20.9790 C   0  0  0  0  0  0  0  0  0  0  0  0
    6.6451    0.0139   19.9169 C   0  0  0  0  0  0  0  0  0  0  0  0
    7.1802    0.0525   18.6195 C   0  0  0  0  0  0  0  0  0  0  0  0
    8.1253   -0.4321   18.3846 H   0  0  0  0  0  0  0  0  0  0  0  0
    6.5763    0.6654   17.5960 N   0  0  0  0  0  0  0  0  0  0  0  0
    5.4118    1.2850   17.8466 C   0  0  0  0  0  0  0  0  0  0  0  0
    4.9260    1.7725   17.0029 H   0  0  0  0  0  0  0  0  0  0  0  0
    4.8049    1.3092   19.1092 C   0  0  0  0  0  0  0  0  0  0  0  0
    3.8734    1.8436   19.2593 H   0  0  0  0  0  0  0  0  0  0  0  0
    5.4261    0.6580   20.1687 C   0  0  0  0  0  0  0  0  0  0  0  0
    4.9966    0.6359   21.1744 H   0  0  0  0  0  0  0  0  0  0  0  0
    6.8840   -0.7529   22.2244 N   0  0  0  0  0  0  0  0  0  0  0  0
    7.8449   -1.4824   22.8390 N   0  0  0  0  0  0  0  0  0  0  0  0
    7.2421   -2.1135   26.4529 O   0  0  0  0  0  0  0  0  0  0  0  0
  1  2  1  0
  2  3  2  0
  3  4  1  0
  4  5  1  0
  4  6  2  0
  6  7  1  0
  7  8  2  0
  8  9  1  0
  8 10  1  0
 10 11  1  0
 11 12  2  0
 12 13  1  0
 13 14  1  0
 14 15  2  0
 15 16  1  0
 15 17  1  0
 17 18  2  0
 18 19  1  0
 18 20  1  0
 20 21  1  0
 20 22  2  0
 22 23  1  0
 13 24  2  0
 24 25  1  0
  6 26  1  0
 26  2  1  0
 25  7  1  0
 25 11  1  0
 22 14  1  0
M  END
>  <cnnaffinity>  (1) 
-5.09738

>  <filename>  (1) 
c1cncc(-c2nc3scc(-c4cnco4)n3n2)c1

$$$$
