
     RDKit          3D

 31 32  0  0  0  0  0  0  0  0999 V2000
    6.9365   -2.6853   20.1703 H   0  0  0  0  0  0  0  0  0  0  0  0
    7.3799   -2.0992   20.9673 C   0  0  0  0  0  0  0  0  0  0  0  0
    7.9424   -2.6483   21.7209 H   0  0  0  0  0  0  0  0  0  0  0  0
    7.2215   -0.7742   21.0417 C   0  0  0  0  0  0  0  0  0  0  0  0
    6.5430   -0.0207   19.9332 C   0  0  0  0  0  0  0  0  0  0  0  0
    7.0994    0.0101   18.6411 C   0  0  0  0  0  0  0  0  0  0  0  0
    8.0460   -0.4946   18.4484 H   0  0  0  0  0  0  0  0  0  0  0  0
    6.5662    0.6514   17.5927 N   0  0  0  0  0  0  0  0  0  0  0  0
    5.4060    1.2948   17.7921 C   0  0  0  0  0  0  0  0  0  0  0  0
    4.9895    1.8185   16.9328 H   0  0  0  0  0  0  0  0  0  0  0  0
    4.7440    1.3120   19.0250 C   0  0  0  0  0  0  0  0  0  0  0  0
    3.8080    1.8514   19.1241 H   0  0  0  0  0  0  0  0  0  0  0  0
    5.3292    0.6566   20.1143 C   0  0  0  0  0  0  0  0  0  0  0  0
    4.8623    0.6788   21.0995 H   0  0  0  0  0  0  0  0  0  0  0  0
    7.7689   -0.0067   22.2420 C   0  0  0  0  0  0  0  0  0  0  0  0
    7.8585   -0.7325   23.0588 H   0  0  0  0  0  0  0  0  0  0  0  0
    7.0343    0.7280   22.5787 H   0  0  0  0  0  0  0  0  0  0  0  0
    9.1614    0.5898   22.0312 C   0  0  0  0  0  0  0  0  0  0  0  0
   10.2546   -0.2753   21.8798 C   0  0  0  0  0  0  0  0  0  0  0  0
   10.0921   -1.3467   21.9261 H   0  0  0  0  0  0  0  0  0  0  0  0
   11.5523    0.2131   21.7102 C   0  0  0  0  0  0  0  0  0  0  0  0
   12.3696   -0.4833   21.5693 H   0  0  0  0  0  0  0  0  0  0  0  0
   11.7855    1.5888   21.7152 C   0  0  0  0  0  0  0  0  0  0  0  0
   12.7918    1.9739   21.6148 H   0  0  0  0  0  0  0  0  0  0  0  0
   10.7231    2.4723   21.8932 C   0  0  0  0  0  0  0  0  0  0  0  0
   10.8907    3.5482   21.9393 H   0  0  0  0  0  0  0  0  0  0  0  0
    9.4185    1.9753   22.0378 C   0  0  0  0  0  0  0  0  0  0  0  0
    8.2751    2.9429   22.2538 C   0  0  0  0  0  0  0  0  0  0  0  0
    7.7359    2.7984   23.4876 F   0  0  0  0  0  0  0  0  0  0  0  0
    8.6256    4.2377   22.1590 F   0  0  0  0  0  0  0  0  0  0  0  0
    7.2687    2.7476   21.3738 F   0  0  0  0  0  0  0  0  0  0  0  0
  1  2  1  0
  2  3  1  0
  2  4  2  3
  4  5  1  0
  5  6  2  0
  6  7  1  0
  6  8  1  0
  8  9  2  0
  9 10  1  0
  9 11  1  0
 11 12  1  0
 11 13  2  0
 13 14  1  0
  4 15  1  0
 15 16  1  0
 15 17  1  0
 15 18  1  0
 18 19  2  0
 19 20  1  0
 19 21  1  0
 21 22  1  0
 21 23  2  0
 23 24  1  0
 23 25  1  0
 25 26  1  0
 25 27  2  0
 27 28  1  0
 28 29  1  0
 28 30  1  0
 28 31  1  0
 13  5  1  0
 27 18  1  0
M  END
>  <cnnaffinity>  (1) 
-4.93911

>  <filename>  (1) 
C=C(Cc1ccccc1C(F)(F)F)c1cccnc1

$$$$
