
     RDKit          3D

 27 29  0  0  0  0  0  0  0  0999 V2000
    3.9069   -1.1575   26.8553 H   0  0  0  0  0  0  0  0  0  0  0  0
    4.0857   -1.5561   25.8602 C   0  0  0  0  0  0  0  0  0  0  0  0
    3.7207   -0.9626   25.0228 H   0  0  0  0  0  0  0  0  0  0  0  0
    4.7295   -2.7032   25.6825 C   0  0  0  0  0  0  0  0  0  0  0  0
    5.0972   -3.2433   26.5644 H   0  0  0  0  0  0  0  0  0  0  0  0
    5.0100   -3.3110   24.3059 C   0  0  0  0  0  0  0  0  0  0  0  0
    4.1109   -3.2642   23.6715 H   0  0  0  0  0  0  0  0  0  0  0  0
    5.2643   -4.3656   24.4577 H   0  0  0  0  0  0  0  0  0  0  0  0
    6.1347   -2.7001   23.4894 C   0  0  0  0  0  0  0  0  0  0  0  0
    7.4191   -2.5912   23.9449 N   0  0  0  0  0  0  0  0  0  0  0  0
    8.0204   -2.0177   22.9181 C   0  0  0  0  0  0  0  0  0  0  0  0
    9.6174   -1.4829   22.4774 S   0  0  0  0  0  0  0  0  0  0  0  0
    8.9790   -0.8252   20.9941 C   0  0  0  0  0  0  0  0  0  0  0  0
    9.6314   -0.2425   20.3580 H   0  0  0  0  0  0  0  0  0  0  0  0
    7.6565   -1.0449   20.8255 C   0  0  0  0  0  0  0  0  0  0  0  0
    6.7971   -0.4098   19.7931 C   0  0  0  0  0  0  0  0  0  0  0  0
    7.2620   -0.2525   18.4679 C   0  0  0  0  0  0  0  0  0  0  0  0
    8.1323   -0.8054   18.1160 H   0  0  0  0  0  0  0  0  0  0  0  0
    6.6786    0.5342   17.5536 N   0  0  0  0  0  0  0  0  0  0  0  0
    5.5738    1.1980   17.9265 C   0  0  0  0  0  0  0  0  0  0  0  0
    5.1325    1.8592   17.1840 H   0  0  0  0  0  0  0  0  0  0  0  0
    4.9725    1.0410   19.1812 C   0  0  0  0  0  0  0  0  0  0  0  0
    4.0648    1.5850   19.4136 H   0  0  0  0  0  0  0  0  0  0  0  0
    5.5661    0.1907   20.1105 C   0  0  0  0  0  0  0  0  0  0  0  0
    5.0934   -0.0193   21.0703 H   0  0  0  0  0  0  0  0  0  0  0  0
    7.1553   -1.7806   21.9097 N   0  0  0  0  0  0  0  0  0  0  0  0
    5.9379   -2.2850   22.2426 N   0  0  0  0  0  0  0  0  0  0  0  0
  1  2  1  0
  2  3  1  0
  2  4  2  3
  4  5  1  0
  4  6  1  0
  6  7  1  0
  6  8  1  0
  6  9  1  0
  9 10  1  0
 10 11  2  0
 11 12  1  0
 12 13  1  0
 13 14  1  0
 13 15  2  0
 15 16  1  0
 16 17  2  0
 17 18  1  0
 17 19  1  0
 19 20  2  0
 20 21  1  0
 20 22  1  0
 22 23  1  0
 22 24  2  0
 24 25  1  0
 15 26  1  0
 26 27  1  0
 27  9  2  0
 26 11  1  0
 24 16  1  0
M  END
>  <cnnaffinity>  (1) 
-5.05881

>  <filename>  (1) 
C=CCc1nc2scc(-c3cccnc3)n2n1

$$$$
