
     RDKit          3D

 33 35  0  0  0  0  0  0  0  0999 V2000
    5.9760    3.5860   26.4801 H   0  0  0  0  0  0  0  0  0  0  0  0
    6.0931    2.5736   26.1061 C   0  0  0  0  0  0  0  0  0  0  0  0
    5.9333    1.7574   26.8114 H   0  0  0  0  0  0  0  0  0  0  0  0
    6.4116    2.3233   24.8396 C   0  0  0  0  0  0  0  0  0  0  0  0
    6.5706    3.1371   24.1333 H   0  0  0  0  0  0  0  0  0  0  0  0
    6.5843    0.9373   24.3195 C   0  0  0  0  0  0  0  0  0  0  0  0
    6.5686   -0.0575   25.0203 O   0  0  0  0  0  0  0  0  0  0  0  0
    6.7562    0.9002   22.9508 N   0  0  0  0  0  0  0  0  0  0  0  0
    6.8725    1.8132   22.5406 H   0  0  0  0  0  0  0  0  0  0  0  0
    7.4371   -0.1518   22.2975 C   0  0  0  0  0  0  0  0  0  0  0  0
    7.3787   -0.5748   20.9257 C   0  0  0  0  0  0  0  0  0  0  0  0
    6.6105    0.0355   19.8378 C   0  0  0  0  0  0  0  0  0  0  0  0
    7.1154    0.0378   18.5229 C   0  0  0  0  0  0  0  0  0  0  0  0
    8.0425   -0.4861   18.2941 H   0  0  0  0  0  0  0  0  0  0  0  0
    6.5288    0.6723   17.5023 N   0  0  0  0  0  0  0  0  0  0  0  0
    5.3810    1.3191   17.7591 C   0  0  0  0  0  0  0  0  0  0  0  0
    4.9398    1.8633   16.9251 H   0  0  0  0  0  0  0  0  0  0  0  0
    4.7602    1.3250   19.0135 C   0  0  0  0  0  0  0  0  0  0  0  0
    3.8297    1.8637   19.1492 H   0  0  0  0  0  0  0  0  0  0  0  0
    5.3793    0.6673   20.0741 C   0  0  0  0  0  0  0  0  0  0  0  0
    4.9277    0.6396   21.0679 H   0  0  0  0  0  0  0  0  0  0  0  0
    8.1699   -1.6307   20.7171 N   0  0  0  0  0  0  0  0  0  0  0  0
    8.7017   -1.8609   21.9151 N   0  0  0  0  0  0  0  0  0  0  0  0
    8.3373   -1.0173   22.8842 C   0  0  0  0  0  0  0  0  0  0  0  0
    9.1308   -1.2630   24.1366 C   0  0  0  0  0  0  0  0  0  0  0  0
    8.4789   -1.6236   24.9382 H   0  0  0  0  0  0  0  0  0  0  0  0
    9.6018   -0.3387   24.4884 H   0  0  0  0  0  0  0  0  0  0  0  0
   10.1752   -2.3075   23.6591 C   0  0  0  0  0  0  0  0  0  0  0  0
   11.1142   -1.7924   23.4724 H   0  0  0  0  0  0  0  0  0  0  0  0
   10.3516   -3.0960   24.3917 H   0  0  0  0  0  0  0  0  0  0  0  0
    9.6869   -2.8387   22.2863 C   0  0  0  0  0  0  0  0  0  0  0  0
    9.2280   -3.8306   22.3177 H   0  0  0  0  0  0  0  0  0  0  0  0
   10.4762   -2.8215   21.5390 H   0  0  0  0  0  0  0  0  0  0  0  0
  1  2  1  0
  2  3  1  0
  2  4  2  3
  4  5  1  0
  4  6  1  0
  6  7  2  0
  6  8  1  0
  8  9  1  0
  8 10  1  0
 10 11  1  0
 11 12  1  0
 12 13  2  0
 13 14  1  0
 13 15  1  0
 15 16  2  0
 16 17  1  0
 16 18  1  0
 18 19  1  0
 18 20  2  0
 20 21  1  0
 11 22  2  0
 22 23  1  0
 23 24  1  0
 24 25  1  0
 25 26  1  0
 25 27  1  0
 25 28  1  0
 28 29  1  0
 28 30  1  0
 28 31  1  0
 31 32  1  0
 31 33  1  0
 24 10  2  0
 20 12  1  0
 31 23  1  0
M  END
>  <cnnaffinity>  (1) 
-5.18432

>  <filename>  (1) 
C=CC(=O)Nc1c(-c2cccnc2)nn2c1CCC2

$$$$
