
     RDKit          3D

 31 33  0  0  0  0  0  0  0  0999 V2000
    2.7466   -5.2190   25.1436 H   0  0  0  0  0  0  0  0  0  0  0  0
    3.8258   -5.1133   25.2580 C   0  0  0  0  0  0  0  0  0  0  0  0
    4.1795   -4.9314   26.2687 H   0  0  0  0  0  0  0  0  0  0  0  0
    4.6716   -5.1942   24.2344 C   0  0  0  0  0  0  0  0  0  0  0  0
    5.7503   -5.0817   24.3905 H   0  0  0  0  0  0  0  0  0  0  0  0
    4.2397   -5.4630   22.8124 C   0  0  0  0  0  0  0  0  0  0  0  0
    3.4491   -4.7685   22.4926 H   0  0  0  0  0  0  0  0  0  0  0  0
    3.8252   -6.4710   22.7040 H   0  0  0  0  0  0  0  0  0  0  0  0
    5.3554   -5.4704   21.9067 O   0  0  0  0  0  0  0  0  0  0  0  0
    6.1024   -4.3784   21.7384 C   0  0  0  0  0  0  0  0  0  0  0  0
    7.3687   -4.4395   21.4702 N   0  0  0  0  0  0  0  0  0  0  0  0
    7.8976   -3.1992   21.2546 N   0  0  0  0  0  0  0  0  0  0  0  0
    7.0262   -2.2388   21.3091 C   0  0  0  0  0  0  0  0  0  0  0  0
    7.3272   -0.7775   21.0719 C   0  0  0  0  0  0  0  0  0  0  0  0
    6.6051   -0.0588   19.9520 C   0  0  0  0  0  0  0  0  0  0  0  0
    7.1439   -0.0133   18.6495 C   0  0  0  0  0  0  0  0  0  0  0  0
    8.0864   -0.5185   18.4374 H   0  0  0  0  0  0  0  0  0  0  0  0
    6.5801    0.6177   17.6099 N   0  0  0  0  0  0  0  0  0  0  0  0
    5.4301    1.2677   17.8416 C   0  0  0  0  0  0  0  0  0  0  0  0
    5.0040    1.8059   16.9957 H   0  0  0  0  0  0  0  0  0  0  0  0
    4.7995    1.2866   19.0897 C   0  0  0  0  0  0  0  0  0  0  0  0
    3.8732    1.8358   19.2099 H   0  0  0  0  0  0  0  0  0  0  0  0
    5.3988    0.6223   20.1634 C   0  0  0  0  0  0  0  0  0  0  0  0
    4.9507    0.6491   21.1597 H   0  0  0  0  0  0  0  0  0  0  0  0
    7.7237    0.0427   22.3000 C   0  0  0  0  0  0  0  0  0  0  0  0
    7.6926   -0.4376   23.2762 H   0  0  0  0  0  0  0  0  0  0  0  0
    7.4348    1.0935   22.3203 H   0  0  0  0  0  0  0  0  0  0  0  0
    8.7604   -0.3810   21.3058 C   0  0  0  0  0  0  0  0  0  0  0  0
    9.4192   -1.2007   21.5822 H   0  0  0  0  0  0  0  0  0  0  0  0
    9.1767    0.3733   20.6390 H   0  0  0  0  0  0  0  0  0  0  0  0
    5.4349   -2.7725   21.7413 S   0  0  0  0  0  0  0  0  0  0  0  0
  1  2  1  0
  2  3  1  0
  2  4  2  3
  4  5  1  0
  4  6  1  0
  6  7  1  0
  6  8  1  0
  6  9  1  0
  9 10  1  0
 10 11  2  0
 11 12  1  0
 12 13  2  0
 13 14  1  0
 14 15  1  0
 15 16  2  0
 16 17  1  0
 16 18  1  0
 18 19  2  0
 19 20  1  0
 19 21  1  0
 21 22  1  0
 21 23  2  0
 23 24  1  0
 14 25  1  0
 25 26  1  0
 25 27  1  0
 25 28  1  0
 28 29  1  0
 28 30  1  0
 13 31  1  0
 31 10  1  0
 28 14  1  0
 23 15  1  0
M  END
>  <cnnaffinity>  (1) 
-4.75814

>  <filename>  (1) 
C=CCOc1nnc(C2(c3cccnc3)CC2)s1

$$$$
