
     RDKit          3D

 26 27  0  0  0  0  0  0  0  0999 V2000
   10.5113   -4.8416   25.4883 H   0  0  0  0  0  0  0  0  0  0  0  0
    9.6771   -5.0509   24.8124 C   0  0  0  0  0  0  0  0  0  0  0  0
    9.5626   -6.0946   24.5201 H   0  0  0  0  0  0  0  0  0  0  0  0
    8.8471   -4.1022   24.3838 C   0  0  0  0  0  0  0  0  0  0  0  0
    8.0035   -4.3431   23.7328 H   0  0  0  0  0  0  0  0  0  0  0  0
    8.9858   -2.6509   24.7702 C   0  0  0  0  0  0  0  0  0  0  0  0
    8.8419   -2.5312   25.8416 H   0  0  0  0  0  0  0  0  0  0  0  0
    9.9883   -2.2614   24.5592 H   0  0  0  0  0  0  0  0  0  0  0  0
    7.9644   -1.7987   24.2447 O   0  0  0  0  0  0  0  0  0  0  0  0
    8.0077   -1.5417   22.8919 N   0  0  0  0  0  0  0  0  0  0  0  0
    8.9039   -1.8910   21.9212 C   0  0  0  0  0  0  0  0  0  0  0  0
    9.7768   -2.5102   22.1189 H   0  0  0  0  0  0  0  0  0  0  0  0
    8.5414   -1.3970   20.7606 N   0  0  0  0  0  0  0  0  0  0  0  0
    7.3765   -0.7047   20.9910 C   0  0  0  0  0  0  0  0  0  0  0  0
    6.6638    0.0012   19.9177 C   0  0  0  0  0  0  0  0  0  0  0  0
    7.1825    0.0495   18.6113 C   0  0  0  0  0  0  0  0  0  0  0  0
    8.1284   -0.4336   18.3798 H   0  0  0  0  0  0  0  0  0  0  0  0
    6.5739    0.6668   17.5931 N   0  0  0  0  0  0  0  0  0  0  0  0
    5.4091    1.2857   17.8432 C   0  0  0  0  0  0  0  0  0  0  0  0
    4.9275    1.7766   17.0005 H   0  0  0  0  0  0  0  0  0  0  0  0
    4.8118    1.3060   19.1061 C   0  0  0  0  0  0  0  0  0  0  0  0
    3.8810    1.8374   19.2590 H   0  0  0  0  0  0  0  0  0  0  0  0
    5.4395    0.6515   20.1588 C   0  0  0  0  0  0  0  0  0  0  0  0
    4.9917    0.6430   21.1541 H   0  0  0  0  0  0  0  0  0  0  0  0
    7.0290   -0.7853   22.3156 C   0  0  0  0  0  0  0  0  0  0  0  0
    6.2033   -0.3746   22.8763 H   0  0  0  0  0  0  0  0  0  0  0  0
  1  2  1  0
  2  3  1  0
  2  4  2  3
  4  5  1  0
  4  6  1  0
  6  7  1  0
  6  8  1  0
  6  9  1  0
  9 10  1  0
 10 11  1  0
 11 12  1  0
 11 13  2  0
 13 14  1  0
 14 15  1  0
 15 16  2  0
 16 17  1  0
 16 18  1  0
 18 19  2  0
 19 20  1  0
 19 21  1  0
 21 22  1  0
 21 23  2  0
 23 24  1  0
 14 25  2  0
 25 26  1  0
 25 10  1  0
 23 15  1  0
M  END
>  <cnnaffinity>  (1) 
-4.53366

>  <filename>  (1) 
C=CCOn1cnc(-c2cccnc2)c1

$$$$
