
     RDKit          3D

 36 37  0  0  0  0  0  0  0  0999 V2000
    9.3550   -3.1583   26.2435 H   0  0  0  0  0  0  0  0  0  0  0  0
    8.5710   -3.8461   26.5627 C   0  0  0  0  0  0  0  0  0  0  0  0
    8.2824   -3.8315   27.6110 H   0  0  0  0  0  0  0  0  0  0  0  0
    7.9715   -4.6339   25.6750 C   0  0  0  0  0  0  0  0  0  0  0  0
    7.1367   -5.2641   25.9802 H   0  0  0  0  0  0  0  0  0  0  0  0
    8.3979   -4.7022   24.2255 C   0  0  0  0  0  0  0  0  0  0  0  0
    9.4645   -4.9639   24.1301 H   0  0  0  0  0  0  0  0  0  0  0  0
    7.8053   -5.4428   23.6662 H   0  0  0  0  0  0  0  0  0  0  0  0
    8.1994   -3.3930   23.6665 O   0  0  0  0  0  0  0  0  0  0  0  0
    8.5481   -3.3585   22.2938 N   0  0  0  0  0  0  0  0  0  0  0  0
    7.3184   -3.0505   21.5467 C   0  0  0  0  0  0  0  0  0  0  0  0
    7.5365   -3.1560   20.4880 H   0  0  0  0  0  0  0  0  0  0  0  0
    6.6000   -3.8323   21.8110 H   0  0  0  0  0  0  0  0  0  0  0  0
    6.6421   -1.6723   21.7331 C   0  0  0  0  0  0  0  0  0  0  0  0
    6.5592   -1.4423   22.8086 H   0  0  0  0  0  0  0  0  0  0  0  0
    5.6210   -1.7726   21.3491 H   0  0  0  0  0  0  0  0  0  0  0  0
    7.3023   -0.5980   20.9890 N   0  0  0  0  0  0  0  0  0  0  0  0
    6.6552    0.0321   19.8878 C   0  0  0  0  0  0  0  0  0  0  0  0
    7.1744    0.0912   18.5604 C   0  0  0  0  0  0  0  0  0  0  0  0
    8.1199   -0.3973   18.3137 H   0  0  0  0  0  0  0  0  0  0  0  0
    6.5642    0.7041   17.5314 N   0  0  0  0  0  0  0  0  0  0  0  0
    5.3995    1.3242   17.7828 C   0  0  0  0  0  0  0  0  0  0  0  0
    4.9346    1.8364   16.9434 H   0  0  0  0  0  0  0  0  0  0  0  0
    4.7922    1.3251   19.0421 C   0  0  0  0  0  0  0  0  0  0  0  0
    3.8523    1.8420   19.1893 H   0  0  0  0  0  0  0  0  0  0  0  0
    5.4180    0.6623   20.1010 C   0  0  0  0  0  0  0  0  0  0  0  0
    5.0049    0.6506   21.1112 H   0  0  0  0  0  0  0  0  0  0  0  0
    8.6394   -0.1388   21.3400 C   0  0  0  0  0  0  0  0  0  0  0  0
    8.6053    0.9226   21.6468 H   0  0  0  0  0  0  0  0  0  0  0  0
    9.2567   -0.1499   20.4273 H   0  0  0  0  0  0  0  0  0  0  0  0
    9.3546   -0.9293   22.4377 C   0  0  0  0  0  0  0  0  0  0  0  0
   10.3048   -0.4169   22.6412 H   0  0  0  0  0  0  0  0  0  0  0  0
    8.7751   -0.8797   23.3658 H   0  0  0  0  0  0  0  0  0  0  0  0
    9.6592   -2.4041   22.1240 C   0  0  0  0  0  0  0  0  0  0  0  0
   10.0268   -2.5191   21.0924 H   0  0  0  0  0  0  0  0  0  0  0  0
   10.4620   -2.7536   22.7859 H   0  0  0  0  0  0  0  0  0  0  0  0
  1  2  1  0
  2  3  1  0
  2  4  2  3
  4  5  1  0
  4  6  1  0
  6  7  1  0
  6  8  1  0
  6  9  1  0
  9 10  1  0
 10 11  1  0
 11 12  1  0
 11 13  1  0
 11 14  1  0
 14 15  1  0
 14 16  1  0
 14 17  1  0
 17 18  1  0
 18 19  2  0
 19 20  1  0
 19 21  1  0
 21 22  2  0
 22 23  1  0
 22 24  1  0
 24 25  1  0
 24 26  2  0
 26 27  1  0
 17 28  1  0
 28 29  1  0
 28 30  1  0
 28 31  1  0
 31 32  1  0
 31 33  1  0
 31 34  1  0
 34 35  1  0
 34 36  1  0
 34 10  1  0
 26 18  1  0
M  END
>  <cnnaffinity>  (1) 
-4.90951

>  <filename>  (1) 
C=CCON1CCCN(c2cccnc2)CC1

$$$$
