
     RDKit          3D

 31 33  0  0  0  0  0  0  0  0999 V2000
   13.1894    0.7157   25.1060 H   0  0  0  0  0  0  0  0  0  0  0  0
   12.5726    1.4773   24.6382 C   0  0  0  0  0  0  0  0  0  0  0  0
   13.0028    1.9964   23.7832 H   0  0  0  0  0  0  0  0  0  0  0  0
   11.3511    1.7506   25.0928 C   0  0  0  0  0  0  0  0  0  0  0  0
   10.9102    1.1535   25.8918 H   0  0  0  0  0  0  0  0  0  0  0  0
   10.4128    2.7609   24.5021 C   0  0  0  0  0  0  0  0  0  0  0  0
   10.8328    3.2521   23.6182 H   0  0  0  0  0  0  0  0  0  0  0  0
   10.0850    3.5417   25.1939 H   0  0  0  0  0  0  0  0  0  0  0  0
    9.1862    2.0951   24.1502 O   0  0  0  0  0  0  0  0  0  0  0  0
    9.2318    1.3438   23.0687 C   0  0  0  0  0  0  0  0  0  0  0  0
   10.1482    1.1795   22.1688 N   0  0  0  0  0  0  0  0  0  0  0  0
    9.5691    0.3248   21.2213 N   0  0  0  0  0  0  0  0  0  0  0  0
    8.3829    0.0641   21.6471 C   0  0  0  0  0  0  0  0  0  0  0  0
    7.3008   -0.7238   21.0047 C   0  0  0  0  0  0  0  0  0  0  0  0
    6.5798    0.0060   19.9135 C   0  0  0  0  0  0  0  0  0  0  0  0
    7.1429    0.0601   18.6282 C   0  0  0  0  0  0  0  0  0  0  0  0
    8.1005   -0.4315   18.4543 H   0  0  0  0  0  0  0  0  0  0  0  0
    6.5806    0.6812   17.5836 N   0  0  0  0  0  0  0  0  0  0  0  0
    5.4159    1.3082   17.8110 C   0  0  0  0  0  0  0  0  0  0  0  0
    4.9695    1.8065   16.9548 H   0  0  0  0  0  0  0  0  0  0  0  0
    4.7844    1.3452   19.0606 C   0  0  0  0  0  0  0  0  0  0  0  0
    3.8514    1.8822   19.1765 H   0  0  0  0  0  0  0  0  0  0  0  0
    5.3840    0.6955   20.1388 C   0  0  0  0  0  0  0  0  0  0  0  0
    4.9512    0.7229   21.1430 H   0  0  0  0  0  0  0  0  0  0  0  0
    7.4997   -2.2160   20.8713 C   0  0  0  0  0  0  0  0  0  0  0  0
    6.9904   -2.6724   20.0271 H   0  0  0  0  0  0  0  0  0  0  0  0
    8.4894   -2.5991   21.1225 H   0  0  0  0  0  0  0  0  0  0  0  0
    6.5668   -1.6787   21.9104 C   0  0  0  0  0  0  0  0  0  0  0  0
    6.8679   -1.6671   22.9557 H   0  0  0  0  0  0  0  0  0  0  0  0
    5.5010   -1.8055   21.7379 H   0  0  0  0  0  0  0  0  0  0  0  0
    8.1071    0.6680   22.8388 O   0  0  0  0  0  0  0  0  0  0  0  0
  1  2  1  0
  2  3  1  0
  2  4  2  3
  4  5  1  0
  4  6  1  0
  6  7  1  0
  6  8  1  0
  6  9  1  0
  9 10  1  0
 10 11  2  0
 11 12  1  0
 12 13  2  0
 13 14  1  0
 14 15  1  0
 15 16  2  0
 16 17  1  0
 16 18  1  0
 18 19  2  0
 19 20  1  0
 19 21  1  0
 21 22  1  0
 21 23  2  0
 23 24  1  0
 14 25  1  0
 25 26  1  0
 25 27  1  0
 25 28  1  0
 28 29  1  0
 28 30  1  0
 13 31  1  0
 31 10  1  0
 28 14  1  0
 23 15  1  0
M  END
>  <cnnaffinity>  (1) 
-4.95473

>  <filename>  (1) 
C=CCOc1nnc(C2(c3cccnc3)CC2)o1

$$$$
