
     RDKit          3D

 24 25  0  0  0  0  0  0  0  0999 V2000
    8.3434   -0.7430   26.7409 H   0  0  0  0  0  0  0  0  0  0  0  0
    8.3881   -1.1841   25.7520 C   0  0  0  0  0  0  0  0  0  0  0  0
    8.7164   -2.2195   25.6720 H   0  0  0  0  0  0  0  0  0  0  0  0
    8.0501   -0.4778   24.6778 C   0  0  0  0  0  0  0  0  0  0  0  0
    7.6959    0.5469   24.7985 H   0  0  0  0  0  0  0  0  0  0  0  0
    8.0835   -0.9636   23.2849 C   0  0  0  0  0  0  0  0  0  0  0  0
    8.7739   -2.1123   22.8891 C   0  0  0  0  0  0  0  0  0  0  0  0
    9.3553   -2.6907   23.5915 H   0  0  0  0  0  0  0  0  0  0  0  0
    8.7415   -2.4871   21.5504 C   0  0  0  0  0  0  0  0  0  0  0  0
    9.2797   -3.3684   21.2313 H   0  0  0  0  0  0  0  0  0  0  0  0
    8.0974   -1.8140   20.5917 N   0  0  0  0  0  0  0  0  0  0  0  0
    7.4050   -0.7283   20.9662 C   0  0  0  0  0  0  0  0  0  0  0  0
    6.6596   -0.0092   19.9072 C   0  0  0  0  0  0  0  0  0  0  0  0
    7.1758    0.0453   18.6053 C   0  0  0  0  0  0  0  0  0  0  0  0
    8.1216   -0.4338   18.3739 H   0  0  0  0  0  0  0  0  0  0  0  0
    6.5737    0.6755   17.5921 N   0  0  0  0  0  0  0  0  0  0  0  0
    5.4077    1.2875   17.8468 C   0  0  0  0  0  0  0  0  0  0  0  0
    4.9209    1.7753   17.0031 H   0  0  0  0  0  0  0  0  0  0  0  0
    4.8081    1.3047   19.1109 C   0  0  0  0  0  0  0  0  0  0  0  0
    3.8767    1.8413   19.2622 H   0  0  0  0  0  0  0  0  0  0  0  0
    5.4457    0.6491   20.1617 C   0  0  0  0  0  0  0  0  0  0  0  0
    4.9953    0.6332   21.1580 H   0  0  0  0  0  0  0  0  0  0  0  0
    7.3940   -0.2718   22.2893 C   0  0  0  0  0  0  0  0  0  0  0  0
    6.8569    0.6387   22.5251 H   0  0  0  0  0  0  0  0  0  0  0  0
  1  2  1  0
  2  3  1  0
  2  4  2  3
  4  5  1  0
  4  6  1  0
  6  7  2  0
  7  8  1  0
  7  9  1  0
  9 10  1  0
  9 11  2  0
 11 12  1  0
 12 13  1  0
 13 14  2  0
 14 15  1  0
 14 16  1  0
 16 17  2  0
 17 18  1  0
 17 19  1  0
 19 20  1  0
 19 21  2  0
 21 22  1  0
 12 23  2  0
 23 24  1  0
 23  6  1  0
 21 13  1  0
M  END
>  <cnnaffinity>  (1) 
-4.33563

>  <filename>  (1) 
C=Cc1ccnc(-c2cccnc2)c1

$$$$
