
     RDKit          3D

 26 28  0  0  0  0  0  0  0  0999 V2000
    7.3779   -2.3313   27.3133 H   0  0  0  0  0  0  0  0  0  0  0  0
    8.0031   -2.4772   26.4392 C   0  0  0  0  0  0  0  0  0  0  0  0
    8.9228   -3.0445   26.5547 H   0  0  0  0  0  0  0  0  0  0  0  0
    7.6518   -1.9753   25.2602 C   0  0  0  0  0  0  0  0  0  0  0  0
    6.7374   -1.4019   25.1100 H   0  0  0  0  0  0  0  0  0  0  0  0
    8.3689   -2.0959   24.0699 N   0  0  0  0  0  0  0  0  0  0  0  0
    9.5862   -2.7295   23.8135 C   0  0  0  0  0  0  0  0  0  0  0  0
   10.1121   -3.2333   24.6105 H   0  0  0  0  0  0  0  0  0  0  0  0
    9.8928   -2.5657   22.5012 C   0  0  0  0  0  0  0  0  0  0  0  0
   10.7326   -2.8685   21.9074 H   0  0  0  0  0  0  0  0  0  0  0  0
    8.8537   -1.8277   21.9436 N   0  0  0  0  0  0  0  0  0  0  0  0
    8.5488   -1.3275   20.7266 N   0  0  0  0  0  0  0  0  0  0  0  0
    7.3824   -0.6978   20.9508 C   0  0  0  0  0  0  0  0  0  0  0  0
    6.6623    0.0115   19.8828 C   0  0  0  0  0  0  0  0  0  0  0  0
    7.1781    0.0607   18.5750 C   0  0  0  0  0  0  0  0  0  0  0  0
    8.1265   -0.4232   18.3516 H   0  0  0  0  0  0  0  0  0  0  0  0
    6.5640    0.6772   17.5600 N   0  0  0  0  0  0  0  0  0  0  0  0
    5.4032    1.2921   17.8298 C   0  0  0  0  0  0  0  0  0  0  0  0
    4.9263    1.7872   16.9910 H   0  0  0  0  0  0  0  0  0  0  0  0
    4.8072    1.3100   19.0956 C   0  0  0  0  0  0  0  0  0  0  0  0
    3.8772    1.8394   19.2529 H   0  0  0  0  0  0  0  0  0  0  0  0
    5.4402    0.6550   20.1436 C   0  0  0  0  0  0  0  0  0  0  0  0
    4.9992    0.6458   21.1454 H   0  0  0  0  0  0  0  0  0  0  0  0
    6.9425   -0.7950   22.2936 C   0  0  0  0  0  0  0  0  0  0  0  0
    6.0652   -0.3774   22.7514 H   0  0  0  0  0  0  0  0  0  0  0  0
    7.9321   -1.5387   22.8902 C   0  0  0  0  0  0  0  0  0  0  0  0
  1  2  1  0
  2  3  1  0
  2  4  2  3
  4  5  1  0
  4  6  1  0
  6  7  1  0
  7  8  1  0
  7  9  2  0
  9 10  1  0
  9 11  1  0
 11 12  1  0
 12 13  2  0
 13 14  1  0
 14 15  2  0
 15 16  1  0
 15 17  1  0
 17 18  2  0
 18 19  1  0
 18 20  1  0
 20 21  1  0
 20 22  2  0
 22 23  1  0
 13 24  1  0
 24 25  1  0
 24 26  2  0
 26  6  1  0
 26 11  1  0
 22 14  1  0
M  END
>  <cnnaffinity>  (1) 
-4.83961

>  <filename>  (1) 
C=Cn1ccn2nc(-c3cccnc3)cc12

$$$$
