
     RDKit          3D

 28 29  0  0  0  0  0  0  0  0999 V2000
    6.6261   -1.1899   26.5093 H   0  0  0  0  0  0  0  0  0  0  0  0
    7.3306   -1.6564   26.0239 O   0  0  0  0  0  0  0  0  0  0  0  0
    6.6067   -1.9906   24.9473 C   0  0  0  0  0  0  0  0  0  0  0  0
    5.4496   -1.6536   24.9187 O   0  0  0  0  0  0  0  0  0  0  0  0
    7.3793   -2.7886   23.9156 C   0  0  2  0  0  0  0  0  0  0  0  0
    8.3286   -3.0456   24.3872 H   0  0  0  0  0  0  0  0  0  0  0  0
    7.7091   -1.8967   22.7536 C   0  0  0  0  0  0  0  0  0  0  0  0
    8.9223   -1.4732   22.3271 C   0  0  0  0  0  0  0  0  0  0  0  0
    9.8845   -1.6832   22.7538 H   0  0  0  0  0  0  0  0  0  0  0  0
    8.7561   -0.6595   21.1456 C   0  0  0  0  0  0  0  0  0  0  0  0
    9.5734   -0.0602   20.4647 O   0  0  0  0  0  0  0  0  0  0  0  0
    7.3509   -0.6892   20.9155 N   0  0  0  0  0  0  0  0  0  0  0  0
    6.6308   -0.0088   19.8995 C   0  0  0  0  0  0  0  0  0  0  0  0
    7.1557    0.0511   18.5916 C   0  0  0  0  0  0  0  0  0  0  0  0
    8.1152   -0.4161   18.3848 H   0  0  0  0  0  0  0  0  0  0  0  0
    6.5488    0.6718   17.5752 N   0  0  0  0  0  0  0  0  0  0  0  0
    5.3886    1.2976   17.8328 C   0  0  0  0  0  0  0  0  0  0  0  0
    4.9189    1.7929   16.9852 H   0  0  0  0  0  0  0  0  0  0  0  0
    4.7971    1.3167   19.1021 C   0  0  0  0  0  0  0  0  0  0  0  0
    3.8677    1.8511   19.2516 H   0  0  0  0  0  0  0  0  0  0  0  0
    5.4215    0.6507   20.1587 C   0  0  0  0  0  0  0  0  0  0  0  0
    5.0136    0.6457   21.1689 H   0  0  0  0  0  0  0  0  0  0  0  0
    6.7516   -1.4165   21.9337 N   0  0  0  0  0  0  0  0  0  0  0  0
    5.7514   -1.5544   21.9844 H   0  0  0  0  0  0  0  0  0  0  0  0
    6.6420   -4.0788   23.4905 C   0  0  0  0  0  0  0  0  0  0  0  0
    7.2417   -4.6204   22.7537 H   0  0  0  0  0  0  0  0  0  0  0  0
    5.6781   -3.8349   23.0326 H   0  0  0  0  0  0  0  0  0  0  0  0
    6.4620   -4.7406   24.3445 H   0  0  0  0  0  0  0  0  0  0  0  0
  1  2  1  0
  2  3  1  0
  3  4  2  0
  3  5  1  0
  5  6  1  1
  5  7  1  0
  7  8  2  0
  8  9  1  0
  8 10  1  0
 10 11  2  0
 10 12  1  0
 12 13  1  0
 13 14  2  0
 14 15  1  0
 14 16  1  0
 16 17  2  0
 17 18  1  0
 17 19  1  0
 19 20  1  0
 19 21  2  0
 21 22  1  0
 12 23  1  0
 23 24  1  0
  5 25  1  0
 25 26  1  0
 25 27  1  0
 25 28  1  0
 23  7  1  0
 21 13  1  0
M  END
>  <cnnaffinity>  (1) 
-4.69555

>  <filename>  (1) 
C[C@H](C(=O)O)c1cc(=O)n(-c2cccnc2)[nH]1

$$$$
