
     RDKit          3D

 35 37  0  0  0  0  0  0  0  0999 V2000
    4.9126    1.8250   16.9606 H   0  0  0  0  0  0  0  0  0  0  0  0
    5.3788    1.3155   17.8035 C   0  0  0  0  0  0  0  0  0  0  0  0
    6.5365    0.6913   17.5437 N   0  0  0  0  0  0  0  0  0  0  0  0
    7.1490    0.0711   18.5587 C   0  0  0  0  0  0  0  0  0  0  0  0
    8.0923   -0.4173   18.3155 H   0  0  0  0  0  0  0  0  0  0  0  0
    6.6526    0.0137   19.8766 C   0  0  0  0  0  0  0  0  0  0  0  0
    7.3752   -0.7109   20.9614 C   0  0  0  0  0  0  0  0  0  0  0  0
    8.7742   -0.6153   21.1636 C   0  0  0  0  0  0  0  0  0  0  0  0
    9.3988    0.0174   20.5428 H   0  0  0  0  0  0  0  0  0  0  0  0
    9.4148   -1.2654   22.1331 N   0  0  0  0  0  0  0  0  0  0  0  0
    8.7336   -2.0609   22.9762 N   0  0  0  0  0  0  0  0  0  0  0  0
    7.4034   -2.1784   22.8735 C   0  0  0  0  0  0  0  0  0  0  0  0
    6.6658   -3.0995   23.8388 C   0  0  1  0  0  0  0  0  0  0  0  0
    5.6622   -2.6633   23.9537 H   0  0  0  0  0  0  0  0  0  0  0  0
    6.4917   -4.4678   23.1804 C   0  0  0  0  0  0  0  0  0  0  0  0
    5.2200   -5.0122   22.9530 C   0  0  0  0  0  0  0  0  0  0  0  0
    4.3401   -4.4455   23.2592 H   0  0  0  0  0  0  0  0  0  0  0  0
    5.0861   -6.2898   22.3932 C   0  0  0  0  0  0  0  0  0  0  0  0
    4.0959   -6.7136   22.2305 H   0  0  0  0  0  0  0  0  0  0  0  0
    6.2297   -7.0414   22.0964 C   0  0  0  0  0  0  0  0  0  0  0  0
    6.1319   -8.0471   21.7013 H   0  0  0  0  0  0  0  0  0  0  0  0
    7.5020   -6.5129   22.3438 C   0  0  0  0  0  0  0  0  0  0  0  0
    8.4008   -7.1073   22.2177 H   0  0  0  0  0  0  0  0  0  0  0  0
    7.6266   -5.2185   22.8407 C   0  0  0  0  0  0  0  0  0  0  0  0
    8.6159   -4.7863   22.9877 H   0  0  0  0  0  0  0  0  0  0  0  0
    7.3274   -3.1952   25.2324 C   0  0  0  0  0  0  0  0  0  0  0  0
    8.3409   -3.6102   25.1626 H   0  0  0  0  0  0  0  0  0  0  0  0
    7.4092   -2.2074   25.7006 H   0  0  0  0  0  0  0  0  0  0  0  0
    6.7386   -3.8426   25.8896 H   0  0  0  0  0  0  0  0  0  0  0  0
    6.6949   -1.5266   21.8526 C   0  0  0  0  0  0  0  0  0  0  0  0
    5.6274   -1.6779   21.7548 H   0  0  0  0  0  0  0  0  0  0  0  0
    5.4316    0.6653   20.1192 C   0  0  0  0  0  0  0  0  0  0  0  0
    5.0125    0.6593   21.1245 H   0  0  0  0  0  0  0  0  0  0  0  0
    4.7875    1.3308   19.0717 C   0  0  0  0  0  0  0  0  0  0  0  0
    3.8528    1.8629   19.2209 H   0  0  0  0  0  0  0  0  0  0  0  0
  1  2  1  0
  2  3  2  0
  3  4  1  0
  4  5  1  0
  4  6  2  0
  6  7  1  0
  7  8  2  0
  8  9  1  0
  8 10  1  0
 10 11  2  0
 11 12  1  0
 12 13  1  0
 13 14  1  1
 13 15  1  0
 15 16  2  0
 16 17  1  0
 16 18  1  0
 18 19  1  0
 18 20  2  0
 20 21  1  0
 20 22  1  0
 22 23  1  0
 22 24  2  0
 24 25  1  0
 13 26  1  0
 26 27  1  0
 26 28  1  0
 26 29  1  0
 12 30  2  0
 30 31  1  0
  6 32  1  0
 32 33  1  0
 32 34  2  0
 34 35  1  0
 34  2  1  0
 30  7  1  0
 24 15  1  0
M  END
>  <cnnaffinity>  (1) 
-5.42492

>  <filename>  (1) 
C[C@H](c1ccccc1)c1cc(-c2cccnc2)cnn1

$$$$
