
     RDKit          3D

 32 34  0  0  0  0  0  0  0  0999 V2000
    4.9514    1.7952   16.9457 H   0  0  0  0  0  0  0  0  0  0  0  0
    5.4260    1.3010   17.7910 C   0  0  0  0  0  0  0  0  0  0  0  0
    6.5966    0.6952   17.5422 N   0  0  0  0  0  0  0  0  0  0  0  0
    7.2157    0.0981   18.5622 C   0  0  0  0  0  0  0  0  0  0  0  0
    8.1627   -0.3893   18.3371 H   0  0  0  0  0  0  0  0  0  0  0  0
    6.6913    0.0473   19.8603 C   0  0  0  0  0  0  0  0  0  0  0  0
    7.4976   -0.6623   20.8941 C   0  0  0  0  0  0  0  0  0  0  0  0
    8.7048   -0.7544   20.7972 O   0  0  0  0  0  0  0  0  0  0  0  0
    6.7274   -1.2570   22.0921 C   0  0  1  0  0  0  0  0  0  0  0  0
    5.6795   -1.2668   21.7816 H   0  0  0  0  0  0  0  0  0  0  0  0
    7.0834   -2.6952   22.2803 C   0  0  0  0  0  0  0  0  0  0  0  0
    8.1107   -2.9892   23.1232 O   0  0  0  0  0  0  0  0  0  0  0  0
    8.2224   -4.3437   23.1363 C   0  0  0  0  0  0  0  0  0  0  0  0
    9.0772   -5.0787   23.9517 C   0  0  0  0  0  0  0  0  0  0  0  0
    9.7245   -4.5682   24.6560 H   0  0  0  0  0  0  0  0  0  0  0  0
    9.0548   -6.4619   23.7904 C   0  0  0  0  0  0  0  0  0  0  0  0
    9.7203   -7.0684   24.4094 H   0  0  0  0  0  0  0  0  0  0  0  0
    8.2114   -7.0682   22.8279 C   0  0  0  0  0  0  0  0  0  0  0  0
    8.2470   -8.1378   22.6470 H   0  0  0  0  0  0  0  0  0  0  0  0
    7.3039   -6.3197   22.0866 C   0  0  0  0  0  0  0  0  0  0  0  0
    6.6132   -6.7968   21.3983 H   0  0  0  0  0  0  0  0  0  0  0  0
    7.3016   -4.9221   22.2507 C   0  0  0  0  0  0  0  0  0  0  0  0
    6.5450   -3.8092   21.7306 C   0  0  0  0  0  0  0  0  0  0  0  0
    5.6692   -3.8643   21.0962 H   0  0  0  0  0  0  0  0  0  0  0  0
    6.8640   -0.4295   23.3841 C   0  0  0  0  0  0  0  0  0  0  0  0
    6.4319    0.5670   23.2567 H   0  0  0  0  0  0  0  0  0  0  0  0
    6.3240   -0.9259   24.1982 H   0  0  0  0  0  0  0  0  0  0  0  0
    7.9094   -0.3146   23.6874 H   0  0  0  0  0  0  0  0  0  0  0  0
    5.4612    0.6802   20.1088 C   0  0  0  0  0  0  0  0  0  0  0  0
    5.0102    0.6825   21.1045 H   0  0  0  0  0  0  0  0  0  0  0  0
    4.8234    1.3215   19.0526 C   0  0  0  0  0  0  0  0  0  0  0  0
    3.8742    1.8254   19.1883 H   0  0  0  0  0  0  0  0  0  0  0  0
  1  2  1  0
  2  3  2  0
  3  4  1  0
  4  5  1  0
  4  6  2  0
  6  7  1  0
  7  8  2  0
  7  9  1  0
  9 10  1  6
  9 11  1  0
 11 12  1  0
 12 13  1  0
 13 14  2  0
 14 15  1  0
 14 16  1  0
 16 17  1  0
 16 18  2  0
 18 19  1  0
 18 20  1  0
 20 21  1  0
 20 22  2  0
 22 23  1  0
 23 24  1  0
  9 25  1  0
 25 26  1  0
 25 27  1  0
 25 28  1  0
  6 29  1  0
 29 30  1  0
 29 31  2  0
 31 32  1  0
 31  2  1  0
 23 11  2  0
 22 13  1  0
M  END
>  <cnnaffinity>  (1) 
-4.64813

>  <filename>  (1) 
C[C@@H](C(=O)c1cccnc1)c1cc2ccccc2o1

$$$$
