
     RDKit          3D

 36 38  0  0  0  0  0  0  0  0999 V2000
    4.9086    1.7787   16.9979 H   0  0  0  0  0  0  0  0  0  0  0  0
    5.3998    1.2952   17.8371 C   0  0  0  0  0  0  0  0  0  0  0  0
    6.5631    0.6813   17.5657 N   0  0  0  0  0  0  0  0  0  0  0  0
    7.1731    0.0719   18.5889 C   0  0  0  0  0  0  0  0  0  0  0  0
    8.1149   -0.4292   18.3713 H   0  0  0  0  0  0  0  0  0  0  0  0
    6.6611    0.0134   19.8981 C   0  0  0  0  0  0  0  0  0  0  0  0
    7.3762   -0.7121   20.9791 C   0  0  0  0  0  0  0  0  0  0  0  0
    8.7674   -0.5950   21.1583 C   0  0  0  0  0  0  0  0  0  0  0  0
    9.3292    0.0574   20.4918 H   0  0  0  0  0  0  0  0  0  0  0  0
    9.4508   -1.2278   22.1142 N   0  0  0  0  0  0  0  0  0  0  0  0
    8.7459   -2.0110   22.9467 C   0  0  0  0  0  0  0  0  0  0  0  0
    9.3276   -2.5214   23.7058 H   0  0  0  0  0  0  0  0  0  0  0  0
    7.3554   -2.1944   22.8891 C   0  0  0  0  0  0  0  0  0  0  0  0
    6.5806   -3.1290   23.8082 C   0  0  1  0  0  0  0  0  0  0  0  0
    5.5526   -2.7407   23.8539 H   0  0  0  0  0  0  0  0  0  0  0  0
    6.5150   -4.5344   23.2122 C   0  0  0  0  0  0  0  0  0  0  0  0
    7.6819   -5.3012   23.0496 C   0  0  0  0  0  0  0  0  0  0  0  0
    8.6509   -4.9025   23.3492 H   0  0  0  0  0  0  0  0  0  0  0  0
    7.6213   -6.5825   22.4987 C   0  0  0  0  0  0  0  0  0  0  0  0
    8.5310   -7.1661   22.3936 H   0  0  0  0  0  0  0  0  0  0  0  0
    6.3906   -7.1162   22.1045 C   0  0  0  0  0  0  0  0  0  0  0  0
    6.3380   -8.1198   21.6960 H   0  0  0  0  0  0  0  0  0  0  0  0
    5.2235   -6.3625   22.2517 C   0  0  0  0  0  0  0  0  0  0  0  0
    4.2642   -6.7717   21.9450 H   0  0  0  0  0  0  0  0  0  0  0  0
    5.2889   -5.0786   22.8022 C   0  0  0  0  0  0  0  0  0  0  0  0
    4.3774   -4.4951   22.9208 H   0  0  0  0  0  0  0  0  0  0  0  0
    7.0934   -3.1385   25.2513 C   0  0  0  0  0  0  0  0  0  0  0  0
    6.4018   -3.6968   25.8903 H   0  0  0  0  0  0  0  0  0  0  0  0
    8.0729   -3.6190   25.3331 H   0  0  0  0  0  0  0  0  0  0  0  0
    7.1749   -2.1184   25.6383 H   0  0  0  0  0  0  0  0  0  0  0  0
    6.6776   -1.5345   21.8645 C   0  0  0  0  0  0  0  0  0  0  0  0
    5.6025   -1.6652   21.7256 H   0  0  0  0  0  0  0  0  0  0  0  0
    5.4383    0.6492   20.1513 C   0  0  0  0  0  0  0  0  0  0  0  0
    5.0140    0.6304   21.1599 H   0  0  0  0  0  0  0  0  0  0  0  0
    4.8028    1.3171   19.1045 C   0  0  0  0  0  0  0  0  0  0  0  0
    3.8685    1.8472   19.2621 H   0  0  0  0  0  0  0  0  0  0  0  0
  1  2  1  0
  2  3  2  0
  3  4  1  0
  4  5  1  0
  4  6  2  0
  6  7  1  0
  7  8  2  0
  8  9  1  0
  8 10  1  0
 10 11  2  0
 11 12  1  0
 11 13  1  0
 13 14  1  0
 14 15  1  1
 14 16  1  0
 16 17  2  0
 17 18  1  0
 17 19  1  0
 19 20  1  0
 19 21  2  0
 21 22  1  0
 21 23  1  0
 23 24  1  0
 23 25  2  0
 25 26  1  0
 14 27  1  0
 27 28  1  0
 27 29  1  0
 27 30  1  0
 13 31  2  0
 31 32  1  0
  6 33  1  0
 33 34  1  0
 33 35  2  0
 35 36  1  0
 35  2  1  0
 31  7  1  0
 25 16  1  0
M  END
>  <cnnaffinity>  (1) 
-5.43443

>  <filename>  (1) 
C[C@H](c1ccccc1)c1cncc(-c2cccnc2)c1

$$$$
