
     RDKit          3D

 34 35  0  0  0  0  0  0  0  0999 V2000
    4.9182    1.7964   17.0026 H   0  0  0  0  0  0  0  0  0  0  0  0
    5.3927    1.2921   17.8422 C   0  0  0  0  0  0  0  0  0  0  0  0
    6.5528    0.6703   17.5683 N   0  0  0  0  0  0  0  0  0  0  0  0
    7.1724    0.0558   18.5808 C   0  0  0  0  0  0  0  0  0  0  0  0
    8.1245   -0.4173   18.3523 H   0  0  0  0  0  0  0  0  0  0  0  0
    6.6730   -0.0122   19.9096 C   0  0  0  0  0  0  0  0  0  0  0  0
    7.3753   -0.6959   20.9447 N   0  0  0  0  0  0  0  0  0  0  0  0
    6.8402   -1.1211   21.6902 H   0  0  0  0  0  0  0  0  0  0  0  0
    8.7443   -0.6623   21.1150 C   0  0  0  0  0  0  0  0  0  0  0  0
    9.4470    0.0891   20.4648 O   0  0  0  0  0  0  0  0  0  0  0  0
    9.3086   -1.6342   22.1761 C   0  0  2  0  0  0  0  0  0  0  0  0
    8.7319   -2.5602   22.0959 H   0  0  0  0  0  0  0  0  0  0  0  0
    9.1373   -1.0353   23.5686 C   0  0  0  0  0  0  0  0  0  0  0  0
    9.6286    0.2585   23.7952 C   0  0  0  0  0  0  0  0  0  0  0  0
   10.0875    0.7828   22.9567 H   0  0  0  0  0  0  0  0  0  0  0  0
    9.5272    0.8659   25.0499 C   0  0  0  0  0  0  0  0  0  0  0  0
    9.9046    1.8750   25.1957 H   0  0  0  0  0  0  0  0  0  0  0  0
    8.9307    0.1714   26.1085 C   0  0  0  0  0  0  0  0  0  0  0  0
    8.8341    0.6371   27.0870 H   0  0  0  0  0  0  0  0  0  0  0  0
    8.4584   -1.1280   25.9055 C   0  0  0  0  0  0  0  0  0  0  0  0
    7.9994   -1.6751   26.7264 H   0  0  0  0  0  0  0  0  0  0  0  0
    8.5726   -1.7467   24.6502 C   0  0  0  0  0  0  0  0  0  0  0  0
    8.0775   -3.1671   24.4610 C   0  0  0  0  0  0  0  0  0  0  0  0
    7.0610   -3.2185   23.5647 F   0  0  0  0  0  0  0  0  0  0  0  0
    9.0376   -3.9962   23.9913 F   0  0  0  0  0  0  0  0  0  0  0  0
    7.6237   -3.7179   25.5996 F   0  0  0  0  0  0  0  0  0  0  0  0
   10.7954   -1.9457   21.9006 C   0  0  0  0  0  0  0  0  0  0  0  0
   11.1899   -2.6768   22.6164 H   0  0  0  0  0  0  0  0  0  0  0  0
   11.4151   -1.0420   21.9487 H   0  0  0  0  0  0  0  0  0  0  0  0
   10.9132   -2.3369   20.8920 H   0  0  0  0  0  0  0  0  0  0  0  0
    5.4533    0.6235   20.1673 C   0  0  0  0  0  0  0  0  0  0  0  0
    5.0295    0.6157   21.1732 H   0  0  0  0  0  0  0  0  0  0  0  0
    4.8164    1.2951   19.1160 C   0  0  0  0  0  0  0  0  0  0  0  0
    3.8876    1.8290   19.2707 H   0  0  0  0  0  0  0  0  0  0  0  0
  1  2  1  0
  2  3  2  0
  3  4  1  0
  4  5  1  0
  4  6  2  0
  6  7  1  0
  7  8  1  0
  7  9  1  0
  9 10  2  0
  9 11  1  0
 11 12  1  1
 11 13  1  0
 13 14  2  0
 14 15  1  0
 14 16  1  0
 16 17  1  0
 16 18  2  0
 18 19  1  0
 18 20  1  0
 20 21  1  0
 20 22  2  0
 22 23  1  0
 23 24  1  0
 23 25  1  0
 23 26  1  0
 11 27  1  0
 27 28  1  0
 27 29  1  0
 27 30  1  0
  6 31  1  0
 31 32  1  0
 31 33  2  0
 33 34  1  0
 33  2  1  0
 22 13  1  0
M  END
>  <cnnaffinity>  (1) 
-5.35531

>  <filename>  (1) 
C[C@H](C(=O)Nc1cccnc1)c1ccccc1C(F)(F)F

$$$$
