
     RDKit          3D

 37 39  0  0  0  0  0  0  0  0999 V2000
    5.1975    1.9276   17.0055 H   0  0  0  0  0  0  0  0  0  0  0  0
    5.5117    1.3377   17.8626 C   0  0  0  0  0  0  0  0  0  0  0  0
    6.6176    0.6001   17.6989 N   0  0  0  0  0  0  0  0  0  0  0  0
    7.0274   -0.1217   18.7507 C   0  0  0  0  0  0  0  0  0  0  0  0
    7.9604   -0.6684   18.6159 H   0  0  0  0  0  0  0  0  0  0  0  0
    6.3746   -0.1662   20.0010 C   0  0  0  0  0  0  0  0  0  0  0  0
    6.9486   -0.9725   21.1001 C   0  0  0  0  0  0  0  0  0  0  0  0
    7.2918   -2.3000   21.1700 C   0  0  0  0  0  0  0  0  0  0  0  0
    7.0558   -3.0652   20.4451 H   0  0  0  0  0  0  0  0  0  0  0  0
    7.9761   -2.5841   22.3178 N   0  0  0  0  0  0  0  0  0  0  0  0
    8.0499   -1.4378   22.9497 C   0  0  0  0  0  0  0  0  0  0  0  0
    8.5691   -1.2494   23.8815 H   0  0  0  0  0  0  0  0  0  0  0  0
    7.4151   -0.4267   22.2851 N   0  0  0  0  0  0  0  0  0  0  0  0
    7.4168    0.9573   22.7319 C   0  0  0  0  0  0  0  0  0  0  0  0
    6.5406    1.4621   22.3142 H   0  0  0  0  0  0  0  0  0  0  0  0
    7.3061    0.9595   23.8193 H   0  0  0  0  0  0  0  0  0  0  0  0
    8.6580    1.7884   22.3419 C   0  0  1  0  0  0  0  0  0  0  0  0
    8.4689    2.7912   22.7473 H   0  0  0  0  0  0  0  0  0  0  0  0
    9.9766    1.3193   22.9517 C   0  0  0  0  0  0  0  0  0  0  0  0
   10.5016    1.9977   24.0660 C   0  0  0  0  0  0  0  0  0  0  0  0
    9.9139    2.7757   24.5466 H   0  0  0  0  0  0  0  0  0  0  0  0
   11.7656    1.6888   24.5713 C   0  0  0  0  0  0  0  0  0  0  0  0
   12.1585    2.2677   25.3957 H   0  0  0  0  0  0  0  0  0  0  0  0
   12.5309    0.6777   23.9913 C   0  0  0  0  0  0  0  0  0  0  0  0
   13.5245    0.4549   24.3757 H   0  0  0  0  0  0  0  0  0  0  0  0
   12.0040   -0.0423   22.9114 C   0  0  0  0  0  0  0  0  0  0  0  0
   12.5785   -0.8438   22.4564 H   0  0  0  0  0  0  0  0  0  0  0  0
   10.7352    0.2701   22.4058 C   0  0  0  0  0  0  0  0  0  0  0  0
   10.3179   -0.3223   21.5929 H   0  0  0  0  0  0  0  0  0  0  0  0
    8.7442    1.9607   20.8281 C   0  0  0  0  0  0  0  0  0  0  0  0
    7.7612    2.1906   20.4048 H   0  0  0  0  0  0  0  0  0  0  0  0
    9.1093    1.0612   20.3236 H   0  0  0  0  0  0  0  0  0  0  0  0
    9.4357    2.7727   20.6021 H   0  0  0  0  0  0  0  0  0  0  0  0
    5.2122    0.6063   20.1336 C   0  0  0  0  0  0  0  0  0  0  0  0
    4.6774    0.5913   21.0814 H   0  0  0  0  0  0  0  0  0  0  0  0
    4.7753    1.3732   19.0487 C   0  0  0  0  0  0  0  0  0  0  0  0
    3.9050    2.0135   19.1218 H   0  0  0  0  0  0  0  0  0  0  0  0
  1  2  1  0
  2  3  2  0
  3  4  1  0
  4  5  1  0
  4  6  2  0
  6  7  1  0
  7  8  2  0
  8  9  1  0
  8 10  1  0
 10 11  2  0
 11 12  1  0
 11 13  1  0
 13 14  1  0
 14 15  1  0
 14 16  1  0
 14 17  1  0
 17 18  1  1
 17 19  1  0
 19 20  2  0
 20 21  1  0
 20 22  1  0
 22 23  1  0
 22 24  2  0
 24 25  1  0
 24 26  1  0
 26 27  1  0
 26 28  2  0
 28 29  1  0
 17 30  1  0
 30 31  1  0
 30 32  1  0
 30 33  1  0
  6 34  1  0
 34 35  1  0
 34 36  2  0
 36 37  1  0
 36  2  1  0
 13  7  1  0
 28 19  1  0
M  END
>  <cnnaffinity>  (1) 
-5.21579

>  <filename>  (1) 
C[C@@H](Cn1cncc1-c1cccnc1)c1ccccc1

$$$$
