
     RDKit          3D

 36 39  0  0  0  0  0  0  0  0999 V2000
    4.9918    1.7865   16.9863 H   0  0  0  0  0  0  0  0  0  0  0  0
    5.4387    1.2777   17.8380 C   0  0  0  0  0  0  0  0  0  0  0  0
    6.5987    0.6408   17.6161 N   0  0  0  0  0  0  0  0  0  0  0  0
    7.1748    0.0284   18.6561 C   0  0  0  0  0  0  0  0  0  0  0  0
    8.1212   -0.4756   18.4624 H   0  0  0  0  0  0  0  0  0  0  0  0
    6.6265    0.0138   19.9476 C   0  0  0  0  0  0  0  0  0  0  0  0
    7.3662   -0.6949   20.9945 C   0  0  0  0  0  0  0  0  0  0  0  0
    8.5567   -1.3216   20.7533 N   0  0  0  0  0  0  0  0  0  0  0  0
    8.8494   -1.8122   21.9414 C   0  0  0  0  0  0  0  0  0  0  0  0
   10.1291   -2.7074   22.7173 S   0  0  0  0  0  0  0  0  0  0  0  0
    9.2548   -2.6332   24.2287 C   0  0  0  0  0  0  0  0  0  0  0  0
    9.6897   -3.0799   25.1151 H   0  0  0  0  0  0  0  0  0  0  0  0
    8.0787   -1.9773   24.1381 C   0  0  0  0  0  0  0  0  0  0  0  0
    7.1525   -1.6436   25.2791 C   0  0  1  0  0  0  0  0  0  0  0  0
    7.3131   -2.4604   25.9911 H   0  0  0  0  0  0  0  0  0  0  0  0
    7.5565   -0.3411   25.9642 C   0  0  0  0  0  0  0  0  0  0  0  0
    7.8906   -0.3304   27.3205 C   0  0  0  0  0  0  0  0  0  0  0  0
    7.9459   -1.2717   27.8597 H   0  0  0  0  0  0  0  0  0  0  0  0
    8.1332    0.8757   27.9807 C   0  0  0  0  0  0  0  0  0  0  0  0
    8.4033    0.8696   29.0342 H   0  0  0  0  0  0  0  0  0  0  0  0
    8.0699    2.0803   27.2729 C   0  0  0  0  0  0  0  0  0  0  0  0
    8.2500    3.0175   27.7872 H   0  0  0  0  0  0  0  0  0  0  0  0
    7.7843    2.0742   25.9035 C   0  0  0  0  0  0  0  0  0  0  0  0
    7.7805    2.9975   25.3324 H   0  0  0  0  0  0  0  0  0  0  0  0
    7.5011    0.8690   25.2586 C   0  0  0  0  0  0  0  0  0  0  0  0
    7.2054    0.8660   24.2102 H   0  0  0  0  0  0  0  0  0  0  0  0
    5.6506   -1.5644   24.9604 C   0  0  0  0  0  0  0  0  0  0  0  0
    5.3139   -2.3717   24.3041 H   0  0  0  0  0  0  0  0  0  0  0  0
    5.0888   -1.5950   25.8993 H   0  0  0  0  0  0  0  0  0  0  0  0
    5.4086   -0.6039   24.4946 H   0  0  0  0  0  0  0  0  0  0  0  0
    7.8866   -1.5201   22.8368 N   0  0  0  0  0  0  0  0  0  0  0  0
    6.9207   -0.7745   22.2432 N   0  0  0  0  0  0  0  0  0  0  0  0
    5.4044    0.6748   20.1655 C   0  0  0  0  0  0  0  0  0  0  0  0
    4.9453    0.6986   21.1554 H   0  0  0  0  0  0  0  0  0  0  0  0
    4.8031    1.3130   19.0836 C   0  0  0  0  0  0  0  0  0  0  0  0
    3.8660    1.8477   19.1948 H   0  0  0  0  0  0  0  0  0  0  0  0
  1  2  1  0
  2  3  2  0
  3  4  1  0
  4  5  1  0
  4  6  2  0
  6  7  1  0
  7  8  1  0
  8  9  2  0
  9 10  1  0
 10 11  1  0
 11 12  1  0
 11 13  2  0
 13 14  1  0
 14 15  1  1
 14 16  1  0
 16 17  2  0
 17 18  1  0
 17 19  1  0
 19 20  1  0
 19 21  2  0
 21 22  1  0
 21 23  1  0
 23 24  1  0
 23 25  2  0
 25 26  1  0
 14 27  1  0
 27 28  1  0
 27 29  1  0
 27 30  1  0
 13 31  1  0
 31 32  1  0
  6 33  1  0
 33 34  1  0
 33 35  2  0
 35 36  1  0
 35  2  1  0
 32  7  2  0
 31  9  1  0
 25 16  1  0
M  END
>  <cnnaffinity>  (1) 
-5.627

>  <filename>  (1) 
C[C@H](c1ccccc1)c1csc2nc(-c3cccnc3)nn12

$$$$
