
     RDKit          3D

 41 43  0  0  0  0  0  0  0  0999 V2000
    4.9405    1.7735   17.0072 H   0  0  0  0  0  0  0  0  0  0  0  0
    5.4113    1.2769   17.8532 C   0  0  0  0  0  0  0  0  0  0  0  0
    6.5688    0.6550   17.5995 N   0  0  0  0  0  0  0  0  0  0  0  0
    7.1904    0.0571   18.6184 C   0  0  0  0  0  0  0  0  0  0  0  0
    8.1378   -0.4204   18.3757 H   0  0  0  0  0  0  0  0  0  0  0  0
    6.6793    0.0147   19.9214 C   0  0  0  0  0  0  0  0  0  0  0  0
    7.4533   -0.6990   20.9552 C   0  0  0  0  0  0  0  0  0  0  0  0
    8.7596   -0.6605   20.8799 N   0  0  0  0  0  0  0  0  0  0  0  0
    9.4766   -1.2822   21.8676 C   0  0  0  0  0  0  0  0  0  0  0  0
   10.6855   -1.3228   21.9653 O   0  0  0  0  0  0  0  0  0  0  0  0
    8.7726   -1.9595   22.8639 N   0  0  0  0  0  0  0  0  0  0  0  0
    9.4218   -2.3357   23.5275 H   0  0  0  0  0  0  0  0  0  0  0  0
    7.4287   -2.0488   22.9453 C   0  0  0  0  0  0  0  0  0  0  0  0
    6.7914   -2.7287   24.1122 C   0  0  0  0  0  0  0  0  0  0  0  0
    5.9178   -3.2800   23.7482 H   0  0  0  0  0  0  0  0  0  0  0  0
    7.4714   -3.4589   24.5682 H   0  0  0  0  0  0  0  0  0  0  0  0
    6.3073   -1.7167   25.1594 C   0  0  0  0  0  0  0  0  0  0  0  0
    5.6029   -1.0300   24.6705 H   0  0  0  0  0  0  0  0  0  0  0  0
    5.7264   -2.2458   25.9463 H   0  0  0  0  0  0  0  0  0  0  0  0
    7.3914   -0.9316   25.7362 N   0  0  0  0  0  0  0  0  0  0  0  0
    8.2228   -1.6840   26.6756 C   0  0  0  0  0  0  0  0  0  0  0  0
    7.6118   -2.3752   27.2896 H   0  0  0  0  0  0  0  0  0  0  0  0
    8.9595   -2.3056   26.1494 H   0  0  0  0  0  0  0  0  0  0  0  0
    8.8912   -0.6169   27.5419 C   0  0  0  0  0  0  0  0  0  0  0  0
    9.8246   -0.2740   27.0816 H   0  0  0  0  0  0  0  0  0  0  0  0
    9.1684   -1.0033   28.5246 H   0  0  0  0  0  0  0  0  0  0  0  0
    7.8512    0.5135   27.6062 C   0  0  0  0  0  0  0  0  0  0  0  0
    8.3229    1.5022   27.6168 H   0  0  0  0  0  0  0  0  0  0  0  0
    7.2376    0.4623   28.5125 H   0  0  0  0  0  0  0  0  0  0  0  0
    6.9563    0.3290   26.3593 C   0  0  1  0  0  0  0  0  0  0  0  0
    5.9015    0.2623   26.6856 H   0  0  0  0  0  0  0  0  0  0  0  0
    7.0626    1.4881   25.3707 C   0  0  0  0  0  0  0  0  0  0  0  0
    8.0985    1.5968   25.0307 H   0  0  0  0  0  0  0  0  0  0  0  0
    6.7490    2.4263   25.8454 H   0  0  0  0  0  0  0  0  0  0  0  0
    6.4370    1.3189   24.4865 H   0  0  0  0  0  0  0  0  0  0  0  0
    6.7402   -1.4060   21.9600 C   0  0  0  0  0  0  0  0  0  0  0  0
    5.6687   -1.4485   21.9336 H   0  0  0  0  0  0  0  0  0  0  0  0
    5.4490    0.6468   20.1715 C   0  0  0  0  0  0  0  0  0  0  0  0
    5.0020    0.6492   21.1692 H   0  0  0  0  0  0  0  0  0  0  0  0
    4.8184    1.3011   19.1181 C   0  0  0  0  0  0  0  0  0  0  0  0
    3.8882    1.8311   19.2584 H   0  0  0  0  0  0  0  0  0  0  0  0
  1  2  1  0
  2  3  2  0
  3  4  1  0
  4  5  1  0
  4  6  2  0
  6  7  1  0
  7  8  2  0
  8  9  1  0
  9 10  2  0
  9 11  1  0
 11 12  1  0
 11 13  1  0
 13 14  1  0
 14 15  1  0
 14 16  1  0
 14 17  1  0
 17 18  1  0
 17 19  1  0
 17 20  1  0
 20 21  1  0
 21 22  1  0
 21 23  1  0
 21 24  1  0
 24 25  1  0
 24 26  1  0
 24 27  1  0
 27 28  1  0
 27 29  1  0
 27 30  1  0
 30 31  1  1
 30 32  1  0
 32 33  1  0
 32 34  1  0
 32 35  1  0
 13 36  2  0
 36 37  1  0
  6 38  1  0
 38 39  1  0
 38 40  2  0
 40 41  1  0
 40  2  1  0
 36  7  1  0
 30 20  1  0
M  END
>  <cnnaffinity>  (1) 
-5.25559

>  <filename>  (1) 
C[C@@H]1CCCN1CCc1cc(-c2cccnc2)nc(=O)[nH]1

$$$$
