
     RDKit          3D

 34 35  0  0  0  0  0  0  0  0999 V2000
    5.0211    1.8021   17.0183 H   0  0  0  0  0  0  0  0  0  0  0  0
    5.4377    1.2599   17.8665 C   0  0  0  0  0  0  0  0  0  0  0  0
    6.5885    0.6050   17.6517 N   0  0  0  0  0  0  0  0  0  0  0  0
    7.1161   -0.0477   18.6969 C   0  0  0  0  0  0  0  0  0  0  0  0
    8.0632   -0.5544   18.5019 H   0  0  0  0  0  0  0  0  0  0  0  0
    6.5458   -0.1065   19.9774 C   0  0  0  0  0  0  0  0  0  0  0  0
    7.3211   -0.7736   21.0848 C   0  0  2  0  0  0  0  0  0  0  0  0
    8.0506   -1.4462   20.6215 H   0  0  0  0  0  0  0  0  0  0  0  0
    6.4324   -1.5624   21.9119 O   0  0  0  0  0  0  0  0  0  0  0  0
    7.0165   -2.5607   22.6161 C   0  0  0  0  0  0  0  0  0  0  0  0
    8.1799   -2.8372   22.6287 O   0  0  0  0  0  0  0  0  0  0  0  0
    6.0001   -3.2330   23.2593 N   0  0  0  0  0  0  0  0  0  0  0  0
    5.1294   -2.7453   23.1641 H   0  0  0  0  0  0  0  0  0  0  0  0
    6.2677   -4.0856   24.3227 C   0  0  0  0  0  0  0  0  0  0  0  0
    7.3600   -4.1440   24.8365 O   0  0  0  0  0  0  0  0  0  0  0  0
    5.1250   -4.9545   24.8213 C   0  0  0  0  0  0  0  0  0  0  0  0
    3.9622   -5.2581   24.0858 C   0  0  0  0  0  0  0  0  0  0  0  0
    3.8035   -4.8543   23.0846 H   0  0  0  0  0  0  0  0  0  0  0  0
    3.0021   -6.1212   24.6282 C   0  0  0  0  0  0  0  0  0  0  0  0
    2.1123   -6.3624   24.0536 H   0  0  0  0  0  0  0  0  0  0  0  0
    3.1836   -6.6847   25.8963 C   0  0  0  0  0  0  0  0  0  0  0  0
    2.4407   -7.3597   26.3098 H   0  0  0  0  0  0  0  0  0  0  0  0
    4.3380   -6.3946   26.6299 C   0  0  0  0  0  0  0  0  0  0  0  0
    4.5045   -6.8379   27.6087 H   0  0  0  0  0  0  0  0  0  0  0  0
    5.2979   -5.5400   26.0970 C   0  0  0  0  0  0  0  0  0  0  0  0
    6.2103   -5.3220   26.6507 H   0  0  0  0  0  0  0  0  0  0  0  0
    8.0501    0.2383   21.9498 C   0  0  0  0  0  0  0  0  0  0  0  0
    8.6256   -0.2838   22.7134 H   0  0  0  0  0  0  0  0  0  0  0  0
    7.3329    0.9076   22.4290 H   0  0  0  0  0  0  0  0  0  0  0  0
    8.7247    0.8326   21.3312 H   0  0  0  0  0  0  0  0  0  0  0  0
    5.3506    0.5975   20.1814 C   0  0  0  0  0  0  0  0  0  0  0  0
    4.8822    0.6088   21.1666 H   0  0  0  0  0  0  0  0  0  0  0  0
    4.7871    1.2828   19.1050 C   0  0  0  0  0  0  0  0  0  0  0  0
    3.8729    1.8518   19.2221 H   0  0  0  0  0  0  0  0  0  0  0  0
  1  2  1  0
  2  3  2  0
  3  4  1  0
  4  5  1  0
  4  6  2  0
  6  7  1  0
  7  8  1  6
  7  9  1  0
  9 10  1  0
 10 11  2  0
 10 12  1  0
 12 13  1  0
 12 14  1  0
 14 15  2  0
 14 16  1  0
 16 17  2  0
 17 18  1  0
 17 19  1  0
 19 20  1  0
 19 21  2  0
 21 22  1  0
 21 23  1  0
 23 24  1  0
 23 25  2  0
 25 26  1  0
  7 27  1  0
 27 28  1  0
 27 29  1  0
 27 30  1  0
  6 31  1  0
 31 32  1  0
 31 33  2  0
 33 34  1  0
 33  2  1  0
 25 16  1  0
M  END
>  <cnnaffinity>  (1) 
-4.56337

>  <filename>  (1) 
C[C@@H](OC(=O)NC(=O)c1ccccc1)c1cccnc1

$$$$
