
     RDKit          3D

 39 41  0  0  0  0  0  0  0  0999 V2000
    4.8904    1.7299   16.8465 H   0  0  0  0  0  0  0  0  0  0  0  0
    5.3253    1.2907   17.7420 C   0  0  0  0  0  0  0  0  0  0  0  0
    6.4950    0.6572   17.5694 N   0  0  0  0  0  0  0  0  0  0  0  0
    7.0591    0.1094   18.6524 C   0  0  0  0  0  0  0  0  0  0  0  0
    8.0256   -0.3746   18.5025 H   0  0  0  0  0  0  0  0  0  0  0  0
    6.5039    0.1474   19.9473 C   0  0  0  0  0  0  0  0  0  0  0  0
    7.1952   -0.5272   21.1397 C   0  0  2  0  0  0  0  0  0  0  0  0
    6.7001   -0.1947   22.0509 H   0  0  0  0  0  0  0  0  0  0  0  0
    8.6299   -0.0574   21.2377 C   0  0  0  0  0  0  0  0  0  0  0  0
    9.5795   -0.4423   20.6078 O   0  0  0  0  0  0  0  0  0  0  0  0
    8.6748    0.9137   22.2252 O   0  0  0  0  0  0  0  0  0  0  0  0
    9.8902    1.5643   22.3126 N   0  0  0  0  0  0  0  0  0  0  0  0
    9.5783    2.9665   22.6893 C   0  0  0  0  0  0  0  0  0  0  0  0
    9.0473    3.4298   21.8507 H   0  0  0  0  0  0  0  0  0  0  0  0
    8.8735    2.9738   23.5404 H   0  0  0  0  0  0  0  0  0  0  0  0
   10.8618    3.7069   23.0337 C   0  0  0  0  0  0  0  0  0  0  0  0
   10.9049    5.1086   23.0804 C   0  0  0  0  0  0  0  0  0  0  0  0
    9.9821    5.6746   22.9477 H   0  0  0  0  0  0  0  0  0  0  0  0
   12.1148    5.7755   23.3032 C   0  0  0  0  0  0  0  0  0  0  0  0
   12.1306    6.8543   23.4215 H   0  0  0  0  0  0  0  0  0  0  0  0
   13.3050    5.0450   23.3851 C   0  0  0  0  0  0  0  0  0  0  0  0
   14.2682    5.5409   23.4298 H   0  0  0  0  0  0  0  0  0  0  0  0
   13.2531    3.6529   23.3639 C   0  0  0  0  0  0  0  0  0  0  0  0
   14.1581    3.0614   23.4127 H   0  0  0  0  0  0  0  0  0  0  0  0
   12.0396    2.9736   23.2950 C   0  0  0  0  0  0  0  0  0  0  0  0
   12.0200    1.4549   23.4256 C   0  0  0  0  0  0  0  0  0  0  0  0
   12.5583    1.0209   22.5717 H   0  0  0  0  0  0  0  0  0  0  0  0
   12.5498    1.1257   24.3246 H   0  0  0  0  0  0  0  0  0  0  0  0
   10.5979    0.9155   23.4414 C   0  0  0  0  0  0  0  0  0  0  0  0
   10.0604    1.1292   24.3832 H   0  0  0  0  0  0  0  0  0  0  0  0
   10.5512   -0.1681   23.2943 H   0  0  0  0  0  0  0  0  0  0  0  0
    7.1781   -2.0776   21.1260 C   0  0  0  0  0  0  0  0  0  0  0  0
    7.3402   -2.4617   22.1423 H   0  0  0  0  0  0  0  0  0  0  0  0
    7.9966   -2.4789   20.5214 H   0  0  0  0  0  0  0  0  0  0  0  0
    6.2297   -2.4709   20.7533 H   0  0  0  0  0  0  0  0  0  0  0  0
    5.2896    0.8337   20.1038 C   0  0  0  0  0  0  0  0  0  0  0  0
    4.8395    0.9337   21.0956 H   0  0  0  0  0  0  0  0  0  0  0  0
    4.6814    1.4002   18.9790 C   0  0  0  0  0  0  0  0  0  0  0  0
    3.7322    1.9237   19.0456 H   0  0  0  0  0  0  0  0  0  0  0  0
  1  2  1  0
  2  3  2  0
  3  4  1  0
  4  5  1  0
  4  6  2  0
  6  7  1  0
  7  8  1  1
  7  9  1  0
  9 10  2  0
  9 11  1  0
 11 12  1  0
 12 13  1  0
 13 14  1  0
 13 15  1  0
 13 16  1  0
 16 17  2  0
 17 18  1  0
 17 19  1  0
 19 20  1  0
 19 21  2  0
 21 22  1  0
 21 23  1  0
 23 24  1  0
 23 25  2  0
 25 26  1  0
 26 27  1  0
 26 28  1  0
 26 29  1  0
 29 30  1  0
 29 31  1  0
  7 32  1  0
 32 33  1  0
 32 34  1  0
 32 35  1  0
  6 36  1  0
 36 37  1  0
 36 38  2  0
 38 39  1  0
 38  2  1  0
 29 12  1  0
 25 16  1  0
M  END
>  <cnnaffinity>  (1) 
-5.25275

>  <filename>  (1) 
C[C@@H](C(=O)ON1CCc2ccccc2C1)c1cccnc1

$$$$
