
     RDKit          3D

 43 46  0  0  0  0  0  0  0  0999 V2000
    4.9820    1.8425   17.0053 H   0  0  0  0  0  0  0  0  0  0  0  0
    5.4945    1.3170   17.8056 C   0  0  0  0  0  0  0  0  0  0  0  0
    6.6583    0.7303   17.4806 N   0  0  0  0  0  0  0  0  0  0  0  0
    7.3241    0.0747   18.4392 C   0  0  0  0  0  0  0  0  0  0  0  0
    8.2586   -0.3916   18.1242 H   0  0  0  0  0  0  0  0  0  0  0  0
    6.8558   -0.0501   19.7613 C   0  0  0  0  0  0  0  0  0  0  0  0
    7.5295   -0.8533   20.7230 N   0  0  0  0  0  0  0  0  0  0  0  0
    8.8835   -0.8302   21.0688 C   0  0  0  0  0  0  0  0  0  0  0  0
    9.5504   -0.1610   20.5527 H   0  0  0  0  0  0  0  0  0  0  0  0
    9.1027   -1.6913   22.1033 C   0  0  0  0  0  0  0  0  0  0  0  0
    9.9768   -1.9455   22.6789 H   0  0  0  0  0  0  0  0  0  0  0  0
    7.8729   -2.2510   22.3958 N   0  0  0  0  0  0  0  0  0  0  0  0
    7.4021   -3.1297   23.3259 N   0  0  0  0  0  0  0  0  0  0  0  0
    6.1008   -3.1960   23.0271 C   0  0  0  0  0  0  0  0  0  0  0  0
    5.1062   -4.1223   23.6724 C   0  0  0  0  0  0  0  0  0  0  0  0
    5.3063   -5.1309   23.2797 H   0  0  0  0  0  0  0  0  0  0  0  0
    4.1066   -3.8350   23.3234 H   0  0  0  0  0  0  0  0  0  0  0  0
    5.0235   -4.2030   25.1937 C   0  0  0  0  0  0  0  0  0  0  0  0
    6.0262   -4.3601   25.6328 H   0  0  0  0  0  0  0  0  0  0  0  0
    4.4440   -5.1130   25.4045 H   0  0  0  0  0  0  0  0  0  0  0  0
    4.3153   -3.0919   25.8121 N   0  0  0  0  0  0  0  0  0  0  0  0
    5.0415   -1.8249   25.8870 C   0  0  0  0  0  0  0  0  0  0  0  0
    6.0763   -1.9698   26.2527 H   0  0  0  0  0  0  0  0  0  0  0  0
    5.1102   -1.3384   24.9090 H   0  0  0  0  0  0  0  0  0  0  0  0
    4.2405   -1.0250   26.9104 C   0  0  0  0  0  0  0  0  0  0  0  0
    3.3341   -0.6321   26.4396 H   0  0  0  0  0  0  0  0  0  0  0  0
    4.7923   -0.1764   27.3302 H   0  0  0  0  0  0  0  0  0  0  0  0
    3.8972   -2.0944   27.9484 C   0  0  0  0  0  0  0  0  0  0  0  0
    4.7295   -2.2142   28.6484 H   0  0  0  0  0  0  0  0  0  0  0  0
    3.0160   -1.8501   28.5523 H   0  0  0  0  0  0  0  0  0  0  0  0
    3.7346   -3.3939   27.1321 C   0  0  1  0  0  0  0  0  0  0  0  0
    4.2932   -4.2064   27.6323 H   0  0  0  0  0  0  0  0  0  0  0  0
    2.2895   -3.8671   27.0032 C   0  0  0  0  0  0  0  0  0  0  0  0
    2.2245   -4.7688   26.3861 H   0  0  0  0  0  0  0  0  0  0  0  0
    1.6631   -3.1014   26.5360 H   0  0  0  0  0  0  0  0  0  0  0  0
    1.8751   -4.1027   27.9896 H   0  0  0  0  0  0  0  0  0  0  0  0
    5.7488   -2.4108   21.9162 C   0  0  0  0  0  0  0  0  0  0  0  0
    4.7534   -2.3402   21.5494 H   0  0  0  0  0  0  0  0  0  0  0  0
    6.9235   -1.7731   21.5636 C   0  0  0  0  0  0  0  0  0  0  0  0
    5.6555    0.6031   20.0952 C   0  0  0  0  0  0  0  0  0  0  0  0
    5.2995    0.5814   21.1253 H   0  0  0  0  0  0  0  0  0  0  0  0
    4.9599    1.2878   19.0978 C   0  0  0  0  0  0  0  0  0  0  0  0
    4.0327    1.8122   19.3120 H   0  0  0  0  0  0  0  0  0  0  0  0
  1  2  1  0
  2  3  2  0
  3  4  1  0
  4  5  1  0
  4  6  2  0
  6  7  1  0
  7  8  1  0
  8  9  1  0
  8 10  2  0
 10 11  1  0
 10 12  1  0
 12 13  1  0
 13 14  2  0
 14 15  1  0
 15 16  1  0
 15 17  1  0
 15 18  1  0
 18 19  1  0
 18 20  1  0
 18 21  1  0
 21 22  1  0
 22 23  1  0
 22 24  1  0
 22 25  1  0
 25 26  1  0
 25 27  1  0
 25 28  1  0
 28 29  1  0
 28 30  1  0
 28 31  1  0
 31 32  1  1
 31 33  1  0
 33 34  1  0
 33 35  1  0
 33 36  1  0
 14 37  1  0
 37 38  1  0
 37 39  2  0
  6 40  1  0
 40 41  1  0
 40 42  2  0
 42 43  1  0
 42  2  1  0
 39  7  1  0
 39 12  1  0
 31 21  1  0
M  END
>  <cnnaffinity>  (1) 
-5.26716

>  <filename>  (1) 
C[C@@H]1CCCN1CCc1cc2n(-c3cccnc3)ccn2n1

$$$$
