
     RDKit          3D

 40 42  0  0  0  0  0  0  0  0999 V2000
    5.0431    1.9537   17.0826 H   0  0  0  0  0  0  0  0  0  0  0  0
    5.4631    1.2482   17.7953 C   0  0  0  0  0  0  0  0  0  0  0  0
    6.5110    0.5238   17.3624 N   0  0  0  0  0  0  0  0  0  0  0  0
    7.0688   -0.3272   18.2278 C   0  0  0  0  0  0  0  0  0  0  0  0
    7.9258   -0.9023   17.8852 H   0  0  0  0  0  0  0  0  0  0  0  0
    6.6184   -0.5053   19.5466 C   0  0  0  0  0  0  0  0  0  0  0  0
    7.3967   -1.3177   20.3333 O   0  0  0  0  0  0  0  0  0  0  0  0
    6.8582   -2.0867   21.3308 C   0  0  0  0  0  0  0  0  0  0  0  0
    5.8498   -3.0789   21.3003 C   0  0  0  0  0  0  0  0  0  0  0  0
    5.1942   -3.3637   20.4871 H   0  0  0  0  0  0  0  0  0  0  0  0
    5.7826   -3.7074   22.4721 N   0  0  0  0  0  0  0  0  0  0  0  0
    6.7246   -3.1200   23.2256 N   0  0  0  0  0  0  0  0  0  0  0  0
    6.8959   -3.4716   24.1572 H   0  0  0  0  0  0  0  0  0  0  0  0
    7.4094   -2.1399   22.5882 C   0  0  0  0  0  0  0  0  0  0  0  0
    8.5452   -1.3372   23.1319 C   0  0  0  0  0  0  0  0  0  0  0  0
    9.3563   -1.3889   22.3913 H   0  0  0  0  0  0  0  0  0  0  0  0
    8.9216   -1.8049   24.0537 H   0  0  0  0  0  0  0  0  0  0  0  0
    8.2510    0.1727   23.3728 C   0  0  0  0  0  0  0  0  0  0  0  0
    7.7876    0.3081   24.3785 H   0  0  0  0  0  0  0  0  0  0  0  0
    7.4505    0.4918   22.6774 H   0  0  0  0  0  0  0  0  0  0  0  0
    9.4315    0.8933   23.1255 N   0  0  0  0  0  0  0  0  0  0  0  0
   10.5879    0.5315   25.8229 C   0  0  0  0  0  0  0  0  0  0  0  0
   11.2304   -1.0189   25.1022 H   0  0  0  0  0  0  0  0  0  0  0  0
    9.7578   -0.2471   25.6115 H   0  0  0  0  0  0  0  0  0  0  0  0
   10.8583    0.3192   25.7299 C   0  0  0  0  0  0  0  0  0  0  0  0
   12.4218    0.2670   25.6744 H   0  0  0  0  0  0  0  0  0  0  0  0
   10.7742    0.2921   27.0105 H   0  0  0  0  0  0  0  0  0  0  0  0
   10.5033    1.8001   25.2577 C   0  0  0  0  0  0  0  0  0  0  0  0
   11.4257    2.4493   25.0485 H   0  0  0  0  0  0  0  0  0  0  0  0
    9.9427    2.5311   25.9195 H   0  0  0  0  0  0  0  0  0  0  0  0
    9.6697    2.0135   23.9136 C   0  0  1  0  0  0  0  0  0  0  0  0
    8.7241    2.5152   24.2343 H   0  0  0  0  0  0  0  0  0  0  0  0
   10.3897    3.0344   22.9791 C   0  0  0  0  0  0  0  0  0  0  0  0
   10.6635    3.9571   23.5020 H   0  0  0  0  0  0  0  0  0  0  0  0
   11.2994    2.5677   22.5806 H   0  0  0  0  0  0  0  0  0  0  0  0
    9.7497    3.2929   22.1246 H   0  0  0  0  0  0  0  0  0  0  0  0
    5.5060    0.2194   19.9852 C   0  0  0  0  0  0  0  0  0  0  0  0
    5.1232    0.0946   20.9993 H   0  0  0  0  0  0  0  0  0  0  0  0
    4.9276    1.1212   19.0799 C   0  0  0  0  0  0  0  0  0  0  0  0
    4.0826    1.7367   19.3661 H   0  0  0  0  0  0  0  0  0  0  0  0
  1  2  1  0
  2  3  2  0
  3  4  1  0
  4  5  1  0
  4  6  2  0
  6  7  1  0
  7  8  1  0
  8  9  1  0
  9 10  1  0
  9 11  2  0
 11 12  1  0
 12 13  1  0
 12 14  1  0
 14 15  1  0
 15 16  1  0
 15 17  1  0
 15 18  1  0
 18 19  1  0
 18 20  1  0
 18 21  1  0
 21 22  1  0
 22 23  1  0
 22 24  1  0
 22 25  1  0
 25 26  1  0
 25 27  1  0
 25 28  1  0
 28 29  1  0
 28 30  1  0
 28 31  1  0
 31 32  1  1
 31 33  1  0
 33 34  1  0
 33 35  1  0
 33 36  1  0
  6 37  1  0
 37 38  1  0
 37 39  2  0
 39 40  1  0
 39  2  1  0
 14  8  2  0
 31 21  1  0
M  END
>  <cnnaffinity>  (1) 
-5.32245

>  <filename>  (1) 
C[C@@H]1CCCN1CCc1[nH]ncc1Oc1cccnc1

$$$$
