
     RDKit          3D

 30 31  0  0  0  0  0  0  0  0999 V2000
   12.4996   -1.4038   21.1596 H   0  0  0  0  0  0  0  0  0  0  0  0
   11.9595   -1.6176   21.9385 O   0  0  0  0  0  0  0  0  0  0  0  0
   11.3250   -0.4452   22.0981 C   0  0  0  0  0  0  0  0  0  0  0  0
   11.5726    0.4654   21.3445 O   0  0  0  0  0  0  0  0  0  0  0  0
   10.3079   -0.4472   23.2391 C   0  0  2  0  0  0  0  0  0  0  0  0
   10.6737   -1.1894   23.9496 H   0  0  0  0  0  0  0  0  0  0  0  0
    8.9706   -0.9425   22.7010 C   0  0  0  0  0  0  0  0  0  0  0  0
    8.3429   -2.1017   23.2532 C   0  0  0  0  0  0  0  0  0  0  0  0
    8.7939   -2.5729   24.1293 H   0  0  0  0  0  0  0  0  0  0  0  0
    7.2071   -2.6162   22.7060 C   0  0  0  0  0  0  0  0  0  0  0  0
    6.7067   -3.4989   23.0745 H   0  0  0  0  0  0  0  0  0  0  0  0
    6.5543   -2.0267   21.5500 C   0  0  0  0  0  0  0  0  0  0  0  0
    5.5462   -2.4846   21.0368 O   0  0  0  0  0  0  0  0  0  0  0  0
    7.2292   -0.8533   21.0480 N   0  0  0  0  0  0  0  0  0  0  0  0
    6.6659   -0.1111   19.9557 C   0  0  0  0  0  0  0  0  0  0  0  0
    7.3143   -0.0160   18.7107 C   0  0  0  0  0  0  0  0  0  0  0  0
    8.2619   -0.5343   18.5685 H   0  0  0  0  0  0  0  0  0  0  0  0
    6.8187    0.6689   17.6709 N   0  0  0  0  0  0  0  0  0  0  0  0
    5.6551    1.3149   17.8504 C   0  0  0  0  0  0  0  0  0  0  0  0
    5.2699    1.8594   16.9892 H   0  0  0  0  0  0  0  0  0  0  0  0
    4.9445    1.2923   19.0563 C   0  0  0  0  0  0  0  0  0  0  0  0
    4.0284    1.8625   19.1452 H   0  0  0  0  0  0  0  0  0  0  0  0
    5.4551    0.5592   20.1307 C   0  0  0  0  0  0  0  0  0  0  0  0
    4.9495    0.5018   21.0942 H   0  0  0  0  0  0  0  0  0  0  0  0
    8.3798   -0.3528   21.6241 C   0  0  0  0  0  0  0  0  0  0  0  0
    8.7887    0.5406   21.1488 H   0  0  0  0  0  0  0  0  0  0  0  0
   10.2428    0.9150   23.9611 C   0  0  0  0  0  0  0  0  0  0  0  0
    9.5138    0.9040   24.7807 H   0  0  0  0  0  0  0  0  0  0  0  0
   11.2269    1.1687   24.3731 H   0  0  0  0  0  0  0  0  0  0  0  0
    9.9558    1.7183   23.2766 H   0  0  0  0  0  0  0  0  0  0  0  0
  1  2  1  0
  2  3  1  0
  3  4  2  0
  3  5  1  0
  5  6  1  1
  5  7  1  0
  7  8  1  0
  8  9  1  0
  8 10  2  0
 10 11  1  0
 10 12  1  0
 12 13  2  0
 12 14  1  0
 14 15  1  0
 15 16  2  0
 16 17  1  0
 16 18  1  0
 18 19  2  0
 19 20  1  0
 19 21  1  0
 21 22  1  0
 21 23  2  0
 23 24  1  0
 14 25  1  0
 25 26  1  0
  5 27  1  0
 27 28  1  0
 27 29  1  0
 27 30  1  0
 25  7  2  0
 23 15  1  0
M  END
>  <cnnaffinity>  (1) 
-4.72493

>  <filename>  (1) 
C[C@H](C(=O)O)c1ccc(=O)n(-c2cccnc2)c1

$$$$
