
     RDKit          3D

 40 41  0  0  0  0  0  0  0  0999 V2000
    5.0207    1.7332   16.8917 H   0  0  0  0  0  0  0  0  0  0  0  0
    5.4457    1.2904   17.7908 C   0  0  0  0  0  0  0  0  0  0  0  0
    6.6291    0.6778   17.6325 N   0  0  0  0  0  0  0  0  0  0  0  0
    7.1907    0.1435   18.7251 C   0  0  0  0  0  0  0  0  0  0  0  0
    8.1391   -0.3680   18.5500 H   0  0  0  0  0  0  0  0  0  0  0  0
    6.6424    0.1858   20.0207 C   0  0  0  0  0  0  0  0  0  0  0  0
    7.3864   -0.4341   21.2030 C   0  0  2  0  0  0  0  0  0  0  0  0
    6.7466   -0.3654   22.0950 H   0  0  0  0  0  0  0  0  0  0  0  0
    8.7091    0.2909   21.5160 C   0  0  0  0  0  0  0  0  0  0  0  0
    9.4158    0.2174   20.6777 H   0  0  0  0  0  0  0  0  0  0  0  0
    8.5374    1.3484   21.7327 H   0  0  0  0  0  0  0  0  0  0  0  0
    9.1935   -0.1466   22.3967 H   0  0  0  0  0  0  0  0  0  0  0  0
    7.6458   -1.9379   20.9334 C   0  0  0  0  0  0  0  0  0  0  0  0
    8.4502   -2.0237   20.1935 H   0  0  0  0  0  0  0  0  0  0  0  0
    6.7471   -2.3934   20.5023 H   0  0  0  0  0  0  0  0  0  0  0  0
    8.0316   -2.6954   22.1138 N   0  0  0  0  0  0  0  0  0  0  0  0
    9.0016   -2.8558   22.3056 H   0  0  0  0  0  0  0  0  0  0  0  0
    7.1453   -3.0750   23.0804 C   0  0  0  0  0  0  0  0  0  0  0  0
    5.9542   -2.8216   23.0018 O   0  0  0  0  0  0  0  0  0  0  0  0
    7.7663   -3.9487   24.1806 C   0  0  0  0  0  0  0  0  0  0  0  0
    8.8505   -3.8032   24.1053 H   0  0  0  0  0  0  0  0  0  0  0  0
    7.4378   -5.4448   23.9003 C   0  0  0  0  0  0  0  0  0  0  0  0
    7.7250   -5.7051   22.8735 H   0  0  0  0  0  0  0  0  0  0  0  0
    8.0612   -6.0634   24.5655 H   0  0  0  0  0  0  0  0  0  0  0  0
    5.9521   -5.7592   24.1612 C   0  0  0  0  0  0  0  0  0  0  0  0
    5.3292   -5.1907   23.4609 H   0  0  0  0  0  0  0  0  0  0  0  0
    5.7407   -6.8166   23.9761 H   0  0  0  0  0  0  0  0  0  0  0  0
    5.5840   -5.4120   25.6103 C   0  0  0  0  0  0  0  0  0  0  0  0
    6.1595   -6.0815   26.2665 H   0  0  0  0  0  0  0  0  0  0  0  0
    4.5265   -5.6316   25.8056 H   0  0  0  0  0  0  0  0  0  0  0  0
    5.9015   -3.9506   25.9605 C   0  0  0  0  0  0  0  0  0  0  0  0
    5.7111   -3.7776   27.0261 H   0  0  0  0  0  0  0  0  0  0  0  0
    5.2241   -3.2884   25.4147 H   0  0  0  0  0  0  0  0  0  0  0  0
    7.3508   -3.5681   25.6221 C   0  0  0  0  0  0  0  0  0  0  0  0
    7.5044   -2.4960   25.8132 H   0  0  0  0  0  0  0  0  0  0  0  0
    8.0228   -4.1169   26.3003 H   0  0  0  0  0  0  0  0  0  0  0  0
    5.3859    0.8060   20.1506 C   0  0  0  0  0  0  0  0  0  0  0  0
    4.9000    0.8522   21.1282 H   0  0  0  0  0  0  0  0  0  0  0  0
    4.7791    1.3643   19.0181 C   0  0  0  0  0  0  0  0  0  0  0  0
    3.8180    1.8696   19.0746 H   0  0  0  0  0  0  0  0  0  0  0  0
  1  2  1  0
  2  3  2  0
  3  4  1  0
  4  5  1  0
  4  6  2  0
  6  7  1  0
  7  8  1  1
  7  9  1  0
  9 10  1  0
  9 11  1  0
  9 12  1  0
  7 13  1  0
 13 14  1  0
 13 15  1  0
 13 16  1  0
 16 17  1  0
 16 18  1  0
 18 19  2  0
 18 20  1  0
 20 21  1  0
 20 22  1  0
 22 23  1  0
 22 24  1  0
 22 25  1  0
 25 26  1  0
 25 27  1  0
 25 28  1  0
 28 29  1  0
 28 30  1  0
 28 31  1  0
 31 32  1  0
 31 33  1  0
 31 34  1  0
 34 35  1  0
 34 36  1  0
  6 37  1  0
 37 38  1  0
 37 39  2  0
 39 40  1  0
 39  2  1  0
 34 20  1  0
M  END
>  <cnnaffinity>  (1) 
-4.91621

>  <filename>  (1) 
C[C@H](CNC(=O)C1CCCCC1)c1cccnc1

$$$$
