
     RDKit          3D

 33 34  0  0  0  0  0  0  0  0999 V2000
    5.1777   -2.2781   26.0525 H   0  0  0  0  0  0  0  0  0  0  0  0
    4.7851   -1.5449   26.5544 O   0  0  0  0  0  0  0  0  0  0  0  0
    5.2330   -0.3955   25.9858 C   0  0  0  0  0  0  0  0  0  0  0  0
    4.7952    0.7972   26.5521 C   0  0  0  0  0  0  0  0  0  0  0  0
    4.1162    0.7378   27.3949 H   0  0  0  0  0  0  0  0  0  0  0  0
    5.2263    2.0211   26.0272 C   0  0  0  0  0  0  0  0  0  0  0  0
    4.6412    3.5032   26.7280 Cl  0  0  0  0  0  0  0  0  0  0  0  0
    6.1109    2.0588   24.9461 C   0  0  0  0  0  0  0  0  0  0  0  0
    6.4421    3.0137   24.5475 H   0  0  0  0  0  0  0  0  0  0  0  0
    6.5543    0.8605   24.3717 C   0  0  0  0  0  0  0  0  0  0  0  0
    7.2445    0.8480   23.5303 H   0  0  0  0  0  0  0  0  0  0  0  0
    6.1026   -0.3689   24.8609 C   0  0  0  0  0  0  0  0  0  0  0  0
    6.4111   -1.5980   24.3119 O   0  0  0  0  0  0  0  0  0  0  0  0
    7.3500   -1.7096   23.2532 C   0  0  2  0  0  0  0  0  0  0  0  0
    8.2485   -1.1357   23.5068 H   0  0  0  0  0  0  0  0  0  0  0  0
    6.7262   -1.1864   22.0609 N   0  0  0  0  0  0  0  0  0  0  0  0
    5.7279   -1.2286   22.0047 H   0  0  0  0  0  0  0  0  0  0  0  0
    7.4104   -0.7367   20.9839 C   0  0  0  0  0  0  0  0  0  0  0  0
    8.6171   -0.8869   20.8604 O   0  0  0  0  0  0  0  0  0  0  0  0
    6.5908   -0.0356   19.9649 C   0  0  0  0  0  0  0  0  0  0  0  0
    7.1586    0.0108   18.6893 C   0  0  0  0  0  0  0  0  0  0  0  0
    8.1211   -0.4635   18.5059 H   0  0  0  0  0  0  0  0  0  0  0  0
    6.5860    0.6193   17.6483 N   0  0  0  0  0  0  0  0  0  0  0  0
    5.4267    1.2568   17.8663 C   0  0  0  0  0  0  0  0  0  0  0  0
    4.9986    1.7764   17.0131 H   0  0  0  0  0  0  0  0  0  0  0  0
    4.7844    1.2906   19.1091 C   0  0  0  0  0  0  0  0  0  0  0  0
    3.8640    1.8530   19.2280 H   0  0  0  0  0  0  0  0  0  0  0  0
    5.3717    0.6297   20.1852 C   0  0  0  0  0  0  0  0  0  0  0  0
    4.8983    0.6816   21.1699 H   0  0  0  0  0  0  0  0  0  0  0  0
    7.6958   -3.1704   23.1014 C   0  0  0  0  0  0  0  0  0  0  0  0
    6.7787   -3.7414   22.9373 H   0  0  0  0  0  0  0  0  0  0  0  0
    8.3577   -3.3078   22.2441 H   0  0  0  0  0  0  0  0  0  0  0  0
    8.1932   -3.5445   23.9995 H   0  0  0  0  0  0  0  0  0  0  0  0
  1  2  1  0
  2  3  1  0
  3  4  2  0
  4  5  1  0
  4  6  1  0
  6  7  1  0
  6  8  2  0
  8  9  1  0
  8 10  1  0
 10 11  1  0
 10 12  2  0
 12 13  1  0
 13 14  1  0
 14 15  1  1
 14 16  1  0
 16 17  1  0
 16 18  1  0
 18 19  2  0
 18 20  1  0
 20 21  2  0
 21 22  1  0
 21 23  1  0
 23 24  2  0
 24 25  1  0
 24 26  1  0
 26 27  1  0
 26 28  2  0
 28 29  1  0
 14 30  1  0
 30 31  1  0
 30 32  1  0
 30 33  1  0
 12  3  1  0
 28 20  1  0
M  END
>  <cnnaffinity>  (1) 
-4.91451

>  <filename>  (1) 
C[C@@H](NC(=O)c1cccnc1)Oc1ccc(Cl)cc1O

$$$$
