
     RDKit          3D

 29 30  0  0  0  0  0  0  0  0999 V2000
    5.0827    1.7363   16.9115 H   0  0  0  0  0  0  0  0  0  0  0  0
    5.5224    1.2463   17.7780 C   0  0  0  0  0  0  0  0  0  0  0  0
    6.7052    0.6466   17.5750 N   0  0  0  0  0  0  0  0  0  0  0  0
    7.2734    0.0732   18.6422 C   0  0  0  0  0  0  0  0  0  0  0  0
    8.2330   -0.4170   18.4779 H   0  0  0  0  0  0  0  0  0  0  0  0
    6.7249    0.0501   19.9399 C   0  0  0  0  0  0  0  0  0  0  0  0
    7.5962   -0.4262   21.1018 C   0  0  2  0  0  0  0  0  0  0  0  0
    8.4119   -1.0163   20.6574 H   0  0  0  0  0  0  0  0  0  0  0  0
    6.9069   -1.4298   22.0664 C   0  0  0  0  0  0  0  0  0  0  0  0
    6.5647   -1.1383   23.1879 O   0  0  0  0  0  0  0  0  0  0  0  0
    6.7673   -2.8194   21.4936 C   0  0  0  0  0  0  0  0  0  0  0  0
    5.9765   -3.0407   20.3513 C   0  0  0  0  0  0  0  0  0  0  0  0
    5.4774   -2.2015   19.8804 H   0  0  0  0  0  0  0  0  0  0  0  0
    5.8674   -4.3054   19.7873 C   0  0  0  0  0  0  0  0  0  0  0  0
    5.2680   -4.4448   18.8953 H   0  0  0  0  0  0  0  0  0  0  0  0
    6.5902   -5.3697   20.3256 C   0  0  0  0  0  0  0  0  0  0  0  0
    6.5299   -6.3316   19.8334 H   0  0  0  0  0  0  0  0  0  0  0  0
    7.4017   -5.1666   21.4446 C   0  0  0  0  0  0  0  0  0  0  0  0
    7.9739   -5.9737   21.8839 H   0  0  0  0  0  0  0  0  0  0  0  0
    7.4851   -3.9002   22.0268 C   0  0  0  0  0  0  0  0  0  0  0  0
    8.5720   -3.6997   23.3704 Cl  0  0  0  0  0  0  0  0  0  0  0  0
    8.2068    0.7808   21.8329 C   0  0  0  0  0  0  0  0  0  0  0  0
    8.7411    1.4355   21.1316 H   0  0  0  0  0  0  0  0  0  0  0  0
    8.9175    0.4392   22.5918 H   0  0  0  0  0  0  0  0  0  0  0  0
    7.4185    1.3724   22.3146 H   0  0  0  0  0  0  0  0  0  0  0  0
    5.4551    0.6165   20.1104 C   0  0  0  0  0  0  0  0  0  0  0  0
    4.9477    0.5797   21.0798 H   0  0  0  0  0  0  0  0  0  0  0  0
    4.8532    1.2363   19.0073 C   0  0  0  0  0  0  0  0  0  0  0  0
    3.8905    1.7222   19.0910 H   0  0  0  0  0  0  0  0  0  0  0  0
  1  2  1  0
  2  3  2  0
  3  4  1  0
  4  5  1  0
  4  6  2  0
  6  7  1  0
  7  8  1  6
  7  9  1  0
  9 10  2  0
  9 11  1  0
 11 12  2  0
 12 13  1  0
 12 14  1  0
 14 15  1  0
 14 16  2  0
 16 17  1  0
 16 18  1  0
 18 19  1  0
 18 20  2  0
 20 21  1  0
  7 22  1  0
 22 23  1  0
 22 24  1  0
 22 25  1  0
  6 26  1  0
 26 27  1  0
 26 28  2  0
 28 29  1  0
 28  2  1  0
 20 11  1  0
M  END
>  <cnnaffinity>  (1) 
-4.62968

>  <filename>  (1) 
C[C@@H](C(=O)c1ccccc1Cl)c1cccnc1

$$$$
