
     RDKit          3D

 39 42  0  0  0  0  0  0  0  0999 V2000
    4.9524    1.8211   16.9672 H   0  0  0  0  0  0  0  0  0  0  0  0
    5.3987    1.2976   17.8128 C   0  0  0  0  0  0  0  0  0  0  0  0
    6.5505    0.6535   17.5698 N   0  0  0  0  0  0  0  0  0  0  0  0
    7.1365    0.0159   18.5871 C   0  0  0  0  0  0  0  0  0  0  0  0
    8.0779   -0.4812   18.3652 H   0  0  0  0  0  0  0  0  0  0  0  0
    6.6256   -0.0080   19.8949 C   0  0  0  0  0  0  0  0  0  0  0  0
    7.3920   -0.6900   20.9371 C   0  0  0  0  0  0  0  0  0  0  0  0
    7.8434   -1.9787   20.7831 N   0  0  0  0  0  0  0  0  0  0  0  0
    8.4102   -2.2427   21.9267 C   0  0  0  0  0  0  0  0  0  0  0  0
    8.4842   -1.1779   22.7614 N   0  0  0  0  0  0  0  0  0  0  0  0
    7.7694   -0.1683   22.1649 C   0  0  0  0  0  0  0  0  0  0  0  0
    7.6900    1.2352   22.6901 C   0  0  1  0  0  0  0  0  0  0  0  0
    6.8452    1.7072   22.1667 H   0  0  0  0  0  0  0  0  0  0  0  0
    7.3340    1.2788   24.1853 C   0  0  0  0  0  0  0  0  0  0  0  0
    6.0326    0.9205   24.5813 C   0  0  0  0  0  0  0  0  0  0  0  0
    5.3018    0.6389   23.8248 H   0  0  0  0  0  0  0  0  0  0  0  0
    5.6525    0.9218   25.9287 C   0  0  0  0  0  0  0  0  0  0  0  0
    4.6365    0.6496   26.2044 H   0  0  0  0  0  0  0  0  0  0  0  0
    6.5826    1.2693   26.9148 C   0  0  0  0  0  0  0  0  0  0  0  0
    6.2980    1.2702   27.9646 H   0  0  0  0  0  0  0  0  0  0  0  0
    7.8827    1.6182   26.5402 C   0  0  0  0  0  0  0  0  0  0  0  0
    8.6129    1.8866   27.2961 H   0  0  0  0  0  0  0  0  0  0  0  0
    8.2523    1.6228   25.1890 C   0  0  0  0  0  0  0  0  0  0  0  0
    9.2689    1.9007   24.9216 H   0  0  0  0  0  0  0  0  0  0  0  0
    8.9599    2.0084   22.2877 C   0  0  0  0  0  0  0  0  0  0  0  0
    9.0364    2.0438   21.1968 H   0  0  0  0  0  0  0  0  0  0  0  0
    9.8635    1.5106   22.6593 H   0  0  0  0  0  0  0  0  0  0  0  0
    8.9416    3.0355   22.6616 H   0  0  0  0  0  0  0  0  0  0  0  0
    9.2091   -1.3112   24.0068 C   0  0  0  0  0  0  0  0  0  0  0  0
    9.8956   -0.4662   24.1235 H   0  0  0  0  0  0  0  0  0  0  0  0
    8.5084   -1.2774   24.8447 H   0  0  0  0  0  0  0  0  0  0  0  0
    9.9421   -2.6661   23.9020 C   0  0  0  0  0  0  0  0  0  0  0  0
    9.9832   -3.1991   24.8552 H   0  0  0  0  0  0  0  0  0  0  0  0
   10.9612   -2.5331   23.5299 H   0  0  0  0  0  0  0  0  0  0  0  0
    9.0322   -3.6987   22.6749 S   0  0  0  0  0  0  0  0  0  0  0  0
    5.4091    0.6581   20.1255 C   0  0  0  0  0  0  0  0  0  0  0  0
    4.9524    0.6647   21.1169 H   0  0  0  0  0  0  0  0  0  0  0  0
    4.7798    1.3173   19.0693 C   0  0  0  0  0  0  0  0  0  0  0  0
    3.8492    1.8612   19.2104 H   0  0  0  0  0  0  0  0  0  0  0  0
  1  2  1  0
  2  3  2  0
  3  4  1  0
  4  5  1  0
  4  6  2  0
  6  7  1  0
  7  8  1  0
  8  9  2  0
  9 10  1  0
 10 11  1  0
 11 12  1  0
 12 13  1  6
 12 14  1  0
 14 15  2  0
 15 16  1  0
 15 17  1  0
 17 18  1  0
 17 19  2  0
 19 20  1  0
 19 21  1  0
 21 22  1  0
 21 23  2  0
 23 24  1  0
 12 25  1  0
 25 26  1  0
 25 27  1  0
 25 28  1  0
 10 29  1  0
 29 30  1  0
 29 31  1  0
 29 32  1  0
 32 33  1  0
 32 34  1  0
 32 35  1  0
  6 36  1  0
 36 37  1  0
 36 38  2  0
 38 39  1  0
 38  2  1  0
 11  7  2  0
 23 14  1  0
 35  9  1  0
M  END
>  <cnnaffinity>  (1) 
-5.49203

>  <filename>  (1) 
C[C@H](c1ccccc1)c1c(-c2cccnc2)nc2n1CCS2

$$$$
