
     RDKit          3D

 38 40  0  0  0  0  0  0  0  0999 V2000
    4.9152    1.8002   16.9852 H   0  0  0  0  0  0  0  0  0  0  0  0
    5.3887    1.3018   17.8263 C   0  0  0  0  0  0  0  0  0  0  0  0
    6.5483    0.6782   17.5601 N   0  0  0  0  0  0  0  0  0  0  0  0
    7.1663    0.0620   18.5779 C   0  0  0  0  0  0  0  0  0  0  0  0
    8.1119   -0.4245   18.3417 H   0  0  0  0  0  0  0  0  0  0  0  0
    6.6585    0.0153   19.8981 C   0  0  0  0  0  0  0  0  0  0  0  0
    7.3245   -0.6755   20.9619 N   0  0  0  0  0  0  0  0  0  0  0  0
    6.7885   -1.6268   21.7977 C   0  0  0  0  0  0  0  0  0  0  0  0
    5.7524   -1.9164   21.7625 H   0  0  0  0  0  0  0  0  0  0  0  0
    7.6877   -2.1215   22.5981 N   0  0  0  0  0  0  0  0  0  0  0  0
    8.8669   -1.4710   22.3260 N   0  0  0  0  0  0  0  0  0  0  0  0
    8.6371   -0.6011   21.3767 C   0  0  0  0  0  0  0  0  0  0  0  0
    9.6831    0.2238   20.7325 C   0  0  0  0  0  0  0  0  0  0  0  0
   10.2105   -0.4751   20.0751 H   0  0  0  0  0  0  0  0  0  0  0  0
    9.2401    1.0141   20.1230 H   0  0  0  0  0  0  0  0  0  0  0  0
   10.6509    0.8508   21.7260 C   0  0  0  0  0  0  0  0  0  0  0  0
   10.9116    0.1037   22.4998 H   0  0  0  0  0  0  0  0  0  0  0  0
   11.5793    1.1105   21.2024 H   0  0  0  0  0  0  0  0  0  0  0  0
   10.1265    2.0790   22.3107 N   0  0  0  0  0  0  0  0  0  0  0  0
   11.1867    2.9464   22.8463 C   0  0  0  0  0  0  0  0  0  0  0  0
   11.5652    3.6283   22.0737 H   0  0  0  0  0  0  0  0  0  0  0  0
   12.0587    2.3579   23.1912 H   0  0  0  0  0  0  0  0  0  0  0  0
   10.5689    3.6884   24.0282 C   0  0  0  0  0  0  0  0  0  0  0  0
   10.1064    4.6316   23.7162 H   0  0  0  0  0  0  0  0  0  0  0  0
   11.3504    3.9526   24.7424 H   0  0  0  0  0  0  0  0  0  0  0  0
    9.5211    2.6937   24.5567 C   0  0  0  0  0  0  0  0  0  0  0  0
    8.6962    3.1853   25.0883 H   0  0  0  0  0  0  0  0  0  0  0  0
    9.9599    1.9721   25.2561 H   0  0  0  0  0  0  0  0  0  0  0  0
    9.0305    1.9439   23.2889 C   0  0  1  0  0  0  0  0  0  0  0  0
    8.8619    0.8788   23.5141 H   0  0  0  0  0  0  0  0  0  0  0  0
    7.7267    2.5260   22.7429 C   0  0  0  0  0  0  0  0  0  0  0  0
    6.9230    2.3841   23.4763 H   0  0  0  0  0  0  0  0  0  0  0  0
    7.4255    2.0428   21.8075 H   0  0  0  0  0  0  0  0  0  0  0  0
    7.8275    3.5999   22.5468 H   0  0  0  0  0  0  0  0  0  0  0  0
    5.4426    0.6514   20.1524 C   0  0  0  0  0  0  0  0  0  0  0  0
    5.0345    0.6327   21.1666 H   0  0  0  0  0  0  0  0  0  0  0  0
    4.8063    1.3131   19.0978 C   0  0  0  0  0  0  0  0  0  0  0  0
    3.8776    1.8405   19.2532 H   0  0  0  0  0  0  0  0  0  0  0  0
  1  2  1  0
  2  3  2  0
  3  4  1  0
  4  5  1  0
  4  6  2  0
  6  7  1  0
  7  8  1  0
  8  9  1  0
  8 10  2  0
 10 11  1  0
 11 12  2  0
 12 13  1  0
 13 14  1  0
 13 15  1  0
 13 16  1  0
 16 17  1  0
 16 18  1  0
 16 19  1  0
 19 20  1  0
 20 21  1  0
 20 22  1  0
 20 23  1  0
 23 24  1  0
 23 25  1  0
 23 26  1  0
 26 27  1  0
 26 28  1  0
 26 29  1  0
 29 30  1  1
 29 31  1  0
 31 32  1  0
 31 33  1  0
 31 34  1  0
  6 35  1  0
 35 36  1  0
 35 37  2  0
 37 38  1  0
 37  2  1  0
 12  7  1  0
 29 19  1  0
M  END
>  <cnnaffinity>  (1) 
-5.14173

>  <filename>  (1) 
C[C@@H]1CCCN1CCc1nncn1-c1cccnc1

$$$$
