
     RDKit          3D

 42 44  0  0  0  0  0  0  0  0999 V2000
    4.9661    2.0294   16.9053 H   0  0  0  0  0  0  0  0  0  0  0  0
    5.3702    1.4180   17.7090 C   0  0  0  0  0  0  0  0  0  0  0  0
    6.4973    0.7452   17.4224 N   0  0  0  0  0  0  0  0  0  0  0  0
    7.0267   -0.0009   18.3928 C   0  0  0  0  0  0  0  0  0  0  0  0
    7.9698   -0.4939   18.1611 H   0  0  0  0  0  0  0  0  0  0  0  0
    6.4575   -0.1658   19.6772 C   0  0  0  0  0  0  0  0  0  0  0  0
    7.1510   -0.9500   20.6711 N   0  0  0  0  0  0  0  0  0  0  0  0
    8.4905   -0.6679   20.8324 C   0  0  0  0  0  0  0  0  0  0  0  0
    8.8576    0.1614   20.2311 H   0  0  0  0  0  0  0  0  0  0  0  0
    9.3021   -1.3005   21.7228 C   0  0  0  0  0  0  0  0  0  0  0  0
   10.7168   -0.7880   21.8820 C   0  0  0  0  0  0  0  0  0  0  0  0
   11.2173   -0.7244   20.9023 H   0  0  0  0  0  0  0  0  0  0  0  0
   11.3115   -1.4620   22.5101 H   0  0  0  0  0  0  0  0  0  0  0  0
   10.6306    0.6282   22.4885 C   0  0  0  0  0  0  0  0  0  0  0  0
    9.8201    0.6194   23.2240 H   0  0  0  0  0  0  0  0  0  0  0  0
   10.2979    1.3235   21.6984 H   0  0  0  0  0  0  0  0  0  0  0  0
   11.8679    1.0910   23.1131 N   0  0  0  0  0  0  0  0  0  0  0  0
   12.6755    1.9728   22.2537 C   0  0  0  0  0  0  0  0  0  0  0  0
   12.5041    1.7239   21.2005 H   0  0  0  0  0  0  0  0  0  0  0  0
   13.7390    1.7928   22.4569 H   0  0  0  0  0  0  0  0  0  0  0  0
   12.2888    3.4323   22.5889 C   0  0  0  0  0  0  0  0  0  0  0  0
   13.1763    4.0678   22.6460 H   0  0  0  0  0  0  0  0  0  0  0  0
   11.6593    3.8584   21.8068 H   0  0  0  0  0  0  0  0  0  0  0  0
   11.5177    3.3321   23.9218 C   0  0  0  0  0  0  0  0  0  0  0  0
   10.4535    3.5613   23.7725 H   0  0  0  0  0  0  0  0  0  0  0  0
   11.8896    4.0298   24.6759 H   0  0  0  0  0  0  0  0  0  0  0  0
   11.6952    1.8633   24.3631 C   0  0  1  0  0  0  0  0  0  0  0  0
   12.6498    1.7797   24.9025 H   0  0  0  0  0  0  0  0  0  0  0  0
   10.6187    1.3416   25.3125 C   0  0  0  0  0  0  0  0  0  0  0  0
   10.7088    1.8095   26.2920 H   0  0  0  0  0  0  0  0  0  0  0  0
    9.6021    1.5504   24.9667 H   0  0  0  0  0  0  0  0  0  0  0  0
   10.7116    0.2624   25.4658 H   0  0  0  0  0  0  0  0  0  0  0  0
    8.7085   -2.2556   22.6092 C   0  0  0  0  0  0  0  0  0  0  0  0
    9.3304   -2.7371   23.3656 H   0  0  0  0  0  0  0  0  0  0  0  0
    7.3781   -2.5339   22.5156 C   0  0  0  0  0  0  0  0  0  0  0  0
    6.8591   -3.2159   23.1745 H   0  0  0  0  0  0  0  0  0  0  0  0
    6.5188   -1.9621   21.4870 C   0  0  0  0  0  0  0  0  0  0  0  0
    5.3766   -2.3462   21.3020 O   0  0  0  0  0  0  0  0  0  0  0  0
    5.2838    0.5419   19.9639 C   0  0  0  0  0  0  0  0  0  0  0  0
    4.8344    0.4711   20.9546 H   0  0  0  0  0  0  0  0  0  0  0  0
    4.7402    1.3520   18.9571 C   0  0  0  0  0  0  0  0  0  0  0  0
    3.8496    1.9478   19.1264 H   0  0  0  0  0  0  0  0  0  0  0  0
  1  2  1  0
  2  3  2  0
  3  4  1  0
  4  5  1  0
  4  6  2  0
  6  7  1  0
  7  8  1  0
  8  9  1  0
  8 10  2  0
 10 11  1  0
 11 12  1  0
 11 13  1  0
 11 14  1  0
 14 15  1  0
 14 16  1  0
 14 17  1  0
 17 18  1  0
 18 19  1  0
 18 20  1  0
 18 21  1  0
 21 22  1  0
 21 23  1  0
 21 24  1  0
 24 25  1  0
 24 26  1  0
 24 27  1  0
 27 28  1  1
 27 29  1  0
 29 30  1  0
 29 31  1  0
 29 32  1  0
 10 33  1  0
 33 34  1  0
 33 35  2  0
 35 36  1  0
 35 37  1  0
 37 38  2  0
  6 39  1  0
 39 40  1  0
 39 41  2  0
 41 42  1  0
 41  2  1  0
 37  7  1  0
 27 17  1  0
M  END
>  <cnnaffinity>  (1) 
-5.32976

>  <filename>  (1) 
C[C@@H]1CCCN1CCc1ccc(=O)n(-c2cccnc2)c1

$$$$
