
     RDKit          3D

 34 36  0  0  0  0  0  0  0  0999 V2000
    5.0071    2.0789   16.0531 H   0  0  0  0  0  0  0  0  0  0  0  0
    5.2318    1.5135   16.9514 C   0  0  0  0  0  0  0  0  0  0  0  0
    6.2132    0.6024   16.8661 N   0  0  0  0  0  0  0  0  0  0  0  0
    6.5330   -0.0508   17.9913 C   0  0  0  0  0  0  0  0  0  0  0  0
    7.3384   -0.7853   17.9183 H   0  0  0  0  0  0  0  0  0  0  0  0
    5.9393    0.1899   19.2380 C   0  0  0  0  0  0  0  0  0  0  0  0
    6.6088   -0.2467   20.5238 C   0  0  2  0  0  0  0  0  0  0  0  0
    5.8796   -0.0722   21.3270 H   0  0  0  0  0  0  0  0  0  0  0  0
    7.8083    0.7233   20.8321 C   0  0  0  0  0  0  0  0  0  0  0  0
    8.0991    1.6416   20.1016 O   0  0  0  0  0  0  0  0  0  0  0  0
    8.5343    0.4551   22.1579 C   0  0  0  0  0  0  0  0  0  0  0  0
    9.8683    0.4089   22.1647 N   0  0  0  0  0  0  0  0  0  0  0  0
   10.4501    0.2828   23.3779 C   0  0  0  0  0  0  0  0  0  0  0  0
   11.9259    0.2723   23.6124 C   0  0  0  0  0  0  0  0  0  0  0  0
   12.5915    0.3186   22.7513 H   0  0  0  0  0  0  0  0  0  0  0  0
   12.2596    0.2353   24.9024 C   0  0  0  0  0  0  0  0  0  0  0  0
   13.2813    0.0886   25.3139 H   0  0  0  0  0  0  0  0  0  0  0  0
   10.8481    0.0495   25.8350 C   0  0  0  0  0  0  0  0  0  0  0  0
   10.7055    1.3474   26.5576 H   0  0  0  0  0  0  0  0  0  0  0  0
   10.8143    0.2875   26.0753 C   0  0  0  0  0  0  0  0  0  0  0  0
   10.6844   -0.6567   26.8879 H   0  0  0  0  0  0  0  0  0  0  0  0
    9.7045    0.1930   24.5693 C   0  0  0  0  0  0  0  0  0  0  0  0
    8.3468    0.1375   24.5602 C   0  0  0  0  0  0  0  0  0  0  0  0
    7.7576   -0.0133   25.4649 H   0  0  0  0  0  0  0  0  0  0  0  0
    7.7238    0.2839   23.3088 C   0  0  0  0  0  0  0  0  0  0  0  0
    6.6382    0.3070   23.2387 H   0  0  0  0  0  0  0  0  0  0  0  0
    7.0135   -1.7331   20.5881 C   0  0  0  0  0  0  0  0  0  0  0  0
    7.9866   -1.9174   20.1244 H   0  0  0  0  0  0  0  0  0  0  0  0
    6.2666   -2.3700   20.1010 H   0  0  0  0  0  0  0  0  0  0  0  0
    7.0985   -2.0635   21.6300 H   0  0  0  0  0  0  0  0  0  0  0  0
    4.8610    1.0824   19.2779 C   0  0  0  0  0  0  0  0  0  0  0  0
    4.3378    1.2691   20.2163 H   0  0  0  0  0  0  0  0  0  0  0  0
    4.4984    1.7579   18.1137 C   0  0  0  0  0  0  0  0  0  0  0  0
    3.6945    2.4860   18.0972 H   0  0  0  0  0  0  0  0  0  0  0  0
  1  2  1  0
  2  3  2  0
  3  4  1  0
  4  5  1  0
  4  6  2  0
  6  7  1  0
  7  8  1  1
  7  9  1  0
  9 10  2  0
  9 11  1  0
 11 12  2  0
 12 13  1  0
 13 14  2  0
 14 15  1  0
 14 16  1  0
 16 17  1  0
 16 18  2  0
 18 19  1  0
 18 20  1  0
 20 21  1  0
 20 22  2  0
 22 23  1  0
 23 24  1  0
 23 25  2  0
 25 26  1  0
  7 27  1  0
 27 28  1  0
 27 29  1  0
 27 30  1  0
  6 31  1  0
 31 32  1  0
 31 33  2  0
 33 34  1  0
 33  2  1  0
 25 11  1  0
 22 13  1  0
M  END
>  <cnnaffinity>  (1) 
-5.16115

>  <filename>  (1) 
C[C@@H](C(=O)c1ccc2ccccc2n1)c1cccnc1

$$$$
