
     RDKit          3D

 46 49  0  0  0  0  0  0  0  0999 V2000
    4.9726    1.8430   16.9337 H   0  0  0  0  0  0  0  0  0  0  0  0
    5.4087    1.3063   17.7745 C   0  0  0  0  0  0  0  0  0  0  0  0
    6.5482    0.6421   17.5231 N   0  0  0  0  0  0  0  0  0  0  0  0
    7.1274    0.0096   18.5481 C   0  0  0  0  0  0  0  0  0  0  0  0
    8.0347   -0.5429   18.3079 H   0  0  0  0  0  0  0  0  0  0  0  0
    6.6329    0.0343   19.8658 C   0  0  0  0  0  0  0  0  0  0  0  0
    7.4020   -0.5779   20.9544 C   0  0  0  0  0  0  0  0  0  0  0  0
    7.9720   -1.7690   20.7741 N   0  0  0  0  0  0  0  0  0  0  0  0
    8.5636   -2.0022   21.9429 N   0  0  0  0  0  0  0  0  0  0  0  0
    8.4714   -1.0144   22.8397 C   0  0  0  0  0  0  0  0  0  0  0  0
    7.6895   -0.0369   22.2541 C   0  0  0  0  0  0  0  0  0  0  0  0
    7.2430    1.2411   22.9332 C   0  0  0  0  0  0  0  0  0  0  0  0
    8.1041    1.7439   23.4017 H   0  0  0  0  0  0  0  0  0  0  0  0
    6.8592    1.9404   22.1814 H   0  0  0  0  0  0  0  0  0  0  0  0
    6.1575    1.0526   24.0101 C   0  0  0  0  0  0  0  0  0  0  0  0
    5.7587    2.0501   24.2898 H   0  0  0  0  0  0  0  0  0  0  0  0
    5.3181    0.5215   23.5466 H   0  0  0  0  0  0  0  0  0  0  0  0
    6.5952    0.3061   25.1870 N   0  0  0  0  0  0  0  0  0  0  0  0
    7.5020    1.0261   26.0827 C   0  0  0  0  0  0  0  0  0  0  0  0
    8.5326    1.0152   25.6985 H   0  0  0  0  0  0  0  0  0  0  0  0
    7.2134    2.0886   26.1869 H   0  0  0  0  0  0  0  0  0  0  0  0
    7.4002    0.3102   27.4440 C   0  0  0  0  0  0  0  0  0  0  0  0
    8.3539   -0.1474   27.7313 H   0  0  0  0  0  0  0  0  0  0  0  0
    7.1332    1.0263   28.2300 H   0  0  0  0  0  0  0  0  0  0  0  0
    6.3081   -0.7562   27.2545 C   0  0  0  0  0  0  0  0  0  0  0  0
    5.6462   -0.8358   28.1241 H   0  0  0  0  0  0  0  0  0  0  0  0
    6.7593   -1.7416   27.0929 H   0  0  0  0  0  0  0  0  0  0  0  0
    5.5453   -0.3452   25.9852 C   0  0  1  0  0  0  0  0  0  0  0  0
    5.1941   -1.2410   25.4482 H   0  0  0  0  0  0  0  0  0  0  0  0
    4.3220    0.5377   26.2658 C   0  0  0  0  0  0  0  0  0  0  0  0
    4.6058    1.5015   26.7045 H   0  0  0  0  0  0  0  0  0  0  0  0
    3.6402    0.0346   26.9570 H   0  0  0  0  0  0  0  0  0  0  0  0
    3.7733    0.7423   25.3403 H   0  0  0  0  0  0  0  0  0  0  0  0
    9.2885   -1.3551   24.0562 C   0  0  0  0  0  0  0  0  0  0  0  0
    9.9808   -0.5519   24.3276 H   0  0  0  0  0  0  0  0  0  0  0  0
    8.6193   -1.5390   24.9013 H   0  0  0  0  0  0  0  0  0  0  0  0
   10.0483   -2.6460   23.6343 C   0  0  0  0  0  0  0  0  0  0  0  0
    9.9204   -3.4447   24.3659 H   0  0  0  0  0  0  0  0  0  0  0  0
   11.1155   -2.4635   23.5319 H   0  0  0  0  0  0  0  0  0  0  0  0
    9.5019   -3.0431   22.2418 C   0  0  0  0  0  0  0  0  0  0  0  0
    9.0083   -4.0165   22.2174 H   0  0  0  0  0  0  0  0  0  0  0  0
   10.2844   -2.9776   21.4868 H   0  0  0  0  0  0  0  0  0  0  0  0
    5.4035    0.6701   20.0918 C   0  0  0  0  0  0  0  0  0  0  0  0
    4.9302    0.6352   21.0760 H   0  0  0  0  0  0  0  0  0  0  0  0
    4.7848    1.3198   19.0256 C   0  0  0  0  0  0  0  0  0  0  0  0
    3.8447    1.8444   19.1539 H   0  0  0  0  0  0  0  0  0  0  0  0
  1  2  1  0
  2  3  2  0
  3  4  1  0
  4  5  1  0
  4  6  2  0
  6  7  1  0
  7  8  2  0
  8  9  1  0
  9 10  1  0
 10 11  2  0
 11 12  1  0
 12 13  1  0
 12 14  1  0
 12 15  1  0
 15 16  1  0
 15 17  1  0
 15 18  1  0
 18 19  1  0
 19 20  1  0
 19 21  1  0
 19 22  1  0
 22 23  1  0
 22 24  1  0
 22 25  1  0
 25 26  1  0
 25 27  1  0
 25 28  1  0
 28 29  1  6
 28 30  1  0
 30 31  1  0
 30 32  1  0
 30 33  1  0
 10 34  1  0
 34 35  1  0
 34 36  1  0
 34 37  1  0
 37 38  1  0
 37 39  1  0
 37 40  1  0
 40 41  1  0
 40 42  1  0
  6 43  1  0
 43 44  1  0
 43 45  2  0
 45 46  1  0
 45  2  1  0
 11  7  1  0
 28 18  1  0
 40  9  1  0
M  END
>  <cnnaffinity>  (1) 
-5.50769

>  <filename>  (1) 
C[C@@H]1CCCN1CCc1c(-c2cccnc2)nn2c1CCC2

$$$$
