
     RDKit          3D

 41 43  0  0  0  0  0  0  0  0999 V2000
    4.9495    1.8682   16.9982 H   0  0  0  0  0  0  0  0  0  0  0  0
    5.4188    1.3136   17.8086 C   0  0  0  0  0  0  0  0  0  0  0  0
    6.5684    0.6856   17.5116 N   0  0  0  0  0  0  0  0  0  0  0  0
    7.1809    0.0106   18.4984 C   0  0  0  0  0  0  0  0  0  0  0  0
    8.0985   -0.5149   18.2371 H   0  0  0  0  0  0  0  0  0  0  0  0
    6.7004   -0.0700   19.8293 C   0  0  0  0  0  0  0  0  0  0  0  0
    7.3711   -0.7845   20.8422 N   0  0  0  0  0  0  0  0  0  0  0  0
    6.8387   -0.8560   21.7036 H   0  0  0  0  0  0  0  0  0  0  0  0
    8.7768   -0.7308   21.0386 C   0  0  0  0  0  0  0  0  0  0  0  0
    9.7198    0.2744   20.7054 C   0  0  0  0  0  0  0  0  0  0  0  0
    9.5151    1.1932   20.1875 H   0  0  0  0  0  0  0  0  0  0  0  0
   10.9473   -0.0203   21.1268 N   0  0  0  0  0  0  0  0  0  0  0  0
   10.7910   -1.2120   21.7217 N   0  0  0  0  0  0  0  0  0  0  0  0
   11.5757   -1.6468   22.1789 H   0  0  0  0  0  0  0  0  0  0  0  0
    9.5185   -1.6780   21.7120 C   0  0  0  0  0  0  0  0  0  0  0  0
    9.0545   -2.7937   22.5825 C   0  0  0  0  0  0  0  0  0  0  0  0
    8.2133   -3.3073   22.1056 H   0  0  0  0  0  0  0  0  0  0  0  0
    9.8507   -3.5312   22.7418 H   0  0  0  0  0  0  0  0  0  0  0  0
    8.5809   -2.2261   23.9214 C   0  0  0  0  0  0  0  0  0  0  0  0
    7.8472   -1.4405   23.6938 H   0  0  0  0  0  0  0  0  0  0  0  0
    9.4115   -1.7113   24.4491 H   0  0  0  0  0  0  0  0  0  0  0  0
    7.9432   -3.2313   24.7375 N   0  0  0  0  0  0  0  0  0  0  0  0
    6.9880   -2.6815   25.6957 C   0  0  0  0  0  0  0  0  0  0  0  0
    7.2928   -1.6826   26.0638 H   0  0  0  0  0  0  0  0  0  0  0  0
    5.9984   -2.5523   25.2256 H   0  0  0  0  0  0  0  0  0  0  0  0
    6.9970   -3.6895   26.8338 C   0  0  0  0  0  0  0  0  0  0  0  0
    6.3453   -4.5233   26.5561 H   0  0  0  0  0  0  0  0  0  0  0  0
    6.6461   -3.2644   27.7737 H   0  0  0  0  0  0  0  0  0  0  0  0
    8.4521   -4.1581   26.8606 C   0  0  0  0  0  0  0  0  0  0  0  0
    8.6038   -5.0882   27.4240 H   0  0  0  0  0  0  0  0  0  0  0  0
    9.0974   -3.3884   27.3029 H   0  0  0  0  0  0  0  0  0  0  0  0
    8.7954   -4.2618   25.3613 C   0  0  1  0  0  0  0  0  0  0  0  0
    9.8629   -4.0450   25.2047 H   0  0  0  0  0  0  0  0  0  0  0  0
    8.5204   -5.6302   24.7299 C   0  0  0  0  0  0  0  0  0  0  0  0
    7.4895   -5.9492   24.9134 H   0  0  0  0  0  0  0  0  0  0  0  0
    9.1916   -6.3985   25.1325 H   0  0  0  0  0  0  0  0  0  0  0  0
    8.6561   -5.5731   23.6432 H   0  0  0  0  0  0  0  0  0  0  0  0
    5.4784    0.5658   20.1016 C   0  0  0  0  0  0  0  0  0  0  0  0
    5.0474    0.5111   21.1022 H   0  0  0  0  0  0  0  0  0  0  0  0
    4.8319    1.2712   19.0795 C   0  0  0  0  0  0  0  0  0  0  0  0
    3.8949    1.7951   19.2560 H   0  0  0  0  0  0  0  0  0  0  0  0
  1  2  1  0
  2  3  2  0
  3  4  1  0
  4  5  1  0
  4  6  2  0
  6  7  1  0
  7  8  1  0
  7  9  1  0
  9 10  1  0
 10 11  1  0
 10 12  2  0
 12 13  1  0
 13 14  1  0
 13 15  1  0
 15 16  1  0
 16 17  1  0
 16 18  1  0
 16 19  1  0
 19 20  1  0
 19 21  1  0
 19 22  1  0
 22 23  1  0
 23 24  1  0
 23 25  1  0
 23 26  1  0
 26 27  1  0
 26 28  1  0
 26 29  1  0
 29 30  1  0
 29 31  1  0
 29 32  1  0
 32 33  1  1
 32 34  1  0
 34 35  1  0
 34 36  1  0
 34 37  1  0
  6 38  1  0
 38 39  1  0
 38 40  2  0
 40 41  1  0
 40  2  1  0
 15  9  2  0
 32 22  1  0
M  END
>  <cnnaffinity>  (1) 
-5.65471

>  <filename>  (1) 
C[C@@H]1CCCN1CCc1[nH]ncc1Nc1cccnc1

$$$$
