
     RDKit          3D

 35 37  0  0  0  0  0  0  0  0999 V2000
    4.9825    1.8303   16.9309 H   0  0  0  0  0  0  0  0  0  0  0  0
    5.4326    1.3119   17.7752 C   0  0  0  0  0  0  0  0  0  0  0  0
    6.5789    0.6579   17.5304 N   0  0  0  0  0  0  0  0  0  0  0  0
    7.1629    0.0264   18.5528 C   0  0  0  0  0  0  0  0  0  0  0  0
    8.0743   -0.5203   18.3267 H   0  0  0  0  0  0  0  0  0  0  0  0
    6.6575    0.0097   19.8642 C   0  0  0  0  0  0  0  0  0  0  0  0
    7.3450   -0.7006   20.8843 N   0  0  0  0  0  0  0  0  0  0  0  0
    6.7541   -1.4238   21.8962 C   0  0  0  0  0  0  0  0  0  0  0  0
    5.6822   -1.5185   21.9227 H   0  0  0  0  0  0  0  0  0  0  0  0
    7.7259   -1.9779   22.6745 C   0  0  0  0  0  0  0  0  0  0  0  0
    7.5816   -2.5601   23.5779 H   0  0  0  0  0  0  0  0  0  0  0  0
    8.9878   -1.6216   22.1192 C   0  0  0  0  0  0  0  0  0  0  0  0
   10.3610   -1.9300   22.6897 C   0  0  1  0  0  0  0  0  0  0  0  0
   11.0385   -2.0778   21.8365 H   0  0  0  0  0  0  0  0  0  0  0  0
   10.8873   -0.7398   23.5012 C   0  0  0  0  0  0  0  0  0  0  0  0
   12.0029    0.0005   23.0725 C   0  0  0  0  0  0  0  0  0  0  0  0
   12.6006   -0.3455   22.2266 H   0  0  0  0  0  0  0  0  0  0  0  0
   12.3754    1.1689   23.7449 C   0  0  0  0  0  0  0  0  0  0  0  0
   13.2118    1.7676   23.3928 H   0  0  0  0  0  0  0  0  0  0  0  0
   11.6595    1.5883   24.8678 C   0  0  0  0  0  0  0  0  0  0  0  0
   11.9469    2.5045   25.3572 H   0  0  0  0  0  0  0  0  0  0  0  0
   10.5895    0.8220   25.3454 C   0  0  0  0  0  0  0  0  0  0  0  0
   10.0375    1.1445   26.2240 H   0  0  0  0  0  0  0  0  0  0  0  0
   10.2203   -0.3454   24.6768 C   0  0  0  0  0  0  0  0  0  0  0  0
    9.4109   -0.9596   25.0850 H   0  0  0  0  0  0  0  0  0  0  0  0
   10.3852   -3.2224   23.5273 C   0  0  0  0  0  0  0  0  0  0  0  0
   11.4133   -3.5872   23.6563 H   0  0  0  0  0  0  0  0  0  0  0  0
    9.7896   -4.0097   23.0521 H   0  0  0  0  0  0  0  0  0  0  0  0
    9.9596   -3.0714   24.5277 H   0  0  0  0  0  0  0  0  0  0  0  0
    8.7148   -0.8318   21.0295 C   0  0  0  0  0  0  0  0  0  0  0  0
    9.3765   -0.3235   20.3460 H   0  0  0  0  0  0  0  0  0  0  0  0
    5.4552    0.6938   20.1110 C   0  0  0  0  0  0  0  0  0  0  0  0
    5.0335    0.7390   21.1146 H   0  0  0  0  0  0  0  0  0  0  0  0
    4.8350    1.3395   19.0390 C   0  0  0  0  0  0  0  0  0  0  0  0
    3.8976    1.8652   19.1726 H   0  0  0  0  0  0  0  0  0  0  0  0
  1  2  1  0
  2  3  2  0
  3  4  1  0
  4  5  1  0
  4  6  2  0
  6  7  1  0
  7  8  1  0
  8  9  1  0
  8 10  2  0
 10 11  1  0
 10 12  1  0
 12 13  1  0
 13 14  1  6
 13 15  1  0
 15 16  2  0
 16 17  1  0
 16 18  1  0
 18 19  1  0
 18 20  2  0
 20 21  1  0
 20 22  1  0
 22 23  1  0
 22 24  2  0
 24 25  1  0
 13 26  1  0
 26 27  1  0
 26 28  1  0
 26 29  1  0
 12 30  2  0
 30 31  1  0
  6 32  1  0
 32 33  1  0
 32 34  2  0
 34 35  1  0
 34  2  1  0
 30  7  1  0
 24 15  1  0
M  END
>  <cnnaffinity>  (1) 
-5.1618

>  <filename>  (1) 
C[C@H](c1ccccc1)c1ccn(-c2cccnc2)c1

$$$$
