
     RDKit          3D

 35 37  0  0  0  0  0  0  0  0999 V2000
    4.9524    1.9005   16.9677 H   0  0  0  0  0  0  0  0  0  0  0  0
    5.4187    1.3453   17.7821 C   0  0  0  0  0  0  0  0  0  0  0  0
    6.5724    0.7252   17.4894 N   0  0  0  0  0  0  0  0  0  0  0  0
    7.1931    0.0462   18.4598 C   0  0  0  0  0  0  0  0  0  0  0  0
    8.1278   -0.4477   18.1905 H   0  0  0  0  0  0  0  0  0  0  0  0
    6.6855   -0.0648   19.7675 C   0  0  0  0  0  0  0  0  0  0  0  0
    7.3866   -0.8128   20.7662 N   0  0  0  0  0  0  0  0  0  0  0  0
    8.7073   -0.5751   21.1555 C   0  0  0  0  0  0  0  0  0  0  0  0
    9.2480    0.2638   20.7409 H   0  0  0  0  0  0  0  0  0  0  0  0
    9.0458   -1.5050   22.0843 C   0  0  0  0  0  0  0  0  0  0  0  0
   10.3369   -1.7132   22.8542 C   0  0  1  0  0  0  0  0  0  0  0  0
   11.1430   -1.5508   22.1244 H   0  0  0  0  0  0  0  0  0  0  0  0
   10.4622   -0.6534   23.9553 C   0  0  0  0  0  0  0  0  0  0  0  0
    9.5520   -0.7007   25.0252 C   0  0  0  0  0  0  0  0  0  0  0  0
    8.9499   -1.5931   25.2009 H   0  0  0  0  0  0  0  0  0  0  0  0
    9.4139    0.3862   25.8816 C   0  0  0  0  0  0  0  0  0  0  0  0
    8.6774    0.3679   26.6800 H   0  0  0  0  0  0  0  0  0  0  0  0
   10.2163    1.5143   25.7051 C   0  0  0  0  0  0  0  0  0  0  0  0
   10.0224    2.3805   26.3235 H   0  0  0  0  0  0  0  0  0  0  0  0
   11.2278    1.5186   24.7396 C   0  0  0  0  0  0  0  0  0  0  0  0
   11.8832    2.3822   24.6483 H   0  0  0  0  0  0  0  0  0  0  0  0
   11.3657    0.4213   23.8782 C   0  0  0  0  0  0  0  0  0  0  0  0
   12.1896    0.3940   23.1616 H   0  0  0  0  0  0  0  0  0  0  0  0
   10.4466   -3.1428   23.4227 C   0  0  0  0  0  0  0  0  0  0  0  0
   11.4887   -3.4350   23.5839 H   0  0  0  0  0  0  0  0  0  0  0  0
    9.9386   -3.2442   24.3876 H   0  0  0  0  0  0  0  0  0  0  0  0
    9.9812   -3.8502   22.7362 H   0  0  0  0  0  0  0  0  0  0  0  0
    7.8992   -2.2680   22.2626 N   0  0  0  0  0  0  0  0  0  0  0  0
    7.7069   -3.0009   22.9240 H   0  0  0  0  0  0  0  0  0  0  0  0
    6.8794   -1.8923   21.4548 C   0  0  0  0  0  0  0  0  0  0  0  0
    5.4337   -2.7170   21.3851 S   0  0  0  0  0  0  0  0  0  0  0  0
    5.4651    0.5538   20.0618 C   0  0  0  0  0  0  0  0  0  0  0  0
    5.0407    0.4584   21.0616 H   0  0  0  0  0  0  0  0  0  0  0  0
    4.8319    1.2856   19.0508 C   0  0  0  0  0  0  0  0  0  0  0  0
    3.9034    1.8153   19.2267 H   0  0  0  0  0  0  0  0  0  0  0  0
  1  2  1  0
  2  3  2  0
  3  4  1  0
  4  5  1  0
  4  6  2  0
  6  7  1  0
  7  8  1  0
  8  9  1  0
  8 10  2  0
 10 11  1  0
 11 12  1  6
 11 13  1  0
 13 14  2  0
 14 15  1  0
 14 16  1  0
 16 17  1  0
 16 18  2  0
 18 19  1  0
 18 20  1  0
 20 21  1  0
 20 22  2  0
 22 23  1  0
 11 24  1  0
 24 25  1  0
 24 26  1  0
 24 27  1  0
 10 28  1  0
 28 29  1  0
 28 30  1  0
 30 31  2  0
  6 32  1  0
 32 33  1  0
 32 34  2  0
 34 35  1  0
 34  2  1  0
 30  7  1  0
 22 13  1  0
M  END
>  <cnnaffinity>  (1) 
-5.47693

>  <filename>  (1) 
C[C@H](c1ccccc1)c1cn(-c2cccnc2)c(=S)[nH]1

$$$$
