
     RDKit          3D

 40 41  0  0  0  0  0  0  0  0999 V2000
    4.9962    1.7288   16.7073 H   0  0  0  0  0  0  0  0  0  0  0  0
    5.4925    1.3632   17.6007 C   0  0  0  0  0  0  0  0  0  0  0  0
    6.7217    0.8461   17.4318 N   0  0  0  0  0  0  0  0  0  0  0  0
    7.3617    0.3989   18.5259 C   0  0  0  0  0  0  0  0  0  0  0  0
    8.3598   -0.0084   18.3612 H   0  0  0  0  0  0  0  0  0  0  0  0
    6.8122    0.3967   19.8369 C   0  0  0  0  0  0  0  0  0  0  0  0
    7.4177   -0.2008   20.9726 N   0  0  0  0  0  0  0  0  0  0  0  0
    8.8650   -0.1922   21.0752 C   0  0  0  0  0  0  0  0  0  0  0  0
    9.1692   -0.7290   21.9788 H   0  0  0  0  0  0  0  0  0  0  0  0
    9.2211    0.8411   21.1760 H   0  0  0  0  0  0  0  0  0  0  0  0
    9.3887   -0.6519   20.2210 H   0  0  0  0  0  0  0  0  0  0  0  0
    6.6544   -1.2805   21.6051 C   0  0  0  0  0  0  0  0  0  0  0  0
    7.2087   -1.6718   22.4672 H   0  0  0  0  0  0  0  0  0  0  0  0
    5.7382   -0.8298   21.9987 H   0  0  0  0  0  0  0  0  0  0  0  0
    6.3112   -2.4083   20.6308 C   0  0  0  0  0  0  0  0  0  0  0  0
    5.8198   -1.9886   19.7472 H   0  0  0  0  0  0  0  0  0  0  0  0
    7.2532   -2.8448   20.3016 H   0  0  0  0  0  0  0  0  0  0  0  0
    5.4733   -3.5353   21.2040 C   0  0  0  0  0  0  0  0  0  0  0  0
    4.4987   -3.1624   21.5492 H   0  0  0  0  0  0  0  0  0  0  0  0
    5.2655   -4.2672   20.4023 H   0  0  0  0  0  0  0  0  0  0  0  0
    6.1432   -4.1632   22.3166 N   0  0  0  0  0  0  0  0  0  0  0  0
    7.3567   -4.9158   22.0434 C   0  0  0  0  0  0  0  0  0  0  0  0
    8.1850   -4.2417   21.7999 H   0  0  0  0  0  0  0  0  0  0  0  0
    7.2509   -5.6136   21.1900 H   0  0  0  0  0  0  0  0  0  0  0  0
    7.6038   -5.6667   23.3489 C   0  0  0  0  0  0  0  0  0  0  0  0
    8.0854   -4.9914   24.0674 H   0  0  0  0  0  0  0  0  0  0  0  0
    8.2440   -6.5491   23.2237 H   0  0  0  0  0  0  0  0  0  0  0  0
    6.1772   -5.9988   23.7963 C   0  0  0  0  0  0  0  0  0  0  0  0
    6.0776   -6.1782   24.8703 H   0  0  0  0  0  0  0  0  0  0  0  0
    5.8281   -6.9077   23.2956 H   0  0  0  0  0  0  0  0  0  0  0  0
    5.3238   -4.8127   23.3268 C   0  0  1  0  0  0  0  0  0  0  0  0
    4.3749   -5.1993   22.9089 H   0  0  0  0  0  0  0  0  0  0  0  0
    5.0059   -3.7866   24.4076 C   0  0  0  0  0  0  0  0  0  0  0  0
    4.4264   -2.9784   23.9563 H   0  0  0  0  0  0  0  0  0  0  0  0
    5.9382   -3.3572   24.7944 H   0  0  0  0  0  0  0  0  0  0  0  0
    4.4157   -4.2036   25.2292 H   0  0  0  0  0  0  0  0  0  0  0  0
    5.5256    0.9569   19.9740 C   0  0  0  0  0  0  0  0  0  0  0  0
    5.0882    1.0159   20.9700 H   0  0  0  0  0  0  0  0  0  0  0  0
    4.8575    1.4437   18.8464 C   0  0  0  0  0  0  0  0  0  0  0  0
    3.8653    1.8784   18.9291 H   0  0  0  0  0  0  0  0  0  0  0  0
  1  2  1  0
  2  3  2  0
  3  4  1  0
  4  5  1  0
  4  6  2  0
  6  7  1  0
  7  8  1  0
  8  9  1  0
  8 10  1  0
  8 11  1  0
  7 12  1  0
 12 13  1  0
 12 14  1  0
 12 15  1  0
 15 16  1  0
 15 17  1  0
 15 18  1  0
 18 19  1  0
 18 20  1  0
 18 21  1  0
 21 22  1  0
 22 23  1  0
 22 24  1  0
 22 25  1  0
 25 26  1  0
 25 27  1  0
 25 28  1  0
 28 29  1  0
 28 30  1  0
 28 31  1  0
 31 32  1  6
 31 33  1  0
 33 34  1  0
 33 35  1  0
 33 36  1  0
  6 37  1  0
 37 38  1  0
 37 39  2  0
 39 40  1  0
 39  2  1  0
 31 21  1  0
M  END
>  <cnnaffinity>  (1) 
-4.39952

>  <filename>  (1) 
C[C@@H]1CCCN1CCCN(C)c1cccnc1

$$$$
