
     RDKit          3D

 29 30  0  0  0  0  0  0  0  0999 V2000
    5.0736    1.8787   16.9662 H   0  0  0  0  0  0  0  0  0  0  0  0
    5.4850    1.3306   17.8144 C   0  0  0  0  0  0  0  0  0  0  0  0
    6.6513    0.7028   17.6006 N   0  0  0  0  0  0  0  0  0  0  0  0
    7.1746    0.0287   18.6349 C   0  0  0  0  0  0  0  0  0  0  0  0
    8.1320   -0.4550   18.4422 H   0  0  0  0  0  0  0  0  0  0  0  0
    6.5804   -0.0913   19.9079 C   0  0  0  0  0  0  0  0  0  0  0  0
    7.2803   -0.8519   21.0410 C   0  0  2  0  0  0  0  0  0  0  0  0
    8.1842   -1.3027   20.6029 H   0  0  0  0  0  0  0  0  0  0  0  0
    6.4993   -2.1094   21.5727 C   0  0  0  0  0  0  0  0  0  0  0  0
    5.5176   -2.5229   21.0062 O   0  0  0  0  0  0  0  0  0  0  0  0
    7.1047   -2.8661   22.7431 C   0  0  0  0  0  0  0  0  0  0  0  0
    8.5025   -3.0291   22.8886 C   0  0  0  0  0  0  0  0  0  0  0  0
    9.1921   -2.6481   22.1328 H   0  0  0  0  0  0  0  0  0  0  0  0
    9.0546   -3.6713   23.9981 C   0  0  0  0  0  0  0  0  0  0  0  0
   10.1226   -3.8209   24.0832 H   0  0  0  0  0  0  0  0  0  0  0  0
    8.2122   -4.1336   25.0098 C   0  0  0  0  0  0  0  0  0  0  0  0
    8.8884   -4.8298   26.4497 Cl  0  0  0  0  0  0  0  0  0  0  0  0
    6.8285   -4.0451   24.8787 C   0  0  0  0  0  0  0  0  0  0  0  0
    6.1886   -4.4561   25.6517 H   0  0  0  0  0  0  0  0  0  0  0  0
    6.2837   -3.4417   23.7390 C   0  0  0  0  0  0  0  0  0  0  0  0
    4.5543   -3.4382   23.6227 Cl  0  0  0  0  0  0  0  0  0  0  0  0
    7.7579    0.1371   22.1256 C   0  0  0  0  0  0  0  0  0  0  0  0
    8.3864   -0.3612   22.8684 H   0  0  0  0  0  0  0  0  0  0  0  0
    6.9265    0.6241   22.6518 H   0  0  0  0  0  0  0  0  0  0  0  0
    8.3587    0.9241   21.6561 H   0  0  0  0  0  0  0  0  0  0  0  0
    5.3725    0.5918   20.1061 C   0  0  0  0  0  0  0  0  0  0  0  0
    4.8846    0.5681   21.0831 H   0  0  0  0  0  0  0  0  0  0  0  0
    4.8103    1.3058   19.0396 C   0  0  0  0  0  0  0  0  0  0  0  0
    3.8790    1.8529   19.1467 H   0  0  0  0  0  0  0  0  0  0  0  0
  1  2  1  0
  2  3  2  0
  3  4  1  0
  4  5  1  0
  4  6  2  0
  6  7  1  0
  7  8  1  6
  7  9  1  0
  9 10  2  0
  9 11  1  0
 11 12  2  0
 12 13  1  0
 12 14  1  0
 14 15  1  0
 14 16  2  0
 16 17  1  0
 16 18  1  0
 18 19  1  0
 18 20  2  0
 20 21  1  0
  7 22  1  0
 22 23  1  0
 22 24  1  0
 22 25  1  0
  6 26  1  0
 26 27  1  0
 26 28  2  0
 28 29  1  0
 28  2  1  0
 20 11  1  0
M  END
>  <cnnaffinity>  (1) 
-5.00992

>  <filename>  (1) 
C[C@@H](C(=O)c1ccc(Cl)cc1Cl)c1cccnc1

$$$$
