
     RDKit          3D

 41 42  0  0  0  0  0  0  0  0999 V2000
    5.0054    1.6442   16.8672 H   0  0  0  0  0  0  0  0  0  0  0  0
    5.4538    1.2494   17.7761 C   0  0  0  0  0  0  0  0  0  0  0  0
    6.6235    0.6148   17.6238 N   0  0  0  0  0  0  0  0  0  0  0  0
    7.1932    0.1169   18.7250 C   0  0  0  0  0  0  0  0  0  0  0  0
    8.1426   -0.3975   18.5705 H   0  0  0  0  0  0  0  0  0  0  0  0
    6.6399    0.2137   20.0048 C   0  0  0  0  0  0  0  0  0  0  0  0
    7.3721   -0.4042   21.1582 C   0  0  0  0  0  0  0  0  0  0  0  0
    7.6354    0.2375   22.1446 O   0  0  0  0  0  0  0  0  0  0  0  0
    7.7903   -1.9186   20.9749 C   0  0  1  0  0  0  0  0  0  0  0  0
    8.5197   -1.8743   20.1595 H   0  0  0  0  0  0  0  0  0  0  0  0
    8.5010   -2.5319   22.1016 N   0  0  0  0  0  0  0  0  0  0  0  0
    9.4814   -2.3463   22.2307 H   0  0  0  0  0  0  0  0  0  0  0  0
    7.8515   -3.0387   23.1878 C   0  0  0  0  0  0  0  0  0  0  0  0
    6.6370   -3.0523   23.2825 O   0  0  0  0  0  0  0  0  0  0  0  0
    8.7034   -3.6381   24.1061 N   0  0  0  0  0  0  0  0  0  0  0  0
    9.5166   -3.0710   24.2809 H   0  0  0  0  0  0  0  0  0  0  0  0
    8.0545   -4.1827   25.2912 C   0  0  0  0  0  0  0  0  0  0  0  0
    7.2477   -4.8412   24.9293 H   0  0  0  0  0  0  0  0  0  0  0  0
    7.4015   -3.0729   26.1366 C   0  0  0  0  0  0  0  0  0  0  0  0
    6.7861   -2.4494   25.4827 H   0  0  0  0  0  0  0  0  0  0  0  0
    8.1931   -2.4249   26.5503 H   0  0  0  0  0  0  0  0  0  0  0  0
    6.5674   -3.7086   27.2483 C   0  0  0  0  0  0  0  0  0  0  0  0
    6.0808   -2.9316   27.8506 H   0  0  0  0  0  0  0  0  0  0  0  0
    5.7599   -4.3038   26.7913 H   0  0  0  0  0  0  0  0  0  0  0  0
    7.4605   -4.6182   28.1032 C   0  0  0  0  0  0  0  0  0  0  0  0
    6.9011   -5.0475   28.9419 H   0  0  0  0  0  0  0  0  0  0  0  0
    8.2498   -3.9886   28.5193 H   0  0  0  0  0  0  0  0  0  0  0  0
    8.1774   -5.6947   27.2762 C   0  0  0  0  0  0  0  0  0  0  0  0
    7.4376   -6.3910   26.8513 H   0  0  0  0  0  0  0  0  0  0  0  0
    8.8156   -6.2833   27.9394 H   0  0  0  0  0  0  0  0  0  0  0  0
    8.9898   -5.0457   26.1381 C   0  0  0  0  0  0  0  0  0  0  0  0
    9.7886   -4.4134   26.5596 H   0  0  0  0  0  0  0  0  0  0  0  0
    9.4763   -5.8049   25.5173 H   0  0  0  0  0  0  0  0  0  0  0  0
    6.5981   -2.7788   20.5076 C   0  0  0  0  0  0  0  0  0  0  0  0
    5.7344   -2.6700   21.1683 H   0  0  0  0  0  0  0  0  0  0  0  0
    6.3225   -2.5131   19.4812 H   0  0  0  0  0  0  0  0  0  0  0  0
    6.8815   -3.8318   20.5405 H   0  0  0  0  0  0  0  0  0  0  0  0
    5.4151    0.8860   20.1580 C   0  0  0  0  0  0  0  0  0  0  0  0
    4.9404    0.9833   21.1396 H   0  0  0  0  0  0  0  0  0  0  0  0
    4.8097    1.3953   19.0105 C   0  0  0  0  0  0  0  0  0  0  0  0
    3.8606    1.9168   19.0579 H   0  0  0  0  0  0  0  0  0  0  0  0
  1  2  1  0
  2  3  2  0
  3  4  1  0
  4  5  1  0
  4  6  2  0
  6  7  1  0
  7  8  2  0
  7  9  1  0
  9 10  1  6
  9 11  1  0
 11 12  1  0
 11 13  1  0
 13 14  2  0
 13 15  1  0
 15 16  1  0
 15 17  1  0
 17 18  1  0
 17 19  1  0
 19 20  1  0
 19 21  1  0
 19 22  1  0
 22 23  1  0
 22 24  1  0
 22 25  1  0
 25 26  1  0
 25 27  1  0
 25 28  1  0
 28 29  1  0
 28 30  1  0
 28 31  1  0
 31 32  1  0
 31 33  1  0
  9 34  1  0
 34 35  1  0
 34 36  1  0
 34 37  1  0
  6 38  1  0
 38 39  1  0
 38 40  2  0
 40 41  1  0
 40  2  1  0
 31 17  1  0
M  END
>  <cnnaffinity>  (1) 
-4.14472

>  <filename>  (1) 
C[C@H](NC(=O)NC1CCCCC1)C(=O)c1cccnc1

$$$$
