
     RDKit          3D

 37 38  0  0  0  0  0  0  0  0999 V2000
    4.9717    1.8015   16.9267 H   0  0  0  0  0  0  0  0  0  0  0  0
    5.4097    1.2893   17.7836 C   0  0  0  0  0  0  0  0  0  0  0  0
    6.5456    0.6141   17.5593 N   0  0  0  0  0  0  0  0  0  0  0  0
    7.1076    0.0025   18.6118 C   0  0  0  0  0  0  0  0  0  0  0  0
    8.0180   -0.5565   18.4052 H   0  0  0  0  0  0  0  0  0  0  0  0
    6.6095    0.0622   19.9209 C   0  0  0  0  0  0  0  0  0  0  0  0
    7.3806   -0.6923   20.9730 C   0  0  0  0  0  0  0  0  0  0  0  0
    7.1831   -0.2876   21.9821 H   0  0  0  0  0  0  0  0  0  0  0  0
    8.4546   -0.5570   20.7842 H   0  0  0  0  0  0  0  0  0  0  0  0
    7.0871   -2.1133   20.8238 N   0  0  0  0  0  0  0  0  0  0  0  0
    6.0820   -2.2423   20.8436 H   0  0  0  0  0  0  0  0  0  0  0  0
    7.7689   -3.0459   21.7323 C   0  0  0  0  0  0  0  0  0  0  0  0
    7.4526   -4.0652   21.4683 H   0  0  0  0  0  0  0  0  0  0  0  0
    8.8477   -2.9933   21.5249 H   0  0  0  0  0  0  0  0  0  0  0  0
    7.5715   -2.8472   23.2603 C   0  0  0  0  0  0  0  0  0  0  0  0
    7.8326   -1.7990   23.5196 H   0  0  0  0  0  0  0  0  0  0  0  0
    6.5032   -2.9722   23.4895 H   0  0  0  0  0  0  0  0  0  0  0  0
    8.3297   -3.8055   24.0709 N   0  0  0  0  0  0  0  0  0  0  0  0
    9.7818   -3.6402   24.0512 C   0  0  0  0  0  0  0  0  0  0  0  0
   10.1761   -3.9422   23.0789 H   0  0  0  0  0  0  0  0  0  0  0  0
   10.0872   -2.5876   24.2092 H   0  0  0  0  0  0  0  0  0  0  0  0
   10.2976   -4.5121   25.2072 C   0  0  0  0  0  0  0  0  0  0  0  0
   11.0309   -3.9622   25.7954 H   0  0  0  0  0  0  0  0  0  0  0  0
   10.7853   -5.4269   24.8521 H   0  0  0  0  0  0  0  0  0  0  0  0
    9.0430   -4.8334   26.0416 C   0  0  0  0  0  0  0  0  0  0  0  0
    9.2095   -4.6886   27.1151 H   0  0  0  0  0  0  0  0  0  0  0  0
    8.7454   -5.8743   25.8860 H   0  0  0  0  0  0  0  0  0  0  0  0
    7.9333   -3.9225   25.4832 C   0  0  1  0  0  0  0  0  0  0  0  0
    6.9683   -4.4458   25.5289 H   0  0  0  0  0  0  0  0  0  0  0  0
    7.7698   -2.5840   26.2293 C   0  0  0  0  0  0  0  0  0  0  0  0
    8.6666   -1.9523   26.1599 H   0  0  0  0  0  0  0  0  0  0  0  0
    7.5586   -2.7599   27.2902 H   0  0  0  0  0  0  0  0  0  0  0  0
    6.9203   -2.0289   25.8112 H   0  0  0  0  0  0  0  0  0  0  0  0
    5.4076    0.7491   20.1326 C   0  0  0  0  0  0  0  0  0  0  0  0
    4.9475    0.8165   21.1206 H   0  0  0  0  0  0  0  0  0  0  0  0
    4.7937    1.3628   19.0338 C   0  0  0  0  0  0  0  0  0  0  0  0
    3.8554    1.8954   19.1364 H   0  0  0  0  0  0  0  0  0  0  0  0
  1  2  1  0
  2  3  2  0
  3  4  1  0
  4  5  1  0
  4  6  2  0
  6  7  1  0
  7  8  1  0
  7  9  1  0
  7 10  1  0
 10 11  1  0
 10 12  1  0
 12 13  1  0
 12 14  1  0
 12 15  1  0
 15 16  1  0
 15 17  1  0
 15 18  1  0
 18 19  1  0
 19 20  1  0
 19 21  1  0
 19 22  1  0
 22 23  1  0
 22 24  1  0
 22 25  1  0
 25 26  1  0
 25 27  1  0
 25 28  1  0
 28 29  1  6
 28 30  1  0
 30 31  1  0
 30 32  1  0
 30 33  1  0
  6 34  1  0
 34 35  1  0
 34 36  2  0
 36 37  1  0
 36  2  1  0
 28 18  1  0
M  END
>  <cnnaffinity>  (1) 
-4.11839

>  <filename>  (1) 
C[C@@H]1CCCN1CCNCc1cccnc1

$$$$
