
     RDKit          3D

 37 39  0  0  0  0  0  0  0  0999 V2000
    4.9200    1.8049   16.8758 H   0  0  0  0  0  0  0  0  0  0  0  0
    5.4038    1.3175   17.7199 C   0  0  0  0  0  0  0  0  0  0  0  0
    6.5547    0.6789   17.4579 N   0  0  0  0  0  0  0  0  0  0  0  0
    7.1933    0.0893   18.4763 C   0  0  0  0  0  0  0  0  0  0  0  0
    8.1327   -0.4060   18.2417 H   0  0  0  0  0  0  0  0  0  0  0  0
    6.7099    0.0946   19.7991 C   0  0  0  0  0  0  0  0  0  0  0  0
    7.4284   -0.5407   20.8770 N   0  0  0  0  0  0  0  0  0  0  0  0
    6.7637   -1.4650   21.6571 C   0  0  0  0  0  0  0  0  0  0  0  0
    5.7195   -1.6201   21.3941 H   0  0  0  0  0  0  0  0  0  0  0  0
    7.3383   -2.1055   22.7192 C   0  0  0  0  0  0  0  0  0  0  0  0
    6.5480   -3.2260   23.3923 C   0  0  1  0  0  0  0  0  0  0  0  0
    5.4863   -2.9859   23.2288 H   0  0  0  0  0  0  0  0  0  0  0  0
    6.7706   -4.6171   22.7851 C   0  0  0  0  0  0  0  0  0  0  0  0
    8.0001   -5.2893   22.9136 C   0  0  0  0  0  0  0  0  0  0  0  0
    8.8730   -4.7445   23.2765 H   0  0  0  0  0  0  0  0  0  0  0  0
    8.0984   -6.6509   22.6106 C   0  0  0  0  0  0  0  0  0  0  0  0
    9.0328   -7.1798   22.7901 H   0  0  0  0  0  0  0  0  0  0  0  0
    6.9860   -7.3404   22.1161 C   0  0  0  0  0  0  0  0  0  0  0  0
    7.0441   -8.4115   21.9435 H   0  0  0  0  0  0  0  0  0  0  0  0
    5.7888   -6.6554   21.8793 C   0  0  0  0  0  0  0  0  0  0  0  0
    4.9289   -7.1578   21.4496 H   0  0  0  0  0  0  0  0  0  0  0  0
    5.6835   -5.3063   22.2244 C   0  0  0  0  0  0  0  0  0  0  0  0
    4.7316   -4.7927   22.0974 H   0  0  0  0  0  0  0  0  0  0  0  0
    6.7429   -3.2981   24.9136 C   0  0  0  0  0  0  0  0  0  0  0  0
    6.5417   -2.3336   25.3882 H   0  0  0  0  0  0  0  0  0  0  0  0
    6.0698   -4.0523   25.3344 H   0  0  0  0  0  0  0  0  0  0  0  0
    7.7587   -3.6100   25.1774 H   0  0  0  0  0  0  0  0  0  0  0  0
    8.6486   -1.6948   23.1185 C   0  0  0  0  0  0  0  0  0  0  0  0
    9.0902   -2.0816   24.0420 H   0  0  0  0  0  0  0  0  0  0  0  0
    9.3407   -0.7889   22.3662 C   0  0  0  0  0  0  0  0  0  0  0  0
   10.3456   -0.4683   22.5932 H   0  0  0  0  0  0  0  0  0  0  0  0
    8.7947   -0.1795   21.1621 C   0  0  0  0  0  0  0  0  0  0  0  0
    9.4206    0.5850   20.4480 O   0  0  0  0  0  0  0  0  0  0  0  0
    5.4959    0.7420   20.0537 C   0  0  0  0  0  0  0  0  0  0  0  0
    5.1098    0.7617   21.0737 H   0  0  0  0  0  0  0  0  0  0  0  0
    4.8348    1.3732   18.9959 C   0  0  0  0  0  0  0  0  0  0  0  0
    3.8987    1.8963   19.1479 H   0  0  0  0  0  0  0  0  0  0  0  0
  1  2  1  0
  2  3  2  0
  3  4  1  0
  4  5  1  0
  4  6  2  0
  6  7  1  0
  7  8  1  0
  8  9  1  0
  8 10  2  0
 10 11  1  0
 11 12  1  1
 11 13  1  0
 13 14  2  0
 14 15  1  0
 14 16  1  0
 16 17  1  0
 16 18  2  0
 18 19  1  0
 18 20  1  0
 20 21  1  0
 20 22  2  0
 22 23  1  0
 11 24  1  0
 24 25  1  0
 24 26  1  0
 24 27  1  0
 10 28  1  0
 28 29  1  0
 28 30  2  0
 30 31  1  0
 30 32  1  0
 32 33  2  0
  6 34  1  0
 34 35  1  0
 34 36  2  0
 36 37  1  0
 36  2  1  0
 32  7  1  0
 22 13  1  0
M  END
>  <cnnaffinity>  (1) 
-5.64817

>  <filename>  (1) 
C[C@H](c1ccccc1)c1ccc(=O)n(-c2cccnc2)c1

$$$$
