
     RDKit          3D

 41 42  0  0  0  0  0  0  0  0999 V2000
    5.0391    1.9102   16.9347 H   0  0  0  0  0  0  0  0  0  0  0  0
    5.4823    1.3537   17.7578 C   0  0  0  0  0  0  0  0  0  0  0  0
    6.6463    0.7409   17.5012 N   0  0  0  0  0  0  0  0  0  0  0  0
    7.2255    0.0763   18.5100 C   0  0  0  0  0  0  0  0  0  0  0  0
    8.1708   -0.4092   18.2809 H   0  0  0  0  0  0  0  0  0  0  0  0
    6.6745   -0.0375   19.8081 C   0  0  0  0  0  0  0  0  0  0  0  0
    7.3517   -0.7433   20.8561 N   0  0  0  0  0  0  0  0  0  0  0  0
    6.6728   -1.7962   21.4834 C   0  0  0  0  0  0  0  0  0  0  0  0
    5.6157   -2.2520   21.0838 O   0  0  0  0  0  0  0  0  0  0  0  0
    7.3278   -2.3019   22.5785 N   0  0  0  0  0  0  0  0  0  0  0  0
    7.9465   -1.6267   22.9931 H   0  0  0  0  0  0  0  0  0  0  0  0
    6.6109   -3.1861   23.4842 C   0  0  0  0  0  0  0  0  0  0  0  0
    5.6053   -2.8045   23.7186 H   0  0  0  0  0  0  0  0  0  0  0  0
    6.4616   -4.1436   22.9706 H   0  0  0  0  0  0  0  0  0  0  0  0
    7.3916   -3.3725   24.7801 C   0  0  0  0  0  0  0  0  0  0  0  0
    8.4250   -3.6937   24.5250 H   0  0  0  0  0  0  0  0  0  0  0  0
    7.4654   -2.3869   25.2685 H   0  0  0  0  0  0  0  0  0  0  0  0
    6.7438   -4.2903   25.7049 N   0  0  0  0  0  0  0  0  0  0  0  0
    7.3268   -4.2520   27.0410 C   0  0  0  0  0  0  0  0  0  0  0  0
    6.9730   -3.3488   27.5575 H   0  0  0  0  0  0  0  0  0  0  0  0
    8.4380   -4.2073   27.0266 H   0  0  0  0  0  0  0  0  0  0  0  0
    6.8764   -5.5618   27.6836 C   0  0  0  0  0  0  0  0  0  0  0  0
    7.5482   -5.8817   28.4872 H   0  0  0  0  0  0  0  0  0  0  0  0
    5.8705   -5.4724   28.1131 H   0  0  0  0  0  0  0  0  0  0  0  0
    6.9165   -6.5287   26.4887 C   0  0  0  0  0  0  0  0  0  0  0  0
    6.2406   -7.3861   26.5873 H   0  0  0  0  0  0  0  0  0  0  0  0
    7.9382   -6.9131   26.3628 H   0  0  0  0  0  0  0  0  0  0  0  0
    6.5830   -5.6772   25.2471 C   0  0  1  0  0  0  0  0  0  0  0  0
    7.3179   -5.9137   24.4576 H   0  0  0  0  0  0  0  0  0  0  0  0
    5.1742   -5.8852   24.6771 C   0  0  0  0  0  0  0  0  0  0  0  0
    5.0656   -6.8643   24.1979 H   0  0  0  0  0  0  0  0  0  0  0  0
    4.4425   -5.8119   25.4872 H   0  0  0  0  0  0  0  0  0  0  0  0
    4.9121   -5.1206   23.9349 H   0  0  0  0  0  0  0  0  0  0  0  0
    8.7084   -0.3419   21.2329 C   0  0  0  0  0  0  0  0  0  0  0  0
    8.7577    0.1261   22.2293 H   0  0  0  0  0  0  0  0  0  0  0  0
    9.0627    0.4026   20.5214 H   0  0  0  0  0  0  0  0  0  0  0  0
    9.4075   -1.1887   21.2147 H   0  0  0  0  0  0  0  0  0  0  0  0
    5.4373    0.5793   20.0460 C   0  0  0  0  0  0  0  0  0  0  0  0
    4.9609    0.5028   21.0240 H   0  0  0  0  0  0  0  0  0  0  0  0
    4.8456    1.3000   19.0030 C   0  0  0  0  0  0  0  0  0  0  0  0
    3.9102    1.8258   19.1452 H   0  0  0  0  0  0  0  0  0  0  0  0
  1  2  1  0
  2  3  2  0
  3  4  1  0
  4  5  1  0
  4  6  2  0
  6  7  1  0
  7  8  1  0
  8  9  2  0
  8 10  1  0
 10 11  1  0
 10 12  1  0
 12 13  1  0
 12 14  1  0
 12 15  1  0
 15 16  1  0
 15 17  1  0
 15 18  1  0
 18 19  1  0
 19 20  1  0
 19 21  1  0
 19 22  1  0
 22 23  1  0
 22 24  1  0
 22 25  1  0
 25 26  1  0
 25 27  1  0
 25 28  1  0
 28 29  1  6
 28 30  1  0
 30 31  1  0
 30 32  1  0
 30 33  1  0
  7 34  1  0
 34 35  1  0
 34 36  1  0
 34 37  1  0
  6 38  1  0
 38 39  1  0
 38 40  2  0
 40 41  1  0
 40  2  1  0
 28 18  1  0
M  END
>  <cnnaffinity>  (1) 
-4.56434

>  <filename>  (1) 
C[C@@H]1CCCN1CCNC(=O)N(C)c1cccnc1

$$$$
