
     RDKit          3D

 36 38  0  0  0  0  0  0  0  0999 V2000
    4.9295    1.7836   16.9362 H   0  0  0  0  0  0  0  0  0  0  0  0
    5.3813    1.3523   17.8237 C   0  0  0  0  0  0  0  0  0  0  0  0
    6.5828    0.7827   17.6378 N   0  0  0  0  0  0  0  0  0  0  0  0
    7.1675    0.2285   18.7047 C   0  0  0  0  0  0  0  0  0  0  0  0
    8.1444   -0.2279   18.5486 H   0  0  0  0  0  0  0  0  0  0  0  0
    6.5902    0.2085   19.9892 C   0  0  0  0  0  0  0  0  0  0  0  0
    7.2183   -0.5149   21.0494 N   0  0  0  0  0  0  0  0  0  0  0  0
    7.3401    0.1197   22.2472 N   0  0  0  0  0  0  0  0  0  0  0  0
    8.0343   -0.4534   23.1894 C   0  0  0  0  0  0  0  0  0  0  0  0
    8.0289    0.2618   24.5392 C   0  0  1  0  0  0  0  0  0  0  0  0
    7.4202    1.1612   24.3877 H   0  0  0  0  0  0  0  0  0  0  0  0
    7.3228   -0.6222   25.5721 C   0  0  0  0  0  0  0  0  0  0  0  0
    8.0439   -1.5390   26.3500 C   0  0  0  0  0  0  0  0  0  0  0  0
    9.1286   -1.5505   26.3125 H   0  0  0  0  0  0  0  0  0  0  0  0
    7.3858   -2.4860   27.1330 C   0  0  0  0  0  0  0  0  0  0  0  0
    7.9728   -3.2225   27.6736 H   0  0  0  0  0  0  0  0  0  0  0  0
    5.9922   -2.4772   27.2174 C   0  0  0  0  0  0  0  0  0  0  0  0
    5.4830   -3.1946   27.8552 H   0  0  0  0  0  0  0  0  0  0  0  0
    5.2606   -1.5352   26.4853 C   0  0  0  0  0  0  0  0  0  0  0  0
    4.1782   -1.5012   26.5686 H   0  0  0  0  0  0  0  0  0  0  0  0
    5.9212   -0.6365   25.6400 C   0  0  0  0  0  0  0  0  0  0  0  0
    5.3465    0.0312   24.9960 H   0  0  0  0  0  0  0  0  0  0  0  0
    9.4370    0.7250   24.9656 C   0  0  0  0  0  0  0  0  0  0  0  0
    9.4040    1.1857   25.9602 H   0  0  0  0  0  0  0  0  0  0  0  0
    9.8328    1.4596   24.2551 H   0  0  0  0  0  0  0  0  0  0  0  0
   10.1300   -0.1211   24.9806 H   0  0  0  0  0  0  0  0  0  0  0  0
    8.7602   -1.7625   23.0213 C   0  0  0  0  0  0  0  0  0  0  0  0
    9.5349   -2.2529   23.8378 O   0  0  0  0  0  0  0  0  0  0  0  0
    8.4242   -2.4327   21.7765 C   0  0  0  0  0  0  0  0  0  0  0  0
    8.8436   -3.4134   21.6305 H   0  0  0  0  0  0  0  0  0  0  0  0
    7.6532   -1.7999   20.8686 C   0  0  0  0  0  0  0  0  0  0  0  0
    7.3076   -2.2448   19.9396 H   0  0  0  0  0  0  0  0  0  0  0  0
    5.3747    0.8691   20.1902 C   0  0  0  0  0  0  0  0  0  0  0  0
    4.9658    0.9368   21.1988 H   0  0  0  0  0  0  0  0  0  0  0  0
    4.7444    1.4190   19.0694 C   0  0  0  0  0  0  0  0  0  0  0  0
    3.7821    1.9114   19.1499 H   0  0  0  0  0  0  0  0  0  0  0  0
  1  2  1  0
  2  3  2  0
  3  4  1  0
  4  5  1  0
  4  6  2  0
  6  7  1  0
  7  8  1  0
  8  9  2  0
  9 10  1  0
 10 11  1  6
 10 12  1  0
 12 13  2  0
 13 14  1  0
 13 15  1  0
 15 16  1  0
 15 17  2  0
 17 18  1  0
 17 19  1  0
 19 20  1  0
 19 21  2  0
 21 22  1  0
 10 23  1  0
 23 24  1  0
 23 25  1  0
 23 26  1  0
  9 27  1  0
 27 28  2  0
 27 29  1  0
 29 30  1  0
 29 31  2  0
 31 32  1  0
  6 33  1  0
 33 34  1  0
 33 35  2  0
 35 36  1  0
 35  2  1  0
 31  7  1  0
 21 12  1  0
M  END
>  <cnnaffinity>  (1) 
-5.25616

>  <filename>  (1) 
C[C@H](c1ccccc1)c1nn(-c2cccnc2)ccc1=O

$$$$
