
     RDKit          3D

 40 42  0  0  0  0  0  0  0  0999 V2000
    5.0108    1.8072   16.9493 H   0  0  0  0  0  0  0  0  0  0  0  0
    5.4506    1.3046   17.8087 C   0  0  0  0  0  0  0  0  0  0  0  0
    6.6301    0.6988   17.5904 N   0  0  0  0  0  0  0  0  0  0  0  0
    7.1994    0.0836   18.6331 C   0  0  0  0  0  0  0  0  0  0  0  0
    8.1577   -0.3997   18.4499 H   0  0  0  0  0  0  0  0  0  0  0  0
    6.6406    0.0121   19.9178 C   0  0  0  0  0  0  0  0  0  0  0  0
    7.4110   -0.7110   21.0025 C   0  0  0  0  0  0  0  0  0  0  0  0
    6.7790   -0.8677   21.8815 H   0  0  0  0  0  0  0  0  0  0  0  0
    7.7701   -1.6818   20.6448 H   0  0  0  0  0  0  0  0  0  0  0  0
    8.6026    0.0125   21.4298 N   0  0  0  0  0  0  0  0  0  0  0  0
    9.7954   -0.2214   20.8487 N   0  0  0  0  0  0  0  0  0  0  0  0
   10.5821    0.7213   21.2273 N   0  0  0  0  0  0  0  0  0  0  0  0
    9.9380    1.5954   22.0222 N   0  0  0  0  0  0  0  0  0  0  0  0
    8.7116    1.1385   22.1636 C   0  0  0  0  0  0  0  0  0  0  0  0
    7.6376    1.7047   23.0241 C   0  0  0  0  0  0  0  0  0  0  0  0
    8.0101    2.6416   23.4430 H   0  0  0  0  0  0  0  0  0  0  0  0
    6.7729    1.9353   22.3940 H   0  0  0  0  0  0  0  0  0  0  0  0
    7.2346    0.8032   24.2010 C   0  0  0  0  0  0  0  0  0  0  0  0
    6.2830    1.1769   24.6008 H   0  0  0  0  0  0  0  0  0  0  0  0
    7.0357   -0.2378   23.8728 H   0  0  0  0  0  0  0  0  0  0  0  0
    8.2373    0.8650   25.2513 N   0  0  0  0  0  0  0  0  0  0  0  0
    9.5556    0.3471   24.9010 C   0  0  0  0  0  0  0  0  0  0  0  0
    9.4910   -0.5920   24.3221 H   0  0  0  0  0  0  0  0  0  0  0  0
   10.1040    1.0466   24.2606 H   0  0  0  0  0  0  0  0  0  0  0  0
   10.2404    0.1394   26.2441 C   0  0  0  0  0  0  0  0  0  0  0  0
   11.0411   -0.5934   26.1509 H   0  0  0  0  0  0  0  0  0  0  0  0
   10.7279    1.0648   26.5545 H   0  0  0  0  0  0  0  0  0  0  0  0
    9.1028   -0.2538   27.1926 C   0  0  0  0  0  0  0  0  0  0  0  0
    9.2863    0.0211   28.2389 H   0  0  0  0  0  0  0  0  0  0  0  0
    8.9634   -1.3399   27.1967 H   0  0  0  0  0  0  0  0  0  0  0  0
    7.8413    0.4268   26.5980 C   0  0  1  0  0  0  0  0  0  0  0  0
    7.0352   -0.3271   26.5556 H   0  0  0  0  0  0  0  0  0  0  0  0
    7.2882    1.6163   27.3885 C   0  0  0  0  0  0  0  0  0  0  0  0
    6.4398    2.0533   26.8442 H   0  0  0  0  0  0  0  0  0  0  0  0
    6.9263    1.2990   28.3734 H   0  0  0  0  0  0  0  0  0  0  0  0
    8.0478    2.3973   27.5199 H   0  0  0  0  0  0  0  0  0  0  0  0
    5.4062    0.6399   20.1227 C   0  0  0  0  0  0  0  0  0  0  0  0
    4.9237    0.6095   21.1039 H   0  0  0  0  0  0  0  0  0  0  0  0
    4.8023    1.2996   19.0482 C   0  0  0  0  0  0  0  0  0  0  0  0
    3.8520    1.8141   19.1573 H   0  0  0  0  0  0  0  0  0  0  0  0
  1  2  1  0
  2  3  2  0
  3  4  1  0
  4  5  1  0
  4  6  2  0
  6  7  1  0
  7  8  1  0
  7  9  1  0
  7 10  1  0
 10 11  1  0
 11 12  2  0
 12 13  1  0
 13 14  2  0
 14 15  1  0
 15 16  1  0
 15 17  1  0
 15 18  1  0
 18 19  1  0
 18 20  1  0
 18 21  1  0
 21 22  1  0
 22 23  1  0
 22 24  1  0
 22 25  1  0
 25 26  1  0
 25 27  1  0
 25 28  1  0
 28 29  1  0
 28 30  1  0
 28 31  1  0
 31 32  1  6
 31 33  1  0
 33 34  1  0
 33 35  1  0
 33 36  1  0
  6 37  1  0
 37 38  1  0
 37 39  2  0
 39 40  1  0
 39  2  1  0
 14 10  1  0
 31 21  1  0
M  END
>  <cnnaffinity>  (1) 
-5.17365

>  <filename>  (1) 
C[C@@H]1CCCN1CCc1nnnn1Cc1cccnc1

$$$$
