
     RDKit          3D

 31 32  0  0  0  0  0  0  0  0999 V2000
    4.9222    1.7935   16.9888 H   0  0  0  0  0  0  0  0  0  0  0  0
    5.3966    1.2980   17.8335 C   0  0  0  0  0  0  0  0  0  0  0  0
    6.5596    0.6813   17.5697 N   0  0  0  0  0  0  0  0  0  0  0  0
    7.1566    0.0438   18.5840 C   0  0  0  0  0  0  0  0  0  0  0  0
    8.1109   -0.4276   18.3551 H   0  0  0  0  0  0  0  0  0  0  0  0
    6.6369   -0.0342   19.8946 C   0  0  0  0  0  0  0  0  0  0  0  0
    7.5754   -0.8474   21.1661 S   0  0  0  0  0  0  0  0  0  0  0  0
    8.5959    0.5931   21.6858 C   0  0  1  0  0  0  0  0  0  0  0  0
    9.0480    0.9722   20.7651 H   0  0  0  0  0  0  0  0  0  0  0  0
    7.7454    1.6968   22.2870 C   0  0  0  0  0  0  0  0  0  0  0  0
    7.7608    2.9728   21.7140 C   0  0  0  0  0  0  0  0  0  0  0  0
    8.4665    3.1216   20.9025 H   0  0  0  0  0  0  0  0  0  0  0  0
    6.9510    4.0004   22.2135 C   0  0  0  0  0  0  0  0  0  0  0  0
    6.9429    4.9834   21.7443 H   0  0  0  0  0  0  0  0  0  0  0  0
    6.1491    3.7636   23.3355 C   0  0  0  0  0  0  0  0  0  0  0  0
    5.5279    4.5621   23.7433 H   0  0  0  0  0  0  0  0  0  0  0  0
    6.1543    2.4958   23.9424 C   0  0  0  0  0  0  0  0  0  0  0  0
    5.2615    2.2019   25.1290 C   0  0  0  0  0  0  0  0  0  0  0  0
    4.0650    1.7220   24.7279 F   0  0  0  0  0  0  0  0  0  0  0  0
    5.0150    3.3019   25.8661 F   0  0  0  0  0  0  0  0  0  0  0  0
    5.7914    1.2795   25.9564 F   0  0  0  0  0  0  0  0  0  0  0  0
    6.9338    1.4618   23.4004 C   0  0  0  0  0  0  0  0  0  0  0  0
    6.9203    0.4649   23.8392 H   0  0  0  0  0  0  0  0  0  0  0  0
    9.6949    0.1147   22.6240 C   0  0  0  0  0  0  0  0  0  0  0  0
   10.3209    0.9674   22.9138 H   0  0  0  0  0  0  0  0  0  0  0  0
    9.2556   -0.3109   23.5315 H   0  0  0  0  0  0  0  0  0  0  0  0
   10.3164   -0.6450   22.1405 H   0  0  0  0  0  0  0  0  0  0  0  0
    5.4243    0.6241   20.1537 C   0  0  0  0  0  0  0  0  0  0  0  0
    5.0232    0.6345   21.1717 H   0  0  0  0  0  0  0  0  0  0  0  0
    4.8001    1.3036   19.1012 C   0  0  0  0  0  0  0  0  0  0  0  0
    3.8736    1.8439   19.2495 H   0  0  0  0  0  0  0  0  0  0  0  0
  1  2  1  0
  2  3  2  0
  3  4  1  0
  4  5  1  0
  4  6  2  0
  6  7  1  0
  7  8  1  0
  8  9  1  6
  8 10  1  0
 10 11  2  0
 11 12  1  0
 11 13  1  0
 13 14  1  0
 13 15  2  0
 15 16  1  0
 15 17  1  0
 17 18  1  0
 18 19  1  0
 18 20  1  0
 18 21  1  0
 17 22  2  0
 22 23  1  0
  8 24  1  0
 24 25  1  0
 24 26  1  0
 24 27  1  0
  6 28  1  0
 28 29  1  0
 28 30  2  0
 30 31  1  0
 30  2  1  0
 22 10  1  0
M  END
>  <cnnaffinity>  (1) 
-4.76501

>  <filename>  (1) 
C[C@@H](Sc1cccnc1)c1cccc(C(F)(F)F)c1

$$$$
