
     RDKit          3D

 34 36  0  0  0  0  0  0  0  0999 V2000
    4.9214    1.7883   16.9912 H   0  0  0  0  0  0  0  0  0  0  0  0
    5.3983    1.2939   17.8350 C   0  0  0  0  0  0  0  0  0  0  0  0
    6.5586    0.6775   17.5669 N   0  0  0  0  0  0  0  0  0  0  0  0
    7.1739    0.0678   18.5844 C   0  0  0  0  0  0  0  0  0  0  0  0
    8.1150   -0.4176   18.3453 H   0  0  0  0  0  0  0  0  0  0  0  0
    6.6806    0.0082   19.9040 C   0  0  0  0  0  0  0  0  0  0  0  0
    7.4201   -0.6992   20.9653 C   0  0  0  0  0  0  0  0  0  0  0  0
    9.1195   -1.0374   20.9140 S   0  0  0  0  0  0  0  0  0  0  0  0
    9.0528   -1.8168   22.4451 C   0  0  0  0  0  0  0  0  0  0  0  0
    9.9501   -2.2052   22.8875 H   0  0  0  0  0  0  0  0  0  0  0  0
    7.8015   -1.8549   22.9811 C   0  0  0  0  0  0  0  0  0  0  0  0
    7.4759   -2.4103   24.3611 C   0  0  1  0  0  0  0  0  0  0  0  0
    8.2438   -3.1641   24.5804 H   0  0  0  0  0  0  0  0  0  0  0  0
    7.5748   -1.3212   25.4332 C   0  0  0  0  0  0  0  0  0  0  0  0
    6.7070   -0.2166   25.4301 C   0  0  0  0  0  0  0  0  0  0  0  0
    5.9462   -0.1261   24.6526 H   0  0  0  0  0  0  0  0  0  0  0  0
    6.8196    0.7789   26.4038 C   0  0  0  0  0  0  0  0  0  0  0  0
    6.1352    1.6234   26.3891 H   0  0  0  0  0  0  0  0  0  0  0  0
    7.8076    0.6844   27.3924 C   0  0  0  0  0  0  0  0  0  0  0  0
    7.8990    1.4575   28.1521 H   0  0  0  0  0  0  0  0  0  0  0  0
    8.6857   -0.4049   27.3983 C   0  0  0  0  0  0  0  0  0  0  0  0
    9.4612   -0.4837   28.1584 H   0  0  0  0  0  0  0  0  0  0  0  0
    8.5677   -1.3970   26.4197 C   0  0  0  0  0  0  0  0  0  0  0  0
    9.2492   -2.2467   26.4065 H   0  0  0  0  0  0  0  0  0  0  0  0
    6.1171   -3.1328   24.4072 C   0  0  0  0  0  0  0  0  0  0  0  0
    5.9725   -3.6270   25.3744 H   0  0  0  0  0  0  0  0  0  0  0  0
    5.2820   -2.4375   24.2847 H   0  0  0  0  0  0  0  0  0  0  0  0
    6.0472   -3.8817   23.6107 H   0  0  0  0  0  0  0  0  0  0  0  0
    6.8827   -1.2015   22.1107 C   0  0  0  0  0  0  0  0  0  0  0  0
    5.8356   -1.1070   22.3107 H   0  0  0  0  0  0  0  0  0  0  0  0
    5.4486    0.6441   20.1576 C   0  0  0  0  0  0  0  0  0  0  0  0
    5.0150    0.6422   21.1609 H   0  0  0  0  0  0  0  0  0  0  0  0
    4.8093    1.3066   19.1048 C   0  0  0  0  0  0  0  0  0  0  0  0
    3.8776    1.8387   19.2547 H   0  0  0  0  0  0  0  0  0  0  0  0
  1  2  1  0
  2  3  2  0
  3  4  1  0
  4  5  1  0
  4  6  2  0
  6  7  1  0
  7  8  1  0
  8  9  1  0
  9 10  1  0
  9 11  2  0
 11 12  1  0
 12 13  1  1
 12 14  1  0
 14 15  2  0
 15 16  1  0
 15 17  1  0
 17 18  1  0
 17 19  2  0
 19 20  1  0
 19 21  1  0
 21 22  1  0
 21 23  2  0
 23 24  1  0
 12 25  1  0
 25 26  1  0
 25 27  1  0
 25 28  1  0
 11 29  1  0
 29 30  1  0
  6 31  1  0
 31 32  1  0
 31 33  2  0
 33 34  1  0
 33  2  1  0
 29  7  2  0
 23 14  1  0
M  END
>  <cnnaffinity>  (1) 
-5.16377

>  <filename>  (1) 
C[C@H](c1ccccc1)c1csc(-c2cccnc2)c1

$$$$
