
     RDKit          3D

 33 34  0  0  0  0  0  0  0  0999 V2000
    4.9045    1.7718   17.0067 H   0  0  0  0  0  0  0  0  0  0  0  0
    5.4004    1.2917   17.8446 C   0  0  0  0  0  0  0  0  0  0  0  0
    6.5682    0.6839   17.5789 N   0  0  0  0  0  0  0  0  0  0  0  0
    7.1748    0.0668   18.6018 C   0  0  0  0  0  0  0  0  0  0  0  0
    8.1271   -0.4343   18.3814 H   0  0  0  0  0  0  0  0  0  0  0  0
    6.6613    0.0015   19.9110 C   0  0  0  0  0  0  0  0  0  0  0  0
    7.4651   -0.7156   20.9819 C   0  0  2  0  0  0  0  0  0  0  0  0
    7.8343   -1.6302   20.4946 H   0  0  0  0  0  0  0  0  0  0  0  0
    6.6246   -1.1910   22.1650 C   0  0  0  0  0  0  0  0  0  0  0  0
    6.2535   -0.3671   22.7813 H   0  0  0  0  0  0  0  0  0  0  0  0
    7.2365   -1.8356   22.7986 H   0  0  0  0  0  0  0  0  0  0  0  0
    5.7677   -1.7766   21.8118 H   0  0  0  0  0  0  0  0  0  0  0  0
    8.7268    0.0915   21.3855 C   0  0  0  0  0  0  0  0  0  0  0  0
    9.4353    0.0560   20.5490 H   0  0  0  0  0  0  0  0  0  0  0  0
    9.2070   -0.4354   22.2153 H   0  0  0  0  0  0  0  0  0  0  0  0
    8.5329    1.5788   21.7477 C   0  0  0  0  0  0  0  0  0  0  0  0
    9.5161    2.0586   21.8025 H   0  0  0  0  0  0  0  0  0  0  0  0
    7.9916    2.0921   20.9400 H   0  0  0  0  0  0  0  0  0  0  0  0
    7.8292    1.8215   23.0645 C   0  0  0  0  0  0  0  0  0  0  0  0
    6.5230    2.3454   23.0911 C   0  0  0  0  0  0  0  0  0  0  0  0
    6.0362    2.6055   22.1537 H   0  0  0  0  0  0  0  0  0  0  0  0
    5.8380    2.5483   24.2893 C   0  0  0  0  0  0  0  0  0  0  0  0
    4.8309    2.9549   24.2781 H   0  0  0  0  0  0  0  0  0  0  0  0
    6.4597    2.2403   25.5007 C   0  0  0  0  0  0  0  0  0  0  0  0
    5.9324    2.4004   26.4337 H   0  0  0  0  0  0  0  0  0  0  0  0
    7.7633    1.7409   25.5155 C   0  0  0  0  0  0  0  0  0  0  0  0
    8.2517    1.5213   26.4606 H   0  0  0  0  0  0  0  0  0  0  0  0
    8.4392    1.5392   24.3086 C   0  0  0  0  0  0  0  0  0  0  0  0
   10.1003    0.9812   24.4025 Cl  0  0  0  0  0  0  0  0  0  0  0  0
    5.4474    0.6515   20.1568 C   0  0  0  0  0  0  0  0  0  0  0  0
    5.0092    0.6256   21.1521 H   0  0  0  0  0  0  0  0  0  0  0  0
    4.8055    1.3132   19.1096 C   0  0  0  0  0  0  0  0  0  0  0  0
    3.8691    1.8468   19.2677 H   0  0  0  0  0  0  0  0  0  0  0  0
  1  2  1  0
  2  3  2  0
  3  4  1  0
  4  5  1  0
  4  6  2  0
  6  7  1  0
  7  8  1  6
  7  9  1  0
  9 10  1  0
  9 11  1  0
  9 12  1  0
  7 13  1  0
 13 14  1  0
 13 15  1  0
 13 16  1  0
 16 17  1  0
 16 18  1  0
 16 19  1  0
 19 20  2  0
 20 21  1  0
 20 22  1  0
 22 23  1  0
 22 24  2  0
 24 25  1  0
 24 26  1  0
 26 27  1  0
 26 28  2  0
 28 29  1  0
  6 30  1  0
 30 31  1  0
 30 32  2  0
 32 33  1  0
 32  2  1  0
 28 19  1  0
M  END
>  <cnnaffinity>  (1) 
-4.7025

>  <filename>  (1) 
C[C@H](CCc1ccccc1Cl)c1cccnc1

$$$$
