
     RDKit          3D

 39 41  0  0  0  0  0  0  0  0999 V2000
    4.9188    1.8283   16.9996 H   0  0  0  0  0  0  0  0  0  0  0  0
    5.4055    1.3045   17.8190 C   0  0  0  0  0  0  0  0  0  0  0  0
    6.5672    0.6988   17.5299 N   0  0  0  0  0  0  0  0  0  0  0  0
    7.1801    0.0509   18.5292 C   0  0  0  0  0  0  0  0  0  0  0  0
    8.1330   -0.4124   18.2742 H   0  0  0  0  0  0  0  0  0  0  0  0
    6.6796   -0.0565   19.8421 C   0  0  0  0  0  0  0  0  0  0  0  0
    7.4779   -0.7679   20.9424 C   0  0  2  0  0  0  0  0  0  0  0  0
    8.3709   -1.1959   20.4827 H   0  0  0  0  0  0  0  0  0  0  0  0
    6.7396   -1.9526   21.5810 C   0  0  0  0  0  0  0  0  0  0  0  0
    6.2021   -1.8796   22.6583 O   0  0  0  0  0  0  0  0  0  0  0  0
    6.7795   -3.0866   20.8407 O   0  0  0  0  0  0  0  0  0  0  0  0
    6.0420   -4.2291   21.3641 C   0  0  0  0  0  0  0  0  0  0  0  0
    6.1751   -5.0012   20.6000 H   0  0  0  0  0  0  0  0  0  0  0  0
    4.9787   -3.9690   21.3991 H   0  0  0  0  0  0  0  0  0  0  0  0
    6.5227   -4.7159   22.7258 C   0  0  0  0  0  0  0  0  0  0  0  0
    7.8366   -5.2560   22.8484 C   0  0  0  0  0  0  0  0  0  0  0  0
    8.4475   -5.3514   21.9525 H   0  0  0  0  0  0  0  0  0  0  0  0
    8.3380   -5.6407   24.0701 C   0  0  0  0  0  0  0  0  0  0  0  0
    9.3356   -6.0597   24.1594 H   0  0  0  0  0  0  0  0  0  0  0  0
    7.5540   -5.5041   25.2573 C   0  0  0  0  0  0  0  0  0  0  0  0
    8.0474   -5.8813   26.5463 C   0  0  0  0  0  0  0  0  0  0  0  0
    9.0490   -6.2951   26.6242 H   0  0  0  0  0  0  0  0  0  0  0  0
    7.2731   -5.7155   27.6722 C   0  0  0  0  0  0  0  0  0  0  0  0
    7.6552   -6.0091   28.6480 H   0  0  0  0  0  0  0  0  0  0  0  0
    5.9657   -5.1634   27.5679 C   0  0  0  0  0  0  0  0  0  0  0  0
    5.3734   -5.0376   28.4724 H   0  0  0  0  0  0  0  0  0  0  0  0
    5.4601   -4.7921   26.3429 C   0  0  0  0  0  0  0  0  0  0  0  0
    4.4641   -4.3607   26.2686 H   0  0  0  0  0  0  0  0  0  0  0  0
    6.2371   -4.9570   25.1535 C   0  0  0  0  0  0  0  0  0  0  0  0
    5.7499   -4.5768   23.8622 C   0  0  0  0  0  0  0  0  0  0  0  0
    4.7738   -4.0984   23.8087 H   0  0  0  0  0  0  0  0  0  0  0  0
    7.8997    0.2163   22.0557 C   0  0  0  0  0  0  0  0  0  0  0  0
    8.4620   -0.2979   22.8432 H   0  0  0  0  0  0  0  0  0  0  0  0
    7.0055    0.6384   22.5252 H   0  0  0  0  0  0  0  0  0  0  0  0
    8.5108    1.0286   21.6547 H   0  0  0  0  0  0  0  0  0  0  0  0
    5.4660    0.5913   20.1171 C   0  0  0  0  0  0  0  0  0  0  0  0
    5.0427    0.5730   21.1237 H   0  0  0  0  0  0  0  0  0  0  0  0
    4.8184    1.2821   19.0880 C   0  0  0  0  0  0  0  0  0  0  0  0
    3.8937    1.8227   19.2615 H   0  0  0  0  0  0  0  0  0  0  0  0
  1  2  1  0
  2  3  2  0
  3  4  1  0
  4  5  1  0
  4  6  2  0
  6  7  1  0
  7  8  1  6
  7  9  1  0
  9 10  2  0
  9 11  1  0
 11 12  1  0
 12 13  1  0
 12 14  1  0
 12 15  1  0
 15 16  2  0
 16 17  1  0
 16 18  1  0
 18 19  1  0
 18 20  2  0
 20 21  1  0
 21 22  1  0
 21 23  2  0
 23 24  1  0
 23 25  1  0
 25 26  1  0
 25 27  2  0
 27 28  1  0
 27 29  1  0
 29 30  2  0
 30 31  1  0
  7 32  1  0
 32 33  1  0
 32 34  1  0
 32 35  1  0
  6 36  1  0
 36 37  1  0
 36 38  2  0
 38 39  1  0
 38  2  1  0
 30 15  1  0
 29 20  1  0
M  END
>  <cnnaffinity>  (1) 
-4.73806

>  <filename>  (1) 
C[C@@H](C(=O)OCc1ccc2ccccc2c1)c1cccnc1

$$$$
