
     RDKit          3D

 29 29  0  0  0  0  0  0  0  0999 V2000
    5.0518    1.8505   16.8825 H   0  0  0  0  0  0  0  0  0  0  0  0
    5.5107    1.3308   17.7209 C   0  0  0  0  0  0  0  0  0  0  0  0
    6.6476    0.6750   17.4646 N   0  0  0  0  0  0  0  0  0  0  0  0
    7.2339    0.0297   18.4830 C   0  0  0  0  0  0  0  0  0  0  0  0
    8.1658   -0.4601   18.2145 H   0  0  0  0  0  0  0  0  0  0  0  0
    6.7275   -0.0300   19.7950 C   0  0  0  0  0  0  0  0  0  0  0  0
    7.4081   -0.8254   20.9298 C   0  0  1  0  0  0  0  0  0  0  0  0
    8.7412   -1.2956   20.5155 N   0  0  0  0  0  0  0  0  0  0  0  0
    9.3118   -0.4788   20.3171 H   0  0  0  0  0  0  0  0  0  0  0  0
    8.6799   -1.8177   19.6456 H   0  0  0  0  0  0  0  0  0  0  0  0
    7.6389    0.0642   22.1611 C   0  0  0  0  0  0  0  0  0  0  0  0
    6.7016    0.3954   22.6207 H   0  0  0  0  0  0  0  0  0  0  0  0
    8.2202    0.9485   21.8782 H   0  0  0  0  0  0  0  0  0  0  0  0
    8.2091   -0.4856   22.9159 H   0  0  0  0  0  0  0  0  0  0  0  0
    6.4816   -2.0662   21.3064 C   0  0  0  0  0  0  0  0  0  0  0  0
    5.4503   -1.8479   21.0127 H   0  0  0  0  0  0  0  0  0  0  0  0
    6.8067   -2.8890   20.6606 H   0  0  0  0  0  0  0  0  0  0  0  0
    6.3732   -2.5150   22.7330 N   0  0  0  0  0  0  0  0  0  0  0  0
    7.2771   -2.6709   23.1871 H   0  0  0  0  0  0  0  0  0  0  0  0
    5.8828   -4.0799   22.9674 S   0  0  0  0  0  0  0  0  0  0  0  0
    4.8784   -4.4671   22.0022 O   0  0  0  0  0  0  0  0  0  0  0  0
    7.0955   -4.8029   23.2548 O   0  0  0  0  0  0  0  0  0  0  0  0
    5.0957   -3.6228   24.3419 N   0  0  0  0  0  0  0  0  0  0  0  0
    5.2968   -2.6271   24.2176 H   0  0  0  0  0  0  0  0  0  0  0  0
    4.1607   -3.7576   23.9819 H   0  0  0  0  0  0  0  0  0  0  0  0
    5.5321    0.6689   20.0342 C   0  0  0  0  0  0  0  0  0  0  0  0
    5.0849    0.6798   21.0309 H   0  0  0  0  0  0  0  0  0  0  0  0
    4.9189    1.3591   18.9874 C   0  0  0  0  0  0  0  0  0  0  0  0
    4.0097    1.9251   19.1402 H   0  0  0  0  0  0  0  0  0  0  0  0
  1  2  1  0
  2  3  2  0
  3  4  1  0
  4  5  1  0
  4  6  2  0
  6  7  1  0
  7  8  1  6
  8  9  1  0
  8 10  1  0
  7 11  1  0
 11 12  1  0
 11 13  1  0
 11 14  1  0
  7 15  1  0
 15 16  1  0
 15 17  1  0
 15 18  1  0
 18 19  1  0
 18 20  1  0
 20 21  2  0
 20 22  2  0
 20 23  1  0
 23 24  1  0
 23 25  1  0
  6 26  1  0
 26 27  1  0
 26 28  2  0
 28 29  1  0
 28  2  1  0
M  END
>  <cnnaffinity>  (1) 
-4.37879

>  <filename>  (1) 
C[C@@](N)(CNS(N)(=O)=O)c1cccnc1

$$$$
