
     RDKit          3D

 36 38  0  0  0  0  0  0  0  0999 V2000
    4.9874    1.7571   16.9768 H   0  0  0  0  0  0  0  0  0  0  0  0
    5.4120    1.2879   17.8582 C   0  0  0  0  0  0  0  0  0  0  0  0
    6.5895    0.6763   17.6688 N   0  0  0  0  0  0  0  0  0  0  0  0
    7.1598    0.1229   18.7373 C   0  0  0  0  0  0  0  0  0  0  0  0
    8.1175   -0.3616   18.5496 H   0  0  0  0  0  0  0  0  0  0  0  0
    6.6086    0.1460   20.0281 C   0  0  0  0  0  0  0  0  0  0  0  0
    7.3500   -0.5321   21.1100 C   0  0  0  0  0  0  0  0  0  0  0  0
    7.1793   -0.0887   22.3638 N   0  0  0  0  0  0  0  0  0  0  0  0
    7.8308   -0.7211   23.3475 C   0  0  0  0  0  0  0  0  0  0  0  0
    7.7038   -0.1296   24.7505 C   0  0  1  0  0  0  0  0  0  0  0  0
    7.1129    0.7831   24.6211 H   0  0  0  0  0  0  0  0  0  0  0  0
    6.8991   -1.0807   25.6307 C   0  0  0  0  0  0  0  0  0  0  0  0
    5.5032   -0.9515   25.6348 C   0  0  0  0  0  0  0  0  0  0  0  0
    5.0503   -0.1749   25.0200 H   0  0  0  0  0  0  0  0  0  0  0  0
    4.7023   -1.8091   26.3931 C   0  0  0  0  0  0  0  0  0  0  0  0
    3.6238   -1.6751   26.4044 H   0  0  0  0  0  0  0  0  0  0  0  0
    5.2944   -2.8388   27.1334 C   0  0  0  0  0  0  0  0  0  0  0  0
    4.6799   -3.5011   27.7372 H   0  0  0  0  0  0  0  0  0  0  0  0
    6.6832   -3.0047   27.1027 C   0  0  0  0  0  0  0  0  0  0  0  0
    7.1482   -3.8198   27.6508 H   0  0  0  0  0  0  0  0  0  0  0  0
    7.4815   -2.1264   26.3628 C   0  0  0  0  0  0  0  0  0  0  0  0
    8.5613   -2.2688   26.3602 H   0  0  0  0  0  0  0  0  0  0  0  0
    9.0676    0.2807   25.3500 C   0  0  0  0  0  0  0  0  0  0  0  0
    9.5408    1.0534   24.7346 H   0  0  0  0  0  0  0  0  0  0  0  0
    8.9539    0.6829   26.3617 H   0  0  0  0  0  0  0  0  0  0  0  0
    9.7629   -0.5642   25.4012 H   0  0  0  0  0  0  0  0  0  0  0  0
    8.5858   -1.8884   23.1278 C   0  0  0  0  0  0  0  0  0  0  0  0
    9.0461   -2.4088   23.9593 H   0  0  0  0  0  0  0  0  0  0  0  0
    8.7546   -2.3630   21.8278 C   0  0  0  0  0  0  0  0  0  0  0  0
    9.3196   -3.2723   21.6235 H   0  0  0  0  0  0  0  0  0  0  0  0
    8.1780   -1.6228   20.8079 C   0  0  0  0  0  0  0  0  0  0  0  0
    8.3506   -1.8577   19.7767 H   0  0  0  0  0  0  0  0  0  0  0  0
    5.3648    0.7714   20.2092 C   0  0  0  0  0  0  0  0  0  0  0  0
    4.8962    0.7952   21.1968 H   0  0  0  0  0  0  0  0  0  0  0  0
    4.7592    1.3474   19.0936 C   0  0  0  0  0  0  0  0  0  0  0  0
    3.8032    1.8494   19.1678 H   0  0  0  0  0  0  0  0  0  0  0  0
  1  2  1  0
  2  3  2  0
  3  4  1  0
  4  5  1  0
  4  6  2  0
  6  7  1  0
  7  8  2  0
  8  9  1  0
  9 10  1  0
 10 11  1  6
 10 12  1  0
 12 13  2  0
 13 14  1  0
 13 15  1  0
 15 16  1  0
 15 17  2  0
 17 18  1  0
 17 19  1  0
 19 20  1  0
 19 21  2  0
 21 22  1  0
 10 23  1  0
 23 24  1  0
 23 25  1  0
 23 26  1  0
  9 27  2  0
 27 28  1  0
 27 29  1  0
 29 30  1  0
 29 31  2  0
 31 32  1  0
  6 33  1  0
 33 34  1  0
 33 35  2  0
 35 36  1  0
 35  2  1  0
 31  7  1  0
 21 12  1  0
M  END
>  <cnnaffinity>  (1) 
-5.0667

>  <filename>  (1) 
C[C@H](c1ccccc1)c1cccc(-c2cccnc2)n1

$$$$
