
     RDKit          3D

 23 23  0  0  0  0  0  0  0  0999 V2000
    4.9703    2.0127   16.8759 H   0  0  0  0  0  0  0  0  0  0  0  0
    5.3648    1.4640   17.7307 C   0  0  0  0  0  0  0  0  0  0  0  0
    6.5219    0.8118   17.5317 N   0  0  0  0  0  0  0  0  0  0  0  0
    7.0295    0.1553   18.5786 C   0  0  0  0  0  0  0  0  0  0  0  0
    7.9598   -0.3798   18.4140 H   0  0  0  0  0  0  0  0  0  0  0  0
    6.4433    0.1014   19.8450 C   0  0  0  0  0  0  0  0  0  0  0  0
    7.2140   -0.8147   20.8497 C   0  0  1  0  0  0  0  0  0  0  0  0
    6.3567   -1.0295   21.9508 F   0  0  0  0  0  0  0  0  0  0  0  0
    7.4726   -1.9009   20.2635 O   0  0  0  0  0  0  0  0  0  0  0  0
    8.4344   -3.2444   22.6811 S   0  0  0  0  0  0  0  0  0  0  0  0
    8.0523   -2.3409   23.7436 O   0  0  0  0  0  0  0  0  0  0  0  0
    9.5135   -2.9414   21.7560 O   0  0  0  0  0  0  0  0  0  0  0  0
    7.1231   -3.6997   21.8081 N   0  0  0  0  0  0  0  0  0  0  0  0
    6.5560   -2.8720   22.0101 H   0  0  0  0  0  0  0  0  0  0  0  0
    7.4891   -3.3731   20.9040 H   0  0  0  0  0  0  0  0  0  0  0  0
    8.4399   -0.0549   21.4489 C   0  0  0  0  0  0  0  0  0  0  0  0
    8.1044    0.8702   21.9193 H   0  0  0  0  0  0  0  0  0  0  0  0
    9.1605    0.1696   20.6584 H   0  0  0  0  0  0  0  0  0  0  0  0
    8.9144   -0.6853   22.1986 H   0  0  0  0  0  0  0  0  0  0  0  0
    5.2479    0.7928   20.0476 C   0  0  0  0  0  0  0  0  0  0  0  0
    4.7545    0.8210   21.0230 H   0  0  0  0  0  0  0  0  0  0  0  0
    4.6936    1.4731   18.9590 C   0  0  0  0  0  0  0  0  0  0  0  0
    3.7713    2.0410   19.0531 H   0  0  0  0  0  0  0  0  0  0  0  0
  1  2  1  0
  2  3  2  0
  3  4  1  0
  4  5  1  0
  4  6  2  0
  6  7  1  0
  7  8  1  1
  7  9  1  0
  9 10  1  0
 10 11  2  0
 10 12  2  0
 10 13  1  0
 13 14  1  0
 13 15  1  0
  7 16  1  0
 16 17  1  0
 16 18  1  0
 16 19  1  0
  6 20  1  0
 20 21  1  0
 20 22  2  0
 22 23  1  0
 22  2  1  0
M  END
>  <cnnaffinity>  (1) 
-4.29233

>  <filename>  (1) 
C[C@](F)(OS(N)(=O)=O)c1cccnc1

$$$$
