
     RDKit          3D

 30 31  0  0  0  0  0  0  0  0999 V2000
    7.7887   -1.9513   27.0008 H   0  0  0  0  0  0  0  0  0  0  0  0
    8.5908   -1.8289   26.4654 O   0  0  0  0  0  0  0  0  0  0  0  0
    8.2804   -2.6098   25.4247 C   0  0  0  0  0  0  0  0  0  0  0  0
    7.2422   -3.2323   25.4513 O   0  0  0  0  0  0  0  0  0  0  0  0
    9.2923   -2.5306   24.2976 C   0  0  2  0  0  0  0  0  0  0  0  0
   10.1418   -1.9600   24.6690 H   0  0  0  0  0  0  0  0  0  0  0  0
    8.6644   -1.7385   23.1759 C   0  0  0  0  0  0  0  0  0  0  0  0
    9.2382   -0.7246   22.5077 C   0  0  0  0  0  0  0  0  0  0  0  0
   10.1741   -0.2699   22.7916 H   0  0  0  0  0  0  0  0  0  0  0  0
    8.6430   -0.1703   21.3041 C   0  0  0  0  0  0  0  0  0  0  0  0
    9.1826    0.6973   20.6449 O   0  0  0  0  0  0  0  0  0  0  0  0
    7.3870   -0.7118   20.8833 N   0  0  0  0  0  0  0  0  0  0  0  0
    6.6489   -0.0642   19.7955 C   0  0  0  0  0  0  0  0  0  0  0  0
    7.1570    0.0197   18.4773 C   0  0  0  0  0  0  0  0  0  0  0  0
    8.0990   -0.4691   18.2349 H   0  0  0  0  0  0  0  0  0  0  0  0
    6.5481    0.6857   17.4868 N   0  0  0  0  0  0  0  0  0  0  0  0
    5.4033    1.3258   17.7760 C   0  0  0  0  0  0  0  0  0  0  0  0
    4.9483    1.8767   16.9548 H   0  0  0  0  0  0  0  0  0  0  0  0
    4.8072    1.2917   19.0389 C   0  0  0  0  0  0  0  0  0  0  0  0
    3.8805    1.8253   19.2095 H   0  0  0  0  0  0  0  0  0  0  0  0
    5.4304    0.5649   20.0628 C   0  0  0  0  0  0  0  0  0  0  0  0
    4.9912    0.4834   21.0552 H   0  0  0  0  0  0  0  0  0  0  0  0
    6.8042   -1.7689   21.5897 C   0  0  0  0  0  0  0  0  0  0  0  0
    5.8070   -2.3646   21.2493 O   0  0  0  0  0  0  0  0  0  0  0  0
    7.4273   -2.1419   22.7549 N   0  0  0  0  0  0  0  0  0  0  0  0
    6.8912   -2.8478   23.2275 H   0  0  0  0  0  0  0  0  0  0  0  0
    9.7948   -3.9020   23.8072 C   0  0  0  0  0  0  0  0  0  0  0  0
   10.5294   -3.7283   23.0179 H   0  0  0  0  0  0  0  0  0  0  0  0
   10.2801   -4.4768   24.5999 H   0  0  0  0  0  0  0  0  0  0  0  0
    8.9767   -4.5141   23.4155 H   0  0  0  0  0  0  0  0  0  0  0  0
  1  2  1  0
  2  3  1  0
  3  4  2  0
  3  5  1  0
  5  6  1  1
  5  7  1  0
  7  8  2  0
  8  9  1  0
  8 10  1  0
 10 11  2  0
 10 12  1  0
 12 13  1  0
 13 14  2  0
 14 15  1  0
 14 16  1  0
 16 17  2  0
 17 18  1  0
 17 19  1  0
 19 20  1  0
 19 21  2  0
 21 22  1  0
 12 23  1  0
 23 24  2  0
 23 25  1  0
 25 26  1  0
  5 27  1  0
 27 28  1  0
 27 29  1  0
 27 30  1  0
 25  7  1  0
 21 13  1  0
M  END
>  <cnnaffinity>  (1) 
-4.91525

>  <filename>  (1) 
C[C@H](C(=O)O)c1cc(=O)n(-c2cccnc2)c(=O)[nH]1

$$$$
