
     RDKit          3D

 41 43  0  0  0  0  0  0  0  0999 V2000
    4.9545    1.8218   17.0232 H   0  0  0  0  0  0  0  0  0  0  0  0
    5.4106    1.2789   17.8499 C   0  0  0  0  0  0  0  0  0  0  0  0
    6.5567    0.6349   17.5775 N   0  0  0  0  0  0  0  0  0  0  0  0
    7.1652    0.0007   18.5875 C   0  0  0  0  0  0  0  0  0  0  0  0
    8.1181   -0.4751   18.3645 H   0  0  0  0  0  0  0  0  0  0  0  0
    6.6457   -0.0533   19.8919 C   0  0  0  0  0  0  0  0  0  0  0  0
    7.3489   -0.7267   20.9398 N   0  0  0  0  0  0  0  0  0  0  0  0
    6.5935   -1.6004   21.6798 N   0  0  0  0  0  0  0  0  0  0  0  0
    7.1598   -2.2777   22.6401 C   0  0  0  0  0  0  0  0  0  0  0  0
    6.2853   -3.2341   23.4139 C   0  0  0  0  0  0  0  0  0  0  0  0
    6.8547   -4.1397   23.6615 H   0  0  0  0  0  0  0  0  0  0  0  0
    5.4269   -3.5083   22.7904 H   0  0  0  0  0  0  0  0  0  0  0  0
    5.8269   -2.6199   24.7440 C   0  0  0  0  0  0  0  0  0  0  0  0
    6.7318   -2.4065   25.3389 H   0  0  0  0  0  0  0  0  0  0  0  0
    5.3812   -1.6296   24.5672 H   0  0  0  0  0  0  0  0  0  0  0  0
    4.9238   -3.5081   25.4783 N   0  0  0  0  0  0  0  0  0  0  0  0
    3.5393   -3.0580   25.6132 C   0  0  0  0  0  0  0  0  0  0  0  0
    2.9899   -3.2207   24.6775 H   0  0  0  0  0  0  0  0  0  0  0  0
    3.4721   -1.9794   25.8526 H   0  0  0  0  0  0  0  0  0  0  0  0
    2.9513   -3.8826   26.7683 C   0  0  0  0  0  0  0  0  0  0  0  0
    2.3578   -4.7211   26.3945 H   0  0  0  0  0  0  0  0  0  0  0  0
    2.2847   -3.2743   27.3875 H   0  0  0  0  0  0  0  0  0  0  0  0
    4.1702   -4.3947   27.5572 C   0  0  0  0  0  0  0  0  0  0  0  0
    4.1736   -5.4874   27.5953 H   0  0  0  0  0  0  0  0  0  0  0  0
    4.1798   -4.0498   28.5951 H   0  0  0  0  0  0  0  0  0  0  0  0
    5.4058   -3.8704   26.8137 C   0  0  1  0  0  0  0  0  0  0  0  0
    5.7648   -2.9633   27.3408 H   0  0  0  0  0  0  0  0  0  0  0  0
    6.5596   -4.8604   26.7063 C   0  0  0  0  0  0  0  0  0  0  0  0
    7.4087   -4.4180   26.1747 H   0  0  0  0  0  0  0  0  0  0  0  0
    6.9159   -5.1760   27.6907 H   0  0  0  0  0  0  0  0  0  0  0  0
    6.2443   -5.7481   26.1463 H   0  0  0  0  0  0  0  0  0  0  0  0
    8.5487   -2.0886   22.9863 C   0  0  0  0  0  0  0  0  0  0  0  0
    8.9800   -2.6718   23.7976 H   0  0  0  0  0  0  0  0  0  0  0  0
    9.2915   -1.1812   22.2970 C   0  0  0  0  0  0  0  0  0  0  0  0
   10.3305   -0.9538   22.4967 H   0  0  0  0  0  0  0  0  0  0  0  0
    8.7253   -0.4055   21.2017 C   0  0  0  0  0  0  0  0  0  0  0  0
    9.3401    0.4232   20.5512 O   0  0  0  0  0  0  0  0  0  0  0  0
    5.4291    0.5881   20.1590 C   0  0  0  0  0  0  0  0  0  0  0  0
    5.0048    0.5325   21.1587 H   0  0  0  0  0  0  0  0  0  0  0  0
    4.8144    1.2861   19.1140 C   0  0  0  0  0  0  0  0  0  0  0  0
    3.8959    1.8406   19.2753 H   0  0  0  0  0  0  0  0  0  0  0  0
  1  2  1  0
  2  3  2  0
  3  4  1  0
  4  5  1  0
  4  6  2  0
  6  7  1  0
  7  8  1  0
  8  9  2  0
  9 10  1  0
 10 11  1  0
 10 12  1  0
 10 13  1  0
 13 14  1  0
 13 15  1  0
 13 16  1  0
 16 17  1  0
 17 18  1  0
 17 19  1  0
 17 20  1  0
 20 21  1  0
 20 22  1  0
 20 23  1  0
 23 24  1  0
 23 25  1  0
 23 26  1  0
 26 27  1  1
 26 28  1  0
 28 29  1  0
 28 30  1  0
 28 31  1  0
  9 32  1  0
 32 33  1  0
 32 34  2  0
 34 35  1  0
 34 36  1  0
 36 37  2  0
  6 38  1  0
 38 39  1  0
 38 40  2  0
 40 41  1  0
 40  2  1  0
 36  7  1  0
 26 16  1  0
M  END
>  <cnnaffinity>  (1) 
-5.18066

>  <filename>  (1) 
C[C@@H]1CCCN1CCc1ccc(=O)n(-c2cccnc2)n1

$$$$
