
     RDKit          3D

 31 33  0  0  0  0  0  0  0  0999 V2000
    9.4246    2.0097   25.3751 H   0  0  0  0  0  0  0  0  0  0  0  0
    9.6345    1.0672   25.5097 O   0  0  0  0  0  0  0  0  0  0  0  0
    8.4026    0.5979   25.2834 C   0  0  0  0  0  0  0  0  0  0  0  0
    7.5285    1.3909   25.0262 O   0  0  0  0  0  0  0  0  0  0  0  0
    8.2831   -0.9343   25.3818 C   0  0  2  0  0  0  0  0  0  0  0  0
    9.0144   -1.2147   26.1409 H   0  0  0  0  0  0  0  0  0  0  0  0
    8.7284   -1.5294   24.1240 N   0  0  0  0  0  0  0  0  0  0  0  0
    9.9607   -2.1022   23.8197 C   0  0  0  0  0  0  0  0  0  0  0  0
   10.6791   -2.2887   24.6006 H   0  0  0  0  0  0  0  0  0  0  0  0
   10.0632   -2.2851   22.4793 C   0  0  0  0  0  0  0  0  0  0  0  0
   10.8389   -2.6478   21.8285 H   0  0  0  0  0  0  0  0  0  0  0  0
    8.8723   -1.8024   21.9428 N   0  0  0  0  0  0  0  0  0  0  0  0
    8.4617   -1.4481   20.7016 N   0  0  0  0  0  0  0  0  0  0  0  0
    7.3668   -0.7179   20.9539 C   0  0  0  0  0  0  0  0  0  0  0  0
    6.6457   -0.0214   19.8808 C   0  0  0  0  0  0  0  0  0  0  0  0
    7.1711    0.0430   18.5782 C   0  0  0  0  0  0  0  0  0  0  0  0
    8.1221   -0.4317   18.3405 H   0  0  0  0  0  0  0  0  0  0  0  0
    6.5642    0.6748   17.5677 N   0  0  0  0  0  0  0  0  0  0  0  0
    5.4008    1.2943   17.8236 C   0  0  0  0  0  0  0  0  0  0  0  0
    4.9257    1.7987   16.9827 H   0  0  0  0  0  0  0  0  0  0  0  0
    4.8033    1.3094   19.0880 C   0  0  0  0  0  0  0  0  0  0  0  0
    3.8728    1.8445   19.2440 H   0  0  0  0  0  0  0  0  0  0  0  0
    5.4355    0.6435   20.1322 C   0  0  0  0  0  0  0  0  0  0  0  0
    4.9964    0.6398   21.1294 H   0  0  0  0  0  0  0  0  0  0  0  0
    7.0667   -0.6083   22.3313 C   0  0  0  0  0  0  0  0  0  0  0  0
    6.3380    0.0224   22.8042 H   0  0  0  0  0  0  0  0  0  0  0  0
    8.0871   -1.3267   22.9254 C   0  0  0  0  0  0  0  0  0  0  0  0
    6.8739   -1.4042   25.7639 C   0  0  0  0  0  0  0  0  0  0  0  0
    6.1429   -1.0701   25.0168 H   0  0  0  0  0  0  0  0  0  0  0  0
    6.8478   -2.4966   25.8176 H   0  0  0  0  0  0  0  0  0  0  0  0
    6.5886   -0.9885   26.7354 H   0  0  0  0  0  0  0  0  0  0  0  0
  1  2  1  0
  2  3  1  0
  3  4  2  0
  3  5  1  0
  5  6  1  1
  5  7  1  0
  7  8  1  0
  8  9  1  0
  8 10  2  0
 10 11  1  0
 10 12  1  0
 12 13  1  0
 13 14  2  0
 14 15  1  0
 15 16  2  0
 16 17  1  0
 16 18  1  0
 18 19  2  0
 19 20  1  0
 19 21  1  0
 21 22  1  0
 21 23  2  0
 23 24  1  0
 14 25  1  0
 25 26  1  0
 25 27  2  0
  5 28  1  0
 28 29  1  0
 28 30  1  0
 28 31  1  0
 27  7  1  0
 27 12  1  0
 23 15  1  0
M  END
>  <cnnaffinity>  (1) 
-4.87448

>  <filename>  (1) 
C[C@H](C(=O)O)n1ccn2nc(-c3cccnc3)cc12

$$$$
