
     RDKit          3D

 36 38  0  0  0  0  0  0  0  0999 V2000
    4.9260    1.8222   16.9393 H   0  0  0  0  0  0  0  0  0  0  0  0
    5.3786    1.3308   17.7969 C   0  0  0  0  0  0  0  0  0  0  0  0
    6.5433    0.7053   17.5698 N   0  0  0  0  0  0  0  0  0  0  0  0
    7.1323    0.1053   18.6066 C   0  0  0  0  0  0  0  0  0  0  0  0
    8.0627   -0.4294   18.4159 H   0  0  0  0  0  0  0  0  0  0  0  0
    6.6153    0.1301   19.9086 C   0  0  0  0  0  0  0  0  0  0  0  0
    7.3669   -0.5711   20.9657 C   0  0  0  0  0  0  0  0  0  0  0  0
    8.0171   -1.6352   20.5765 N   0  0  0  0  0  0  0  0  0  0  0  0
    8.5264   -2.4410   21.5423 C   0  0  0  0  0  0  0  0  0  0  0  0
    8.7966   -3.6131   21.4079 O   0  0  0  0  0  0  0  0  0  0  0  0
    8.7539   -1.8826   22.8069 N   0  0  0  0  0  0  0  0  0  0  0  0
    9.0268   -2.6375   23.4079 H   0  0  0  0  0  0  0  0  0  0  0  0
    8.0353   -0.8143   23.2683 C   0  0  0  0  0  0  0  0  0  0  0  0
    8.0778   -0.4845   24.7531 C   0  0  1  0  0  0  0  0  0  0  0  0
    7.4784    0.4259   24.8806 H   0  0  0  0  0  0  0  0  0  0  0  0
    7.3888   -1.5731   25.5952 C   0  0  0  0  0  0  0  0  0  0  0  0
    8.0770   -2.6535   26.1727 C   0  0  0  0  0  0  0  0  0  0  0  0
    9.1570   -2.7429   26.0639 H   0  0  0  0  0  0  0  0  0  0  0  0
    7.3940   -3.6139   26.9296 C   0  0  0  0  0  0  0  0  0  0  0  0
    7.9415   -4.4395   27.3743 H   0  0  0  0  0  0  0  0  0  0  0  0
    6.0116   -3.5194   27.1086 C   0  0  0  0  0  0  0  0  0  0  0  0
    5.4829   -4.2662   27.6953 H   0  0  0  0  0  0  0  0  0  0  0  0
    5.3105   -2.4634   26.5194 C   0  0  0  0  0  0  0  0  0  0  0  0
    4.2342   -2.3868   26.6457 H   0  0  0  0  0  0  0  0  0  0  0  0
    5.9937   -1.5069   25.7637 C   0  0  0  0  0  0  0  0  0  0  0  0
    5.4346   -0.6913   25.3078 H   0  0  0  0  0  0  0  0  0  0  0  0
    9.5099   -0.1376   25.2098 C   0  0  0  0  0  0  0  0  0  0  0  0
    9.8974    0.7177   24.6428 H   0  0  0  0  0  0  0  0  0  0  0  0
   10.1984   -0.9759   25.0570 H   0  0  0  0  0  0  0  0  0  0  0  0
    9.5180    0.1242   26.2715 H   0  0  0  0  0  0  0  0  0  0  0  0
    7.3380   -0.1221   22.3171 C   0  0  0  0  0  0  0  0  0  0  0  0
    6.7660    0.7548   22.5611 H   0  0  0  0  0  0  0  0  0  0  0  0
    5.3797    0.7497   20.1256 C   0  0  0  0  0  0  0  0  0  0  0  0
    4.9139    0.7192   21.1121 H   0  0  0  0  0  0  0  0  0  0  0  0
    4.7513    1.3648   19.0464 C   0  0  0  0  0  0  0  0  0  0  0  0
    3.8057    1.8787   19.1651 H   0  0  0  0  0  0  0  0  0  0  0  0
  1  2  1  0
  2  3  2  0
  3  4  1  0
  4  5  1  0
  4  6  2  0
  6  7  1  0
  7  8  2  0
  8  9  1  0
  9 10  2  0
  9 11  1  0
 11 12  1  0
 11 13  1  0
 13 14  1  0
 14 15  1  6
 14 16  1  0
 16 17  2  0
 17 18  1  0
 17 19  1  0
 19 20  1  0
 19 21  2  0
 21 22  1  0
 21 23  1  0
 23 24  1  0
 23 25  2  0
 25 26  1  0
 14 27  1  0
 27 28  1  0
 27 29  1  0
 27 30  1  0
 13 31  2  0
 31 32  1  0
  6 33  1  0
 33 34  1  0
 33 35  2  0
 35 36  1  0
 35  2  1  0
 31  7  1  0
 25 16  1  0
M  END
>  <cnnaffinity>  (1) 
-5.38679

>  <filename>  (1) 
C[C@H](c1ccccc1)c1cc(-c2cccnc2)nc(=O)[nH]1

$$$$
