
     RDKit          3D

 42 44  0  0  0  0  0  0  0  0999 V2000
    4.9282    1.8377   16.9600 H   0  0  0  0  0  0  0  0  0  0  0  0
    5.3892    1.3147   17.7977 C   0  0  0  0  0  0  0  0  0  0  0  0
    6.5412    0.6783   17.5383 N   0  0  0  0  0  0  0  0  0  0  0  0
    7.1365    0.0495   18.5584 C   0  0  0  0  0  0  0  0  0  0  0  0
    8.0780   -0.4458   18.3215 H   0  0  0  0  0  0  0  0  0  0  0  0
    6.6458    0.0041   19.8799 C   0  0  0  0  0  0  0  0  0  0  0  0
    7.4822   -0.6839   20.9716 C   0  0  1  0  0  0  0  0  0  0  0  0
    8.0786   -1.4604   20.4826 H   0  0  0  0  0  0  0  0  0  0  0  0
    8.5787    0.2315   21.6074 C   0  0  0  0  0  0  0  0  0  0  0  0
    9.7641   -0.0576   21.5560 O   0  0  0  0  0  0  0  0  0  0  0  0
    8.0652    1.3258   22.2525 N   0  0  0  0  0  0  0  0  0  0  0  0
    7.0862    1.4964   22.0791 H   0  0  0  0  0  0  0  0  0  0  0  0
    8.7249    2.3812   22.9158 N   0  0  0  0  0  0  0  0  0  0  0  0
    9.7660    3.0334   22.1010 C   0  0  0  0  0  0  0  0  0  0  0  0
    9.6646    4.1203   22.2429 H   0  0  0  0  0  0  0  0  0  0  0  0
    9.6003    2.8200   21.0384 H   0  0  0  0  0  0  0  0  0  0  0  0
   11.1402    2.5230   22.5851 C   0  0  0  0  0  0  0  0  0  0  0  0
   11.4534    1.7097   21.9268 H   0  0  0  0  0  0  0  0  0  0  0  0
   11.8872    3.3210   22.5273 H   0  0  0  0  0  0  0  0  0  0  0  0
   10.9065    2.0077   24.0235 C   0  0  2  0  0  0  0  0  0  0  0  0
   11.3977    2.6489   24.7648 H   0  0  0  0  0  0  0  0  0  0  0  0
   11.2947    0.5329   24.2792 C   0  0  0  0  0  0  0  0  0  0  0  0
   11.3850    0.0048   23.3200 H   0  0  0  0  0  0  0  0  0  0  0  0
   12.2576    0.4492   24.8109 H   0  0  0  0  0  0  0  0  0  0  0  0
   10.2099   -0.0536   25.0796 N   0  0  0  0  0  0  0  0  0  0  0  0
    9.9406   -1.4769   24.8655 C   0  0  0  0  0  0  0  0  0  0  0  0
    9.3434   -1.7011   23.9586 H   0  0  0  0  0  0  0  0  0  0  0  0
    9.3797   -1.8549   25.7325 H   0  0  0  0  0  0  0  0  0  0  0  0
   10.8591   -2.0572   24.7573 H   0  0  0  0  0  0  0  0  0  0  0  0
    8.9869    0.7463   24.9140 C   0  0  0  0  0  0  0  0  0  0  0  0
    8.2513    0.2170   24.3002 H   0  0  0  0  0  0  0  0  0  0  0  0
    8.5032    0.9175   25.8881 H   0  0  0  0  0  0  0  0  0  0  0  0
    9.3648    2.0706   24.2349 C   0  0  2  0  0  0  0  0  0  0  0  0
    9.0972    2.9148   24.8791 H   0  0  0  0  0  0  0  0  0  0  0  0
    6.6208   -1.3877   22.0461 C   0  0  0  0  0  0  0  0  0  0  0  0
    5.8345   -1.9847   21.5732 H   0  0  0  0  0  0  0  0  0  0  0  0
    7.2247   -2.0689   22.6592 H   0  0  0  0  0  0  0  0  0  0  0  0
    6.1435   -0.6767   22.7307 H   0  0  0  0  0  0  0  0  0  0  0  0
    5.4202    0.6480   20.1130 C   0  0  0  0  0  0  0  0  0  0  0  0
    4.9486    0.6261   21.0992 H   0  0  0  0  0  0  0  0  0  0  0  0
    4.7873    1.3175   19.0577 C   0  0  0  0  0  0  0  0  0  0  0  0
    3.8571    1.8560   19.2017 H   0  0  0  0  0  0  0  0  0  0  0  0
  1  2  1  0
  2  3  2  0
  3  4  1  0
  4  5  1  0
  4  6  2  0
  6  7  1  0
  7  8  1  6
  7  9  1  0
  9 10  2  0
  9 11  1  0
 11 12  1  0
 11 13  1  0
 13 14  1  0
 14 15  1  0
 14 16  1  0
 14 17  1  0
 17 18  1  0
 17 19  1  0
 17 20  1  0
 20 21  1  1
 20 22  1  0
 22 23  1  0
 22 24  1  0
 22 25  1  0
 25 26  1  0
 26 27  1  0
 26 28  1  0
 26 29  1  0
 25 30  1  0
 30 31  1  0
 30 32  1  0
 30 33  1  0
 33 34  1  1
  7 35  1  0
 35 36  1  0
 35 37  1  0
 35 38  1  0
  6 39  1  0
 39 40  1  0
 39 41  2  0
 41 42  1  0
 41  2  1  0
 33 13  1  0
 33 20  1  0
M  END
>  <cnnaffinity>  (1) 
-4.9164

>  <filename>  (1) 
C[C@H](C(=O)NN1CC[C@@H]2CN(C)C[C@@H]21)c1cccnc1

$$$$
