
     RDKit          3D

 35 37  0  0  0  0  0  0  0  0999 V2000
    4.9380    1.7826   17.0184 H   0  0  0  0  0  0  0  0  0  0  0  0
    5.4143    1.2758   17.8557 C   0  0  0  0  0  0  0  0  0  0  0  0
    6.5700    0.6517   17.5845 N   0  0  0  0  0  0  0  0  0  0  0  0
    7.2066    0.0456   18.5951 C   0  0  0  0  0  0  0  0  0  0  0  0
    8.1468   -0.4325   18.3417 H   0  0  0  0  0  0  0  0  0  0  0  0
    6.7056    0.0113   19.9126 C   0  0  0  0  0  0  0  0  0  0  0  0
    7.2985   -0.6922   20.9634 O   0  0  0  0  0  0  0  0  0  0  0  0
    8.6539   -0.7318   21.1196 C   0  0  0  0  0  0  0  0  0  0  0  0
    9.4192   -0.0167   20.5249 O   0  0  0  0  0  0  0  0  0  0  0  0
    9.1177   -1.7857   22.1047 C   0  0  1  0  0  0  0  0  0  0  0  0
   10.2007   -1.7908   21.9643 H   0  0  0  0  0  0  0  0  0  0  0  0
    8.8381   -1.2430   23.4805 C   0  0  0  0  0  0  0  0  0  0  0  0
    7.5808   -1.1425   23.8358 N   0  0  0  0  0  0  0  0  0  0  0  0
    7.3033   -0.7388   25.1171 C   0  0  0  0  0  0  0  0  0  0  0  0
    5.9372   -0.6539   25.5073 C   0  0  0  0  0  0  0  0  0  0  0  0
    5.2029   -0.9486   24.7684 H   0  0  0  0  0  0  0  0  0  0  0  0
    5.5975   -0.2127   26.7674 C   0  0  0  0  0  0  0  0  0  0  0  0
    4.5523   -0.1342   27.0546 H   0  0  0  0  0  0  0  0  0  0  0  0
    6.6078    0.1479   27.7019 C   0  0  0  0  0  0  0  0  0  0  0  0
    6.3170    0.4961   28.6895 H   0  0  0  0  0  0  0  0  0  0  0  0
    7.9368    0.0571   27.3640 C   0  0  0  0  0  0  0  0  0  0  0  0
    8.7172    0.3297   28.0710 H   0  0  0  0  0  0  0  0  0  0  0  0
    8.3205   -0.3901   26.0663 C   0  0  0  0  0  0  0  0  0  0  0  0
    9.6768   -0.4972   25.6377 C   0  0  0  0  0  0  0  0  0  0  0  0
   10.4719   -0.2413   26.3409 H   0  0  0  0  0  0  0  0  0  0  0  0
    9.9279   -0.9194   24.3546 C   0  0  0  0  0  0  0  0  0  0  0  0
   10.9369   -1.0442   23.9750 H   0  0  0  0  0  0  0  0  0  0  0  0
    8.5664   -3.2087   21.8537 C   0  0  0  0  0  0  0  0  0  0  0  0
    8.9952   -3.9217   22.5656 H   0  0  0  0  0  0  0  0  0  0  0  0
    7.4774   -3.2418   21.9526 H   0  0  0  0  0  0  0  0  0  0  0  0
    8.8341   -3.5454   20.8511 H   0  0  0  0  0  0  0  0  0  0  0  0
    5.4860    0.6332   20.1861 C   0  0  0  0  0  0  0  0  0  0  0  0
    5.0744    0.5916   21.1940 H   0  0  0  0  0  0  0  0  0  0  0  0
    4.8412    1.2882   19.1314 C   0  0  0  0  0  0  0  0  0  0  0  0
    3.9057    1.8095   19.2809 H   0  0  0  0  0  0  0  0  0  0  0  0
  1  2  1  0
  2  3  2  0
  3  4  1  0
  4  5  1  0
  4  6  2  0
  6  7  1  0
  7  8  1  0
  8  9  2  0
  8 10  1  0
 10 11  1  1
 10 12  1  0
 12 13  2  0
 13 14  1  0
 14 15  2  0
 15 16  1  0
 15 17  1  0
 17 18  1  0
 17 19  2  0
 19 20  1  0
 19 21  1  0
 21 22  1  0
 21 23  2  0
 23 24  1  0
 24 25  1  0
 24 26  2  0
 26 27  1  0
 10 28  1  0
 28 29  1  0
 28 30  1  0
 28 31  1  0
  6 32  1  0
 32 33  1  0
 32 34  2  0
 34 35  1  0
 34  2  1  0
 26 12  1  0
 23 14  1  0
M  END
>  <cnnaffinity>  (1) 
-5.04905

>  <filename>  (1) 
C[C@@H](C(=O)Oc1cccnc1)c1ccc2ccccc2n1

$$$$
