
     RDKit          3D

 35 36  0  0  0  0  0  0  0  0999 V2000
    4.9148    1.7767   16.9996 H   0  0  0  0  0  0  0  0  0  0  0  0
    5.4065    1.2895   17.8397 C   0  0  0  0  0  0  0  0  0  0  0  0
    6.5667    0.6748   17.5832 N   0  0  0  0  0  0  0  0  0  0  0  0
    7.1729    0.0593   18.6104 C   0  0  0  0  0  0  0  0  0  0  0  0
    8.1140   -0.4221   18.3696 H   0  0  0  0  0  0  0  0  0  0  0  0
    6.6660    0.0033   19.9132 C   0  0  0  0  0  0  0  0  0  0  0  0
    7.3673   -0.7400   21.0445 C   0  0  1  0  0  0  0  0  0  0  0  0
    8.6867   -1.2391   20.6738 N   0  0  0  0  0  0  0  0  0  0  0  0
    8.6060   -1.9209   19.9258 H   0  0  0  0  0  0  0  0  0  0  0  0
    9.2552   -0.4752   20.3284 H   0  0  0  0  0  0  0  0  0  0  0  0
    7.5629    0.2126   22.2343 C   0  0  0  0  0  0  0  0  0  0  0  0
    8.2503   -0.2204   22.9638 H   0  0  0  0  0  0  0  0  0  0  0  0
    6.6214    0.4317   22.7471 H   0  0  0  0  0  0  0  0  0  0  0  0
    7.9783    1.1684   21.9004 H   0  0  0  0  0  0  0  0  0  0  0  0
    6.5030   -1.9510   21.4432 C   0  0  0  0  0  0  0  0  0  0  0  0
    5.5160   -1.5976   21.7405 H   0  0  0  0  0  0  0  0  0  0  0  0
    6.3062   -2.5555   20.5520 H   0  0  0  0  0  0  0  0  0  0  0  0
    7.0774   -2.8288   22.5578 C   0  0  0  0  0  0  0  0  0  0  0  0
    8.0905   -3.1337   22.2879 H   0  0  0  0  0  0  0  0  0  0  0  0
    7.1599   -2.2468   23.4840 H   0  0  0  0  0  0  0  0  0  0  0  0
    6.2156   -4.0399   22.8069 C   0  0  0  0  0  0  0  0  0  0  0  0
    5.2057   -3.9904   23.7813 C   0  0  0  0  0  0  0  0  0  0  0  0
    5.0827   -3.0830   24.3662 H   0  0  0  0  0  0  0  0  0  0  0  0
    4.3590   -5.0765   24.0148 C   0  0  0  0  0  0  0  0  0  0  0  0
    3.5974   -5.0150   24.7855 H   0  0  0  0  0  0  0  0  0  0  0  0
    4.5076   -6.2401   23.2551 C   0  0  0  0  0  0  0  0  0  0  0  0
    3.8589   -7.0918   23.4330 H   0  0  0  0  0  0  0  0  0  0  0  0
    5.4854   -6.3153   22.2622 C   0  0  0  0  0  0  0  0  0  0  0  0
    5.6043   -7.2130   21.6619 H   0  0  0  0  0  0  0  0  0  0  0  0
    6.3216   -5.2169   22.0449 C   0  0  0  0  0  0  0  0  0  0  0  0
    7.5143   -5.3502   20.7766 Cl  0  0  0  0  0  0  0  0  0  0  0  0
    5.4438    0.6499   20.1535 C   0  0  0  0  0  0  0  0  0  0  0  0
    4.9959    0.6406   21.1536 H   0  0  0  0  0  0  0  0  0  0  0  0
    4.8062    1.3111   19.1060 C   0  0  0  0  0  0  0  0  0  0  0  0
    3.8735    1.8437   19.2614 H   0  0  0  0  0  0  0  0  0  0  0  0
  1  2  1  0
  2  3  2  0
  3  4  1  0
  4  5  1  0
  4  6  2  0
  6  7  1  0
  7  8  1  6
  8  9  1  0
  8 10  1  0
  7 11  1  0
 11 12  1  0
 11 13  1  0
 11 14  1  0
  7 15  1  0
 15 16  1  0
 15 17  1  0
 15 18  1  0
 18 19  1  0
 18 20  1  0
 18 21  1  0
 21 22  2  0
 22 23  1  0
 22 24  1  0
 24 25  1  0
 24 26  2  0
 26 27  1  0
 26 28  1  0
 28 29  1  0
 28 30  2  0
 30 31  1  0
  6 32  1  0
 32 33  1  0
 32 34  2  0
 34 35  1  0
 34  2  1  0
 30 21  1  0
M  END
>  <cnnaffinity>  (1) 
-4.67626

>  <filename>  (1) 
C[C@@](N)(CCc1ccccc1Cl)c1cccnc1

$$$$
