
     RDKit          3D

 30 31  0  0  0  0  0  0  0  0999 V2000
    4.9314    1.7270   16.9258 H   0  0  0  0  0  0  0  0  0  0  0  0
    5.4113    1.2754   17.7895 C   0  0  0  0  0  0  0  0  0  0  0  0
    6.5774    0.6258   17.6222 N   0  0  0  0  0  0  0  0  0  0  0  0
    7.1528    0.0769   18.7110 C   0  0  0  0  0  0  0  0  0  0  0  0
    8.0846   -0.4651   18.5905 H   0  0  0  0  0  0  0  0  0  0  0  0
    6.6114    0.1568   20.0110 C   0  0  0  0  0  0  0  0  0  0  0  0
    7.2923   -0.4800   21.2247 C   0  0  2  0  0  0  0  0  0  0  0  0
    6.6683   -0.3046   22.1112 H   0  0  0  0  0  0  0  0  0  0  0  0
    8.6837    0.1171   21.5228 C   0  0  0  0  0  0  0  0  0  0  0  0
    9.6497   -0.3545   20.9181 O   0  0  0  0  0  0  0  0  0  0  0  0
    8.7431    1.1208   22.4373 O   0  0  0  0  0  0  0  0  0  0  0  0
    9.9885    1.5988   22.7554 C   0  0  0  0  0  0  0  0  0  0  0  0
   10.1115    2.9559   23.0611 C   0  0  0  0  0  0  0  0  0  0  0  0
    9.2194    3.5754   23.0339 H   0  0  0  0  0  0  0  0  0  0  0  0
   11.3606    3.5073   23.3714 C   0  0  0  0  0  0  0  0  0  0  0  0
   11.4488    4.5707   23.5783 H   0  0  0  0  0  0  0  0  0  0  0  0
   12.4950    2.6838   23.3967 C   0  0  0  0  0  0  0  0  0  0  0  0
   13.4692    3.0910   23.6416 H   0  0  0  0  0  0  0  0  0  0  0  0
   12.3849    1.3229   23.0867 C   0  0  0  0  0  0  0  0  0  0  0  0
   13.9239    0.1881   23.0440 Br  0  0  0  0  0  0  0  0  0  0  0  0
   11.1351    0.7888   22.7722 C   0  0  0  0  0  0  0  0  0  0  0  0
   11.0565   -0.2648   22.5276 H   0  0  0  0  0  0  0  0  0  0  0  0
    7.4294   -1.9948   21.0180 C   0  0  0  0  0  0  0  0  0  0  0  0
    6.5099   -2.4326   20.6071 H   0  0  0  0  0  0  0  0  0  0  0  0
    7.6794   -2.4752   21.9716 H   0  0  0  0  0  0  0  0  0  0  0  0
    8.2561   -2.1754   20.3270 H   0  0  0  0  0  0  0  0  0  0  0  0
    5.3913    0.8167   20.1645 C   0  0  0  0  0  0  0  0  0  0  0  0
    4.9201    0.8924   21.1417 H   0  0  0  0  0  0  0  0  0  0  0  0
    4.7861    1.3711   19.0366 C   0  0  0  0  0  0  0  0  0  0  0  0
    3.8372    1.8893   19.1167 H   0  0  0  0  0  0  0  0  0  0  0  0
  1  2  1  0
  2  3  2  0
  3  4  1  0
  4  5  1  0
  4  6  2  0
  6  7  1  0
  7  8  1  1
  7  9  1  0
  9 10  2  0
  9 11  1  0
 11 12  1  0
 12 13  2  0
 13 14  1  0
 13 15  1  0
 15 16  1  0
 15 17  2  0
 17 18  1  0
 17 19  1  0
 19 20  1  0
 19 21  2  0
 21 22  1  0
  7 23  1  0
 23 24  1  0
 23 25  1  0
 23 26  1  0
  6 27  1  0
 27 28  1  0
 27 29  2  0
 29 30  1  0
 29  2  1  0
 21 12  1  0
M  END
>  <cnnaffinity>  (1) 
-4.92731

>  <filename>  (1) 
C[C@@H](C(=O)Oc1cccc(Br)c1)c1cccnc1

$$$$
