
     RDKit          3D

 39 40  0  0  0  0  0  0  0  0999 V2000
    5.0102    1.9146   16.9325 H   0  0  0  0  0  0  0  0  0  0  0  0
    5.4825    1.3474   17.7344 C   0  0  0  0  0  0  0  0  0  0  0  0
    6.6675    0.7868   17.4475 N   0  0  0  0  0  0  0  0  0  0  0  0
    7.2607    0.0731   18.4152 C   0  0  0  0  0  0  0  0  0  0  0  0
    8.2209   -0.3739   18.1490 H   0  0  0  0  0  0  0  0  0  0  0  0
    6.7143   -0.1333   19.6972 C   0  0  0  0  0  0  0  0  0  0  0  0
    7.3934   -0.9840   20.7710 C   0  0  2  0  0  0  0  0  0  0  0  0
    8.3181   -1.3885   20.3435 H   0  0  0  0  0  0  0  0  0  0  0  0
    6.5564   -2.2560   21.0692 C   0  0  0  0  0  0  0  0  0  0  0  0
    6.4082   -3.1650   20.2895 O   0  0  0  0  0  0  0  0  0  0  0  0
    6.0238   -2.2442   22.2968 O   0  0  0  0  0  0  0  0  0  0  0  0
    5.2687   -3.3515   22.8115 C   0  0  0  0  0  0  0  0  0  0  0  0
    5.4572   -4.2685   22.2372 H   0  0  0  0  0  0  0  0  0  0  0  0
    4.2023   -3.1047   22.7487 H   0  0  0  0  0  0  0  0  0  0  0  0
    5.7209   -3.4617   24.2578 C   0  0  0  0  0  0  0  0  0  0  0  0
    5.6101   -2.4899   24.7544 H   0  0  0  0  0  0  0  0  0  0  0  0
    6.8030   -3.6495   24.2219 H   0  0  0  0  0  0  0  0  0  0  0  0
    4.9741   -4.5188   25.1010 C   0  0  0  0  0  0  0  0  0  0  0  0
    4.6417   -5.3692   24.4852 H   0  0  0  0  0  0  0  0  0  0  0  0
    4.0573   -4.0759   25.5174 H   0  0  0  0  0  0  0  0  0  0  0  0
    5.8620   -5.0330   26.2125 C   0  0  0  0  0  0  0  0  0  0  0  0
    7.0076   -5.7775   25.8796 C   0  0  0  0  0  0  0  0  0  0  0  0
    7.2249   -5.9609   24.8292 H   0  0  0  0  0  0  0  0  0  0  0  0
    7.8915   -6.2141   26.8660 C   0  0  0  0  0  0  0  0  0  0  0  0
    8.7958   -6.7507   26.5879 H   0  0  0  0  0  0  0  0  0  0  0  0
    7.6358   -5.9107   28.2060 C   0  0  0  0  0  0  0  0  0  0  0  0
    8.3305   -6.2426   28.9725 H   0  0  0  0  0  0  0  0  0  0  0  0
    6.4971   -5.1778   28.5482 C   0  0  0  0  0  0  0  0  0  0  0  0
    6.3190   -4.9280   29.5918 H   0  0  0  0  0  0  0  0  0  0  0  0
    5.6171   -4.7315   27.5583 C   0  0  0  0  0  0  0  0  0  0  0  0
    4.7606   -4.1047   27.8111 H   0  0  0  0  0  0  0  0  0  0  0  0
    7.7378   -0.1496   22.0248 C   0  0  0  0  0  0  0  0  0  0  0  0
    8.3079   -0.7441   22.7450 H   0  0  0  0  0  0  0  0  0  0  0  0
    6.8303    0.1873   22.5334 H   0  0  0  0  0  0  0  0  0  0  0  0
    8.3199    0.7409   21.7705 H   0  0  0  0  0  0  0  0  0  0  0  0
    5.4917    0.4841   19.9788 C   0  0  0  0  0  0  0  0  0  0  0  0
    5.0464    0.3738   20.9706 H   0  0  0  0  0  0  0  0  0  0  0  0
    4.8640    1.2323   18.9833 C   0  0  0  0  0  0  0  0  0  0  0  0
    3.9155    1.7209   19.1650 H   0  0  0  0  0  0  0  0  0  0  0  0
  1  2  1  0
  2  3  2  0
  3  4  1  0
  4  5  1  0
  4  6  2  0
  6  7  1  0
  7  8  1  6
  7  9  1  0
  9 10  2  0
  9 11  1  0
 11 12  1  0
 12 13  1  0
 12 14  1  0
 12 15  1  0
 15 16  1  0
 15 17  1  0
 15 18  1  0
 18 19  1  0
 18 20  1  0
 18 21  1  0
 21 22  2  0
 22 23  1  0
 22 24  1  0
 24 25  1  0
 24 26  2  0
 26 27  1  0
 26 28  1  0
 28 29  1  0
 28 30  2  0
 30 31  1  0
  7 32  1  0
 32 33  1  0
 32 34  1  0
 32 35  1  0
  6 36  1  0
 36 37  1  0
 36 38  2  0
 38 39  1  0
 38  2  1  0
 30 21  1  0
M  END
>  <cnnaffinity>  (1) 
-4.46312

>  <filename>  (1) 
C[C@@H](C(=O)OCCCc1ccccc1)c1cccnc1

$$$$
