
     RDKit          3D

 39 41  0  0  0  0  0  0  0  0999 V2000
    4.9468    1.6172   16.9854 H   0  0  0  0  0  0  0  0  0  0  0  0
    5.3764    1.2677   17.9202 C   0  0  0  0  0  0  0  0  0  0  0  0
    6.5878    0.6983   17.8382 N   0  0  0  0  0  0  0  0  0  0  0  0
    7.1372    0.2467   18.9784 C   0  0  0  0  0  0  0  0  0  0  0  0
    8.1296   -0.1829   18.8767 H   0  0  0  0  0  0  0  0  0  0  0  0
    6.5130    0.3082   20.2650 C   0  0  0  0  0  0  0  0  0  0  0  0
    7.0153   -0.2130   21.4601 N   0  0  0  0  0  0  0  0  0  0  0  0
    6.5391    0.1253   22.2874 H   0  0  0  0  0  0  0  0  0  0  0  0
    8.4111   -0.5899   21.6646 C   0  0  0  0  0  0  0  0  0  0  0  0
    9.4066    0.6083   21.5046 C   0  0  1  0  0  0  0  0  0  0  0  0
    9.2937    0.8867   20.4467 H   0  0  0  0  0  0  0  0  0  0  0  0
    8.9665    1.8128   22.3299 C   0  0  0  0  0  0  0  0  0  0  0  0
    8.4487    2.9254   21.6533 C   0  0  0  0  0  0  0  0  0  0  0  0
    8.6067    2.9389   20.5871 H   0  0  0  0  0  0  0  0  0  0  0  0
    7.8074    3.9677   22.3289 C   0  0  0  0  0  0  0  0  0  0  0  0
    7.3864    4.8083   21.7753 H   0  0  0  0  0  0  0  0  0  0  0  0
    7.7104    3.9089   23.7216 C   0  0  0  0  0  0  0  0  0  0  0  0
    7.1563    4.6747   24.2533 H   0  0  0  0  0  0  0  0  0  0  0  0
    8.3093    2.8510   24.4230 C   0  0  0  0  0  0  0  0  0  0  0  0
    8.2726    2.8227   25.5060 H   0  0  0  0  0  0  0  0  0  0  0  0
    8.9502    1.8172   23.7290 C   0  0  0  0  0  0  0  0  0  0  0  0
    9.4332    1.0128   24.2792 H   0  0  0  0  0  0  0  0  0  0  0  0
   10.8920    0.2724   21.7072 C   0  0  0  0  0  0  0  0  0  0  0  0
   11.5078    1.1334   21.4243 H   0  0  0  0  0  0  0  0  0  0  0  0
   11.1147    0.0312   22.7511 H   0  0  0  0  0  0  0  0  0  0  0  0
   11.1973   -0.5790   21.0890 H   0  0  0  0  0  0  0  0  0  0  0  0
    8.5989   -1.4915   22.9084 C   0  0  0  0  0  0  0  0  0  0  0  0
    9.1184   -1.0827   23.7802 H   0  0  0  0  0  0  0  0  0  0  0  0
    7.6281   -1.8661   23.2494 H   0  0  0  0  0  0  0  0  0  0  0  0
    9.3401   -2.5368   22.0251 C   0  0  0  0  0  0  0  0  0  0  0  0
   10.4276   -2.4650   22.1198 H   0  0  0  0  0  0  0  0  0  0  0  0
    9.0491   -3.5840   22.1530 H   0  0  0  0  0  0  0  0  0  0  0  0
    8.8012   -1.7938   20.7786 C   0  0  0  0  0  0  0  0  0  0  0  0
    9.4805   -1.5619   19.9487 H   0  0  0  0  0  0  0  0  0  0  0  0
    7.8858   -2.2392   20.3879 H   0  0  0  0  0  0  0  0  0  0  0  0
    5.2459    0.9138   20.3078 C   0  0  0  0  0  0  0  0  0  0  0  0
    4.7331    0.9865   21.2680 H   0  0  0  0  0  0  0  0  0  0  0  0
    4.6807    1.3977   19.1267 C   0  0  0  0  0  0  0  0  0  0  0  0
    3.7110    1.8802   19.1345 H   0  0  0  0  0  0  0  0  0  0  0  0
  1  2  1  0
  2  3  2  0
  3  4  1  0
  4  5  1  0
  4  6  2  0
  6  7  1  0
  7  8  1  0
  7  9  1  0
  9 10  1  0
 10 11  1  6
 10 12  1  0
 12 13  2  0
 13 14  1  0
 13 15  1  0
 15 16  1  0
 15 17  2  0
 17 18  1  0
 17 19  1  0
 19 20  1  0
 19 21  2  0
 21 22  1  0
 10 23  1  0
 23 24  1  0
 23 25  1  0
 23 26  1  0
  9 27  1  0
 27 28  1  0
 27 29  1  0
 27 30  1  0
 30 31  1  0
 30 32  1  0
 30 33  1  0
 33 34  1  0
 33 35  1  0
  6 36  1  0
 36 37  1  0
 36 38  2  0
 38 39  1  0
 38  2  1  0
 33  9  1  0
 21 12  1  0
M  END
>  <cnnaffinity>  (1) 
-4.79161

>  <filename>  (1) 
C[C@H](c1ccccc1)C1(Nc2cccnc2)CCC1

$$$$
