
     RDKit          3D

 30 31  0  0  0  0  0  0  0  0999 V2000
    4.9334    1.8071   16.9804 H   0  0  0  0  0  0  0  0  0  0  0  0
    5.4276    1.2988   17.8061 C   0  0  0  0  0  0  0  0  0  0  0  0
    6.5869    0.6838   17.5180 N   0  0  0  0  0  0  0  0  0  0  0  0
    7.2164    0.0558   18.5201 C   0  0  0  0  0  0  0  0  0  0  0  0
    8.1498   -0.4369   18.2558 H   0  0  0  0  0  0  0  0  0  0  0  0
    6.7393   -0.0079   19.8500 C   0  0  0  0  0  0  0  0  0  0  0  0
    7.4575   -0.7216   20.9331 C   0  0  0  0  0  0  0  0  0  0  0  0
    9.1544   -1.0864   20.8794 S   0  0  0  0  0  0  0  0  0  0  0  0
    9.1029   -1.8364   22.4276 C   0  0  0  0  0  0  0  0  0  0  0  0
    9.9982   -2.2842   22.8347 H   0  0  0  0  0  0  0  0  0  0  0  0
    7.8549   -1.7918   22.9998 C   0  0  0  0  0  0  0  0  0  0  0  0
    7.5042   -2.2758   24.3832 C   0  0  0  0  0  0  0  0  0  0  0  0
    7.9183   -3.3801   24.9045 N   0  0  0  0  0  0  0  0  0  0  0  0
    8.5026   -4.3305   24.0780 N   0  0  0  0  0  0  0  0  0  0  0  0
    8.3092   -4.2970   23.0799 H   0  0  0  0  0  0  0  0  0  0  0  0
    8.7479   -5.6441   24.4214 C   0  0  0  0  0  0  0  0  0  0  0  0
    8.8070   -6.7587   23.1881 S   0  0  0  0  0  0  0  0  0  0  0  0
    8.9259   -5.9022   25.7112 N   0  0  0  0  0  0  0  0  0  0  0  0
    9.0759   -6.8578   25.9846 H   0  0  0  0  0  0  0  0  0  0  0  0
    8.7303   -5.1644   26.3685 H   0  0  0  0  0  0  0  0  0  0  0  0
    6.5731   -1.4554   25.2525 C   0  0  0  0  0  0  0  0  0  0  0  0
    5.5201   -1.6344   24.9865 H   0  0  0  0  0  0  0  0  0  0  0  0
    6.7094   -1.7436   26.2987 H   0  0  0  0  0  0  0  0  0  0  0  0
    6.7558   -0.3841   25.1431 H   0  0  0  0  0  0  0  0  0  0  0  0
    6.9262   -1.1712   22.1041 C   0  0  0  0  0  0  0  0  0  0  0  0
    5.8708   -1.1025   22.3057 H   0  0  0  0  0  0  0  0  0  0  0  0
    5.5215    0.6430   20.1175 C   0  0  0  0  0  0  0  0  0  0  0  0
    5.1090    0.6492   21.1270 H   0  0  0  0  0  0  0  0  0  0  0  0
    4.8550    1.3001   19.0816 C   0  0  0  0  0  0  0  0  0  0  0  0
    3.9122    1.8101   19.2494 H   0  0  0  0  0  0  0  0  0  0  0  0
  1  2  1  0
  2  3  2  0
  3  4  1  0
  4  5  1  0
  4  6  2  0
  6  7  1  0
  7  8  1  0
  8  9  1  0
  9 10  1  0
  9 11  2  0
 11 12  1  0
 12 13  2  3
 13 14  1  0
 14 15  1  0
 14 16  1  0
 16 17  2  0
 16 18  1  0
 18 19  1  0
 18 20  1  0
 12 21  1  0
 21 22  1  0
 21 23  1  0
 21 24  1  0
 11 25  1  0
 25 26  1  0
  6 27  1  0
 27 28  1  0
 27 29  2  0
 29 30  1  0
 29  2  1  0
 25  7  2  0
M  END
>  <cnnaffinity>  (1) 
-5.20584

>  <filename>  (1) 
CC(=NNC(N)=S)c1csc(-c2cccnc2)c1

$$$$
