
     RDKit          3D

 37 39  0  0  0  0  0  0  0  0999 V2000
    4.9471    1.8225   16.9902 H   0  0  0  0  0  0  0  0  0  0  0  0
    5.3830    1.2922   17.8353 C   0  0  0  0  0  0  0  0  0  0  0  0
    6.5323    0.6506   17.5822 N   0  0  0  0  0  0  0  0  0  0  0  0
    7.1257    0.0243   18.6016 C   0  0  0  0  0  0  0  0  0  0  0  0
    8.0980   -0.4258   18.4025 H   0  0  0  0  0  0  0  0  0  0  0  0
    6.5941   -0.0377   19.9016 C   0  0  0  0  0  0  0  0  0  0  0  0
    7.3246   -0.7596   20.9906 C   0  0  0  0  0  0  0  0  0  0  0  0
    6.5812   -1.5241   21.7542 N   0  0  0  0  0  0  0  0  0  0  0  0
    7.1556   -2.1872   22.8132 N   0  0  0  0  0  0  0  0  0  0  0  0
    6.2813   -2.9823   23.6319 C   0  0  0  0  0  0  0  0  0  0  0  0
    5.2008   -3.6478   23.0319 C   0  0  0  0  0  0  0  0  0  0  0  0
    5.0497   -3.4932   21.9669 H   0  0  0  0  0  0  0  0  0  0  0  0
    4.3625   -4.4651   23.7952 C   0  0  0  0  0  0  0  0  0  0  0  0
    3.5334   -5.0078   23.3570 H   0  0  0  0  0  0  0  0  0  0  0  0
    4.5726   -4.6067   25.1745 C   0  0  0  0  0  0  0  0  0  0  0  0
    3.7126   -5.4139   25.9526 N   0  0  0  0  0  0  0  0  0  0  0  0
    3.5876   -5.1701   26.9194 H   0  0  0  0  0  0  0  0  0  0  0  0
    3.1121   -6.5801   25.5482 C   0  0  0  0  0  0  0  0  0  0  0  0
    3.3616   -7.1317   24.4957 O   0  0  0  0  0  0  0  0  0  0  0  0
    2.0953   -7.1448   26.5084 C   0  0  0  0  0  0  0  0  0  0  0  0
    1.4944   -6.3711   26.9904 H   0  0  0  0  0  0  0  0  0  0  0  0
    1.4523   -7.7955   25.9146 H   0  0  0  0  0  0  0  0  0  0  0  0
    2.5868   -7.7348   27.2869 H   0  0  0  0  0  0  0  0  0  0  0  0
    5.6270   -3.9192   25.7874 C   0  0  0  0  0  0  0  0  0  0  0  0
    5.7726   -4.0405   26.8593 H   0  0  0  0  0  0  0  0  0  0  0  0
    6.4882   -3.1209   25.0209 C   0  0  0  0  0  0  0  0  0  0  0  0
    7.3017   -2.5823   25.5023 H   0  0  0  0  0  0  0  0  0  0  0  0
    8.5136   -2.1381   23.0445 C   0  0  0  0  0  0  0  0  0  0  0  0
    8.8718   -2.7683   23.8622 H   0  0  0  0  0  0  0  0  0  0  0  0
    9.3386   -1.3889   22.2967 C   0  0  0  0  0  0  0  0  0  0  0  0
   10.4010   -1.3281   22.4756 H   0  0  0  0  0  0  0  0  0  0  0  0
    8.8154   -0.5849   21.1969 C   0  0  0  0  0  0  0  0  0  0  0  0
    9.5327    0.1516   20.5264 O   0  0  0  0  0  0  0  0  0  0  0  0
    5.3777    0.6175   20.1429 C   0  0  0  0  0  0  0  0  0  0  0  0
    4.9514    0.6066   21.1458 H   0  0  0  0  0  0  0  0  0  0  0  0
    4.7666    1.3086   19.0919 C   0  0  0  0  0  0  0  0  0  0  0  0
    3.8536    1.8838   19.2218 H   0  0  0  0  0  0  0  0  0  0  0  0
  1  2  1  0
  2  3  2  0
  3  4  1  0
  4  5  1  0
  4  6  2  0
  6  7  1  0
  7  8  2  0
  8  9  1  0
  9 10  1  0
 10 11  2  0
 11 12  1  0
 11 13  1  0
 13 14  1  0
 13 15  2  0
 15 16  1  0
 16 17  1  0
 16 18  1  0
 18 19  2  0
 18 20  1  0
 20 21  1  0
 20 22  1  0
 20 23  1  0
 15 24  1  0
 24 25  1  0
 24 26  2  0
 26 27  1  0
  9 28  1  0
 28 29  1  0
 28 30  2  0
 30 31  1  0
 30 32  1  0
 32 33  2  0
  6 34  1  0
 34 35  1  0
 34 36  2  0
 36 37  1  0
 36  2  1  0
 32  7  1  0
 26 10  1  0
M  END
>  <cnnaffinity>  (1) 
-5.47288

>  <filename>  (1) 
CC(=O)Nc1ccc(-n2ccc(=O)c(-c3cccnc3)n2)cc1

$$$$
