
     RDKit          3D

 31 32  0  0  0  0  0  0  0  0999 V2000
    4.8976    1.8222   16.9701 H   0  0  0  0  0  0  0  0  0  0  0  0
    5.3787    1.3164   17.8041 C   0  0  0  0  0  0  0  0  0  0  0  0
    6.5378    0.6966   17.5238 N   0  0  0  0  0  0  0  0  0  0  0  0
    7.1730    0.0848   18.5314 C   0  0  0  0  0  0  0  0  0  0  0  0
    8.1188   -0.3993   18.3011 H   0  0  0  0  0  0  0  0  0  0  0  0
    6.6765    0.0343   19.8496 C   0  0  0  0  0  0  0  0  0  0  0  0
    7.3612   -0.6824   20.9136 N   0  0  0  0  0  0  0  0  0  0  0  0
    6.7536   -1.8326   21.4879 C   0  0  0  0  0  0  0  0  0  0  0  0
    5.6788   -2.2272   21.0819 O   0  0  0  0  0  0  0  0  0  0  0  0
    7.5018   -2.4973   22.5364 C   0  0  0  0  0  0  0  0  0  0  0  0
    7.0101   -3.3634   22.9426 H   0  0  0  0  0  0  0  0  0  0  0  0
    8.6945   -2.0629   22.9785 C   0  0  0  0  0  0  0  0  0  0  0  0
    9.4600   -2.6961   24.1354 C   0  0  0  0  0  0  0  0  0  0  0  0
   10.4830   -2.3185   24.0978 H   0  0  0  0  0  0  0  0  0  0  0  0
    9.4811   -3.7845   23.9955 H   0  0  0  0  0  0  0  0  0  0  0  0
    8.9128   -2.4159   25.4658 N   0  0  0  0  0  0  0  0  0  0  0  0
    8.2290   -3.0400   25.8562 H   0  0  0  0  0  0  0  0  0  0  0  0
    8.9108   -1.1414   25.9618 C   0  0  0  0  0  0  0  0  0  0  0  0
    9.5303   -0.2423   25.4243 O   0  0  0  0  0  0  0  0  0  0  0  0
    8.1319   -0.9742   27.2363 C   0  0  0  0  0  0  0  0  0  0  0  0
    8.1035    0.0861   27.4811 H   0  0  0  0  0  0  0  0  0  0  0  0
    8.6488   -1.5284   28.0192 H   0  0  0  0  0  0  0  0  0  0  0  0
    7.1151   -1.3651   27.1560 H   0  0  0  0  0  0  0  0  0  0  0  0
    9.2235   -0.9623   22.3266 N   0  0  0  0  0  0  0  0  0  0  0  0
    9.9862   -0.4004   22.6689 H   0  0  0  0  0  0  0  0  0  0  0  0
    8.5949   -0.2165   21.3541 C   0  0  0  0  0  0  0  0  0  0  0  0
    9.1414    0.7772   20.9326 O   0  0  0  0  0  0  0  0  0  0  0  0
    5.4602    0.6645   20.1180 C   0  0  0  0  0  0  0  0  0  0  0  0
    5.0442    0.6058   21.1227 H   0  0  0  0  0  0  0  0  0  0  0  0
    4.7986    1.3328   19.0771 C   0  0  0  0  0  0  0  0  0  0  0  0
    3.8580    1.8560   19.2392 H   0  0  0  0  0  0  0  0  0  0  0  0
  1  2  1  0
  2  3  2  0
  3  4  1  0
  4  5  1  0
  4  6  2  0
  6  7  1  0
  7  8  1  0
  8  9  2  0
  8 10  1  0
 10 11  1  0
 10 12  2  0
 12 13  1  0
 13 14  1  0
 13 15  1  0
 13 16  1  0
 16 17  1  0
 16 18  1  0
 18 19  2  0
 18 20  1  0
 20 21  1  0
 20 22  1  0
 20 23  1  0
 12 24  1  0
 24 25  1  0
 24 26  1  0
 26 27  2  0
  6 28  1  0
 28 29  1  0
 28 30  2  0
 30 31  1  0
 30  2  1  0
 26  7  1  0
M  END
>  <cnnaffinity>  (1) 
-4.91239

>  <filename>  (1) 
CC(=O)NCc1cc(=O)n(-c2cccnc2)c(=O)[nH]1

$$$$
