
     RDKit          3D

 35 37  0  0  0  0  0  0  0  0999 V2000
    4.9138    1.8122   16.9692 H   0  0  0  0  0  0  0  0  0  0  0  0
    5.3826    1.3066   17.8142 C   0  0  0  0  0  0  0  0  0  0  0  0
    6.5455    0.6862   17.5562 N   0  0  0  0  0  0  0  0  0  0  0  0
    7.1553    0.0685   18.5746 C   0  0  0  0  0  0  0  0  0  0  0  0
    8.1004   -0.4165   18.3292 H   0  0  0  0  0  0  0  0  0  0  0  0
    6.6656    0.0065   19.8966 C   0  0  0  0  0  0  0  0  0  0  0  0
    7.3883   -0.7091   20.9714 C   0  0  0  0  0  0  0  0  0  0  0  0
    8.7600   -1.0891   21.0667 C   0  0  0  0  0  0  0  0  0  0  0  0
    9.5557   -0.9072   20.3551 H   0  0  0  0  0  0  0  0  0  0  0  0
    9.0360   -1.7198   22.1889 N   0  0  0  0  0  0  0  0  0  0  0  0
    7.8650   -1.7656   22.8677 N   0  0  0  0  0  0  0  0  0  0  0  0
    7.7481   -2.3938   24.1532 C   0  0  0  0  0  0  0  0  0  0  0  0
    8.7698   -3.2466   24.5978 C   0  0  0  0  0  0  0  0  0  0  0  0
    9.6319   -3.3932   23.9584 H   0  0  0  0  0  0  0  0  0  0  0  0
    8.6664   -3.8688   25.8411 C   0  0  0  0  0  0  0  0  0  0  0  0
    9.4663   -4.5239   26.1768 H   0  0  0  0  0  0  0  0  0  0  0  0
    7.5505   -3.6488   26.6535 C   0  0  0  0  0  0  0  0  0  0  0  0
    7.4582   -4.1236   27.6244 H   0  0  0  0  0  0  0  0  0  0  0  0
    6.5448   -2.7805   26.2193 C   0  0  0  0  0  0  0  0  0  0  0  0
    5.4171   -2.5540   27.0402 N   0  0  0  0  0  0  0  0  0  0  0  0
    5.1457   -3.2852   27.6721 H   0  0  0  0  0  0  0  0  0  0  0  0
    4.7496   -1.3609   27.1551 C   0  0  0  0  0  0  0  0  0  0  0  0
    5.1452   -0.3256   26.6540 O   0  0  0  0  0  0  0  0  0  0  0  0
    3.4652   -1.4135   27.9653 C   0  0  0  0  0  0  0  0  0  0  0  0
    2.8901   -0.5411   27.6540 H   0  0  0  0  0  0  0  0  0  0  0  0
    2.8648   -2.3159   27.8028 H   0  0  0  0  0  0  0  0  0  0  0  0
    3.6563   -1.3202   29.0408 H   0  0  0  0  0  0  0  0  0  0  0  0
    6.6310   -2.1571   24.9714 C   0  0  0  0  0  0  0  0  0  0  0  0
    5.8264   -1.4878   24.6923 H   0  0  0  0  0  0  0  0  0  0  0  0
    6.8771   -1.1776   22.1554 C   0  0  0  0  0  0  0  0  0  0  0  0
    5.8825   -1.1685   22.5516 H   0  0  0  0  0  0  0  0  0  0  0  0
    5.4420    0.6591   20.1349 C   0  0  0  0  0  0  0  0  0  0  0  0
    5.0114    0.6590   21.1342 H   0  0  0  0  0  0  0  0  0  0  0  0
    4.7983    1.3175   19.0843 C   0  0  0  0  0  0  0  0  0  0  0  0
    3.8663    1.8480   19.2343 H   0  0  0  0  0  0  0  0  0  0  0  0
  1  2  1  0
  2  3  2  0
  3  4  1  0
  4  5  1  0
  4  6  2  0
  6  7  1  0
  7  8  1  0
  8  9  1  0
  8 10  2  0
 10 11  1  0
 11 12  1  0
 12 13  2  0
 13 14  1  0
 13 15  1  0
 15 16  1  0
 15 17  2  0
 17 18  1  0
 17 19  1  0
 19 20  1  0
 20 21  1  0
 20 22  1  0
 22 23  2  0
 22 24  1  0
 24 25  1  0
 24 26  1  0
 24 27  1  0
 19 28  2  0
 28 29  1  0
 11 30  1  0
 30 31  1  0
  6 32  1  0
 32 33  1  0
 32 34  2  0
 34 35  1  0
 34  2  1  0
 30  7  2  0
 28 12  1  0
M  END
>  <cnnaffinity>  (1) 
-5.11095

>  <filename>  (1) 
CC(=O)Nc1cccc(-n2cc(-c3cccnc3)cn2)c1

$$$$
