
     RDKit          3D

 38 40  0  0  0  0  0  0  0  0999 V2000
    5.0633    1.9978   16.8519 H   0  0  0  0  0  0  0  0  0  0  0  0
    5.4555    1.3960   17.6709 C   0  0  0  0  0  0  0  0  0  0  0  0
    6.5861    0.7153   17.4175 N   0  0  0  0  0  0  0  0  0  0  0  0
    7.1212    0.0056   18.4185 C   0  0  0  0  0  0  0  0  0  0  0  0
    8.0342   -0.5485   18.1975 H   0  0  0  0  0  0  0  0  0  0  0  0
    6.5605   -0.0694   19.7115 C   0  0  0  0  0  0  0  0  0  0  0  0
    7.2813   -0.6881   20.8027 N   0  0  0  0  0  0  0  0  0  0  0  0
    8.5201   -0.1598   21.1283 C   0  0  0  0  0  0  0  0  0  0  0  0
    8.8157    0.7142   20.5579 H   0  0  0  0  0  0  0  0  0  0  0  0
    9.3275   -0.6933   22.0942 C   0  0  0  0  0  0  0  0  0  0  0  0
   10.7229   -0.1949   22.2929 C   0  0  0  0  0  0  0  0  0  0  0  0
   11.8166   -1.0329   21.9988 C   0  0  0  0  0  0  0  0  0  0  0  0
   11.6178   -2.0507   21.6684 H   0  0  0  0  0  0  0  0  0  0  0  0
   13.1261   -0.5585   22.1233 C   0  0  0  0  0  0  0  0  0  0  0  0
   13.9720   -1.2000   21.8843 H   0  0  0  0  0  0  0  0  0  0  0  0
   13.3685    0.7581   22.5398 C   0  0  0  0  0  0  0  0  0  0  0  0
   14.3726    1.1383   22.6734 H   0  0  0  0  0  0  0  0  0  0  0  0
   12.2830    1.6012   22.8125 C   0  0  0  0  0  0  0  0  0  0  0  0
   12.4344    2.9373   23.2298 N   0  0  0  0  0  0  0  0  0  0  0  0
   11.5844    3.3729   23.5391 H   0  0  0  0  0  0  0  0  0  0  0  0
   13.4459    3.8159   22.9446 C   0  0  0  0  0  0  0  0  0  0  0  0
   14.5046    3.4983   22.4492 O   0  0  0  0  0  0  0  0  0  0  0  0
   13.1074    5.2550   23.2749 C   0  0  0  0  0  0  0  0  0  0  0  0
   14.0436    5.8068   23.3430 H   0  0  0  0  0  0  0  0  0  0  0  0
   12.5139    5.6683   22.4500 H   0  0  0  0  0  0  0  0  0  0  0  0
   12.5365    5.3534   24.2041 H   0  0  0  0  0  0  0  0  0  0  0  0
   10.9723    1.1139   22.7248 C   0  0  0  0  0  0  0  0  0  0  0  0
   10.1384    1.7511   23.0119 H   0  0  0  0  0  0  0  0  0  0  0  0
    8.8134   -1.7925   22.8521 C   0  0  0  0  0  0  0  0  0  0  0  0
    9.4347   -2.2109   23.6441 H   0  0  0  0  0  0  0  0  0  0  0  0
    7.5757   -2.2991   22.5985 C   0  0  0  0  0  0  0  0  0  0  0  0
    7.1435   -3.1289   23.1396 H   0  0  0  0  0  0  0  0  0  0  0  0
    6.7303   -1.8128   21.5139 C   0  0  0  0  0  0  0  0  0  0  0  0
    5.6747   -2.3330   21.2011 O   0  0  0  0  0  0  0  0  0  0  0  0
    5.3270    0.5539   19.9295 C   0  0  0  0  0  0  0  0  0  0  0  0
    4.8269    0.4338   20.8899 H   0  0  0  0  0  0  0  0  0  0  0  0
    4.7845    1.3296   18.8968 C   0  0  0  0  0  0  0  0  0  0  0  0
    3.8689    1.8945   19.0340 H   0  0  0  0  0  0  0  0  0  0  0  0
  1  2  1  0
  2  3  2  0
  3  4  1  0
  4  5  1  0
  4  6  2  0
  6  7  1  0
  7  8  1  0
  8  9  1  0
  8 10  2  0
 10 11  1  0
 11 12  2  0
 12 13  1  0
 12 14  1  0
 14 15  1  0
 14 16  2  0
 16 17  1  0
 16 18  1  0
 18 19  1  0
 19 20  1  0
 19 21  1  0
 21 22  2  0
 21 23  1  0
 23 24  1  0
 23 25  1  0
 23 26  1  0
 18 27  2  0
 27 28  1  0
 10 29  1  0
 29 30  1  0
 29 31  2  0
 31 32  1  0
 31 33  1  0
 33 34  2  0
  6 35  1  0
 35 36  1  0
 35 37  2  0
 37 38  1  0
 37  2  1  0
 33  7  1  0
 27 11  1  0
M  END
>  <cnnaffinity>  (1) 
-6.20047

>  <filename>  (1) 
CC(=O)Nc1cccc(-c2ccc(=O)n(-c3cccnc3)c2)c1

$$$$
