
     RDKit          3D

 37 40  0  0  0  0  0  0  0  0999 V2000
    4.9870    1.8703   16.8827 H   0  0  0  0  0  0  0  0  0  0  0  0
    5.4160    1.3078   17.7106 C   0  0  0  0  0  0  0  0  0  0  0  0
    6.5589    0.6493   17.4617 N   0  0  0  0  0  0  0  0  0  0  0  0
    7.1307   -0.0057   18.4784 C   0  0  0  0  0  0  0  0  0  0  0  0
    8.0625   -0.5207   18.2520 H   0  0  0  0  0  0  0  0  0  0  0  0
    6.6015   -0.0411   19.7831 C   0  0  0  0  0  0  0  0  0  0  0  0
    7.3621   -0.6445   20.8940 C   0  0  0  0  0  0  0  0  0  0  0  0
    8.5015   -1.3201   20.6781 N   0  0  0  0  0  0  0  0  0  0  0  0
    8.9351   -1.5826   21.9281 N   0  0  0  0  0  0  0  0  0  0  0  0
   10.0438   -2.2119   22.4765 C   0  0  0  0  0  0  0  0  0  0  0  0
   10.7867   -2.6803   21.8578 H   0  0  0  0  0  0  0  0  0  0  0  0
    9.9113   -2.0863   23.8195 C   0  0  0  0  0  0  0  0  0  0  0  0
   10.5309   -2.4644   24.6171 H   0  0  0  0  0  0  0  0  0  0  0  0
    8.7465   -1.3778   24.1136 N   0  0  0  0  0  0  0  0  0  0  0  0
    8.2531   -1.0087   25.3960 C   0  0  0  0  0  0  0  0  0  0  0  0
    9.1441   -0.6569   26.4278 C   0  0  0  0  0  0  0  0  0  0  0  0
   10.2191   -0.6883   26.2732 H   0  0  0  0  0  0  0  0  0  0  0  0
    8.6420   -0.2131   27.6515 C   0  0  0  0  0  0  0  0  0  0  0  0
    9.3236    0.0282   28.4653 H   0  0  0  0  0  0  0  0  0  0  0  0
    7.2663   -0.0874   27.8469 C   0  0  0  0  0  0  0  0  0  0  0  0
    6.9250    0.3616   28.7759 H   0  0  0  0  0  0  0  0  0  0  0  0
    6.3583   -0.4852   26.8475 C   0  0  0  0  0  0  0  0  0  0  0  0
    4.8632   -0.3651   27.0527 C   0  0  0  0  0  0  0  0  0  0  0  0
    4.0678   -0.7370   26.2140 O   0  0  0  0  0  0  0  0  0  0  0  0
    4.3962    0.2420   28.3597 C   0  0  0  0  0  0  0  0  0  0  0  0
    4.8678   -0.2791   29.1962 H   0  0  0  0  0  0  0  0  0  0  0  0
    3.3141    0.1720   28.4444 H   0  0  0  0  0  0  0  0  0  0  0  0
    4.7015    1.2908   28.4280 H   0  0  0  0  0  0  0  0  0  0  0  0
    6.8676   -0.9605   25.6243 C   0  0  0  0  0  0  0  0  0  0  0  0
    6.1886   -1.2585   24.8259 H   0  0  0  0  0  0  0  0  0  0  0  0
    8.1424   -1.0892   22.8993 C   0  0  0  0  0  0  0  0  0  0  0  0
    7.0640   -0.4926   22.2685 C   0  0  0  0  0  0  0  0  0  0  0  0
    6.1826   -0.0464   22.6866 H   0  0  0  0  0  0  0  0  0  0  0  0
    5.3809    0.6166   20.0109 C   0  0  0  0  0  0  0  0  0  0  0  0
    4.9154    0.6119   20.9992 H   0  0  0  0  0  0  0  0  0  0  0  0
    4.7852    1.3045   18.9591 C   0  0  0  0  0  0  0  0  0  0  0  0
    3.8702    1.8661   19.1081 H   0  0  0  0  0  0  0  0  0  0  0  0
  1  2  1  0
  2  3  2  0
  3  4  1  0
  4  5  1  0
  4  6  2  0
  6  7  1  0
  7  8  2  0
  8  9  1  0
  9 10  1  0
 10 11  1  0
 10 12  2  0
 12 13  1  0
 12 14  1  0
 14 15  1  0
 15 16  2  0
 16 17  1  0
 16 18  1  0
 18 19  1  0
 18 20  2  0
 20 21  1  0
 20 22  1  0
 22 23  1  0
 23 24  2  0
 23 25  1  0
 25 26  1  0
 25 27  1  0
 25 28  1  0
 22 29  2  0
 29 30  1  0
 14 31  1  0
 31 32  2  0
 32 33  1  0
  6 34  1  0
 34 35  1  0
 34 36  2  0
 36 37  1  0
 36  2  1  0
 32  7  1  0
 31  9  1  0
 29 15  1  0
M  END
>  <cnnaffinity>  (1) 
-5.43398

>  <filename>  (1) 
CC(=O)c1cccc(-n2ccn3nc(-c4cccnc4)cc23)c1

$$$$
