
     RDKit          3D

 36 39  0  0  0  0  0  0  0  0999 V2000
    4.9199    1.7782   16.9995 H   0  0  0  0  0  0  0  0  0  0  0  0
    5.4037    1.2905   17.8406 C   0  0  0  0  0  0  0  0  0  0  0  0
    6.5684    0.6769   17.5751 N   0  0  0  0  0  0  0  0  0  0  0  0
    7.1725    0.0554   18.5886 C   0  0  0  0  0  0  0  0  0  0  0  0
    8.1217   -0.4332   18.3714 H   0  0  0  0  0  0  0  0  0  0  0  0
    6.6475    0.0109   19.8924 C   0  0  0  0  0  0  0  0  0  0  0  0
    7.4043   -0.6977   20.9183 C   0  0  0  0  0  0  0  0  0  0  0  0
    8.3284   -1.6006   20.7012 N   0  0  0  0  0  0  0  0  0  0  0  0
    8.8305   -2.0365   21.9061 N   0  0  0  0  0  0  0  0  0  0  0  0
    8.2031   -1.3544   22.8226 C   0  0  0  0  0  0  0  0  0  0  0  0
    8.2607   -1.0938   24.5399 S   0  0  0  0  0  0  0  0  0  0  0  0
    7.0317    0.1803   24.3292 C   0  0  0  0  0  0  0  0  0  0  0  0
    6.5320    0.9758   25.4766 C   0  0  0  0  0  0  0  0  0  0  0  0
    6.9942    0.7513   26.7896 C   0  0  0  0  0  0  0  0  0  0  0  0
    7.7382   -0.0155   26.9981 H   0  0  0  0  0  0  0  0  0  0  0  0
    6.5213    1.5106   27.8531 C   0  0  0  0  0  0  0  0  0  0  0  0
    6.8782    1.3239   28.8551 H   0  0  0  0  0  0  0  0  0  0  0  0
    5.5762    2.5240   27.6416 C   0  0  0  0  0  0  0  0  0  0  0  0
    5.0912    3.2981   28.7213 N   0  0  0  0  0  0  0  0  0  0  0  0
    4.1605    3.6609   28.6313 H   0  0  0  0  0  0  0  0  0  0  0  0
    5.8270    3.6966   29.8138 C   0  0  0  0  0  0  0  0  0  0  0  0
    7.0331    3.5565   29.8605 O   0  0  0  0  0  0  0  0  0  0  0  0
    5.0678    4.3346   30.9667 C   0  0  0  0  0  0  0  0  0  0  0  0
    4.9253    5.4026   30.7867 H   0  0  0  0  0  0  0  0  0  0  0  0
    4.0985    3.8750   31.1738 H   0  0  0  0  0  0  0  0  0  0  0  0
    5.6932    4.2490   31.8573 H   0  0  0  0  0  0  0  0  0  0  0  0
    5.0863    2.7381   26.3446 C   0  0  0  0  0  0  0  0  0  0  0  0
    4.3424    3.5033   26.1531 H   0  0  0  0  0  0  0  0  0  0  0  0
    5.5643    1.9830   25.2739 C   0  0  0  0  0  0  0  0  0  0  0  0
    5.1976    2.1520   24.2645 H   0  0  0  0  0  0  0  0  0  0  0  0
    6.6243    0.3524   23.1089 N   0  0  0  0  0  0  0  0  0  0  0  0
    7.2754   -0.5160   22.2831 N   0  0  0  0  0  0  0  0  0  0  0  0
    5.4304    0.6527   20.1612 C   0  0  0  0  0  0  0  0  0  0  0  0
    5.0093    0.6371   21.1708 H   0  0  0  0  0  0  0  0  0  0  0  0
    4.8045    1.3079   19.1063 C   0  0  0  0  0  0  0  0  0  0  0  0
    3.8748    1.8430   19.2583 H   0  0  0  0  0  0  0  0  0  0  0  0
  1  2  1  0
  2  3  2  0
  3  4  1  0
  4  5  1  0
  4  6  2  0
  6  7  1  0
  7  8  2  0
  8  9  1  0
  9 10  2  0
 10 11  1  0
 11 12  1  0
 12 13  1  0
 13 14  2  0
 14 15  1  0
 14 16  1  0
 16 17  1  0
 16 18  2  0
 18 19  1  0
 19 20  1  0
 19 21  1  0
 21 22  2  0
 21 23  1  0
 23 24  1  0
 23 25  1  0
 23 26  1  0
 18 27  1  0
 27 28  1  0
 27 29  2  0
 29 30  1  0
 12 31  2  0
 31 32  1  0
  6 33  1  0
 33 34  1  0
 33 35  2  0
 35 36  1  0
 35  2  1  0
 32  7  1  0
 32 10  1  0
 29 13  1  0
M  END
>  <cnnaffinity>  (1) 
-5.3333

>  <filename>  (1) 
CC(=O)Nc1ccc(-c2nn3c(-c4cccnc4)nnc3s2)cc1

$$$$
