
     RDKit          3D

 37 40  0  0  0  0  0  0  0  0999 V2000
    4.9740    1.8503   16.9192 H   0  0  0  0  0  0  0  0  0  0  0  0
    5.4127    1.3046   17.7497 C   0  0  0  0  0  0  0  0  0  0  0  0
    6.5602    0.6608   17.4888 N   0  0  0  0  0  0  0  0  0  0  0  0
    7.1413    0.0065   18.4998 C   0  0  0  0  0  0  0  0  0  0  0  0
    8.0857   -0.4893   18.2792 H   0  0  0  0  0  0  0  0  0  0  0  0
    6.6113   -0.0405   19.8046 C   0  0  0  0  0  0  0  0  0  0  0  0
    7.3588   -0.6718   20.9063 C   0  0  0  0  0  0  0  0  0  0  0  0
    8.4881   -1.3639   20.6861 N   0  0  0  0  0  0  0  0  0  0  0  0
    8.9186   -1.6404   21.9384 N   0  0  0  0  0  0  0  0  0  0  0  0
   10.0532   -2.2209   22.4916 C   0  0  0  0  0  0  0  0  0  0  0  0
   10.8042   -2.6553   21.8551 H   0  0  0  0  0  0  0  0  0  0  0  0
    9.9419   -2.0643   23.8344 C   0  0  0  0  0  0  0  0  0  0  0  0
   10.5900   -2.3924   24.6356 H   0  0  0  0  0  0  0  0  0  0  0  0
    8.7481   -1.3975   24.1233 N   0  0  0  0  0  0  0  0  0  0  0  0
    8.2587   -0.9973   25.3879 C   0  0  0  0  0  0  0  0  0  0  0  0
    9.1497   -0.6016   26.3970 C   0  0  0  0  0  0  0  0  0  0  0  0
   10.2191   -0.5369   26.1918 H   0  0  0  0  0  0  0  0  0  0  0  0
    8.6455   -0.1983   27.6300 C   0  0  0  0  0  0  0  0  0  0  0  0
    9.3581    0.0138   28.4209 H   0  0  0  0  0  0  0  0  0  0  0  0
    7.2606   -0.0346   27.8376 C   0  0  0  0  0  0  0  0  0  0  0  0
    6.7197    0.6757   29.0527 C   0  0  0  0  0  0  0  0  0  0  0  0
    5.5256    0.8077   29.2437 O   0  0  0  0  0  0  0  0  0  0  0  0
    7.7231    1.2855   30.0075 C   0  0  0  0  0  0  0  0  0  0  0  0
    8.2737    2.0787   29.4938 H   0  0  0  0  0  0  0  0  0  0  0  0
    7.2065    1.7026   30.8691 H   0  0  0  0  0  0  0  0  0  0  0  0
    8.4565    0.5443   30.3339 H   0  0  0  0  0  0  0  0  0  0  0  0
    6.3803   -0.4466   26.8186 C   0  0  0  0  0  0  0  0  0  0  0  0
    5.3095   -0.3150   26.9510 H   0  0  0  0  0  0  0  0  0  0  0  0
    6.8690   -0.9640   25.6249 C   0  0  0  0  0  0  0  0  0  0  0  0
    6.1833   -1.2975   24.8467 H   0  0  0  0  0  0  0  0  0  0  0  0
    8.1276   -1.1446   22.9093 C   0  0  0  0  0  0  0  0  0  0  0  0
    7.0593   -0.5252   22.2829 C   0  0  0  0  0  0  0  0  0  0  0  0
    6.2097   -0.0237   22.7115 H   0  0  0  0  0  0  0  0  0  0  0  0
    5.3940    0.6173   20.0500 C   0  0  0  0  0  0  0  0  0  0  0  0
    4.9415    0.6283   21.0455 H   0  0  0  0  0  0  0  0  0  0  0  0
    4.7917    1.3019   19.0026 C   0  0  0  0  0  0  0  0  0  0  0  0
    3.8763    1.8588   19.1540 H   0  0  0  0  0  0  0  0  0  0  0  0
  1  2  1  0
  2  3  2  0
  3  4  1  0
  4  5  1  0
  4  6  2  0
  6  7  1  0
  7  8  2  0
  8  9  1  0
  9 10  1  0
 10 11  1  0
 10 12  2  0
 12 13  1  0
 12 14  1  0
 14 15  1  0
 15 16  2  0
 16 17  1  0
 16 18  1  0
 18 19  1  0
 18 20  2  0
 20 21  1  0
 21 22  2  0
 21 23  1  0
 23 24  1  0
 23 25  1  0
 23 26  1  0
 20 27  1  0
 27 28  1  0
 27 29  2  0
 29 30  1  0
 14 31  1  0
 31 32  2  0
 32 33  1  0
  6 34  1  0
 34 35  1  0
 34 36  2  0
 36 37  1  0
 36  2  1  0
 32  7  1  0
 31  9  1  0
 29 15  1  0
M  END
>  <cnnaffinity>  (1) 
-5.33186

>  <filename>  (1) 
CC(=O)c1ccc(-n2ccn3nc(-c4cccnc4)cc23)cc1

$$$$
