
     RDKit          3D

 37 39  0  0  0  0  0  0  0  0999 V2000
    4.9552    1.7699   17.0332 H   0  0  0  0  0  0  0  0  0  0  0  0
    5.4295    1.2650   17.8695 C   0  0  0  0  0  0  0  0  0  0  0  0
    6.5933    0.6467   17.6060 N   0  0  0  0  0  0  0  0  0  0  0  0
    7.2054    0.0265   18.6240 C   0  0  0  0  0  0  0  0  0  0  0  0
    8.1539   -0.4480   18.3764 H   0  0  0  0  0  0  0  0  0  0  0  0
    6.7040   -0.0359   19.9611 C   0  0  0  0  0  0  0  0  0  0  0  0
    7.3642   -0.6903   20.9752 N   0  0  0  0  0  0  0  0  0  0  0  0
    8.6201   -1.4156   21.0054 C   0  0  0  0  0  0  0  0  0  0  0  0
    9.5055   -0.8161   20.7638 H   0  0  0  0  0  0  0  0  0  0  0  0
    8.6618   -2.3044   20.3789 H   0  0  0  0  0  0  0  0  0  0  0  0
    8.3575   -1.7029   22.5058 C   0  0  0  0  0  0  0  0  0  0  0  0
    9.1081   -1.2634   23.1716 H   0  0  0  0  0  0  0  0  0  0  0  0
    8.2017   -3.1781   22.8629 C   0  0  0  0  0  0  0  0  0  0  0  0
    8.6354   -4.0448   22.1261 O   0  0  0  0  0  0  0  0  0  0  0  0
    7.5018   -3.5459   24.1553 C   0  0  0  0  0  0  0  0  0  0  0  0
    7.0753   -4.8794   24.3314 C   0  0  0  0  0  0  0  0  0  0  0  0
    7.2687   -5.6064   23.5470 H   0  0  0  0  0  0  0  0  0  0  0  0
    6.4102   -5.2601   25.4965 C   0  0  0  0  0  0  0  0  0  0  0  0
    6.0743   -6.2867   25.6167 H   0  0  0  0  0  0  0  0  0  0  0  0
    6.1637   -4.3319   26.5061 C   0  0  0  0  0  0  0  0  0  0  0  0
    5.6422   -4.6263   27.4140 H   0  0  0  0  0  0  0  0  0  0  0  0
    6.5781   -2.9947   26.3580 C   0  0  0  0  0  0  0  0  0  0  0  0
    6.2180   -2.0031   27.4391 C   0  0  0  0  0  0  0  0  0  0  0  0
    5.5022   -2.3242   28.3689 O   0  0  0  0  0  0  0  0  0  0  0  0
    6.7193   -0.5799   27.3244 C   0  0  0  0  0  0  0  0  0  0  0  0
    6.2686   -0.1228   26.4375 H   0  0  0  0  0  0  0  0  0  0  0  0
    7.8067   -0.5265   27.2136 H   0  0  0  0  0  0  0  0  0  0  0  0
    6.4075   -0.0335   28.2158 H   0  0  0  0  0  0  0  0  0  0  0  0
    7.2648   -2.6211   25.1895 C   0  0  0  0  0  0  0  0  0  0  0  0
    7.6024   -1.5881   25.0841 H   0  0  0  0  0  0  0  0  0  0  0  0
    7.0446   -0.8800   22.3746 C   0  0  0  0  0  0  0  0  0  0  0  0
    6.9951    0.0426   22.9643 H   0  0  0  0  0  0  0  0  0  0  0  0
    6.1267   -1.4416   22.5751 H   0  0  0  0  0  0  0  0  0  0  0  0
    5.4754    0.6195   20.1973 C   0  0  0  0  0  0  0  0  0  0  0  0
    5.0343    0.6170   21.1944 H   0  0  0  0  0  0  0  0  0  0  0  0
    4.8402    1.2763   19.1398 C   0  0  0  0  0  0  0  0  0  0  0  0
    3.9038    1.8098   19.2888 H   0  0  0  0  0  0  0  0  0  0  0  0
  1  2  1  0
  2  3  2  0
  3  4  1  0
  4  5  1  0
  4  6  2  0
  6  7  1  0
  7  8  1  0
  8  9  1  0
  8 10  1  0
  8 11  1  0
 11 12  1  0
 11 13  1  0
 13 14  2  0
 13 15  1  0
 15 16  2  0
 16 17  1  0
 16 18  1  0
 18 19  1  0
 18 20  2  0
 20 21  1  0
 20 22  1  0
 22 23  1  0
 23 24  2  0
 23 25  1  0
 25 26  1  0
 25 27  1  0
 25 28  1  0
 22 29  2  0
 29 30  1  0
 11 31  1  0
 31 32  1  0
 31 33  1  0
  6 34  1  0
 34 35  1  0
 34 36  2  0
 36 37  1  0
 36  2  1  0
 31  7  1  0
 29 15  1  0
M  END
>  <cnnaffinity>  (1) 
-5.20193

>  <filename>  (1) 
CC(=O)c1cccc(C(=O)C2CN(c3cccnc3)C2)c1

$$$$
