
     RDKit          3D

 33 35  0  0  0  0  0  0  0  0999 V2000
    4.9576    1.7809   16.9883 H   0  0  0  0  0  0  0  0  0  0  0  0
    5.4110    1.2828   17.8436 C   0  0  0  0  0  0  0  0  0  0  0  0
    6.5735    0.6568   17.6072 N   0  0  0  0  0  0  0  0  0  0  0  0
    7.1701    0.0453   18.6349 C   0  0  0  0  0  0  0  0  0  0  0  0
    8.1194   -0.4365   18.4090 H   0  0  0  0  0  0  0  0  0  0  0  0
    6.6352    0.0128   19.9293 C   0  0  0  0  0  0  0  0  0  0  0  0
    7.3686   -0.6985   20.9768 C   0  0  0  0  0  0  0  0  0  0  0  0
    8.5501   -1.3422   20.7452 N   0  0  0  0  0  0  0  0  0  0  0  0
    8.8194   -1.8227   21.9401 C   0  0  0  0  0  0  0  0  0  0  0  0
   10.0371   -2.7911   22.7248 S   0  0  0  0  0  0  0  0  0  0  0  0
    9.1435   -2.6982   24.2297 C   0  0  0  0  0  0  0  0  0  0  0  0
    9.4817   -3.2269   25.1099 H   0  0  0  0  0  0  0  0  0  0  0  0
    8.0152   -1.9657   24.1350 C   0  0  0  0  0  0  0  0  0  0  0  0
    6.9571   -1.7604   25.1739 C   0  0  0  0  0  0  0  0  0  0  0  0
    7.4091   -1.8600   26.1676 H   0  0  0  0  0  0  0  0  0  0  0  0
    6.5388   -0.7497   25.0966 H   0  0  0  0  0  0  0  0  0  0  0  0
    5.8099   -2.7901   25.0727 C   0  0  0  0  0  0  0  0  0  0  0  0
    5.3076   -2.7050   24.1031 H   0  0  0  0  0  0  0  0  0  0  0  0
    5.0804   -2.5693   25.8625 H   0  0  0  0  0  0  0  0  0  0  0  0
    6.2496   -4.1698   25.2213 N   0  0  0  0  0  0  0  0  0  0  0  0
    6.3725   -4.7484   24.4084 H   0  0  0  0  0  0  0  0  0  0  0  0
    6.7126   -4.6643   26.4035 C   0  0  0  0  0  0  0  0  0  0  0  0
    6.6675   -4.0164   27.4356 O   0  0  0  0  0  0  0  0  0  0  0  0
    7.2672   -6.0701   26.3336 C   0  0  0  0  0  0  0  0  0  0  0  0
    7.7330   -6.2660   27.2977 H   0  0  0  0  0  0  0  0  0  0  0  0
    6.4718   -6.8059   26.1750 H   0  0  0  0  0  0  0  0  0  0  0  0
    8.0120   -6.2040   25.5402 H   0  0  0  0  0  0  0  0  0  0  0  0
    7.8630   -1.4930   22.8308 N   0  0  0  0  0  0  0  0  0  0  0  0
    6.9057   -0.7627   22.2196 N   0  0  0  0  0  0  0  0  0  0  0  0
    5.4131    0.6655   20.1692 C   0  0  0  0  0  0  0  0  0  0  0  0
    4.9691    0.6637   21.1678 H   0  0  0  0  0  0  0  0  0  0  0  0
    4.7974    1.3125   19.1017 C   0  0  0  0  0  0  0  0  0  0  0  0
    3.8639    1.8512   19.2270 H   0  0  0  0  0  0  0  0  0  0  0  0
  1  2  1  0
  2  3  2  0
  3  4  1  0
  4  5  1  0
  4  6  2  0
  6  7  1  0
  7  8  1  0
  8  9  2  0
  9 10  1  0
 10 11  1  0
 11 12  1  0
 11 13  2  0
 13 14  1  0
 14 15  1  0
 14 16  1  0
 14 17  1  0
 17 18  1  0
 17 19  1  0
 17 20  1  0
 20 21  1  0
 20 22  1  0
 22 23  2  0
 22 24  1  0
 24 25  1  0
 24 26  1  0
 24 27  1  0
 13 28  1  0
 28 29  1  0
  6 30  1  0
 30 31  1  0
 30 32  2  0
 32 33  1  0
 32  2  1  0
 29  7  2  0
 28  9  1  0
M  END
>  <cnnaffinity>  (1) 
-5.32724

>  <filename>  (1) 
CC(=O)NCCc1csc2nc(-c3cccnc3)nn12

$$$$
