
     RDKit          3D

 34 36  0  0  0  0  0  0  0  0999 V2000
    4.9179    1.7890   16.9945 H   0  0  0  0  0  0  0  0  0  0  0  0
    5.3946    1.2928   17.8372 C   0  0  0  0  0  0  0  0  0  0  0  0
    6.5535    0.6689   17.5716 N   0  0  0  0  0  0  0  0  0  0  0  0
    7.1719    0.0548   18.5848 C   0  0  0  0  0  0  0  0  0  0  0  0
    8.1266   -0.4203   18.3727 H   0  0  0  0  0  0  0  0  0  0  0  0
    6.6650    0.0070   19.9000 C   0  0  0  0  0  0  0  0  0  0  0  0
    7.3603   -0.6692   20.9384 N   0  0  0  0  0  0  0  0  0  0  0  0
    6.7680   -1.4473   21.9263 C   0  0  0  0  0  0  0  0  0  0  0  0
    5.7004   -1.5762   21.9714 H   0  0  0  0  0  0  0  0  0  0  0  0
    7.7296   -1.9376   22.7411 C   0  0  0  0  0  0  0  0  0  0  0  0
    7.6218   -2.7935   23.9304 C   0  0  0  0  0  0  0  0  0  0  0  0
    8.6358   -2.8654   24.9057 C   0  0  0  0  0  0  0  0  0  0  0  0
    9.5413   -2.2725   24.7888 H   0  0  0  0  0  0  0  0  0  0  0  0
    8.4710   -3.6782   26.0284 C   0  0  0  0  0  0  0  0  0  0  0  0
    9.2622   -3.7323   26.7722 H   0  0  0  0  0  0  0  0  0  0  0  0
    7.2970   -4.4240   26.1968 C   0  0  0  0  0  0  0  0  0  0  0  0
    7.1977   -5.0496   27.0808 H   0  0  0  0  0  0  0  0  0  0  0  0
    6.2670   -4.3643   25.2390 C   0  0  0  0  0  0  0  0  0  0  0  0
    4.9738   -5.1422   25.3660 C   0  0  0  0  0  0  0  0  0  0  0  0
    4.1015   -5.0594   24.5210 O   0  0  0  0  0  0  0  0  0  0  0  0
    4.7853   -6.0364   26.5709 C   0  0  0  0  0  0  0  0  0  0  0  0
    3.8112   -6.5183   26.4932 H   0  0  0  0  0  0  0  0  0  0  0  0
    4.8376   -5.4560   27.4974 H   0  0  0  0  0  0  0  0  0  0  0  0
    5.5721   -6.7961   26.6186 H   0  0  0  0  0  0  0  0  0  0  0  0
    6.4488   -3.5442   24.1145 C   0  0  0  0  0  0  0  0  0  0  0  0
    5.6583   -3.4949   23.3675 H   0  0  0  0  0  0  0  0  0  0  0  0
    8.9304   -1.4462   22.2418 N   0  0  0  0  0  0  0  0  0  0  0  0
    9.8709   -1.6117   22.5390 H   0  0  0  0  0  0  0  0  0  0  0  0
    8.7518   -0.6646   21.1344 C   0  0  0  0  0  0  0  0  0  0  0  0
    9.6298   -0.1207   20.4979 O   0  0  0  0  0  0  0  0  0  0  0  0
    5.4468    0.6438   20.1615 C   0  0  0  0  0  0  0  0  0  0  0  0
    5.0231    0.6362   21.1671 H   0  0  0  0  0  0  0  0  0  0  0  0
    4.8121    1.3070   19.1084 C   0  0  0  0  0  0  0  0  0  0  0  0
    3.8817    1.8366   19.2632 H   0  0  0  0  0  0  0  0  0  0  0  0
  1  2  1  0
  2  3  2  0
  3  4  1  0
  4  5  1  0
  4  6  2  0
  6  7  1  0
  7  8  1  0
  8  9  1  0
  8 10  2  0
 10 11  1  0
 11 12  2  0
 12 13  1  0
 12 14  1  0
 14 15  1  0
 14 16  2  0
 16 17  1  0
 16 18  1  0
 18 19  1  0
 19 20  2  0
 19 21  1  0
 21 22  1  0
 21 23  1  0
 21 24  1  0
 18 25  2  0
 25 26  1  0
 10 27  1  0
 27 28  1  0
 27 29  1  0
 29 30  2  0
  6 31  1  0
 31 32  1  0
 31 33  2  0
 33 34  1  0
 33  2  1  0
 29  7  1  0
 25 11  1  0
M  END
>  <cnnaffinity>  (1) 
-5.32743

>  <filename>  (1) 
CC(=O)c1cccc(-c2cn(-c3cccnc3)c(=O)[nH]2)c1

$$$$
