
     RDKit          3D

 35 37  0  0  0  0  0  0  0  0999 V2000
    4.9146    1.7803   16.9951 H   0  0  0  0  0  0  0  0  0  0  0  0
    5.4021    1.2946   17.8382 C   0  0  0  0  0  0  0  0  0  0  0  0
    6.5659    0.6762   17.5789 N   0  0  0  0  0  0  0  0  0  0  0  0
    7.1766    0.0625   18.5988 C   0  0  0  0  0  0  0  0  0  0  0  0
    8.1151   -0.4369   18.3759 H   0  0  0  0  0  0  0  0  0  0  0  0
    6.6606    0.0059   19.9054 C   0  0  0  0  0  0  0  0  0  0  0  0
    7.3430   -0.6929   20.9496 N   0  0  0  0  0  0  0  0  0  0  0  0
    6.5563   -1.4315   21.7979 N   0  0  0  0  0  0  0  0  0  0  0  0
    7.1256   -2.0836   22.7844 C   0  0  0  0  0  0  0  0  0  0  0  0
    6.2370   -2.8615   23.7054 C   0  0  0  0  0  0  0  0  0  0  0  0
    6.4593   -2.8824   25.1012 C   0  0  0  0  0  0  0  0  0  0  0  0
    7.2960   -2.3334   25.5302 H   0  0  0  0  0  0  0  0  0  0  0  0
    5.6167   -3.6247   25.9256 C   0  0  0  0  0  0  0  0  0  0  0  0
    5.7778   -3.6349   27.0003 H   0  0  0  0  0  0  0  0  0  0  0  0
    4.5554   -4.3556   25.3819 C   0  0  0  0  0  0  0  0  0  0  0  0
    3.9060   -4.9177   26.0508 H   0  0  0  0  0  0  0  0  0  0  0  0
    4.3307   -4.3591   23.9935 C   0  0  0  0  0  0  0  0  0  0  0  0
    3.1915   -5.1138   23.3582 C   0  0  0  0  0  0  0  0  0  0  0  0
    3.0173   -5.0828   22.1546 O   0  0  0  0  0  0  0  0  0  0  0  0
    2.2529   -5.9152   24.2276 C   0  0  0  0  0  0  0  0  0  0  0  0
    1.5071   -6.3874   23.5874 H   0  0  0  0  0  0  0  0  0  0  0  0
    1.7510   -5.2710   24.9557 H   0  0  0  0  0  0  0  0  0  0  0  0
    2.7995   -6.6858   24.7790 H   0  0  0  0  0  0  0  0  0  0  0  0
    5.1880   -3.6106   23.1658 C   0  0  0  0  0  0  0  0  0  0  0  0
    5.0393   -3.5871   22.0877 H   0  0  0  0  0  0  0  0  0  0  0  0
    8.6169   -2.0924   23.0196 C   0  0  0  0  0  0  0  0  0  0  0  0
    9.1836   -2.7254   23.9040 O   0  0  0  0  0  0  0  0  0  0  0  0
    9.3644   -1.2587   22.0865 C   0  0  0  0  0  0  0  0  0  0  0  0
   10.4397   -1.2171   22.2173 H   0  0  0  0  0  0  0  0  0  0  0  0
    8.7148   -0.6084   21.1077 C   0  0  0  0  0  0  0  0  0  0  0  0
    9.2347    0.0380   20.3958 H   0  0  0  0  0  0  0  0  0  0  0  0
    5.4408    0.6459   20.1660 C   0  0  0  0  0  0  0  0  0  0  0  0
    5.0263    0.6035   21.1754 H   0  0  0  0  0  0  0  0  0  0  0  0
    4.8116    1.3123   19.1099 C   0  0  0  0  0  0  0  0  0  0  0  0
    3.8766    1.8423   19.2630 H   0  0  0  0  0  0  0  0  0  0  0  0
  1  2  1  0
  2  3  2  0
  3  4  1  0
  4  5  1  0
  4  6  2  0
  6  7  1  0
  7  8  1  0
  8  9  2  0
  9 10  1  0
 10 11  2  0
 11 12  1  0
 11 13  1  0
 13 14  1  0
 13 15  2  0
 15 16  1  0
 15 17  1  0
 17 18  1  0
 18 19  2  0
 18 20  1  0
 20 21  1  0
 20 22  1  0
 20 23  1  0
 17 24  2  0
 24 25  1  0
  9 26  1  0
 26 27  2  0
 26 28  1  0
 28 29  1  0
 28 30  2  0
 30 31  1  0
  6 32  1  0
 32 33  1  0
 32 34  2  0
 34 35  1  0
 34  2  1  0
 30  7  1  0
 24 10  1  0
M  END
>  <cnnaffinity>  (1) 
-5.36326

>  <filename>  (1) 
CC(=O)c1cccc(-c2nn(-c3cccnc3)ccc2=O)c1

$$$$
