
     RDKit          3D

 37 40  0  0  0  0  0  0  0  0999 V2000
    4.9785    1.7867   16.9936 H   0  0  0  0  0  0  0  0  0  0  0  0
    5.4260    1.2800   17.8437 C   0  0  0  0  0  0  0  0  0  0  0  0
    6.5850    0.6472   17.6115 N   0  0  0  0  0  0  0  0  0  0  0  0
    7.1767    0.0376   18.6424 C   0  0  0  0  0  0  0  0  0  0  0  0
    8.1246   -0.4592   18.4401 H   0  0  0  0  0  0  0  0  0  0  0  0
    6.6345    0.0193   19.9335 C   0  0  0  0  0  0  0  0  0  0  0  0
    7.3668   -0.6930   20.9786 C   0  0  0  0  0  0  0  0  0  0  0  0
    8.5558   -1.3283   20.7608 N   0  0  0  0  0  0  0  0  0  0  0  0
    8.8151   -1.8240   21.9539 C   0  0  0  0  0  0  0  0  0  0  0  0
   10.0457   -2.7775   22.7384 S   0  0  0  0  0  0  0  0  0  0  0  0
    9.1082   -2.7597   24.2091 C   0  0  0  0  0  0  0  0  0  0  0  0
    9.4627   -3.2770   25.0887 H   0  0  0  0  0  0  0  0  0  0  0  0
    7.9629   -2.0402   24.1174 C   0  0  0  0  0  0  0  0  0  0  0  0
    6.9513   -1.7973   25.1798 C   0  0  0  0  0  0  0  0  0  0  0  0
    6.2100   -0.6009   25.2842 C   0  0  0  0  0  0  0  0  0  0  0  0
    6.3376    0.1681   24.5272 H   0  0  0  0  0  0  0  0  0  0  0  0
    5.3205   -0.4290   26.3502 C   0  0  0  0  0  0  0  0  0  0  0  0
    4.7622    0.5026   26.4346 H   0  0  0  0  0  0  0  0  0  0  0  0
    5.1315   -1.4471   27.2957 C   0  0  0  0  0  0  0  0  0  0  0  0
    4.4348   -1.3214   28.1173 H   0  0  0  0  0  0  0  0  0  0  0  0
    5.8559   -2.6410   27.1813 C   0  0  0  0  0  0  0  0  0  0  0  0
    5.6686   -3.6903   28.1027 N   0  0  0  0  0  0  0  0  0  0  0  0
    4.8351   -3.6728   28.6586 H   0  0  0  0  0  0  0  0  0  0  0  0
    6.5769   -4.6697   28.4163 C   0  0  0  0  0  0  0  0  0  0  0  0
    7.6769   -4.7616   27.9022 O   0  0  0  0  0  0  0  0  0  0  0  0
    6.1338   -5.6033   29.5081 C   0  0  0  0  0  0  0  0  0  0  0  0
    6.0303   -5.0513   30.4477 H   0  0  0  0  0  0  0  0  0  0  0  0
    5.1726   -6.0579   29.2694 H   0  0  0  0  0  0  0  0  0  0  0  0
    6.8860   -6.3875   29.6034 H   0  0  0  0  0  0  0  0  0  0  0  0
    6.7669   -2.8004   26.1411 C   0  0  0  0  0  0  0  0  0  0  0  0
    7.3359   -3.7195   26.1237 H   0  0  0  0  0  0  0  0  0  0  0  0
    7.8407   -1.5105   22.8323 N   0  0  0  0  0  0  0  0  0  0  0  0
    6.8913   -0.7685   22.2149 N   0  0  0  0  0  0  0  0  0  0  0  0
    5.4115    0.6718   20.1669 C   0  0  0  0  0  0  0  0  0  0  0  0
    4.9667    0.6759   21.1642 H   0  0  0  0  0  0  0  0  0  0  0  0
    4.7974    1.3116   19.0943 C   0  0  0  0  0  0  0  0  0  0  0  0
    3.8623    1.8476   19.2113 H   0  0  0  0  0  0  0  0  0  0  0  0
  1  2  1  0
  2  3  2  0
  3  4  1  0
  4  5  1  0
  4  6  2  0
  6  7  1  0
  7  8  1  0
  8  9  2  0
  9 10  1  0
 10 11  1  0
 11 12  1  0
 11 13  2  0
 13 14  1  0
 14 15  2  0
 15 16  1  0
 15 17  1  0
 17 18  1  0
 17 19  2  0
 19 20  1  0
 19 21  1  0
 21 22  1  0
 22 23  1  0
 22 24  1  0
 24 25  2  0
 24 26  1  0
 26 27  1  0
 26 28  1  0
 26 29  1  0
 21 30  2  0
 30 31  1  0
 13 32  1  0
 32 33  1  0
  6 34  1  0
 34 35  1  0
 34 36  2  0
 36 37  1  0
 36  2  1  0
 33  7  2  0
 32  9  1  0
 30 14  1  0
M  END
>  <cnnaffinity>  (1) 
-5.65132

>  <filename>  (1) 
CC(=O)Nc1cccc(-c2csc3nc(-c4cccnc4)nn23)c1

$$$$
