
     RDKit          3D

 34 36  0  0  0  0  0  0  0  0999 V2000
    4.9464    1.8105   16.9732 H   0  0  0  0  0  0  0  0  0  0  0  0
    5.3974    1.2986   17.8233 C   0  0  0  0  0  0  0  0  0  0  0  0
    6.5602    0.6719   17.5837 N   0  0  0  0  0  0  0  0  0  0  0  0
    7.1532    0.0452   18.6026 C   0  0  0  0  0  0  0  0  0  0  0  0
    8.0955   -0.4515   18.3729 H   0  0  0  0  0  0  0  0  0  0  0  0
    6.6363    0.0227   19.9056 C   0  0  0  0  0  0  0  0  0  0  0  0
    7.3796   -0.6971   20.9446 C   0  0  0  0  0  0  0  0  0  0  0  0
    7.9526   -1.8561   20.7626 N   0  0  0  0  0  0  0  0  0  0  0  0
    8.4517   -2.2790   21.9676 N   0  0  0  0  0  0  0  0  0  0  0  0
    8.1826   -1.3517   22.8404 C   0  0  0  0  0  0  0  0  0  0  0  0
    8.4598   -1.3934   23.8847 H   0  0  0  0  0  0  0  0  0  0  0  0
    7.5153   -0.2999   22.2616 N   0  0  0  0  0  0  0  0  0  0  0  0
    7.1636    0.9403   22.8804 C   0  0  0  0  0  0  0  0  0  0  0  0
    6.5604    0.9217   24.1440 C   0  0  0  0  0  0  0  0  0  0  0  0
    6.3532   -0.0387   24.6146 H   0  0  0  0  0  0  0  0  0  0  0  0
    6.2345    2.1185   24.7806 C   0  0  0  0  0  0  0  0  0  0  0  0
    5.8000    2.1324   25.7721 H   0  0  0  0  0  0  0  0  0  0  0  0
    6.4896    3.3432   24.1495 C   0  0  0  0  0  0  0  0  0  0  0  0
    6.1482    4.5527   24.7899 N   0  0  0  0  0  0  0  0  0  0  0  0
    5.9066    5.3365   24.2116 H   0  0  0  0  0  0  0  0  0  0  0  0
    6.2338    4.7920   26.1364 C   0  0  0  0  0  0  0  0  0  0  0  0
    6.7510    4.0218   26.9220 O   0  0  0  0  0  0  0  0  0  0  0  0
    5.6355    6.1002   26.5975 C   0  0  0  0  0  0  0  0  0  0  0  0
    5.4362    5.9712   27.6608 H   0  0  0  0  0  0  0  0  0  0  0  0
    6.3443    6.9236   26.4717 H   0  0  0  0  0  0  0  0  0  0  0  0
    4.7089    6.3647   26.0807 H   0  0  0  0  0  0  0  0  0  0  0  0
    7.0646    3.3641   22.8727 C   0  0  0  0  0  0  0  0  0  0  0  0
    7.2281    4.3217   22.3850 H   0  0  0  0  0  0  0  0  0  0  0  0
    7.4154    2.1655   22.2424 C   0  0  0  0  0  0  0  0  0  0  0  0
    7.8368    2.1685   21.2391 H   0  0  0  0  0  0  0  0  0  0  0  0
    5.4101    0.6630   20.1393 C   0  0  0  0  0  0  0  0  0  0  0  0
    4.9836    0.6697   21.1415 H   0  0  0  0  0  0  0  0  0  0  0  0
    4.7834    1.3142   19.0800 C   0  0  0  0  0  0  0  0  0  0  0  0
    3.8513    1.8487   19.2132 H   0  0  0  0  0  0  0  0  0  0  0  0
  1  2  1  0
  2  3  2  0
  3  4  1  0
  4  5  1  0
  4  6  2  0
  6  7  1  0
  7  8  2  0
  8  9  1  0
  9 10  2  0
 10 11  1  0
 10 12  1  0
 12 13  1  0
 13 14  2  0
 14 15  1  0
 14 16  1  0
 16 17  1  0
 16 18  2  0
 18 19  1  0
 19 20  1  0
 19 21  1  0
 21 22  2  0
 21 23  1  0
 23 24  1  0
 23 25  1  0
 23 26  1  0
 18 27  1  0
 27 28  1  0
 27 29  2  0
 29 30  1  0
  6 31  1  0
 31 32  1  0
 31 33  2  0
 33 34  1  0
 33  2  1  0
 12  7  1  0
 29 13  1  0
M  END
>  <cnnaffinity>  (1) 
-5.03175

>  <filename>  (1) 
CC(=O)Nc1ccc(-n2cnnc2-c2cccnc2)cc1

$$$$
