
     RDKit          3D

 41 44  0  0  0  0  0  0  0  0999 V2000
    4.9430    1.8020   16.9772 H   0  0  0  0  0  0  0  0  0  0  0  0
    5.3988    1.2957   17.8268 C   0  0  0  0  0  0  0  0  0  0  0  0
    6.5580    0.6657   17.5799 N   0  0  0  0  0  0  0  0  0  0  0  0
    7.1500    0.0324   18.5964 C   0  0  0  0  0  0  0  0  0  0  0  0
    8.0997   -0.4500   18.3715 H   0  0  0  0  0  0  0  0  0  0  0  0
    6.6335   -0.0029   19.8989 C   0  0  0  0  0  0  0  0  0  0  0  0
    7.3776   -0.7037   20.9408 C   0  0  0  0  0  0  0  0  0  0  0  0
    7.8829   -1.9652   20.7527 N   0  0  0  0  0  0  0  0  0  0  0  0
    8.3679   -2.2770   21.9203 C   0  0  0  0  0  0  0  0  0  0  0  0
    9.0878   -3.6944   22.6320 S   0  0  0  0  0  0  0  0  0  0  0  0
    9.3790   -2.8178   24.1213 C   0  0  0  0  0  0  0  0  0  0  0  0
    9.9202   -3.3195   24.9130 H   0  0  0  0  0  0  0  0  0  0  0  0
    8.8724   -1.5716   24.0803 C   0  0  0  0  0  0  0  0  0  0  0  0
    8.8439   -0.8231   24.8623 H   0  0  0  0  0  0  0  0  0  0  0  0
    8.2890   -1.2728   22.8512 N   0  0  0  0  0  0  0  0  0  0  0  0
    7.6419   -0.2223   22.2155 C   0  0  0  0  0  0  0  0  0  0  0  0
    7.4292    1.1160   22.8304 C   0  0  0  0  0  0  0  0  0  0  0  0
    6.9604    1.7542   22.0645 H   0  0  0  0  0  0  0  0  0  0  0  0
    8.7514    1.8058   23.2236 C   0  0  0  0  0  0  0  0  0  0  0  0
    9.2827    1.1923   23.9605 H   0  0  0  0  0  0  0  0  0  0  0  0
    9.3957    1.8975   22.3437 H   0  0  0  0  0  0  0  0  0  0  0  0
    8.4877    3.1950   23.7975 C   0  0  0  0  0  0  0  0  0  0  0  0
    9.4092    3.6515   24.1693 H   0  0  0  0  0  0  0  0  0  0  0  0
    8.0896    3.8676   23.0175 H   0  0  0  0  0  0  0  0  0  0  0  0
    7.5442    3.1229   24.9209 N   0  0  0  0  0  0  0  0  0  0  0  0
    7.7310    3.9859   25.9779 C   0  0  0  0  0  0  0  0  0  0  0  0
    8.5724    4.8719   25.9517 O   0  0  0  0  0  0  0  0  0  0  0  0
    6.8749    3.7727   27.2085 C   0  0  0  0  0  0  0  0  0  0  0  0
    5.8511    4.1293   27.0551 H   0  0  0  0  0  0  0  0  0  0  0  0
    6.8287    2.7182   27.4971 H   0  0  0  0  0  0  0  0  0  0  0  0
    7.3368    4.3567   28.0040 H   0  0  0  0  0  0  0  0  0  0  0  0
    6.2665    2.4648   24.6291 C   0  0  0  0  0  0  0  0  0  0  0  0
    5.6937    3.0644   23.8979 H   0  0  0  0  0  0  0  0  0  0  0  0
    5.6627    2.4139   25.5399 H   0  0  0  0  0  0  0  0  0  0  0  0
    6.4929    1.0649   24.0551 C   0  0  0  0  0  0  0  0  0  0  0  0
    6.9318    0.4093   24.8153 H   0  0  0  0  0  0  0  0  0  0  0  0
    5.5292    0.6313   23.7635 H   0  0  0  0  0  0  0  0  0  0  0  0
    5.4167    0.6569   20.1411 C   0  0  0  0  0  0  0  0  0  0  0  0
    4.9649    0.6541   21.1362 H   0  0  0  0  0  0  0  0  0  0  0  0
    4.7895    1.3144   19.0865 C   0  0  0  0  0  0  0  0  0  0  0  0
    3.8598    1.8521   19.2309 H   0  0  0  0  0  0  0  0  0  0  0  0
  1  2  1  0
  2  3  2  0
  3  4  1  0
  4  5  1  0
  4  6  2  0
  6  7  1  0
  7  8  1  0
  8  9  2  0
  9 10  1  0
 10 11  1  0
 11 12  1  0
 11 13  2  0
 13 14  1  0
 13 15  1  0
 15 16  1  0
 16 17  1  0
 17 18  1  0
 17 19  1  0
 19 20  1  0
 19 21  1  0
 19 22  1  0
 22 23  1  0
 22 24  1  0
 22 25  1  0
 25 26  1  0
 26 27  2  0
 26 28  1  0
 28 29  1  0
 28 30  1  0
 28 31  1  0
 25 32  1  0
 32 33  1  0
 32 34  1  0
 32 35  1  0
 35 36  1  0
 35 37  1  0
  6 38  1  0
 38 39  1  0
 38 40  2  0
 40 41  1  0
 40  2  1  0
 16  7  2  0
 35 17  1  0
 15  9  1  0
M  END
>  <cnnaffinity>  (1) 
-5.87108

>  <filename>  (1) 
CC(=O)N1CCC(c2c(-c3cccnc3)nc3sccn23)CC1

$$$$
