
     RDKit          3D

 38 40  0  0  0  0  0  0  0  0999 V2000
    4.9034    1.8390   16.9600 H   0  0  0  0  0  0  0  0  0  0  0  0
    5.3676    1.3165   17.7924 C   0  0  0  0  0  0  0  0  0  0  0  0
    6.5219    0.6901   17.5207 N   0  0  0  0  0  0  0  0  0  0  0  0
    7.1355    0.0758   18.5400 C   0  0  0  0  0  0  0  0  0  0  0  0
    8.0904   -0.3955   18.3161 H   0  0  0  0  0  0  0  0  0  0  0  0
    6.6326    0.0064   19.8627 C   0  0  0  0  0  0  0  0  0  0  0  0
    7.3494   -0.7214   20.9588 C   0  0  0  0  0  0  0  0  0  0  0  0
    6.7041   -1.6195   21.7449 C   0  0  0  0  0  0  0  0  0  0  0  0
    5.6451   -1.8473   21.6141 H   0  0  0  0  0  0  0  0  0  0  0  0
    7.3308   -2.3233   22.7697 N   0  0  0  0  0  0  0  0  0  0  0  0
    6.5745   -3.2654   23.5494 C   0  0  0  0  0  0  0  0  0  0  0  0
    5.9016   -4.2988   22.8897 C   0  0  0  0  0  0  0  0  0  0  0  0
    5.9705   -4.3836   21.8097 H   0  0  0  0  0  0  0  0  0  0  0  0
    5.1794   -5.2366   23.6160 C   0  0  0  0  0  0  0  0  0  0  0  0
    4.6784   -6.0719   23.1514 H   0  0  0  0  0  0  0  0  0  0  0  0
    5.1032   -5.1164   25.0068 C   0  0  0  0  0  0  0  0  0  0  0  0
    4.3699   -6.0540   25.7440 N   0  0  0  0  0  0  0  0  0  0  0  0
    4.0022   -5.7621   26.6320 H   0  0  0  0  0  0  0  0  0  0  0  0
    4.1686   -7.3656   25.4060 C   0  0  0  0  0  0  0  0  0  0  0  0
    4.6791   -7.9133   24.4489 O   0  0  0  0  0  0  0  0  0  0  0  0
    3.2272   -8.0645   26.3459 C   0  0  0  0  0  0  0  0  0  0  0  0
    2.2859   -7.5092   26.3938 H   0  0  0  0  0  0  0  0  0  0  0  0
    3.0525   -9.0663   25.9514 H   0  0  0  0  0  0  0  0  0  0  0  0
    3.6609   -8.1129   27.3526 H   0  0  0  0  0  0  0  0  0  0  0  0
    5.7423   -4.0663   25.6722 C   0  0  0  0  0  0  0  0  0  0  0  0
    5.6768   -4.0028   26.7536 H   0  0  0  0  0  0  0  0  0  0  0  0
    6.5004   -3.1489   24.9428 C   0  0  0  0  0  0  0  0  0  0  0  0
    7.0422   -2.3495   25.4362 H   0  0  0  0  0  0  0  0  0  0  0  0
    8.6926   -2.1276   23.0653 C   0  0  0  0  0  0  0  0  0  0  0  0
    9.3138   -2.6939   23.9347 O   0  0  0  0  0  0  0  0  0  0  0  0
    9.3083   -1.2168   22.2736 N   0  0  0  0  0  0  0  0  0  0  0  0
   10.2732   -1.0579   22.4870 H   0  0  0  0  0  0  0  0  0  0  0  0
    8.7929   -0.4642   21.2425 C   0  0  0  0  0  0  0  0  0  0  0  0
    9.5421    0.3102   20.6899 O   0  0  0  0  0  0  0  0  0  0  0  0
    5.4051    0.6522   20.1050 C   0  0  0  0  0  0  0  0  0  0  0  0
    4.9862    0.6564   21.1124 H   0  0  0  0  0  0  0  0  0  0  0  0
    4.7740    1.3282   19.0584 C   0  0  0  0  0  0  0  0  0  0  0  0
    3.8477    1.8712   19.2102 H   0  0  0  0  0  0  0  0  0  0  0  0
  1  2  1  0
  2  3  2  0
  3  4  1  0
  4  5  1  0
  4  6  2  0
  6  7  1  0
  7  8  2  0
  8  9  1  0
  8 10  1  0
 10 11  1  0
 11 12  2  0
 12 13  1  0
 12 14  1  0
 14 15  1  0
 14 16  2  0
 16 17  1  0
 17 18  1  0
 17 19  1  0
 19 20  2  0
 19 21  1  0
 21 22  1  0
 21 23  1  0
 21 24  1  0
 16 25  1  0
 25 26  1  0
 25 27  2  0
 27 28  1  0
 10 29  1  0
 29 30  2  0
 29 31  1  0
 31 32  1  0
 31 33  1  0
 33 34  2  0
  6 35  1  0
 35 36  1  0
 35 37  2  0
 37 38  1  0
 37  2  1  0
 33  7  1  0
 27 11  1  0
M  END
>  <cnnaffinity>  (1) 
-5.51656

>  <filename>  (1) 
CC(=O)Nc1ccc(-n2cc(-c3cccnc3)c(=O)[nH]c2=O)cc1

$$$$
