
     RDKit          3D

 30 32  0  0  0  0  0  0  0  0999 V2000
    4.9341    1.7768   16.9938 H   0  0  0  0  0  0  0  0  0  0  0  0
    5.4122    1.2869   17.8406 C   0  0  0  0  0  0  0  0  0  0  0  0
    6.5717    0.6606   17.5954 N   0  0  0  0  0  0  0  0  0  0  0  0
    7.1714    0.0555   18.6252 C   0  0  0  0  0  0  0  0  0  0  0  0
    8.1169   -0.4215   18.3821 H   0  0  0  0  0  0  0  0  0  0  0  0
    6.6538    0.0052   19.9245 C   0  0  0  0  0  0  0  0  0  0  0  0
    7.3667   -0.7166   21.0050 C   0  0  0  0  0  0  0  0  0  0  0  0
    6.6593   -1.2083   21.9495 N   0  0  0  0  0  0  0  0  0  0  0  0
    7.1421   -2.0138   23.0040 C   0  0  0  0  0  0  0  0  0  0  0  0
    7.9853   -3.1523   22.7876 C   0  0  0  0  0  0  0  0  0  0  0  0
    8.2808   -3.3709   21.7649 H   0  0  0  0  0  0  0  0  0  0  0  0
    8.4052   -3.9593   23.8337 C   0  0  0  0  0  0  0  0  0  0  0  0
    9.0620   -4.8140   23.6793 H   0  0  0  0  0  0  0  0  0  0  0  0
    7.9499   -3.6216   25.1304 C   0  0  0  0  0  0  0  0  0  0  0  0
    7.0916   -2.5266   25.3672 C   0  0  0  0  0  0  0  0  0  0  0  0
    6.8631   -2.5632   26.7781 C   0  0  0  0  0  0  0  0  0  0  0  0
    6.2509   -1.8903   27.3567 H   0  0  0  0  0  0  0  0  0  0  0  0
    7.5075   -3.5577   27.3497 N   0  0  0  0  0  0  0  0  0  0  0  0
    8.1600   -4.1865   26.3484 N   0  0  0  0  0  0  0  0  0  0  0  0
    8.7226   -4.9926   26.5465 H   0  0  0  0  0  0  0  0  0  0  0  0
    6.6785   -1.7174   24.2830 C   0  0  0  0  0  0  0  0  0  0  0  0
    5.9979   -0.8779   24.4000 H   0  0  0  0  0  0  0  0  0  0  0  0
    8.8738   -0.7863   20.9506 C   0  0  0  0  0  0  0  0  0  0  0  0
    9.2895    0.0910   20.4525 H   0  0  0  0  0  0  0  0  0  0  0  0
    9.2904   -0.8541   21.9581 H   0  0  0  0  0  0  0  0  0  0  0  0
    9.1907   -1.6757   20.4024 H   0  0  0  0  0  0  0  0  0  0  0  0
    5.4265    0.6549   20.1619 C   0  0  0  0  0  0  0  0  0  0  0  0
    4.9997    0.6258   21.1664 H   0  0  0  0  0  0  0  0  0  0  0  0
    4.8092    1.3123   19.1048 C   0  0  0  0  0  0  0  0  0  0  0  0
    3.8754    1.8443   19.2507 H   0  0  0  0  0  0  0  0  0  0  0  0
  1  2  1  0
  2  3  2  0
  3  4  1  0
  4  5  1  0
  4  6  2  0
  6  7  1  0
  7  8  2  3
  8  9  1  0
  9 10  2  0
 10 11  1  0
 10 12  1  0
 12 13  1  0
 12 14  2  0
 14 15  1  0
 15 16  1  0
 16 17  1  0
 16 18  2  0
 18 19  1  0
 19 20  1  0
 15 21  2  0
 21 22  1  0
  7 23  1  0
 23 24  1  0
 23 25  1  0
 23 26  1  0
  6 27  1  0
 27 28  1  0
 27 29  2  0
 29 30  1  0
 29  2  1  0
 21  9  1  0
 19 14  1  0
M  END
>  <cnnaffinity>  (1) 
-4.83054

>  <filename>  (1) 
CC(=Nc1ccc2[nH]ncc2c1)c1cccnc1

$$$$
