
     RDKit          3D

 43 46  0  0  0  0  0  0  0  0999 V2000
    4.9462    1.8070   16.9775 H   0  0  0  0  0  0  0  0  0  0  0  0
    5.3980    1.2956   17.8246 C   0  0  0  0  0  0  0  0  0  0  0  0
    6.5567    0.6624   17.5758 N   0  0  0  0  0  0  0  0  0  0  0  0
    7.1435    0.0253   18.5922 C   0  0  0  0  0  0  0  0  0  0  0  0
    8.0932   -0.4604   18.3703 H   0  0  0  0  0  0  0  0  0  0  0  0
    6.6249   -0.0099   19.8949 C   0  0  0  0  0  0  0  0  0  0  0  0
    7.3743   -0.6967   20.9439 C   0  0  0  0  0  0  0  0  0  0  0  0
    7.8273   -1.9807   20.7840 N   0  0  0  0  0  0  0  0  0  0  0  0
    8.3870   -2.2500   21.9287 C   0  0  0  0  0  0  0  0  0  0  0  0
    8.4432   -1.1978   22.7841 N   0  0  0  0  0  0  0  0  0  0  0  0
    7.7443   -0.1784   22.1789 C   0  0  0  0  0  0  0  0  0  0  0  0
    7.6731    1.2196   22.6852 C   0  0  0  0  0  0  0  0  0  0  0  0
    6.9161    1.7381   22.0717 H   0  0  0  0  0  0  0  0  0  0  0  0
    7.2454    1.3405   24.1609 C   0  0  0  0  0  0  0  0  0  0  0  0
    7.9839    0.8459   24.8054 H   0  0  0  0  0  0  0  0  0  0  0  0
    6.2825    0.8391   24.3131 H   0  0  0  0  0  0  0  0  0  0  0  0
    7.1253    2.8144   24.5647 C   0  0  0  0  0  0  0  0  0  0  0  0
    6.2769    3.2718   24.0256 H   0  0  0  0  0  0  0  0  0  0  0  0
    6.9109    2.8865   25.6359 H   0  0  0  0  0  0  0  0  0  0  0  0
    8.3647    3.5413   24.2749 N   0  0  0  0  0  0  0  0  0  0  0  0
    8.8799    4.5336   25.0782 C   0  0  0  0  0  0  0  0  0  0  0  0
    9.9802    5.0217   24.8790 O   0  0  0  0  0  0  0  0  0  0  0  0
    8.0331    5.0250   26.2342 C   0  0  0  0  0  0  0  0  0  0  0  0
    8.4868    5.9565   26.5713 H   0  0  0  0  0  0  0  0  0  0  0  0
    6.9954    5.2001   25.9374 H   0  0  0  0  0  0  0  0  0  0  0  0
    8.0386    4.2989   27.0530 H   0  0  0  0  0  0  0  0  0  0  0  0
    8.8859    3.4207   22.9045 C   0  0  0  0  0  0  0  0  0  0  0  0
    9.8570    3.9240   22.8786 H   0  0  0  0  0  0  0  0  0  0  0  0
    8.2142    3.9503   22.2031 H   0  0  0  0  0  0  0  0  0  0  0  0
    9.0121    1.9631   22.4815 C   0  0  0  0  0  0  0  0  0  0  0  0
    9.3019    1.9295   21.4242 H   0  0  0  0  0  0  0  0  0  0  0  0
    9.7984    1.4582   23.0625 H   0  0  0  0  0  0  0  0  0  0  0  0
    9.1804   -1.3761   24.0278 C   0  0  0  0  0  0  0  0  0  0  0  0
    9.8343   -0.5113   24.1993 H   0  0  0  0  0  0  0  0  0  0  0  0
    8.4864   -1.4578   24.8713 H   0  0  0  0  0  0  0  0  0  0  0  0
    9.9795   -2.6869   23.8468 C   0  0  0  0  0  0  0  0  0  0  0  0
   10.9907   -2.4845   23.4837 H   0  0  0  0  0  0  0  0  0  0  0  0
   10.0585   -3.2626   24.7696 H   0  0  0  0  0  0  0  0  0  0  0  0
    9.0620   -3.7015   22.6264 S   0  0  0  0  0  0  0  0  0  0  0  0
    5.4116    0.6545   20.1383 C   0  0  0  0  0  0  0  0  0  0  0  0
    4.9786    0.6534   21.1411 H   0  0  0  0  0  0  0  0  0  0  0  0
    4.7850    1.3134   19.0834 C   0  0  0  0  0  0  0  0  0  0  0  0
    3.8556    1.8563   19.2261 H   0  0  0  0  0  0  0  0  0  0  0  0
  1  2  1  0
  2  3  2  0
  3  4  1  0
  4  5  1  0
  4  6  2  0
  6  7  1  0
  7  8  1  0
  8  9  2  0
  9 10  1  0
 10 11  1  0
 11 12  1  0
 12 13  1  0
 12 14  1  0
 14 15  1  0
 14 16  1  0
 14 17  1  0
 17 18  1  0
 17 19  1  0
 17 20  1  0
 20 21  1  0
 21 22  2  0
 21 23  1  0
 23 24  1  0
 23 25  1  0
 23 26  1  0
 20 27  1  0
 27 28  1  0
 27 29  1  0
 27 30  1  0
 30 31  1  0
 30 32  1  0
 10 33  1  0
 33 34  1  0
 33 35  1  0
 33 36  1  0
 36 37  1  0
 36 38  1  0
 36 39  1  0
  6 40  1  0
 40 41  1  0
 40 42  2  0
 42 43  1  0
 42  2  1  0
 11  7  2  0
 30 12  1  0
 39  9  1  0
M  END
>  <cnnaffinity>  (1) 
-5.81867

>  <filename>  (1) 
CC(=O)N1CCC(c2c(-c3cccnc3)nc3n2CCS3)CC1

$$$$
