
     RDKit          3D

 36 38  0  0  0  0  0  0  0  0999 V2000
    4.9389    1.8068   16.9830 H   0  0  0  0  0  0  0  0  0  0  0  0
    5.4025    1.2919   17.8234 C   0  0  0  0  0  0  0  0  0  0  0  0
    6.5549    0.6513   17.5724 N   0  0  0  0  0  0  0  0  0  0  0  0
    7.1709    0.0294   18.5869 C   0  0  0  0  0  0  0  0  0  0  0  0
    8.1153   -0.4605   18.3538 H   0  0  0  0  0  0  0  0  0  0  0  0
    6.6542   -0.0035   19.8984 C   0  0  0  0  0  0  0  0  0  0  0  0
    7.3251   -0.6791   20.9728 N   0  0  0  0  0  0  0  0  0  0  0  0
    6.7390   -1.6248   21.8078 C   0  0  0  0  0  0  0  0  0  0  0  0
    5.6863   -1.8483   21.7091 H   0  0  0  0  0  0  0  0  0  0  0  0
    7.6697   -2.0718   22.6890 C   0  0  0  0  0  0  0  0  0  0  0  0
    7.5687   -3.0378   23.8009 C   0  0  0  0  0  0  0  0  0  0  0  0
    6.4698   -3.9142   23.8115 C   0  0  0  0  0  0  0  0  0  0  0  0
    5.7506   -3.8810   22.9994 H   0  0  0  0  0  0  0  0  0  0  0  0
    6.2613   -4.8350   24.8288 C   0  0  0  0  0  0  0  0  0  0  0  0
    5.4147   -5.5010   24.8183 H   0  0  0  0  0  0  0  0  0  0  0  0
    7.1614   -4.9102   25.8998 C   0  0  0  0  0  0  0  0  0  0  0  0
    6.9385   -5.7996   26.9674 N   0  0  0  0  0  0  0  0  0  0  0  0
    7.5189   -5.6706   27.7770 H   0  0  0  0  0  0  0  0  0  0  0  0
    6.0427   -6.8390   27.0251 C   0  0  0  0  0  0  0  0  0  0  0  0
    5.3133   -7.1558   26.1052 O   0  0  0  0  0  0  0  0  0  0  0  0
    5.9756   -7.5421   28.3603 C   0  0  0  0  0  0  0  0  0  0  0  0
    6.9743   -7.7404   28.7534 H   0  0  0  0  0  0  0  0  0  0  0  0
    5.4433   -8.4848   28.1994 H   0  0  0  0  0  0  0  0  0  0  0  0
    5.4286   -6.9281   29.0816 H   0  0  0  0  0  0  0  0  0  0  0  0
    8.2768   -4.0531   25.9160 C   0  0  0  0  0  0  0  0  0  0  0  0
    8.9981   -4.1109   26.7294 H   0  0  0  0  0  0  0  0  0  0  0  0
    8.4770   -3.1307   24.8819 C   0  0  0  0  0  0  0  0  0  0  0  0
    9.3394   -2.4676   24.9314 H   0  0  0  0  0  0  0  0  0  0  0  0
    8.8265   -1.3728   22.3709 N   0  0  0  0  0  0  0  0  0  0  0  0
    9.7518   -1.4805   22.7509 H   0  0  0  0  0  0  0  0  0  0  0  0
    8.6333   -0.4795   21.3683 C   0  0  0  0  0  0  0  0  0  0  0  0
    9.7580    0.6145   20.8384 S   0  0  0  0  0  0  0  0  0  0  0  0
    5.4458    0.6540   20.1435 C   0  0  0  0  0  0  0  0  0  0  0  0
    5.0362    0.6558   21.1534 H   0  0  0  0  0  0  0  0  0  0  0  0
    4.8117    1.3153   19.0888 C   0  0  0  0  0  0  0  0  0  0  0  0
    3.8846    1.8532   19.2387 H   0  0  0  0  0  0  0  0  0  0  0  0
  1  2  1  0
  2  3  2  0
  3  4  1  0
  4  5  1  0
  4  6  2  0
  6  7  1  0
  7  8  1  0
  8  9  1  0
  8 10  2  0
 10 11  1  0
 11 12  2  0
 12 13  1  0
 12 14  1  0
 14 15  1  0
 14 16  2  0
 16 17  1  0
 17 18  1  0
 17 19  1  0
 19 20  2  0
 19 21  1  0
 21 22  1  0
 21 23  1  0
 21 24  1  0
 16 25  1  0
 25 26  1  0
 25 27  2  0
 27 28  1  0
 10 29  1  0
 29 30  1  0
 29 31  1  0
 31 32  2  0
  6 33  1  0
 33 34  1  0
 33 35  2  0
 35 36  1  0
 35  2  1  0
 31  7  1  0
 27 11  1  0
M  END
>  <cnnaffinity>  (1) 
-5.65459

>  <filename>  (1) 
CC(=O)Nc1ccc(-c2cn(-c3cccnc3)c(=S)[nH]2)cc1

$$$$
