
     RDKit          3D

 32 34  0  0  0  0  0  0  0  0999 V2000
    4.9102    1.7821   16.9982 H   0  0  0  0  0  0  0  0  0  0  0  0
    5.3994    1.2929   17.8420 C   0  0  0  0  0  0  0  0  0  0  0  0
    6.5567    0.6724   17.5727 N   0  0  0  0  0  0  0  0  0  0  0  0
    7.1872    0.0605   18.5827 C   0  0  0  0  0  0  0  0  0  0  0  0
    8.1346   -0.4243   18.3636 H   0  0  0  0  0  0  0  0  0  0  0  0
    6.6915    0.0244   19.9031 C   0  0  0  0  0  0  0  0  0  0  0  0
    7.3023   -0.6819   20.9541 O   0  0  0  0  0  0  0  0  0  0  0  0
    8.6359   -0.7800   21.0720 C   0  0  0  0  0  0  0  0  0  0  0  0
    9.5587   -0.0877   20.4538 N   0  0  0  0  0  0  0  0  0  0  0  0
   10.7318   -0.5321   20.9675 N   0  0  0  0  0  0  0  0  0  0  0  0
   10.5488   -1.4556   21.8345 N   0  0  0  0  0  0  0  0  0  0  0  0
    9.2055   -1.6534   21.9286 N   0  0  0  0  0  0  0  0  0  0  0  0
    8.6477   -2.6352   22.8204 C   0  0  0  0  0  0  0  0  0  0  0  0
    9.3224   -2.9665   24.0093 C   0  0  0  0  0  0  0  0  0  0  0  0
   10.2825   -2.5108   24.2383 H   0  0  0  0  0  0  0  0  0  0  0  0
    8.7464   -3.8971   24.8778 C   0  0  0  0  0  0  0  0  0  0  0  0
    9.2599   -4.1659   25.7976 H   0  0  0  0  0  0  0  0  0  0  0  0
    7.5150   -4.4967   24.5807 C   0  0  0  0  0  0  0  0  0  0  0  0
    7.0956   -5.2137   25.2869 H   0  0  0  0  0  0  0  0  0  0  0  0
    6.8412   -4.1741   23.3872 C   0  0  0  0  0  0  0  0  0  0  0  0
    5.5060   -4.7889   23.0115 C   0  0  0  0  0  0  0  0  0  0  0  0
    4.9368   -4.4801   21.9809 O   0  0  0  0  0  0  0  0  0  0  0  0
    4.8833   -5.8153   23.9367 C   0  0  0  0  0  0  0  0  0  0  0  0
    5.5471   -6.6729   24.0780 H   0  0  0  0  0  0  0  0  0  0  0  0
    3.9470   -6.1570   23.4960 H   0  0  0  0  0  0  0  0  0  0  0  0
    4.6829   -5.3863   24.9232 H   0  0  0  0  0  0  0  0  0  0  0  0
    7.4271   -3.2442   22.5060 C   0  0  0  0  0  0  0  0  0  0  0  0
    6.9206   -2.9879   21.5820 H   0  0  0  0  0  0  0  0  0  0  0  0
    5.4660    0.6408   20.1714 C   0  0  0  0  0  0  0  0  0  0  0  0
    5.0316    0.6126   21.1738 H   0  0  0  0  0  0  0  0  0  0  0  0
    4.8193    1.3009   19.1175 C   0  0  0  0  0  0  0  0  0  0  0  0
    3.8837    1.8344   19.2685 H   0  0  0  0  0  0  0  0  0  0  0  0
  1  2  1  0
  2  3  2  0
  3  4  1  0
  4  5  1  0
  4  6  2  0
  6  7  1  0
  7  8  1  0
  8  9  2  0
  9 10  1  0
 10 11  2  0
 11 12  1  0
 12 13  1  0
 13 14  2  0
 14 15  1  0
 14 16  1  0
 16 17  1  0
 16 18  2  0
 18 19  1  0
 18 20  1  0
 20 21  1  0
 21 22  2  0
 21 23  1  0
 23 24  1  0
 23 25  1  0
 23 26  1  0
 20 27  2  0
 27 28  1  0
  6 29  1  0
 29 30  1  0
 29 31  2  0
 31 32  1  0
 31  2  1  0
 12  8  1  0
 27 13  1  0
M  END
>  <cnnaffinity>  (1) 
-5.4257

>  <filename>  (1) 
CC(=O)c1cccc(-n2nnnc2Oc2cccnc2)c1

$$$$
