
     RDKit          3D

 37 39  0  0  0  0  0  0  0  0999 V2000
    6.5733   -1.1316   21.7833 H   0  0  0  0  0  0  0  0  0  0  0  0
    7.1865   -0.6132   21.0402 C   0  0  0  0  0  0  0  0  0  0  0  0
    8.5047   -0.4476   21.2682 C   0  0  0  0  0  0  0  0  0  0  0  0
    9.3376   -1.1854   22.2342 C   0  0  0  0  0  0  0  0  0  0  0  0
    8.8480   -2.4059   22.9283 C   0  0  0  0  0  0  0  0  0  0  0  0
    8.1678   -3.4349   22.2513 C   0  0  0  0  0  0  0  0  0  0  0  0
    7.9749   -3.3477   21.1824 H   0  0  0  0  0  0  0  0  0  0  0  0
    7.7274   -4.5529   22.9634 C   0  0  0  0  0  0  0  0  0  0  0  0
    7.2181   -5.3620   22.4481 H   0  0  0  0  0  0  0  0  0  0  0  0
    7.9222   -4.6283   24.3464 C   0  0  0  0  0  0  0  0  0  0  0  0
    7.5688   -5.5114   24.8775 H   0  0  0  0  0  0  0  0  0  0  0  0
    8.5739   -3.5863   25.0367 C   0  0  0  0  0  0  0  0  0  0  0  0
    8.7476   -3.5744   26.5390 C   0  0  0  0  0  0  0  0  0  0  0  0
    9.1267   -2.5809   27.1244 O   0  0  0  0  0  0  0  0  0  0  0  0
    8.3926   -4.8384   27.2857 C   0  0  0  0  0  0  0  0  0  0  0  0
    8.8484   -5.7098   26.8071 H   0  0  0  0  0  0  0  0  0  0  0  0
    7.3056   -4.9739   27.2560 H   0  0  0  0  0  0  0  0  0  0  0  0
    8.7240   -4.7686   28.3170 H   0  0  0  0  0  0  0  0  0  0  0  0
    9.0605   -2.4959   24.3052 C   0  0  0  0  0  0  0  0  0  0  0  0
    9.6093   -1.7011   24.8108 H   0  0  0  0  0  0  0  0  0  0  0  0
   10.4980   -0.6827   22.4387 N   0  0  0  0  0  0  0  0  0  0  0  0
   10.6515    0.5182   21.6151 C   0  0  0  0  0  0  0  0  0  0  0  0
   11.6010    0.4611   21.0748 H   0  0  0  0  0  0  0  0  0  0  0  0
   10.7194    1.3704   22.3025 H   0  0  0  0  0  0  0  0  0  0  0  0
    9.4037    0.6215   20.6859 C   0  0  0  0  0  0  0  0  0  0  0  0
    9.6324    0.3708   19.6463 H   0  0  0  0  0  0  0  0  0  0  0  0
    8.9453    1.6158   20.6930 H   0  0  0  0  0  0  0  0  0  0  0  0
    6.4760   -0.0392   19.8924 C   0  0  0  0  0  0  0  0  0  0  0  0
    7.0547   -0.0214   18.6089 C   0  0  0  0  0  0  0  0  0  0  0  0
    7.9613   -0.6017   18.4342 H   0  0  0  0  0  0  0  0  0  0  0  0
    6.5566    0.6573   17.5684 N   0  0  0  0  0  0  0  0  0  0  0  0
    5.4121    1.3278   17.7737 C   0  0  0  0  0  0  0  0  0  0  0  0
    5.0351    1.8933   16.9243 H   0  0  0  0  0  0  0  0  0  0  0  0
    4.7019    1.3003   18.9806 C   0  0  0  0  0  0  0  0  0  0  0  0
    3.7694    1.8450   19.0688 H   0  0  0  0  0  0  0  0  0  0  0  0
    5.2269    0.5768   20.0519 C   0  0  0  0  0  0  0  0  0  0  0  0
    4.7168    0.5152   21.0137 H   0  0  0  0  0  0  0  0  0  0  0  0
  1  2  1  0
  2  3  2  3
  3  4  1  0
  4  5  1  0
  5  6  2  0
  6  7  1  0
  6  8  1  0
  8  9  1  0
  8 10  2  0
 10 11  1  0
 10 12  1  0
 12 13  1  0
 13 14  2  0
 13 15  1  0
 15 16  1  0
 15 17  1  0
 15 18  1  0
 12 19  2  0
 19 20  1  0
  4 21  2  0
 21 22  1  0
 22 23  1  0
 22 24  1  0
 22 25  1  0
 25 26  1  0
 25 27  1  0
  2 28  1  0
 28 29  2  0
 29 30  1  0
 29 31  1  0
 31 32  2  0
 32 33  1  0
 32 34  1  0
 34 35  1  0
 34 36  2  0
 36 37  1  0
 25  3  1  0
 36 28  1  0
 19  5  1  0
M  END
>  <cnnaffinity>  (1) 
-5.43788

>  <filename>  (1) 
CC(=O)c1cccc(C2=NCCC2=Cc2cccnc2)c1

$$$$
