
     RDKit          3D

 27 29  0  0  0  0  0  0  0  0999 V2000
    4.9527    1.7995   16.9717 H   0  0  0  0  0  0  0  0  0  0  0  0
    5.4010    1.2861   17.8221 C   0  0  0  0  0  0  0  0  0  0  0  0
    6.5598    0.6522   17.5802 N   0  0  0  0  0  0  0  0  0  0  0  0
    7.1540    0.0335   18.6061 C   0  0  0  0  0  0  0  0  0  0  0  0
    8.1039   -0.4443   18.3708 H   0  0  0  0  0  0  0  0  0  0  0  0
    6.6258    0.0166   19.9139 C   0  0  0  0  0  0  0  0  0  0  0  0
    7.3436   -0.6334   21.0009 C   0  0  0  0  0  0  0  0  0  0  0  0
    8.2209   -1.6726   20.7496 N   0  0  0  0  0  0  0  0  0  0  0  0
    8.6656   -1.9947   21.9263 C   0  0  0  0  0  0  0  0  0  0  0  0
    9.8257   -3.1234   22.5276 S   0  0  0  0  0  0  0  0  0  0  0  0
    9.6516   -2.5002   24.1443 C   0  0  0  0  0  0  0  0  0  0  0  0
   10.2494   -2.9535   24.9229 H   0  0  0  0  0  0  0  0  0  0  0  0
    8.7521   -1.5082   24.2166 C   0  0  0  0  0  0  0  0  0  0  0  0
    8.4308   -0.9378   25.0811 H   0  0  0  0  0  0  0  0  0  0  0  0
    8.1769   -1.2343   22.9639 N   0  0  0  0  0  0  0  0  0  0  0  0
    7.3135   -0.3556   22.3563 C   0  0  0  0  0  0  0  0  0  0  0  0
    6.7502    0.6741   23.0437 O   0  0  0  0  0  0  0  0  0  0  0  0
    6.1767    0.4792   24.2820 C   0  0  0  0  0  0  0  0  0  0  0  0
    6.0020   -0.5892   24.7936 O   0  0  0  0  0  0  0  0  0  0  0  0
    5.7795    1.7900   24.8711 C   0  0  0  0  0  0  0  0  0  0  0  0
    4.7322    1.9788   24.6186 H   0  0  0  0  0  0  0  0  0  0  0  0
    5.8639    1.6918   25.9531 H   0  0  0  0  0  0  0  0  0  0  0  0
    6.3914    2.6099   24.4929 H   0  0  0  0  0  0  0  0  0  0  0  0
    5.4068    0.6720   20.1456 C   0  0  0  0  0  0  0  0  0  0  0  0
    4.9787    0.6819   21.1477 H   0  0  0  0  0  0  0  0  0  0  0  0
    4.7851    1.3132   19.0795 C   0  0  0  0  0  0  0  0  0  0  0  0
    3.8551    1.8525   19.2138 H   0  0  0  0  0  0  0  0  0  0  0  0
  1  2  1  0
  2  3  2  0
  3  4  1  0
  4  5  1  0
  4  6  2  0
  6  7  1  0
  7  8  1  0
  8  9  2  0
  9 10  1  0
 10 11  1  0
 11 12  1  0
 11 13  2  0
 13 14  1  0
 13 15  1  0
 15 16  1  0
 16 17  1  0
 17 18  1  0
 18 19  2  0
 18 20  1  0
 20 21  1  0
 20 22  1  0
 20 23  1  0
  6 24  1  0
 24 25  1  0
 24 26  2  0
 26 27  1  0
 26  2  1  0
 16  7  2  0
 15  9  1  0
M  END
>  <cnnaffinity>  (1) 
-4.66655

>  <filename>  (1) 
CC(=O)Oc1c(-c2cccnc2)nc2sccn12

$$$$
