
     RDKit          3D

 37 40  0  0  0  0  0  0  0  0999 V2000
    4.9160    1.8121   16.9872 H   0  0  0  0  0  0  0  0  0  0  0  0
    5.3824    1.3040   17.8248 C   0  0  0  0  0  0  0  0  0  0  0  0
    6.5439    0.6844   17.5610 N   0  0  0  0  0  0  0  0  0  0  0  0
    7.1596    0.0823   18.5827 C   0  0  0  0  0  0  0  0  0  0  0  0
    8.1083   -0.3923   18.3304 H   0  0  0  0  0  0  0  0  0  0  0  0
    6.6727    0.0466   19.9156 C   0  0  0  0  0  0  0  0  0  0  0  0
    7.4387   -0.6419   20.9819 C   0  0  0  0  0  0  0  0  0  0  0  0
    8.3780   -1.6514   20.9221 C   0  0  0  0  0  0  0  0  0  0  0  0
    8.8125   -2.0893   20.0440 H   0  0  0  0  0  0  0  0  0  0  0  0
    8.8137   -2.0861   22.1425 N   0  0  0  0  0  0  0  0  0  0  0  0
    8.1700   -1.3100   22.9709 C   0  0  0  0  0  0  0  0  0  0  0  0
    8.2266   -0.9857   24.6619 S   0  0  0  0  0  0  0  0  0  0  0  0
    7.1277    0.3685   24.3529 C   0  0  0  0  0  0  0  0  0  0  0  0
    6.6727    1.2658   25.4398 C   0  0  0  0  0  0  0  0  0  0  0  0
    5.7759    2.3094   25.1319 C   0  0  0  0  0  0  0  0  0  0  0  0
    5.4573    2.4436   24.1009 H   0  0  0  0  0  0  0  0  0  0  0  0
    5.3183    3.1582   26.1400 C   0  0  0  0  0  0  0  0  0  0  0  0
    4.6181    3.9556   25.8995 H   0  0  0  0  0  0  0  0  0  0  0  0
    5.7609    2.9933   27.4533 C   0  0  0  0  0  0  0  0  0  0  0  0
    5.4365    3.6491   28.2488 H   0  0  0  0  0  0  0  0  0  0  0  0
    6.6612    1.9670   27.7650 C   0  0  0  0  0  0  0  0  0  0  0  0
    7.1065    1.7792   29.0874 N   0  0  0  0  0  0  0  0  0  0  0  0
    7.3620    0.8464   29.3571 H   0  0  0  0  0  0  0  0  0  0  0  0
    7.3303    2.7790   29.9933 C   0  0  0  0  0  0  0  0  0  0  0  0
    7.3064    3.9575   29.6955 O   0  0  0  0  0  0  0  0  0  0  0  0
    7.6202    2.3262   31.3949 C   0  0  0  0  0  0  0  0  0  0  0  0
    7.0053    1.4674   31.6702 H   0  0  0  0  0  0  0  0  0  0  0  0
    8.6754    2.0535   31.4748 H   0  0  0  0  0  0  0  0  0  0  0  0
    7.4050    3.1711   32.0519 H   0  0  0  0  0  0  0  0  0  0  0  0
    7.1109    1.0963   26.7713 C   0  0  0  0  0  0  0  0  0  0  0  0
    7.8170    0.3108   27.0413 H   0  0  0  0  0  0  0  0  0  0  0  0
    6.7563    0.5241   23.1178 N   0  0  0  0  0  0  0  0  0  0  0  0
    7.3218   -0.4349   22.3557 N   0  0  0  0  0  0  0  0  0  0  0  0
    5.4350    0.6813   20.1483 C   0  0  0  0  0  0  0  0  0  0  0  0
    5.0066    0.6812   21.1481 H   0  0  0  0  0  0  0  0  0  0  0  0
    4.7862    1.3187   19.0887 C   0  0  0  0  0  0  0  0  0  0  0  0
    3.8456    1.8450   19.2258 H   0  0  0  0  0  0  0  0  0  0  0  0
  1  2  1  0
  2  3  2  0
  3  4  1  0
  4  5  1  0
  4  6  2  0
  6  7  1  0
  7  8  2  0
  8  9  1  0
  8 10  1  0
 10 11  2  0
 11 12  1  0
 12 13  1  0
 13 14  1  0
 14 15  2  0
 15 16  1  0
 15 17  1  0
 17 18  1  0
 17 19  2  0
 19 20  1  0
 19 21  1  0
 21 22  1  0
 22 23  1  0
 22 24  1  0
 24 25  2  0
 24 26  1  0
 26 27  1  0
 26 28  1  0
 26 29  1  0
 21 30  2  0
 30 31  1  0
 13 32  2  0
 32 33  1  0
  6 34  1  0
 34 35  1  0
 34 36  2  0
 36 37  1  0
 36  2  1  0
 33  7  1  0
 33 11  1  0
 30 14  1  0
M  END
>  <cnnaffinity>  (1) 
-5.27925

>  <filename>  (1) 
CC(=O)Nc1cccc(-c2nn3c(-c4cccnc4)cnc3s2)c1

$$$$
