
     RDKit          3D

 37 38  0  0  0  0  0  0  0  0999 V2000
    5.0543    1.7679   16.9884 H   0  0  0  0  0  0  0  0  0  0  0  0
    5.4637    1.2591   17.8567 C   0  0  0  0  0  0  0  0  0  0  0  0
    6.6104    0.5930   17.6578 N   0  0  0  0  0  0  0  0  0  0  0  0
    7.1489   -0.0166   18.7142 C   0  0  0  0  0  0  0  0  0  0  0  0
    8.0902   -0.5412   18.5410 H   0  0  0  0  0  0  0  0  0  0  0  0
    6.5863   -0.0166   19.9944 C   0  0  0  0  0  0  0  0  0  0  0  0
    7.3081   -0.7221   21.0569 C   0  0  0  0  0  0  0  0  0  0  0  0
    6.5769   -1.3320   21.9261 N   0  0  0  0  0  0  0  0  0  0  0  0
    7.1846   -2.1659   22.8600 C   0  0  0  0  0  0  0  0  0  0  0  0
    8.3354   -2.5743   22.8961 O   0  0  0  0  0  0  0  0  0  0  0  0
    6.2254   -2.4773   23.7492 N   0  0  0  0  0  0  0  0  0  0  0  0
    5.3774   -2.0628   23.4089 H   0  0  0  0  0  0  0  0  0  0  0  0
    6.3698   -3.4083   24.8325 C   0  0  0  0  0  0  0  0  0  0  0  0
    5.5212   -3.2912   25.5178 H   0  0  0  0  0  0  0  0  0  0  0  0
    7.2743   -3.1275   25.3860 H   0  0  0  0  0  0  0  0  0  0  0  0
    6.5025   -4.8895   24.4034 C   0  0  0  0  0  0  0  0  0  0  0  0
    5.5649   -5.2421   23.9555 H   0  0  0  0  0  0  0  0  0  0  0  0
    7.2873   -4.9613   23.6376 H   0  0  0  0  0  0  0  0  0  0  0  0
    6.8736   -5.7132   25.6181 C   0  0  0  0  0  0  0  0  0  0  0  0
    8.1855   -5.6243   26.1124 C   0  0  0  0  0  0  0  0  0  0  0  0
    8.9522   -5.1364   25.5134 H   0  0  0  0  0  0  0  0  0  0  0  0
    8.5031   -6.0705   27.3926 C   0  0  0  0  0  0  0  0  0  0  0  0
    9.5144   -5.8934   27.7508 H   0  0  0  0  0  0  0  0  0  0  0  0
    7.5228   -6.6826   28.1835 C   0  0  0  0  0  0  0  0  0  0  0  0
    7.7587   -7.0265   29.1892 H   0  0  0  0  0  0  0  0  0  0  0  0
    6.2326   -6.8675   27.6643 C   0  0  0  0  0  0  0  0  0  0  0  0
    5.4787   -7.3971   28.2395 H   0  0  0  0  0  0  0  0  0  0  0  0
    5.9137   -6.3880   26.3840 C   0  0  0  0  0  0  0  0  0  0  0  0
    4.8942   -6.4797   26.0064 H   0  0  0  0  0  0  0  0  0  0  0  0
    8.8183   -0.6885   21.0645 C   0  0  0  0  0  0  0  0  0  0  0  0
    9.1937   -1.6704   20.7665 H   0  0  0  0  0  0  0  0  0  0  0  0
    9.1765   -0.5194   22.0831 H   0  0  0  0  0  0  0  0  0  0  0  0
    9.2236    0.0851   20.4073 H   0  0  0  0  0  0  0  0  0  0  0  0
    5.3579    0.6459   20.1798 C   0  0  0  0  0  0  0  0  0  0  0  0
    4.8670    0.6441   21.1551 H   0  0  0  0  0  0  0  0  0  0  0  0
    4.8029    1.3070   19.0897 C   0  0  0  0  0  0  0  0  0  0  0  0
    3.8792    1.8671   19.1809 H   0  0  0  0  0  0  0  0  0  0  0  0
  1  2  1  0
  2  3  2  0
  3  4  1  0
  4  5  1  0
  4  6  2  0
  6  7  1  0
  7  8  2  3
  8  9  1  0
  9 10  2  0
  9 11  1  0
 11 12  1  0
 11 13  1  0
 13 14  1  0
 13 15  1  0
 13 16  1  0
 16 17  1  0
 16 18  1  0
 16 19  1  0
 19 20  2  0
 20 21  1  0
 20 22  1  0
 22 23  1  0
 22 24  2  0
 24 25  1  0
 24 26  1  0
 26 27  1  0
 26 28  2  0
 28 29  1  0
  7 30  1  0
 30 31  1  0
 30 32  1  0
 30 33  1  0
  6 34  1  0
 34 35  1  0
 34 36  2  0
 36 37  1  0
 36  2  1  0
 28 19  1  0
M  END
>  <cnnaffinity>  (1) 
-4.93531

>  <filename>  (1) 
CC(=NC(=O)NCCc1ccccc1)c1cccnc1

$$$$
