
     RDKit          3D

 36 38  0  0  0  0  0  0  0  0999 V2000
    5.0247    1.9536   16.9276 H   0  0  0  0  0  0  0  0  0  0  0  0
    5.4343    1.3728   17.7502 C   0  0  0  0  0  0  0  0  0  0  0  0
    6.5852    0.7276   17.4949 N   0  0  0  0  0  0  0  0  0  0  0  0
    7.1197    0.0172   18.4912 C   0  0  0  0  0  0  0  0  0  0  0  0
    8.0720   -0.4731   18.2919 H   0  0  0  0  0  0  0  0  0  0  0  0
    6.5251   -0.1252   19.7622 C   0  0  0  0  0  0  0  0  0  0  0  0
    7.2157   -0.8354   20.8154 N   0  0  0  0  0  0  0  0  0  0  0  0
    8.4892   -0.3974   21.1387 C   0  0  0  0  0  0  0  0  0  0  0  0
    8.8114    0.4923   20.5996 H   0  0  0  0  0  0  0  0  0  0  0  0
    9.2742   -1.0033   22.0606 C   0  0  0  0  0  0  0  0  0  0  0  0
   10.6341   -0.4756   22.3205 C   0  0  0  0  0  0  0  0  0  0  0  0
   11.7821   -1.2761   22.2141 C   0  0  0  0  0  0  0  0  0  0  0  0
   11.6571   -2.3377   22.0252 H   0  0  0  0  0  0  0  0  0  0  0  0
   13.0478   -0.6896   22.3052 C   0  0  0  0  0  0  0  0  0  0  0  0
   13.9450   -1.2882   22.2163 H   0  0  0  0  0  0  0  0  0  0  0  0
   13.1802    0.6889   22.4804 C   0  0  0  0  0  0  0  0  0  0  0  0
   14.1733    1.1348   22.4598 H   0  0  0  0  0  0  0  0  0  0  0  0
   12.0383    1.4961   22.6423 C   0  0  0  0  0  0  0  0  0  0  0  0
   12.1077    2.9844   22.8833 C   0  0  0  0  0  0  0  0  0  0  0  0
   11.1027    3.6634   22.9613 O   0  0  0  0  0  0  0  0  0  0  0  0
   13.4589    3.6059   23.1035 C   0  0  0  0  0  0  0  0  0  0  0  0
   13.9732    3.0075   23.8489 H   0  0  0  0  0  0  0  0  0  0  0  0
   14.0707    3.5968   22.1987 H   0  0  0  0  0  0  0  0  0  0  0  0
   13.3403    4.6282   23.4587 H   0  0  0  0  0  0  0  0  0  0  0  0
   10.7731    0.8954   22.5744 C   0  0  0  0  0  0  0  0  0  0  0  0
    9.8693    1.4946   22.6947 H   0  0  0  0  0  0  0  0  0  0  0  0
    8.7013   -2.1238   22.8333 C   0  0  0  0  0  0  0  0  0  0  0  0
    9.2365   -2.8391   23.6482 O   0  0  0  0  0  0  0  0  0  0  0  0
    7.3588   -2.3405   22.5828 N   0  0  0  0  0  0  0  0  0  0  0  0
    6.9482   -3.1043   23.0800 H   0  0  0  0  0  0  0  0  0  0  0  0
    6.6057   -1.8829   21.5482 C   0  0  0  0  0  0  0  0  0  0  0  0
    5.5301   -2.3777   21.3088 O   0  0  0  0  0  0  0  0  0  0  0  0
    5.3276    0.5458   20.0179 C   0  0  0  0  0  0  0  0  0  0  0  0
    4.8698    0.4727   21.0048 H   0  0  0  0  0  0  0  0  0  0  0  0
    4.7776    1.3158   18.9851 C   0  0  0  0  0  0  0  0  0  0  0  0
    3.8646    1.8815   19.1332 H   0  0  0  0  0  0  0  0  0  0  0  0
  1  2  1  0
  2  3  2  0
  3  4  1  0
  4  5  1  0
  4  6  2  0
  6  7  1  0
  7  8  1  0
  8  9  1  0
  8 10  2  0
 10 11  1  0
 11 12  2  0
 12 13  1  0
 12 14  1  0
 14 15  1  0
 14 16  2  0
 16 17  1  0
 16 18  1  0
 18 19  1  0
 19 20  2  0
 19 21  1  0
 21 22  1  0
 21 23  1  0
 21 24  1  0
 18 25  2  0
 25 26  1  0
 10 27  1  0
 27 28  2  0
 27 29  1  0
 29 30  1  0
 29 31  1  0
 31 32  2  0
  6 33  1  0
 33 34  1  0
 33 35  2  0
 35 36  1  0
 35  2  1  0
 31  7  1  0
 25 11  1  0
M  END
>  <cnnaffinity>  (1) 
-5.15998

>  <filename>  (1) 
CC(=O)c1cccc(-c2cn(-c3cccnc3)c(=O)[nH]c2=O)c1

$$$$
