
     RDKit          3D

 42 44  0  0  0  0  0  0  0  0999 V2000
    4.9366    1.7979   16.9473 H   0  0  0  0  0  0  0  0  0  0  0  0
    5.4068    1.3146   17.8003 C   0  0  0  0  0  0  0  0  0  0  0  0
    6.5597    0.6705   17.5539 N   0  0  0  0  0  0  0  0  0  0  0  0
    7.1607    0.0663   18.5909 C   0  0  0  0  0  0  0  0  0  0  0  0
    8.0837   -0.4690   18.3654 H   0  0  0  0  0  0  0  0  0  0  0  0
    6.6799    0.0823   19.9312 C   0  0  0  0  0  0  0  0  0  0  0  0
    7.3460   -0.5658   20.9825 N   0  0  0  0  0  0  0  0  0  0  0  0
    7.5065    0.0603   22.2961 C   0  0  0  0  0  0  0  0  0  0  0  0
    6.5574    0.0528   22.8534 H   0  0  0  0  0  0  0  0  0  0  0  0
    7.7963    1.1132   22.1688 H   0  0  0  0  0  0  0  0  0  0  0  0
    8.5852   -0.6634   23.1301 C   0  0  0  0  0  0  0  0  0  0  0  0
    9.5587   -0.5070   22.6361 H   0  0  0  0  0  0  0  0  0  0  0  0
    8.6615   -0.2091   24.1214 H   0  0  0  0  0  0  0  0  0  0  0  0
    8.3375   -2.0944   23.2620 N   0  0  0  0  0  0  0  0  0  0  0  0
    8.1051   -2.7251   24.4974 C   0  0  0  0  0  0  0  0  0  0  0  0
    7.2791   -2.1634   25.4868 C   0  0  0  0  0  0  0  0  0  0  0  0
    6.7733   -1.2256   25.2744 H   0  0  0  0  0  0  0  0  0  0  0  0
    7.1163   -2.8307   26.7039 C   0  0  0  0  0  0  0  0  0  0  0  0
    6.4734   -2.3960   27.4633 H   0  0  0  0  0  0  0  0  0  0  0  0
    7.7866   -4.0327   26.9450 C   0  0  0  0  0  0  0  0  0  0  0  0
    7.6782   -4.5425   27.8968 H   0  0  0  0  0  0  0  0  0  0  0  0
    8.5841   -4.5958   25.9391 C   0  0  0  0  0  0  0  0  0  0  0  0
    9.2673   -5.7942   26.2172 N   0  0  0  0  0  0  0  0  0  0  0  0
    9.3310   -6.0722   27.1758 H   0  0  0  0  0  0  0  0  0  0  0  0
    9.6028   -6.7477   25.3063 C   0  0  0  0  0  0  0  0  0  0  0  0
    9.4035   -6.6184   24.1144 O   0  0  0  0  0  0  0  0  0  0  0  0
   10.2003   -8.0067   25.9040 C   0  0  0  0  0  0  0  0  0  0  0  0
    9.5553   -8.4963   26.6269 H   0  0  0  0  0  0  0  0  0  0  0  0
   10.3728   -8.7057   25.0945 H   0  0  0  0  0  0  0  0  0  0  0  0
   11.1507   -7.7887   26.3958 H   0  0  0  0  0  0  0  0  0  0  0  0
    8.7176   -3.9655   24.7056 C   0  0  0  0  0  0  0  0  0  0  0  0
    9.2927   -4.4209   23.9107 H   0  0  0  0  0  0  0  0  0  0  0  0
    7.8818   -2.7924   22.0624 C   0  0  0  0  0  0  0  0  0  0  0  0
    8.5259   -3.6636   21.8663 H   0  0  0  0  0  0  0  0  0  0  0  0
    6.8672   -3.1939   22.2137 H   0  0  0  0  0  0  0  0  0  0  0  0
    7.8796   -1.9122   20.7865 C   0  0  0  0  0  0  0  0  0  0  0  0
    7.2206   -2.3939   20.0588 H   0  0  0  0  0  0  0  0  0  0  0  0
    8.9032   -1.8838   20.3739 H   0  0  0  0  0  0  0  0  0  0  0  0
    5.4655    0.7614   20.1525 C   0  0  0  0  0  0  0  0  0  0  0  0
    5.0404    0.7798   21.1561 H   0  0  0  0  0  0  0  0  0  0  0  0
    4.8200    1.3686   19.0697 C   0  0  0  0  0  0  0  0  0  0  0  0
    3.8774    1.8884   19.2030 H   0  0  0  0  0  0  0  0  0  0  0  0
  1  2  1  0
  2  3  2  0
  3  4  1  0
  4  5  1  0
  4  6  2  0
  6  7  1  0
  7  8  1  0
  8  9  1  0
  8 10  1  0
  8 11  1  0
 11 12  1  0
 11 13  1  0
 11 14  1  0
 14 15  1  0
 15 16  2  0
 16 17  1  0
 16 18  1  0
 18 19  1  0
 18 20  2  0
 20 21  1  0
 20 22  1  0
 22 23  1  0
 23 24  1  0
 23 25  1  0
 25 26  2  0
 25 27  1  0
 27 28  1  0
 27 29  1  0
 27 30  1  0
 22 31  2  0
 31 32  1  0
 14 33  1  0
 33 34  1  0
 33 35  1  0
 33 36  1  0
 36 37  1  0
 36 38  1  0
  6 39  1  0
 39 40  1  0
 39 41  2  0
 41 42  1  0
 41  2  1  0
 36  7  1  0
 31 15  1  0
M  END
>  <cnnaffinity>  (1) 
-5.02152

>  <filename>  (1) 
CC(=O)Nc1cccc(N2CCN(c3cccnc3)CC2)c1

$$$$
