
     RDKit          3D

 35 37  0  0  0  0  0  0  0  0999 V2000
    4.9218    1.7791   16.9966 H   0  0  0  0  0  0  0  0  0  0  0  0
    5.4028    1.2926   17.8409 C   0  0  0  0  0  0  0  0  0  0  0  0
    6.5625    0.6693   17.5848 N   0  0  0  0  0  0  0  0  0  0  0  0
    7.1578    0.0487   18.6064 C   0  0  0  0  0  0  0  0  0  0  0  0
    8.1157   -0.4169   18.3834 H   0  0  0  0  0  0  0  0  0  0  0  0
    6.6236   -0.0147   19.9050 C   0  0  0  0  0  0  0  0  0  0  0  0
    7.3069   -0.7375   20.9869 C   0  0  0  0  0  0  0  0  0  0  0  0
    6.5745   -1.5089   21.7726 N   0  0  0  0  0  0  0  0  0  0  0  0
    7.1773   -2.1983   22.8086 C   0  0  0  0  0  0  0  0  0  0  0  0
    6.2925   -3.0461   23.6750 C   0  0  0  0  0  0  0  0  0  0  0  0
    6.6272   -3.3034   25.0212 C   0  0  0  0  0  0  0  0  0  0  0  0
    7.5195   -2.8703   25.4659 H   0  0  0  0  0  0  0  0  0  0  0  0
    5.7953   -4.0983   25.8113 C   0  0  0  0  0  0  0  0  0  0  0  0
    6.0607   -4.2936   26.8452 H   0  0  0  0  0  0  0  0  0  0  0  0
    4.6248   -4.6472   25.2815 C   0  0  0  0  0  0  0  0  0  0  0  0
    3.9956   -5.2633   25.9217 H   0  0  0  0  0  0  0  0  0  0  0  0
    4.2680   -4.4032   23.9425 C   0  0  0  0  0  0  0  0  0  0  0  0
    3.0095   -4.9724   23.3292 C   0  0  0  0  0  0  0  0  0  0  0  0
    2.7230   -4.7651   22.1671 O   0  0  0  0  0  0  0  0  0  0  0  0
    2.0903   -5.8300   24.1663 C   0  0  0  0  0  0  0  0  0  0  0  0
    1.2476   -6.1360   23.5437 H   0  0  0  0  0  0  0  0  0  0  0  0
    2.6185   -6.7176   24.5257 H   0  0  0  0  0  0  0  0  0  0  0  0
    1.7211   -5.2801   25.0363 H   0  0  0  0  0  0  0  0  0  0  0  0
    5.1146   -3.6023   23.1530 C   0  0  0  0  0  0  0  0  0  0  0  0
    4.8528   -3.3853   22.1212 H   0  0  0  0  0  0  0  0  0  0  0  0
    8.5323   -2.1235   23.0254 C   0  0  0  0  0  0  0  0  0  0  0  0
    9.0438   -2.6831   23.8014 H   0  0  0  0  0  0  0  0  0  0  0  0
    9.3051   -1.3229   22.2124 N   0  0  0  0  0  0  0  0  0  0  0  0
   10.3090   -1.1839   22.3155 H   0  0  0  0  0  0  0  0  0  0  0  0
    8.8029   -0.5548   21.1709 C   0  0  0  0  0  0  0  0  0  0  0  0
    9.5839    0.1463   20.5449 O   0  0  0  0  0  0  0  0  0  0  0  0
    5.4170    0.6497   20.1579 C   0  0  0  0  0  0  0  0  0  0  0  0
    4.9876    0.6312   21.1649 H   0  0  0  0  0  0  0  0  0  0  0  0
    4.8024    1.3204   19.1050 C   0  0  0  0  0  0  0  0  0  0  0  0
    3.8688    1.8510   19.2554 H   0  0  0  0  0  0  0  0  0  0  0  0
  1  2  1  0
  2  3  2  0
  3  4  1  0
  4  5  1  0
  4  6  2  0
  6  7  1  0
  7  8  2  0
  8  9  1  0
  9 10  1  0
 10 11  2  0
 11 12  1  0
 11 13  1  0
 13 14  1  0
 13 15  2  0
 15 16  1  0
 15 17  1  0
 17 18  1  0
 18 19  2  0
 18 20  1  0
 20 21  1  0
 20 22  1  0
 20 23  1  0
 17 24  2  0
 24 25  1  0
  9 26  2  0
 26 27  1  0
 26 28  1  0
 28 29  1  0
 28 30  1  0
 30 31  2  0
  6 32  1  0
 32 33  1  0
 32 34  2  0
 34 35  1  0
 34  2  1  0
 30  7  1  0
 24 10  1  0
M  END
>  <cnnaffinity>  (1) 
-5.55645

>  <filename>  (1) 
CC(=O)c1cccc(-c2c[nH]c(=O)c(-c3cccnc3)n2)c1

$$$$
