
     RDKit          3D

 40 43  0  0  0  0  0  0  0  0999 V2000
    5.0058    1.8426   16.9210 H   0  0  0  0  0  0  0  0  0  0  0  0
    5.4202    1.2900   17.7649 C   0  0  0  0  0  0  0  0  0  0  0  0
    6.5612    0.6217   17.5366 N   0  0  0  0  0  0  0  0  0  0  0  0
    7.1263   -0.0139   18.5662 C   0  0  0  0  0  0  0  0  0  0  0  0
    8.0365   -0.5648   18.3389 H   0  0  0  0  0  0  0  0  0  0  0  0
    6.6146    0.0011   19.8789 C   0  0  0  0  0  0  0  0  0  0  0  0
    7.3675   -0.6333   20.9706 C   0  0  0  0  0  0  0  0  0  0  0  0
    8.0558   -1.7585   20.7704 N   0  0  0  0  0  0  0  0  0  0  0  0
    8.5564   -2.0419   21.9719 N   0  0  0  0  0  0  0  0  0  0  0  0
    8.2758   -1.1732   22.9359 C   0  0  0  0  0  0  0  0  0  0  0  0
    7.4895   -0.1987   22.3355 C   0  0  0  0  0  0  0  0  0  0  0  0
    7.0623    1.0364   22.9815 C   0  0  0  0  0  0  0  0  0  0  0  0
    7.2129    2.2705   22.3365 C   0  0  0  0  0  0  0  0  0  0  0  0
    7.5811    2.2980   21.3141 H   0  0  0  0  0  0  0  0  0  0  0  0
    6.9167    3.4517   23.0141 C   0  0  0  0  0  0  0  0  0  0  0  0
    7.0831    4.4084   22.5284 H   0  0  0  0  0  0  0  0  0  0  0  0
    6.4403    3.4119   24.3240 C   0  0  0  0  0  0  0  0  0  0  0  0
    6.2176    4.3380   24.8487 H   0  0  0  0  0  0  0  0  0  0  0  0
    6.2574    2.1809   24.9852 C   0  0  0  0  0  0  0  0  0  0  0  0
    5.7419    2.1619   26.4093 C   0  0  0  0  0  0  0  0  0  0  0  0
    5.4463    3.1894   26.9883 O   0  0  0  0  0  0  0  0  0  0  0  0
    5.5988    0.8189   27.1021 C   0  0  0  0  0  0  0  0  0  0  0  0
    4.8987    0.1763   26.5573 H   0  0  0  0  0  0  0  0  0  0  0  0
    6.5619    0.2982   27.1482 H   0  0  0  0  0  0  0  0  0  0  0  0
    5.2269    0.9811   28.1133 H   0  0  0  0  0  0  0  0  0  0  0  0
    6.5876    0.9982   24.3004 C   0  0  0  0  0  0  0  0  0  0  0  0
    6.4768    0.0243   24.7790 H   0  0  0  0  0  0  0  0  0  0  0  0
    9.0472   -1.5045   24.1943 C   0  0  0  0  0  0  0  0  0  0  0  0
    8.3756   -1.7254   25.0289 H   0  0  0  0  0  0  0  0  0  0  0  0
    9.7012   -0.6866   24.5133 H   0  0  0  0  0  0  0  0  0  0  0  0
    9.8798   -2.7517   23.7801 C   0  0  0  0  0  0  0  0  0  0  0  0
   10.9454   -2.5307   23.8191 H   0  0  0  0  0  0  0  0  0  0  0  0
    9.6816   -3.5961   24.4437 H   0  0  0  0  0  0  0  0  0  0  0  0
    9.5025   -3.0747   22.3076 C   0  0  0  0  0  0  0  0  0  0  0  0
   10.3632   -2.9628   21.6449 H   0  0  0  0  0  0  0  0  0  0  0  0
    9.0274   -4.0513   22.1739 H   0  0  0  0  0  0  0  0  0  0  0  0
    5.3781    0.6428   20.0830 C   0  0  0  0  0  0  0  0  0  0  0  0
    4.8948    0.6365   21.0612 H   0  0  0  0  0  0  0  0  0  0  0  0
    4.7845    1.3003   19.0082 C   0  0  0  0  0  0  0  0  0  0  0  0
    3.8494    1.8360   19.1160 H   0  0  0  0  0  0  0  0  0  0  0  0
  1  2  1  0
  2  3  2  0
  3  4  1  0
  4  5  1  0
  4  6  2  0
  6  7  1  0
  7  8  2  0
  8  9  1  0
  9 10  1  0
 10 11  2  0
 11 12  1  0
 12 13  2  0
 13 14  1  0
 13 15  1  0
 15 16  1  0
 15 17  2  0
 17 18  1  0
 17 19  1  0
 19 20  1  0
 20 21  2  0
 20 22  1  0
 22 23  1  0
 22 24  1  0
 22 25  1  0
 19 26  2  0
 26 27  1  0
 10 28  1  0
 28 29  1  0
 28 30  1  0
 28 31  1  0
 31 32  1  0
 31 33  1  0
 31 34  1  0
 34 35  1  0
 34 36  1  0
  6 37  1  0
 37 38  1  0
 37 39  2  0
 39 40  1  0
 39  2  1  0
 11  7  1  0
 26 12  1  0
 34  9  1  0
M  END
>  <cnnaffinity>  (1) 
-5.5641

>  <filename>  (1) 
CC(=O)c1cccc(-c2c(-c3cccnc3)nn3c2CCC3)c1

$$$$
