
     RDKit          3D

 38 40  0  0  0  0  0  0  0  0999 V2000
    4.9167    1.7968   16.9837 H   0  0  0  0  0  0  0  0  0  0  0  0
    5.3880    1.3008   17.8293 C   0  0  0  0  0  0  0  0  0  0  0  0
    6.5461    0.6738   17.5667 N   0  0  0  0  0  0  0  0  0  0  0  0
    7.1584    0.0510   18.5795 C   0  0  0  0  0  0  0  0  0  0  0  0
    8.1164   -0.4176   18.3676 H   0  0  0  0  0  0  0  0  0  0  0  0
    6.6398   -0.0054   19.8866 C   0  0  0  0  0  0  0  0  0  0  0  0
    7.3477   -0.6834   20.9384 N   0  0  0  0  0  0  0  0  0  0  0  0
    6.7307   -1.7365   21.5868 C   0  0  0  0  0  0  0  0  0  0  0  0
    5.7198   -1.9511   21.2501 H   0  0  0  0  0  0  0  0  0  0  0  0
    7.3329   -2.4526   22.5884 C   0  0  0  0  0  0  0  0  0  0  0  0
    6.6419   -3.5891   23.2605 C   0  0  0  0  0  0  0  0  0  0  0  0
    5.8795   -4.5096   22.5209 C   0  0  0  0  0  0  0  0  0  0  0  0
    5.8101   -4.3917   21.4435 H   0  0  0  0  0  0  0  0  0  0  0  0
    5.2239   -5.5749   23.1347 C   0  0  0  0  0  0  0  0  0  0  0  0
    4.6359   -6.2775   22.5574 H   0  0  0  0  0  0  0  0  0  0  0  0
    5.3124   -5.7392   24.5253 C   0  0  0  0  0  0  0  0  0  0  0  0
    4.6518   -6.8184   25.1536 N   0  0  0  0  0  0  0  0  0  0  0  0
    5.0556   -7.1629   26.0065 H   0  0  0  0  0  0  0  0  0  0  0  0
    3.4293   -7.3169   24.7783 C   0  0  0  0  0  0  0  0  0  0  0  0
    2.7270   -6.7718   23.9458 O   0  0  0  0  0  0  0  0  0  0  0  0
    2.9783   -8.5971   25.4603 C   0  0  0  0  0  0  0  0  0  0  0  0
    2.5150   -8.3913   26.4311 H   0  0  0  0  0  0  0  0  0  0  0  0
    2.2198   -9.0414   24.8169 H   0  0  0  0  0  0  0  0  0  0  0  0
    3.7510   -9.3489   25.6092 H   0  0  0  0  0  0  0  0  0  0  0  0
    6.0860   -4.8487   25.2843 C   0  0  0  0  0  0  0  0  0  0  0  0
    6.1812   -4.9753   26.3593 H   0  0  0  0  0  0  0  0  0  0  0  0
    6.7343   -3.7839   24.6517 C   0  0  0  0  0  0  0  0  0  0  0  0
    7.3194   -3.0766   25.2328 H   0  0  0  0  0  0  0  0  0  0  0  0
    8.6602   -2.0634   22.9641 C   0  0  0  0  0  0  0  0  0  0  0  0
    9.1631   -2.6351   23.7491 H   0  0  0  0  0  0  0  0  0  0  0  0
    9.2934   -1.0308   22.3495 C   0  0  0  0  0  0  0  0  0  0  0  0
   10.2931   -0.7001   22.5978 H   0  0  0  0  0  0  0  0  0  0  0  0
    8.6769   -0.2541   21.2858 C   0  0  0  0  0  0  0  0  0  0  0  0
    9.2258    0.6736   20.7170 O   0  0  0  0  0  0  0  0  0  0  0  0
    5.4280    0.6398   20.1480 C   0  0  0  0  0  0  0  0  0  0  0  0
    5.0299    0.6245   21.1645 H   0  0  0  0  0  0  0  0  0  0  0  0
    4.7980    1.3180   19.0986 C   0  0  0  0  0  0  0  0  0  0  0  0
    3.8686    1.8518   19.2508 H   0  0  0  0  0  0  0  0  0  0  0  0
  1  2  1  0
  2  3  2  0
  3  4  1  0
  4  5  1  0
  4  6  2  0
  6  7  1  0
  7  8  1  0
  8  9  1  0
  8 10  2  0
 10 11  1  0
 11 12  2  0
 12 13  1  0
 12 14  1  0
 14 15  1  0
 14 16  2  0
 16 17  1  0
 17 18  1  0
 17 19  1  0
 19 20  2  0
 19 21  1  0
 21 22  1  0
 21 23  1  0
 21 24  1  0
 16 25  1  0
 25 26  1  0
 25 27  2  0
 27 28  1  0
 10 29  1  0
 29 30  1  0
 29 31  2  0
 31 32  1  0
 31 33  1  0
 33 34  2  0
  6 35  1  0
 35 36  1  0
 35 37  2  0
 37 38  1  0
 37  2  1  0
 33  7  1  0
 27 11  1  0
M  END
>  <cnnaffinity>  (1) 
-5.51536

>  <filename>  (1) 
CC(=O)Nc1ccc(-c2ccc(=O)n(-c3cccnc3)c2)cc1

$$$$
