
     RDKit          3D

 39 41  0  0  0  0  0  0  0  0999 V2000
    4.9775    1.8744   16.8903 H   0  0  0  0  0  0  0  0  0  0  0  0
    5.4192    1.3515   17.7364 C   0  0  0  0  0  0  0  0  0  0  0  0
    6.5877    0.7317   17.5020 N   0  0  0  0  0  0  0  0  0  0  0  0
    7.1554    0.0875   18.5287 C   0  0  0  0  0  0  0  0  0  0  0  0
    8.1076   -0.4037   18.3151 H   0  0  0  0  0  0  0  0  0  0  0  0
    6.6002    0.0189   19.8239 C   0  0  0  0  0  0  0  0  0  0  0  0
    7.3122   -0.6741   20.9721 C   0  0  2  0  0  0  0  0  0  0  0  0
    8.1391   -1.2483   20.5340 H   0  0  0  0  0  0  0  0  0  0  0  0
    6.4751   -1.7150   21.7337 C   0  0  0  0  0  0  0  0  0  0  0  0
    5.8054   -2.6198   21.2845 O   0  0  0  0  0  0  0  0  0  0  0  0
    6.6501   -1.4889   23.0707 N   0  0  0  0  0  0  0  0  0  0  0  0
    5.9334   -1.9340   23.6285 H   0  0  0  0  0  0  0  0  0  0  0  0
    7.0978   -0.1395   23.3647 C   0  0  0  0  0  0  0  0  0  0  0  0
    7.7601   -0.1327   24.2403 H   0  0  0  0  0  0  0  0  0  0  0  0
    6.2524    0.5371   23.5813 H   0  0  0  0  0  0  0  0  0  0  0  0
    7.8344    0.2961   22.0766 C   0  0  1  0  0  0  0  0  0  0  0  0
    7.5634    1.3356   21.8550 H   0  0  0  0  0  0  0  0  0  0  0  0
    9.3450    0.2266   22.1981 C   0  0  0  0  0  0  0  0  0  0  0  0
    9.9832   -0.9926   22.4902 C   0  0  0  0  0  0  0  0  0  0  0  0
    9.4016   -1.8925   22.6808 H   0  0  0  0  0  0  0  0  0  0  0  0
   11.3744   -1.0703   22.5429 C   0  0  0  0  0  0  0  0  0  0  0  0
   11.8488   -2.0339   22.7304 H   0  0  0  0  0  0  0  0  0  0  0  0
   12.1438    0.0793   22.3505 C   0  0  0  0  0  0  0  0  0  0  0  0
   13.2255    0.0604   22.4063 H   0  0  0  0  0  0  0  0  0  0  0  0
   11.5125    1.3008   22.0859 C   0  0  0  0  0  0  0  0  0  0  0  0
   12.2845    2.4679   21.9260 N   0  0  0  0  0  0  0  0  0  0  0  0
   11.9921    3.1475   21.2470 H   0  0  0  0  0  0  0  0  0  0  0  0
   13.2542    2.8696   22.8023 C   0  0  0  0  0  0  0  0  0  0  0  0
   13.5662    2.2320   23.7888 O   0  0  0  0  0  0  0  0  0  0  0  0
   13.8624    4.2029   22.4400 C   0  0  0  0  0  0  0  0  0  0  0  0
   13.7430    4.4640   21.3830 H   0  0  0  0  0  0  0  0  0  0  0  0
   14.9229    4.1620   22.6719 H   0  0  0  0  0  0  0  0  0  0  0  0
   13.3954    4.9702   23.0639 H   0  0  0  0  0  0  0  0  0  0  0  0
   10.1214    1.3744   21.9914 C   0  0  0  0  0  0  0  0  0  0  0  0
    9.6392    2.3247   21.7686 H   0  0  0  0  0  0  0  0  0  0  0  0
    5.3790    0.6632   20.0389 C   0  0  0  0  0  0  0  0  0  0  0  0
    4.9177    0.6419   21.0290 H   0  0  0  0  0  0  0  0  0  0  0  0
    4.7777    1.3410   18.9781 C   0  0  0  0  0  0  0  0  0  0  0  0
    3.8386    1.8661   19.1060 H   0  0  0  0  0  0  0  0  0  0  0  0
  1  2  1  0
  2  3  2  0
  3  4  1  0
  4  5  1  0
  4  6  2  0
  6  7  1  0
  7  8  1  6
  7  9  1  0
  9 10  2  0
  9 11  1  0
 11 12  1  0
 11 13  1  0
 13 14  1  0
 13 15  1  0
 13 16  1  0
 16 17  1  6
 16 18  1  0
 18 19  2  0
 19 20  1  0
 19 21  1  0
 21 22  1  0
 21 23  2  0
 23 24  1  0
 23 25  1  0
 25 26  1  0
 26 27  1  0
 26 28  1  0
 28 29  2  0
 28 30  1  0
 30 31  1  0
 30 32  1  0
 30 33  1  0
 25 34  2  0
 34 35  1  0
  6 36  1  0
 36 37  1  0
 36 38  2  0
 38 39  1  0
 38  2  1  0
 16  7  1  0
 34 18  1  0
M  END
>  <cnnaffinity>  (1) 
-5.95473

>  <filename>  (1) 
CC(=O)Nc1cccc([C@@H]2CNC(=O)[C@H]2c2cccnc2)c1

$$$$
