
     RDKit          3D

 34 37  0  0  0  0  0  0  0  0999 V2000
    4.9186    1.7768   17.0008 H   0  0  0  0  0  0  0  0  0  0  0  0
    5.4051    1.2903   17.8414 C   0  0  0  0  0  0  0  0  0  0  0  0
    6.5704    0.6770   17.5736 N   0  0  0  0  0  0  0  0  0  0  0  0
    7.1730    0.0567   18.5886 C   0  0  0  0  0  0  0  0  0  0  0  0
    8.1224   -0.4334   18.3726 H   0  0  0  0  0  0  0  0  0  0  0  0
    6.6474    0.0101   19.8919 C   0  0  0  0  0  0  0  0  0  0  0  0
    7.4040   -0.7005   20.9172 C   0  0  0  0  0  0  0  0  0  0  0  0
    8.3288   -1.6002   20.6970 N   0  0  0  0  0  0  0  0  0  0  0  0
    8.8293   -2.0397   21.9016 N   0  0  0  0  0  0  0  0  0  0  0  0
    8.2009   -1.3601   22.8198 C   0  0  0  0  0  0  0  0  0  0  0  0
    8.2580   -1.1057   24.5392 S   0  0  0  0  0  0  0  0  0  0  0  0
    7.0282    0.1652   24.3230 C   0  0  0  0  0  0  0  0  0  0  0  0
    6.5307    0.9507   25.4733 C   0  0  0  0  0  0  0  0  0  0  0  0
    5.5601    1.9531   25.2614 C   0  0  0  0  0  0  0  0  0  0  0  0
    5.1926    2.1338   24.2546 H   0  0  0  0  0  0  0  0  0  0  0  0
    5.0796    2.7046   26.3237 C   0  0  0  0  0  0  0  0  0  0  0  0
    4.3329    3.4719   26.1371 H   0  0  0  0  0  0  0  0  0  0  0  0
    5.5431    2.4911   27.6381 C   0  0  0  0  0  0  0  0  0  0  0  0
    4.9842    3.3381   28.7571 C   0  0  0  0  0  0  0  0  0  0  0  0
    4.1467    4.1966   28.5371 O   0  0  0  0  0  0  0  0  0  0  0  0
    5.4756    3.1151   30.1722 C   0  0  0  0  0  0  0  0  0  0  0  0
    5.2725    2.0910   30.5003 H   0  0  0  0  0  0  0  0  0  0  0  0
    4.9616    3.8131   30.8333 H   0  0  0  0  0  0  0  0  0  0  0  0
    6.5551    3.2788   30.2426 H   0  0  0  0  0  0  0  0  0  0  0  0
    6.5129    1.4895   27.8468 C   0  0  0  0  0  0  0  0  0  0  0  0
    6.9001    1.2882   28.8424 H   0  0  0  0  0  0  0  0  0  0  0  0
    7.0008    0.7301   26.7850 C   0  0  0  0  0  0  0  0  0  0  0  0
    7.7505   -0.0315   26.9951 H   0  0  0  0  0  0  0  0  0  0  0  0
    6.6195    0.3459   23.1056 N   0  0  0  0  0  0  0  0  0  0  0  0
    7.2725   -0.5232   22.2814 N   0  0  0  0  0  0  0  0  0  0  0  0
    5.4311    0.6525   20.1622 C   0  0  0  0  0  0  0  0  0  0  0  0
    5.0084    0.6361   21.1712 H   0  0  0  0  0  0  0  0  0  0  0  0
    4.8048    1.3077   19.1076 C   0  0  0  0  0  0  0  0  0  0  0  0
    3.8741    1.8434   19.2604 H   0  0  0  0  0  0  0  0  0  0  0  0
  1  2  1  0
  2  3  2  0
  3  4  1  0
  4  5  1  0
  4  6  2  0
  6  7  1  0
  7  8  2  0
  8  9  1  0
  9 10  2  0
 10 11  1  0
 11 12  1  0
 12 13  1  0
 13 14  2  0
 14 15  1  0
 14 16  1  0
 16 17  1  0
 16 18  2  0
 18 19  1  0
 19 20  2  0
 19 21  1  0
 21 22  1  0
 21 23  1  0
 21 24  1  0
 18 25  1  0
 25 26  1  0
 25 27  2  0
 27 28  1  0
 12 29  2  0
 29 30  1  0
  6 31  1  0
 31 32  1  0
 31 33  2  0
 33 34  1  0
 33  2  1  0
 30  7  1  0
 30 10  1  0
 27 13  1  0
M  END
>  <cnnaffinity>  (1) 
-5.3461

>  <filename>  (1) 
CC(=O)c1ccc(-c2nn3c(-c4cccnc4)nnc3s2)cc1

$$$$
