
     RDKit          3D

 38 41  0  0  0  0  0  0  0  0999 V2000
    4.9694    1.8183   16.9682 H   0  0  0  0  0  0  0  0  0  0  0  0
    5.4069    1.2856   17.8104 C   0  0  0  0  0  0  0  0  0  0  0  0
    6.5587    0.6418   17.5698 N   0  0  0  0  0  0  0  0  0  0  0  0
    7.1520    0.0128   18.5886 C   0  0  0  0  0  0  0  0  0  0  0  0
    8.0898   -0.4906   18.3617 H   0  0  0  0  0  0  0  0  0  0  0  0
    6.6468    0.0082   19.8981 C   0  0  0  0  0  0  0  0  0  0  0  0
    7.4053   -0.6482   20.9653 C   0  0  0  0  0  0  0  0  0  0  0  0
    8.0440   -1.8480   20.7599 N   0  0  0  0  0  0  0  0  0  0  0  0
    8.4567   -2.1916   21.9496 C   0  0  0  0  0  0  0  0  0  0  0  0
    9.2976   -3.5444   22.6457 S   0  0  0  0  0  0  0  0  0  0  0  0
    9.4002   -2.7095   24.1815 C   0  0  0  0  0  0  0  0  0  0  0  0
    9.9899   -3.1461   24.9750 H   0  0  0  0  0  0  0  0  0  0  0  0
    8.7464   -1.5323   24.1665 C   0  0  0  0  0  0  0  0  0  0  0  0
    8.6098   -0.7965   24.9506 H   0  0  0  0  0  0  0  0  0  0  0  0
    8.1887   -1.2679   22.9202 N   0  0  0  0  0  0  0  0  0  0  0  0
    7.5214   -0.2342   22.2914 C   0  0  0  0  0  0  0  0  0  0  0  0
    7.1012    0.9906   22.9655 C   0  0  0  0  0  0  0  0  0  0  0  0
    6.4589    0.9319   24.2174 C   0  0  0  0  0  0  0  0  0  0  0  0
    6.2718   -0.0428   24.6559 H   0  0  0  0  0  0  0  0  0  0  0  0
    6.0412    2.1009   24.8516 C   0  0  0  0  0  0  0  0  0  0  0  0
    5.5417    2.0481   25.8160 H   0  0  0  0  0  0  0  0  0  0  0  0
    6.2719    3.3374   24.2469 C   0  0  0  0  0  0  0  0  0  0  0  0
    5.9802    4.2689   24.7097 H   0  0  0  0  0  0  0  0  0  0  0  0
    6.8989    3.3999   22.9977 C   0  0  0  0  0  0  0  0  0  0  0  0
    7.1124    4.6340   22.3617 N   0  0  0  0  0  0  0  0  0  0  0  0
    7.0732    4.6506   21.3575 H   0  0  0  0  0  0  0  0  0  0  0  0
    7.4054    5.8112   22.9915 C   0  0  0  0  0  0  0  0  0  0  0  0
    7.6476    5.8917   24.1795 O   0  0  0  0  0  0  0  0  0  0  0  0
    7.4003    7.0187   22.1033 C   0  0  0  0  0  0  0  0  0  0  0  0
    6.5951    6.9661   21.3697 H   0  0  0  0  0  0  0  0  0  0  0  0
    7.2631    7.8806   22.7572 H   0  0  0  0  0  0  0  0  0  0  0  0
    8.3519    7.0879   21.5724 H   0  0  0  0  0  0  0  0  0  0  0  0
    7.3010    2.2363   22.3491 C   0  0  0  0  0  0  0  0  0  0  0  0
    7.7414    2.3034   21.3573 H   0  0  0  0  0  0  0  0  0  0  0  0
    5.4150    0.6561   20.1237 C   0  0  0  0  0  0  0  0  0  0  0  0
    4.9686    0.6739   21.1186 H   0  0  0  0  0  0  0  0  0  0  0  0
    4.7865    1.3048   19.0627 C   0  0  0  0  0  0  0  0  0  0  0  0
    3.8542    1.8452   19.1933 H   0  0  0  0  0  0  0  0  0  0  0  0
  1  2  1  0
  2  3  2  0
  3  4  1  0
  4  5  1  0
  4  6  2  0
  6  7  1  0
  7  8  1  0
  8  9  2  0
  9 10  1  0
 10 11  1  0
 11 12  1  0
 11 13  2  0
 13 14  1  0
 13 15  1  0
 15 16  1  0
 16 17  1  0
 17 18  2  0
 18 19  1  0
 18 20  1  0
 20 21  1  0
 20 22  2  0
 22 23  1  0
 22 24  1  0
 24 25  1  0
 25 26  1  0
 25 27  1  0
 27 28  2  0
 27 29  1  0
 29 30  1  0
 29 31  1  0
 29 32  1  0
 24 33  2  0
 33 34  1  0
  6 35  1  0
 35 36  1  0
 35 37  2  0
 37 38  1  0
 37  2  1  0
 16  7  2  0
 33 17  1  0
 15  9  1  0
M  END
>  <cnnaffinity>  (1) 
-5.87825

>  <filename>  (1) 
CC(=O)Nc1cccc(-c2c(-c3cccnc3)nc3sccn23)c1

$$$$
