
     RDKit          3D

 39 41  0  0  0  0  0  0  0  0999 V2000
    4.9284    1.8234   16.9787 H   0  0  0  0  0  0  0  0  0  0  0  0
    5.3942    1.3040   17.8152 C   0  0  0  0  0  0  0  0  0  0  0  0
    6.5438    0.6652   17.5489 N   0  0  0  0  0  0  0  0  0  0  0  0
    7.1444    0.0442   18.5750 C   0  0  0  0  0  0  0  0  0  0  0  0
    8.0820   -0.4517   18.3253 H   0  0  0  0  0  0  0  0  0  0  0  0
    6.6587    0.0168   19.9014 C   0  0  0  0  0  0  0  0  0  0  0  0
    7.4062   -0.6783   21.0470 C   0  0  2  0  0  0  0  0  0  0  0  0
    6.9772   -0.3108   21.9897 H   0  0  0  0  0  0  0  0  0  0  0  0
    8.9044   -0.3353   21.1082 C   0  0  0  0  0  0  0  0  0  0  0  0
    9.4202    0.7604   21.0923 O   0  0  0  0  0  0  0  0  0  0  0  0
    9.5929   -1.5012   21.1863 N   0  0  0  0  0  0  0  0  0  0  0  0
   10.5948   -1.4401   21.2305 H   0  0  0  0  0  0  0  0  0  0  0  0
    8.8085   -2.6897   21.3739 C   0  0  0  0  0  0  0  0  0  0  0  0
    9.1281   -3.5119   20.7313 H   0  0  0  0  0  0  0  0  0  0  0  0
    8.8900   -3.0646   22.4065 H   0  0  0  0  0  0  0  0  0  0  0  0
    7.3747   -2.2331   21.0164 C   0  0  1  0  0  0  0  0  0  0  0  0
    7.1378   -2.5108   19.9878 H   0  0  0  0  0  0  0  0  0  0  0  0
    6.3667   -2.9191   21.8994 C   0  0  0  0  0  0  0  0  0  0  0  0
    5.3612   -3.7277   21.3412 C   0  0  0  0  0  0  0  0  0  0  0  0
    5.3126   -3.8317   20.2551 H   0  0  0  0  0  0  0  0  0  0  0  0
    4.4542   -4.3972   22.1674 C   0  0  0  0  0  0  0  0  0  0  0  0
    3.6785   -5.0578   21.7836 H   0  0  0  0  0  0  0  0  0  0  0  0
    4.5308   -4.2153   23.5524 C   0  0  0  0  0  0  0  0  0  0  0  0
    3.5705   -4.8258   24.3647 N   0  0  0  0  0  0  0  0  0  0  0  0
    3.1176   -5.6407   24.0008 H   0  0  0  0  0  0  0  0  0  0  0  0
    3.0905   -4.3454   25.5523 C   0  0  0  0  0  0  0  0  0  0  0  0
    3.3652   -3.2535   26.0036 O   0  0  0  0  0  0  0  0  0  0  0  0
    2.1551   -5.3255   26.2148 C   0  0  0  0  0  0  0  0  0  0  0  0
    1.1510   -5.1954   25.8039 H   0  0  0  0  0  0  0  0  0  0  0  0
    2.1131   -5.1304   27.2839 H   0  0  0  0  0  0  0  0  0  0  0  0
    2.4763   -6.3579   26.0513 H   0  0  0  0  0  0  0  0  0  0  0  0
    5.5510   -3.4483   24.1280 C   0  0  0  0  0  0  0  0  0  0  0  0
    5.6042   -3.3404   25.2053 H   0  0  0  0  0  0  0  0  0  0  0  0
    6.4787   -2.8356   23.2975 C   0  0  0  0  0  0  0  0  0  0  0  0
    7.3077   -2.2830   23.7433 H   0  0  0  0  0  0  0  0  0  0  0  0
    5.4401    0.6680   20.1384 C   0  0  0  0  0  0  0  0  0  0  0  0
    5.0049    0.6721   21.1409 H   0  0  0  0  0  0  0  0  0  0  0  0
    4.7976    1.3197   19.0806 C   0  0  0  0  0  0  0  0  0  0  0  0
    3.8621    1.8508   19.2276 H   0  0  0  0  0  0  0  0  0  0  0  0
  1  2  1  0
  2  3  2  0
  3  4  1  0
  4  5  1  0
  4  6  2  0
  6  7  1  0
  7  8  1  1
  7  9  1  0
  9 10  2  0
  9 11  1  0
 11 12  1  0
 11 13  1  0
 13 14  1  0
 13 15  1  0
 13 16  1  0
 16 17  1  6
 16 18  1  0
 18 19  2  0
 19 20  1  0
 19 21  1  0
 21 22  1  0
 21 23  2  0
 23 24  1  0
 24 25  1  0
 24 26  1  0
 26 27  2  0
 26 28  1  0
 28 29  1  0
 28 30  1  0
 28 31  1  0
 23 32  1  0
 32 33  1  0
 32 34  2  0
 34 35  1  0
  6 36  1  0
 36 37  1  0
 36 38  2  0
 38 39  1  0
 38  2  1  0
 16  7  1  0
 34 18  1  0
M  END
>  <cnnaffinity>  (1) 
-4.71263

>  <filename>  (1) 
CC(=O)Nc1ccc([C@@H]2CNC(=O)[C@H]2c2cccnc2)cc1

$$$$
