
     RDKit          3D

 35 38  0  0  0  0  0  0  0  0999 V2000
    4.9216    1.7720   17.0038 H   0  0  0  0  0  0  0  0  0  0  0  0
    5.4103    1.2859   17.8471 C   0  0  0  0  0  0  0  0  0  0  0  0
    6.5761    0.6679   17.5937 N   0  0  0  0  0  0  0  0  0  0  0  0
    7.1818    0.0540   18.6153 C   0  0  0  0  0  0  0  0  0  0  0  0
    8.1264   -0.4325   18.3833 H   0  0  0  0  0  0  0  0  0  0  0  0
    6.6475    0.0145   19.9118 C   0  0  0  0  0  0  0  0  0  0  0  0
    7.3596   -0.6870   20.9701 C   0  0  0  0  0  0  0  0  0  0  0  0
    8.5516   -1.3119   20.7617 N   0  0  0  0  0  0  0  0  0  0  0  0
    8.8047   -1.8031   21.9576 C   0  0  0  0  0  0  0  0  0  0  0  0
   10.0098   -2.7958   22.7373 S   0  0  0  0  0  0  0  0  0  0  0  0
    9.0834   -2.7478   24.2084 C   0  0  0  0  0  0  0  0  0  0  0  0
    9.4660   -3.2656   25.0793 H   0  0  0  0  0  0  0  0  0  0  0  0
    7.9557   -2.0130   24.1213 C   0  0  0  0  0  0  0  0  0  0  0  0
    6.9593   -1.7735   25.1908 C   0  0  0  0  0  0  0  0  0  0  0  0
    6.7607   -2.7681   26.1684 C   0  0  0  0  0  0  0  0  0  0  0  0
    7.3185   -3.7022   26.1245 H   0  0  0  0  0  0  0  0  0  0  0  0
    5.8322   -2.5737   27.1916 C   0  0  0  0  0  0  0  0  0  0  0  0
    5.6862   -3.3464   27.9414 H   0  0  0  0  0  0  0  0  0  0  0  0
    5.0945   -1.3927   27.2566 C   0  0  0  0  0  0  0  0  0  0  0  0
    4.3719   -1.2489   28.0571 H   0  0  0  0  0  0  0  0  0  0  0  0
    5.2778   -0.3773   26.2930 C   0  0  0  0  0  0  0  0  0  0  0  0
    4.4528    0.8867   26.4015 C   0  0  0  0  0  0  0  0  0  0  0  0
    3.6933    1.0575   27.3362 O   0  0  0  0  0  0  0  0  0  0  0  0
    4.5813    1.9475   25.3290 C   0  0  0  0  0  0  0  0  0  0  0  0
    5.5954    2.3575   25.3116 H   0  0  0  0  0  0  0  0  0  0  0  0
    3.8750    2.7482   25.5465 H   0  0  0  0  0  0  0  0  0  0  0  0
    4.3741    1.5327   24.3386 H   0  0  0  0  0  0  0  0  0  0  0  0
    6.2190   -0.5761   25.2693 C   0  0  0  0  0  0  0  0  0  0  0  0
    6.3982    0.1812   24.5060 H   0  0  0  0  0  0  0  0  0  0  0  0
    7.8305   -1.4781   22.8341 N   0  0  0  0  0  0  0  0  0  0  0  0
    6.8723   -0.7532   22.2058 N   0  0  0  0  0  0  0  0  0  0  0  0
    5.4285    0.6575   20.1681 C   0  0  0  0  0  0  0  0  0  0  0  0
    5.0014    0.6318   21.1743 H   0  0  0  0  0  0  0  0  0  0  0  0
    4.8046    1.3096   19.1109 C   0  0  0  0  0  0  0  0  0  0  0  0
    3.8727    1.8441   19.2614 H   0  0  0  0  0  0  0  0  0  0  0  0
  1  2  1  0
  2  3  2  0
  3  4  1  0
  4  5  1  0
  4  6  2  0
  6  7  1  0
  7  8  1  0
  8  9  2  0
  9 10  1  0
 10 11  1  0
 11 12  1  0
 11 13  2  0
 13 14  1  0
 14 15  2  0
 15 16  1  0
 15 17  1  0
 17 18  1  0
 17 19  2  0
 19 20  1  0
 19 21  1  0
 21 22  1  0
 22 23  2  0
 22 24  1  0
 24 25  1  0
 24 26  1  0
 24 27  1  0
 21 28  2  0
 28 29  1  0
 13 30  1  0
 30 31  1  0
  6 32  1  0
 32 33  1  0
 32 34  2  0
 34 35  1  0
 34  2  1  0
 31  7  2  0
 30  9  1  0
 28 14  1  0
M  END
>  <cnnaffinity>  (1) 
-5.63831

>  <filename>  (1) 
CC(=O)c1cccc(-c2csc3nc(-c4cccnc4)nn23)c1

$$$$
