
     RDKit          3D

 28 29  0  0  0  0  0  0  0  0999 V2000
    4.9261    1.7893   17.0036 H   0  0  0  0  0  0  0  0  0  0  0  0
    5.4067    1.2936   17.8436 C   0  0  0  0  0  0  0  0  0  0  0  0
    6.5681    0.6753   17.5755 N   0  0  0  0  0  0  0  0  0  0  0  0
    7.1833    0.0579   18.5939 C   0  0  0  0  0  0  0  0  0  0  0  0
    8.1197   -0.4527   18.3654 H   0  0  0  0  0  0  0  0  0  0  0  0
    6.6744    0.0093   19.9092 C   0  0  0  0  0  0  0  0  0  0  0  0
    7.3656   -0.6838   20.9653 N   0  0  0  0  0  0  0  0  0  0  0  0
    8.6171   -0.3752   21.4902 C   0  0  0  0  0  0  0  0  0  0  0  0
    9.4618    0.7683   20.9754 C   0  0  0  0  0  0  0  0  0  0  0  0
   10.3539    0.8063   21.6109 H   0  0  0  0  0  0  0  0  0  0  0  0
    9.7494    0.4958   19.9616 H   0  0  0  0  0  0  0  0  0  0  0  0
    8.8081    2.0797   20.9300 N   0  0  0  0  0  0  0  0  0  0  0  0
    8.5206    2.5005   20.0600 H   0  0  0  0  0  0  0  0  0  0  0  0
    8.3088    2.6434   22.0682 C   0  0  0  0  0  0  0  0  0  0  0  0
    8.5403    2.1624   23.1648 O   0  0  0  0  0  0  0  0  0  0  0  0
    7.4647    3.8738   21.8714 C   0  0  0  0  0  0  0  0  0  0  0  0
    7.1963    4.2263   22.8645 H   0  0  0  0  0  0  0  0  0  0  0  0
    6.5495    3.6518   21.3081 H   0  0  0  0  0  0  0  0  0  0  0  0
    8.0143    4.6635   21.3501 H   0  0  0  0  0  0  0  0  0  0  0  0
    8.9587   -1.2086   22.4231 N   0  0  0  0  0  0  0  0  0  0  0  0
    7.8754   -2.0256   22.5415 N   0  0  0  0  0  0  0  0  0  0  0  0
    7.7978   -2.7451   23.2497 H   0  0  0  0  0  0  0  0  0  0  0  0
    6.8741   -1.7640   21.6836 C   0  0  0  0  0  0  0  0  0  0  0  0
    5.4668   -2.6253   21.5316 S   0  0  0  0  0  0  0  0  0  0  0  0
    5.4594    0.6452   20.1714 C   0  0  0  0  0  0  0  0  0  0  0  0
    5.0345    0.5996   21.1760 H   0  0  0  0  0  0  0  0  0  0  0  0
    4.8223    1.3076   19.1150 C   0  0  0  0  0  0  0  0  0  0  0  0
    3.8866    1.8310   19.2650 H   0  0  0  0  0  0  0  0  0  0  0  0
  1  2  1  0
  2  3  2  0
  3  4  1  0
  4  5  1  0
  4  6  2  0
  6  7  1  0
  7  8  1  0
  8  9  1  0
  9 10  1  0
  9 11  1  0
  9 12  1  0
 12 13  1  0
 12 14  1  0
 14 15  2  0
 14 16  1  0
 16 17  1  0
 16 18  1  0
 16 19  1  0
  8 20  2  0
 20 21  1  0
 21 22  1  0
 21 23  1  0
 23 24  2  0
  6 25  1  0
 25 26  1  0
 25 27  2  0
 27 28  1  0
 27  2  1  0
 23  7  1  0
M  END
>  <cnnaffinity>  (1) 
-4.86562

>  <filename>  (1) 
CC(=O)NCc1n[nH]c(=S)n1-c1cccnc1

$$$$
