
     RDKit          3D

 36 38  0  0  0  0  0  0  0  0999 V2000
    4.9185    1.8058   16.9637 H   0  0  0  0  0  0  0  0  0  0  0  0
    5.3904    1.3063   17.8125 C   0  0  0  0  0  0  0  0  0  0  0  0
    6.5562    0.6859   17.5606 N   0  0  0  0  0  0  0  0  0  0  0  0
    7.1696    0.0741   18.5831 C   0  0  0  0  0  0  0  0  0  0  0  0
    8.1049   -0.4191   18.3214 H   0  0  0  0  0  0  0  0  0  0  0  0
    6.6704    0.0227   19.9005 C   0  0  0  0  0  0  0  0  0  0  0  0
    7.3412   -0.6997   20.9920 C   0  0  0  0  0  0  0  0  0  0  0  0
    6.8236   -1.2396   22.1134 C   0  0  0  0  0  0  0  0  0  0  0  0
    5.8052   -1.3007   22.4171 H   0  0  0  0  0  0  0  0  0  0  0  0
    7.8330   -1.8376   22.8504 N   0  0  0  0  0  0  0  0  0  0  0  0
    7.6221   -2.4883   24.1110 C   0  0  0  0  0  0  0  0  0  0  0  0
    8.4631   -2.2230   25.1988 C   0  0  0  0  0  0  0  0  0  0  0  0
    9.2754   -1.5135   25.0687 H   0  0  0  0  0  0  0  0  0  0  0  0
    8.2607   -2.8888   26.4127 C   0  0  0  0  0  0  0  0  0  0  0  0
    8.9247   -2.7021   27.2489 H   0  0  0  0  0  0  0  0  0  0  0  0
    7.2311   -3.8293   26.5406 C   0  0  0  0  0  0  0  0  0  0  0  0
    7.0439   -4.5138   27.7601 N   0  0  0  0  0  0  0  0  0  0  0  0
    7.3422   -4.0609   28.6026 H   0  0  0  0  0  0  0  0  0  0  0  0
    6.5858   -5.8006   27.8941 C   0  0  0  0  0  0  0  0  0  0  0  0
    6.4260   -6.5437   26.9476 O   0  0  0  0  0  0  0  0  0  0  0  0
    6.2760   -6.2414   29.3145 C   0  0  0  0  0  0  0  0  0  0  0  0
    5.6064   -7.0973   29.2207 H   0  0  0  0  0  0  0  0  0  0  0  0
    7.1730   -6.5839   29.8403 H   0  0  0  0  0  0  0  0  0  0  0  0
    5.7895   -5.4764   29.9302 H   0  0  0  0  0  0  0  0  0  0  0  0
    6.3714   -4.0667   25.4599 C   0  0  0  0  0  0  0  0  0  0  0  0
    5.5651   -4.7770   25.5848 H   0  0  0  0  0  0  0  0  0  0  0  0
    6.5590   -3.3914   24.2552 C   0  0  0  0  0  0  0  0  0  0  0  0
    5.9018   -3.5819   23.4092 H   0  0  0  0  0  0  0  0  0  0  0  0
    9.0256   -1.6878   22.1711 C   0  0  0  0  0  0  0  0  0  0  0  0
   10.5808   -2.1754   22.4954 S   0  0  0  0  0  0  0  0  0  0  0  0
    8.6889   -1.0045   21.0432 N   0  0  0  0  0  0  0  0  0  0  0  0
    9.4284   -0.7286   20.4196 H   0  0  0  0  0  0  0  0  0  0  0  0
    5.4421    0.6691   20.1321 C   0  0  0  0  0  0  0  0  0  0  0  0
    5.0094    0.6651   21.1310 H   0  0  0  0  0  0  0  0  0  0  0  0
    4.7978    1.3226   19.0803 C   0  0  0  0  0  0  0  0  0  0  0  0
    3.8613    1.8534   19.2265 H   0  0  0  0  0  0  0  0  0  0  0  0
  1  2  1  0
  2  3  2  0
  3  4  1  0
  4  5  1  0
  4  6  2  0
  6  7  1  0
  7  8  2  0
  8  9  1  0
  8 10  1  0
 10 11  1  0
 11 12  2  0
 12 13  1  0
 12 14  1  0
 14 15  1  0
 14 16  2  0
 16 17  1  0
 17 18  1  0
 17 19  1  0
 19 20  2  0
 19 21  1  0
 21 22  1  0
 21 23  1  0
 21 24  1  0
 16 25  1  0
 25 26  1  0
 25 27  2  0
 27 28  1  0
 10 29  1  0
 29 30  2  0
 29 31  1  0
 31 32  1  0
  6 33  1  0
 33 34  1  0
 33 35  2  0
 35 36  1  0
 35  2  1  0
 31  7  1  0
 27 11  1  0
M  END
>  <cnnaffinity>  (1) 
-5.55001

>  <filename>  (1) 
CC(=O)Nc1ccc(-n2cc(-c3cccnc3)[nH]c2=S)cc1

$$$$
