
     RDKit          3D

 30 31  0  0  0  0  0  0  0  0999 V2000
    4.9269    1.7769   16.9990 H   0  0  0  0  0  0  0  0  0  0  0  0
    5.4064    1.2859   17.8434 C   0  0  0  0  0  0  0  0  0  0  0  0
    6.5680    0.6653   17.5871 N   0  0  0  0  0  0  0  0  0  0  0  0
    7.1827    0.0687   18.6097 C   0  0  0  0  0  0  0  0  0  0  0  0
    8.1275   -0.4181   18.3925 H   0  0  0  0  0  0  0  0  0  0  0  0
    6.6615    0.0166   19.9121 C   0  0  0  0  0  0  0  0  0  0  0  0
    7.4317   -0.6936   20.9611 C   0  0  0  0  0  0  0  0  0  0  0  0
    8.7044   -0.6985   20.8503 N   0  0  0  0  0  0  0  0  0  0  0  0
    9.5489   -1.2271   21.9125 C   0  0  0  0  0  0  0  0  0  0  0  0
   10.5722   -1.1392   21.5332 H   0  0  0  0  0  0  0  0  0  0  0  0
    9.3885   -2.3016   22.0545 H   0  0  0  0  0  0  0  0  0  0  0  0
    9.5018   -0.4986   23.2563 C   0  0  0  0  0  0  0  0  0  0  0  0
    9.6810    0.8980   23.2711 C   0  0  0  0  0  0  0  0  0  0  0  0
    9.8600    1.4000   22.3239 H   0  0  0  0  0  0  0  0  0  0  0  0
    9.6094    1.6303   24.4546 C   0  0  0  0  0  0  0  0  0  0  0  0
    9.7376    2.7101   24.4303 H   0  0  0  0  0  0  0  0  0  0  0  0
    9.3664    0.9732   25.6645 C   0  0  0  0  0  0  0  0  0  0  0  0
    9.3016    1.5357   26.5897 H   0  0  0  0  0  0  0  0  0  0  0  0
    9.2062   -0.4126   25.6894 C   0  0  0  0  0  0  0  0  0  0  0  0
    9.0224   -0.9448   26.6191 H   0  0  0  0  0  0  0  0  0  0  0  0
    9.2847   -1.1325   24.4910 C   0  0  0  0  0  0  0  0  0  0  0  0
    9.0852   -2.8666   24.5911 Cl  0  0  0  0  0  0  0  0  0  0  0  0
    6.6516   -1.3801   22.0625 C   0  0  0  0  0  0  0  0  0  0  0  0
    5.6372   -1.6038   21.7244 H   0  0  0  0  0  0  0  0  0  0  0  0
    7.1175   -2.3152   22.3792 H   0  0  0  0  0  0  0  0  0  0  0  0
    6.5825   -0.7319   22.9408 H   0  0  0  0  0  0  0  0  0  0  0  0
    5.4361    0.6485   20.1630 C   0  0  0  0  0  0  0  0  0  0  0  0
    4.9960    0.6385   21.1626 H   0  0  0  0  0  0  0  0  0  0  0  0
    4.8095    1.3089   19.1086 C   0  0  0  0  0  0  0  0  0  0  0  0
    3.8755    1.8414   19.2556 H   0  0  0  0  0  0  0  0  0  0  0  0
  1  2  1  0
  2  3  2  0
  3  4  1  0
  4  5  1  0
  4  6  2  0
  6  7  1  0
  7  8  2  3
  8  9  1  0
  9 10  1  0
  9 11  1  0
  9 12  1  0
 12 13  2  0
 13 14  1  0
 13 15  1  0
 15 16  1  0
 15 17  2  0
 17 18  1  0
 17 19  1  0
 19 20  1  0
 19 21  2  0
 21 22  1  0
  7 23  1  0
 23 24  1  0
 23 25  1  0
 23 26  1  0
  6 27  1  0
 27 28  1  0
 27 29  2  0
 29 30  1  0
 29  2  1  0
 21 12  1  0
M  END
>  <cnnaffinity>  (1) 
-4.94247

>  <filename>  (1) 
CC(=NCc1ccccc1Cl)c1cccnc1

$$$$
