
     RDKit          3D

 35 37  0  0  0  0  0  0  0  0999 V2000
    4.9115    1.8037   16.9758 H   0  0  0  0  0  0  0  0  0  0  0  0
    5.3857    1.3063   17.8189 C   0  0  0  0  0  0  0  0  0  0  0  0
    6.5496    0.6901   17.5528 N   0  0  0  0  0  0  0  0  0  0  0  0
    7.1572    0.0657   18.5666 C   0  0  0  0  0  0  0  0  0  0  0  0
    8.1147   -0.3980   18.3280 H   0  0  0  0  0  0  0  0  0  0  0  0
    6.6527    0.0150   19.8823 C   0  0  0  0  0  0  0  0  0  0  0  0
    7.3746   -0.6551   20.9750 C   0  0  0  0  0  0  0  0  0  0  0  0
    7.5169   -0.3206   22.3168 C   0  0  0  0  0  0  0  0  0  0  0  0
    7.0328    0.8388   22.9291 N   0  0  0  0  0  0  0  0  0  0  0  0
    6.9820    1.6486   22.3293 H   0  0  0  0  0  0  0  0  0  0  0  0
    6.8248    1.0345   24.2977 C   0  0  0  0  0  0  0  0  0  0  0  0
    6.3541   -0.0199   25.0909 C   0  0  0  0  0  0  0  0  0  0  0  0
    6.1729   -0.9739   24.6043 H   0  0  0  0  0  0  0  0  0  0  0  0
    6.1465    0.1758   26.4563 C   0  0  0  0  0  0  0  0  0  0  0  0
    5.7949   -0.6527   27.0629 H   0  0  0  0  0  0  0  0  0  0  0  0
    6.3912    1.4182   27.0390 C   0  0  0  0  0  0  0  0  0  0  0  0
    6.2271    1.5679   28.1020 H   0  0  0  0  0  0  0  0  0  0  0  0
    6.8477    2.5010   26.2575 C   0  0  0  0  0  0  0  0  0  0  0  0
    7.0837    3.8380   26.9441 C   0  0  0  0  0  0  0  0  0  0  0  0
    6.8883    3.9821   28.1358 O   0  0  0  0  0  0  0  0  0  0  0  0
    7.5675    5.0062   26.1110 C   0  0  0  0  0  0  0  0  0  0  0  0
    8.5283    4.7778   25.6395 H   0  0  0  0  0  0  0  0  0  0  0  0
    6.8576    5.2361   25.3100 H   0  0  0  0  0  0  0  0  0  0  0  0
    7.6741    5.8722   26.7660 H   0  0  0  0  0  0  0  0  0  0  0  0
    7.0528    2.2910   24.8788 C   0  0  0  0  0  0  0  0  0  0  0  0
    7.4116    3.0831   24.2228 H   0  0  0  0  0  0  0  0  0  0  0  0
    8.2914   -1.3747   22.8681 C   0  0  0  0  0  0  0  0  0  0  0  0
    8.6282   -1.4713   23.8918 H   0  0  0  0  0  0  0  0  0  0  0  0
    8.6046   -2.2882   21.9542 N   0  0  0  0  0  0  0  0  0  0  0  0
    8.0496   -1.8256   20.8238 N   0  0  0  0  0  0  0  0  0  0  0  0
    8.1294   -2.3668   19.9756 H   0  0  0  0  0  0  0  0  0  0  0  0
    5.4332    0.6620   20.1374 C   0  0  0  0  0  0  0  0  0  0  0  0
    5.0187    0.6272   21.1478 H   0  0  0  0  0  0  0  0  0  0  0  0
    4.7932    1.3189   19.0869 C   0  0  0  0  0  0  0  0  0  0  0  0
    3.8624    1.8500   19.2399 H   0  0  0  0  0  0  0  0  0  0  0  0
  1  2  1  0
  2  3  2  0
  3  4  1  0
  4  5  1  0
  4  6  2  0
  6  7  1  0
  7  8  2  0
  8  9  1  0
  9 10  1  0
  9 11  1  0
 11 12  2  0
 12 13  1  0
 12 14  1  0
 14 15  1  0
 14 16  2  0
 16 17  1  0
 16 18  1  0
 18 19  1  0
 19 20  2  0
 19 21  1  0
 21 22  1  0
 21 23  1  0
 21 24  1  0
 18 25  2  0
 25 26  1  0
  8 27  1  0
 27 28  1  0
 27 29  2  0
 29 30  1  0
 30 31  1  0
  6 32  1  0
 32 33  1  0
 32 34  2  0
 34 35  1  0
 34  2  1  0
 30  7  1  0
 25 11  1  0
M  END
>  <cnnaffinity>  (1) 
-5.35717

>  <filename>  (1) 
CC(=O)c1cccc(Nc2cn[nH]c2-c2cccnc2)c1

$$$$
