
     RDKit          3D

 29 30  0  0  0  0  0  0  0  0999 V2000
    7.3655    0.9048   22.1507 H   0  0  0  0  0  0  0  0  0  0  0  0
    7.3542   -0.1692   21.9913 C   0  0  0  0  0  0  0  0  0  0  0  0
    6.8712   -0.6934   20.8551 C   0  0  0  0  0  0  0  0  0  0  0  0
    6.3798    0.2042   19.7704 C   0  0  0  0  0  0  0  0  0  0  0  0
    6.9610    0.0941   18.4946 C   0  0  0  0  0  0  0  0  0  0  0  0
    7.7947   -0.5901   18.3444 H   0  0  0  0  0  0  0  0  0  0  0  0
    6.5616    0.7695   17.4148 N   0  0  0  0  0  0  0  0  0  0  0  0
    5.5131    1.5930   17.5640 C   0  0  0  0  0  0  0  0  0  0  0  0
    5.1884    2.1200   16.6699 H   0  0  0  0  0  0  0  0  0  0  0  0
    4.8539    1.7767   18.7824 C   0  0  0  0  0  0  0  0  0  0  0  0
    4.0084    2.4489   18.8297 H   0  0  0  0  0  0  0  0  0  0  0  0
    5.3038    1.0884   19.9091 C   0  0  0  0  0  0  0  0  0  0  0  0
    4.8164    1.2030   20.8751 H   0  0  0  0  0  0  0  0  0  0  0  0
    6.8487   -2.1691   20.5544 C   0  0  0  0  0  0  0  0  0  0  0  0
    7.8557   -2.5802   20.6734 H   0  0  0  0  0  0  0  0  0  0  0  0
    6.2251   -2.7184   21.2707 H   0  0  0  0  0  0  0  0  0  0  0  0
    6.4751   -2.3593   19.5431 H   0  0  0  0  0  0  0  0  0  0  0  0
    7.9715   -0.8708   23.1201 C   0  0  0  0  0  0  0  0  0  0  0  0
    8.0453   -2.2088   23.1511 N   0  0  0  0  0  0  0  0  0  0  0  0
    8.6294   -2.7482   24.2113 C   0  0  0  0  0  0  0  0  0  0  0  0
    8.6955   -3.8332   24.2297 H   0  0  0  0  0  0  0  0  0  0  0  0
    9.1346   -2.0005   25.2697 C   0  0  0  0  0  0  0  0  0  0  0  0
    9.5970   -2.4926   26.1082 H   0  0  0  0  0  0  0  0  0  0  0  0
    8.9826   -0.6114   25.1765 C   0  0  0  0  0  0  0  0  0  0  0  0
    9.4490    0.3244   26.3323 C   0  0  0  0  0  0  0  0  0  0  0  0
   10.2850    1.2810   25.8989 F   0  0  0  0  0  0  0  0  0  0  0  0
   10.1123   -0.3704   27.2764 F   0  0  0  0  0  0  0  0  0  0  0  0
    8.4123    0.9266   26.9385 F   0  0  0  0  0  0  0  0  0  0  0  0
    8.4227   -0.0606   24.0933 N   0  0  0  0  0  0  0  0  0  0  0  0
  1  2  1  0
  2  3  2  3
  3  4  1  0
  4  5  2  0
  5  6  1  0
  5  7  1  0
  7  8  2  0
  8  9  1  0
  8 10  1  0
 10 11  1  0
 10 12  2  0
 12 13  1  0
  3 14  1  0
 14 15  1  0
 14 16  1  0
 14 17  1  0
  2 18  1  0
 18 19  2  0
 19 20  1  0
 20 21  1  0
 20 22  2  0
 22 23  1  0
 22 24  1  0
 24 25  1  0
 25 26  1  0
 25 27  1  0
 25 28  1  0
 24 29  2  0
 12  4  1  0
 29 18  1  0
M  END
>  <cnnaffinity>  (1) 
-5.04862

>  <filename>  (1) 
CC(=Cc1nccc(C(F)(F)F)n1)c1cccnc1

$$$$
