
     RDKit          3D

 38 40  0  0  0  0  0  0  0  0999 V2000
    5.0506    1.9668   16.8933 H   0  0  0  0  0  0  0  0  0  0  0  0
    5.4527    1.3735   17.7108 C   0  0  0  0  0  0  0  0  0  0  0  0
    6.6043    0.7292   17.4610 N   0  0  0  0  0  0  0  0  0  0  0  0
    7.1533    0.0350   18.4613 C   0  0  0  0  0  0  0  0  0  0  0  0
    8.0899   -0.4807   18.2504 H   0  0  0  0  0  0  0  0  0  0  0  0
    6.5823   -0.0565   19.7457 C   0  0  0  0  0  0  0  0  0  0  0  0
    7.2994   -0.6779   20.8317 N   0  0  0  0  0  0  0  0  0  0  0  0
    8.5449   -0.1615   21.1708 C   0  0  0  0  0  0  0  0  0  0  0  0
    8.8573    0.7276   20.6200 H   0  0  0  0  0  0  0  0  0  0  0  0
    9.3335   -0.7356   22.1061 C   0  0  0  0  0  0  0  0  0  0  0  0
   10.7185   -0.2722   22.3399 C   0  0  0  0  0  0  0  0  0  0  0  0
   11.8102   -1.1039   22.0344 C   0  0  0  0  0  0  0  0  0  0  0  0
   11.6140   -2.1247   21.7211 H   0  0  0  0  0  0  0  0  0  0  0  0
   13.1162   -0.6283   22.1570 C   0  0  0  0  0  0  0  0  0  0  0  0
   13.9430   -1.2943   21.9172 H   0  0  0  0  0  0  0  0  0  0  0  0
   13.3585    0.6849   22.5788 C   0  0  0  0  0  0  0  0  0  0  0  0
   14.3621    1.0841   22.6617 H   0  0  0  0  0  0  0  0  0  0  0  0
   12.2737    1.5100   22.9030 C   0  0  0  0  0  0  0  0  0  0  0  0
   12.4287    2.8389   23.3386 N   0  0  0  0  0  0  0  0  0  0  0  0
   11.6174    3.2254   23.7836 H   0  0  0  0  0  0  0  0  0  0  0  0
   13.4425    3.7173   23.0702 C   0  0  0  0  0  0  0  0  0  0  0  0
   14.4534    3.4310   22.4621 O   0  0  0  0  0  0  0  0  0  0  0  0
   13.2078    5.1182   23.5823 C   0  0  0  0  0  0  0  0  0  0  0  0
   14.1870    5.5756   23.6159 H   0  0  0  0  0  0  0  0  0  0  0  0
   12.6054    5.7014   22.8788 H   0  0  0  0  0  0  0  0  0  0  0  0
   12.7523    5.1458   24.5743 H   0  0  0  0  0  0  0  0  0  0  0  0
   10.9658    1.0186   22.8226 C   0  0  0  0  0  0  0  0  0  0  0  0
   10.1445    1.6295   23.1863 H   0  0  0  0  0  0  0  0  0  0  0  0
    8.8246   -1.9083   22.8425 C   0  0  0  0  0  0  0  0  0  0  0  0
    9.4150   -2.6356   23.6070 O   0  0  0  0  0  0  0  0  0  0  0  0
    7.4888   -2.1684   22.6120 N   0  0  0  0  0  0  0  0  0  0  0  0
    7.1505   -3.0018   23.0524 H   0  0  0  0  0  0  0  0  0  0  0  0
    6.7463   -1.7670   21.5467 C   0  0  0  0  0  0  0  0  0  0  0  0
    5.7140   -2.3335   21.2729 O   0  0  0  0  0  0  0  0  0  0  0  0
    5.3452    0.5497   19.9747 C   0  0  0  0  0  0  0  0  0  0  0  0
    4.8545    0.4361   20.9420 H   0  0  0  0  0  0  0  0  0  0  0  0
    4.7864    1.3056   18.9388 C   0  0  0  0  0  0  0  0  0  0  0  0
    3.8642    1.8579   19.0767 H   0  0  0  0  0  0  0  0  0  0  0  0
  1  2  1  0
  2  3  2  0
  3  4  1  0
  4  5  1  0
  4  6  2  0
  6  7  1  0
  7  8  1  0
  8  9  1  0
  8 10  2  0
 10 11  1  0
 11 12  2  0
 12 13  1  0
 12 14  1  0
 14 15  1  0
 14 16  2  0
 16 17  1  0
 16 18  1  0
 18 19  1  0
 19 20  1  0
 19 21  1  0
 21 22  2  0
 21 23  1  0
 23 24  1  0
 23 25  1  0
 23 26  1  0
 18 27  2  0
 27 28  1  0
 10 29  1  0
 29 30  2  0
 29 31  1  0
 31 32  1  0
 31 33  1  0
 33 34  2  0
  6 35  1  0
 35 36  1  0
 35 37  2  0
 37 38  1  0
 37  2  1  0
 33  7  1  0
 27 11  1  0
M  END
>  <cnnaffinity>  (1) 
-6.08922

>  <filename>  (1) 
CC(=O)Nc1cccc(-c2cn(-c3cccnc3)c(=O)[nH]c2=O)c1

$$$$
