
     RDKit          3D

 37 39  0  0  0  0  0  0  0  0999 V2000
    4.9391    1.8383   16.9523 H   0  0  0  0  0  0  0  0  0  0  0  0
    5.4080    1.3178   17.7870 C   0  0  0  0  0  0  0  0  0  0  0  0
    6.5732    0.7027   17.5336 N   0  0  0  0  0  0  0  0  0  0  0  0
    7.1699    0.0656   18.5503 C   0  0  0  0  0  0  0  0  0  0  0  0
    8.1264   -0.4002   18.3075 H   0  0  0  0  0  0  0  0  0  0  0  0
    6.6468   -0.0092   19.8596 C   0  0  0  0  0  0  0  0  0  0  0  0
    7.3812   -0.6973   21.0120 C   0  0  2  0  0  0  0  0  0  0  0  0
    8.1891   -1.3032   20.5801 H   0  0  0  0  0  0  0  0  0  0  0  0
    6.5273   -1.6975   21.8111 C   0  0  0  0  0  0  0  0  0  0  0  0
    5.8426   -2.6030   21.3837 O   0  0  0  0  0  0  0  0  0  0  0  0
    6.6912   -1.4287   23.1340 N   0  0  0  0  0  0  0  0  0  0  0  0
    5.9992   -1.8493   23.7379 H   0  0  0  0  0  0  0  0  0  0  0  0
    7.4584   -0.2470   23.4622 C   0  0  0  0  0  0  0  0  0  0  0  0
    8.3011   -0.5034   24.1248 H   0  0  0  0  0  0  0  0  0  0  0  0
    6.8468    0.5008   23.9921 H   0  0  0  0  0  0  0  0  0  0  0  0
    7.9421    0.2920   22.0832 C   0  0  1  0  0  0  0  0  0  0  0  0
    7.4957    1.2802   21.9290 H   0  0  0  0  0  0  0  0  0  0  0  0
    9.4510    0.4782   21.9908 C   0  0  0  0  0  0  0  0  0  0  0  0
   10.0325    1.7249   21.6855 C   0  0  0  0  0  0  0  0  0  0  0  0
    9.3981    2.5861   21.4886 H   0  0  0  0  0  0  0  0  0  0  0  0
   11.4220    1.8802   21.6538 C   0  0  0  0  0  0  0  0  0  0  0  0
   11.8715    2.8444   21.4287 H   0  0  0  0  0  0  0  0  0  0  0  0
   12.2476    0.7869   21.9063 C   0  0  0  0  0  0  0  0  0  0  0  0
   13.3276    0.9261   21.9199 H   0  0  0  0  0  0  0  0  0  0  0  0
   11.6883   -0.4824   22.1093 C   0  0  0  0  0  0  0  0  0  0  0  0
   12.5290   -1.7083   22.2390 C   0  0  0  0  0  0  0  0  0  0  0  0
   12.0261   -2.7753   22.5352 O   0  0  0  0  0  0  0  0  0  0  0  0
   14.0215   -1.5735   22.0554 C   0  0  0  0  0  0  0  0  0  0  0  0
   14.4270   -2.5817   22.0626 H   0  0  0  0  0  0  0  0  0  0  0  0
   14.2806   -1.0837   21.1139 H   0  0  0  0  0  0  0  0  0  0  0  0
   14.4223   -0.9709   22.8822 H   0  0  0  0  0  0  0  0  0  0  0  0
   10.2929   -0.6174   22.1987 C   0  0  0  0  0  0  0  0  0  0  0  0
    9.8841   -1.5962   22.4538 H   0  0  0  0  0  0  0  0  0  0  0  0
    5.4300    0.6388   20.0947 C   0  0  0  0  0  0  0  0  0  0  0  0
    4.9958    0.6388   21.0954 H   0  0  0  0  0  0  0  0  0  0  0  0
    4.7995    1.3112   19.0443 C   0  0  0  0  0  0  0  0  0  0  0  0
    3.8718    1.8428   19.1937 H   0  0  0  0  0  0  0  0  0  0  0  0
  1  2  1  0
  2  3  2  0
  3  4  1  0
  4  5  1  0
  4  6  2  0
  6  7  1  0
  7  8  1  6
  7  9  1  0
  9 10  2  0
  9 11  1  0
 11 12  1  0
 11 13  1  0
 13 14  1  0
 13 15  1  0
 13 16  1  0
 16 17  1  6
 16 18  1  0
 18 19  2  0
 19 20  1  0
 19 21  1  0
 21 22  1  0
 21 23  2  0
 23 24  1  0
 23 25  1  0
 25 26  1  0
 26 27  2  0
 26 28  1  0
 28 29  1  0
 28 30  1  0
 28 31  1  0
 25 32  2  0
 32 33  1  0
  6 34  1  0
 34 35  1  0
 34 36  2  0
 36 37  1  0
 36  2  1  0
 16  7  1  0
 32 18  1  0
M  END
>  <cnnaffinity>  (1) 
-5.76163

>  <filename>  (1) 
CC(=O)c1cccc([C@@H]2CNC(=O)[C@H]2c2cccnc2)c1

$$$$
