
     RDKit          3D

 32 33  0  0  0  0  0  0  0  0999 V2000
    4.9236    1.7752   16.9976 H   0  0  0  0  0  0  0  0  0  0  0  0
    5.4108    1.2885   17.8418 C   0  0  0  0  0  0  0  0  0  0  0  0
    6.5716    0.6661   17.5923 N   0  0  0  0  0  0  0  0  0  0  0  0
    7.1745    0.0612   18.6210 C   0  0  0  0  0  0  0  0  0  0  0  0
    8.1176   -0.4254   18.3816 H   0  0  0  0  0  0  0  0  0  0  0  0
    6.6580    0.0108   19.9221 C   0  0  0  0  0  0  0  0  0  0  0  0
    7.3647   -0.7403   20.9955 C   0  0  0  0  0  0  0  0  0  0  0  0
    6.6432   -1.3739   21.8359 N   0  0  0  0  0  0  0  0  0  0  0  0
    7.1411   -2.1063   22.9338 C   0  0  0  0  0  0  0  0  0  0  0  0
    6.8921   -3.4861   22.9900 C   0  0  0  0  0  0  0  0  0  0  0  0
    6.3620   -3.9605   22.1693 H   0  0  0  0  0  0  0  0  0  0  0  0
    7.3109   -4.2260   24.0974 C   0  0  0  0  0  0  0  0  0  0  0  0
    7.1255   -5.2955   24.1456 H   0  0  0  0  0  0  0  0  0  0  0  0
    7.9733   -3.5955   25.1572 C   0  0  0  0  0  0  0  0  0  0  0  0
    8.2915   -4.1753   26.0225 H   0  0  0  0  0  0  0  0  0  0  0  0
    8.2123   -2.2122   25.1267 C   0  0  0  0  0  0  0  0  0  0  0  0
    8.8495   -1.5102   26.3074 C   0  0  0  0  0  0  0  0  0  0  0  0
    9.4265   -0.6456   25.9612 H   0  0  0  0  0  0  0  0  0  0  0  0
    9.5619   -2.1779   26.7988 H   0  0  0  0  0  0  0  0  0  0  0  0
    7.8828   -1.0532   27.3133 N   0  0  0  0  0  0  0  0  0  0  0  0
    7.2059   -0.4660   26.8298 H   0  0  0  0  0  0  0  0  0  0  0  0
    7.3304   -1.8633   27.5866 H   0  0  0  0  0  0  0  0  0  0  0  0
    7.7652   -1.4738   24.0164 C   0  0  0  0  0  0  0  0  0  0  0  0
    7.8830   -0.3940   23.9708 H   0  0  0  0  0  0  0  0  0  0  0  0
    8.8744   -0.7629   20.9788 C   0  0  0  0  0  0  0  0  0  0  0  0
    9.2760   -0.6939   21.9913 H   0  0  0  0  0  0  0  0  0  0  0  0
    9.2868    0.0555   20.3860 H   0  0  0  0  0  0  0  0  0  0  0  0
    9.2043   -1.7158   20.5602 H   0  0  0  0  0  0  0  0  0  0  0  0
    5.4327    0.6545   20.1618 C   0  0  0  0  0  0  0  0  0  0  0  0
    5.0001    0.6205   21.1646 H   0  0  0  0  0  0  0  0  0  0  0  0
    4.8086    1.3141   19.1077 C   0  0  0  0  0  0  0  0  0  0  0  0
    3.8726    1.8455   19.2567 H   0  0  0  0  0  0  0  0  0  0  0  0
  1  2  1  0
  2  3  2  0
  3  4  1  0
  4  5  1  0
  4  6  2  0
  6  7  1  0
  7  8  2  3
  8  9  1  0
  9 10  2  0
 10 11  1  0
 10 12  1  0
 12 13  1  0
 12 14  2  0
 14 15  1  0
 14 16  1  0
 16 17  1  0
 17 18  1  0
 17 19  1  0
 17 20  1  0
 20 21  1  0
 20 22  1  0
 16 23  2  0
 23 24  1  0
  7 25  1  0
 25 26  1  0
 25 27  1  0
 25 28  1  0
  6 29  1  0
 29 30  1  0
 29 31  2  0
 31 32  1  0
 31  2  1  0
 23  9  1  0
M  END
>  <cnnaffinity>  (1) 
-4.49004

>  <filename>  (1) 
CC(=Nc1cccc(CN)c1)c1cccnc1

$$$$
