
     RDKit          3D

 28 29  0  0  0  0  0  0  0  0999 V2000
    4.9178    1.7913   16.9869 H   0  0  0  0  0  0  0  0  0  0  0  0
    5.3972    1.2994   17.8296 C   0  0  0  0  0  0  0  0  0  0  0  0
    6.5614    0.6845   17.5667 N   0  0  0  0  0  0  0  0  0  0  0  0
    7.1841    0.0789   18.5841 C   0  0  0  0  0  0  0  0  0  0  0  0
    8.1243   -0.4234   18.3560 H   0  0  0  0  0  0  0  0  0  0  0  0
    6.6675    0.0261   19.8936 C   0  0  0  0  0  0  0  0  0  0  0  0
    7.3623   -0.6769   20.9418 N   0  0  0  0  0  0  0  0  0  0  0  0
    8.6560   -0.2742   21.2778 C   0  0  0  0  0  0  0  0  0  0  0  0
    9.0641    0.5641   20.7193 H   0  0  0  0  0  0  0  0  0  0  0  0
    9.3742   -0.8788   22.2540 C   0  0  0  0  0  0  0  0  0  0  0  0
   10.6959   -0.4338   22.5507 N   0  0  0  0  0  0  0  0  0  0  0  0
   11.3316   -1.0999   22.9694 H   0  0  0  0  0  0  0  0  0  0  0  0
   11.1045    0.8890   22.5880 C   0  0  0  0  0  0  0  0  0  0  0  0
   10.3285    1.8129   22.4597 O   0  0  0  0  0  0  0  0  0  0  0  0
   12.5861    1.1001   22.7935 C   0  0  0  0  0  0  0  0  0  0  0  0
   12.8425    1.0758   23.8575 H   0  0  0  0  0  0  0  0  0  0  0  0
   13.2034    0.3679   22.2640 H   0  0  0  0  0  0  0  0  0  0  0  0
   12.8047    2.1000   22.4165 H   0  0  0  0  0  0  0  0  0  0  0  0
    8.7498   -2.0309   22.9876 C   0  0  0  0  0  0  0  0  0  0  0  0
    9.2284   -2.7129   23.8694 O   0  0  0  0  0  0  0  0  0  0  0  0
    7.4793   -2.3265   22.5800 N   0  0  0  0  0  0  0  0  0  0  0  0
    7.0356   -3.0925   23.0448 H   0  0  0  0  0  0  0  0  0  0  0  0
    6.7310   -1.7551   21.6061 C   0  0  0  0  0  0  0  0  0  0  0  0
    5.6362   -2.2024   21.3604 O   0  0  0  0  0  0  0  0  0  0  0  0
    5.4473    0.6551   20.1547 C   0  0  0  0  0  0  0  0  0  0  0  0
    5.0206    0.6098   21.1564 H   0  0  0  0  0  0  0  0  0  0  0  0
    4.8111    1.3159   19.0999 C   0  0  0  0  0  0  0  0  0  0  0  0
    3.8768    1.8408   19.2522 H   0  0  0  0  0  0  0  0  0  0  0  0
  1  2  1  0
  2  3  2  0
  3  4  1  0
  4  5  1  0
  4  6  2  0
  6  7  1  0
  7  8  1  0
  8  9  1  0
  8 10  2  0
 10 11  1  0
 11 12  1  0
 11 13  1  0
 13 14  2  0
 13 15  1  0
 15 16  1  0
 15 17  1  0
 15 18  1  0
 10 19  1  0
 19 20  2  0
 19 21  1  0
 21 22  1  0
 21 23  1  0
 23 24  2  0
  6 25  1  0
 25 26  1  0
 25 27  2  0
 27 28  1  0
 27  2  1  0
 23  7  1  0
M  END
>  <cnnaffinity>  (1) 
-5.17393

>  <filename>  (1) 
CC(=O)Nc1cn(-c2cccnc2)c(=O)[nH]c1=O

$$$$
