
     RDKit          3D

 31 32  0  0  0  0  0  0  0  0999 V2000
    5.6451   -1.6422   21.6507 H   0  0  0  0  0  0  0  0  0  0  0  0
    6.7273   -1.5325   21.7763 C   0  0  0  0  0  0  0  0  0  0  0  0
    7.3951   -0.7015   20.9689 C   0  0  0  0  0  0  0  0  0  0  0  0
    6.6600    0.0107   19.8995 C   0  0  0  0  0  0  0  0  0  0  0  0
    7.1785    0.0682   18.5973 C   0  0  0  0  0  0  0  0  0  0  0  0
    8.1271   -0.4334   18.3833 H   0  0  0  0  0  0  0  0  0  0  0  0
    6.5675    0.6811   17.5790 N   0  0  0  0  0  0  0  0  0  0  0  0
    5.4015    1.2914   17.8434 C   0  0  0  0  0  0  0  0  0  0  0  0
    4.9055    1.7724   17.0053 H   0  0  0  0  0  0  0  0  0  0  0  0
    4.8046    1.3153   19.1103 C   0  0  0  0  0  0  0  0  0  0  0  0
    3.8691    1.8467   19.2672 H   0  0  0  0  0  0  0  0  0  0  0  0
    5.4363    0.6485   20.1540 C   0  0  0  0  0  0  0  0  0  0  0  0
    5.0125    0.6292   21.1570 H   0  0  0  0  0  0  0  0  0  0  0  0
    8.8725   -0.4307   21.0993 C   0  0  0  0  0  0  0  0  0  0  0  0
    9.1680   -0.4568   22.1528 H   0  0  0  0  0  0  0  0  0  0  0  0
    9.1282    0.5517   20.6934 H   0  0  0  0  0  0  0  0  0  0  0  0
    9.4422   -1.1915   20.5548 H   0  0  0  0  0  0  0  0  0  0  0  0
    7.3304   -2.3504   22.8416 C   0  0  0  0  0  0  0  0  0  0  0  0
    8.4395   -3.1796   22.6025 C   0  0  0  0  0  0  0  0  0  0  0  0
    8.8596   -3.2440   21.6029 H   0  0  0  0  0  0  0  0  0  0  0  0
    8.9707   -3.9526   23.6303 C   0  0  0  0  0  0  0  0  0  0  0  0
    9.8161   -4.5973   23.4362 H   0  0  0  0  0  0  0  0  0  0  0  0
    8.4182   -3.9066   24.9092 C   0  0  0  0  0  0  0  0  0  0  0  0
    8.8395   -4.5271   25.6942 H   0  0  0  0  0  0  0  0  0  0  0  0
    7.3177   -3.0729   25.1607 C   0  0  0  0  0  0  0  0  0  0  0  0
    6.6755   -3.0655   26.5222 C   0  0  0  0  0  0  0  0  0  0  0  0
    6.1085   -1.8809   26.8167 F   0  0  0  0  0  0  0  0  0  0  0  0
    7.5606   -3.3341   27.4975 F   0  0  0  0  0  0  0  0  0  0  0  0
    5.7051   -3.9971   26.6012 F   0  0  0  0  0  0  0  0  0  0  0  0
    6.7620   -2.3177   24.1233 C   0  0  0  0  0  0  0  0  0  0  0  0
    5.8879   -1.6940   24.2972 H   0  0  0  0  0  0  0  0  0  0  0  0
  1  2  1  0
  2  3  2  3
  3  4  1  0
  4  5  2  0
  5  6  1  0
  5  7  1  0
  7  8  2  0
  8  9  1  0
  8 10  1  0
 10 11  1  0
 10 12  2  0
 12 13  1  0
  3 14  1  0
 14 15  1  0
 14 16  1  0
 14 17  1  0
  2 18  1  0
 18 19  2  0
 19 20  1  0
 19 21  1  0
 21 22  1  0
 21 23  2  0
 23 24  1  0
 23 25  1  0
 25 26  1  0
 26 27  1  0
 26 28  1  0
 26 29  1  0
 25 30  2  0
 30 31  1  0
 12  4  1  0
 30 18  1  0
M  END
>  <cnnaffinity>  (1) 
-5.18536

>  <filename>  (1) 
CC(=Cc1cccc(C(F)(F)F)c1)c1cccnc1

$$$$
