
     RDKit          3D

 36 38  0  0  0  0  0  0  0  0999 V2000
    4.9570    1.8178   16.9657 H   0  0  0  0  0  0  0  0  0  0  0  0
    5.3967    1.2893   17.8075 C   0  0  0  0  0  0  0  0  0  0  0  0
    6.5398    0.6301   17.5631 N   0  0  0  0  0  0  0  0  0  0  0  0
    7.1228   -0.0001   18.5864 C   0  0  0  0  0  0  0  0  0  0  0  0
    8.0558   -0.5164   18.3666 H   0  0  0  0  0  0  0  0  0  0  0  0
    6.6233    0.0159   19.8998 C   0  0  0  0  0  0  0  0  0  0  0  0
    7.3993   -0.6344   20.9520 C   0  0  0  0  0  0  0  0  0  0  0  0
    7.9555   -1.8875   20.7920 N   0  0  0  0  0  0  0  0  0  0  0  0
    8.4865   -2.1413   21.9518 C   0  0  0  0  0  0  0  0  0  0  0  0
    8.4164   -1.1009   22.8250 N   0  0  0  0  0  0  0  0  0  0  0  0
    7.6834   -0.1210   22.2097 C   0  0  0  0  0  0  0  0  0  0  0  0
    7.3411    1.1400   22.9123 C   0  0  0  0  0  0  0  0  0  0  0  0
    6.9877    1.8734   22.1839 H   0  0  0  0  0  0  0  0  0  0  0  0
    8.2404    1.5724   23.3726 H   0  0  0  0  0  0  0  0  0  0  0  0
    6.2539    0.9968   23.9967 C   0  0  0  0  0  0  0  0  0  0  0  0
    6.5787    0.3299   24.8013 H   0  0  0  0  0  0  0  0  0  0  0  0
    5.3556    0.5564   23.5560 H   0  0  0  0  0  0  0  0  0  0  0  0
    5.8728    2.2804   24.5547 N   0  0  0  0  0  0  0  0  0  0  0  0
    6.2621    2.5971   25.4266 H   0  0  0  0  0  0  0  0  0  0  0  0
    5.1234    3.1664   23.8429 C   0  0  0  0  0  0  0  0  0  0  0  0
    4.6212    2.8809   22.7648 O   0  0  0  0  0  0  0  0  0  0  0  0
    4.9498    4.4960   24.5343 C   0  0  0  0  0  0  0  0  0  0  0  0
    4.5738    5.2265   23.8173 H   0  0  0  0  0  0  0  0  0  0  0  0
    4.2251    4.3785   25.3479 H   0  0  0  0  0  0  0  0  0  0  0  0
    5.9006    4.8432   24.9544 H   0  0  0  0  0  0  0  0  0  0  0  0
    9.0564   -1.2491   24.1148 C   0  0  0  0  0  0  0  0  0  0  0  0
    8.3133   -1.4766   24.8904 H   0  0  0  0  0  0  0  0  0  0  0  0
    9.5850   -0.3312   24.3946 H   0  0  0  0  0  0  0  0  0  0  0  0
   10.0386   -2.4131   23.9046 C   0  0  0  0  0  0  0  0  0  0  0  0
   10.2862   -2.9452   24.8242 H   0  0  0  0  0  0  0  0  0  0  0  0
   10.9571   -2.0633   23.4260 H   0  0  0  0  0  0  0  0  0  0  0  0
    9.2186   -3.5422   22.7247 S   0  0  0  0  0  0  0  0  0  0  0  0
    5.4150    0.6969   20.1345 C   0  0  0  0  0  0  0  0  0  0  0  0
    4.9782    0.7611   21.1339 H   0  0  0  0  0  0  0  0  0  0  0  0
    4.7863    1.3274   19.0652 C   0  0  0  0  0  0  0  0  0  0  0  0
    3.8620    1.8726   19.2065 H   0  0  0  0  0  0  0  0  0  0  0  0
  1  2  1  0
  2  3  2  0
  3  4  1  0
  4  5  1  0
  4  6  2  0
  6  7  1  0
  7  8  1  0
  8  9  2  0
  9 10  1  0
 10 11  1  0
 11 12  1  0
 12 13  1  0
 12 14  1  0
 12 15  1  0
 15 16  1  0
 15 17  1  0
 15 18  1  0
 18 19  1  0
 18 20  1  0
 20 21  2  0
 20 22  1  0
 22 23  1  0
 22 24  1  0
 22 25  1  0
 10 26  1  0
 26 27  1  0
 26 28  1  0
 26 29  1  0
 29 30  1  0
 29 31  1  0
 29 32  1  0
  6 33  1  0
 33 34  1  0
 33 35  2  0
 35 36  1  0
 35  2  1  0
 11  7  2  0
 32  9  1  0
M  END
>  <cnnaffinity>  (1) 
-5.43195

>  <filename>  (1) 
CC(=O)NCCc1c(-c2cccnc2)nc2n1CCS2

$$$$
