
     RDKit          3D

 37 39  0  0  0  0  0  0  0  0999 V2000
    4.9331    1.8030   16.7370 H   0  0  0  0  0  0  0  0  0  0  0  0
    5.3204    1.4018   17.6715 C   0  0  0  0  0  0  0  0  0  0  0  0
    6.5106    0.7902   17.6011 N   0  0  0  0  0  0  0  0  0  0  0  0
    7.0260    0.3103   18.7394 C   0  0  0  0  0  0  0  0  0  0  0  0
    8.0152   -0.1392   18.6438 H   0  0  0  0  0  0  0  0  0  0  0  0
    6.3963    0.3805   20.0001 C   0  0  0  0  0  0  0  0  0  0  0  0
    7.0792   -0.2217   21.2256 C   0  0  2  0  0  0  0  0  0  0  0  0
    6.4514   -0.0306   22.1036 H   0  0  0  0  0  0  0  0  0  0  0  0
    8.5049    0.3797   21.4518 C   0  0  0  0  0  0  0  0  0  0  0  0
    8.7235    0.5376   22.5244 H   0  0  0  0  0  0  0  0  0  0  0  0
    8.6221    1.3481   20.9471 H   0  0  0  0  0  0  0  0  0  0  0  0
    9.3838   -0.6238   20.8687 N   0  0  0  0  0  0  0  0  0  0  0  0
   10.3912   -0.6285   20.9281 H   0  0  0  0  0  0  0  0  0  0  0  0
    8.8567   -1.8747   20.9342 C   0  0  0  0  0  0  0  0  0  0  0  0
    9.5182   -2.8868   20.8803 O   0  0  0  0  0  0  0  0  0  0  0  0
    7.3457   -1.7552   21.0424 C   0  0  1  0  0  0  0  0  0  0  0  0
    6.9842   -2.0835   20.0580 H   0  0  0  0  0  0  0  0  0  0  0  0
    6.7653   -2.7199   22.0628 C   0  0  0  0  0  0  0  0  0  0  0  0
    7.2837   -2.8518   23.3609 C   0  0  0  0  0  0  0  0  0  0  0  0
    8.1220   -2.2433   23.6914 H   0  0  0  0  0  0  0  0  0  0  0  0
    6.7517   -3.7935   24.2452 C   0  0  0  0  0  0  0  0  0  0  0  0
    7.1749   -3.8840   25.2440 H   0  0  0  0  0  0  0  0  0  0  0  0
    5.6755   -4.6179   23.8655 C   0  0  0  0  0  0  0  0  0  0  0  0
    5.0071   -5.5664   24.8352 C   0  0  0  0  0  0  0  0  0  0  0  0
    4.0812   -6.2765   24.4915 O   0  0  0  0  0  0  0  0  0  0  0  0
    5.5140   -5.6150   26.2622 C   0  0  0  0  0  0  0  0  0  0  0  0
    5.4913   -4.6205   26.7184 H   0  0  0  0  0  0  0  0  0  0  0  0
    6.5506   -5.9686   26.2794 H   0  0  0  0  0  0  0  0  0  0  0  0
    4.8846   -6.2924   26.8403 H   0  0  0  0  0  0  0  0  0  0  0  0
    5.1825   -4.5101   22.5486 C   0  0  0  0  0  0  0  0  0  0  0  0
    4.3755   -5.1635   22.2251 H   0  0  0  0  0  0  0  0  0  0  0  0
    5.7169   -3.5686   21.6754 C   0  0  0  0  0  0  0  0  0  0  0  0
    5.3286   -3.4845   20.6639 H   0  0  0  0  0  0  0  0  0  0  0  0
    5.1473    1.0180   20.0431 C   0  0  0  0  0  0  0  0  0  0  0  0
    4.6179    1.1377   20.9890 H   0  0  0  0  0  0  0  0  0  0  0  0
    4.6036    1.5296   18.8616 C   0  0  0  0  0  0  0  0  0  0  0  0
    3.6558    2.0489   18.8551 H   0  0  0  0  0  0  0  0  0  0  0  0
  1  2  1  0
  2  3  2  0
  3  4  1  0
  4  5  1  0
  4  6  2  0
  6  7  1  0
  7  8  1  1
  7  9  1  0
  9 10  1  0
  9 11  1  0
  9 12  1  0
 12 13  1  0
 12 14  1  0
 14 15  2  0
 14 16  1  0
 16 17  1  6
 16 18  1  0
 18 19  2  0
 19 20  1  0
 19 21  1  0
 21 22  1  0
 21 23  2  0
 23 24  1  0
 24 25  2  0
 24 26  1  0
 26 27  1  0
 26 28  1  0
 26 29  1  0
 23 30  1  0
 30 31  1  0
 30 32  2  0
 32 33  1  0
  6 34  1  0
 34 35  1  0
 34 36  2  0
 36 37  1  0
 36  2  1  0
 16  7  1  0
 32 18  1  0
M  END
>  <cnnaffinity>  (1) 
-5.53211

>  <filename>  (1) 
CC(=O)c1ccc([C@@H]2C(=O)NC[C@H]2c2cccnc2)cc1

$$$$
