
     RDKit          3D

 36 38  0  0  0  0  0  0  0  0999 V2000
    4.9373    1.8763   16.7911 H   0  0  0  0  0  0  0  0  0  0  0  0
    5.3921    1.3630   17.6370 C   0  0  0  0  0  0  0  0  0  0  0  0
    6.5559    0.7378   17.3946 N   0  0  0  0  0  0  0  0  0  0  0  0
    7.1481    0.1306   18.4322 C   0  0  0  0  0  0  0  0  0  0  0  0
    8.0904   -0.3654   18.2108 H   0  0  0  0  0  0  0  0  0  0  0  0
    6.6357    0.1055   19.7452 C   0  0  0  0  0  0  0  0  0  0  0  0
    7.3664   -0.5069   20.8672 C   0  0  0  0  0  0  0  0  0  0  0  0
    8.5273   -1.3520   20.8467 C   0  0  0  0  0  0  0  0  0  0  0  0
    9.0872   -1.6665   19.9776 H   0  0  0  0  0  0  0  0  0  0  0  0
    8.8342   -1.6722   22.1392 C   0  0  0  0  0  0  0  0  0  0  0  0
    9.5994   -2.3009   22.5947 H   0  0  0  0  0  0  0  0  0  0  0  0
    7.9358   -1.0280   22.9725 N   0  0  0  0  0  0  0  0  0  0  0  0
    8.0213   -1.0384   24.3946 C   0  0  0  0  0  0  0  0  0  0  0  0
    7.8895    0.1148   25.1786 C   0  0  0  0  0  0  0  0  0  0  0  0
    7.5751    1.0457   24.7103 H   0  0  0  0  0  0  0  0  0  0  0  0
    8.1874    0.0383   26.5446 C   0  0  0  0  0  0  0  0  0  0  0  0
    8.0538    0.9186   27.1653 H   0  0  0  0  0  0  0  0  0  0  0  0
    8.6539   -1.1581   27.1171 C   0  0  0  0  0  0  0  0  0  0  0  0
    8.9311   -1.1979   28.1631 H   0  0  0  0  0  0  0  0  0  0  0  0
    8.7698   -2.2941   26.3086 C   0  0  0  0  0  0  0  0  0  0  0  0
    9.3118   -3.5117   26.7683 N   0  0  0  0  0  0  0  0  0  0  0  0
    8.9828   -3.8718   27.6428 H   0  0  0  0  0  0  0  0  0  0  0  0
    9.9722   -4.4070   25.9599 C   0  0  0  0  0  0  0  0  0  0  0  0
   10.3204   -4.1572   24.8220 O   0  0  0  0  0  0  0  0  0  0  0  0
   10.2354   -5.7179   26.6331 C   0  0  0  0  0  0  0  0  0  0  0  0
    9.2943   -6.1804   26.9488 H   0  0  0  0  0  0  0  0  0  0  0  0
   10.7338   -6.3792   25.9298 H   0  0  0  0  0  0  0  0  0  0  0  0
   10.8791   -5.5511   27.5003 H   0  0  0  0  0  0  0  0  0  0  0  0
    8.3451   -2.2534   24.9876 C   0  0  0  0  0  0  0  0  0  0  0  0
    8.2910   -3.1784   24.4326 H   0  0  0  0  0  0  0  0  0  0  0  0
    7.0450   -0.3438   22.1904 C   0  0  0  0  0  0  0  0  0  0  0  0
    6.2337    0.2067   22.6495 H   0  0  0  0  0  0  0  0  0  0  0  0
    5.3928    0.7279   19.9593 C   0  0  0  0  0  0  0  0  0  0  0  0
    4.9186    0.7110   20.9438 H   0  0  0  0  0  0  0  0  0  0  0  0
    4.7677    1.3681   18.8915 C   0  0  0  0  0  0  0  0  0  0  0  0
    3.8221    1.8821   19.0288 H   0  0  0  0  0  0  0  0  0  0  0  0
  1  2  1  0
  2  3  2  0
  3  4  1  0
  4  5  1  0
  4  6  2  0
  6  7  1  0
  7  8  1  0
  8  9  1  0
  8 10  2  0
 10 11  1  0
 10 12  1  0
 12 13  1  0
 13 14  2  0
 14 15  1  0
 14 16  1  0
 16 17  1  0
 16 18  2  0
 18 19  1  0
 18 20  1  0
 20 21  1  0
 21 22  1  0
 21 23  1  0
 23 24  2  0
 23 25  1  0
 25 26  1  0
 25 27  1  0
 25 28  1  0
 20 29  2  0
 29 30  1  0
 12 31  1  0
 31 32  1  0
  6 33  1  0
 33 34  1  0
 33 35  2  0
 35 36  1  0
 35  2  1  0
 31  7  2  0
 29 13  1  0
M  END
>  <cnnaffinity>  (1) 
-4.81246

>  <filename>  (1) 
CC(=O)Nc1cccc(-n2ccc(-c3cccnc3)c2)c1

$$$$
