
     RDKit          3D

 37 39  0  0  0  0  0  0  0  0999 V2000
    5.0120    1.8186   16.9926 H   0  0  0  0  0  0  0  0  0  0  0  0
    5.4426    1.2897   17.8415 C   0  0  0  0  0  0  0  0  0  0  0  0
    6.5902    0.6349   17.6115 N   0  0  0  0  0  0  0  0  0  0  0  0
    7.1476   -0.0071   18.6451 C   0  0  0  0  0  0  0  0  0  0  0  0
    8.0772   -0.5302   18.4235 H   0  0  0  0  0  0  0  0  0  0  0  0
    6.6043   -0.0445   19.9388 C   0  0  0  0  0  0  0  0  0  0  0  0
    7.3239   -0.7576   21.0357 C   0  0  0  0  0  0  0  0  0  0  0  0
    6.5801   -1.3235   21.9563 N   0  0  0  0  0  0  0  0  0  0  0  0
    7.1890   -1.9045   23.0480 N   0  0  0  0  0  0  0  0  0  0  0  0
    6.3004   -2.5161   23.9975 C   0  0  0  0  0  0  0  0  0  0  0  0
    5.2330   -3.2581   23.4776 C   0  0  0  0  0  0  0  0  0  0  0  0
    5.1271   -3.2967   22.4003 H   0  0  0  0  0  0  0  0  0  0  0  0
    4.3254   -3.8595   24.3421 C   0  0  0  0  0  0  0  0  0  0  0  0
    3.5025   -4.4460   23.9433 H   0  0  0  0  0  0  0  0  0  0  0  0
    4.4814   -3.7239   25.7201 C   0  0  0  0  0  0  0  0  0  0  0  0
    3.7791   -4.1744   26.4056 H   0  0  0  0  0  0  0  0  0  0  0  0
    5.5709   -3.0105   26.2402 C   0  0  0  0  0  0  0  0  0  0  0  0
    5.7473   -2.9362   27.6393 N   0  0  0  0  0  0  0  0  0  0  0  0
    6.1259   -2.0871   28.0243 H   0  0  0  0  0  0  0  0  0  0  0  0
    5.2900   -3.8891   28.5157 C   0  0  0  0  0  0  0  0  0  0  0  0
    4.9606   -5.0048   28.1632 O   0  0  0  0  0  0  0  0  0  0  0  0
    5.2312   -3.4842   29.9663 C   0  0  0  0  0  0  0  0  0  0  0  0
    5.9755   -4.0751   30.5079 H   0  0  0  0  0  0  0  0  0  0  0  0
    4.2466   -3.7508   30.3577 H   0  0  0  0  0  0  0  0  0  0  0  0
    5.4079   -2.4219   30.1505 H   0  0  0  0  0  0  0  0  0  0  0  0
    6.4907   -2.3956   25.3832 C   0  0  0  0  0  0  0  0  0  0  0  0
    7.3545   -1.8781   25.7854 H   0  0  0  0  0  0  0  0  0  0  0  0
    8.5973   -2.0787   23.2062 C   0  0  0  0  0  0  0  0  0  0  0  0
    9.0966   -2.6738   24.1454 O   0  0  0  0  0  0  0  0  0  0  0  0
    9.3660   -1.4716   22.1231 C   0  0  0  0  0  0  0  0  0  0  0  0
   10.4386   -1.5890   22.2268 H   0  0  0  0  0  0  0  0  0  0  0  0
    8.7646   -0.8243   21.0892 C   0  0  0  0  0  0  0  0  0  0  0  0
    9.3560   -0.3289   20.3227 H   0  0  0  0  0  0  0  0  0  0  0  0
    5.3837    0.6177   20.1537 C   0  0  0  0  0  0  0  0  0  0  0  0
    4.9146    0.5956   21.1387 H   0  0  0  0  0  0  0  0  0  0  0  0
    4.8028    1.3047   19.0861 C   0  0  0  0  0  0  0  0  0  0  0  0
    3.8777    1.8584   19.2024 H   0  0  0  0  0  0  0  0  0  0  0  0
  1  2  1  0
  2  3  2  0
  3  4  1  0
  4  5  1  0
  4  6  2  0
  6  7  1  0
  7  8  2  0
  8  9  1  0
  9 10  1  0
 10 11  2  0
 11 12  1  0
 11 13  1  0
 13 14  1  0
 13 15  2  0
 15 16  1  0
 15 17  1  0
 17 18  1  0
 18 19  1  0
 18 20  1  0
 20 21  2  0
 20 22  1  0
 22 23  1  0
 22 24  1  0
 22 25  1  0
 17 26  2  0
 26 27  1  0
  9 28  1  0
 28 29  2  0
 28 30  1  0
 30 31  1  0
 30 32  2  0
 32 33  1  0
  6 34  1  0
 34 35  1  0
 34 36  2  0
 36 37  1  0
 36  2  1  0
 32  7  1  0
 26 10  1  0
M  END
>  <cnnaffinity>  (1) 
-5.20304

>  <filename>  (1) 
CC(=O)Nc1cccc(-n2nc(-c3cccnc3)ccc2=O)c1

$$$$
