
     RDKit          3D

 40 42  0  0  0  0  0  0  0  0999 V2000
    5.6913    5.4334   25.9036 C   0  0  0  0  0  0  0  0  0  0  0  0
    6.1567    4.0713   26.3738 C   0  0  0  0  0  0  0  0  0  0  0  0
    6.7378    3.9620   27.4365 O   0  0  0  0  0  0  0  0  0  0  0  0
    5.8779    2.8373   25.5162 C   0  0  0  0  0  0  0  0  0  0  0  0
    4.9865    1.8268   26.2832 C   0  0  0  0  0  0  0  0  0  0  0  0
    4.7816    0.5564   25.4483 C   0  0  0  0  0  0  0  0  0  0  0  0
    6.1256   -0.0485   25.0154 C   0  0  0  0  0  0  0  0  0  0  0  0
    6.9441    0.9511   24.3232 N   0  0  0  0  0  0  0  0  0  0  0  0
    7.1670    0.9483   22.9539 C   0  0  0  0  0  0  0  0  0  0  0  0
    7.1372    1.9747   22.2915 O   0  0  0  0  0  0  0  0  0  0  0  0
    7.5113   -0.3579   22.3586 C   0  0  0  0  0  0  0  0  0  0  0  0
    8.2159   -1.4154   22.9196 C   0  0  0  0  0  0  0  0  0  0  0  0
    8.4564   -2.2693   21.9090 N   0  0  0  0  0  0  0  0  0  0  0  0
    7.9654   -1.8526   20.7375 N   0  0  0  0  0  0  0  0  0  0  0  0
    7.3692   -0.6943   20.9840 C   0  0  0  0  0  0  0  0  0  0  0  0
    6.6491    0.0096   19.9192 C   0  0  0  0  0  0  0  0  0  0  0  0
    5.4246    0.6477   20.1536 C   0  0  0  0  0  0  0  0  0  0  0  0
    4.7988    1.3018   19.0970 C   0  0  0  0  0  0  0  0  0  0  0  0
    5.4053    1.2859   17.8395 C   0  0  0  0  0  0  0  0  0  0  0  0
    6.5686    0.6646   17.5909 N   0  0  0  0  0  0  0  0  0  0  0  0
    7.1682    0.0405   18.6106 C   0  0  0  0  0  0  0  0  0  0  0  0
    8.1154   -0.4424   18.3659 H   0  0  0  0  0  0  0  0  0  0  0  0
    4.9413    1.7882   16.9934 H   0  0  0  0  0  0  0  0  0  0  0  0
    3.8738    1.8401   19.2463 H   0  0  0  0  0  0  0  0  0  0  0  0
    4.9921    0.6507   21.1534 H   0  0  0  0  0  0  0  0  0  0  0  0
    8.9485   -3.1516   21.9394 H   0  0  0  0  0  0  0  0  0  0  0  0
    8.6080   -1.5905   23.9146 H   0  0  0  0  0  0  0  0  0  0  0  0
    7.2041    2.1639   25.0935 C   0  0  0  0  0  0  0  0  0  0  0  0
    7.8154    2.8286   24.4708 H   0  0  0  0  0  0  0  0  0  0  0  0
    7.7756    1.9045   25.9990 H   0  0  0  0  0  0  0  0  0  0  0  0
    5.9714   -0.9123   24.3600 H   0  0  0  0  0  0  0  0  0  0  0  0
    6.6697   -0.3935   25.9101 H   0  0  0  0  0  0  0  0  0  0  0  0
    4.2145   -0.1875   26.0182 H   0  0  0  0  0  0  0  0  0  0  0  0
    4.1875    0.7944   24.5551 H   0  0  0  0  0  0  0  0  0  0  0  0
    5.4688    1.5917   27.2455 H   0  0  0  0  0  0  0  0  0  0  0  0
    4.0145    2.2759   26.5270 H   0  0  0  0  0  0  0  0  0  0  0  0
    5.3679    3.1355   24.5880 H   0  0  0  0  0  0  0  0  0  0  0  0
    5.0094    5.8490   26.6507 H   0  0  0  0  0  0  0  0  0  0  0  0
    5.1867    5.4099   24.9352 H   0  0  0  0  0  0  0  0  0  0  0  0
    6.5575    6.0969   25.8404 H   0  0  0  0  0  0  0  0  0  0  0  0
  1  2  1  0
  2  3  2  0
  2  4  1  0
  4  5  1  0
  5  6  1  0
  6  7  1  0
  7  8  1  0
  8  9  1  0
  9 10  2  0
  9 11  1  0
 11 12  2  0
 12 13  1  0
 13 14  1  0
 14 15  2  0
 15 16  1  0
 16 17  2  0
 17 18  1  0
 18 19  2  0
 19 20  1  0
 20 21  2  0
 21 22  1  0
 19 23  1  0
 18 24  1  0
 17 25  1  0
 13 26  1  0
 12 27  1  0
  8 28  1  0
 28 29  1  0
 28 30  1  0
  7 31  1  0
  7 32  1  0
  6 33  1  0
  6 34  1  0
  5 35  1  0
  5 36  1  0
  4 37  1  0
  1 38  1  0
  1 39  1  0
  1 40  1  0
 28  4  1  0
 15 11  1  0
 21 16  1  0
M  END
>  <cnnaffinity>  (1) 
-4.90014

>  <filename>  (1) 
CC(=O)C1CCCN(C(=O)c2c[nH]nc2-c2cccnc2)C1

$$$$
