
     RDKit          3D

 41 43  0  0  0  0  0  0  0  0999 V2000
   10.5039    0.8968   22.5038 C   0  0  0  0  0  0  0  0  0  0  0  0
    9.2477    0.0786   22.7832 C   0  0  0  0  0  0  0  0  0  0  0  0
    8.5230    0.0729   21.4136 N   0  0  0  0  0  4  0  0  0  0  0  0
    7.1361   -0.4497   21.2953 C   0  0  2  0  0  0  0  0  0  0  0  0
    7.1593   -1.9733   21.1790 C   0  0  0  0  0  0  0  0  0  0  0  0
    7.4868   -2.4403   22.1090 H   0  0  0  0  0  0  0  0  0  0  0  0
    6.1845   -2.3755   20.9029 H   0  0  0  0  0  0  0  0  0  0  0  0
    7.8814   -2.2515   20.4069 H   0  0  0  0  0  0  0  0  0  0  0  0
    6.5352    0.2357   20.0834 C   0  0  0  0  0  0  0  0  0  0  0  0
    5.2822    0.8707   20.1243 C   0  0  0  0  0  0  0  0  0  0  0  0
    4.7593    1.4330   18.9562 C   0  0  0  0  0  0  0  0  0  0  0  0
    5.4943    1.3364   17.7730 C   0  0  0  0  0  0  0  0  0  0  0  0
    6.6910    0.7392   17.7092 N   0  0  0  0  0  0  0  0  0  0  0  0
    7.1889    0.2198   18.8395 C   0  0  0  0  0  0  0  0  0  0  0  0
    8.1748   -0.2281   18.7196 H   0  0  0  0  0  0  0  0  0  0  0  0
    5.1085    1.7565   16.8417 H   0  0  0  0  0  0  0  0  0  0  0  0
    3.8029    1.9451   18.9501 H   0  0  0  0  0  0  0  0  0  0  0  0
    4.7298    0.9385   21.0630 H   0  0  0  0  0  0  0  0  0  0  0  0
    6.5668   -0.1585   22.1896 H   0  0  0  0  0  0  0  0  0  0  0  0
    8.4726    1.0378   21.0148 H   0  0  0  0  0  0  0  0  0  0  0  0
    9.1281   -0.5164   20.7868 H   0  0  0  0  0  0  0  0  0  0  0  0
    9.5189   -1.3098   23.4528 C   0  0  0  0  0  0  0  0  0  0  0  0
   10.6448   -1.9368   23.1302 N   0  0  0  0  0  0  0  0  0  0  0  0
   10.8754   -3.1828   23.6119 C   0  0  0  0  0  0  0  0  0  0  0  0
   10.0107   -3.8542   24.4339 C   0  0  0  0  0  0  0  0  0  0  0  0
    8.8125   -3.2110   24.8651 C   0  0  0  0  0  0  0  0  0  0  0  0
    7.8951   -3.8594   25.7403 C   0  0  0  0  0  0  0  0  0  0  0  0
    6.7622   -3.2097   26.1779 C   0  0  0  0  0  0  0  0  0  0  0  0
    6.4860   -1.9020   25.7176 C   0  0  0  0  0  0  0  0  0  0  0  0
    7.3337   -1.2619   24.8292 C   0  0  0  0  0  0  0  0  0  0  0  0
    8.5459   -1.8864   24.3847 C   0  0  0  0  0  0  0  0  0  0  0  0
    7.0563   -0.2824   24.4510 H   0  0  0  0  0  0  0  0  0  0  0  0
    5.5876   -1.3930   26.0602 H   0  0  0  0  0  0  0  0  0  0  0  0
    6.0804   -3.7029   26.8703 H   0  0  0  0  0  0  0  0  0  0  0  0
    8.1092   -4.8841   26.0420 H   0  0  0  0  0  0  0  0  0  0  0  0
   10.2317   -4.8649   24.7629 H   0  0  0  0  0  0  0  0  0  0  0  0
   11.8243   -3.6154   23.3074 H   0  0  0  0  0  0  0  0  0  0  0  0
    8.6127    0.6080   23.4924 H   0  0  0  0  0  0  0  0  0  0  0  0
   10.2204    1.8672   22.0796 H   0  0  0  0  0  0  0  0  0  0  0  0
   11.1459    0.3643   21.7948 H   0  0  0  0  0  0  0  0  0  0  0  0
   11.0894    1.0841   23.4085 H   0  0  0  0  0  0  0  0  0  0  0  0
  1  2  1  0
  2  3  1  0
  3  4  1  0
  4  5  1  0
  5  6  1  0
  5  7  1  0
  5  8  1  0
  4  9  1  0
  9 10  2  0
 10 11  1  0
 11 12  2  0
 12 13  1  0
 13 14  2  0
 14 15  1  0
 12 16  1  0
 11 17  1  0
 10 18  1  0
  4 19  1  1
  3 20  1  0
  3 21  1  0
  2 22  1  0
 22 23  2  0
 23 24  1  0
 24 25  2  0
 25 26  1  0
 26 27  2  0
 27 28  1  0
 28 29  2  0
 29 30  1  0
 30 31  2  0
 30 32  1  0
 29 33  1  0
 28 34  1  0
 27 35  1  0
 25 36  1  0
 24 37  1  0
  2 38  1  0
  1 39  1  0
  1 40  1  0
  1 41  1  0
 14  9  1  0
 31 22  1  0
 31 26  1  0
M  CHG  1   3   1
M  END
>  <cnnaffinity>  (1) 
-5.33651

>  <filename>  (1) 
CC([NH2+][C@H](C)c1cccnc1)c1nccc2ccccc12

$$$$
