
     RDKit          3D

 41 43  0  0  0  0  0  0  0  0999 V2000
    9.1578   -1.5631   23.2740 C   0  0  0  0  0  0  0  0  0  0  0  0
    9.1264   -0.1713   22.6383 C   0  0  0  0  0  0  0  0  0  0  0  0
    7.7254   -0.0325   21.9113 N   0  0  0  0  0  4  0  0  0  0  0  0
    7.3273   -0.9542   20.7983 C   0  0  1  0  0  0  0  0  0  0  0  0
    6.4496   -2.1153   21.2628 C   0  0  0  0  0  0  0  0  0  0  0  0
    6.2967   -2.8119   20.4356 H   0  0  0  0  0  0  0  0  0  0  0  0
    5.4685   -1.7522   21.5780 H   0  0  0  0  0  0  0  0  0  0  0  0
    6.9005   -2.6601   22.0958 H   0  0  0  0  0  0  0  0  0  0  0  0
    6.6179   -0.1059   19.7587 C   0  0  0  0  0  0  0  0  0  0  0  0
    5.4056    0.5654   19.9935 C   0  0  0  0  0  0  0  0  0  0  0  0
    4.8450    1.3243   18.9649 C   0  0  0  0  0  0  0  0  0  0  0  0
    5.5039    1.3829   17.7322 C   0  0  0  0  0  0  0  0  0  0  0  0
    6.6504    0.7374   17.4813 N   0  0  0  0  0  0  0  0  0  0  0  0
    7.1779    0.0210   18.4831 C   0  0  0  0  0  0  0  0  0  0  0  0
    8.1108   -0.4943   18.2571 H   0  0  0  0  0  0  0  0  0  0  0  0
    5.0897    1.9723   16.9137 H   0  0  0  0  0  0  0  0  0  0  0  0
    3.9244    1.8802   19.1083 H   0  0  0  0  0  0  0  0  0  0  0  0
    4.9023    0.5099   20.9629 H   0  0  0  0  0  0  0  0  0  0  0  0
    8.2421   -1.3585   20.3509 H   0  0  0  0  0  0  0  0  0  0  0  0
    7.5876    0.9356   21.5331 H   0  0  0  0  0  0  0  0  0  0  0  0
    7.0272   -0.1295   22.6977 H   0  0  0  0  0  0  0  0  0  0  0  0
    9.2983    1.0342   23.5940 C   0  0  0  0  0  0  0  0  0  0  0  0
    8.2070    1.4037   24.2762 N   0  0  0  0  0  0  0  0  0  0  0  0
    8.2263    2.5882   24.9629 C   0  0  0  0  0  0  0  0  0  0  0  0
    9.2759    3.4550   25.0084 C   0  0  0  0  0  0  0  0  0  0  0  0
   10.5251    3.0778   24.3184 C   0  0  0  0  0  0  0  0  0  0  0  0
   11.7128    3.7348   24.2075 C   0  0  0  0  0  0  0  0  0  0  0  0
   13.2016    2.3665   23.0766 C   0  0  0  0  0  0  0  0  0  0  0  0
   12.8422    2.3650   23.3395 C   0  0  0  0  0  0  0  0  0  0  0  0
   11.8385    1.4324   23.0623 C   0  0  0  0  0  0  0  0  0  0  0  0
   10.5412    1.7566   23.6510 C   0  0  0  0  0  0  0  0  0  0  0  0
   12.1829    0.4342   23.0782 H   0  0  0  0  0  0  0  0  0  0  0  0
   14.0733    1.9356   22.5549 H   0  0  0  0  0  0  0  0  0  0  0  0
   13.2298    3.4406   22.6196 H   0  0  0  0  0  0  0  0  0  0  0  0
   12.0415    4.6883   24.5967 H   0  0  0  0  0  0  0  0  0  0  0  0
    9.1450    4.3879   25.5546 H   0  0  0  0  0  0  0  0  0  0  0  0
    7.2953    2.8327   25.4616 H   0  0  0  0  0  0  0  0  0  0  0  0
    9.9125   -0.0908   21.8764 H   0  0  0  0  0  0  0  0  0  0  0  0
    9.0221   -2.3182   22.4918 H   0  0  0  0  0  0  0  0  0  0  0  0
   10.1017   -1.7884   23.7713 H   0  0  0  0  0  0  0  0  0  0  0  0
    8.3561   -1.6687   24.0138 H   0  0  0  0  0  0  0  0  0  0  0  0
  1  2  1  0
  2  3  1  0
  3  4  1  0
  4  5  1  0
  5  6  1  0
  5  7  1  0
  5  8  1  0
  4  9  1  0
  9 10  2  0
 10 11  1  0
 11 12  2  0
 12 13  1  0
 13 14  2  0
 14 15  1  0
 12 16  1  0
 11 17  1  0
 10 18  1  0
  4 19  1  6
  3 20  1  0
  3 21  1  0
  2 22  1  0
 22 23  2  0
 23 24  1  0
 24 25  2  0
 25 26  1  0
 26 27  2  0
 27 28  1  0
 28 29  2  0
 29 30  1  0
 30 31  2  0
 30 32  1  0
 29 33  1  0
 28 34  1  0
 27 35  1  0
 25 36  1  0
 24 37  1  0
  2 38  1  0
  1 39  1  0
  1 40  1  0
  1 41  1  0
 14  9  1  0
 31 22  1  0
 31 26  1  0
M  CHG  1   3   1
M  END
>  <cnnaffinity>  (1) 
-5.385

>  <filename>  (1) 
CC([NH2+][C@@H](C)c1cccnc1)c1nccc2ccccc12

$$$$
