
     RDKit          3D

 31 32  0  0  0  0  0  0  0  0999 V2000
    4.9204    1.7779   17.0024 H   0  0  0  0  0  0  0  0  0  0  0  0
    5.4050    1.2889   17.8451 C   0  0  0  0  0  0  0  0  0  0  0  0
    6.5712    0.6779   17.5856 N   0  0  0  0  0  0  0  0  0  0  0  0
    7.1752    0.0501   18.5971 C   0  0  0  0  0  0  0  0  0  0  0  0
    8.1225   -0.4322   18.3688 H   0  0  0  0  0  0  0  0  0  0  0  0
    6.6621   -0.0051   19.9008 C   0  0  0  0  0  0  0  0  0  0  0  0
    7.4044   -0.7228   20.9700 C   0  0  0  0  0  0  0  0  0  0  0  0
    8.1193   -1.8111   20.6227 N   0  0  0  0  0  0  0  0  0  0  0  0
    8.7838   -2.5139   21.5442 N   0  0  0  0  0  0  0  0  0  0  0  0
    8.7638   -2.1205   22.8198 C   0  0  0  0  0  0  0  0  0  0  0  0
    9.3432   -2.7211   23.5075 H   0  0  0  0  0  0  0  0  0  0  0  0
    8.0488   -0.9920   23.2713 C   0  0  0  0  0  0  0  0  0  0  0  0
    8.0808   -0.5208   24.6969 C   0  0  0  0  0  0  0  0  0  0  0  0
    8.3649   -1.3487   25.3581 H   0  0  0  0  0  0  0  0  0  0  0  0
    7.0632   -0.2249   24.9855 H   0  0  0  0  0  0  0  0  0  0  0  0
    9.0398    0.6624   24.9150 C   0  0  0  0  0  0  0  0  0  0  0  0
    8.7719    1.4471   24.1935 H   0  0  0  0  0  0  0  0  0  0  0  0
   10.4989    0.2771   24.6655 C   0  0  0  0  0  0  0  0  0  0  0  0
   11.1703    1.1190   24.8649 H   0  0  0  0  0  0  0  0  0  0  0  0
   10.8011   -0.5460   25.3249 H   0  0  0  0  0  0  0  0  0  0  0  0
   10.6727   -0.0439   23.6337 H   0  0  0  0  0  0  0  0  0  0  0  0
    8.8578    1.2344   26.3166 C   0  0  0  0  0  0  0  0  0  0  0  0
    9.1051    0.4819   27.0763 H   0  0  0  0  0  0  0  0  0  0  0  0
    7.8252    1.5565   26.4917 H   0  0  0  0  0  0  0  0  0  0  0  0
    9.5090    2.1000   26.4685 H   0  0  0  0  0  0  0  0  0  0  0  0
    7.3640   -0.2787   22.2989 C   0  0  0  0  0  0  0  0  0  0  0  0
    6.8251    0.6356   22.5487 H   0  0  0  0  0  0  0  0  0  0  0  0
    5.4451    0.6487   20.1616 C   0  0  0  0  0  0  0  0  0  0  0  0
    4.9956    0.6335   21.1583 H   0  0  0  0  0  0  0  0  0  0  0  0
    4.8093    1.3034   19.1097 C   0  0  0  0  0  0  0  0  0  0  0  0
    3.8782    1.8398   19.2610 H   0  0  0  0  0  0  0  0  0  0  0  0
  1  2  1  0
  2  3  2  0
  3  4  1  0
  4  5  1  0
  4  6  2  0
  6  7  1  0
  7  8  2  0
  8  9  1  0
  9 10  2  0
 10 11  1  0
 10 12  1  0
 12 13  1  0
 13 14  1  0
 13 15  1  0
 13 16  1  0
 16 17  1  0
 16 18  1  0
 18 19  1  0
 18 20  1  0
 18 21  1  0
 16 22  1  0
 22 23  1  0
 22 24  1  0
 22 25  1  0
 12 26  2  0
 26 27  1  0
  6 28  1  0
 28 29  1  0
 28 30  2  0
 30 31  1  0
 30  2  1  0
 26  7  1  0
M  END
>  <cnnaffinity>  (1) 
-4.97161

>  <filename>  (1) 
CC(C)Cc1cnnc(-c2cccnc2)c1

$$$$
