
     RDKit          3D

 41 44  0  0  0  0  0  0  0  0999 V2000
    4.9979    1.8463   16.8761 H   0  0  0  0  0  0  0  0  0  0  0  0
    5.4282    1.2993   17.7125 C   0  0  0  0  0  0  0  0  0  0  0  0
    6.5695    0.6370   17.4703 N   0  0  0  0  0  0  0  0  0  0  0  0
    7.1403   -0.0096   18.4924 C   0  0  0  0  0  0  0  0  0  0  0  0
    8.0653   -0.5305   18.2604 H   0  0  0  0  0  0  0  0  0  0  0  0
    6.6156   -0.0311   19.7983 C   0  0  0  0  0  0  0  0  0  0  0  0
    7.3746   -0.6278   20.9166 C   0  0  0  0  0  0  0  0  0  0  0  0
    8.5151   -1.3067   20.7091 N   0  0  0  0  0  0  0  0  0  0  0  0
    8.9410   -1.5683   21.9610 N   0  0  0  0  0  0  0  0  0  0  0  0
   10.0545   -2.1992   22.5011 C   0  0  0  0  0  0  0  0  0  0  0  0
   10.7991   -2.6528   21.8664 H   0  0  0  0  0  0  0  0  0  0  0  0
    9.9138   -2.0905   23.8477 C   0  0  0  0  0  0  0  0  0  0  0  0
   10.5338   -2.4578   24.6497 H   0  0  0  0  0  0  0  0  0  0  0  0
    8.7234   -1.4171   24.1509 N   0  0  0  0  0  0  0  0  0  0  0  0
    8.2156   -1.0266   25.4261 C   0  0  0  0  0  0  0  0  0  0  0  0
    9.0566   -0.6222   26.4797 C   0  0  0  0  0  0  0  0  0  0  0  0
   10.1396   -0.6789   26.3874 H   0  0  0  0  0  0  0  0  0  0  0  0
    8.4981   -0.1320   27.6673 C   0  0  0  0  0  0  0  0  0  0  0  0
    9.1394    0.1156   28.5122 H   0  0  0  0  0  0  0  0  0  0  0  0
    7.1090    0.0219   27.8329 C   0  0  0  0  0  0  0  0  0  0  0  0
    6.5497    0.7597   29.0531 C   0  0  0  0  0  0  0  0  0  0  0  0
    7.4129    0.9782   29.6982 H   0  0  0  0  0  0  0  0  0  0  0  0
    5.5402   -0.0410   29.9014 C   0  0  0  0  0  0  0  0  0  0  0  0
    5.9217   -1.0164   30.2146 H   0  0  0  0  0  0  0  0  0  0  0  0
    5.2861    0.5194   30.8110 H   0  0  0  0  0  0  0  0  0  0  0  0
    4.5962   -0.2129   29.3708 H   0  0  0  0  0  0  0  0  0  0  0  0
    5.9080    2.1111   28.6823 C   0  0  0  0  0  0  0  0  0  0  0  0
    6.5894    2.7364   28.0989 H   0  0  0  0  0  0  0  0  0  0  0  0
    4.9897    1.9747   28.0948 H   0  0  0  0  0  0  0  0  0  0  0  0
    5.6426    2.6531   29.5983 H   0  0  0  0  0  0  0  0  0  0  0  0
    6.2853   -0.4782   26.8121 C   0  0  0  0  0  0  0  0  0  0  0  0
    5.2055   -0.4262   26.9214 H   0  0  0  0  0  0  0  0  0  0  0  0
    6.8223   -0.9947   25.6307 C   0  0  0  0  0  0  0  0  0  0  0  0
    6.1726   -1.3570   24.8394 H   0  0  0  0  0  0  0  0  0  0  0  0
    8.1272   -1.1053   22.9306 C   0  0  0  0  0  0  0  0  0  0  0  0
    7.0560   -0.5002   22.2907 C   0  0  0  0  0  0  0  0  0  0  0  0
    6.1749   -0.0488   22.7144 H   0  0  0  0  0  0  0  0  0  0  0  0
    5.3905    0.6245   20.0149 C   0  0  0  0  0  0  0  0  0  0  0  0
    4.9150    0.6024   20.9960 H   0  0  0  0  0  0  0  0  0  0  0  0
    4.7941    1.3074   18.9588 C   0  0  0  0  0  0  0  0  0  0  0  0
    3.8709    1.8601   19.0986 H   0  0  0  0  0  0  0  0  0  0  0  0
  1  2  1  0
  2  3  2  0
  3  4  1  0
  4  5  1  0
  4  6  2  0
  6  7  1  0
  7  8  2  0
  8  9  1  0
  9 10  1  0
 10 11  1  0
 10 12  2  0
 12 13  1  0
 12 14  1  0
 14 15  1  0
 15 16  2  0
 16 17  1  0
 16 18  1  0
 18 19  1  0
 18 20  2  0
 20 21  1  0
 21 22  1  0
 21 23  1  0
 23 24  1  0
 23 25  1  0
 23 26  1  0
 21 27  1  0
 27 28  1  0
 27 29  1  0
 27 30  1  0
 20 31  1  0
 31 32  1  0
 31 33  2  0
 33 34  1  0
 14 35  1  0
 35 36  2  0
 36 37  1  0
  6 38  1  0
 38 39  1  0
 38 40  2  0
 40 41  1  0
 40  2  1  0
 36  7  1  0
 35  9  1  0
 33 15  1  0
M  END
>  <cnnaffinity>  (1) 
-5.43997

>  <filename>  (1) 
CC(C)c1ccc(-n2ccn3nc(-c4cccnc4)cc23)cc1

$$$$
