
     RDKit          3D

 33 34  0  0  0  0  0  0  0  0999 V2000
    4.9564    1.8088   16.9864 H   0  0  0  0  0  0  0  0  0  0  0  0
    5.4209    1.2977   17.8286 C   0  0  0  0  0  0  0  0  0  0  0  0
    6.5820    0.6688   17.5839 N   0  0  0  0  0  0  0  0  0  0  0  0
    7.1824    0.0537   18.6125 C   0  0  0  0  0  0  0  0  0  0  0  0
    8.1198   -0.4431   18.3650 H   0  0  0  0  0  0  0  0  0  0  0  0
    6.6787    0.0276   19.9362 C   0  0  0  0  0  0  0  0  0  0  0  0
    7.3869   -0.6552   21.0596 C   0  0  0  0  0  0  0  0  0  0  0  0
    7.7999   -2.3220   20.9211 S   0  0  0  0  0  0  0  0  0  0  0  0
    8.5695   -2.3589   22.4471 C   0  0  0  0  0  0  0  0  0  0  0  0
    9.0734   -3.2566   22.7809 H   0  0  0  0  0  0  0  0  0  0  0  0
    8.4690   -1.1546   23.0708 C   0  0  0  0  0  0  0  0  0  0  0  0
    8.8909   -0.9444   24.0505 H   0  0  0  0  0  0  0  0  0  0  0  0
    7.7807   -0.1680   22.2919 C   0  0  0  0  0  0  0  0  0  0  0  0
    7.5710    1.2621   22.7164 C   0  0  0  0  0  0  0  0  0  0  0  0
    7.8747    1.3902   23.7625 H   0  0  0  0  0  0  0  0  0  0  0  0
    6.5022    1.4932   22.6890 H   0  0  0  0  0  0  0  0  0  0  0  0
    8.3098    2.2922   21.8495 C   0  0  0  0  0  0  0  0  0  0  0  0
    8.0234    3.3062   22.1664 H   0  0  0  0  0  0  0  0  0  0  0  0
    7.9717    2.1984   20.8063 H   0  0  0  0  0  0  0  0  0  0  0  0
    9.8433    2.1698   21.8657 C   0  0  0  0  0  0  0  0  0  0  0  0
   10.2144    3.0667   21.3744 H   0  0  0  0  0  0  0  0  0  0  0  0
   10.3637    1.0097   21.0205 C   0  0  0  0  0  0  0  0  0  0  0  0
    9.7636    0.8892   20.1114 H   0  0  0  0  0  0  0  0  0  0  0  0
   10.3648    0.0505   21.5419 H   0  0  0  0  0  0  0  0  0  0  0  0
   11.3992    1.2166   20.7363 H   0  0  0  0  0  0  0  0  0  0  0  0
   10.4855    2.1591   23.2543 C   0  0  0  0  0  0  0  0  0  0  0  0
   10.1082    2.9559   23.9017 H   0  0  0  0  0  0  0  0  0  0  0  0
   10.3252    1.2098   23.7739 H   0  0  0  0  0  0  0  0  0  0  0  0
   11.5682    2.2937   23.1645 H   0  0  0  0  0  0  0  0  0  0  0  0
    5.4426    0.6653   20.1480 C   0  0  0  0  0  0  0  0  0  0  0  0
    4.9847    0.6463   21.1362 H   0  0  0  0  0  0  0  0  0  0  0  0
    4.8065    1.3101   19.0835 C   0  0  0  0  0  0  0  0  0  0  0  0
    3.8595    1.8298   19.2213 H   0  0  0  0  0  0  0  0  0  0  0  0
  1  2  1  0
  2  3  2  0
  3  4  1  0
  4  5  1  0
  4  6  2  0
  6  7  1  0
  7  8  1  0
  8  9  1  0
  9 10  1  0
  9 11  2  0
 11 12  1  0
 11 13  1  0
 13 14  1  0
 14 15  1  0
 14 16  1  0
 14 17  1  0
 17 18  1  0
 17 19  1  0
 17 20  1  0
 20 21  1  0
 20 22  1  0
 22 23  1  0
 22 24  1  0
 22 25  1  0
 20 26  1  0
 26 27  1  0
 26 28  1  0
 26 29  1  0
  6 30  1  0
 30 31  1  0
 30 32  2  0
 32 33  1  0
 32  2  1  0
 13  7  2  0
M  END
>  <cnnaffinity>  (1) 
-5.01058

>  <filename>  (1) 
CC(C)CCc1ccsc1-c1cccnc1

$$$$
