
     RDKit          3D

 37 38  0  0  0  0  0  0  0  0999 V2000
    4.9947    1.8374   16.9563 H   0  0  0  0  0  0  0  0  0  0  0  0
    5.4589    1.3138   17.7896 C   0  0  0  0  0  0  0  0  0  0  0  0
    6.6304    0.7076   17.5337 N   0  0  0  0  0  0  0  0  0  0  0  0
    7.2230    0.0463   18.5369 C   0  0  0  0  0  0  0  0  0  0  0  0
    8.1792   -0.4246   18.3149 H   0  0  0  0  0  0  0  0  0  0  0  0
    6.6700   -0.0766   19.8298 C   0  0  0  0  0  0  0  0  0  0  0  0
    7.3474   -0.8078   20.8561 N   0  0  0  0  0  0  0  0  0  0  0  0
    8.1601   -0.3493   21.2417 H   0  0  0  0  0  0  0  0  0  0  0  0
    6.7229   -1.6465   21.7640 C   0  0  0  0  0  0  0  0  0  0  0  0
    5.6768   -2.2082   21.4964 O   0  0  0  0  0  0  0  0  0  0  0  0
    7.5254   -1.9441   23.0878 C   0  0  0  0  0  0  0  0  0  0  0  0
    8.3538   -0.7289   23.5543 C   0  0  0  0  0  0  0  0  0  0  0  0
    7.7093    0.5177   23.6874 C   0  0  0  0  0  0  0  0  0  0  0  0
    6.6339    0.5979   23.5363 H   0  0  0  0  0  0  0  0  0  0  0  0
    8.4319    1.6780   23.9553 C   0  0  0  0  0  0  0  0  0  0  0  0
    7.9202    2.6338   24.0135 H   0  0  0  0  0  0  0  0  0  0  0  0
    9.8262    1.6171   24.1210 C   0  0  0  0  0  0  0  0  0  0  0  0
   10.6281    2.8990   24.1339 C   0  0  0  0  0  0  0  0  0  0  0  0
   10.0242    3.8716   24.8451 F   0  0  0  0  0  0  0  0  0  0  0  0
   11.8607    2.7204   24.6405 F   0  0  0  0  0  0  0  0  0  0  0  0
   10.7850    3.3935   22.8869 F   0  0  0  0  0  0  0  0  0  0  0  0
   10.4606    0.3650   24.1313 C   0  0  0  0  0  0  0  0  0  0  0  0
   11.5281    0.2823   24.3340 H   0  0  0  0  0  0  0  0  0  0  0  0
    9.7234   -0.7896   23.8597 C   0  0  0  0  0  0  0  0  0  0  0  0
   10.2433   -1.7424   23.8589 H   0  0  0  0  0  0  0  0  0  0  0  0
    6.5593   -2.2694   24.2529 C   0  0  0  0  0  0  0  0  0  0  0  0
    5.9440   -1.4039   24.5276 H   0  0  0  0  0  0  0  0  0  0  0  0
    5.8925   -3.1009   24.0116 H   0  0  0  0  0  0  0  0  0  0  0  0
    7.1436   -2.5366   25.1403 H   0  0  0  0  0  0  0  0  0  0  0  0
    8.3890   -3.2014   22.7793 C   0  0  0  0  0  0  0  0  0  0  0  0
    8.9095   -3.5459   23.6814 H   0  0  0  0  0  0  0  0  0  0  0  0
    9.1440   -3.0035   22.0059 H   0  0  0  0  0  0  0  0  0  0  0  0
    7.7566   -4.0289   22.4359 H   0  0  0  0  0  0  0  0  0  0  0  0
    5.4592    0.5763   20.0839 C   0  0  0  0  0  0  0  0  0  0  0  0
    5.0253    0.5190   21.0824 H   0  0  0  0  0  0  0  0  0  0  0  0
    4.8441    1.2860   19.0458 C   0  0  0  0  0  0  0  0  0  0  0  0
    3.9124    1.8180   19.2020 H   0  0  0  0  0  0  0  0  0  0  0  0
  1  2  1  0
  2  3  2  0
  3  4  1  0
  4  5  1  0
  4  6  2  0
  6  7  1  0
  7  8  1  0
  7  9  1  0
  9 10  2  0
  9 11  1  0
 11 12  1  0
 12 13  2  0
 13 14  1  0
 13 15  1  0
 15 16  1  0
 15 17  2  0
 17 18  1  0
 18 19  1  0
 18 20  1  0
 18 21  1  0
 17 22  1  0
 22 23  1  0
 22 24  2  0
 24 25  1  0
 11 26  1  0
 26 27  1  0
 26 28  1  0
 26 29  1  0
 11 30  1  0
 30 31  1  0
 30 32  1  0
 30 33  1  0
  6 34  1  0
 34 35  1  0
 34 36  2  0
 36 37  1  0
 36  2  1  0
 24 12  1  0
M  END
>  <cnnaffinity>  (1) 
-5.47507

>  <filename>  (1) 
CC(C)(C(=O)Nc1cccnc1)c1ccc(C(F)(F)F)cc1

$$$$
