
     RDKit          3D

 34 35  0  0  0  0  0  0  0  0999 V2000
    4.9058    1.7734   17.0043 H   0  0  0  0  0  0  0  0  0  0  0  0
    5.3994    1.2924   17.8448 C   0  0  0  0  0  0  0  0  0  0  0  0
    6.5705    0.6818   17.5900 N   0  0  0  0  0  0  0  0  0  0  0  0
    7.1830    0.0531   18.5980 C   0  0  0  0  0  0  0  0  0  0  0  0
    8.1321   -0.4400   18.3845 H   0  0  0  0  0  0  0  0  0  0  0  0
    6.6591    0.0081   19.9022 C   0  0  0  0  0  0  0  0  0  0  0  0
    7.3707   -0.6673   20.9379 N   0  0  0  0  0  0  0  0  0  0  0  0
    7.8109   -1.9368   20.7992 N   0  0  0  0  0  0  0  0  0  0  0  0
    8.4125   -2.2422   21.8837 N   0  0  0  0  0  0  0  0  0  0  0  0
    8.3979   -1.2116   22.7533 N   0  0  0  0  0  0  0  0  0  0  0  0
    7.7574   -0.2312   22.1658 C   0  0  0  0  0  0  0  0  0  0  0  0
    7.5897    1.1645   22.6760 C   0  0  0  0  0  0  0  0  0  0  0  0
    7.9247    1.1742   23.7174 H   0  0  0  0  0  0  0  0  0  0  0  0
    6.5232    1.4167   22.6980 H   0  0  0  0  0  0  0  0  0  0  0  0
    8.3489    2.2127   21.8414 C   0  0  0  0  0  0  0  0  0  0  0  0
    8.2100    3.1944   22.3120 H   0  0  0  0  0  0  0  0  0  0  0  0
    7.8672    2.2828   20.8579 H   0  0  0  0  0  0  0  0  0  0  0  0
    9.8511    1.9463   21.6215 C   0  0  0  0  0  0  0  0  0  0  0  0
    9.9798    0.9539   21.1543 H   0  0  0  0  0  0  0  0  0  0  0  0
   10.1923    2.6671   20.8693 H   0  0  0  0  0  0  0  0  0  0  0  0
   10.8042    2.0653   22.8422 C   0  0  0  0  0  0  0  0  0  0  0  0
   11.8089    2.2339   22.4216 H   0  0  0  0  0  0  0  0  0  0  0  0
   10.4967    3.2781   23.7287 C   0  0  0  0  0  0  0  0  0  0  0  0
   11.2944    3.4295   24.4648 H   0  0  0  0  0  0  0  0  0  0  0  0
    9.5573    3.1427   24.2834 H   0  0  0  0  0  0  0  0  0  0  0  0
   10.4116    4.1944   23.1309 H   0  0  0  0  0  0  0  0  0  0  0  0
   10.9077    0.7858   23.6783 C   0  0  0  0  0  0  0  0  0  0  0  0
   11.7462    0.8571   24.3810 H   0  0  0  0  0  0  0  0  0  0  0  0
   10.0007    0.6008   24.2670 H   0  0  0  0  0  0  0  0  0  0  0  0
   11.0768   -0.0869   23.0363 H   0  0  0  0  0  0  0  0  0  0  0  0
    5.4454    0.6523   20.1635 C   0  0  0  0  0  0  0  0  0  0  0  0
    5.0085    0.6246   21.1598 H   0  0  0  0  0  0  0  0  0  0  0  0
    4.8057    1.3112   19.1101 C   0  0  0  0  0  0  0  0  0  0  0  0
    3.8720    1.8446   19.2682 H   0  0  0  0  0  0  0  0  0  0  0  0
  1  2  1  0
  2  3  2  0
  3  4  1  0
  4  5  1  0
  4  6  2  0
  6  7  1  0
  7  8  1  0
  8  9  2  0
  9 10  1  0
 10 11  2  0
 11 12  1  0
 12 13  1  0
 12 14  1  0
 12 15  1  0
 15 16  1  0
 15 17  1  0
 15 18  1  0
 18 19  1  0
 18 20  1  0
 18 21  1  0
 21 22  1  0
 21 23  1  0
 23 24  1  0
 23 25  1  0
 23 26  1  0
 21 27  1  0
 27 28  1  0
 27 29  1  0
 27 30  1  0
  6 31  1  0
 31 32  1  0
 31 33  2  0
 33 34  1  0
 33  2  1  0
 11  7  1  0
M  END
>  <cnnaffinity>  (1) 
-5.25507

>  <filename>  (1) 
CC(C)CCCc1nnnn1-c1cccnc1

$$$$
