
     RDKit          3D

 31 33  0  0  0  0  0  0  0  0999 V2000
    4.9953    1.8381   17.2359 H   0  0  0  0  0  0  0  0  0  0  0  0
    5.4812    1.2056   17.9793 C   0  0  0  0  0  0  0  0  0  0  0  0
    6.5897    0.5652   17.5809 N   0  0  0  0  0  0  0  0  0  0  0  0
    7.2346   -0.1805   18.4840 C   0  0  0  0  0  0  0  0  0  0  0  0
    8.1299   -0.6783   18.1145 H   0  0  0  0  0  0  0  0  0  0  0  0
    6.8123   -0.3404   19.8227 C   0  0  0  0  0  0  0  0  0  0  0  0
    7.6649   -1.0261   20.8042 C   0  0  0  0  0  0  0  0  0  0  0  0
    9.0094   -0.8920   21.0530 C   0  0  0  0  0  0  0  0  0  0  0  0
    9.6948   -0.3014   20.4575 H   0  0  0  0  0  0  0  0  0  0  0  0
    9.4166   -1.5575   22.1819 N   0  0  0  0  0  0  0  0  0  0  0  0
    8.3016   -2.0671   22.6402 C   0  0  0  0  0  0  0  0  0  0  0  0
    7.8021   -2.9025   24.0935 S   0  0  0  0  0  0  0  0  0  0  0  0
    6.1648   -2.7581   23.4825 C   0  0  0  0  0  0  0  0  0  0  0  0
    5.0558   -3.1392   24.1391 N   0  0  0  0  0  0  0  0  0  0  0  0
    4.2685   -2.7610   23.6395 H   0  0  0  0  0  0  0  0  0  0  0  0
    4.8229   -3.8045   25.4123 C   0  0  0  0  0  0  0  0  0  0  0  0
    5.6286   -3.5994   26.1316 H   0  0  0  0  0  0  0  0  0  0  0  0
    3.5106   -3.2512   25.9657 C   0  0  0  0  0  0  0  0  0  0  0  0
    3.2400   -3.7128   26.9212 H   0  0  0  0  0  0  0  0  0  0  0  0
    2.6958   -3.4482   25.2572 H   0  0  0  0  0  0  0  0  0  0  0  0
    3.5723   -2.1692   26.1259 H   0  0  0  0  0  0  0  0  0  0  0  0
    4.7552   -5.3105   25.1721 C   0  0  0  0  0  0  0  0  0  0  0  0
    3.9127   -5.5368   24.5069 H   0  0  0  0  0  0  0  0  0  0  0  0
    5.6744   -5.6515   24.6865 H   0  0  0  0  0  0  0  0  0  0  0  0
    4.6300   -5.8684   26.1079 H   0  0  0  0  0  0  0  0  0  0  0  0
    6.0046   -2.2076   22.3076 N   0  0  0  0  0  0  0  0  0  0  0  0
    7.2228   -1.8104   21.8585 N   0  0  0  0  0  0  0  0  0  0  0  0
    5.5999    0.2663   20.1901 C   0  0  0  0  0  0  0  0  0  0  0  0
    5.1958    0.0888   21.1861 H   0  0  0  0  0  0  0  0  0  0  0  0
    4.9453    1.0739   19.2629 C   0  0  0  0  0  0  0  0  0  0  0  0
    4.0397    1.6091   19.5182 H   0  0  0  0  0  0  0  0  0  0  0  0
  1  2  1  0
  2  3  2  0
  3  4  1  0
  4  5  1  0
  4  6  2  0
  6  7  1  0
  7  8  2  0
  8  9  1  0
  8 10  1  0
 10 11  2  0
 11 12  1  0
 12 13  1  0
 13 14  1  0
 14 15  1  0
 14 16  1  0
 16 17  1  0
 16 18  1  0
 18 19  1  0
 18 20  1  0
 18 21  1  0
 16 22  1  0
 22 23  1  0
 22 24  1  0
 22 25  1  0
 13 26  2  0
 26 27  1  0
  6 28  1  0
 28 29  1  0
 28 30  2  0
 30 31  1  0
 30  2  1  0
 27  7  1  0
 27 11  1  0
M  END
>  <cnnaffinity>  (1) 
-4.66777

>  <filename>  (1) 
CC(C)Nc1nn2c(-c3cccnc3)cnc2s1

$$$$
