
     RDKit          3D

 35 36  0  0  0  0  0  0  0  0999 V2000
    5.6208   -1.7423   21.7267 H   0  0  0  0  0  0  0  0  0  0  0  0
    6.6892   -1.6341   21.7558 C   0  0  0  0  0  0  0  0  0  0  0  0
    7.3384   -0.8152   20.9048 C   0  0  0  0  0  0  0  0  0  0  0  0
    6.6953    0.0187   19.8733 C   0  0  0  0  0  0  0  0  0  0  0  0
    7.2231    0.1020   18.5708 C   0  0  0  0  0  0  0  0  0  0  0  0
    8.1606   -0.3901   18.3235 H   0  0  0  0  0  0  0  0  0  0  0  0
    6.6197    0.7202   17.5493 N   0  0  0  0  0  0  0  0  0  0  0  0
    5.4506    1.3294   17.7969 C   0  0  0  0  0  0  0  0  0  0  0  0
    4.9722    1.8204   16.9491 H   0  0  0  0  0  0  0  0  0  0  0  0
    4.8502    1.3445   19.0601 C   0  0  0  0  0  0  0  0  0  0  0  0
    3.9059    1.8585   19.1961 H   0  0  0  0  0  0  0  0  0  0  0  0
    5.4837    0.6877   20.1175 C   0  0  0  0  0  0  0  0  0  0  0  0
    5.0637    0.7150   21.1244 H   0  0  0  0  0  0  0  0  0  0  0  0
    8.7255   -0.7592   20.9705 N   0  0  0  0  0  0  0  0  0  0  0  0
    9.2362   -0.0156   20.5280 H   0  0  0  0  0  0  0  0  0  0  0  0
    9.4805   -1.4345   21.8695 C   0  0  0  0  0  0  0  0  0  0  0  0
   11.0980   -1.1485   22.0303 S   0  0  0  0  0  0  0  0  0  0  0  0
    8.8396   -2.3593   22.6274 N   0  0  0  0  0  0  0  0  0  0  0  0
    9.3369   -2.4585   23.4948 H   0  0  0  0  0  0  0  0  0  0  0  0
    7.4173   -2.2842   22.8749 C   0  0  1  0  0  0  0  0  0  0  0  0
    7.0211   -3.3021   23.0303 H   0  0  0  0  0  0  0  0  0  0  0  0
    7.3417   -1.5858   24.1131 O   0  0  0  0  0  0  0  0  0  0  0  0
    6.1580   -1.8207   24.8808 C   0  0  0  0  0  0  0  0  0  0  0  0
    5.8492   -0.8495   25.2905 H   0  0  0  0  0  0  0  0  0  0  0  0
    5.3327   -2.1817   24.2499 H   0  0  0  0  0  0  0  0  0  0  0  0
    6.4114   -2.8462   25.9946 C   0  0  0  0  0  0  0  0  0  0  0  0
    6.8214   -3.7379   25.4923 H   0  0  0  0  0  0  0  0  0  0  0  0
    5.1021   -3.2726   26.6735 C   0  0  0  0  0  0  0  0  0  0  0  0
    5.2817   -4.0658   27.4089 H   0  0  0  0  0  0  0  0  0  0  0  0
    4.3909   -3.6655   25.9352 H   0  0  0  0  0  0  0  0  0  0  0  0
    4.6143   -2.4414   27.1996 H   0  0  0  0  0  0  0  0  0  0  0  0
    7.4724   -2.3426   26.9792 C   0  0  0  0  0  0  0  0  0  0  0  0
    7.7762   -3.1393   27.6649 H   0  0  0  0  0  0  0  0  0  0  0  0
    8.3621   -2.0082   26.4320 H   0  0  0  0  0  0  0  0  0  0  0  0
    7.1029   -1.4955   27.5733 H   0  0  0  0  0  0  0  0  0  0  0  0
  1  2  1  0
  2  3  2  0
  3  4  1  0
  4  5  2  0
  5  6  1  0
  5  7  1  0
  7  8  2  0
  8  9  1  0
  8 10  1  0
 10 11  1  0
 10 12  2  0
 12 13  1  0
  3 14  1  0
 14 15  1  0
 14 16  1  0
 16 17  2  0
 16 18  1  0
 18 19  1  0
 18 20  1  0
 20 21  1  1
 20 22  1  0
 22 23  1  0
 23 24  1  0
 23 25  1  0
 23 26  1  0
 26 27  1  0
 26 28  1  0
 28 29  1  0
 28 30  1  0
 28 31  1  0
 26 32  1  0
 32 33  1  0
 32 34  1  0
 32 35  1  0
 20  2  1  0
 12  4  1  0
M  END
>  <cnnaffinity>  (1) 
-4.80521

>  <filename>  (1) 
CC(C)CO[C@H]1C=C(c2cccnc2)NC(=S)N1

$$$$
