
     RDKit          3D

 35 36  0  0  0  0  0  0  0  0999 V2000
    9.9417   -2.3827   22.3397 H   0  0  0  0  0  0  0  0  0  0  0  0
    9.7822   -3.1020   22.9775 O   0  0  0  0  0  0  0  0  0  0  0  0
    9.0380   -2.5685   23.9696 C   0  0  0  0  0  0  0  0  0  0  0  0
    8.5113   -3.4081   24.9515 C   0  0  0  0  0  0  0  0  0  0  0  0
    8.7177   -4.4673   24.8765 H   0  0  0  0  0  0  0  0  0  0  0  0
    7.7428   -2.8685   25.9895 C   0  0  0  0  0  0  0  0  0  0  0  0
    7.0822   -3.9339   27.1871 Cl  0  0  0  0  0  0  0  0  0  0  0  0
    7.5062   -1.4981   26.0810 C   0  0  0  0  0  0  0  0  0  0  0  0
    6.9095   -1.0912   26.8914 H   0  0  0  0  0  0  0  0  0  0  0  0
    8.0457   -0.6606   25.1041 C   0  0  0  0  0  0  0  0  0  0  0  0
    7.9084    0.4101   25.1591 H   0  0  0  0  0  0  0  0  0  0  0  0
    8.7889   -1.1799   24.0503 C   0  0  0  0  0  0  0  0  0  0  0  0
    9.3581   -0.3686   23.0987 O   0  0  0  0  0  0  0  0  0  0  0  0
    8.5680    0.3132   22.1194 C   0  0  0  0  0  0  0  0  0  0  0  0
    7.7374    1.4376   22.7376 C   0  0  0  0  0  0  0  0  0  0  0  0
    7.3522    2.0908   21.9506 H   0  0  0  0  0  0  0  0  0  0  0  0
    6.8877    1.0735   23.3210 H   0  0  0  0  0  0  0  0  0  0  0  0
    8.3817    2.0492   23.3818 H   0  0  0  0  0  0  0  0  0  0  0  0
    9.6068    0.8828   21.1615 C   0  0  0  0  0  0  0  0  0  0  0  0
   10.2065    0.0791   20.7292 H   0  0  0  0  0  0  0  0  0  0  0  0
    9.1139    1.4355   20.3632 H   0  0  0  0  0  0  0  0  0  0  0  0
   10.2710    1.5679   21.7003 H   0  0  0  0  0  0  0  0  0  0  0  0
    7.4815   -0.9512   21.1741 S   0  0  0  0  0  0  0  0  0  0  0  0
    8.4450   -1.8288   20.5089 O   0  0  0  0  0  0  0  0  0  0  0  0
    6.4436   -1.4927   22.0404 O   0  0  0  0  0  0  0  0  0  0  0  0
    6.6328   -0.0259   19.9499 C   0  0  0  0  0  0  0  0  0  0  0  0
    7.1918   -0.0393   18.6842 C   0  0  0  0  0  0  0  0  0  0  0  0
    8.1123   -0.5846   18.4822 H   0  0  0  0  0  0  0  0  0  0  0  0
    6.6262    0.5952   17.6599 N   0  0  0  0  0  0  0  0  0  0  0  0
    5.4786    1.2557   17.8734 C   0  0  0  0  0  0  0  0  0  0  0  0
    5.0496    1.7784   17.0166 H   0  0  0  0  0  0  0  0  0  0  0  0
    4.8508    1.2992   19.1226 C   0  0  0  0  0  0  0  0  0  0  0  0
    3.9196    1.8402   19.2290 H   0  0  0  0  0  0  0  0  0  0  0  0
    5.4365    0.6468   20.2025 C   0  0  0  0  0  0  0  0  0  0  0  0
    4.9583    0.6448   21.1860 H   0  0  0  0  0  0  0  0  0  0  0  0
  1  2  1  0
  2  3  1  0
  3  4  2  0
  4  5  1  0
  4  6  1  0
  6  7  1  0
  6  8  2  0
  8  9  1  0
  8 10  1  0
 10 11  1  0
 10 12  2  0
 12 13  1  0
 13 14  1  0
 14 15  1  0
 15 16  1  0
 15 17  1  0
 15 18  1  0
 14 19  1  0
 19 20  1  0
 19 21  1  0
 19 22  1  0
 14 23  1  0
 23 24  2  0
 23 25  2  0
 23 26  1  0
 26 27  2  0
 27 28  1  0
 27 29  1  0
 29 30  2  0
 30 31  1  0
 30 32  1  0
 32 33  1  0
 32 34  2  0
 34 35  1  0
 12  3  1  0
 34 26  1  0
M  END
>  <cnnaffinity>  (1) 
-5.13546

>  <filename>  (1) 
CC(C)(Oc1ccc(Cl)cc1O)S(=O)(=O)c1cccnc1

$$$$
