
     RDKit          3D

 31 32  0  0  0  0  0  0  0  0999 V2000
    4.9084    1.7700   17.0078 H   0  0  0  0  0  0  0  0  0  0  0  0
    5.4034    1.2885   17.8487 C   0  0  0  0  0  0  0  0  0  0  0  0
    6.5714    0.6779   17.5933 N   0  0  0  0  0  0  0  0  0  0  0  0
    7.1839    0.0574   18.6051 C   0  0  0  0  0  0  0  0  0  0  0  0
    8.1309   -0.4357   18.3797 H   0  0  0  0  0  0  0  0  0  0  0  0
    6.6587    0.0099   19.9029 C   0  0  0  0  0  0  0  0  0  0  0  0
    7.3943   -0.7026   20.9427 C   0  0  0  0  0  0  0  0  0  0  0  0
    8.5271   -1.3221   20.7392 N   0  0  0  0  0  0  0  0  0  0  0  0
    8.8302   -1.8366   21.9861 O   0  0  0  0  0  0  0  0  0  0  0  0
    7.8440   -1.4790   22.8168 C   0  0  0  0  0  0  0  0  0  0  0  0
    7.9065   -1.9015   24.2523 C   0  0  0  0  0  0  0  0  0  0  0  0
    6.9823   -1.5564   24.7291 H   0  0  0  0  0  0  0  0  0  0  0  0
    8.7292   -1.3552   24.7286 H   0  0  0  0  0  0  0  0  0  0  0  0
    8.0854   -3.4129   24.4693 C   0  0  0  0  0  0  0  0  0  0  0  0
    8.4964   -3.5499   25.4775 H   0  0  0  0  0  0  0  0  0  0  0  0
    8.8446   -3.8001   23.7705 H   0  0  0  0  0  0  0  0  0  0  0  0
    6.7877   -4.2377   24.3457 C   0  0  0  0  0  0  0  0  0  0  0  0
    6.0292   -3.7831   25.0080 H   0  0  0  0  0  0  0  0  0  0  0  0
    6.2195   -4.2502   22.9216 C   0  0  0  0  0  0  0  0  0  0  0  0
    6.9921   -4.5540   22.2005 H   0  0  0  0  0  0  0  0  0  0  0  0
    5.3860   -4.9584   22.8424 H   0  0  0  0  0  0  0  0  0  0  0  0
    5.8401   -3.2645   22.6302 H   0  0  0  0  0  0  0  0  0  0  0  0
    7.0288   -5.6657   24.8353 C   0  0  0  0  0  0  0  0  0  0  0  0
    7.7781   -6.1648   24.2058 H   0  0  0  0  0  0  0  0  0  0  0  0
    6.1018   -6.2497   24.7979 H   0  0  0  0  0  0  0  0  0  0  0  0
    7.3893   -5.6726   25.8706 H   0  0  0  0  0  0  0  0  0  0  0  0
    6.9296   -0.7752   22.2356 N   0  0  0  0  0  0  0  0  0  0  0  0
    5.4405    0.6525   20.1615 C   0  0  0  0  0  0  0  0  0  0  0  0
    5.0081    0.6290   21.1604 H   0  0  0  0  0  0  0  0  0  0  0  0
    4.8060    1.3105   19.1141 C   0  0  0  0  0  0  0  0  0  0  0  0
    3.8726    1.8449   19.2676 H   0  0  0  0  0  0  0  0  0  0  0  0
  1  2  1  0
  2  3  2  0
  3  4  1  0
  4  5  1  0
  4  6  2  0
  6  7  1  0
  7  8  2  0
  8  9  1  0
  9 10  1  0
 10 11  1  0
 11 12  1  0
 11 13  1  0
 11 14  1  0
 14 15  1  0
 14 16  1  0
 14 17  1  0
 17 18  1  0
 17 19  1  0
 19 20  1  0
 19 21  1  0
 19 22  1  0
 17 23  1  0
 23 24  1  0
 23 25  1  0
 23 26  1  0
 10 27  2  0
  6 28  1  0
 28 29  1  0
 28 30  2  0
 30 31  1  0
 30  2  1  0
 27  7  1  0
M  END
>  <cnnaffinity>  (1) 
-4.97579

>  <filename>  (1) 
CC(C)CCc1nc(-c2cccnc2)no1

$$$$
