
     RDKit          3D

 35 37  0  0  0  0  0  0  0  0999 V2000
    4.9123    1.8196   16.9662 H   0  0  0  0  0  0  0  0  0  0  0  0
    5.3738    1.3073   17.8125 C   0  0  0  0  0  0  0  0  0  0  0  0
    6.5359    0.6857   17.5576 N   0  0  0  0  0  0  0  0  0  0  0  0
    7.1490    0.0783   18.5778 C   0  0  0  0  0  0  0  0  0  0  0  0
    8.0996   -0.3870   18.3263 H   0  0  0  0  0  0  0  0  0  0  0  0
    6.6630    0.0284   19.9060 C   0  0  0  0  0  0  0  0  0  0  0  0
    7.4255   -0.6678   20.9641 C   0  0  0  0  0  0  0  0  0  0  0  0
    8.3548   -1.6822   20.9096 C   0  0  0  0  0  0  0  0  0  0  0  0
    8.7711   -2.1015   20.0119 H   0  0  0  0  0  0  0  0  0  0  0  0
    8.8165   -2.0878   22.1309 N   0  0  0  0  0  0  0  0  0  0  0  0
    8.1923   -1.2810   22.9506 C   0  0  0  0  0  0  0  0  0  0  0  0
    8.2762   -0.9173   24.6386 S   0  0  0  0  0  0  0  0  0  0  0  0
    7.1569    0.4073   24.3040 C   0  0  0  0  0  0  0  0  0  0  0  0
    6.7959    1.3698   25.3807 C   0  0  0  0  0  0  0  0  0  0  0  0
    6.6354    0.7962   26.2982 H   0  0  0  0  0  0  0  0  0  0  0  0
    5.8451    1.8345   25.0921 H   0  0  0  0  0  0  0  0  0  0  0  0
    7.8857    2.4437   25.6088 C   0  0  0  0  0  0  0  0  0  0  0  0
    8.8112    1.9507   25.9443 H   0  0  0  0  0  0  0  0  0  0  0  0
    7.5583    3.0877   26.4387 H   0  0  0  0  0  0  0  0  0  0  0  0
    8.2112    3.3201   24.3817 C   0  0  0  0  0  0  0  0  0  0  0  0
    8.5189    2.6506   23.5604 H   0  0  0  0  0  0  0  0  0  0  0  0
    6.9957    4.1268   23.9043 C   0  0  0  0  0  0  0  0  0  0  0  0
    7.2812    4.8040   23.0900 H   0  0  0  0  0  0  0  0  0  0  0  0
    6.1964    3.4759   23.5269 H   0  0  0  0  0  0  0  0  0  0  0  0
    6.5829    4.7395   24.7189 H   0  0  0  0  0  0  0  0  0  0  0  0
    9.3956    4.2442   24.6908 C   0  0  0  0  0  0  0  0  0  0  0  0
    9.6573    4.8576   23.8209 H   0  0  0  0  0  0  0  0  0  0  0  0
   10.2815    3.6575   24.9514 H   0  0  0  0  0  0  0  0  0  0  0  0
    9.1708    4.9233   25.5252 H   0  0  0  0  0  0  0  0  0  0  0  0
    6.7507    0.5374   23.0864 N   0  0  0  0  0  0  0  0  0  0  0  0
    7.3400   -0.4194   22.3287 N   0  0  0  0  0  0  0  0  0  0  0  0
    5.4300    0.6679   20.1399 C   0  0  0  0  0  0  0  0  0  0  0  0
    5.0120    0.6607   21.1435 H   0  0  0  0  0  0  0  0  0  0  0  0
    4.7847    1.3156   19.0811 C   0  0  0  0  0  0  0  0  0  0  0  0
    3.8514    1.8513   19.2233 H   0  0  0  0  0  0  0  0  0  0  0  0
  1  2  1  0
  2  3  2  0
  3  4  1  0
  4  5  1  0
  4  6  2  0
  6  7  1  0
  7  8  2  0
  8  9  1  0
  8 10  1  0
 10 11  2  0
 11 12  1  0
 12 13  1  0
 13 14  1  0
 14 15  1  0
 14 16  1  0
 14 17  1  0
 17 18  1  0
 17 19  1  0
 17 20  1  0
 20 21  1  0
 20 22  1  0
 22 23  1  0
 22 24  1  0
 22 25  1  0
 20 26  1  0
 26 27  1  0
 26 28  1  0
 26 29  1  0
 13 30  2  0
 30 31  1  0
  6 32  1  0
 32 33  1  0
 32 34  2  0
 34 35  1  0
 34  2  1  0
 31  7  1  0
 31 11  1  0
M  END
>  <cnnaffinity>  (1) 
-5.20695

>  <filename>  (1) 
CC(C)CCc1nn2c(-c3cccnc3)cnc2s1

$$$$
