
     RDKit          3D

 36 38  0  0  0  0  0  0  0  0999 V2000
    4.9449    1.7932   16.9646 H   0  0  0  0  0  0  0  0  0  0  0  0
    5.4014    1.2891   17.8137 C   0  0  0  0  0  0  0  0  0  0  0  0
    6.5608    0.6666   17.5708 N   0  0  0  0  0  0  0  0  0  0  0  0
    7.1693    0.0695   18.6092 C   0  0  0  0  0  0  0  0  0  0  0  0
    8.1169   -0.4081   18.3605 H   0  0  0  0  0  0  0  0  0  0  0  0
    6.6707    0.0421   19.9184 C   0  0  0  0  0  0  0  0  0  0  0  0
    7.3782   -0.7466   21.0354 C   0  0  0  0  0  0  0  0  0  0  0  0
    7.2213   -0.0878   22.3185 N   0  0  0  0  0  0  0  0  0  0  0  0
    6.6602   -0.5385   23.0219 H   0  0  0  0  0  0  0  0  0  0  0  0
    7.7132    1.1412   22.7002 C   0  0  0  0  0  0  0  0  0  0  0  0
    8.1410    2.1078   21.7855 C   0  0  0  0  0  0  0  0  0  0  0  0
    8.0810    1.9031   20.7248 H   0  0  0  0  0  0  0  0  0  0  0  0
    8.6118    3.3605   22.2265 C   0  0  0  0  0  0  0  0  0  0  0  0
    8.8303    4.1290   21.5015 H   0  0  0  0  0  0  0  0  0  0  0  0
    8.7292    3.6585   23.5766 C   0  0  0  0  0  0  0  0  0  0  0  0
    9.1413    4.6120   23.8834 H   0  0  0  0  0  0  0  0  0  0  0  0
    8.2729    2.6939   24.4912 C   0  0  0  0  0  0  0  0  0  0  0  0
    7.7385    1.4450   24.0954 C   0  0  0  0  0  0  0  0  0  0  0  0
    7.3607    0.7598   25.3124 C   0  0  0  0  0  0  0  0  0  0  0  0
    6.9304   -0.2329   25.4164 H   0  0  0  0  0  0  0  0  0  0  0  0
    7.6787    1.5886   26.3512 C   0  0  0  0  0  0  0  0  0  0  0  0
    7.5782    1.4579   27.4221 H   0  0  0  0  0  0  0  0  0  0  0  0
    8.2274    2.7505   25.8583 N   0  0  0  0  0  0  0  0  0  0  0  0
    8.5430    3.5457   26.3842 H   0  0  0  0  0  0  0  0  0  0  0  0
    6.6950   -2.1180   21.1281 C   0  0  0  0  0  0  0  0  0  0  0  0
    7.1458   -2.7434   21.9068 H   0  0  0  0  0  0  0  0  0  0  0  0
    5.6218   -2.0142   21.3269 H   0  0  0  0  0  0  0  0  0  0  0  0
    6.7997   -2.6423   20.1732 H   0  0  0  0  0  0  0  0  0  0  0  0
    8.8898   -0.9529   20.7908 C   0  0  0  0  0  0  0  0  0  0  0  0
    9.0783   -1.6627   19.9800 H   0  0  0  0  0  0  0  0  0  0  0  0
    9.3970   -0.0098   20.5613 H   0  0  0  0  0  0  0  0  0  0  0  0
    9.3369   -1.3606   21.7043 H   0  0  0  0  0  0  0  0  0  0  0  0
    5.4324    0.6752   20.1384 C   0  0  0  0  0  0  0  0  0  0  0  0
    4.9796    0.6756   21.1327 H   0  0  0  0  0  0  0  0  0  0  0  0
    4.7971    1.3167   19.0760 C   0  0  0  0  0  0  0  0  0  0  0  0
    3.8610    1.8461   19.2179 H   0  0  0  0  0  0  0  0  0  0  0  0
  1  2  1  0
  2  3  2  0
  3  4  1  0
  4  5  1  0
  4  6  2  0
  6  7  1  0
  7  8  1  0
  8  9  1  0
  8 10  1  0
 10 11  2  0
 11 12  1  0
 11 13  1  0
 13 14  1  0
 13 15  2  0
 15 16  1  0
 15 17  1  0
 17 18  2  0
 18 19  1  0
 19 20  1  0
 19 21  2  0
 21 22  1  0
 21 23  1  0
 23 24  1  0
  7 25  1  0
 25 26  1  0
 25 27  1  0
 25 28  1  0
  7 29  1  0
 29 30  1  0
 29 31  1  0
 29 32  1  0
  6 33  1  0
 33 34  1  0
 33 35  2  0
 35 36  1  0
 35  2  1  0
 18 10  1  0
 23 17  1  0
M  END
>  <cnnaffinity>  (1) 
-5.00272

>  <filename>  (1) 
CC(C)(Nc1cccc2[nH]ccc12)c1cccnc1

$$$$
