
     RDKit          3D

 33 35  0  0  0  0  0  0  0  0999 V2000
    4.9380    1.7952   16.9873 H   0  0  0  0  0  0  0  0  0  0  0  0
    5.3998    1.2889   17.8333 C   0  0  0  0  0  0  0  0  0  0  0  0
    6.5600    0.6630   17.5842 N   0  0  0  0  0  0  0  0  0  0  0  0
    7.1632    0.0463   18.6012 C   0  0  0  0  0  0  0  0  0  0  0  0
    8.1088   -0.4386   18.3630 H   0  0  0  0  0  0  0  0  0  0  0  0
    6.6421    0.0254   19.9097 C   0  0  0  0  0  0  0  0  0  0  0  0
    7.3979   -0.6578   20.9578 C   0  0  0  0  0  0  0  0  0  0  0  0
    8.2973   -1.5860   20.7363 N   0  0  0  0  0  0  0  0  0  0  0  0
    8.8063   -2.0194   21.9372 N   0  0  0  0  0  0  0  0  0  0  0  0
    8.1948   -1.3191   22.8489 C   0  0  0  0  0  0  0  0  0  0  0  0
    8.2859   -1.1415   24.5715 S   0  0  0  0  0  0  0  0  0  0  0  0
    7.0660    0.1524   24.3973 C   0  0  0  0  0  0  0  0  0  0  0  0
    6.5772    0.9034   25.4024 N   0  0  0  0  0  0  0  0  0  0  0  0
    5.9291    1.5901   25.0446 H   0  0  0  0  0  0  0  0  0  0  0  0
    6.8973    0.8363   26.8218 C   0  0  0  0  0  0  0  0  0  0  0  0
    8.3788    1.1297   27.0570 C   0  0  0  0  0  0  0  0  0  0  0  0
    9.0280    0.3591   26.6333 H   0  0  0  0  0  0  0  0  0  0  0  0
    8.6572    2.0947   26.6167 H   0  0  0  0  0  0  0  0  0  0  0  0
    8.5168    1.1587   28.1418 H   0  0  0  0  0  0  0  0  0  0  0  0
    6.5408   -0.5493   27.3796 C   0  0  0  0  0  0  0  0  0  0  0  0
    7.1746   -1.3260   26.9435 H   0  0  0  0  0  0  0  0  0  0  0  0
    5.4956   -0.7821   27.1501 H   0  0  0  0  0  0  0  0  0  0  0  0
    6.6770   -0.5584   28.4667 H   0  0  0  0  0  0  0  0  0  0  0  0
    6.0796    1.8974   27.5599 C   0  0  0  0  0  0  0  0  0  0  0  0
    5.0032    1.7241   27.4525 H   0  0  0  0  0  0  0  0  0  0  0  0
    6.3176    1.8476   28.6313 H   0  0  0  0  0  0  0  0  0  0  0  0
    6.3272    2.9107   27.2199 H   0  0  0  0  0  0  0  0  0  0  0  0
    6.6328    0.3922   23.1862 N   0  0  0  0  0  0  0  0  0  0  0  0
    7.2919   -0.4542   22.3240 N   0  0  0  0  0  0  0  0  0  0  0  0
    5.4202    0.6642   20.1582 C   0  0  0  0  0  0  0  0  0  0  0  0
    5.0021    0.6626   21.1647 H   0  0  0  0  0  0  0  0  0  0  0  0
    4.7946    1.3085   19.0942 C   0  0  0  0  0  0  0  0  0  0  0  0
    3.8663    1.8464   19.2339 H   0  0  0  0  0  0  0  0  0  0  0  0
  1  2  1  0
  2  3  2  0
  3  4  1  0
  4  5  1  0
  4  6  2  0
  6  7  1  0
  7  8  2  0
  8  9  1  0
  9 10  2  0
 10 11  1  0
 11 12  1  0
 12 13  1  0
 13 14  1  0
 13 15  1  0
 15 16  1  0
 16 17  1  0
 16 18  1  0
 16 19  1  0
 15 20  1  0
 20 21  1  0
 20 22  1  0
 20 23  1  0
 15 24  1  0
 24 25  1  0
 24 26  1  0
 24 27  1  0
 12 28  2  0
 28 29  1  0
  6 30  1  0
 30 31  1  0
 30 32  2  0
 32 33  1  0
 32  2  1  0
 29  7  1  0
 29 10  1  0
M  END
>  <cnnaffinity>  (1) 
-4.86308

>  <filename>  (1) 
CC(C)(C)Nc1nn2c(-c3cccnc3)nnc2s1

$$$$
