
     RDKit          3D

 40 42  0  0  0  0  0  0  0  0999 V2000
    4.9647    1.8108   17.0120 H   0  0  0  0  0  0  0  0  0  0  0  0
    5.4150    1.2882   17.8527 C   0  0  0  0  0  0  0  0  0  0  0  0
    6.5727    0.6542   17.6132 N   0  0  0  0  0  0  0  0  0  0  0  0
    7.1538    0.0247   18.6413 C   0  0  0  0  0  0  0  0  0  0  0  0
    8.0942   -0.4720   18.3986 H   0  0  0  0  0  0  0  0  0  0  0  0
    6.6117   -0.0430   19.9411 C   0  0  0  0  0  0  0  0  0  0  0  0
    7.3707   -0.7624   21.0003 C   0  0  0  0  0  0  0  0  0  0  0  0
    6.5993   -1.3638   21.9662 O   0  0  0  0  0  0  0  0  0  0  0  0
    7.1962   -2.0466   23.0104 C   0  0  0  0  0  0  0  0  0  0  0  0
    6.2493   -2.6649   23.9858 C   0  0  0  0  0  0  0  0  0  0  0  0
    4.9806   -3.1589   23.6018 C   0  0  0  0  0  0  0  0  0  0  0  0
    4.7059   -3.1735   22.5492 H   0  0  0  0  0  0  0  0  0  0  0  0
    4.0646   -3.5740   24.5588 C   0  0  0  0  0  0  0  0  0  0  0  0
    3.0467   -3.8620   24.3197 H   0  0  0  0  0  0  0  0  0  0  0  0
    4.4245   -3.6257   25.9153 C   0  0  0  0  0  0  0  0  0  0  0  0
    3.4363   -4.0676   26.7371 O   0  0  0  0  0  0  0  0  0  0  0  0
    3.6592   -4.2630   28.1362 C   0  0  0  0  0  0  0  0  0  0  0  0
    4.6455   -4.7246   28.2752 H   0  0  0  0  0  0  0  0  0  0  0  0
    3.5783   -2.9358   28.8748 C   0  0  0  0  0  0  0  0  0  0  0  0
    2.5997   -2.4733   28.7050 H   0  0  0  0  0  0  0  0  0  0  0  0
    4.3404   -2.2327   28.5320 H   0  0  0  0  0  0  0  0  0  0  0  0
    3.7152   -3.0931   29.9501 H   0  0  0  0  0  0  0  0  0  0  0  0
    2.5927   -5.2340   28.6095 C   0  0  0  0  0  0  0  0  0  0  0  0
    2.7030   -5.4409   29.6793 H   0  0  0  0  0  0  0  0  0  0  0  0
    1.6005   -4.8095   28.4362 H   0  0  0  0  0  0  0  0  0  0  0  0
    2.6548   -6.1801   28.0691 H   0  0  0  0  0  0  0  0  0  0  0  0
    5.7206   -3.2661   26.3010 C   0  0  0  0  0  0  0  0  0  0  0  0
    6.0089   -3.3196   27.3436 H   0  0  0  0  0  0  0  0  0  0  0  0
    6.6048   -2.7561   25.3459 C   0  0  0  0  0  0  0  0  0  0  0  0
    7.5690   -2.3968   25.7024 H   0  0  0  0  0  0  0  0  0  0  0  0
    8.5412   -2.1434   23.1025 C   0  0  0  0  0  0  0  0  0  0  0  0
    9.0356   -2.6664   23.9080 H   0  0  0  0  0  0  0  0  0  0  0  0
    9.4141   -1.5270   22.1107 C   0  0  0  0  0  0  0  0  0  0  0  0
   10.6311   -1.5933   22.1681 O   0  0  0  0  0  0  0  0  0  0  0  0
    8.7165   -0.8217   21.0421 C   0  0  0  0  0  0  0  0  0  0  0  0
    9.3384   -0.3439   20.3035 H   0  0  0  0  0  0  0  0  0  0  0  0
    5.3913    0.6226   20.1639 C   0  0  0  0  0  0  0  0  0  0  0  0
    4.9419    0.6188   21.1559 H   0  0  0  0  0  0  0  0  0  0  0  0
    4.7905    1.3015   19.1037 C   0  0  0  0  0  0  0  0  0  0  0  0
    3.8615    1.8486   19.2338 H   0  0  0  0  0  0  0  0  0  0  0  0
  1  2  1  0
  2  3  2  0
  3  4  1  0
  4  5  1  0
  4  6  2  0
  6  7  1  0
  7  8  1  0
  8  9  1  0
  9 10  1  0
 10 11  2  0
 11 12  1  0
 11 13  1  0
 13 14  1  0
 13 15  2  0
 15 16  1  0
 16 17  1  0
 17 18  1  0
 17 19  1  0
 19 20  1  0
 19 21  1  0
 19 22  1  0
 17 23  1  0
 23 24  1  0
 23 25  1  0
 23 26  1  0
 15 27  1  0
 27 28  1  0
 27 29  2  0
 29 30  1  0
  9 31  2  0
 31 32  1  0
 31 33  1  0
 33 34  2  0
 33 35  1  0
 35 36  1  0
  6 37  1  0
 37 38  1  0
 37 39  2  0
 39 40  1  0
 39  2  1  0
 35  7  2  0
 29 10  1  0
M  END
>  <cnnaffinity>  (1) 
-5.35917

>  <filename>  (1) 
CC(C)Oc1ccc(-c2cc(=O)cc(-c3cccnc3)o2)cc1

$$$$
