
     RDKit          3D

 38 40  0  0  0  0  0  0  0  0999 V2000
    5.8104   -3.0851   23.8128 C   0  0  0  0  0  0  0  0  0  0  0  0
    6.8999   -3.5381   24.7889 C   0  0  0  0  0  0  0  0  0  0  0  0
    7.6787   -4.7037   24.2023 C   0  0  0  0  0  0  0  0  0  0  0  0
    7.0015   -5.5227   23.9430 H   0  0  0  0  0  0  0  0  0  0  0  0
    8.2006   -4.3792   23.2985 H   0  0  0  0  0  0  0  0  0  0  0  0
    8.4201   -5.0652   24.9173 H   0  0  0  0  0  0  0  0  0  0  0  0
    6.2161   -4.0720   25.9274 O   0  0  0  0  0  0  0  0  0  0  0  0
    5.7089   -3.3267   26.2784 H   0  0  0  0  0  0  0  0  0  0  0  0
    7.8745   -2.4042   25.2345 C   0  0  0  0  0  0  0  0  0  0  0  0
    8.3474   -2.3924   26.5630 C   0  0  0  0  0  0  0  0  0  0  0  0
    9.2316   -1.4160   27.0210 C   0  0  0  0  0  0  0  0  0  0  0  0
    9.6976   -0.4258   26.1522 C   0  0  0  0  0  0  0  0  0  0  0  0
    9.2774   -0.4466   24.8252 C   0  0  0  0  0  0  0  0  0  0  0  0
    8.3904   -1.4320   24.3494 C   0  0  0  0  0  0  0  0  0  0  0  0
    8.0891   -1.3570   22.9000 C   0  0  0  0  0  0  0  0  0  0  0  0
    7.2470   -0.4744   22.2688 C   0  0  0  0  0  0  0  0  0  0  0  0
    7.3649   -0.6769   20.9307 N   0  0  0  0  0  0  0  0  0  0  0  0
    6.6611   -0.0013   19.9072 C   0  0  0  0  0  0  0  0  0  0  0  0
    5.4427    0.6427   20.1684 C   0  0  0  0  0  0  0  0  0  0  0  0
    4.8151    1.3004   19.1095 C   0  0  0  0  0  0  0  0  0  0  0  0
    5.4066    1.2885   17.8422 C   0  0  0  0  0  0  0  0  0  0  0  0
    6.5720    0.6694   17.5905 N   0  0  0  0  0  0  0  0  0  0  0  0
    7.1835    0.0459   18.6012 C   0  0  0  0  0  0  0  0  0  0  0  0
    8.1286   -0.4328   18.3671 H   0  0  0  0  0  0  0  0  0  0  0  0
    4.9312    1.7814   16.9978 H   0  0  0  0  0  0  0  0  0  0  0  0
    3.8857    1.8332   19.2621 H   0  0  0  0  0  0  0  0  0  0  0  0
    4.9920    0.6255   21.1632 H   0  0  0  0  0  0  0  0  0  0  0  0
    8.2926   -1.6130   20.6487 N   0  0  0  0  0  0  0  0  0  0  0  0
    8.7278   -2.0215   21.8307 C   0  0  0  0  0  0  0  0  0  0  0  0
    9.5142   -2.7637   21.8909 H   0  0  0  0  0  0  0  0  0  0  0  0
    6.5772    0.2746   22.6715 H   0  0  0  0  0  0  0  0  0  0  0  0
    9.6331    0.2947   24.1145 H   0  0  0  0  0  0  0  0  0  0  0  0
   10.3813    0.3463   26.5037 H   0  0  0  0  0  0  0  0  0  0  0  0
    9.5592   -1.4118   28.0569 H   0  0  0  0  0  0  0  0  0  0  0  0
    7.9896   -3.1727   27.2297 H   0  0  0  0  0  0  0  0  0  0  0  0
    5.4750   -2.0939   24.1100 H   0  0  0  0  0  0  0  0  0  0  0  0
    4.9693   -3.7852   23.8565 H   0  0  0  0  0  0  0  0  0  0  0  0
    6.1425   -3.0338   22.7728 H   0  0  0  0  0  0  0  0  0  0  0  0
  1  2  1  0
  2  3  1  0
  3  4  1  0
  3  5  1  0
  3  6  1  0
  2  7  1  0
  7  8  1  0
  2  9  1  0
  9 10  2  0
 10 11  1  0
 11 12  2  0
 12 13  1  0
 13 14  2  0
 14 15  1  0
 15 16  2  0
 16 17  1  0
 17 18  1  0
 18 19  2  0
 19 20  1  0
 20 21  2  0
 21 22  1  0
 22 23  2  0
 23 24  1  0
 21 25  1  0
 20 26  1  0
 19 27  1  0
 17 28  1  0
 28 29  2  0
 29 30  1  0
 16 31  1  0
 13 32  1  0
 12 33  1  0
 11 34  1  0
 10 35  1  0
  1 36  1  0
  1 37  1  0
  1 38  1  0
 14  9  1  0
 29 15  1  0
 23 18  1  0
M  END
>  <cnnaffinity>  (1) 
-5.33252

>  <filename>  (1) 
CC(C)(O)c1ccccc1-c1cnn(-c2cccnc2)c1

$$$$
