
     RDKit          3D

 47 50  0  0  0  0  0  0  0  0999 V2000
    5.0284    1.8072   16.8660 H   0  0  0  0  0  0  0  0  0  0  0  0
    5.3744    1.2896   17.7587 C   0  0  0  0  0  0  0  0  0  0  0  0
    6.5230    0.6084   17.6330 N   0  0  0  0  0  0  0  0  0  0  0  0
    6.9906   -0.0069   18.7236 C   0  0  0  0  0  0  0  0  0  0  0  0
    7.9171   -0.5645   18.5923 H   0  0  0  0  0  0  0  0  0  0  0  0
    6.3612    0.0051   19.9843 C   0  0  0  0  0  0  0  0  0  0  0  0
    7.0920   -0.5949   21.1141 C   0  0  0  0  0  0  0  0  0  0  0  0
    8.4583   -0.6409   21.3099 C   0  0  0  0  0  0  0  0  0  0  0  0
    8.6492   -1.2856   22.5237 C   0  0  0  0  0  0  0  0  0  0  0  0
    7.5161   -1.6573   23.0904 N   0  0  0  0  0  0  0  0  0  0  0  0
    6.5745   -1.2146   22.2143 N   0  0  0  0  0  0  0  0  0  0  0  0
    5.5978   -1.3919   22.4182 H   0  0  0  0  0  0  0  0  0  0  0  0
   10.0985   -1.3765   22.9052 C   0  0  0  0  0  0  0  0  0  0  0  0
   10.2745   -1.0620   23.9386 H   0  0  0  0  0  0  0  0  0  0  0  0
   10.4605   -2.4071   22.8251 H   0  0  0  0  0  0  0  0  0  0  0  0
   10.8059   -0.4420   21.8545 C   0  0  2  0  0  0  0  0  0  0  0  0
   11.6721   -0.9582   21.4284 H   0  0  0  0  0  0  0  0  0  0  0  0
   11.2897    0.8565   22.4749 C   0  0  0  0  0  0  0  0  0  0  0  0
   12.6462    1.2152   22.5210 C   0  0  0  0  0  0  0  0  0  0  0  0
   13.4010    0.5126   22.1670 H   0  0  0  0  0  0  0  0  0  0  0  0
   13.0373    2.4769   22.9832 C   0  0  0  0  0  0  0  0  0  0  0  0
   14.0921    2.7342   23.0317 H   0  0  0  0  0  0  0  0  0  0  0  0
   12.0889    3.4412   23.3726 C   0  0  0  0  0  0  0  0  0  0  0  0
   12.4203    4.9284   23.6226 C   0  0  0  0  0  0  0  0  0  0  0  0
   13.8690    5.2792   23.2085 C   0  0  0  0  0  0  0  0  0  0  0  0
   14.1440    4.8067   22.2573 H   0  0  0  0  0  0  0  0  0  0  0  0
   13.9739    6.3626   23.0689 H   0  0  0  0  0  0  0  0  0  0  0  0
   14.5846    4.9398   23.9706 H   0  0  0  0  0  0  0  0  0  0  0  0
   12.2066    5.3263   25.0970 C   0  0  0  0  0  0  0  0  0  0  0  0
   12.8159    4.7695   25.8109 H   0  0  0  0  0  0  0  0  0  0  0  0
   11.1518    5.2007   25.3701 H   0  0  0  0  0  0  0  0  0  0  0  0
   12.4631    6.3882   25.1959 H   0  0  0  0  0  0  0  0  0  0  0  0
   11.4406    5.8198   22.8162 C   0  0  0  0  0  0  0  0  0  0  0  0
   10.4061    5.4774   22.8823 H   0  0  0  0  0  0  0  0  0  0  0  0
   11.7130    5.8489   21.7586 H   0  0  0  0  0  0  0  0  0  0  0  0
   11.4206    6.8312   23.2296 H   0  0  0  0  0  0  0  0  0  0  0  0
   10.7503    3.0153   23.4536 C   0  0  0  0  0  0  0  0  0  0  0  0
    9.9877    3.6853   23.8388 H   0  0  0  0  0  0  0  0  0  0  0  0
   10.3544    1.7625   23.0020 C   0  0  0  0  0  0  0  0  0  0  0  0
    9.2976    1.5111   23.0160 H   0  0  0  0  0  0  0  0  0  0  0  0
    9.7494   -0.1833   20.7145 C   0  0  0  0  0  0  0  0  0  0  0  0
    9.9767   -0.7557   19.8105 H   0  0  0  0  0  0  0  0  0  0  0  0
    9.7240    0.8693   20.4035 H   0  0  0  0  0  0  0  0  0  0  0  0
    5.1343    0.6834   20.0813 C   0  0  0  0  0  0  0  0  0  0  0  0
    4.5931    0.7215   21.0277 H   0  0  0  0  0  0  0  0  0  0  0  0
    4.6424    1.3418   18.9520 C   0  0  0  0  0  0  0  0  0  0  0  0
    3.7234    1.9156   18.9829 H   0  0  0  0  0  0  0  0  0  0  0  0
  1  2  1  0
  2  3  2  0
  3  4  1  0
  4  5  1  0
  4  6  2  0
  6  7  1  0
  7  8  2  0
  8  9  1  0
  9 10  2  0
 10 11  1  0
 11 12  1  0
  9 13  1  0
 13 14  1  0
 13 15  1  0
 13 16  1  0
 16 17  1  6
 16 18  1  0
 18 19  2  0
 19 20  1  0
 19 21  1  0
 21 22  1  0
 21 23  2  0
 23 24  1  0
 24 25  1  0
 25 26  1  0
 25 27  1  0
 25 28  1  0
 24 29  1  0
 29 30  1  0
 29 31  1  0
 29 32  1  0
 24 33  1  0
 33 34  1  0
 33 35  1  0
 33 36  1  0
 23 37  1  0
 37 38  1  0
 37 39  2  0
 39 40  1  0
 16 41  1  0
 41 42  1  0
 41 43  1  0
  6 44  1  0
 44 45  1  0
 44 46  2  0
 46 47  1  0
 46  2  1  0
 11  7  1  0
 39 18  1  0
 41  8  1  0
M  END
>  <cnnaffinity>  (1) 
-5.99129

>  <filename>  (1) 
CC(C)(C)c1ccc([C@H]2Cc3n[nH]c(-c4cccnc4)c3C2)cc1

$$$$
