
     RDKit          3D

 42 44  0  0  0  0  0  0  0  0999 V2000
    4.9114    1.7989   16.9792 H   0  0  0  0  0  0  0  0  0  0  0  0
    5.3880    1.3054   17.8198 C   0  0  0  0  0  0  0  0  0  0  0  0
    6.5529    0.6907   17.5507 N   0  0  0  0  0  0  0  0  0  0  0  0
    7.1579    0.0651   18.5666 C   0  0  0  0  0  0  0  0  0  0  0  0
    8.1152   -0.4000   18.3351 H   0  0  0  0  0  0  0  0  0  0  0  0
    6.6502    0.0130   19.8823 C   0  0  0  0  0  0  0  0  0  0  0  0
    7.3697   -0.6572   20.9721 C   0  0  0  0  0  0  0  0  0  0  0  0
    7.5153   -0.3225   22.3134 C   0  0  0  0  0  0  0  0  0  0  0  0
    7.0302    0.8367   22.9256 N   0  0  0  0  0  0  0  0  0  0  0  0
    6.9846    1.6486   22.3339 H   0  0  0  0  0  0  0  0  0  0  0  0
    6.8220    1.0325   24.2886 C   0  0  0  0  0  0  0  0  0  0  0  0
    7.0434    2.2881   24.8733 C   0  0  0  0  0  0  0  0  0  0  0  0
    7.3988    3.1098   24.2589 H   0  0  0  0  0  0  0  0  0  0  0  0
    6.8322    2.4665   26.2412 C   0  0  0  0  0  0  0  0  0  0  0  0
    7.0139    3.4481   26.6707 H   0  0  0  0  0  0  0  0  0  0  0  0
    6.3801    1.4202   27.0704 C   0  0  0  0  0  0  0  0  0  0  0  0
    6.1486    1.6692   28.5773 C   0  0  0  0  0  0  0  0  0  0  0  0
    7.4674    2.1316   29.2372 C   0  0  0  0  0  0  0  0  0  0  0  0
    7.3430    2.2820   30.3174 H   0  0  0  0  0  0  0  0  0  0  0  0
    7.8047    3.0777   28.8063 H   0  0  0  0  0  0  0  0  0  0  0  0
    8.2635    1.3921   29.0912 H   0  0  0  0  0  0  0  0  0  0  0  0
    5.0767    2.7697   28.7644 C   0  0  0  0  0  0  0  0  0  0  0  0
    4.1362    2.4847   28.2795 H   0  0  0  0  0  0  0  0  0  0  0  0
    4.8691    2.9407   29.8284 H   0  0  0  0  0  0  0  0  0  0  0  0
    5.3917    3.7250   28.3307 H   0  0  0  0  0  0  0  0  0  0  0  0
    5.6655    0.4145   29.3314 C   0  0  0  0  0  0  0  0  0  0  0  0
    6.3889   -0.4035   29.2588 H   0  0  0  0  0  0  0  0  0  0  0  0
    4.7085    0.0476   28.9434 H   0  0  0  0  0  0  0  0  0  0  0  0
    5.5288    0.6389   30.3965 H   0  0  0  0  0  0  0  0  0  0  0  0
    6.1487    0.1819   26.4534 C   0  0  0  0  0  0  0  0  0  0  0  0
    5.7981   -0.6577   27.0424 H   0  0  0  0  0  0  0  0  0  0  0  0
    6.3566   -0.0137   25.0929 C   0  0  0  0  0  0  0  0  0  0  0  0
    6.1747   -0.9713   24.6188 H   0  0  0  0  0  0  0  0  0  0  0  0
    8.2880   -1.3766   22.8621 C   0  0  0  0  0  0  0  0  0  0  0  0
    8.6222   -1.4662   23.8855 H   0  0  0  0  0  0  0  0  0  0  0  0
    8.6038   -2.2904   21.9521 N   0  0  0  0  0  0  0  0  0  0  0  0
    8.0486   -1.8251   20.8227 N   0  0  0  0  0  0  0  0  0  0  0  0
    8.1326   -2.3634   19.9778 H   0  0  0  0  0  0  0  0  0  0  0  0
    5.4323    0.6616   20.1410 C   0  0  0  0  0  0  0  0  0  0  0  0
    5.0173    0.6258   21.1509 H   0  0  0  0  0  0  0  0  0  0  0  0
    4.7942    1.3188   19.0889 C   0  0  0  0  0  0  0  0  0  0  0  0
    3.8645    1.8486   19.2450 H   0  0  0  0  0  0  0  0  0  0  0  0
  1  2  1  0
  2  3  2  0
  3  4  1  0
  4  5  1  0
  4  6  2  0
  6  7  1  0
  7  8  2  0
  8  9  1  0
  9 10  1  0
  9 11  1  0
 11 12  2  0
 12 13  1  0
 12 14  1  0
 14 15  1  0
 14 16  2  0
 16 17  1  0
 17 18  1  0
 18 19  1  0
 18 20  1  0
 18 21  1  0
 17 22  1  0
 22 23  1  0
 22 24  1  0
 22 25  1  0
 17 26  1  0
 26 27  1  0
 26 28  1  0
 26 29  1  0
 16 30  1  0
 30 31  1  0
 30 32  2  0
 32 33  1  0
  8 34  1  0
 34 35  1  0
 34 36  2  0
 36 37  1  0
 37 38  1  0
  6 39  1  0
 39 40  1  0
 39 41  2  0
 41 42  1  0
 41  2  1  0
 37  7  1  0
 32 11  1  0
M  END
>  <cnnaffinity>  (1) 
-5.64045

>  <filename>  (1) 
CC(C)(C)c1ccc(Nc2cn[nH]c2-c2cccnc2)cc1

$$$$
