
     RDKit          3D

 35 36  0  0  0  0  0  0  0  0999 V2000
    4.9816    1.8405   16.9753 H   0  0  0  0  0  0  0  0  0  0  0  0
    5.4328    1.3012   17.8073 C   0  0  0  0  0  0  0  0  0  0  0  0
    6.5851    0.6579   17.5556 N   0  0  0  0  0  0  0  0  0  0  0  0
    7.1572    0.0018   18.5798 C   0  0  0  0  0  0  0  0  0  0  0  0
    8.1026   -0.4888   18.3437 H   0  0  0  0  0  0  0  0  0  0  0  0
    6.6320   -0.0635   19.9005 C   0  0  0  0  0  0  0  0  0  0  0  0
    7.2357   -0.7746   20.9759 N   0  0  0  0  0  0  0  0  0  0  0  0
    7.7108   -1.6110   20.6655 H   0  0  0  0  0  0  0  0  0  0  0  0
    8.1000   -0.0662   21.9503 C   0  0  0  0  0  0  0  0  0  0  0  0
    8.7979   -1.1812   22.7297 C   0  0  0  0  0  0  0  0  0  0  0  0
    9.4086   -1.7862   22.0483 H   0  0  0  0  0  0  0  0  0  0  0  0
    9.4568   -0.7957   23.5156 H   0  0  0  0  0  0  0  0  0  0  0  0
    8.0519   -1.8331   23.1954 H   0  0  0  0  0  0  0  0  0  0  0  0
    7.2229    0.7735   22.8897 C   0  0  0  0  0  0  0  0  0  0  0  0
    6.7731    1.6282   22.3727 H   0  0  0  0  0  0  0  0  0  0  0  0
    6.4174    0.1626   23.3050 H   0  0  0  0  0  0  0  0  0  0  0  0
    7.7949    1.1737   23.7345 H   0  0  0  0  0  0  0  0  0  0  0  0
    9.1490    0.8206   21.2045 C   0  0  0  0  0  0  0  0  0  0  0  0
    9.6787    0.1816   20.4881 H   0  0  0  0  0  0  0  0  0  0  0  0
    8.5922    1.5529   20.6031 H   0  0  0  0  0  0  0  0  0  0  0  0
   10.1227    1.5652   22.0893 C   0  0  0  0  0  0  0  0  0  0  0  0
    9.7005    2.7858   22.6567 C   0  0  0  0  0  0  0  0  0  0  0  0
    8.6882    3.1347   22.4583 H   0  0  0  0  0  0  0  0  0  0  0  0
   10.5345    3.5466   23.4733 C   0  0  0  0  0  0  0  0  0  0  0  0
   10.1480    4.4568   23.9232 H   0  0  0  0  0  0  0  0  0  0  0  0
   11.8369    3.1073   23.7133 C   0  0  0  0  0  0  0  0  0  0  0  0
   12.5338    3.7375   24.2449 H   0  0  0  0  0  0  0  0  0  0  0  0
   12.2672    1.8721   23.2322 C   0  0  0  0  0  0  0  0  0  0  0  0
   13.2543    1.4927   23.4758 H   0  0  0  0  0  0  0  0  0  0  0  0
   11.4127    1.1083   22.4285 C   0  0  0  0  0  0  0  0  0  0  0  0
   12.0136   -0.4456   21.8791 Cl  0  0  0  0  0  0  0  0  0  0  0  0
    5.4334    0.6173   20.1278 C   0  0  0  0  0  0  0  0  0  0  0  0
    5.0160    0.5992   21.1362 H   0  0  0  0  0  0  0  0  0  0  0  0
    4.8254    1.2956   19.0654 C   0  0  0  0  0  0  0  0  0  0  0  0
    3.9017    1.8330   19.2197 H   0  0  0  0  0  0  0  0  0  0  0  0
  1  2  1  0
  2  3  2  0
  3  4  1  0
  4  5  1  0
  4  6  2  0
  6  7  1  0
  7  8  1  0
  7  9  1  0
  9 10  1  0
 10 11  1  0
 10 12  1  0
 10 13  1  0
  9 14  1  0
 14 15  1  0
 14 16  1  0
 14 17  1  0
  9 18  1  0
 18 19  1  0
 18 20  1  0
 18 21  1  0
 21 22  2  0
 22 23  1  0
 22 24  1  0
 24 25  1  0
 24 26  2  0
 26 27  1  0
 26 28  1  0
 28 29  1  0
 28 30  2  0
 30 31  1  0
  6 32  1  0
 32 33  1  0
 32 34  2  0
 34 35  1  0
 34  2  1  0
 30 21  1  0
M  END
>  <cnnaffinity>  (1) 
-5.57398

>  <filename>  (1) 
CC(C)(Cc1ccccc1Cl)Nc1cccnc1

$$$$
