
     RDKit          3D

 32 33  0  0  0  0  0  0  0  0999 V2000
    4.9199    1.8498   17.0031 H   0  0  0  0  0  0  0  0  0  0  0  0
    5.3892    1.2995   17.8121 C   0  0  0  0  0  0  0  0  0  0  0  0
    6.5339    0.6687   17.5103 N   0  0  0  0  0  0  0  0  0  0  0  0
    7.1545    0.0114   18.5078 C   0  0  0  0  0  0  0  0  0  0  0  0
    8.0924   -0.4669   18.2382 H   0  0  0  0  0  0  0  0  0  0  0  0
    6.6749   -0.0510   19.8497 C   0  0  0  0  0  0  0  0  0  0  0  0
    7.3010   -0.6818   20.9255 N   0  0  0  0  0  0  0  0  0  0  0  0
    6.6883   -0.7677   21.7244 H   0  0  0  0  0  0  0  0  0  0  0  0
    8.7233   -0.6327   21.2844 C   0  0  0  0  0  0  0  0  0  0  0  0
    8.8376   -0.6984   22.8336 C   0  0  0  0  0  0  0  0  0  0  0  0
    9.6237   -1.6923   23.4468 C   0  0  0  0  0  0  0  0  0  0  0  0
   10.1459   -2.4283   22.8453 H   0  0  0  0  0  0  0  0  0  0  0  0
    9.7576   -1.7878   24.8231 C   0  0  0  0  0  0  0  0  0  0  0  0
   10.2813   -2.6494   25.2084 H   0  0  0  0  0  0  0  0  0  0  0  0
    9.1917   -0.8332   25.6551 C   0  0  0  0  0  0  0  0  0  0  0  0
    9.3429   -0.8585   26.7279 H   0  0  0  0  0  0  0  0  0  0  0  0
    8.4160    0.1846   25.0969 C   0  0  0  0  0  0  0  0  0  0  0  0
    7.6982    1.3219   26.1881 Cl  0  0  0  0  0  0  0  0  0  0  0  0
    8.2100    0.2393   23.7016 C   0  0  0  0  0  0  0  0  0  0  0  0
    7.1610    1.4916   23.0809 Cl  0  0  0  0  0  0  0  0  0  0  0  0
    9.3593   -1.8604   20.6073 C   0  0  0  0  0  0  0  0  0  0  0  0
   10.4192   -1.9473   20.8646 H   0  0  0  0  0  0  0  0  0  0  0  0
    8.8438   -2.7811   20.9050 H   0  0  0  0  0  0  0  0  0  0  0  0
    9.2842   -1.7276   19.5256 H   0  0  0  0  0  0  0  0  0  0  0  0
    9.4504    0.6232   20.7460 C   0  0  0  0  0  0  0  0  0  0  0  0
    8.9493    1.5475   21.0441 H   0  0  0  0  0  0  0  0  0  0  0  0
   10.4787    0.6317   21.1214 H   0  0  0  0  0  0  0  0  0  0  0  0
    9.4795    0.5974   19.6520 H   0  0  0  0  0  0  0  0  0  0  0  0
    5.4472    0.5732   20.1121 C   0  0  0  0  0  0  0  0  0  0  0  0
    5.0529    0.5415   21.1302 H   0  0  0  0  0  0  0  0  0  0  0  0
    4.8084    1.2677   19.0840 C   0  0  0  0  0  0  0  0  0  0  0  0
    3.8829    1.7962   19.2681 H   0  0  0  0  0  0  0  0  0  0  0  0
  1  2  1  0
  2  3  2  0
  3  4  1  0
  4  5  1  0
  4  6  2  0
  6  7  1  0
  7  8  1  0
  7  9  1  0
  9 10  1  0
 10 11  2  0
 11 12  1  0
 11 13  1  0
 13 14  1  0
 13 15  2  0
 15 16  1  0
 15 17  1  0
 17 18  1  0
 17 19  2  0
 19 20  1  0
  9 21  1  0
 21 22  1  0
 21 23  1  0
 21 24  1  0
  9 25  1  0
 25 26  1  0
 25 27  1  0
 25 28  1  0
  6 29  1  0
 29 30  1  0
 29 31  2  0
 31 32  1  0
 31  2  1  0
 19 10  1  0
M  END
>  <cnnaffinity>  (1) 
-4.9889

>  <filename>  (1) 
CC(C)(Nc1cccnc1)c1cccc(Cl)c1Cl

$$$$
