
     RDKit          3D

 32 33  0  0  0  0  0  0  0  0999 V2000
    4.9492    1.7638   17.0158 H   0  0  0  0  0  0  0  0  0  0  0  0
    5.4236    1.2762   17.8674 C   0  0  0  0  0  0  0  0  0  0  0  0
    6.5861    0.6528   17.6302 N   0  0  0  0  0  0  0  0  0  0  0  0
    7.1897    0.0292   18.6413 C   0  0  0  0  0  0  0  0  0  0  0  0
    8.1335   -0.4571   18.3940 H   0  0  0  0  0  0  0  0  0  0  0  0
    6.6443    0.0054   19.9160 C   0  0  0  0  0  0  0  0  0  0  0  0
    7.4909   -0.8947   21.1594 S   0  0  0  0  0  0  0  0  0  0  0  0
    6.4728   -1.3788   22.0781 O   0  0  0  0  0  0  0  0  0  0  0  0
    8.3907   -1.8216   20.4907 O   0  0  0  0  0  0  0  0  0  0  0  0
    8.5709    0.3770   22.0691 C   0  0  0  0  0  0  0  0  0  0  0  0
    7.6986    1.5616   22.5293 C   0  0  0  0  0  0  0  0  0  0  0  0
    7.7890    2.8687   21.9903 C   0  0  0  0  0  0  0  0  0  0  0  0
    8.5118    3.0874   21.2089 H   0  0  0  0  0  0  0  0  0  0  0  0
    7.0149    3.8983   22.3630 N   0  0  0  0  0  0  0  0  0  0  0  0
    6.0924    3.6791   23.3012 C   0  0  0  0  0  0  0  0  0  0  0  0
    5.4596    4.5121   23.6037 H   0  0  0  0  0  0  0  0  0  0  0  0
    5.9238    2.4225   23.8958 C   0  0  0  0  0  0  0  0  0  0  0  0
    4.9821    2.2585   24.8353 F   0  0  0  0  0  0  0  0  0  0  0  0
    6.7191    1.3468   23.5181 C   0  0  0  0  0  0  0  0  0  0  0  0
    6.5468    0.3697   23.9724 H   0  0  0  0  0  0  0  0  0  0  0  0
    9.1910   -0.3548   23.2859 C   0  0  0  0  0  0  0  0  0  0  0  0
    9.7776    0.3577   23.8819 H   0  0  0  0  0  0  0  0  0  0  0  0
    8.4340   -0.8002   23.9370 H   0  0  0  0  0  0  0  0  0  0  0  0
    9.8649   -1.1528   22.9532 H   0  0  0  0  0  0  0  0  0  0  0  0
    9.7172    0.7841   21.1306 C   0  0  0  0  0  0  0  0  0  0  0  0
   10.3581    1.5357   21.6100 H   0  0  0  0  0  0  0  0  0  0  0  0
    9.3287    1.1902   20.1984 H   0  0  0  0  0  0  0  0  0  0  0  0
   10.3378   -0.0830   20.8819 H   0  0  0  0  0  0  0  0  0  0  0  0
    5.4341    0.6490   20.1855 C   0  0  0  0  0  0  0  0  0  0  0  0
    4.9832    0.6322   21.1820 H   0  0  0  0  0  0  0  0  0  0  0  0
    4.8206    1.3046   19.1261 C   0  0  0  0  0  0  0  0  0  0  0  0
    3.8881    1.8356   19.2597 H   0  0  0  0  0  0  0  0  0  0  0  0
  1  2  1  0
  2  3  2  0
  3  4  1  0
  4  5  1  0
  4  6  2  0
  6  7  1  0
  7  8  2  0
  7  9  2  0
  7 10  1  0
 10 11  1  0
 11 12  2  0
 12 13  1  0
 12 14  1  0
 14 15  2  0
 15 16  1  0
 15 17  1  0
 17 18  1  0
 17 19  2  0
 19 20  1  0
 10 21  1  0
 21 22  1  0
 21 23  1  0
 21 24  1  0
 10 25  1  0
 25 26  1  0
 25 27  1  0
 25 28  1  0
  6 29  1  0
 29 30  1  0
 29 31  2  0
 31 32  1  0
 31  2  1  0
 19 11  1  0
M  END
>  <cnnaffinity>  (1) 
-4.85236

>  <filename>  (1) 
CC(C)(c1cncc(F)c1)S(=O)(=O)c1cccnc1

$$$$
