
     RDKit          3D

 35 36  0  0  0  0  0  0  0  0999 V2000
    4.9189    1.7774   16.9985 H   0  0  0  0  0  0  0  0  0  0  0  0
    5.4054    1.2887   17.8415 C   0  0  0  0  0  0  0  0  0  0  0  0
    6.5707    0.6710   17.5821 N   0  0  0  0  0  0  0  0  0  0  0  0
    7.2049    0.0813   18.6019 C   0  0  0  0  0  0  0  0  0  0  0  0
    8.1401   -0.4226   18.3746 H   0  0  0  0  0  0  0  0  0  0  0  0
    6.6875    0.0410   19.9087 C   0  0  0  0  0  0  0  0  0  0  0  0
    7.3819   -0.6487   20.9505 N   0  0  0  0  0  0  0  0  0  0  0  0
    8.7171   -0.3398   21.0684 N   0  0  0  0  0  0  0  0  0  0  0  0
    9.4118   -0.9049   22.0230 C   0  0  0  0  0  0  0  0  0  0  0  0
   10.8525   -0.4839   22.2315 C   0  0  0  0  0  0  0  0  0  0  0  0
   11.2262   -0.0567   21.2959 H   0  0  0  0  0  0  0  0  0  0  0  0
   11.4569   -1.3763   22.4386 H   0  0  0  0  0  0  0  0  0  0  0  0
   11.0188    0.5106   23.3965 C   0  0  0  0  0  0  0  0  0  0  0  0
   12.0846    0.7530   23.5090 H   0  0  0  0  0  0  0  0  0  0  0  0
   10.7264    0.0191   24.3358 H   0  0  0  0  0  0  0  0  0  0  0  0
   10.2248    1.8159   23.2500 C   0  0  0  0  0  0  0  0  0  0  0  0
    9.1633    1.5665   23.1180 H   0  0  0  0  0  0  0  0  0  0  0  0
   10.6629    2.6188   22.0260 C   0  0  0  0  0  0  0  0  0  0  0  0
   10.4359    2.1010   21.0873 H   0  0  0  0  0  0  0  0  0  0  0  0
   10.1443    3.5801   22.0172 H   0  0  0  0  0  0  0  0  0  0  0  0
   11.7398    2.8285   22.0492 H   0  0  0  0  0  0  0  0  0  0  0  0
   10.3430    2.6628   24.5170 C   0  0  0  0  0  0  0  0  0  0  0  0
   11.3868    2.9531   24.6897 H   0  0  0  0  0  0  0  0  0  0  0  0
    9.9908    2.1180   25.4003 H   0  0  0  0  0  0  0  0  0  0  0  0
    9.7518    3.5828   24.4375 H   0  0  0  0  0  0  0  0  0  0  0  0
    8.8299   -1.8771   22.9163 C   0  0  0  0  0  0  0  0  0  0  0  0
    9.4496   -2.3134   23.6963 H   0  0  0  0  0  0  0  0  0  0  0  0
    7.5219   -2.2315   22.7694 C   0  0  0  0  0  0  0  0  0  0  0  0
    7.0105   -2.9679   23.3780 H   0  0  0  0  0  0  0  0  0  0  0  0
    6.6953   -1.6453   21.7242 C   0  0  0  0  0  0  0  0  0  0  0  0
    5.5475   -1.9847   21.4879 O   0  0  0  0  0  0  0  0  0  0  0  0
    5.4541    0.6507   20.1675 C   0  0  0  0  0  0  0  0  0  0  0  0
    5.0142    0.6106   21.1653 H   0  0  0  0  0  0  0  0  0  0  0  0
    4.8177    1.3082   19.1106 C   0  0  0  0  0  0  0  0  0  0  0  0
    3.8818    1.8362   19.2617 H   0  0  0  0  0  0  0  0  0  0  0  0
  1  2  1  0
  2  3  2  0
  3  4  1  0
  4  5  1  0
  4  6  2  0
  6  7  1  0
  7  8  1  0
  8  9  2  0
  9 10  1  0
 10 11  1  0
 10 12  1  0
 10 13  1  0
 13 14  1  0
 13 15  1  0
 13 16  1  0
 16 17  1  0
 16 18  1  0
 18 19  1  0
 18 20  1  0
 18 21  1  0
 16 22  1  0
 22 23  1  0
 22 24  1  0
 22 25  1  0
  9 26  1  0
 26 27  1  0
 26 28  2  0
 28 29  1  0
 28 30  1  0
 30 31  2  0
  6 32  1  0
 32 33  1  0
 32 34  2  0
 34 35  1  0
 34  2  1  0
 30  7  1  0
M  END
>  <cnnaffinity>  (1) 
-5.332

>  <filename>  (1) 
CC(C)CCc1ccc(=O)n(-c2cccnc2)n1

$$$$
