
     RDKit          3D

 43 44  0  0  0  0  0  0  0  0999 V2000
    4.9959    1.7769   16.9580 H   0  0  0  0  0  0  0  0  0  0  0  0
    5.4574    1.2826   17.8084 C   0  0  0  0  0  0  0  0  0  0  0  0
    6.6153    0.6575   17.5663 N   0  0  0  0  0  0  0  0  0  0  0  0
    7.2095    0.0556   18.6089 C   0  0  0  0  0  0  0  0  0  0  0  0
    8.1541   -0.4360   18.3800 H   0  0  0  0  0  0  0  0  0  0  0  0
    6.7021    0.0217   19.9162 C   0  0  0  0  0  0  0  0  0  0  0  0
    7.4267   -0.6734   21.0754 C   0  0  0  0  0  0  0  0  0  0  0  0
    8.8383   -1.1370   20.6923 C   0  0  0  0  0  0  0  0  0  0  0  0
    8.8385   -1.8885   19.9092 H   0  0  0  0  0  0  0  0  0  0  0  0
    9.3459   -1.5639   21.5639 H   0  0  0  0  0  0  0  0  0  0  0  0
    9.4000   -0.2768   20.3297 H   0  0  0  0  0  0  0  0  0  0  0  0
    6.6007   -1.8911   21.5203 C   0  0  0  0  0  0  0  0  0  0  0  0
    7.0423   -2.3677   22.4019 H   0  0  0  0  0  0  0  0  0  0  0  0
    5.5741   -1.6077   21.7604 H   0  0  0  0  0  0  0  0  0  0  0  0
    6.5530   -2.6394   20.7198 H   0  0  0  0  0  0  0  0  0  0  0  0
    7.6215    0.3154   22.2612 C   0  0  0  0  0  0  0  0  0  0  0  0
    6.6632    0.7401   22.5748 H   0  0  0  0  0  0  0  0  0  0  0  0
    8.0212   -0.2309   23.1231 H   0  0  0  0  0  0  0  0  0  0  0  0
    8.5335    1.4843   21.9125 C   0  0  0  0  0  0  0  0  0  0  0  0
    8.4971    2.0529   20.8350 O   0  0  0  0  0  0  0  0  0  0  0  0
    9.4014    1.8679   22.9065 N   0  0  0  0  0  0  0  0  0  0  0  0
    9.6417    1.1439   23.5628 H   0  0  0  0  0  0  0  0  0  0  0  0
   10.4284    2.8701   22.6444 C   0  0  0  0  0  0  0  0  0  0  0  0
    9.9354    3.7821   22.2919 H   0  0  0  0  0  0  0  0  0  0  0  0
   10.9091    3.1217   23.5950 H   0  0  0  0  0  0  0  0  0  0  0  0
   11.4845    2.4056   21.6288 C   0  0  0  0  0  0  0  0  0  0  0  0
   12.1744    3.2367   21.4330 H   0  0  0  0  0  0  0  0  0  0  0  0
   10.9762    2.1831   20.6856 H   0  0  0  0  0  0  0  0  0  0  0  0
   12.2745    1.2032   22.0884 C   0  0  0  0  0  0  0  0  0  0  0  0
   13.3512    1.3721   22.9699 C   0  0  0  0  0  0  0  0  0  0  0  0
   13.5557    2.3642   23.3652 H   0  0  0  0  0  0  0  0  0  0  0  0
   14.1750    0.2962   23.2920 C   0  0  0  0  0  0  0  0  0  0  0  0
   14.9548    0.4071   24.0296 H   0  0  0  0  0  0  0  0  0  0  0  0
   13.9780   -0.9371   22.6724 C   0  0  0  0  0  0  0  0  0  0  0  0
   14.6902   -1.7346   22.8362 H   0  0  0  0  0  0  0  0  0  0  0  0
   12.8541   -1.1448   21.8765 C   0  0  0  0  0  0  0  0  0  0  0  0
   12.6879   -2.1068   21.4048 H   0  0  0  0  0  0  0  0  0  0  0  0
   11.9750   -0.0915   21.6340 C   0  0  0  0  0  0  0  0  0  0  0  0
   11.1185   -0.2594   20.9978 H   0  0  0  0  0  0  0  0  0  0  0  0
    5.4766    0.6749   20.1316 C   0  0  0  0  0  0  0  0  0  0  0  0
    5.0253    0.6947   21.1272 H   0  0  0  0  0  0  0  0  0  0  0  0
    4.8431    1.3152   19.0652 C   0  0  0  0  0  0  0  0  0  0  0  0
    3.9055    1.8454   19.1987 H   0  0  0  0  0  0  0  0  0  0  0  0
  1  2  1  0
  2  3  2  0
  3  4  1  0
  4  5  1  0
  4  6  2  0
  6  7  1  0
  7  8  1  0
  8  9  1  0
  8 10  1  0
  8 11  1  0
  7 12  1  0
 12 13  1  0
 12 14  1  0
 12 15  1  0
  7 16  1  0
 16 17  1  0
 16 18  1  0
 16 19  1  0
 19 20  2  0
 19 21  1  0
 21 22  1  0
 21 23  1  0
 23 24  1  0
 23 25  1  0
 23 26  1  0
 26 27  1  0
 26 28  1  0
 26 29  1  0
 29 30  2  0
 30 31  1  0
 30 32  1  0
 32 33  1  0
 32 34  2  0
 34 35  1  0
 34 36  1  0
 36 37  1  0
 36 38  2  0
 38 39  1  0
  6 40  1  0
 40 41  1  0
 40 42  2  0
 42 43  1  0
 42  2  1  0
 38 29  1  0
M  END
>  <cnnaffinity>  (1) 
-5.78423

>  <filename>  (1) 
CC(C)(CC(=O)NCCc1ccccc1)c1cccnc1

$$$$
