
     RDKit          3D

 35 36  0  0  0  0  0  0  0  0999 V2000
    6.5639    2.9209   21.3820 H   0  0  0  0  0  0  0  0  0  0  0  0
    7.0266    3.7569   21.5460 O   0  0  0  0  0  0  0  0  0  0  0  0
    7.7103    3.5792   22.7039 C   0  0  0  0  0  0  0  0  0  0  0  0
    8.2778    4.7004   23.3042 C   0  0  0  0  0  0  0  0  0  0  0  0
    8.2106    5.6471   22.7782 H   0  0  0  0  0  0  0  0  0  0  0  0
    8.9050    4.5695   24.5464 C   0  0  0  0  0  0  0  0  0  0  0  0
    9.6442    5.9584   25.2873 Cl  0  0  0  0  0  0  0  0  0  0  0  0
    8.9417    3.3400   25.2153 C   0  0  0  0  0  0  0  0  0  0  0  0
    9.3714    3.2636   26.2085 H   0  0  0  0  0  0  0  0  0  0  0  0
    8.4107    2.2088   24.5786 C   0  0  0  0  0  0  0  0  0  0  0  0
    8.4528    1.2393   25.0662 H   0  0  0  0  0  0  0  0  0  0  0  0
    7.8418    2.3020   23.3033 C   0  0  0  0  0  0  0  0  0  0  0  0
    7.3498    1.2157   22.6206 O   0  0  0  0  0  0  0  0  0  0  0  0
    8.2677    0.2651   21.9916 C   0  0  0  0  0  0  0  0  0  0  0  0
    8.9091   -0.5974   23.0824 C   0  0  0  0  0  0  0  0  0  0  0  0
    9.6430   -0.0299   23.6622 H   0  0  0  0  0  0  0  0  0  0  0  0
    8.1417   -0.9754   23.7653 H   0  0  0  0  0  0  0  0  0  0  0  0
    9.4378   -1.4498   22.6416 H   0  0  0  0  0  0  0  0  0  0  0  0
    9.3346    0.9653   21.1509 C   0  0  0  0  0  0  0  0  0  0  0  0
    9.9783    1.6104   21.7556 H   0  0  0  0  0  0  0  0  0  0  0  0
    9.9600    0.2000   20.6769 H   0  0  0  0  0  0  0  0  0  0  0  0
    8.8602    1.5787   20.3807 H   0  0  0  0  0  0  0  0  0  0  0  0
    7.3641   -0.6205   21.0890 C   0  0  0  0  0  0  0  0  0  0  0  0
    6.5994   -1.0683   21.7362 H   0  0  0  0  0  0  0  0  0  0  0  0
    7.9737   -1.4471   20.6992 H   0  0  0  0  0  0  0  0  0  0  0  0
    6.6647    0.0656   19.9282 C   0  0  0  0  0  0  0  0  0  0  0  0
    7.1557    0.0330   18.6064 C   0  0  0  0  0  0  0  0  0  0  0  0
    8.0652   -0.5209   18.3703 H   0  0  0  0  0  0  0  0  0  0  0  0
    6.5664    0.6364   17.5618 N   0  0  0  0  0  0  0  0  0  0  0  0
    5.4258    1.2988   17.7983 C   0  0  0  0  0  0  0  0  0  0  0  0
    4.9606    1.7759   16.9375 H   0  0  0  0  0  0  0  0  0  0  0  0
    4.8272    1.3758   19.0597 C   0  0  0  0  0  0  0  0  0  0  0  0
    3.8871    1.9020   19.1832 H   0  0  0  0  0  0  0  0  0  0  0  0
    5.4613    0.7538   20.1372 C   0  0  0  0  0  0  0  0  0  0  0  0
    5.0422    0.8043   21.1437 H   0  0  0  0  0  0  0  0  0  0  0  0
  1  2  1  0
  2  3  1  0
  3  4  2  0
  4  5  1  0
  4  6  1  0
  6  7  1  0
  6  8  2  0
  8  9  1  0
  8 10  1  0
 10 11  1  0
 10 12  2  0
 12 13  1  0
 13 14  1  0
 14 15  1  0
 15 16  1  0
 15 17  1  0
 15 18  1  0
 14 19  1  0
 19 20  1  0
 19 21  1  0
 19 22  1  0
 14 23  1  0
 23 24  1  0
 23 25  1  0
 23 26  1  0
 26 27  2  0
 27 28  1  0
 27 29  1  0
 29 30  2  0
 30 31  1  0
 30 32  1  0
 32 33  1  0
 32 34  2  0
 34 35  1  0
 12  3  1  0
 34 26  1  0
M  END
>  <cnnaffinity>  (1) 
-5.36103

>  <filename>  (1) 
CC(C)(Cc1cccnc1)Oc1ccc(Cl)cc1O

$$$$
