
     RDKit          3D

 41 43  0  0  0  0  0  0  0  0999 V2000
    4.9277    1.8164   16.9817 H   0  0  0  0  0  0  0  0  0  0  0  0
    5.3918    1.2957   17.8177 C   0  0  0  0  0  0  0  0  0  0  0  0
    6.5469    0.6586   17.5589 N   0  0  0  0  0  0  0  0  0  0  0  0
    7.1725    0.0409   18.5711 C   0  0  0  0  0  0  0  0  0  0  0  0
    8.1217   -0.4474   18.3442 H   0  0  0  0  0  0  0  0  0  0  0  0
    6.6586    0.0052   19.8809 C   0  0  0  0  0  0  0  0  0  0  0  0
    7.3333   -0.6797   20.9463 N   0  0  0  0  0  0  0  0  0  0  0  0
    6.7310   -1.6153   21.7806 C   0  0  0  0  0  0  0  0  0  0  0  0
    5.6827   -1.8423   21.6591 H   0  0  0  0  0  0  0  0  0  0  0  0
    7.6662   -2.0808   22.6488 C   0  0  0  0  0  0  0  0  0  0  0  0
    7.5486   -3.0316   23.7644 C   0  0  0  0  0  0  0  0  0  0  0  0
    6.2748   -3.2817   24.3057 C   0  0  0  0  0  0  0  0  0  0  0  0
    5.4122   -2.7429   23.9220 H   0  0  0  0  0  0  0  0  0  0  0  0
    6.1069   -4.1855   25.3481 C   0  0  0  0  0  0  0  0  0  0  0  0
    5.1083   -4.3569   25.7314 H   0  0  0  0  0  0  0  0  0  0  0  0
    7.1912   -4.8704   25.9148 C   0  0  0  0  0  0  0  0  0  0  0  0
    6.9337   -5.8320   27.0950 C   0  0  0  0  0  0  0  0  0  0  0  0
    5.9008   -6.9263   26.7396 C   0  0  0  0  0  0  0  0  0  0  0  0
    6.2067   -7.5879   25.9327 H   0  0  0  0  0  0  0  0  0  0  0  0
    4.9417   -6.4896   26.4499 H   0  0  0  0  0  0  0  0  0  0  0  0
    5.7102   -7.5530   27.6169 H   0  0  0  0  0  0  0  0  0  0  0  0
    8.2446   -6.4778   27.5628 C   0  0  0  0  0  0  0  0  0  0  0  0
    8.7349   -7.0049   26.7358 H   0  0  0  0  0  0  0  0  0  0  0  0
    8.9388   -5.7133   27.9340 H   0  0  0  0  0  0  0  0  0  0  0  0
    8.0796   -7.1926   28.3772 H   0  0  0  0  0  0  0  0  0  0  0  0
    6.3320   -5.0739   28.2976 C   0  0  0  0  0  0  0  0  0  0  0  0
    5.3737   -4.6000   28.0596 H   0  0  0  0  0  0  0  0  0  0  0  0
    7.0241   -4.3083   28.6298 H   0  0  0  0  0  0  0  0  0  0  0  0
    6.1646   -5.7556   29.1401 H   0  0  0  0  0  0  0  0  0  0  0  0
    8.4651   -4.6040   25.3710 C   0  0  0  0  0  0  0  0  0  0  0  0
    9.3373   -5.1003   25.7768 H   0  0  0  0  0  0  0  0  0  0  0  0
    8.6495   -3.7068   24.3219 C   0  0  0  0  0  0  0  0  0  0  0  0
    9.6589   -3.5496   23.9448 H   0  0  0  0  0  0  0  0  0  0  0  0
    8.8367   -1.4065   22.3139 N   0  0  0  0  0  0  0  0  0  0  0  0
    9.7282   -1.3855   22.7787 H   0  0  0  0  0  0  0  0  0  0  0  0
    8.6424   -0.4910   21.3359 C   0  0  0  0  0  0  0  0  0  0  0  0
    9.7731    0.6133   20.8308 S   0  0  0  0  0  0  0  0  0  0  0  0
    5.4471    0.6559   20.1331 C   0  0  0  0  0  0  0  0  0  0  0  0
    5.0464    0.6485   21.1474 H   0  0  0  0  0  0  0  0  0  0  0  0
    4.7992    1.3184   19.0856 C   0  0  0  0  0  0  0  0  0  0  0  0
    3.8672    1.8593   19.2425 H   0  0  0  0  0  0  0  0  0  0  0  0
  1  2  1  0
  2  3  2  0
  3  4  1  0
  4  5  1  0
  4  6  2  0
  6  7  1  0
  7  8  1  0
  8  9  1  0
  8 10  2  0
 10 11  1  0
 11 12  2  0
 12 13  1  0
 12 14  1  0
 14 15  1  0
 14 16  2  0
 16 17  1  0
 17 18  1  0
 18 19  1  0
 18 20  1  0
 18 21  1  0
 17 22  1  0
 22 23  1  0
 22 24  1  0
 22 25  1  0
 17 26  1  0
 26 27  1  0
 26 28  1  0
 26 29  1  0
 16 30  1  0
 30 31  1  0
 30 32  2  0
 32 33  1  0
 10 34  1  0
 34 35  1  0
 34 36  1  0
 36 37  2  0
  6 38  1  0
 38 39  1  0
 38 40  2  0
 40 41  1  0
 40  2  1  0
 36  7  1  0
 32 11  1  0
M  END
>  <cnnaffinity>  (1) 
-5.72176

>  <filename>  (1) 
CC(C)(C)c1ccc(-c2cn(-c3cccnc3)c(=S)[nH]2)cc1

$$$$
