
     RDKit          3D

 38 40  0  0  0  0  0  0  0  0999 V2000
    4.9396    1.8096   16.9630 H   0  0  0  0  0  0  0  0  0  0  0  0
    5.4074    1.3082   17.8032 C   0  0  0  0  0  0  0  0  0  0  0  0
    6.5671    0.6846   17.5437 N   0  0  0  0  0  0  0  0  0  0  0  0
    7.1738    0.0700   18.5664 C   0  0  0  0  0  0  0  0  0  0  0  0
    8.1083   -0.4292   18.3163 H   0  0  0  0  0  0  0  0  0  0  0  0
    6.6681    0.0249   19.8809 C   0  0  0  0  0  0  0  0  0  0  0  0
    7.3551   -0.7024   20.9591 C   0  0  0  0  0  0  0  0  0  0  0  0
    6.8422   -1.2371   22.0864 C   0  0  0  0  0  0  0  0  0  0  0  0
    5.8369   -1.2957   22.4420 H   0  0  0  0  0  0  0  0  0  0  0  0
    7.8533   -1.8318   22.8283 N   0  0  0  0  0  0  0  0  0  0  0  0
    7.6826   -2.4786   24.0811 C   0  0  0  0  0  0  0  0  0  0  0  0
    6.5197   -3.2200   24.3220 C   0  0  0  0  0  0  0  0  0  0  0  0
    5.7674   -3.2924   23.5467 H   0  0  0  0  0  0  0  0  0  0  0  0
    6.3355   -3.8626   25.5434 C   0  0  0  0  0  0  0  0  0  0  0  0
    5.4278   -4.4407   25.7131 H   0  0  0  0  0  0  0  0  0  0  0  0
    7.2974   -3.7722   26.5604 C   0  0  0  0  0  0  0  0  0  0  0  0
    7.0704   -4.4994   27.8795 C   0  0  0  0  0  0  0  0  0  0  0  0
    7.9083   -4.2251   28.5281 H   0  0  0  0  0  0  0  0  0  0  0  0
    7.0882   -6.0308   27.7249 C   0  0  0  0  0  0  0  0  0  0  0  0
    7.9832   -6.3859   27.2046 H   0  0  0  0  0  0  0  0  0  0  0  0
    6.2129   -6.3799   27.1614 H   0  0  0  0  0  0  0  0  0  0  0  0
    7.0518   -6.5068   28.7112 H   0  0  0  0  0  0  0  0  0  0  0  0
    5.7561   -4.0814   28.5754 C   0  0  0  0  0  0  0  0  0  0  0  0
    4.8872   -4.5354   28.0906 H   0  0  0  0  0  0  0  0  0  0  0  0
    5.7473   -4.4104   29.6230 H   0  0  0  0  0  0  0  0  0  0  0  0
    5.6011   -2.9969   28.5449 H   0  0  0  0  0  0  0  0  0  0  0  0
    8.4599   -3.0127   26.3094 C   0  0  0  0  0  0  0  0  0  0  0  0
    9.2295   -2.9337   27.0791 H   0  0  0  0  0  0  0  0  0  0  0  0
    8.6553   -2.3718   25.0822 C   0  0  0  0  0  0  0  0  0  0  0  0
    9.5506   -1.7997   24.8691 H   0  0  0  0  0  0  0  0  0  0  0  0
    9.0629   -1.6644   22.1553 C   0  0  0  0  0  0  0  0  0  0  0  0
   10.1913   -1.9853   22.4765 O   0  0  0  0  0  0  0  0  0  0  0  0
    8.7135   -1.0190   20.9922 N   0  0  0  0  0  0  0  0  0  0  0  0
    9.4803   -0.7022   20.4299 H   0  0  0  0  0  0  0  0  0  0  0  0
    5.4388    0.6767   20.1198 C   0  0  0  0  0  0  0  0  0  0  0  0
    5.0026    0.6881   21.1226 H   0  0  0  0  0  0  0  0  0  0  0  0
    4.8033    1.3281   19.0647 C   0  0  0  0  0  0  0  0  0  0  0  0
    3.8643    1.8532   19.2061 H   0  0  0  0  0  0  0  0  0  0  0  0
  1  2  1  0
  2  3  2  0
  3  4  1  0
  4  5  1  0
  4  6  2  0
  6  7  1  0
  7  8  2  0
  8  9  1  0
  8 10  1  0
 10 11  1  0
 11 12  2  0
 12 13  1  0
 12 14  1  0
 14 15  1  0
 14 16  2  0
 16 17  1  0
 17 18  1  0
 17 19  1  0
 19 20  1  0
 19 21  1  0
 19 22  1  0
 17 23  1  0
 23 24  1  0
 23 25  1  0
 23 26  1  0
 16 27  1  0
 27 28  1  0
 27 29  2  0
 29 30  1  0
 10 31  1  0
 31 32  2  0
 31 33  1  0
 33 34  1  0
  6 35  1  0
 35 36  1  0
 35 37  2  0
 37 38  1  0
 37  2  1  0
 33  7  1  0
 29 11  1  0
M  END
>  <cnnaffinity>  (1) 
-5.47618

>  <filename>  (1) 
CC(C)c1ccc(-n2cc(-c3cccnc3)[nH]c2=O)cc1

$$$$
