
     RDKit          3D

 36 38  0  0  0  0  0  0  0  0999 V2000
    6.5817   -2.0424   21.2354 C   0  0  0  0  0  0  0  0  0  0  0  0
    7.3640   -0.7384   20.9577 C   0  0  0  0  0  0  0  0  0  0  0  0
    8.8496   -1.0870   20.6736 C   0  0  0  0  0  0  0  0  0  0  0  0
    8.9660   -1.7612   19.8261 H   0  0  0  0  0  0  0  0  0  0  0  0
    9.2807   -1.5870   21.5470 H   0  0  0  0  0  0  0  0  0  0  0  0
    9.4426   -0.1893   20.4698 H   0  0  0  0  0  0  0  0  0  0  0  0
    7.3874    0.1353   22.2735 C   0  0  0  0  0  0  0  0  0  0  0  0
    6.9593   -0.2649   23.3365 O   0  0  0  0  0  0  0  0  0  0  0  0
    8.0153    1.3566   22.1388 N   0  0  0  0  0  0  0  0  0  0  0  0
    8.2857    2.2287   23.2001 C   0  0  0  0  0  0  0  0  0  0  0  0
    8.3513    3.5984   22.9300 C   0  0  0  0  0  0  0  0  0  0  0  0
    8.5387    4.5101   23.9592 C   0  0  0  0  0  0  0  0  0  0  0  0
    8.6302    4.0652   25.3485 C   0  0  0  0  0  0  0  0  0  0  0  0
    8.8462    4.7738   26.6769 C   0  0  0  0  0  0  0  0  0  0  0  0
    8.8481    4.7792   26.6696 N   0  0  0  0  0  0  0  0  0  0  0  0
    8.0758    2.0374   27.1237 S   0  0  0  0  0  0  0  0  0  0  0  0
    8.4061    2.6482   25.5776 C   0  0  0  0  0  0  0  0  0  0  0  0
    8.4713    1.7487   24.4779 C   0  0  0  0  0  0  0  0  0  0  0  0
    8.6238    0.6977   24.6773 H   0  0  0  0  0  0  0  0  0  0  0  0
    9.1810    5.7779   26.2014 H   0  0  0  0  0  0  0  0  0  0  0  0
    8.6007    5.5764   23.7153 H   0  0  0  0  0  0  0  0  0  0  0  0
    8.2593    3.9190   21.9006 H   0  0  0  0  0  0  0  0  0  0  0  0
    7.9205    1.7753   21.2320 H   0  0  0  0  0  0  0  0  0  0  0  0
    6.6789    0.0121   19.7991 C   0  0  0  0  0  0  0  0  0  0  0  0
    5.4538    0.6669   20.0229 C   0  0  0  0  0  0  0  0  0  0  0  0
    4.8296    1.3255   18.9614 C   0  0  0  0  0  0  0  0  0  0  0  0
    5.4433    1.3058   17.7033 C   0  0  0  0  0  0  0  0  0  0  0  0
    6.5971    0.6724   17.4573 N   0  0  0  0  0  0  0  0  0  0  0  0
    7.1844    0.0433   18.4860 C   0  0  0  0  0  0  0  0  0  0  0  0
    8.1191   -0.4631   18.2563 H   0  0  0  0  0  0  0  0  0  0  0  0
    4.9837    1.8147   16.8581 H   0  0  0  0  0  0  0  0  0  0  0  0
    3.8930    1.8552   19.0960 H   0  0  0  0  0  0  0  0  0  0  0  0
    5.0112    0.6739   21.0236 H   0  0  0  0  0  0  0  0  0  0  0  0
    7.0116   -2.5554   22.0994 H   0  0  0  0  0  0  0  0  0  0  0  0
    5.5335   -1.8243   21.4652 H   0  0  0  0  0  0  0  0  0  0  0  0
    6.6120   -2.7127   20.3720 H   0  0  0  0  0  0  0  0  0  0  0  0
  1  2  1  0
  2  3  1  0
  3  4  1  0
  3  5  1  0
  3  6  1  0
  2  7  1  0
  7  8  2  0
  7  9  1  0
  9 10  1  0
 10 11  2  0
 11 12  1  0
 12 13  2  0
 13 14  1  0
 14 15  2  0
 15 16  1  0
 16 17  1  0
 17 18  2  0
 18 19  1  0
 14 20  1  0
 12 21  1  0
 11 22  1  0
  9 23  1  0
  2 24  1  0
 24 25  2  0
 25 26  1  0
 26 27  2  0
 27 28  1  0
 28 29  2  0
 29 30  1  0
 27 31  1  0
 26 32  1  0
 25 33  1  0
  1 34  1  0
  1 35  1  0
  1 36  1  0
 18 10  1  0
 29 24  1  0
 17 13  1  0
M  END
>  <cnnaffinity>  (1) 
-4.92704

>  <filename>  (1) 
CC(C)(C(=O)Nc1ccc2cnsc2c1)c1cccnc1

$$$$
