
     RDKit          3D

 34 35  0  0  0  0  0  0  0  0999 V2000
    4.9302    1.8012   16.9909 H   0  0  0  0  0  0  0  0  0  0  0  0
    5.4132    1.2956   17.8238 C   0  0  0  0  0  0  0  0  0  0  0  0
    6.5801    0.6823   17.5567 N   0  0  0  0  0  0  0  0  0  0  0  0
    7.2184    0.0712   18.5663 C   0  0  0  0  0  0  0  0  0  0  0  0
    8.1585   -0.4229   18.3191 H   0  0  0  0  0  0  0  0  0  0  0  0
    6.7095    0.0139   19.8860 C   0  0  0  0  0  0  0  0  0  0  0  0
    7.3756   -0.6637   20.9447 N   0  0  0  0  0  0  0  0  0  0  0  0
    8.3657   -0.5208   21.0591 H   0  0  0  0  0  0  0  0  0  0  0  0
    6.7816   -1.5128   21.8581 C   0  0  0  0  0  0  0  0  0  0  0  0
    5.7181   -2.0613   21.6404 O   0  0  0  0  0  0  0  0  0  0  0  0
    7.6523   -1.9023   23.1069 C   0  0  0  0  0  0  0  0  0  0  0  0
    8.6397   -0.7958   23.5702 C   0  0  0  0  0  0  0  0  0  0  0  0
   10.0075   -1.0846   23.7676 C   0  0  0  0  0  0  0  0  0  0  0  0
   10.3687   -2.0899   23.5765 H   0  0  0  0  0  0  0  0  0  0  0  0
   10.9166   -0.1198   24.2092 C   0  0  0  0  0  0  0  0  0  0  0  0
   11.9727   -0.3559   24.3218 H   0  0  0  0  0  0  0  0  0  0  0  0
   10.4775    1.1700   24.4909 C   0  0  0  0  0  0  0  0  0  0  0  0
   11.1698    1.9414   24.8183 H   0  0  0  0  0  0  0  0  0  0  0  0
    9.1235    1.4898   24.3451 C   0  0  0  0  0  0  0  0  0  0  0  0
    8.6508    3.1214   24.7088 Cl  0  0  0  0  0  0  0  0  0  0  0  0
    8.2023    0.5185   23.8986 C   0  0  0  0  0  0  0  0  0  0  0  0
    6.5278    0.9791   23.7394 Cl  0  0  0  0  0  0  0  0  0  0  0  0
    8.3583   -3.2040   22.6153 C   0  0  0  0  0  0  0  0  0  0  0  0
    8.8844   -3.7086   23.4339 H   0  0  0  0  0  0  0  0  0  0  0  0
    7.5962   -3.8943   22.2329 H   0  0  0  0  0  0  0  0  0  0  0  0
    9.0727   -2.9982   21.8066 H   0  0  0  0  0  0  0  0  0  0  0  0
    6.7498   -2.2976   24.3019 C   0  0  0  0  0  0  0  0  0  0  0  0
    7.3890   -2.6455   25.1190 H   0  0  0  0  0  0  0  0  0  0  0  0
    6.1481   -1.4706   24.6891 H   0  0  0  0  0  0  0  0  0  0  0  0
    6.0724   -3.1095   24.0138 H   0  0  0  0  0  0  0  0  0  0  0  0
    5.4821    0.6424   20.1342 C   0  0  0  0  0  0  0  0  0  0  0  0
    5.0575    0.5943   21.1323 H   0  0  0  0  0  0  0  0  0  0  0  0
    4.8236    1.3034   19.0910 C   0  0  0  0  0  0  0  0  0  0  0  0
    3.8838    1.8260   19.2538 H   0  0  0  0  0  0  0  0  0  0  0  0
  1  2  1  0
  2  3  2  0
  3  4  1  0
  4  5  1  0
  4  6  2  0
  6  7  1  0
  7  8  1  0
  7  9  1  0
  9 10  2  0
  9 11  1  0
 11 12  1  0
 12 13  2  0
 13 14  1  0
 13 15  1  0
 15 16  1  0
 15 17  2  0
 17 18  1  0
 17 19  1  0
 19 20  1  0
 19 21  2  0
 21 22  1  0
 11 23  1  0
 23 24  1  0
 23 25  1  0
 23 26  1  0
 11 27  1  0
 27 28  1  0
 27 29  1  0
 27 30  1  0
  6 31  1  0
 31 32  1  0
 31 33  2  0
 33 34  1  0
 33  2  1  0
 21 12  1  0
M  END
>  <cnnaffinity>  (1) 
-5.71526

>  <filename>  (1) 
CC(C)(C(=O)Nc1cccnc1)c1cccc(Cl)c1Cl

$$$$
