
     RDKit          3D

 40 42  0  0  0  0  0  0  0  0999 V2000
    4.9155    1.8487   16.9107 H   0  0  0  0  0  0  0  0  0  0  0  0
    5.3947    1.3241   17.7354 C   0  0  0  0  0  0  0  0  0  0  0  0
    6.5328    0.6761   17.4385 N   0  0  0  0  0  0  0  0  0  0  0  0
    7.1645    0.0503   18.4403 C   0  0  0  0  0  0  0  0  0  0  0  0
    8.1080   -0.4315   18.2005 H   0  0  0  0  0  0  0  0  0  0  0  0
    6.6865    0.0071   19.7663 C   0  0  0  0  0  0  0  0  0  0  0  0
    7.4132   -0.6805   20.8134 N   0  0  0  0  0  0  0  0  0  0  0  0
    6.8016   -1.7351   21.4681 C   0  0  0  0  0  0  0  0  0  0  0  0
    5.7895   -1.9478   21.1371 H   0  0  0  0  0  0  0  0  0  0  0  0
    7.4131   -2.4504   22.4709 C   0  0  0  0  0  0  0  0  0  0  0  0
    6.7398   -3.5917   23.1618 C   0  0  0  0  0  0  0  0  0  0  0  0
    7.4657   -4.6017   23.8301 C   0  0  0  0  0  0  0  0  0  0  0  0
    8.5528   -4.6189   23.7662 H   0  0  0  0  0  0  0  0  0  0  0  0
    6.8143   -5.5851   24.5785 C   0  0  0  0  0  0  0  0  0  0  0  0
    7.4262   -6.3120   25.1095 H   0  0  0  0  0  0  0  0  0  0  0  0
    5.4101   -5.6176   24.6852 C   0  0  0  0  0  0  0  0  0  0  0  0
    4.6285   -6.7041   25.4257 C   0  0  0  0  0  0  0  0  0  0  0  0
    3.6467   -6.2709   25.6628 H   0  0  0  0  0  0  0  0  0  0  0  0
    4.3543   -7.8972   24.4852 C   0  0  0  0  0  0  0  0  0  0  0  0
    5.2855   -8.3807   24.1689 H   0  0  0  0  0  0  0  0  0  0  0  0
    3.7236   -8.6484   24.9797 H   0  0  0  0  0  0  0  0  0  0  0  0
    3.8399   -7.5547   23.5780 H   0  0  0  0  0  0  0  0  0  0  0  0
    5.2349   -7.1514   26.7691 C   0  0  0  0  0  0  0  0  0  0  0  0
    4.6724   -8.0020   27.1785 H   0  0  0  0  0  0  0  0  0  0  0  0
    5.2212   -6.3521   27.5208 H   0  0  0  0  0  0  0  0  0  0  0  0
    6.2717   -7.4712   26.6549 H   0  0  0  0  0  0  0  0  0  0  0  0
    4.6892   -4.6313   23.9851 C   0  0  0  0  0  0  0  0  0  0  0  0
    3.6013   -4.6062   24.0552 H   0  0  0  0  0  0  0  0  0  0  0  0
    5.3342   -3.6644   23.2222 C   0  0  0  0  0  0  0  0  0  0  0  0
    4.7214   -2.9473   22.6881 H   0  0  0  0  0  0  0  0  0  0  0  0
    8.7063   -1.9980   22.8992 C   0  0  0  0  0  0  0  0  0  0  0  0
    9.1799   -2.4861   23.7513 H   0  0  0  0  0  0  0  0  0  0  0  0
    9.3250   -0.9512   22.2916 C   0  0  0  0  0  0  0  0  0  0  0  0
   10.2961   -0.5759   22.5765 H   0  0  0  0  0  0  0  0  0  0  0  0
    8.7368   -0.2395   21.1689 C   0  0  0  0  0  0  0  0  0  0  0  0
    9.3075    0.6564   20.5698 O   0  0  0  0  0  0  0  0  0  0  0  0
    5.4888    0.6691   20.0571 C   0  0  0  0  0  0  0  0  0  0  0  0
    5.1195    0.6776   21.0859 H   0  0  0  0  0  0  0  0  0  0  0  0
    4.8336    1.3441   19.0184 C   0  0  0  0  0  0  0  0  0  0  0  0
    3.9144    1.8930   19.1912 H   0  0  0  0  0  0  0  0  0  0  0  0
  1  2  1  0
  2  3  2  0
  3  4  1  0
  4  5  1  0
  4  6  2  0
  6  7  1  0
  7  8  1  0
  8  9  1  0
  8 10  2  0
 10 11  1  0
 11 12  2  0
 12 13  1  0
 12 14  1  0
 14 15  1  0
 14 16  2  0
 16 17  1  0
 17 18  1  0
 17 19  1  0
 19 20  1  0
 19 21  1  0
 19 22  1  0
 17 23  1  0
 23 24  1  0
 23 25  1  0
 23 26  1  0
 16 27  1  0
 27 28  1  0
 27 29  2  0
 29 30  1  0
 10 31  1  0
 31 32  1  0
 31 33  2  0
 33 34  1  0
 33 35  1  0
 35 36  2  0
  6 37  1  0
 37 38  1  0
 37 39  2  0
 39 40  1  0
 39  2  1  0
 35  7  1  0
 29 11  1  0
M  END
>  <cnnaffinity>  (1) 
-5.57431

>  <filename>  (1) 
CC(C)c1ccc(-c2ccc(=O)n(-c3cccnc3)c2)cc1

$$$$
