
     RDKit          3D

 31 31  0  0  0  0  0  0  0  0999 V2000
    5.1814    1.7442   17.0927 H   0  0  0  0  0  0  0  0  0  0  0  0
    5.5128    1.1828   17.9638 C   0  0  0  0  0  0  0  0  0  0  0  0
    6.6256    0.4534   17.8046 N   0  0  0  0  0  0  0  0  0  0  0  0
    7.0616   -0.2501   18.8456 C   0  0  0  0  0  0  0  0  0  0  0  0
    7.9609   -0.8480   18.6855 H   0  0  0  0  0  0  0  0  0  0  0  0
    6.4192   -0.2192   20.0704 C   0  0  0  0  0  0  0  0  0  0  0  0
    7.3954   -0.9201   21.3010 S   0  0  0  0  0  0  0  0  0  0  0  0
    8.0007    0.0981   22.1260 O   0  0  0  0  0  0  0  0  0  0  0  0
    8.1808   -1.9930   20.7362 O   0  0  0  0  0  0  0  0  0  0  0  0
    6.2474   -1.5423   22.2564 N   0  0  0  0  0  0  0  0  0  0  0  0
    6.6042   -1.6762   23.1884 H   0  0  0  0  0  0  0  0  0  0  0  0
    5.6182   -2.6132   21.7250 C   0  0  0  0  0  0  0  0  0  0  0  0
    5.5095   -2.8515   20.5523 O   0  0  0  0  0  0  0  0  0  0  0  0
    4.9342   -3.3523   22.6477 N   0  0  0  0  0  0  0  0  0  0  0  0
    4.2763   -3.9517   22.1952 H   0  0  0  0  0  0  0  0  0  0  0  0
    5.1360   -3.3483   24.0001 C   0  0  0  0  0  0  0  0  0  0  0  0
    6.1739   -2.9330   24.4803 O   0  0  0  0  0  0  0  0  0  0  0  0
    3.9930   -3.9012   24.8542 C   0  0  0  0  0  0  0  0  0  0  0  0
    3.0920   -3.8232   24.2336 H   0  0  0  0  0  0  0  0  0  0  0  0
    3.7989   -3.0596   26.1312 C   0  0  0  0  0  0  0  0  0  0  0  0
    4.7142   -3.0828   26.7364 H   0  0  0  0  0  0  0  0  0  0  0  0
    3.5606   -2.0126   25.9094 H   0  0  0  0  0  0  0  0  0  0  0  0
    2.9750   -3.4681   26.7289 H   0  0  0  0  0  0  0  0  0  0  0  0
    4.2321   -5.3813   25.2247 C   0  0  0  0  0  0  0  0  0  0  0  0
    4.2712   -6.0359   24.3451 H   0  0  0  0  0  0  0  0  0  0  0  0
    5.1657   -5.4932   25.7958 H   0  0  0  0  0  0  0  0  0  0  0  0
    3.4058   -5.7405   25.8520 H   0  0  0  0  0  0  0  0  0  0  0  0
    5.2373    0.5111   20.2590 C   0  0  0  0  0  0  0  0  0  0  0  0
    4.6799    0.5265   21.1995 H   0  0  0  0  0  0  0  0  0  0  0  0
    4.7919    1.2396   19.1601 C   0  0  0  0  0  0  0  0  0  0  0  0
    3.8994    1.8522   19.2070 H   0  0  0  0  0  0  0  0  0  0  0  0
  1  2  1  0
  2  3  2  0
  3  4  1  0
  4  5  1  0
  4  6  2  0
  6  7  1  0
  7  8  2  0
  7  9  2  0
  7 10  1  0
 10 11  1  0
 10 12  1  0
 12 13  2  0
 12 14  1  0
 14 15  1  0
 14 16  1  0
 16 17  2  0
 16 18  1  0
 18 19  1  0
 18 20  1  0
 20 21  1  0
 20 22  1  0
 20 23  1  0
 18 24  1  0
 24 25  1  0
 24 26  1  0
 24 27  1  0
  6 28  1  0
 28 29  1  0
 28 30  2  0
 30 31  1  0
 30  2  1  0
M  END
>  <cnnaffinity>  (1) 
-4.96404

>  <filename>  (1) 
CC(C)C(=O)NC(=O)NS(=O)(=O)c1cccnc1

$$$$
