
     RDKit          3D

 36 38  0  0  0  0  0  0  0  0999 V2000
    5.0233    1.8236   16.8268 H   0  0  0  0  0  0  0  0  0  0  0  0
    5.4593    1.2919   17.6684 C   0  0  0  0  0  0  0  0  0  0  0  0
    6.5931    0.6235   17.4140 N   0  0  0  0  0  0  0  0  0  0  0  0
    7.1666   -0.0227   18.4334 C   0  0  0  0  0  0  0  0  0  0  0  0
    8.0782   -0.5737   18.2109 H   0  0  0  0  0  0  0  0  0  0  0  0
    6.6536   -0.0229   19.7447 C   0  0  0  0  0  0  0  0  0  0  0  0
    7.4209   -0.6544   20.8284 C   0  0  0  0  0  0  0  0  0  0  0  0
    8.6199   -1.2278   20.6062 N   0  0  0  0  0  0  0  0  0  0  0  0
    8.9727   -1.6623   21.8432 N   0  0  0  0  0  0  0  0  0  0  0  0
   10.1069   -2.1947   22.4564 C   0  0  0  0  0  0  0  0  0  0  0  0
   10.9554   -2.4915   21.8688 H   0  0  0  0  0  0  0  0  0  0  0  0
    9.8582   -2.2008   23.7957 C   0  0  0  0  0  0  0  0  0  0  0  0
   10.4607   -2.5917   24.6063 H   0  0  0  0  0  0  0  0  0  0  0  0
    8.5756   -1.6625   24.0268 N   0  0  0  0  0  0  0  0  0  0  0  0
    8.0457   -0.9035   25.1605 C   0  0  0  0  0  0  0  0  0  0  0  0
    7.0220   -1.2617   25.3102 H   0  0  0  0  0  0  0  0  0  0  0  0
    8.6416   -1.1563   26.0559 H   0  0  0  0  0  0  0  0  0  0  0  0
    7.9873    0.5267   24.8749 N   0  0  0  0  0  0  0  0  0  0  0  0
    7.5421    1.0278   25.6336 H   0  0  0  0  0  0  0  0  0  0  0  0
    9.2613    1.1630   24.5552 C   0  0  0  0  0  0  0  0  0  0  0  0
    9.7925    0.5165   23.8458 H   0  0  0  0  0  0  0  0  0  0  0  0
   10.1397    1.3382   25.7931 C   0  0  0  0  0  0  0  0  0  0  0  0
   11.1443    1.6455   25.4873 H   0  0  0  0  0  0  0  0  0  0  0  0
    9.7215    2.1118   26.4471 H   0  0  0  0  0  0  0  0  0  0  0  0
   10.2230    0.4189   26.3868 H   0  0  0  0  0  0  0  0  0  0  0  0
    9.0067    2.4924   23.8519 C   0  0  0  0  0  0  0  0  0  0  0  0
    8.4935    2.3492   22.8945 H   0  0  0  0  0  0  0  0  0  0  0  0
    8.3819    3.1362   24.4833 H   0  0  0  0  0  0  0  0  0  0  0  0
    9.9570    3.0101   23.6661 H   0  0  0  0  0  0  0  0  0  0  0  0
    8.0628   -1.3718   22.7814 C   0  0  0  0  0  0  0  0  0  0  0  0
    7.0230   -0.7019   22.1829 C   0  0  0  0  0  0  0  0  0  0  0  0
    6.2057   -0.2361   22.7026 H   0  0  0  0  0  0  0  0  0  0  0  0
    5.4282    0.6260   19.9783 C   0  0  0  0  0  0  0  0  0  0  0  0
    4.9473    0.6094   20.9625 H   0  0  0  0  0  0  0  0  0  0  0  0
    4.8281    1.3033   18.9197 C   0  0  0  0  0  0  0  0  0  0  0  0
    3.8970    1.8442   19.0464 H   0  0  0  0  0  0  0  0  0  0  0  0
  1  2  1  0
  2  3  2  0
  3  4  1  0
  4  5  1  0
  4  6  2  0
  6  7  1  0
  7  8  2  0
  8  9  1  0
  9 10  1  0
 10 11  1  0
 10 12  2  0
 12 13  1  0
 12 14  1  0
 14 15  1  0
 15 16  1  0
 15 17  1  0
 15 18  1  0
 18 19  1  0
 18 20  1  0
 20 21  1  0
 20 22  1  0
 22 23  1  0
 22 24  1  0
 22 25  1  0
 20 26  1  0
 26 27  1  0
 26 28  1  0
 26 29  1  0
 14 30  1  0
 30 31  2  0
 31 32  1  0
  6 33  1  0
 33 34  1  0
 33 35  2  0
 35 36  1  0
 35  2  1  0
 31  7  1  0
 30  9  1  0
M  END
>  <cnnaffinity>  (1) 
-5.19686

>  <filename>  (1) 
CC(C)NCn1ccn2nc(-c3cccnc3)cc12

$$$$
