
     RDKit          3D

 32 33  0  0  0  0  0  0  0  0999 V2000
    4.9195    1.7812   16.9907 H   0  0  0  0  0  0  0  0  0  0  0  0
    5.4047    1.3129   17.8485 C   0  0  0  0  0  0  0  0  0  0  0  0
    6.5822    0.7059   17.6121 N   0  0  0  0  0  0  0  0  0  0  0  0
    7.1909    0.0915   18.6362 C   0  0  0  0  0  0  0  0  0  0  0  0
    8.1383   -0.4051   18.4202 H   0  0  0  0  0  0  0  0  0  0  0  0
    6.6590    0.0648   19.9487 C   0  0  0  0  0  0  0  0  0  0  0  0
    7.2875   -0.6116   21.0489 N   0  0  0  0  0  0  0  0  0  0  0  0
    7.7630   -0.1451   22.2775 C   0  0  0  0  0  0  0  0  0  0  0  0
    7.3943    1.0634   22.7468 N   0  0  0  0  0  0  0  0  0  0  0  0
    7.1425    1.7465   22.0531 H   0  0  0  0  0  0  0  0  0  0  0  0
    7.4844    1.4610   24.1557 C   0  0  0  0  0  0  0  0  0  0  0  0
    6.5678    0.5607   25.0022 C   0  0  0  0  0  0  0  0  0  0  0  0
    6.5497    0.8832   26.0511 H   0  0  0  0  0  0  0  0  0  0  0  0
    5.5396    0.6012   24.6249 H   0  0  0  0  0  0  0  0  0  0  0  0
    6.9122   -0.4775   24.9654 H   0  0  0  0  0  0  0  0  0  0  0  0
    7.0049    2.9104   24.2227 C   0  0  0  0  0  0  0  0  0  0  0  0
    7.0321    3.2960   25.2496 H   0  0  0  0  0  0  0  0  0  0  0  0
    5.9734    2.9967   23.8623 H   0  0  0  0  0  0  0  0  0  0  0  0
    7.6462    3.5554   23.6111 H   0  0  0  0  0  0  0  0  0  0  0  0
    8.9375    1.3659   24.6466 C   0  0  0  0  0  0  0  0  0  0  0  0
    9.5878    1.9360   23.9747 H   0  0  0  0  0  0  0  0  0  0  0  0
    9.2769    0.3287   24.6546 H   0  0  0  0  0  0  0  0  0  0  0  0
    9.0397    1.7741   25.6584 H   0  0  0  0  0  0  0  0  0  0  0  0
    8.4839   -1.0332   22.8982 N   0  0  0  0  0  0  0  0  0  0  0  0
    8.3597   -2.1659   22.0996 N   0  0  0  0  0  0  0  0  0  0  0  0
    8.4793   -3.0936   22.4750 H   0  0  0  0  0  0  0  0  0  0  0  0
    7.4226   -2.0029   21.1202 C   0  0  0  0  0  0  0  0  0  0  0  0
    6.8253   -2.8609   20.5052 O   0  0  0  0  0  0  0  0  0  0  0  0
    5.4429    0.7047   20.1758 C   0  0  0  0  0  0  0  0  0  0  0  0
    5.0260    0.6689   21.1795 H   0  0  0  0  0  0  0  0  0  0  0  0
    4.7978    1.3366   19.1073 C   0  0  0  0  0  0  0  0  0  0  0  0
    3.8407    1.8267   19.2429 H   0  0  0  0  0  0  0  0  0  0  0  0
  1  2  1  0
  2  3  2  0
  3  4  1  0
  4  5  1  0
  4  6  2  0
  6  7  1  0
  7  8  1  0
  8  9  1  0
  9 10  1  0
  9 11  1  0
 11 12  1  0
 12 13  1  0
 12 14  1  0
 12 15  1  0
 11 16  1  0
 16 17  1  0
 16 18  1  0
 16 19  1  0
 11 20  1  0
 20 21  1  0
 20 22  1  0
 20 23  1  0
  8 24  2  0
 24 25  1  0
 25 26  1  0
 25 27  1  0
 27 28  2  0
  6 29  1  0
 29 30  1  0
 29 31  2  0
 31 32  1  0
 31  2  1  0
 27  7  1  0
M  END
>  <cnnaffinity>  (1) 
-4.66097

>  <filename>  (1) 
CC(C)(C)Nc1n[nH]c(=O)n1-c1cccnc1

$$$$
