
     RDKit          3D

 35 37  0  0  0  0  0  0  0  0999 V2000
    4.9965    1.8389   16.9041 H   0  0  0  0  0  0  0  0  0  0  0  0
    5.4254    1.2958   17.7446 C   0  0  0  0  0  0  0  0  0  0  0  0
    6.5737    0.6421   17.5062 N   0  0  0  0  0  0  0  0  0  0  0  0
    7.1425    0.0037   18.5362 C   0  0  0  0  0  0  0  0  0  0  0  0
    8.0727   -0.5173   18.3198 H   0  0  0  0  0  0  0  0  0  0  0  0
    6.6028   -0.0203   19.8388 C   0  0  0  0  0  0  0  0  0  0  0  0
    7.3304   -0.6496   20.9553 C   0  0  0  0  0  0  0  0  0  0  0  0
    8.4502   -1.3571   20.7438 N   0  0  0  0  0  0  0  0  0  0  0  0
    8.8607   -1.6500   22.0010 N   0  0  0  0  0  0  0  0  0  0  0  0
   10.0257   -2.1857   22.5490 C   0  0  0  0  0  0  0  0  0  0  0  0
   10.8074   -2.5801   21.9272 H   0  0  0  0  0  0  0  0  0  0  0  0
    9.9359   -2.0079   23.8841 C   0  0  0  0  0  0  0  0  0  0  0  0
   10.6302   -2.2560   24.6741 H   0  0  0  0  0  0  0  0  0  0  0  0
    8.7238   -1.3633   24.1838 N   0  0  0  0  0  0  0  0  0  0  0  0
    8.3786   -0.8354   25.4607 C   0  0  0  0  0  0  0  0  0  0  0  0
    9.2113   -0.5904   26.3141 O   0  0  0  0  0  0  0  0  0  0  0  0
    7.0423   -0.6688   25.6378 N   0  0  0  0  0  0  0  0  0  0  0  0
    6.4636   -0.8806   24.8390 H   0  0  0  0  0  0  0  0  0  0  0  0
    6.5111    0.1958   26.6851 C   0  0  0  0  0  0  0  0  0  0  0  0
    7.0479   -0.0448   27.6155 H   0  0  0  0  0  0  0  0  0  0  0  0
    5.0350   -0.1258   26.8496 C   0  0  0  0  0  0  0  0  0  0  0  0
    4.4744    0.1441   25.9429 H   0  0  0  0  0  0  0  0  0  0  0  0
    4.8988   -1.1928   27.0571 H   0  0  0  0  0  0  0  0  0  0  0  0
    4.6074    0.4428   27.6819 H   0  0  0  0  0  0  0  0  0  0  0  0
    6.7480    1.6763   26.3711 C   0  0  0  0  0  0  0  0  0  0  0  0
    6.3730    2.2904   27.1980 H   0  0  0  0  0  0  0  0  0  0  0  0
    7.8181    1.8775   26.2444 H   0  0  0  0  0  0  0  0  0  0  0  0
    6.2257    1.9764   25.4519 H   0  0  0  0  0  0  0  0  0  0  0  0
    8.0702   -1.1528   22.9611 C   0  0  0  0  0  0  0  0  0  0  0  0
    7.0180   -0.5164   22.3330 C   0  0  0  0  0  0  0  0  0  0  0  0
    6.1764   -0.0118   22.7658 H   0  0  0  0  0  0  0  0  0  0  0  0
    5.3779    0.6333   20.0557 C   0  0  0  0  0  0  0  0  0  0  0  0
    4.8963    0.6297   21.0381 H   0  0  0  0  0  0  0  0  0  0  0  0
    4.7883    1.3053   18.9899 C   0  0  0  0  0  0  0  0  0  0  0  0
    3.8688    1.8646   19.1232 H   0  0  0  0  0  0  0  0  0  0  0  0
  1  2  1  0
  2  3  2  0
  3  4  1  0
  4  5  1  0
  4  6  2  0
  6  7  1  0
  7  8  2  0
  8  9  1  0
  9 10  1  0
 10 11  1  0
 10 12  2  0
 12 13  1  0
 12 14  1  0
 14 15  1  0
 15 16  2  0
 15 17  1  0
 17 18  1  0
 17 19  1  0
 19 20  1  0
 19 21  1  0
 21 22  1  0
 21 23  1  0
 21 24  1  0
 19 25  1  0
 25 26  1  0
 25 27  1  0
 25 28  1  0
 14 29  1  0
 29 30  2  0
 30 31  1  0
  6 32  1  0
 32 33  1  0
 32 34  2  0
 34 35  1  0
 34  2  1  0
 30  7  1  0
 29  9  1  0
M  END
>  <cnnaffinity>  (1) 
-5.10851

>  <filename>  (1) 
CC(C)NC(=O)n1ccn2nc(-c3cccnc3)cc12

$$$$
