
     RDKit          3D

 38 39  0  0  0  0  0  0  0  0999 V2000
    4.8286    1.8822   16.9678 H   0  0  0  0  0  0  0  0  0  0  0  0
    5.3306    1.3384   17.7655 C   0  0  0  0  0  0  0  0  0  0  0  0
    6.4739    0.7161   17.4339 N   0  0  0  0  0  0  0  0  0  0  0  0
    7.1376    0.0871   18.4129 C   0  0  0  0  0  0  0  0  0  0  0  0
    8.0618   -0.4092   18.1349 H   0  0  0  0  0  0  0  0  0  0  0  0
    6.6978    0.0292   19.7585 C   0  0  0  0  0  0  0  0  0  0  0  0
    7.4352   -0.6118   20.7839 N   0  0  0  0  0  0  0  0  0  0  0  0
    6.9000   -1.0002   21.5431 H   0  0  0  0  0  0  0  0  0  0  0  0
    8.8086   -0.6346   20.9246 C   0  0  0  0  0  0  0  0  0  0  0  0
    9.5274   -0.0042   20.1699 O   0  0  0  0  0  0  0  0  0  0  0  0
    9.3651   -1.6075   22.0831 C   0  0  0  0  0  0  0  0  0  0  0  0
    8.9160   -1.3641   23.4621 N   0  0  0  0  0  0  0  0  0  0  0  0
    8.1787   -1.9772   23.7988 H   0  0  0  0  0  0  0  0  0  0  0  0
    8.8657   -0.0021   23.9674 C   0  0  0  0  0  0  0  0  0  0  0  0
    9.8536    0.4540   23.8203 H   0  0  0  0  0  0  0  0  0  0  0  0
    8.1457    0.6372   23.4289 H   0  0  0  0  0  0  0  0  0  0  0  0
    8.5597    0.0181   25.4456 C   0  0  0  0  0  0  0  0  0  0  0  0
    7.2822    0.2883   25.9458 C   0  0  0  0  0  0  0  0  0  0  0  0
    6.4537    0.5150   25.2899 H   0  0  0  0  0  0  0  0  0  0  0  0
    7.0588    0.2433   27.3236 C   0  0  0  0  0  0  0  0  0  0  0  0
    6.0676    0.4421   27.7260 H   0  0  0  0  0  0  0  0  0  0  0  0
    8.0165   -0.0329   28.2099 N   0  0  0  0  0  0  0  0  0  0  0  0
    9.2421   -0.2829   27.7395 C   0  0  0  0  0  0  0  0  0  0  0  0
   10.0038   -0.5359   28.4771 H   0  0  0  0  0  0  0  0  0  0  0  0
    9.5675   -0.2411   26.3842 C   0  0  0  0  0  0  0  0  0  0  0  0
   10.5974   -0.3815   26.0843 H   0  0  0  0  0  0  0  0  0  0  0  0
    8.9250   -3.0491   21.7758 C   0  0  0  0  0  0  0  0  0  0  0  0
    7.8371   -3.1528   21.8304 H   0  0  0  0  0  0  0  0  0  0  0  0
    9.2310   -3.3631   20.7763 H   0  0  0  0  0  0  0  0  0  0  0  0
    9.3720   -3.7218   22.5181 H   0  0  0  0  0  0  0  0  0  0  0  0
   10.9038   -1.5124   22.0994 C   0  0  0  0  0  0  0  0  0  0  0  0
   11.3264   -1.7804   21.1261 H   0  0  0  0  0  0  0  0  0  0  0  0
   11.2245   -0.4886   22.3266 H   0  0  0  0  0  0  0  0  0  0  0  0
   11.2915   -2.1881   22.8706 H   0  0  0  0  0  0  0  0  0  0  0  0
    5.4743    0.6322   20.0728 C   0  0  0  0  0  0  0  0  0  0  0  0
    5.0915    0.5960   21.0929 H   0  0  0  0  0  0  0  0  0  0  0  0
    4.7911    1.3087   19.0566 C   0  0  0  0  0  0  0  0  0  0  0  0
    3.8619    1.8269   19.2610 H   0  0  0  0  0  0  0  0  0  0  0  0
  1  2  1  0
  2  3  2  0
  3  4  1  0
  4  5  1  0
  4  6  2  0
  6  7  1  0
  7  8  1  0
  7  9  1  0
  9 10  2  0
  9 11  1  0
 11 12  1  0
 12 13  1  0
 12 14  1  0
 14 15  1  0
 14 16  1  0
 14 17  1  0
 17 18  2  0
 18 19  1  0
 18 20  1  0
 20 21  1  0
 20 22  2  0
 22 23  1  0
 23 24  1  0
 23 25  2  0
 25 26  1  0
 11 27  1  0
 27 28  1  0
 27 29  1  0
 27 30  1  0
 11 31  1  0
 31 32  1  0
 31 33  1  0
 31 34  1  0
  6 35  1  0
 35 36  1  0
 35 37  2  0
 37 38  1  0
 37  2  1  0
 25 17  1  0
M  END
>  <cnnaffinity>  (1) 
-4.62855

>  <filename>  (1) 
CC(C)(NCc1ccncc1)C(=O)Nc1cccnc1

$$$$
