
     RDKit          3D

 45 48  0  0  0  0  0  0  0  0999 V2000
    5.0119    1.8101   16.9185 H   0  0  0  0  0  0  0  0  0  0  0  0
    5.4044    1.2954   17.7925 C   0  0  0  0  0  0  0  0  0  0  0  0
    6.5571    0.6298   17.6211 N   0  0  0  0  0  0  0  0  0  0  0  0
    7.0726    0.0225   18.6963 C   0  0  0  0  0  0  0  0  0  0  0  0
    7.9997   -0.5257   18.5359 H   0  0  0  0  0  0  0  0  0  0  0  0
    6.4834    0.0210   19.9744 C   0  0  0  0  0  0  0  0  0  0  0  0
    7.2547   -0.5591   21.0847 C   0  0  0  0  0  0  0  0  0  0  0  0
    8.6125   -0.5014   21.3145 C   0  0  0  0  0  0  0  0  0  0  0  0
    8.8197   -1.0975   22.5492 C   0  0  0  0  0  0  0  0  0  0  0  0
    7.7061   -1.5619   23.0862 N   0  0  0  0  0  0  0  0  0  0  0  0
    6.7571   -1.2071   22.1807 N   0  0  0  0  0  0  0  0  0  0  0  0
    5.8074   -1.5199   22.3253 H   0  0  0  0  0  0  0  0  0  0  0  0
   10.2516   -1.0535   22.9839 C   0  0  0  0  0  0  0  0  0  0  0  0
   10.6864   -2.0585   23.0142 H   0  0  0  0  0  0  0  0  0  0  0  0
   10.3462   -0.6303   23.9877 H   0  0  0  0  0  0  0  0  0  0  0  0
   10.9455   -0.1759   21.8782 C   0  0  2  0  0  0  0  0  0  0  0  0
   11.7945   -0.7414   21.4787 H   0  0  0  0  0  0  0  0  0  0  0  0
   11.4726    1.1527   22.3947 C   0  0  0  0  0  0  0  0  0  0  0  0
   10.5900    2.1186   22.8961 C   0  0  0  0  0  0  0  0  0  0  0  0
    9.5268    1.8898   22.9377 H   0  0  0  0  0  0  0  0  0  0  0  0
   11.0355    3.3681   23.3395 C   0  0  0  0  0  0  0  0  0  0  0  0
   10.3225    4.0953   23.7082 H   0  0  0  0  0  0  0  0  0  0  0  0
   12.4041    3.6836   23.2911 C   0  0  0  0  0  0  0  0  0  0  0  0
   12.9603    4.8646   23.6877 O   0  0  0  0  0  0  0  0  0  0  0  0
   12.1509    5.9327   24.2141 C   0  0  0  0  0  0  0  0  0  0  0  0
   11.3217    6.1179   23.5106 H   0  0  0  0  0  0  0  0  0  0  0  0
   11.6491    5.6123   25.6239 C   0  0  0  0  0  0  0  0  0  0  0  0
   10.6829    5.0984   25.6102 H   0  0  0  0  0  0  0  0  0  0  0  0
   12.4094    4.9998   26.1197 H   0  0  0  0  0  0  0  0  0  0  0  0
   11.5304    6.5307   26.2123 H   0  0  0  0  0  0  0  0  0  0  0  0
   13.0336    7.1657   24.2644 C   0  0  0  0  0  0  0  0  0  0  0  0
   13.5822    7.3129   23.3337 H   0  0  0  0  0  0  0  0  0  0  0  0
   13.7388    7.0913   25.0950 H   0  0  0  0  0  0  0  0  0  0  0  0
   12.4357    8.0542   24.4642 H   0  0  0  0  0  0  0  0  0  0  0  0
   13.3030    2.7215   22.7921 C   0  0  0  0  0  0  0  0  0  0  0  0
   14.3574    2.9730   22.7274 H   0  0  0  0  0  0  0  0  0  0  0  0
   12.8407    1.4783   22.3632 C   0  0  0  0  0  0  0  0  0  0  0  0
   13.5447    0.7341   21.9921 H   0  0  0  0  0  0  0  0  0  0  0  0
    9.8848    0.0077   20.7319 C   0  0  0  0  0  0  0  0  0  0  0  0
    9.8057    1.0455   20.3814 H   0  0  0  0  0  0  0  0  0  0  0  0
   10.1706   -0.5997   19.8700 H   0  0  0  0  0  0  0  0  0  0  0  0
    5.2465    0.6745   20.1164 C   0  0  0  0  0  0  0  0  0  0  0  0
    4.7319    0.6811   21.0787 H   0  0  0  0  0  0  0  0  0  0  0  0
    4.7124    1.3356   19.0099 C   0  0  0  0  0  0  0  0  0  0  0  0
    3.7871    1.8964   19.0807 H   0  0  0  0  0  0  0  0  0  0  0  0
  1  2  1  0
  2  3  2  0
  3  4  1  0
  4  5  1  0
  4  6  2  0
  6  7  1  0
  7  8  2  0
  8  9  1  0
  9 10  2  0
 10 11  1  0
 11 12  1  0
  9 13  1  0
 13 14  1  0
 13 15  1  0
 13 16  1  0
 16 17  1  6
 16 18  1  0
 18 19  2  0
 19 20  1  0
 19 21  1  0
 21 22  1  0
 21 23  2  0
 23 24  1  0
 24 25  1  0
 25 26  1  0
 25 27  1  0
 27 28  1  0
 27 29  1  0
 27 30  1  0
 25 31  1  0
 31 32  1  0
 31 33  1  0
 31 34  1  0
 23 35  1  0
 35 36  1  0
 35 37  2  0
 37 38  1  0
 16 39  1  0
 39 40  1  0
 39 41  1  0
  6 42  1  0
 42 43  1  0
 42 44  2  0
 44 45  1  0
 44  2  1  0
 11  7  1  0
 37 18  1  0
 39  8  1  0
M  END
>  <cnnaffinity>  (1) 
-5.86082

>  <filename>  (1) 
CC(C)Oc1ccc([C@H]2Cc3n[nH]c(-c4cccnc4)c3C2)cc1

$$$$
