
     RDKit          3D

 33 34  0  0  0  0  0  0  0  0999 V2000
    4.9084    1.7806   16.9947 H   0  0  0  0  0  0  0  0  0  0  0  0
    5.3983    1.2967   17.8342 C   0  0  0  0  0  0  0  0  0  0  0  0
    6.5627    0.6837   17.5640 N   0  0  0  0  0  0  0  0  0  0  0  0
    7.1839    0.0780   18.5825 C   0  0  0  0  0  0  0  0  0  0  0  0
    8.1221   -0.4324   18.3707 H   0  0  0  0  0  0  0  0  0  0  0  0
    6.6724    0.0344   19.8919 C   0  0  0  0  0  0  0  0  0  0  0  0
    7.3671   -0.6603   20.9409 N   0  0  0  0  0  0  0  0  0  0  0  0
    8.6530   -0.2597   21.2725 C   0  0  0  0  0  0  0  0  0  0  0  0
    9.0550    0.5767   20.7025 H   0  0  0  0  0  0  0  0  0  0  0  0
    9.3427   -0.8856   22.2650 C   0  0  0  0  0  0  0  0  0  0  0  0
   10.3396   -0.5415   22.5166 H   0  0  0  0  0  0  0  0  0  0  0  0
    8.7599   -1.9762   22.9739 C   0  0  0  0  0  0  0  0  0  0  0  0
    9.5047   -2.6410   24.0994 C   0  0  0  0  0  0  0  0  0  0  0  0
   10.5798   -2.6224   23.8737 H   0  0  0  0  0  0  0  0  0  0  0  0
    9.2158   -3.6991   24.1328 H   0  0  0  0  0  0  0  0  0  0  0  0
    9.2538   -2.0045   25.4835 C   0  0  0  0  0  0  0  0  0  0  0  0
    9.7914   -2.6240   26.2064 H   0  0  0  0  0  0  0  0  0  0  0  0
    9.7640   -0.5623   25.5607 C   0  0  0  0  0  0  0  0  0  0  0  0
   10.8044   -0.4750   25.2263 H   0  0  0  0  0  0  0  0  0  0  0  0
    9.1609    0.1062   24.9330 H   0  0  0  0  0  0  0  0  0  0  0  0
    9.7109   -0.1785   26.5850 H   0  0  0  0  0  0  0  0  0  0  0  0
    7.7962   -2.0978   25.9257 C   0  0  0  0  0  0  0  0  0  0  0  0
    7.1457   -1.4682   25.3116 H   0  0  0  0  0  0  0  0  0  0  0  0
    7.4318   -3.1290   25.8637 H   0  0  0  0  0  0  0  0  0  0  0  0
    7.6882   -1.7709   26.9656 H   0  0  0  0  0  0  0  0  0  0  0  0
    7.4939   -2.3774   22.6413 C   0  0  0  0  0  0  0  0  0  0  0  0
    6.9805   -3.1784   23.1430 H   0  0  0  0  0  0  0  0  0  0  0  0
    6.7067   -1.7543   21.6056 C   0  0  0  0  0  0  0  0  0  0  0  0
    5.5927   -2.1296   21.2796 O   0  0  0  0  0  0  0  0  0  0  0  0
    5.4469    0.6551   20.1574 C   0  0  0  0  0  0  0  0  0  0  0  0
    5.0182    0.6133   21.1620 H   0  0  0  0  0  0  0  0  0  0  0  0
    4.8076    1.3150   19.1047 C   0  0  0  0  0  0  0  0  0  0  0  0
    3.8718    1.8444   19.2619 H   0  0  0  0  0  0  0  0  0  0  0  0
  1  2  1  0
  2  3  2  0
  3  4  1  0
  4  5  1  0
  4  6  2  0
  6  7  1  0
  7  8  1  0
  8  9  1  0
  8 10  2  0
 10 11  1  0
 10 12  1  0
 12 13  1  0
 13 14  1  0
 13 15  1  0
 13 16  1  0
 16 17  1  0
 16 18  1  0
 18 19  1  0
 18 20  1  0
 18 21  1  0
 16 22  1  0
 22 23  1  0
 22 24  1  0
 22 25  1  0
 12 26  2  0
 26 27  1  0
 26 28  1  0
 28 29  2  0
  6 30  1  0
 30 31  1  0
 30 32  2  0
 32 33  1  0
 32  2  1  0
 28  7  1  0
M  END
>  <cnnaffinity>  (1) 
-5.20193

>  <filename>  (1) 
CC(C)Cc1ccn(-c2cccnc2)c(=O)c1

$$$$
