
     RDKit          3D

 35 37  0  0  0  0  0  0  0  0999 V2000
    5.0395    1.8510   17.0556 H   0  0  0  0  0  0  0  0  0  0  0  0
    5.5463    1.3011   17.8457 C   0  0  0  0  0  0  0  0  0  0  0  0
    6.6978    0.6996   17.5038 N   0  0  0  0  0  0  0  0  0  0  0  0
    7.3584    0.0148   18.4474 C   0  0  0  0  0  0  0  0  0  0  0  0
    8.2957   -0.4444   18.1301 H   0  0  0  0  0  0  0  0  0  0  0  0
    6.8814   -0.1368   19.7647 C   0  0  0  0  0  0  0  0  0  0  0  0
    7.5529   -0.9479   20.7190 N   0  0  0  0  0  0  0  0  0  0  0  0
    8.8862   -0.8681   21.1145 C   0  0  0  0  0  0  0  0  0  0  0  0
    9.5358   -0.1551   20.6337 H   0  0  0  0  0  0  0  0  0  0  0  0
    9.1068   -1.7108   22.1581 C   0  0  0  0  0  0  0  0  0  0  0  0
    9.9797   -1.9249   22.7494 H   0  0  0  0  0  0  0  0  0  0  0  0
    7.8982   -2.3266   22.4188 N   0  0  0  0  0  0  0  0  0  0  0  0
    7.4119   -3.1862   23.3607 N   0  0  0  0  0  0  0  0  0  0  0  0
    6.1293   -3.2540   23.0254 C   0  0  0  0  0  0  0  0  0  0  0  0
    5.2603   -4.0226   23.7954 N   0  0  0  0  0  0  0  0  0  0  0  0
    5.6017   -4.2896   24.6993 H   0  0  0  0  0  0  0  0  0  0  0  0
    4.0916   -4.5051   23.2747 C   0  0  0  0  0  0  0  0  0  0  0  0
    3.8523   -4.3838   22.0874 O   0  0  0  0  0  0  0  0  0  0  0  0
    3.0568   -5.1907   24.1800 C   0  0  0  0  0  0  0  0  0  0  0  0
    3.4547   -5.2628   25.1988 H   0  0  0  0  0  0  0  0  0  0  0  0
    1.7536   -4.3623   24.1752 C   0  0  0  0  0  0  0  0  0  0  0  0
    0.9581   -4.8431   24.7512 H   0  0  0  0  0  0  0  0  0  0  0  0
    1.8771   -3.3445   24.5511 H   0  0  0  0  0  0  0  0  0  0  0  0
    1.3972   -4.2753   23.1460 H   0  0  0  0  0  0  0  0  0  0  0  0
    2.7505   -6.5910   23.6001 C   0  0  0  0  0  0  0  0  0  0  0  0
    1.9946   -7.1210   24.1929 H   0  0  0  0  0  0  0  0  0  0  0  0
    3.6441   -7.2234   23.5434 H   0  0  0  0  0  0  0  0  0  0  0  0
    2.3622   -6.4608   22.5802 H   0  0  0  0  0  0  0  0  0  0  0  0
    5.7710   -2.4793   21.9128 C   0  0  0  0  0  0  0  0  0  0  0  0
    4.7794   -2.4037   21.5488 H   0  0  0  0  0  0  0  0  0  0  0  0
    6.9526   -1.8693   21.5627 C   0  0  0  0  0  0  0  0  0  0  0  0
    5.6857    0.5134   20.1148 C   0  0  0  0  0  0  0  0  0  0  0  0
    5.3190    0.4417   21.1398 H   0  0  0  0  0  0  0  0  0  0  0  0
    5.0096    1.2467   19.1371 C   0  0  0  0  0  0  0  0  0  0  0  0
    4.0892    1.7778   19.3639 H   0  0  0  0  0  0  0  0  0  0  0  0
  1  2  1  0
  2  3  2  0
  3  4  1  0
  4  5  1  0
  4  6  2  0
  6  7  1  0
  7  8  1  0
  8  9  1  0
  8 10  2  0
 10 11  1  0
 10 12  1  0
 12 13  1  0
 13 14  2  0
 14 15  1  0
 15 16  1  0
 15 17  1  0
 17 18  2  0
 17 19  1  0
 19 20  1  0
 19 21  1  0
 21 22  1  0
 21 23  1  0
 21 24  1  0
 19 25  1  0
 25 26  1  0
 25 27  1  0
 25 28  1  0
 14 29  1  0
 29 30  1  0
 29 31  2  0
  6 32  1  0
 32 33  1  0
 32 34  2  0
 34 35  1  0
 34  2  1  0
 31  7  1  0
 31 12  1  0
M  END
>  <cnnaffinity>  (1) 
-5.38844

>  <filename>  (1) 
CC(C)C(=O)Nc1cc2n(-c3cccnc3)ccn2n1

$$$$
