
     RDKit          3D

 36 37  0  0  0  0  0  0  0  0999 V2000
    8.2636   -3.0468   27.2569 C   0  0  0  0  0  0  0  0  0  0  0  0
    7.9550   -3.6889   25.8956 C   0  0  0  0  0  0  0  0  0  0  0  0
    8.4665   -5.1363   25.8349 C   0  0  0  0  0  0  0  0  0  0  0  0
    8.0500   -5.7264   26.6597 H   0  0  0  0  0  0  0  0  0  0  0  0
    8.1828   -5.6220   24.8952 H   0  0  0  0  0  0  0  0  0  0  0  0
    9.5580   -5.1628   25.9196 H   0  0  0  0  0  0  0  0  0  0  0  0
    8.5975   -2.8231   24.8041 C   0  0  0  0  0  0  0  0  0  0  0  0
    9.7860   -2.8828   24.5310 O   0  0  0  0  0  0  0  0  0  0  0  0
    7.7518   -1.9601   24.1696 N   0  0  0  0  0  0  0  0  0  0  0  0
    8.1619   -1.1338   23.0333 C   0  0  0  0  0  0  0  0  0  0  0  0
    8.8260   -1.9416   21.9157 C   0  0  0  0  0  0  0  0  0  0  0  0
    8.6739   -1.0645   20.6839 C   0  0  0  0  0  0  0  0  0  0  0  0
    7.4720   -0.2755   20.9342 N   0  0  0  0  0  0  0  0  0  0  0  0
    6.7560    0.3047   19.9006 C   0  0  0  0  0  0  0  0  0  0  0  0
    5.5104    0.9391   20.1080 C   0  0  0  0  0  0  0  0  0  0  0  0
    4.7987    1.4265   19.0053 C   0  0  0  0  0  0  0  0  0  0  0  0
    5.3388    1.3040   17.7211 C   0  0  0  0  0  0  0  0  0  0  0  0
    6.5483    0.7693   17.4939 N   0  0  0  0  0  0  0  0  0  0  0  0
    7.2333    0.3169   18.5504 C   0  0  0  0  0  0  0  0  0  0  0  0
    8.2354   -0.0492   18.3308 H   0  0  0  0  0  0  0  0  0  0  0  0
    4.7989    1.6508   16.8440 H   0  0  0  0  0  0  0  0  0  0  0  0
    3.8391    1.9131   19.1323 H   0  0  0  0  0  0  0  0  0  0  0  0
    5.1303    1.0591   21.1199 H   0  0  0  0  0  0  0  0  0  0  0  0
    6.9842   -0.4655   22.3009 C   0  0  0  0  0  0  0  0  0  0  0  0
    6.1127   -1.1351   22.3276 H   0  0  0  0  0  0  0  0  0  0  0  0
    6.7004    0.4802   22.7760 H   0  0  0  0  0  0  0  0  0  0  0  0
    9.5425   -0.4109   20.5261 H   0  0  0  0  0  0  0  0  0  0  0  0
    8.5566   -1.6581   19.7750 H   0  0  0  0  0  0  0  0  0  0  0  0
    8.2415   -2.8602   21.7935 H   0  0  0  0  0  0  0  0  0  0  0  0
    9.8604   -2.2064   22.1467 H   0  0  0  0  0  0  0  0  0  0  0  0
    8.8607   -0.3532   23.3581 H   0  0  0  0  0  0  0  0  0  0  0  0
    6.8329   -1.8395   24.5541 H   0  0  0  0  0  0  0  0  0  0  0  0
    6.8649   -3.7051   25.7425 H   0  0  0  0  0  0  0  0  0  0  0  0
    7.6799   -2.1353   27.4156 H   0  0  0  0  0  0  0  0  0  0  0  0
    8.0328   -3.7444   28.0661 H   0  0  0  0  0  0  0  0  0  0  0  0
    9.3258   -2.7874   27.3245 H   0  0  0  0  0  0  0  0  0  0  0  0
  1  2  1  0
  2  3  1  0
  3  4  1  0
  3  5  1  0
  3  6  1  0
  2  7  1  0
  7  8  2  0
  7  9  1  0
  9 10  1  0
 10 11  1  0
 11 12  1  0
 12 13  1  0
 13 14  1  0
 14 15  2  0
 15 16  1  0
 16 17  2  0
 17 18  1  0
 18 19  2  0
 19 20  1  0
 17 21  1  0
 16 22  1  0
 15 23  1  0
 13 24  1  0
 24 25  1  0
 24 26  1  0
 12 27  1  0
 12 28  1  0
 11 29  1  0
 11 30  1  0
 10 31  1  0
  9 32  1  0
  2 33  1  0
  1 34  1  0
  1 35  1  0
  1 36  1  0
 24 10  1  0
 19 14  1  0
M  END
>  <cnnaffinity>  (1) 
-4.22373

>  <filename>  (1) 
CC(C)C(=O)NC1CCN(c2cccnc2)C1

$$$$
