
     RDKit          3D

 35 37  0  0  0  0  0  0  0  0999 V2000
    4.9892    1.8399   16.8935 H   0  0  0  0  0  0  0  0  0  0  0  0
    5.4218    1.2920   17.7279 C   0  0  0  0  0  0  0  0  0  0  0  0
    6.5647    0.6328   17.4838 N   0  0  0  0  0  0  0  0  0  0  0  0
    7.1420   -0.0142   18.5014 C   0  0  0  0  0  0  0  0  0  0  0  0
    8.0678   -0.5379   18.2683 H   0  0  0  0  0  0  0  0  0  0  0  0
    6.6206   -0.0340   19.8094 C   0  0  0  0  0  0  0  0  0  0  0  0
    7.3850   -0.6227   20.9266 C   0  0  0  0  0  0  0  0  0  0  0  0
    8.5451   -1.2758   20.7193 N   0  0  0  0  0  0  0  0  0  0  0  0
    8.9786   -1.5178   21.9752 N   0  0  0  0  0  0  0  0  0  0  0  0
   10.1158   -2.0888   22.5340 C   0  0  0  0  0  0  0  0  0  0  0  0
   10.8628   -2.5458   21.9097 H   0  0  0  0  0  0  0  0  0  0  0  0
   10.0038   -1.9030   23.8755 C   0  0  0  0  0  0  0  0  0  0  0  0
   10.6605   -2.1891   24.6796 H   0  0  0  0  0  0  0  0  0  0  0  0
    8.8215   -1.2280   24.1282 N   0  0  0  0  0  0  0  0  0  0  0  0
    8.4055   -0.7922   25.3754 N   0  0  0  0  0  0  0  0  0  0  0  0
    8.8843    0.0408   25.6924 H   0  0  0  0  0  0  0  0  0  0  0  0
    7.0366   -0.6864   25.6317 C   0  0  0  0  0  0  0  0  0  0  0  0
    6.2095   -1.3840   25.0845 O   0  0  0  0  0  0  0  0  0  0  0  0
    6.6862    0.3805   26.6869 C   0  0  0  0  0  0  0  0  0  0  0  0
    5.5902    0.3427   26.7362 H   0  0  0  0  0  0  0  0  0  0  0  0
    7.2417   -0.0126   28.0619 C   0  0  0  0  0  0  0  0  0  0  0  0
    6.8976    0.6740   28.8424 H   0  0  0  0  0  0  0  0  0  0  0  0
    8.3399   -0.0095   28.0821 H   0  0  0  0  0  0  0  0  0  0  0  0
    6.8839   -1.0137   28.3136 H   0  0  0  0  0  0  0  0  0  0  0  0
    7.0773    1.8210   26.3051 C   0  0  0  0  0  0  0  0  0  0  0  0
    6.6234    2.1047   25.3504 H   0  0  0  0  0  0  0  0  0  0  0  0
    6.6988    2.5109   27.0672 H   0  0  0  0  0  0  0  0  0  0  0  0
    8.1623    1.9894   26.2377 H   0  0  0  0  0  0  0  0  0  0  0  0
    8.1736   -1.0261   22.9301 C   0  0  0  0  0  0  0  0  0  0  0  0
    7.0664   -0.4767   22.2925 C   0  0  0  0  0  0  0  0  0  0  0  0
    6.1607   -0.1312   22.7547 H   0  0  0  0  0  0  0  0  0  0  0  0
    5.3957    0.6178   20.0290 C   0  0  0  0  0  0  0  0  0  0  0  0
    4.9249    0.5932   21.0115 H   0  0  0  0  0  0  0  0  0  0  0  0
    4.7949    1.3000   18.9761 C   0  0  0  0  0  0  0  0  0  0  0  0
    3.8742    1.8530   19.1178 H   0  0  0  0  0  0  0  0  0  0  0  0
  1  2  1  0
  2  3  2  0
  3  4  1  0
  4  5  1  0
  4  6  2  0
  6  7  1  0
  7  8  2  0
  8  9  1  0
  9 10  1  0
 10 11  1  0
 10 12  2  0
 12 13  1  0
 12 14  1  0
 14 15  1  0
 15 16  1  0
 15 17  1  0
 17 18  2  0
 17 19  1  0
 19 20  1  0
 19 21  1  0
 21 22  1  0
 21 23  1  0
 21 24  1  0
 19 25  1  0
 25 26  1  0
 25 27  1  0
 25 28  1  0
 14 29  1  0
 29 30  2  0
 30 31  1  0
  6 32  1  0
 32 33  1  0
 32 34  2  0
 34 35  1  0
 34  2  1  0
 30  7  1  0
 29  9  1  0
M  END
>  <cnnaffinity>  (1) 
-5.27684

>  <filename>  (1) 
CC(C)C(=O)Nn1ccn2nc(-c3cccnc3)cc12

$$$$
