
     RDKit          3D

 31 32  0  0  0  0  0  0  0  0999 V2000
    5.0148    1.9344   16.9985 H   0  0  0  0  0  0  0  0  0  0  0  0
    5.4858    1.3332   17.7728 C   0  0  0  0  0  0  0  0  0  0  0  0
    6.6264    0.7108   17.4283 N   0  0  0  0  0  0  0  0  0  0  0  0
    7.2504   -0.0015   18.3732 C   0  0  0  0  0  0  0  0  0  0  0  0
    8.1865   -0.4716   18.0746 H   0  0  0  0  0  0  0  0  0  0  0  0
    6.7608   -0.1676   19.6873 C   0  0  0  0  0  0  0  0  0  0  0  0
    7.4914   -0.9004   20.6723 N   0  0  0  0  0  0  0  0  0  0  0  0
    8.8084   -0.6247   21.0407 C   0  0  0  0  0  0  0  0  0  0  0  0
    9.3621    0.1382   20.5130 H   0  0  0  0  0  0  0  0  0  0  0  0
    9.1436   -1.4026   22.0971 C   0  0  0  0  0  0  0  0  0  0  0  0
   10.3884   -1.4535   22.9181 C   0  0  0  0  0  0  0  0  0  0  0  0
   11.2479   -1.4610   22.2341 H   0  0  0  0  0  0  0  0  0  0  0  0
   10.4274   -2.4127   23.4501 H   0  0  0  0  0  0  0  0  0  0  0  0
   10.5609   -0.2951   23.9380 C   0  0  0  0  0  0  0  0  0  0  0  0
   11.5633   -0.4173   24.3691 H   0  0  0  0  0  0  0  0  0  0  0  0
   10.5435    1.0861   23.2736 C   0  0  0  0  0  0  0  0  0  0  0  0
   11.2955    1.1514   22.4796 H   0  0  0  0  0  0  0  0  0  0  0  0
   10.7654    1.8735   24.0021 H   0  0  0  0  0  0  0  0  0  0  0  0
    9.5680    1.3162   22.8275 H   0  0  0  0  0  0  0  0  0  0  0  0
    9.5556   -0.3800   25.0924 C   0  0  0  0  0  0  0  0  0  0  0  0
    9.8251    0.3031   25.9067 H   0  0  0  0  0  0  0  0  0  0  0  0
    8.5401   -0.1204   24.7691 H   0  0  0  0  0  0  0  0  0  0  0  0
    9.5231   -1.3861   25.5249 H   0  0  0  0  0  0  0  0  0  0  0  0
    8.0228   -2.1845   22.3504 N   0  0  0  0  0  0  0  0  0  0  0  0
    7.8258   -2.8234   23.0963 H   0  0  0  0  0  0  0  0  0  0  0  0
    6.9671   -1.8810   21.5274 C   0  0  0  0  0  0  0  0  0  0  0  0
    5.8685   -2.3996   21.5662 O   0  0  0  0  0  0  0  0  0  0  0  0
    5.5519    0.4585   20.0204 C   0  0  0  0  0  0  0  0  0  0  0  0
    5.1485    0.3340   21.0250 H   0  0  0  0  0  0  0  0  0  0  0  0
    4.9147    1.2350   19.0473 C   0  0  0  0  0  0  0  0  0  0  0  0
    4.0009    1.7765   19.2723 H   0  0  0  0  0  0  0  0  0  0  0  0
  1  2  1  0
  2  3  2  0
  3  4  1  0
  4  5  1  0
  4  6  2  0
  6  7  1  0
  7  8  1  0
  8  9  1  0
  8 10  2  0
 10 11  1  0
 11 12  1  0
 11 13  1  0
 11 14  1  0
 14 15  1  0
 14 16  1  0
 16 17  1  0
 16 18  1  0
 16 19  1  0
 14 20  1  0
 20 21  1  0
 20 22  1  0
 20 23  1  0
 10 24  1  0
 24 25  1  0
 24 26  1  0
 26 27  2  0
  6 28  1  0
 28 29  1  0
 28 30  2  0
 30 31  1  0
 30  2  1  0
 26  7  1  0
M  END
>  <cnnaffinity>  (1) 
-5.18749

>  <filename>  (1) 
CC(C)Cc1cn(-c2cccnc2)c(=O)[nH]1

$$$$
