
     RDKit          3D

 28 29  0  0  0  0  0  0  0  0999 V2000
    5.0040    1.9143   16.9179 H   0  0  0  0  0  0  0  0  0  0  0  0
    5.4700    1.3641   17.7321 C   0  0  0  0  0  0  0  0  0  0  0  0
    6.6337    0.7533   17.4464 N   0  0  0  0  0  0  0  0  0  0  0  0
    7.2358    0.0729   18.4267 C   0  0  0  0  0  0  0  0  0  0  0  0
    8.1916   -0.3934   18.1921 H   0  0  0  0  0  0  0  0  0  0  0  0
    6.6874   -0.0679   19.7194 C   0  0  0  0  0  0  0  0  0  0  0  0
    7.3320   -0.8118   20.7288 N   0  0  0  0  0  0  0  0  0  0  0  0
    6.7640   -1.7255   21.6423 C   0  0  0  0  0  0  0  0  0  0  0  0
    5.6775   -2.2664   21.5316 O   0  0  0  0  0  0  0  0  0  0  0  0
    7.8077   -1.8726   22.6412 C   0  0  0  0  0  0  0  0  0  0  0  0
    7.6997   -2.5277   23.4851 H   0  0  0  0  0  0  0  0  0  0  0  0
    8.8960   -1.1685   22.2619 C   0  0  0  0  0  0  0  0  0  0  0  0
   10.2619   -1.1314   22.8832 C   0  0  0  0  0  0  0  0  0  0  0  0
   10.8730   -0.4665   22.2612 H   0  0  0  0  0  0  0  0  0  0  0  0
   10.2966   -0.6003   24.3285 C   0  0  0  0  0  0  0  0  0  0  0  0
    9.8496   -1.3140   25.0292 H   0  0  0  0  0  0  0  0  0  0  0  0
   11.3324   -0.4226   24.6439 H   0  0  0  0  0  0  0  0  0  0  0  0
    9.7570    0.3452   24.4374 H   0  0  0  0  0  0  0  0  0  0  0  0
   10.8469   -2.5514   22.7828 C   0  0  0  0  0  0  0  0  0  0  0  0
   10.2840   -3.2376   23.4262 H   0  0  0  0  0  0  0  0  0  0  0  0
   11.9101   -2.6160   23.0206 H   0  0  0  0  0  0  0  0  0  0  0  0
   10.7262   -2.8943   21.7586 H   0  0  0  0  0  0  0  0  0  0  0  0
    8.6993   -0.6199   20.9876 N   0  0  0  0  0  0  0  0  0  0  0  0
    8.9729    0.3588   20.9134 H   0  0  0  0  0  0  0  0  0  0  0  0
    5.4693    0.5609   20.0045 C   0  0  0  0  0  0  0  0  0  0  0  0
    5.0418    0.4642   21.0028 H   0  0  0  0  0  0  0  0  0  0  0  0
    4.8596    1.3022   18.9899 C   0  0  0  0  0  0  0  0  0  0  0  0
    3.9288    1.8282   19.1655 H   0  0  0  0  0  0  0  0  0  0  0  0
  1  2  1  0
  2  3  2  0
  3  4  1  0
  4  5  1  0
  4  6  2  0
  6  7  1  0
  7  8  1  0
  8  9  2  0
  8 10  1  0
 10 11  1  0
 10 12  2  0
 12 13  1  0
 13 14  1  0
 13 15  1  0
 15 16  1  0
 15 17  1  0
 15 18  1  0
 13 19  1  0
 19 20  1  0
 19 21  1  0
 19 22  1  0
 12 23  1  0
 23 24  1  0
  6 25  1  0
 25 26  1  0
 25 27  2  0
 27 28  1  0
 27  2  1  0
 23  7  1  0
M  END
>  <cnnaffinity>  (1) 
-4.34623

>  <filename>  (1) 
CC(C)c1cc(=O)n(-c2cccnc2)[nH]1

$$$$
