
     RDKit          3D

 34 36  0  0  0  0  0  0  0  0999 V2000
    4.9506    1.7897   16.9893 H   0  0  0  0  0  0  0  0  0  0  0  0
    5.4009    1.2885   17.8450 C   0  0  0  0  0  0  0  0  0  0  0  0
    6.5610    0.6648   17.6015 N   0  0  0  0  0  0  0  0  0  0  0  0
    7.1633    0.0500   18.6207 C   0  0  0  0  0  0  0  0  0  0  0  0
    8.1142   -0.4279   18.3833 H   0  0  0  0  0  0  0  0  0  0  0  0
    6.6419    0.0066   19.9218 C   0  0  0  0  0  0  0  0  0  0  0  0
    7.3657   -0.6984   20.9944 C   0  0  0  0  0  0  0  0  0  0  0  0
    6.8999   -0.7541   22.1992 N   0  0  0  0  0  0  0  0  0  0  0  0
    7.7768   -1.4387   22.9843 N   0  0  0  0  0  0  0  0  0  0  0  0
    7.8550   -1.7781   24.3098 C   0  0  0  0  0  0  0  0  0  0  0  0
    6.8449   -1.3435   25.3245 C   0  0  0  0  0  0  0  0  0  0  0  0
    7.0611   -1.9163   26.2302 H   0  0  0  0  0  0  0  0  0  0  0  0
    5.8396   -1.6281   24.9967 H   0  0  0  0  0  0  0  0  0  0  0  0
    6.9118    0.1718   25.6158 C   0  0  0  0  0  0  0  0  0  0  0  0
    6.1698    0.4299   26.3880 H   0  0  0  0  0  0  0  0  0  0  0  0
    6.6180    0.7142   24.7070 H   0  0  0  0  0  0  0  0  0  0  0  0
    8.3016    0.6439   26.0905 C   0  0  0  0  0  0  0  0  0  0  0  0
    9.0409    0.3758   25.3168 H   0  0  0  0  0  0  0  0  0  0  0  0
    8.3206    2.1783   26.2210 C   0  0  0  0  0  0  0  0  0  0  0  0
    7.6013    2.5505   26.9655 H   0  0  0  0  0  0  0  0  0  0  0  0
    9.3133    2.5511   26.4932 H   0  0  0  0  0  0  0  0  0  0  0  0
    8.0592    2.6455   25.2620 H   0  0  0  0  0  0  0  0  0  0  0  0
    8.7081   -0.1022   27.3720 C   0  0  0  0  0  0  0  0  0  0  0  0
    9.7515    0.0611   27.6347 H   0  0  0  0  0  0  0  0  0  0  0  0
    8.0781    0.1867   28.2205 H   0  0  0  0  0  0  0  0  0  0  0  0
    8.6045   -1.1858   27.2672 H   0  0  0  0  0  0  0  0  0  0  0  0
    8.9740   -2.4232   24.5155 N   0  0  0  0  0  0  0  0  0  0  0  0
    9.6662   -2.5179   23.3211 N   0  0  0  0  0  0  0  0  0  0  0  0
    8.9225   -1.9205   22.4334 C   0  0  0  0  0  0  0  0  0  0  0  0
    8.9420   -1.5117   20.7449 S   0  0  0  0  0  0  0  0  0  0  0  0
    5.4172    0.6626   20.1671 C   0  0  0  0  0  0  0  0  0  0  0  0
    4.9758    0.6607   21.1656 H   0  0  0  0  0  0  0  0  0  0  0  0
    4.7927    1.3149   19.1034 C   0  0  0  0  0  0  0  0  0  0  0  0
    3.8603    1.8530   19.2289 H   0  0  0  0  0  0  0  0  0  0  0  0
  1  2  1  0
  2  3  2  0
  3  4  1  0
  4  5  1  0
  4  6  2  0
  6  7  1  0
  7  8  2  0
  8  9  1  0
  9 10  1  0
 10 11  1  0
 11 12  1  0
 11 13  1  0
 11 14  1  0
 14 15  1  0
 14 16  1  0
 14 17  1  0
 17 18  1  0
 17 19  1  0
 19 20  1  0
 19 21  1  0
 19 22  1  0
 17 23  1  0
 23 24  1  0
 23 25  1  0
 23 26  1  0
 10 27  2  0
 27 28  1  0
 28 29  2  0
 29 30  1  0
  6 31  1  0
 31 32  1  0
 31 33  2  0
 33 34  1  0
 33  2  1  0
 30  7  1  0
 29  9  1  0
M  END
>  <cnnaffinity>  (1) 
-5.27287

>  <filename>  (1) 
CC(C)CCc1nnc2sc(-c3cccnc3)nn12

$$$$
