
     RDKit          3D

 43 44  0  0  0  0  0  0  0  0999 V2000
    4.9991    1.7574   16.8839 H   0  0  0  0  0  0  0  0  0  0  0  0
    5.4553    1.2660   17.7396 C   0  0  0  0  0  0  0  0  0  0  0  0
    6.6073    0.6146   17.5097 N   0  0  0  0  0  0  0  0  0  0  0  0
    7.2065    0.0182   18.5497 C   0  0  0  0  0  0  0  0  0  0  0  0
    8.1289   -0.5203   18.3254 H   0  0  0  0  0  0  0  0  0  0  0  0
    6.7099    0.0683   19.8716 C   0  0  0  0  0  0  0  0  0  0  0  0
    7.4146   -0.5310   20.9560 N   0  0  0  0  0  0  0  0  0  0  0  0
    7.7271   -1.4761   20.8261 H   0  0  0  0  0  0  0  0  0  0  0  0
    7.3565   -0.1222   22.2770 C   0  0  0  0  0  0  0  0  0  0  0  0
    6.8928    0.9582   22.5947 O   0  0  0  0  0  0  0  0  0  0  0  0
    7.9092   -1.1531   23.3187 C   0  0  0  0  0  0  0  0  0  0  0  0
    9.4268   -1.3816   23.0712 C   0  0  0  0  0  0  0  0  0  0  0  0
    9.8831   -1.9961   23.8507 H   0  0  0  0  0  0  0  0  0  0  0  0
    9.6120   -1.8999   22.1227 H   0  0  0  0  0  0  0  0  0  0  0  0
    9.9765   -0.4352   23.0537 H   0  0  0  0  0  0  0  0  0  0  0  0
    7.6951   -0.5948   24.7454 C   0  0  0  0  0  0  0  0  0  0  0  0
    6.6287   -0.4636   24.9660 H   0  0  0  0  0  0  0  0  0  0  0  0
    8.1866    0.3706   24.8867 H   0  0  0  0  0  0  0  0  0  0  0  0
    8.0935   -1.2737   25.5019 H   0  0  0  0  0  0  0  0  0  0  0  0
    7.1147   -2.4971   23.1446 C   0  0  0  0  0  0  0  0  0  0  0  0
    6.1001   -2.2746   22.7799 H   0  0  0  0  0  0  0  0  0  0  0  0
    7.5926   -3.0874   22.3436 H   0  0  0  0  0  0  0  0  0  0  0  0
    6.9747   -3.4019   24.3836 C   0  0  0  0  0  0  0  0  0  0  0  0
    6.4864   -2.8130   25.1803 H   0  0  0  0  0  0  0  0  0  0  0  0
    6.0481   -4.5944   24.0603 C   0  0  0  0  0  0  0  0  0  0  0  0
    5.0515   -4.2165   23.7969 H   0  0  0  0  0  0  0  0  0  0  0  0
    6.4227   -5.0847   23.1512 H   0  0  0  0  0  0  0  0  0  0  0  0
    5.9582   -5.6402   25.1824 C   0  0  0  0  0  0  0  0  0  0  0  0
    5.4290   -5.2057   26.0429 H   0  0  0  0  0  0  0  0  0  0  0  0
    5.3578   -6.4956   24.8382 H   0  0  0  0  0  0  0  0  0  0  0  0
    7.3617   -6.0678   25.6382 C   0  0  0  0  0  0  0  0  0  0  0  0
    7.9033   -6.4918   24.7821 H   0  0  0  0  0  0  0  0  0  0  0  0
    7.3022   -6.8238   26.4284 H   0  0  0  0  0  0  0  0  0  0  0  0
    8.1883   -4.8623   26.0806 C   0  0  0  0  0  0  0  0  0  0  0  0
    9.1737   -5.1680   26.4536 H   0  0  0  0  0  0  0  0  0  0  0  0
    7.6708   -4.3491   26.9038 H   0  0  0  0  0  0  0  0  0  0  0  0
    8.3404   -3.8834   24.9148 C   0  0  0  0  0  0  0  0  0  0  0  0
    8.9620   -3.0483   25.2471 H   0  0  0  0  0  0  0  0  0  0  0  0
    8.8932   -4.3626   24.0874 H   0  0  0  0  0  0  0  0  0  0  0  0
    5.4838    0.7113   20.0852 C   0  0  0  0  0  0  0  0  0  0  0  0
    5.0669    0.7341   21.0898 H   0  0  0  0  0  0  0  0  0  0  0  0
    4.8471    1.3162   18.9966 C   0  0  0  0  0  0  0  0  0  0  0  0
    3.9039    1.8351   19.1261 H   0  0  0  0  0  0  0  0  0  0  0  0
  1  2  1  0
  2  3  2  0
  3  4  1  0
  4  5  1  0
  4  6  2  0
  6  7  1  0
  7  8  1  0
  7  9  1  0
  9 10  2  0
  9 11  1  0
 11 12  1  0
 12 13  1  0
 12 14  1  0
 12 15  1  0
 11 16  1  0
 16 17  1  0
 16 18  1  0
 16 19  1  0
 11 20  1  0
 20 21  1  0
 20 22  1  0
 20 23  1  0
 23 24  1  0
 23 25  1  0
 25 26  1  0
 25 27  1  0
 25 28  1  0
 28 29  1  0
 28 30  1  0
 28 31  1  0
 31 32  1  0
 31 33  1  0
 31 34  1  0
 34 35  1  0
 34 36  1  0
 34 37  1  0
 37 38  1  0
 37 39  1  0
  6 40  1  0
 40 41  1  0
 40 42  2  0
 42 43  1  0
 42  2  1  0
 37 23  1  0
M  END
>  <cnnaffinity>  (1) 
-5.27079

>  <filename>  (1) 
CC(C)(CC1CCCCC1)C(=O)Nc1cccnc1

$$$$
