
     RDKit          3D

 37 38  0  0  0  0  0  0  0  0999 V2000
    4.9824    1.8235   16.9514 H   0  0  0  0  0  0  0  0  0  0  0  0
    5.4548    1.3147   17.7902 C   0  0  0  0  0  0  0  0  0  0  0  0
    6.6264    0.7111   17.5288 N   0  0  0  0  0  0  0  0  0  0  0  0
    7.2271    0.0598   18.5342 C   0  0  0  0  0  0  0  0  0  0  0  0
    8.1805   -0.4127   18.3111 H   0  0  0  0  0  0  0  0  0  0  0  0
    6.6967   -0.0418   19.8390 C   0  0  0  0  0  0  0  0  0  0  0  0
    7.4036   -0.7227   20.8819 N   0  0  0  0  0  0  0  0  0  0  0  0
    8.2273   -0.2500   21.2172 H   0  0  0  0  0  0  0  0  0  0  0  0
    6.8021   -1.5454   21.8224 C   0  0  0  0  0  0  0  0  0  0  0  0
    5.7658   -2.1328   21.5827 O   0  0  0  0  0  0  0  0  0  0  0  0
    7.6146   -1.7904   23.1460 C   0  0  0  0  0  0  0  0  0  0  0  0
    8.4166   -0.5439   23.5804 C   0  0  0  0  0  0  0  0  0  0  0  0
    7.7365    0.6770   23.7667 C   0  0  0  0  0  0  0  0  0  0  0  0
    6.6688    0.7474   23.5677 H   0  0  0  0  0  0  0  0  0  0  0  0
    8.4105    1.8232   24.1894 C   0  0  0  0  0  0  0  0  0  0  0  0
    7.8613    2.7440   24.3602 H   0  0  0  0  0  0  0  0  0  0  0  0
    9.7922    1.7982   24.3960 C   0  0  0  0  0  0  0  0  0  0  0  0
   10.2967    2.6946   24.7491 H   0  0  0  0  0  0  0  0  0  0  0  0
   10.4910    0.6042   24.1778 C   0  0  0  0  0  0  0  0  0  0  0  0
   11.9877    0.5039   24.3390 C   0  0  0  0  0  0  0  0  0  0  0  0
   12.5534   -0.1457   23.2977 F   0  0  0  0  0  0  0  0  0  0  0  0
   12.2953   -0.1822   25.4549 F   0  0  0  0  0  0  0  0  0  0  0  0
   12.6142    1.6902   24.4188 F   0  0  0  0  0  0  0  0  0  0  0  0
    9.7931   -0.5704   23.8390 C   0  0  0  0  0  0  0  0  0  0  0  0
   10.3279   -1.5175   23.7992 H   0  0  0  0  0  0  0  0  0  0  0  0
    8.4976   -3.0299   22.8447 C   0  0  0  0  0  0  0  0  0  0  0  0
    7.8640   -3.8554   22.4991 H   0  0  0  0  0  0  0  0  0  0  0  0
    9.0180   -3.3699   23.7485 H   0  0  0  0  0  0  0  0  0  0  0  0
    9.2423   -2.8132   22.0680 H   0  0  0  0  0  0  0  0  0  0  0  0
    6.6527   -2.1520   24.3040 C   0  0  0  0  0  0  0  0  0  0  0  0
    6.0157   -2.9944   24.0231 H   0  0  0  0  0  0  0  0  0  0  0  0
    7.2305   -2.4295   25.1936 H   0  0  0  0  0  0  0  0  0  0  0  0
    6.0046   -1.3108   24.5789 H   0  0  0  0  0  0  0  0  0  0  0  0
    5.4710    0.5847   20.0908 C   0  0  0  0  0  0  0  0  0  0  0  0
    5.0324    0.5330   21.0883 H   0  0  0  0  0  0  0  0  0  0  0  0
    4.8470    1.2811   19.0490 C   0  0  0  0  0  0  0  0  0  0  0  0
    3.9119    1.8084   19.2003 H   0  0  0  0  0  0  0  0  0  0  0  0
  1  2  1  0
  2  3  2  0
  3  4  1  0
  4  5  1  0
  4  6  2  0
  6  7  1  0
  7  8  1  0
  7  9  1  0
  9 10  2  0
  9 11  1  0
 11 12  1  0
 12 13  2  0
 13 14  1  0
 13 15  1  0
 15 16  1  0
 15 17  2  0
 17 18  1  0
 17 19  1  0
 19 20  1  0
 20 21  1  0
 20 22  1  0
 20 23  1  0
 19 24  2  0
 24 25  1  0
 11 26  1  0
 26 27  1  0
 26 28  1  0
 26 29  1  0
 11 30  1  0
 30 31  1  0
 30 32  1  0
 30 33  1  0
  6 34  1  0
 34 35  1  0
 34 36  2  0
 36 37  1  0
 36  2  1  0
 24 12  1  0
M  END
>  <cnnaffinity>  (1) 
-5.39896

>  <filename>  (1) 
CC(C)(C(=O)Nc1cccnc1)c1cccc(C(F)(F)F)c1

$$$$
