
     RDKit          3D

 47 49  0  0  0  0  0  0  0  0999 V2000
    4.9256    1.8144   16.9660 H   0  0  0  0  0  0  0  0  0  0  0  0
    5.3930    1.2944   17.8031 C   0  0  0  0  0  0  0  0  0  0  0  0
    6.5489    0.6673   17.5437 N   0  0  0  0  0  0  0  0  0  0  0  0
    7.1704    0.0602   18.5682 C   0  0  0  0  0  0  0  0  0  0  0  0
    8.1131   -0.4136   18.2983 H   0  0  0  0  0  0  0  0  0  0  0  0
    6.6911    0.0288   19.8969 C   0  0  0  0  0  0  0  0  0  0  0  0
    7.3699   -0.7115   21.0773 C   0  0  0  0  0  0  0  0  0  0  0  0
    7.4148    0.1572   22.4006 C   0  0  0  0  0  0  0  0  0  0  0  0
    7.1514   -0.3108   23.4939 O   0  0  0  0  0  0  0  0  0  0  0  0
    7.8410    1.4569   22.2507 N   0  0  0  0  0  0  0  0  0  0  0  0
    8.1704    1.7272   21.3410 H   0  0  0  0  0  0  0  0  0  0  0  0
    7.6217    2.5015   23.1760 C   0  0  0  0  0  0  0  0  0  0  0  0
    6.4984    2.4882   24.0154 C   0  0  0  0  0  0  0  0  0  0  0  0
    5.8065    1.6597   23.9292 H   0  0  0  0  0  0  0  0  0  0  0  0
    6.3166    3.4978   24.9671 C   0  0  0  0  0  0  0  0  0  0  0  0
    5.4623    3.4741   25.6409 H   0  0  0  0  0  0  0  0  0  0  0  0
    7.2574    4.5348   25.0992 C   0  0  0  0  0  0  0  0  0  0  0  0
    7.1828    5.5260   26.1074 N   0  0  0  0  0  0  0  0  0  0  0  0
    6.5635    5.2143   27.3946 C   0  0  0  0  0  0  0  0  0  0  0  0
    5.4589    5.2536   27.3589 H   0  0  0  0  0  0  0  0  0  0  0  0
    6.8626    4.2005   27.6909 H   0  0  0  0  0  0  0  0  0  0  0  0
    7.0581    6.2096   28.4549 C   0  0  0  0  0  0  0  0  0  0  0  0
    8.1369    6.0453   28.6132 H   0  0  0  0  0  0  0  0  0  0  0  0
    6.5276    6.0656   29.4008 H   0  0  0  0  0  0  0  0  0  0  0  0
    6.8257    7.5580   28.0658 O   0  0  0  0  0  0  0  0  0  0  0  0
    7.4757    7.8494   26.8336 C   0  0  0  0  0  0  0  0  0  0  0  0
    8.5668    7.7352   26.9499 H   0  0  0  0  0  0  0  0  0  0  0  0
    7.2459    8.8951   26.6061 H   0  0  0  0  0  0  0  0  0  0  0  0
    7.0008    6.9247   25.7051 C   0  0  0  0  0  0  0  0  0  0  0  0
    5.9458    7.1478   25.4641 H   0  0  0  0  0  0  0  0  0  0  0  0
    7.5947    7.1254   24.8051 H   0  0  0  0  0  0  0  0  0  0  0  0
    8.3535    4.5620   24.2156 C   0  0  0  0  0  0  0  0  0  0  0  0
    9.0627    5.3769   24.3334 H   0  0  0  0  0  0  0  0  0  0  0  0
    8.5372    3.5579   23.2560 C   0  0  0  0  0  0  0  0  0  0  0  0
    9.3938    3.5681   22.5837 H   0  0  0  0  0  0  0  0  0  0  0  0
    6.5439   -1.9993   21.3331 C   0  0  0  0  0  0  0  0  0  0  0  0
    6.9937   -2.6067   22.1234 H   0  0  0  0  0  0  0  0  0  0  0  0
    5.5161   -1.7671   21.6294 H   0  0  0  0  0  0  0  0  0  0  0  0
    6.4934   -2.5929   20.4151 H   0  0  0  0  0  0  0  0  0  0  0  0
    8.8277   -1.1235   20.7544 C   0  0  0  0  0  0  0  0  0  0  0  0
    9.2818   -1.6086   21.6237 H   0  0  0  0  0  0  0  0  0  0  0  0
    9.4621   -0.2822   20.4504 H   0  0  0  0  0  0  0  0  0  0  0  0
    8.8502   -1.8488   19.9411 H   0  0  0  0  0  0  0  0  0  0  0  0
    5.4544    0.6575   20.1207 C   0  0  0  0  0  0  0  0  0  0  0  0
    5.0173    0.6395   21.1214 H   0  0  0  0  0  0  0  0  0  0  0  0
    4.8030    1.3087   19.0713 C   0  0  0  0  0  0  0  0  0  0  0  0
    3.8692    1.8397   19.2270 H   0  0  0  0  0  0  0  0  0  0  0  0
  1  2  1  0
  2  3  2  0
  3  4  1  0
  4  5  1  0
  4  6  2  0
  6  7  1  0
  7  8  1  0
  8  9  2  0
  8 10  1  0
 10 11  1  0
 10 12  1  0
 12 13  2  0
 13 14  1  0
 13 15  1  0
 15 16  1  0
 15 17  2  0
 17 18  1  0
 18 19  1  0
 19 20  1  0
 19 21  1  0
 19 22  1  0
 22 23  1  0
 22 24  1  0
 22 25  1  0
 25 26  1  0
 26 27  1  0
 26 28  1  0
 26 29  1  0
 29 30  1  0
 29 31  1  0
 17 32  1  0
 32 33  1  0
 32 34  2  0
 34 35  1  0
  7 36  1  0
 36 37  1  0
 36 38  1  0
 36 39  1  0
  7 40  1  0
 40 41  1  0
 40 42  1  0
 40 43  1  0
  6 44  1  0
 44 45  1  0
 44 46  2  0
 46 47  1  0
 46  2  1  0
 34 12  1  0
 29 18  1  0
M  END
>  <cnnaffinity>  (1) 
-4.97302

>  <filename>  (1) 
CC(C)(C(=O)Nc1ccc(N2CCOCC2)cc1)c1cccnc1

$$$$
