
     RDKit          3D

 34 35  0  0  0  0  0  0  0  0999 V2000
    4.9205    1.7807   16.9995 H   0  0  0  0  0  0  0  0  0  0  0  0
    5.4071    1.2880   17.8425 C   0  0  0  0  0  0  0  0  0  0  0  0
    6.5656    0.6668   17.5875 N   0  0  0  0  0  0  0  0  0  0  0  0
    7.1898    0.0542   18.6029 C   0  0  0  0  0  0  0  0  0  0  0  0
    8.1293   -0.4380   18.3672 H   0  0  0  0  0  0  0  0  0  0  0  0
    6.6887    0.0163   19.9171 C   0  0  0  0  0  0  0  0  0  0  0  0
    7.2878   -0.6755   20.9437 O   0  0  0  0  0  0  0  0  0  0  0  0
    8.6517   -0.7489   21.0795 C   0  0  0  0  0  0  0  0  0  0  0  0
    9.6782    0.0976   20.6164 C   0  0  0  0  0  0  0  0  0  0  0  0
    9.5886    0.9463   19.9645 H   0  0  0  0  0  0  0  0  0  0  0  0
   10.8637   -0.2806   21.0858 N   0  0  0  0  0  0  0  0  0  0  0  0
   10.5898   -1.3501   21.8321 N   0  0  0  0  0  0  0  0  0  0  0  0
   11.3422   -1.8033   22.3204 H   0  0  0  0  0  0  0  0  0  0  0  0
    9.2741   -1.6864   21.8711 C   0  0  0  0  0  0  0  0  0  0  0  0
    8.7048   -2.7309   22.7567 C   0  0  0  0  0  0  0  0  0  0  0  0
    9.4151   -3.5626   22.8712 H   0  0  0  0  0  0  0  0  0  0  0  0
    7.8162   -3.1334   22.2587 H   0  0  0  0  0  0  0  0  0  0  0  0
    8.3004   -2.1706   24.1285 C   0  0  0  0  0  0  0  0  0  0  0  0
    7.6911   -1.2707   23.9675 H   0  0  0  0  0  0  0  0  0  0  0  0
    9.1937   -1.8280   24.6682 H   0  0  0  0  0  0  0  0  0  0  0  0
    7.5267   -3.1602   25.0018 C   0  0  0  0  0  0  0  0  0  0  0  0
    6.6855   -3.5404   24.4034 H   0  0  0  0  0  0  0  0  0  0  0  0
    8.3926   -4.3512   25.4200 C   0  0  0  0  0  0  0  0  0  0  0  0
    9.2934   -4.0098   25.9450 H   0  0  0  0  0  0  0  0  0  0  0  0
    8.7178   -4.9527   24.5650 H   0  0  0  0  0  0  0  0  0  0  0  0
    7.8489   -5.0136   26.1013 H   0  0  0  0  0  0  0  0  0  0  0  0
    6.9440   -2.4530   26.2254 C   0  0  0  0  0  0  0  0  0  0  0  0
    7.7432   -2.0386   26.8524 H   0  0  0  0  0  0  0  0  0  0  0  0
    6.3621   -3.1470   26.8411 H   0  0  0  0  0  0  0  0  0  0  0  0
    6.2865   -1.6250   25.9353 H   0  0  0  0  0  0  0  0  0  0  0  0
    5.4624    0.6424   20.1754 C   0  0  0  0  0  0  0  0  0  0  0  0
    5.0320    0.6119   21.1759 H   0  0  0  0  0  0  0  0  0  0  0  0
    4.8244    1.2990   19.1155 C   0  0  0  0  0  0  0  0  0  0  0  0
    3.8902    1.8284   19.2667 H   0  0  0  0  0  0  0  0  0  0  0  0
  1  2  1  0
  2  3  2  0
  3  4  1  0
  4  5  1  0
  4  6  2  0
  6  7  1  0
  7  8  1  0
  8  9  1  0
  9 10  1  0
  9 11  2  0
 11 12  1  0
 12 13  1  0
 12 14  1  0
 14 15  1  0
 15 16  1  0
 15 17  1  0
 15 18  1  0
 18 19  1  0
 18 20  1  0
 18 21  1  0
 21 22  1  0
 21 23  1  0
 23 24  1  0
 23 25  1  0
 23 26  1  0
 21 27  1  0
 27 28  1  0
 27 29  1  0
 27 30  1  0
  6 31  1  0
 31 32  1  0
 31 33  2  0
 33 34  1  0
 33  2  1  0
 14  8  2  0
M  END
>  <cnnaffinity>  (1) 
-5.25042

>  <filename>  (1) 
CC(C)CCc1[nH]ncc1Oc1cccnc1

$$$$
