
     RDKit          3D

 39 41  0  0  0  0  0  0  0  0999 V2000
    4.9297    1.7911   16.9889 H   0  0  0  0  0  0  0  0  0  0  0  0
    5.3960    1.2962   17.8385 C   0  0  0  0  0  0  0  0  0  0  0  0
    6.5517    0.6684   17.5812 N   0  0  0  0  0  0  0  0  0  0  0  0
    7.1403    0.0375   18.5989 C   0  0  0  0  0  0  0  0  0  0  0  0
    8.1105   -0.4103   18.3948 H   0  0  0  0  0  0  0  0  0  0  0  0
    6.6004   -0.0319   19.8979 C   0  0  0  0  0  0  0  0  0  0  0  0
    7.3171   -0.7455   20.9894 C   0  0  0  0  0  0  0  0  0  0  0  0
    6.5787   -1.5101   21.7516 N   0  0  0  0  0  0  0  0  0  0  0  0
    7.1598   -2.1842   22.7961 N   0  0  0  0  0  0  0  0  0  0  0  0
    6.2909   -2.9954   23.6116 C   0  0  0  0  0  0  0  0  0  0  0  0
    6.5031   -3.1204   24.9965 C   0  0  0  0  0  0  0  0  0  0  0  0
    7.3174   -2.5769   25.4618 H   0  0  0  0  0  0  0  0  0  0  0  0
    5.6514   -3.9097   25.7705 C   0  0  0  0  0  0  0  0  0  0  0  0
    5.8381   -3.9930   26.8407 H   0  0  0  0  0  0  0  0  0  0  0  0
    4.5749   -4.5993   25.1915 C   0  0  0  0  0  0  0  0  0  0  0  0
    3.6450   -5.4610   26.0381 C   0  0  0  0  0  0  0  0  0  0  0  0
    2.8900   -5.8913   25.3661 H   0  0  0  0  0  0  0  0  0  0  0  0
    4.3970   -6.6336   26.6946 C   0  0  0  0  0  0  0  0  0  0  0  0
    3.7088   -7.2953   27.2355 H   0  0  0  0  0  0  0  0  0  0  0  0
    5.1420   -6.2726   27.4142 H   0  0  0  0  0  0  0  0  0  0  0  0
    4.9312   -7.2314   25.9481 H   0  0  0  0  0  0  0  0  0  0  0  0
    2.8970   -4.6229   27.0913 C   0  0  0  0  0  0  0  0  0  0  0  0
    3.5935   -4.1933   27.8218 H   0  0  0  0  0  0  0  0  0  0  0  0
    2.3588   -3.7890   26.6272 H   0  0  0  0  0  0  0  0  0  0  0  0
    2.1722   -5.2335   27.6443 H   0  0  0  0  0  0  0  0  0  0  0  0
    4.3746   -4.4672   23.8058 C   0  0  0  0  0  0  0  0  0  0  0  0
    3.5320   -4.9887   23.3534 H   0  0  0  0  0  0  0  0  0  0  0  0
    5.2149   -3.6736   23.0197 C   0  0  0  0  0  0  0  0  0  0  0  0
    5.0596   -3.5444   21.9545 H   0  0  0  0  0  0  0  0  0  0  0  0
    8.5218   -2.1162   23.0189 C   0  0  0  0  0  0  0  0  0  0  0  0
    8.8827   -2.7369   23.8354 H   0  0  0  0  0  0  0  0  0  0  0  0
    9.3477   -1.3602   22.2760 C   0  0  0  0  0  0  0  0  0  0  0  0
   10.4159   -1.2857   22.4499 H   0  0  0  0  0  0  0  0  0  0  0  0
    8.8055   -0.5617   21.1859 C   0  0  0  0  0  0  0  0  0  0  0  0
    9.5102    0.1736   20.4989 O   0  0  0  0  0  0  0  0  0  0  0  0
    5.3990    0.6366   20.1554 C   0  0  0  0  0  0  0  0  0  0  0  0
    4.9922    0.6194   21.1695 H   0  0  0  0  0  0  0  0  0  0  0  0
    4.7933    1.3214   19.1023 C   0  0  0  0  0  0  0  0  0  0  0  0
    3.8658    1.8601   19.2427 H   0  0  0  0  0  0  0  0  0  0  0  0
  1  2  1  0
  2  3  2  0
  3  4  1  0
  4  5  1  0
  4  6  2  0
  6  7  1  0
  7  8  2  0
  8  9  1  0
  9 10  1  0
 10 11  2  0
 11 12  1  0
 11 13  1  0
 13 14  1  0
 13 15  2  0
 15 16  1  0
 16 17  1  0
 16 18  1  0
 18 19  1  0
 18 20  1  0
 18 21  1  0
 16 22  1  0
 22 23  1  0
 22 24  1  0
 22 25  1  0
 15 26  1  0
 26 27  1  0
 26 28  2  0
 28 29  1  0
  9 30  1  0
 30 31  1  0
 30 32  2  0
 32 33  1  0
 32 34  1  0
 34 35  2  0
  6 36  1  0
 36 37  1  0
 36 38  2  0
 38 39  1  0
 38  2  1  0
 34  7  1  0
 28 10  1  0
M  END
>  <cnnaffinity>  (1) 
-5.51109

>  <filename>  (1) 
CC(C)c1ccc(-n2ccc(=O)c(-c3cccnc3)n2)cc1

$$$$
