
     RDKit          3D

 37 38  0  0  0  0  0  0  0  0999 V2000
    4.9328    1.7718   17.0025 H   0  0  0  0  0  0  0  0  0  0  0  0
    5.4081    1.2836   17.8521 C   0  0  0  0  0  0  0  0  0  0  0  0
    6.5741    0.6599   17.6166 N   0  0  0  0  0  0  0  0  0  0  0  0
    7.1669    0.0401   18.6446 C   0  0  0  0  0  0  0  0  0  0  0  0
    8.1226   -0.4265   18.4072 H   0  0  0  0  0  0  0  0  0  0  0  0
    6.6157   -0.0346   19.9339 C   0  0  0  0  0  0  0  0  0  0  0  0
    7.4144   -0.7316   20.9898 C   0  0  0  0  0  0  0  0  0  0  0  0
    8.6345   -0.7618   20.9352 O   0  0  0  0  0  0  0  0  0  0  0  0
    6.7159   -1.3338   21.9945 N   0  0  0  0  0  0  0  0  0  0  0  0
    5.7188   -1.3850   21.9091 H   0  0  0  0  0  0  0  0  0  0  0  0
    7.2921   -1.8067   23.2721 C   0  0  0  0  0  0  0  0  0  0  0  0
    6.1811   -2.4947   24.1014 C   0  0  0  0  0  0  0  0  0  0  0  0
    5.9132   -2.1912   25.4536 C   0  0  0  0  0  0  0  0  0  0  0  0
    6.4558   -1.3956   25.9555 H   0  0  0  0  0  0  0  0  0  0  0  0
    4.9504   -2.8913   26.1858 C   0  0  0  0  0  0  0  0  0  0  0  0
    4.7569   -2.6298   27.2227 H   0  0  0  0  0  0  0  0  0  0  0  0
    4.2237   -3.9246   25.5969 C   0  0  0  0  0  0  0  0  0  0  0  0
    3.4736   -4.4677   26.1722 H   0  0  0  0  0  0  0  0  0  0  0  0
    4.4753   -4.2532   24.2549 C   0  0  0  0  0  0  0  0  0  0  0  0
    3.7357   -5.4074   23.6099 C   0  0  0  0  0  0  0  0  0  0  0  0
    4.4142   -6.5652   23.7427 F   0  0  0  0  0  0  0  0  0  0  0  0
    2.5173   -5.6097   24.1515 F   0  0  0  0  0  0  0  0  0  0  0  0
    3.5481   -5.2190   22.2883 F   0  0  0  0  0  0  0  0  0  0  0  0
    5.4570   -3.5570   23.5306 C   0  0  0  0  0  0  0  0  0  0  0  0
    5.6719   -3.8507   22.5041 H   0  0  0  0  0  0  0  0  0  0  0  0
    8.4028   -2.8357   22.9920 C   0  0  0  0  0  0  0  0  0  0  0  0
    8.6678   -3.3506   23.9193 H   0  0  0  0  0  0  0  0  0  0  0  0
    8.0590   -3.5833   22.2728 H   0  0  0  0  0  0  0  0  0  0  0  0
    9.2881   -2.3517   22.5785 H   0  0  0  0  0  0  0  0  0  0  0  0
    7.8951   -0.5998   24.0108 C   0  0  0  0  0  0  0  0  0  0  0  0
    8.3896   -0.9213   24.9314 H   0  0  0  0  0  0  0  0  0  0  0  0
    8.6342   -0.1104   23.3736 H   0  0  0  0  0  0  0  0  0  0  0  0
    7.1185    0.1283   24.2654 H   0  0  0  0  0  0  0  0  0  0  0  0
    5.4085    0.6393   20.1703 C   0  0  0  0  0  0  0  0  0  0  0  0
    4.9763    0.6569   21.1748 H   0  0  0  0  0  0  0  0  0  0  0  0
    4.8005    1.3114   19.1122 C   0  0  0  0  0  0  0  0  0  0  0  0
    3.8692    1.8491   19.2558 H   0  0  0  0  0  0  0  0  0  0  0  0
  1  2  1  0
  2  3  2  0
  3  4  1  0
  4  5  1  0
  4  6  2  0
  6  7  1  0
  7  8  2  0
  7  9  1  0
  9 10  1  0
  9 11  1  0
 11 12  1  0
 12 13  2  0
 13 14  1  0
 13 15  1  0
 15 16  1  0
 15 17  2  0
 17 18  1  0
 17 19  1  0
 19 20  1  0
 20 21  1  0
 20 22  1  0
 20 23  1  0
 19 24  2  0
 24 25  1  0
 11 26  1  0
 26 27  1  0
 26 28  1  0
 26 29  1  0
 11 30  1  0
 30 31  1  0
 30 32  1  0
 30 33  1  0
  6 34  1  0
 34 35  1  0
 34 36  2  0
 36 37  1  0
 36  2  1  0
 24 12  1  0
M  END
>  <cnnaffinity>  (1) 
-5.17806

>  <filename>  (1) 
CC(C)(NC(=O)c1cccnc1)c1cccc(C(F)(F)F)c1

$$$$
