
     RDKit          3D

 41 42  0  0  0  0  0  0  0  0999 V2000
    4.9624    1.8299   17.0134 H   0  0  0  0  0  0  0  0  0  0  0  0
    5.4487    1.2974   17.8239 C   0  0  0  0  0  0  0  0  0  0  0  0
    6.6092    0.6857   17.5279 N   0  0  0  0  0  0  0  0  0  0  0  0
    7.2336    0.0256   18.5216 C   0  0  0  0  0  0  0  0  0  0  0  0
    8.1679   -0.4744   18.2625 H   0  0  0  0  0  0  0  0  0  0  0  0
    6.7486   -0.0620   19.8503 C   0  0  0  0  0  0  0  0  0  0  0  0
    7.3727   -0.7830   20.9005 N   0  0  0  0  0  0  0  0  0  0  0  0
    6.6290   -1.0466   21.5453 H   0  0  0  0  0  0  0  0  0  0  0  0
    8.4270   -0.1372   21.7423 C   0  0  0  0  0  0  0  0  0  0  0  0
    7.9376    1.2314   22.2466 C   0  0  0  0  0  0  0  0  0  0  0  0
    7.8074    1.9274   21.4077 H   0  0  0  0  0  0  0  0  0  0  0  0
    6.9667    1.1396   22.7484 H   0  0  0  0  0  0  0  0  0  0  0  0
    8.6371    1.6760   22.9553 H   0  0  0  0  0  0  0  0  0  0  0  0
    8.6197   -1.1153   22.9012 C   0  0  0  0  0  0  0  0  0  0  0  0
    9.3629   -0.7650   23.6234 H   0  0  0  0  0  0  0  0  0  0  0  0
    7.6793   -1.2612   23.4452 H   0  0  0  0  0  0  0  0  0  0  0  0
    8.9467   -2.0882   22.5137 H   0  0  0  0  0  0  0  0  0  0  0  0
    9.7048   -0.0085   20.8846 C   0  0  0  0  0  0  0  0  0  0  0  0
    9.7731   -0.9284   20.2846 H   0  0  0  0  0  0  0  0  0  0  0  0
    9.5211    0.8000   20.1605 H   0  0  0  0  0  0  0  0  0  0  0  0
   11.0825    0.2236   21.5577 C   0  0  0  0  0  0  0  0  0  0  0  0
   11.7025    0.6308   20.7602 H   0  0  0  0  0  0  0  0  0  0  0  0
   11.1968    1.3138   22.6463 C   0  0  0  0  0  0  0  0  0  0  0  0
   10.6942    2.2352   22.3111 H   0  0  0  0  0  0  0  0  0  0  0  0
   10.7156    0.9948   23.5831 H   0  0  0  0  0  0  0  0  0  0  0  0
   12.6884    1.6210   22.8962 C   0  0  0  0  0  0  0  0  0  0  0  0
   12.8008    2.3964   23.6631 H   0  0  0  0  0  0  0  0  0  0  0  0
   13.1066    2.0454   21.9726 H   0  0  0  0  0  0  0  0  0  0  0  0
   13.4890    0.3632   23.2845 C   0  0  0  0  0  0  0  0  0  0  0  0
   14.5538    0.6170   23.3451 H   0  0  0  0  0  0  0  0  0  0  0  0
   13.1803    0.0353   24.2879 H   0  0  0  0  0  0  0  0  0  0  0  0
   13.2952   -0.7895   22.2816 C   0  0  0  0  0  0  0  0  0  0  0  0
   13.8185   -0.5556   21.3483 H   0  0  0  0  0  0  0  0  0  0  0  0
   13.7944   -1.6981   22.6250 H   0  0  0  0  0  0  0  0  0  0  0  0
   11.8066   -1.0685   21.9971 C   0  0  0  0  0  0  0  0  0  0  0  0
   11.3248   -1.4939   22.8882 H   0  0  0  0  0  0  0  0  0  0  0  0
   11.7212   -1.8256   21.2044 H   0  0  0  0  0  0  0  0  0  0  0  0
    5.5243    0.5762   20.1163 C   0  0  0  0  0  0  0  0  0  0  0  0
    5.1329    0.5352   21.1360 H   0  0  0  0  0  0  0  0  0  0  0  0
    4.8669    1.2656   19.0986 C   0  0  0  0  0  0  0  0  0  0  0  0
    3.9300    1.7805   19.2811 H   0  0  0  0  0  0  0  0  0  0  0  0
  1  2  1  0
  2  3  2  0
  3  4  1  0
  4  5  1  0
  4  6  2  0
  6  7  1  0
  7  8  1  0
  7  9  1  0
  9 10  1  0
 10 11  1  0
 10 12  1  0
 10 13  1  0
  9 14  1  0
 14 15  1  0
 14 16  1  0
 14 17  1  0
  9 18  1  0
 18 19  1  0
 18 20  1  0
 18 21  1  0
 21 22  1  0
 21 23  1  0
 23 24  1  0
 23 25  1  0
 23 26  1  0
 26 27  1  0
 26 28  1  0
 26 29  1  0
 29 30  1  0
 29 31  1  0
 29 32  1  0
 32 33  1  0
 32 34  1  0
 32 35  1  0
 35 36  1  0
 35 37  1  0
  6 38  1  0
 38 39  1  0
 38 40  2  0
 40 41  1  0
 40  2  1  0
 35 21  1  0
M  END
>  <cnnaffinity>  (1) 
-5.22124

>  <filename>  (1) 
CC(C)(CC1CCCCC1)Nc1cccnc1

$$$$
