
     RDKit          3D

 35 36  0  0  0  0  0  0  0  0999 V2000
    4.9292    1.8175   16.9808 H   0  0  0  0  0  0  0  0  0  0  0  0
    5.3815    1.2989   17.8223 C   0  0  0  0  0  0  0  0  0  0  0  0
    6.5319    0.6612   17.5550 N   0  0  0  0  0  0  0  0  0  0  0  0
    7.1479    0.0392   18.5670 C   0  0  0  0  0  0  0  0  0  0  0  0
    8.1106   -0.4146   18.3477 H   0  0  0  0  0  0  0  0  0  0  0  0
    6.6351   -0.0140   19.8802 C   0  0  0  0  0  0  0  0  0  0  0  0
    7.3481   -0.6803   20.9438 N   0  0  0  0  0  0  0  0  0  0  0  0
    6.7261   -1.7256   21.6017 C   0  0  0  0  0  0  0  0  0  0  0  0
    5.7257   -1.9724   21.2697 H   0  0  0  0  0  0  0  0  0  0  0  0
    7.3357   -2.4551   22.5890 C   0  0  0  0  0  0  0  0  0  0  0  0
    6.6672   -3.5228   23.1834 N   0  0  0  0  0  0  0  0  0  0  0  0
    5.6668   -3.4543   23.2357 H   0  0  0  0  0  0  0  0  0  0  0  0
    7.1637   -4.8561   23.5094 C   0  0  0  0  0  0  0  0  0  0  0  0
    8.2491   -5.3103   22.5222 C   0  0  0  0  0  0  0  0  0  0  0  0
    9.1357   -4.6798   22.6275 H   0  0  0  0  0  0  0  0  0  0  0  0
    8.5408   -6.3498   22.7136 H   0  0  0  0  0  0  0  0  0  0  0  0
    7.8892   -5.2247   21.4907 H   0  0  0  0  0  0  0  0  0  0  0  0
    5.9443   -5.7822   23.3930 C   0  0  0  0  0  0  0  0  0  0  0  0
    6.2340   -6.8263   23.5162 H   0  0  0  0  0  0  0  0  0  0  0  0
    5.4776   -5.6996   22.4044 H   0  0  0  0  0  0  0  0  0  0  0  0
    5.1896   -5.5410   24.1502 H   0  0  0  0  0  0  0  0  0  0  0  0
    7.7193   -4.8715   24.9478 C   0  0  0  0  0  0  0  0  0  0  0  0
    8.5989   -4.2227   25.0401 H   0  0  0  0  0  0  0  0  0  0  0  0
    8.0271   -5.8841   25.2368 H   0  0  0  0  0  0  0  0  0  0  0  0
    6.9735   -4.5189   25.6706 H   0  0  0  0  0  0  0  0  0  0  0  0
    8.6536   -2.0644   22.9863 C   0  0  0  0  0  0  0  0  0  0  0  0
    9.1234   -2.6326   23.7842 H   0  0  0  0  0  0  0  0  0  0  0  0
    9.2882   -1.0173   22.3767 C   0  0  0  0  0  0  0  0  0  0  0  0
   10.2907   -0.6937   22.6142 H   0  0  0  0  0  0  0  0  0  0  0  0
    8.6830   -0.2607   21.2933 C   0  0  0  0  0  0  0  0  0  0  0  0
    9.2480    0.6513   20.7066 O   0  0  0  0  0  0  0  0  0  0  0  0
    5.4219    0.6352   20.1386 C   0  0  0  0  0  0  0  0  0  0  0  0
    5.0340    0.6253   21.1565 H   0  0  0  0  0  0  0  0  0  0  0  0
    4.7884    1.3137   19.0903 C   0  0  0  0  0  0  0  0  0  0  0  0
    3.8639    1.8608   19.2403 H   0  0  0  0  0  0  0  0  0  0  0  0
  1  2  1  0
  2  3  2  0
  3  4  1  0
  4  5  1  0
  4  6  2  0
  6  7  1  0
  7  8  1  0
  8  9  1  0
  8 10  2  0
 10 11  1  0
 11 12  1  0
 11 13  1  0
 13 14  1  0
 14 15  1  0
 14 16  1  0
 14 17  1  0
 13 18  1  0
 18 19  1  0
 18 20  1  0
 18 21  1  0
 13 22  1  0
 22 23  1  0
 22 24  1  0
 22 25  1  0
 10 26  1  0
 26 27  1  0
 26 28  2  0
 28 29  1  0
 28 30  1  0
 30 31  2  0
  6 32  1  0
 32 33  1  0
 32 34  2  0
 34 35  1  0
 34  2  1  0
 30  7  1  0
M  END
>  <cnnaffinity>  (1) 
-5.13907

>  <filename>  (1) 
CC(C)(C)Nc1ccc(=O)n(-c2cccnc2)c1

$$$$
