
     RDKit          3D

 38 39  0  0  0  0  0  0  0  0999 V2000
    4.9395    1.8195   16.9520 H   0  0  0  0  0  0  0  0  0  0  0  0
    5.3973    1.3090   17.7984 C   0  0  0  0  0  0  0  0  0  0  0  0
    6.5520    0.6758   17.5609 N   0  0  0  0  0  0  0  0  0  0  0  0
    7.1432    0.0622   18.5978 C   0  0  0  0  0  0  0  0  0  0  0  0
    8.0827   -0.4389   18.3567 H   0  0  0  0  0  0  0  0  0  0  0  0
    6.6337    0.0332   19.9168 C   0  0  0  0  0  0  0  0  0  0  0  0
    7.3174   -0.8079   21.0203 C   0  0  2  0  0  0  0  0  0  0  0  0
    6.7093   -2.2377   20.8236 C   0  0  0  0  0  0  0  0  0  0  0  0
    6.8415   -2.5094   19.7733 H   0  0  0  0  0  0  0  0  0  0  0  0
    5.6186   -2.1089   20.8948 H   0  0  0  0  0  0  0  0  0  0  0  0
    7.0794   -3.4669   21.6922 C   0  0  0  0  0  0  0  0  0  0  0  0
    8.5939   -3.6515   21.8267 C   0  0  0  0  0  0  0  0  0  0  0  0
    8.8231   -4.6379   22.2497 H   0  0  0  0  0  0  0  0  0  0  0  0
    9.0332   -2.9010   22.4853 H   0  0  0  0  0  0  0  0  0  0  0  0
    9.0899   -3.5761   20.8535 H   0  0  0  0  0  0  0  0  0  0  0  0
    6.4550   -3.3805   23.0986 C   0  0  0  0  0  0  0  0  0  0  0  0
    6.9624   -2.6351   23.7175 H   0  0  0  0  0  0  0  0  0  0  0  0
    6.5327   -4.3440   23.6188 H   0  0  0  0  0  0  0  0  0  0  0  0
    5.3873   -3.1243   23.0582 H   0  0  0  0  0  0  0  0  0  0  0  0
    6.5187   -4.7232   20.9770 C   0  0  0  0  0  0  0  0  0  0  0  0
    6.9914   -4.8642   19.9973 H   0  0  0  0  0  0  0  0  0  0  0  0
    6.7216   -5.6289   21.5628 H   0  0  0  0  0  0  0  0  0  0  0  0
    5.4345   -4.6674   20.8184 H   0  0  0  0  0  0  0  0  0  0  0  0
    7.0728   -0.2627   22.4590 C   0  0  0  0  0  0  0  0  0  0  0  0
    6.9163    0.8303   22.4119 H   0  0  0  0  0  0  0  0  0  0  0  0
    6.1864   -0.7050   22.9267 H   0  0  0  0  0  0  0  0  0  0  0  0
    8.2665   -0.6308   23.2169 N   0  0  0  0  0  0  0  0  0  0  0  0
    8.3355   -0.1095   24.0889 H   0  0  0  0  0  0  0  0  0  0  0  0
    9.4061   -0.3777   22.3479 C   0  0  0  0  0  0  0  0  0  0  0  0
    9.7626    0.6691   22.3890 H   0  0  0  0  0  0  0  0  0  0  0  0
   10.2493   -1.0211   22.6350 H   0  0  0  0  0  0  0  0  0  0  0  0
    8.8763   -0.6922   20.9352 C   0  0  0  0  0  0  0  0  0  0  0  0
    9.1671    0.1310   20.2764 H   0  0  0  0  0  0  0  0  0  0  0  0
    9.3475   -1.5874   20.5241 H   0  0  0  0  0  0  0  0  0  0  0  0
    5.4096    0.6840   20.1234 C   0  0  0  0  0  0  0  0  0  0  0  0
    4.9428    0.6860   21.1078 H   0  0  0  0  0  0  0  0  0  0  0  0
    4.7865    1.3358   19.0544 C   0  0  0  0  0  0  0  0  0  0  0  0
    3.8508    1.8629   19.1891 H   0  0  0  0  0  0  0  0  0  0  0  0
  1  2  1  0
  2  3  2  0
  3  4  1  0
  4  5  1  0
  4  6  2  0
  6  7  1  0
  7  8  1  1
  8  9  1  0
  8 10  1  0
  8 11  1  0
 11 12  1  0
 12 13  1  0
 12 14  1  0
 12 15  1  0
 11 16  1  0
 16 17  1  0
 16 18  1  0
 16 19  1  0
 11 20  1  0
 20 21  1  0
 20 22  1  0
 20 23  1  0
  7 24  1  0
 24 25  1  0
 24 26  1  0
 24 27  1  0
 27 28  1  0
 27 29  1  0
 29 30  1  0
 29 31  1  0
 29 32  1  0
 32 33  1  0
 32 34  1  0
  6 35  1  0
 35 36  1  0
 35 37  2  0
 37 38  1  0
 37  2  1  0
 32  7  1  0
M  END
>  <cnnaffinity>  (1) 
-3.99299

>  <filename>  (1) 
CC(C)(C)C[C@]1(c2cccnc2)CCNC1

$$$$
