
     RDKit          3D

 33 34  0  0  0  0  0  0  0  0999 V2000
    5.1466    1.7608   17.0445 H   0  0  0  0  0  0  0  0  0  0  0  0
    5.5999    1.2182   17.8704 C   0  0  0  0  0  0  0  0  0  0  0  0
    6.7652    0.6063   17.6063 N   0  0  0  0  0  0  0  0  0  0  0  0
    7.3484   -0.0719   18.6042 C   0  0  0  0  0  0  0  0  0  0  0  0
    8.2902   -0.5791   18.3849 H   0  0  0  0  0  0  0  0  0  0  0  0
    6.7963   -0.1731   19.8946 C   0  0  0  0  0  0  0  0  0  0  0  0
    7.4392   -0.9084   20.9451 N   0  0  0  0  0  0  0  0  0  0  0  0
    8.5173   -0.4890   21.7158 C   0  0  0  0  0  0  0  0  0  0  0  0
    9.3108    0.7168   21.3151 C   0  0  0  0  0  0  0  0  0  0  0  0
    9.8126    0.4351   20.3771 H   0  0  0  0  0  0  0  0  0  0  0  0
    8.6037    1.5118   21.0310 H   0  0  0  0  0  0  0  0  0  0  0  0
   10.3272    1.2349   22.3675 C   0  0  0  0  0  0  0  0  0  0  0  0
    9.7182    1.5390   23.2655 H   0  0  0  0  0  0  0  0  0  0  0  0
   10.8344    0.3220   22.7953 H   0  0  0  0  0  0  0  0  0  0  0  0
   11.2562    2.4594   22.0551 C   0  0  0  0  0  0  0  0  0  0  0  0
   12.1671    1.4657   20.9131 H   0  0  0  0  0  0  0  0  0  0  0  0
   12.4323    2.3866   23.0153 C   0  0  0  0  0  0  0  0  0  0  0  0
   12.8181    1.3639   23.3364 H   0  0  0  0  0  0  0  0  0  0  0  0
   12.0765    2.7330   24.0349 H   0  0  0  0  0  0  0  0  0  0  0  0
   13.3583    3.0338   22.9128 H   0  0  0  0  0  0  0  0  0  0  0  0
   11.3403    2.4349   21.7131 C   0  0  0  0  0  0  0  0  0  0  0  0
   10.6384    3.4211   22.1783 H   0  0  0  0  0  0  0  0  0  0  0  0
   10.8074    2.5307   20.5092 H   0  0  0  0  0  0  0  0  0  0  0  0
   12.1222    3.5538   20.9180 H   0  0  0  0  0  0  0  0  0  0  0  0
    8.7264   -1.3052   22.7083 N   0  0  0  0  0  0  0  0  0  0  0  0
    7.7521   -2.2464   22.5663 N   0  0  0  0  0  0  0  0  0  0  0  0
    7.6163   -3.0031   23.2152 H   0  0  0  0  0  0  0  0  0  0  0  0
    6.9313   -2.0613   21.5196 C   0  0  0  0  0  0  0  0  0  0  0  0
    5.6493   -3.0218   21.0720 S   0  0  0  0  0  0  0  0  0  0  0  0
    5.5811    0.4614   20.1599 C   0  0  0  0  0  0  0  0  0  0  0  0
    5.1448    0.4006   21.1594 H   0  0  0  0  0  0  0  0  0  0  0  0
    4.9731    1.1717   19.1215 C   0  0  0  0  0  0  0  0  0  0  0  0
    4.0345    1.6908   19.2734 H   0  0  0  0  0  0  0  0  0  0  0  0
  1  2  1  0
  2  3  2  0
  3  4  1  0
  4  5  1  0
  4  6  2  0
  6  7  1  0
  7  8  1  0
  8  9  1  0
  9 10  1  0
  9 11  1  0
  9 12  1  0
 12 13  1  0
 12 14  1  0
 12 15  1  0
 15 16  1  0
 15 17  1  0
 17 18  1  0
 17 19  1  0
 17 20  1  0
 15 21  1  0
 21 22  1  0
 21 23  1  0
 21 24  1  0
  8 25  2  0
 25 26  1  0
 26 27  1  0
 26 28  1  0
 28 29  2  0
  6 30  1  0
 30 31  1  0
 30 32  2  0
 32 33  1  0
 32  2  1  0
 28  7  1  0
M  END
>  <cnnaffinity>  (1) 
-5.01909

>  <filename>  (1) 
CC(C)CCc1n[nH]c(=S)n1-c1cccnc1

$$$$
