
     RDKit          3D

 32 33  0  0  0  0  0  0  0  0999 V2000
    4.9336    1.8038   16.9795 H   0  0  0  0  0  0  0  0  0  0  0  0
    5.4011    1.3019   17.8243 C   0  0  0  0  0  0  0  0  0  0  0  0
    6.5596    0.6756   17.5713 N   0  0  0  0  0  0  0  0  0  0  0  0
    7.1578    0.0517   18.5900 C   0  0  0  0  0  0  0  0  0  0  0  0
    8.0979   -0.4512   18.3646 H   0  0  0  0  0  0  0  0  0  0  0  0
    6.6453    0.0387   19.8913 C   0  0  0  0  0  0  0  0  0  0  0  0
    7.4210   -0.7153   20.9235 C   0  0  0  0  0  0  0  0  0  0  0  0
    7.5453   -1.9174   20.7704 O   0  0  0  0  0  0  0  0  0  0  0  0
    8.0021   -0.0389   22.2055 C   0  0  0  0  0  0  0  0  0  0  0  0
    6.9992   -0.2521   23.3627 C   0  0  0  0  0  0  0  0  0  0  0  0
    6.7566   -1.3163   23.4636 H   0  0  0  0  0  0  0  0  0  0  0  0
    6.0583    0.2924   23.2123 H   0  0  0  0  0  0  0  0  0  0  0  0
    7.4180    0.0789   24.3195 H   0  0  0  0  0  0  0  0  0  0  0  0
    9.3479   -0.7364   22.5361 C   0  0  0  0  0  0  0  0  0  0  0  0
    9.1743   -1.7986   22.7254 H   0  0  0  0  0  0  0  0  0  0  0  0
   10.0573   -0.6483   21.7029 H   0  0  0  0  0  0  0  0  0  0  0  0
    9.8173   -0.3029   23.4242 H   0  0  0  0  0  0  0  0  0  0  0  0
    8.2179    1.4803   21.9247 C   0  0  2  0  0  0  0  0  0  0  0  0
    7.2405    1.9181   21.6663 H   0  0  0  0  0  0  0  0  0  0  0  0
    9.1372    1.6725   20.8151 N   0  0  0  0  0  0  0  0  0  0  0  0
   10.1180    2.3141   21.3057 C   0  0  0  0  0  0  0  0  0  0  0  0
   11.2808    2.5586   20.6495 N   0  0  0  0  0  0  0  0  0  0  0  0
   11.0213    2.5702   19.6774 H   0  0  0  0  0  0  0  0  0  0  0  0
   11.5933    3.4582   20.9772 H   0  0  0  0  0  0  0  0  0  0  0  0
   10.0472    2.8584   22.5264 O   0  0  0  0  0  0  0  0  0  0  0  0
    8.8328    2.3156   23.0910 C   0  0  0  0  0  0  0  0  0  0  0  0
    8.1838    3.1431   23.3982 H   0  0  0  0  0  0  0  0  0  0  0  0
    9.1280    1.7183   23.9617 H   0  0  0  0  0  0  0  0  0  0  0  0
    5.4232    0.6748   20.1412 C   0  0  0  0  0  0  0  0  0  0  0  0
    4.9689    0.6577   21.1327 H   0  0  0  0  0  0  0  0  0  0  0  0
    4.7902    1.3251   19.0836 C   0  0  0  0  0  0  0  0  0  0  0  0
    3.8550    1.8558   19.2267 H   0  0  0  0  0  0  0  0  0  0  0  0
  1  2  1  0
  2  3  2  0
  3  4  1  0
  4  5  1  0
  4  6  2  0
  6  7  1  0
  7  8  2  0
  7  9  1  0
  9 10  1  0
 10 11  1  0
 10 12  1  0
 10 13  1  0
  9 14  1  0
 14 15  1  0
 14 16  1  0
 14 17  1  0
  9 18  1  0
 18 19  1  6
 18 20  1  0
 20 21  2  0
 21 22  1  0
 22 23  1  0
 22 24  1  0
 21 25  1  0
 25 26  1  0
 26 27  1  0
 26 28  1  0
  6 29  1  0
 29 30  1  0
 29 31  2  0
 31 32  1  0
 31  2  1  0
 26 18  1  0
M  END
>  <cnnaffinity>  (1) 
-4.81142

>  <filename>  (1) 
CC(C)(C(=O)c1cccnc1)[C@H]1COC(N)=N1

$$$$
