
     RDKit          3D

 47 49  0  0  0  0  0  0  0  0999 V2000
    6.0247   -1.5973   28.1719 C   0  0  0  0  0  0  0  0  0  0  0  0
    5.4430   -1.2196   26.8047 C   0  0  0  0  0  0  0  0  0  0  0  0
    4.0036   -0.6843   26.9638 C   0  0  0  0  0  0  0  0  0  0  0  0
    3.9534    0.2388   27.5595 H   0  0  0  0  0  0  0  0  0  0  0  0
    3.5418   -0.4844   25.9863 H   0  0  0  0  0  0  0  0  0  0  0  0
    3.3834   -1.4479   27.4536 H   0  0  0  0  0  0  0  0  0  0  0  0
    5.3772   -2.5111   25.9581 C   0  0  0  0  0  0  0  0  0  0  0  0
    6.3875   -2.8729   25.7155 H   0  0  0  0  0  0  0  0  0  0  0  0
    4.8309   -2.3512   25.0203 H   0  0  0  0  0  0  0  0  0  0  0  0
    4.8486   -3.2971   26.5119 H   0  0  0  0  0  0  0  0  0  0  0  0
    6.4204   -0.2081   26.1204 C   0  0  0  0  0  0  0  0  0  0  0  0
    6.8305    0.9979   26.9927 C   0  0  0  0  0  0  0  0  0  0  0  0
    7.8066    1.9212   26.2538 C   0  0  0  0  0  0  0  0  0  0  0  0
    7.2308    2.3652   24.9090 C   0  0  0  0  0  0  0  0  0  0  0  0
    6.9147    1.1811   24.1138 N   0  0  0  0  0  0  0  0  0  0  0  0
    7.4114    1.0625   22.8337 C   0  0  0  0  0  0  0  0  0  0  0  0
    7.7298    2.0336   22.1626 O   0  0  0  0  0  0  0  0  0  0  0  0
    7.5777   -0.3173   22.3239 C   0  0  0  0  0  0  0  0  0  0  0  0
    8.2164   -1.4077   22.9020 C   0  0  0  0  0  0  0  0  0  0  0  0
    8.4311   -2.2736   21.8918 N   0  0  0  0  0  0  0  0  0  0  0  0
    7.9596   -1.8464   20.7177 N   0  0  0  0  0  0  0  0  0  0  0  0
    7.3992   -0.6716   20.9635 C   0  0  0  0  0  0  0  0  0  0  0  0
    6.6658    0.0356   19.9104 C   0  0  0  0  0  0  0  0  0  0  0  0
    5.4477    0.7006   20.1296 C   0  0  0  0  0  0  0  0  0  0  0  0
    4.8293    1.3226   19.0448 C   0  0  0  0  0  0  0  0  0  0  0  0
    5.4503    1.2674   17.7921 C   0  0  0  0  0  0  0  0  0  0  0  0
    6.6012    0.6131   17.5623 N   0  0  0  0  0  0  0  0  0  0  0  0
    7.1771    0.0070   18.6026 C   0  0  0  0  0  0  0  0  0  0  0  0
    8.0983   -0.5317   18.3879 H   0  0  0  0  0  0  0  0  0  0  0  0
    5.0132    1.7707   16.9321 H   0  0  0  0  0  0  0  0  0  0  0  0
    3.8971    1.8697   19.1571 H   0  0  0  0  0  0  0  0  0  0  0  0
    4.9998    0.7316   21.1254 H   0  0  0  0  0  0  0  0  0  0  0  0
    8.9597   -3.1302   21.9094 H   0  0  0  0  0  0  0  0  0  0  0  0
    8.5298   -1.6200   23.9147 H   0  0  0  0  0  0  0  0  0  0  0  0
    5.9515    0.2650   24.7296 C   0  0  0  0  0  0  0  0  0  0  0  0
    4.9714    0.7661   24.8067 H   0  0  0  0  0  0  0  0  0  0  0  0
    5.8323   -0.5974   24.0741 H   0  0  0  0  0  0  0  0  0  0  0  0
    6.3155    2.9605   25.0619 H   0  0  0  0  0  0  0  0  0  0  0  0
    7.9357    2.9809   24.3436 H   0  0  0  0  0  0  0  0  0  0  0  0
    8.0519    2.7956   26.8667 H   0  0  0  0  0  0  0  0  0  0  0  0
    8.7479    1.3846   26.0720 H   0  0  0  0  0  0  0  0  0  0  0  0
    7.3115    0.6383   27.9087 H   0  0  0  0  0  0  0  0  0  0  0  0
    5.9405    1.5647   27.3050 H   0  0  0  0  0  0  0  0  0  0  0  0
    7.3546   -0.7706   25.9407 H   0  0  0  0  0  0  0  0  0  0  0  0
    6.0127   -0.7656   28.8856 H   0  0  0  0  0  0  0  0  0  0  0  0
    7.0666   -1.9092   28.0122 H   0  0  0  0  0  0  0  0  0  0  0  0
    5.4508   -2.4139   28.6248 H   0  0  0  0  0  0  0  0  0  0  0  0
  1  2  1  0
  2  3  1  0
  3  4  1  0
  3  5  1  0
  3  6  1  0
  2  7  1  0
  7  8  1  0
  7  9  1  0
  7 10  1  0
  2 11  1  0
 11 12  1  0
 12 13  1  0
 13 14  1  0
 14 15  1  0
 15 16  1  0
 16 17  2  0
 16 18  1  0
 18 19  2  0
 19 20  1  0
 20 21  1  0
 21 22  2  0
 22 23  1  0
 23 24  2  0
 24 25  1  0
 25 26  2  0
 26 27  1  0
 27 28  2  0
 28 29  1  0
 26 30  1  0
 25 31  1  0
 24 32  1  0
 20 33  1  0
 19 34  1  0
 15 35  1  0
 35 36  1  0
 35 37  1  0
 14 38  1  0
 14 39  1  0
 13 40  1  0
 13 41  1  0
 12 42  1  0
 12 43  1  0
 11 44  1  0
  1 45  1  0
  1 46  1  0
  1 47  1  0
 35 11  1  0
 22 18  1  0
 28 23  1  0
M  END
>  <cnnaffinity>  (1) 
-5.26099

>  <filename>  (1) 
CC(C)(C)C1CCCN(C(=O)c2c[nH]nc2-c2cccnc2)C1

$$$$
