
     RDKit          3D

 41 43  0  0  0  0  0  0  0  0999 V2000
    4.9164    1.9255   16.6913 H   0  0  0  0  0  0  0  0  0  0  0  0
    5.4241    1.4104   17.5012 C   0  0  0  0  0  0  0  0  0  0  0  0
    6.5407    0.7418   17.1705 N   0  0  0  0  0  0  0  0  0  0  0  0
    7.2112    0.1186   18.1494 C   0  0  0  0  0  0  0  0  0  0  0  0
    8.1450   -0.3666   17.8714 H   0  0  0  0  0  0  0  0  0  0  0  0
    6.7775    0.0988   19.4941 C   0  0  0  0  0  0  0  0  0  0  0  0
    7.4671   -0.6017   20.5311 N   0  0  0  0  0  0  0  0  0  0  0  0
    6.8537   -1.4304   21.4662 C   0  0  0  0  0  0  0  0  0  0  0  0
    5.8104   -1.6880   21.3711 H   0  0  0  0  0  0  0  0  0  0  0  0
    7.7737   -1.7905   22.3985 C   0  0  0  0  0  0  0  0  0  0  0  0
    7.6052   -2.6180   23.6006 C   0  0  0  0  0  0  0  0  0  0  0  0
    8.5856   -3.5056   24.0866 C   0  0  0  0  0  0  0  0  0  0  0  0
    9.5568   -3.5720   23.5986 H   0  0  0  0  0  0  0  0  0  0  0  0
    8.3216   -4.3052   25.2043 C   0  0  0  0  0  0  0  0  0  0  0  0
    9.1063   -4.9773   25.5439 H   0  0  0  0  0  0  0  0  0  0  0  0
    7.0846   -4.2519   25.8908 C   0  0  0  0  0  0  0  0  0  0  0  0
    6.7688   -5.1500   27.1099 C   0  0  0  0  0  0  0  0  0  0  0  0
    6.4598   -6.5704   26.5972 C   0  0  0  0  0  0  0  0  0  0  0  0
    5.5609   -6.5786   25.9676 H   0  0  0  0  0  0  0  0  0  0  0  0
    7.3008   -6.9246   25.9921 H   0  0  0  0  0  0  0  0  0  0  0  0
    6.3006   -7.2717   27.4258 H   0  0  0  0  0  0  0  0  0  0  0  0
    5.5592   -4.6453   27.9415 C   0  0  0  0  0  0  0  0  0  0  0  0
    5.6984   -3.6004   28.2483 H   0  0  0  0  0  0  0  0  0  0  0  0
    4.6070   -4.7233   27.4000 H   0  0  0  0  0  0  0  0  0  0  0  0
    5.4458   -5.2469   28.8511 H   0  0  0  0  0  0  0  0  0  0  0  0
    7.9860   -5.1742   28.0648 C   0  0  0  0  0  0  0  0  0  0  0  0
    8.3613   -4.1568   28.2139 H   0  0  0  0  0  0  0  0  0  0  0  0
    8.8168   -5.7763   27.6811 H   0  0  0  0  0  0  0  0  0  0  0  0
    7.7064   -5.5813   29.0441 H   0  0  0  0  0  0  0  0  0  0  0  0
    6.1264   -3.3607   25.3914 C   0  0  0  0  0  0  0  0  0  0  0  0
    5.1624   -3.2874   25.8790 H   0  0  0  0  0  0  0  0  0  0  0  0
    6.3866   -2.5553   24.2899 C   0  0  0  0  0  0  0  0  0  0  0  0
    5.6438   -1.8292   23.9971 H   0  0  0  0  0  0  0  0  0  0  0  0
    8.9691   -1.1866   22.0154 N   0  0  0  0  0  0  0  0  0  0  0  0
    9.8007   -1.0479   22.5600 H   0  0  0  0  0  0  0  0  0  0  0  0
    8.7950   -0.3751   20.9203 C   0  0  0  0  0  0  0  0  0  0  0  0
    9.6199    0.3632   20.4246 O   0  0  0  0  0  0  0  0  0  0  0  0
    5.6127    0.8025   19.8185 C   0  0  0  0  0  0  0  0  0  0  0  0
    5.2847    0.8353   20.8574 H   0  0  0  0  0  0  0  0  0  0  0  0
    4.9272    1.4758   18.8069 C   0  0  0  0  0  0  0  0  0  0  0  0
    4.0387    2.0589   19.0244 H   0  0  0  0  0  0  0  0  0  0  0  0
  1  2  1  0
  2  3  2  0
  3  4  1  0
  4  5  1  0
  4  6  2  0
  6  7  1  0
  7  8  1  0
  8  9  1  0
  8 10  2  0
 10 11  1  0
 11 12  2  0
 12 13  1  0
 12 14  1  0
 14 15  1  0
 14 16  2  0
 16 17  1  0
 17 18  1  0
 18 19  1  0
 18 20  1  0
 18 21  1  0
 17 22  1  0
 22 23  1  0
 22 24  1  0
 22 25  1  0
 17 26  1  0
 26 27  1  0
 26 28  1  0
 26 29  1  0
 16 30  1  0
 30 31  1  0
 30 32  2  0
 32 33  1  0
 10 34  1  0
 34 35  1  0
 34 36  1  0
 36 37  2  0
  6 38  1  0
 38 39  1  0
 38 40  2  0
 40 41  1  0
 40  2  1  0
 36  7  1  0
 32 11  1  0
M  END
>  <cnnaffinity>  (1) 
-5.37067

>  <filename>  (1) 
CC(C)(C)c1ccc(-c2cn(-c3cccnc3)c(=O)[nH]2)cc1

$$$$
