
     RDKit          3D

 34 35  0  0  0  0  0  0  0  0999 V2000
   10.8905   -1.6294   22.0450 C   0  0  0  0  0  0  0  0  0  0  0  0
    9.3515   -1.6166   22.1746 C   0  0  0  0  0  0  0  0  0  0  0  0
    8.8214   -3.0308   21.8884 C   0  0  0  0  0  0  0  0  0  0  0  0
    9.4503   -3.7775   22.3732 H   0  0  0  0  0  0  0  0  0  0  0  0
    7.7859   -3.1594   22.2327 H   0  0  0  0  0  0  0  0  0  0  0  0
    8.8522   -3.2162   20.8186 H   0  0  0  0  0  0  0  0  0  0  0  0
    8.7140   -0.6460   21.1340 C   0  0  0  0  0  0  0  0  0  0  0  0
    9.4058    0.0688   20.4108 O   0  0  0  0  0  0  0  0  0  0  0  0
    7.3341   -0.6298   20.9710 N   0  0  0  0  0  0  0  0  0  0  0  0
    6.6716    0.0099   19.9031 C   0  0  0  0  0  0  0  0  0  0  0  0
    5.4533    0.6255   20.1497 C   0  0  0  0  0  0  0  0  0  0  0  0
    4.8184    1.2873   19.0925 C   0  0  0  0  0  0  0  0  0  0  0  0
    5.3958    1.2989   17.8165 C   0  0  0  0  0  0  0  0  0  0  0  0
    6.5671    0.6907   17.5569 N   0  0  0  0  0  0  0  0  0  0  0  0
    7.1898    0.0734   18.5854 C   0  0  0  0  0  0  0  0  0  0  0  0
    8.1394   -0.4127   18.3844 H   0  0  0  0  0  0  0  0  0  0  0  0
    4.8831    1.8270   17.0178 H   0  0  0  0  0  0  0  0  0  0  0  0
    3.8856    1.8137   19.2489 H   0  0  0  0  0  0  0  0  0  0  0  0
    5.0414    0.6042   21.1533 H   0  0  0  0  0  0  0  0  0  0  0  0
    6.7738   -1.0815   21.6916 H   0  0  0  0  0  0  0  0  0  0  0  0
    8.9933   -1.2380   23.6067 C   0  0  0  0  0  0  0  0  0  0  0  0
    8.4864    0.0428   23.8528 C   0  0  0  0  0  0  0  0  0  0  0  0
    8.1203    0.4470   25.1373 C   0  0  0  0  0  0  0  0  0  0  0  0
    8.2532   -0.4415   26.2071 C   0  0  0  0  0  0  0  0  0  0  0  0
    8.7787   -1.7194   25.9892 C   0  0  0  0  0  0  0  0  0  0  0  0
    9.1647   -2.1207   24.7016 C   0  0  0  0  0  0  0  0  0  0  0  0
    9.9391   -3.8617   24.4812 Br  0  0  0  0  0  0  0  0  0  0  0  0
    8.8961   -2.4049   26.8244 H   0  0  0  0  0  0  0  0  0  0  0  0
    7.9595   -0.1285   27.2042 H   0  0  0  0  0  0  0  0  0  0  0  0
    7.7347    1.4495   25.2947 H   0  0  0  0  0  0  0  0  0  0  0  0
    8.3867    0.7199   23.0107 H   0  0  0  0  0  0  0  0  0  0  0  0
   11.1892   -1.8932   21.0256 H   0  0  0  0  0  0  0  0  0  0  0  0
   11.2998   -0.6387   22.2792 H   0  0  0  0  0  0  0  0  0  0  0  0
   11.3354   -2.3614   22.7282 H   0  0  0  0  0  0  0  0  0  0  0  0
  1  2  1  0
  2  3  1  0
  3  4  1  0
  3  5  1  0
  3  6  1  0
  2  7  1  0
  7  8  2  0
  7  9  1  0
  9 10  1  0
 10 11  2  0
 11 12  1  0
 12 13  2  0
 13 14  1  0
 14 15  2  0
 15 16  1  0
 13 17  1  0
 12 18  1  0
 11 19  1  0
  9 20  1  0
  2 21  1  0
 21 22  2  0
 22 23  1  0
 23 24  2  0
 24 25  1  0
 25 26  2  0
 26 27  1  0
 25 28  1  0
 24 29  1  0
 23 30  1  0
 22 31  1  0
  1 32  1  0
  1 33  1  0
  1 34  1  0
 15 10  1  0
 26 21  1  0
M  END
>  <cnnaffinity>  (1) 
-5.41627

>  <filename>  (1) 
CC(C)(C(=O)Nc1cccnc1)c1ccccc1Br

$$$$
