
     RDKit          3D

 39 42  0  0  0  0  0  0  0  0999 V2000
    4.9225    1.7806   16.9972 H   0  0  0  0  0  0  0  0  0  0  0  0
    5.4034    1.2906   17.8392 C   0  0  0  0  0  0  0  0  0  0  0  0
    6.5670    0.6761   17.5739 N   0  0  0  0  0  0  0  0  0  0  0  0
    7.1710    0.0541   18.5880 C   0  0  0  0  0  0  0  0  0  0  0  0
    8.1196   -0.4325   18.3689 H   0  0  0  0  0  0  0  0  0  0  0  0
    6.6464    0.0115   19.8930 C   0  0  0  0  0  0  0  0  0  0  0  0
    7.4049   -0.6954   20.9201 C   0  0  0  0  0  0  0  0  0  0  0  0
    8.3275   -1.6003   20.7016 N   0  0  0  0  0  0  0  0  0  0  0  0
    8.8311   -2.0388   21.9060 N   0  0  0  0  0  0  0  0  0  0  0  0
    8.2064   -1.3557   22.8238 C   0  0  0  0  0  0  0  0  0  0  0  0
    8.2574   -1.0983   24.5421 S   0  0  0  0  0  0  0  0  0  0  0  0
    7.0301    0.1758   24.3333 C   0  0  0  0  0  0  0  0  0  0  0  0
    6.5327    0.9700   25.4814 C   0  0  0  0  0  0  0  0  0  0  0  0
    7.0044    0.7562   26.7911 C   0  0  0  0  0  0  0  0  0  0  0  0
    7.7575   -0.0050   26.9925 H   0  0  0  0  0  0  0  0  0  0  0  0
    6.5235    1.5083   27.8654 C   0  0  0  0  0  0  0  0  0  0  0  0
    6.9114    1.3227   28.8606 H   0  0  0  0  0  0  0  0  0  0  0  0
    5.5557    2.5019   27.6615 C   0  0  0  0  0  0  0  0  0  0  0  0
    5.0308    3.3181   28.6215 O   0  0  0  0  0  0  0  0  0  0  0  0
    5.3006    3.1446   30.0259 C   0  0  0  0  0  0  0  0  0  0  0  0
    6.3810    3.0170   30.1767 H   0  0  0  0  0  0  0  0  0  0  0  0
    4.5547    1.9439   30.5960 C   0  0  0  0  0  0  0  0  0  0  0  0
    3.4756    2.0706   30.4605 H   0  0  0  0  0  0  0  0  0  0  0  0
    4.7479    1.8517   31.6715 H   0  0  0  0  0  0  0  0  0  0  0  0
    4.8539    1.0084   30.1170 H   0  0  0  0  0  0  0  0  0  0  0  0
    4.8781    4.4293   30.7289 C   0  0  0  0  0  0  0  0  0  0  0  0
    5.0819    4.3633   31.8034 H   0  0  0  0  0  0  0  0  0  0  0  0
    5.4143    5.2999   30.3464 H   0  0  0  0  0  0  0  0  0  0  0  0
    3.8049    4.6078   30.6147 H   0  0  0  0  0  0  0  0  0  0  0  0
    5.0843    2.7260   26.3495 C   0  0  0  0  0  0  0  0  0  0  0  0
    4.3434    3.4978   26.1833 H   0  0  0  0  0  0  0  0  0  0  0  0
    5.5616    1.9748   25.2825 C   0  0  0  0  0  0  0  0  0  0  0  0
    5.1967    2.1507   24.2711 H   0  0  0  0  0  0  0  0  0  0  0  0
    6.6249    0.3482   23.1102 N   0  0  0  0  0  0  0  0  0  0  0  0
    7.2796   -0.5138   22.2850 N   0  0  0  0  0  0  0  0  0  0  0  0
    5.4288    0.6527   20.1618 C   0  0  0  0  0  0  0  0  0  0  0  0
    5.0095    0.6392   21.1711 H   0  0  0  0  0  0  0  0  0  0  0  0
    4.8046    1.3073   19.1045 C   0  0  0  0  0  0  0  0  0  0  0  0
    3.8751    1.8427   19.2556 H   0  0  0  0  0  0  0  0  0  0  0  0
  1  2  1  0
  2  3  2  0
  3  4  1  0
  4  5  1  0
  4  6  2  0
  6  7  1  0
  7  8  2  0
  8  9  1  0
  9 10  2  0
 10 11  1  0
 11 12  1  0
 12 13  1  0
 13 14  2  0
 14 15  1  0
 14 16  1  0
 16 17  1  0
 16 18  2  0
 18 19  1  0
 19 20  1  0
 20 21  1  0
 20 22  1  0
 22 23  1  0
 22 24  1  0
 22 25  1  0
 20 26  1  0
 26 27  1  0
 26 28  1  0
 26 29  1  0
 18 30  1  0
 30 31  1  0
 30 32  2  0
 32 33  1  0
 12 34  2  0
 34 35  1  0
  6 36  1  0
 36 37  1  0
 36 38  2  0
 38 39  1  0
 38  2  1  0
 35  7  1  0
 35 10  1  0
 32 13  1  0
M  END
>  <cnnaffinity>  (1) 
-5.37021

>  <filename>  (1) 
CC(C)Oc1ccc(-c2nn3c(-c4cccnc4)nnc3s2)cc1

$$$$
