
     RDKit          3D

 47 49  0  0  0  0  0  0  0  0999 V2000
    4.9155    1.8094   17.0002 H   0  0  0  0  0  0  0  0  0  0  0  0
    5.3860    1.2936   17.8338 C   0  0  0  0  0  0  0  0  0  0  0  0
    6.5432    0.6705   17.5556 N   0  0  0  0  0  0  0  0  0  0  0  0
    7.1658    0.0500   18.5632 C   0  0  0  0  0  0  0  0  0  0  0  0
    8.1194   -0.4168   18.3300 H   0  0  0  0  0  0  0  0  0  0  0  0
    6.6675   -0.0142   19.8889 C   0  0  0  0  0  0  0  0  0  0  0  0
    7.3811   -0.6788   20.9197 N   0  0  0  0  0  0  0  0  0  0  0  0
    6.8649   -1.0717   21.6911 H   0  0  0  0  0  0  0  0  0  0  0  0
    8.7500   -0.6140   21.0958 C   0  0  0  0  0  0  0  0  0  0  0  0
    9.4431    0.1335   20.4262 O   0  0  0  0  0  0  0  0  0  0  0  0
    9.3319   -1.6055   22.1606 C   0  0  0  0  0  0  0  0  0  0  0  0
    8.7297   -1.3617   23.5519 C   0  0  0  0  0  0  0  0  0  0  0  0
    8.6484   -0.0371   24.0123 C   0  0  0  0  0  0  0  0  0  0  0  0
    8.9867    0.7681   23.3591 H   0  0  0  0  0  0  0  0  0  0  0  0
    8.1399    0.2481   25.2737 C   0  0  0  0  0  0  0  0  0  0  0  0
    8.0389    1.2678   25.6304 H   0  0  0  0  0  0  0  0  0  0  0  0
    7.6897   -0.7824   26.1141 C   0  0  0  0  0  0  0  0  0  0  0  0
    7.1250   -0.4368   27.3481 N   0  0  0  0  0  0  0  0  0  0  0  0
    5.9805   -1.1851   27.8530 C   0  0  0  0  0  0  0  0  0  0  0  0
    6.2506   -2.1398   28.3140 H   0  0  0  0  0  0  0  0  0  0  0  0
    5.3254   -1.4341   27.0088 H   0  0  0  0  0  0  0  0  0  0  0  0
    5.1923   -0.3571   28.8709 C   0  0  0  0  0  0  0  0  0  0  0  0
    4.6433    0.4464   28.3500 H   0  0  0  0  0  0  0  0  0  0  0  0
    4.4711   -0.9934   29.3927 H   0  0  0  0  0  0  0  0  0  0  0  0
    6.0457    0.1861   29.8664 O   0  0  0  0  0  0  0  0  0  0  0  0
    7.0174    1.0532   29.2996 C   0  0  0  0  0  0  0  0  0  0  0  0
    7.5904    1.4583   30.1407 H   0  0  0  0  0  0  0  0  0  0  0  0
    6.5094    1.8789   28.7781 H   0  0  0  0  0  0  0  0  0  0  0  0
    7.9271    0.3589   28.2778 C   0  0  0  0  0  0  0  0  0  0  0  0
    8.7188   -0.2349   28.7697 H   0  0  0  0  0  0  0  0  0  0  0  0
    8.4463    1.1412   27.7102 H   0  0  0  0  0  0  0  0  0  0  0  0
    7.7936   -2.1126   25.6786 C   0  0  0  0  0  0  0  0  0  0  0  0
    7.4568   -2.9047   26.3421 H   0  0  0  0  0  0  0  0  0  0  0  0
    8.3213   -2.3954   24.4169 C   0  0  0  0  0  0  0  0  0  0  0  0
    8.3943   -3.4328   24.1021 H   0  0  0  0  0  0  0  0  0  0  0  0
   10.8693   -1.4147   22.2512 C   0  0  0  0  0  0  0  0  0  0  0  0
   11.2936   -2.1140   22.9788 H   0  0  0  0  0  0  0  0  0  0  0  0
   11.1302   -0.3949   22.5584 H   0  0  0  0  0  0  0  0  0  0  0  0
   11.3425   -1.6045   21.2824 H   0  0  0  0  0  0  0  0  0  0  0  0
    9.0593   -3.0446   21.6803 C   0  0  0  0  0  0  0  0  0  0  0  0
    7.9956   -3.3082   21.6418 H   0  0  0  0  0  0  0  0  0  0  0  0
    9.5478   -3.7319   22.3774 H   0  0  0  0  0  0  0  0  0  0  0  0
    9.4843   -3.1718   20.6848 H   0  0  0  0  0  0  0  0  0  0  0  0
    5.4493    0.6228   20.1547 C   0  0  0  0  0  0  0  0  0  0  0  0
    5.0402    0.6119   21.1661 H   0  0  0  0  0  0  0  0  0  0  0  0
    4.8063    1.2967   19.1078 C   0  0  0  0  0  0  0  0  0  0  0  0
    3.8771    1.8349   19.2668 H   0  0  0  0  0  0  0  0  0  0  0  0
  1  2  1  0
  2  3  2  0
  3  4  1  0
  4  5  1  0
  4  6  2  0
  6  7  1  0
  7  8  1  0
  7  9  1  0
  9 10  2  0
  9 11  1  0
 11 12  1  0
 12 13  2  0
 13 14  1  0
 13 15  1  0
 15 16  1  0
 15 17  2  0
 17 18  1  0
 18 19  1  0
 19 20  1  0
 19 21  1  0
 19 22  1  0
 22 23  1  0
 22 24  1  0
 22 25  1  0
 25 26  1  0
 26 27  1  0
 26 28  1  0
 26 29  1  0
 29 30  1  0
 29 31  1  0
 17 32  1  0
 32 33  1  0
 32 34  2  0
 34 35  1  0
 11 36  1  0
 36 37  1  0
 36 38  1  0
 36 39  1  0
 11 40  1  0
 40 41  1  0
 40 42  1  0
 40 43  1  0
  6 44  1  0
 44 45  1  0
 44 46  2  0
 46 47  1  0
 46  2  1  0
 34 12  1  0
 29 18  1  0
M  END
>  <cnnaffinity>  (1) 
-5.1449

>  <filename>  (1) 
CC(C)(C(=O)Nc1cccnc1)c1ccc(N2CCOCC2)cc1

$$$$
