
     RDKit          3D

 38 40  0  0  0  0  0  0  0  0999 V2000
    4.8473    1.8676   16.8058 H   0  0  0  0  0  0  0  0  0  0  0  0
    5.3760    1.3719   17.6140 C   0  0  0  0  0  0  0  0  0  0  0  0
    6.5083    0.7356   17.2737 N   0  0  0  0  0  0  0  0  0  0  0  0
    7.1937    0.1197   18.2463 C   0  0  0  0  0  0  0  0  0  0  0  0
    8.1090   -0.3812   17.9466 H   0  0  0  0  0  0  0  0  0  0  0  0
    6.7823    0.0964   19.5969 C   0  0  0  0  0  0  0  0  0  0  0  0
    7.4796   -0.6097   20.6212 N   0  0  0  0  0  0  0  0  0  0  0  0
    6.8553   -1.4154   21.5687 C   0  0  0  0  0  0  0  0  0  0  0  0
    5.7990   -1.6244   21.5041 H   0  0  0  0  0  0  0  0  0  0  0  0
    7.7790   -1.8261   22.4715 C   0  0  0  0  0  0  0  0  0  0  0  0
    7.6098   -2.6503   23.6707 C   0  0  0  0  0  0  0  0  0  0  0  0
    8.6282   -3.4801   24.1732 C   0  0  0  0  0  0  0  0  0  0  0  0
    9.6029   -3.5054   23.6959 H   0  0  0  0  0  0  0  0  0  0  0  0
    8.3954   -4.2760   25.2916 C   0  0  0  0  0  0  0  0  0  0  0  0
    9.1910   -4.8971   25.6972 H   0  0  0  0  0  0  0  0  0  0  0  0
    7.1507   -4.2738   25.9434 C   0  0  0  0  0  0  0  0  0  0  0  0
    6.8841   -5.1533   27.1503 C   0  0  0  0  0  0  0  0  0  0  0  0
    6.0364   -4.7112   27.6868 H   0  0  0  0  0  0  0  0  0  0  0  0
    8.0489   -5.1952   28.1528 C   0  0  0  0  0  0  0  0  0  0  0  0
    8.6400   -4.2798   28.0966 H   0  0  0  0  0  0  0  0  0  0  0  0
    8.7269   -6.0405   27.9838 H   0  0  0  0  0  0  0  0  0  0  0  0
    7.6511   -5.2913   29.1677 H   0  0  0  0  0  0  0  0  0  0  0  0
    6.4863   -6.5726   26.7321 C   0  0  0  0  0  0  0  0  0  0  0  0
    5.5539   -6.5717   26.1601 H   0  0  0  0  0  0  0  0  0  0  0  0
    6.3592   -7.2136   27.6131 H   0  0  0  0  0  0  0  0  0  0  0  0
    7.2716   -7.0037   26.1005 H   0  0  0  0  0  0  0  0  0  0  0  0
    6.1319   -3.4553   25.4332 C   0  0  0  0  0  0  0  0  0  0  0  0
    5.1540   -3.4423   25.9132 H   0  0  0  0  0  0  0  0  0  0  0  0
    6.3667   -2.6500   24.3271 C   0  0  0  0  0  0  0  0  0  0  0  0
    5.5928   -1.9850   23.9783 H   0  0  0  0  0  0  0  0  0  0  0  0
    8.9935   -1.2941   22.0461 N   0  0  0  0  0  0  0  0  0  0  0  0
    9.8511   -1.1580   22.5514 H   0  0  0  0  0  0  0  0  0  0  0  0
    8.8345   -0.4779   20.9576 C   0  0  0  0  0  0  0  0  0  0  0  0
    9.6985    0.2040   20.4463 O   0  0  0  0  0  0  0  0  0  0  0  0
    5.5988    0.7659   19.9299 C   0  0  0  0  0  0  0  0  0  0  0  0
    5.2734    0.7752   20.9711 H   0  0  0  0  0  0  0  0  0  0  0  0
    4.8794    1.4121   18.9222 C   0  0  0  0  0  0  0  0  0  0  0  0
    3.9504    1.9314   19.1404 H   0  0  0  0  0  0  0  0  0  0  0  0
  1  2  1  0
  2  3  2  0
  3  4  1  0
  4  5  1  0
  4  6  2  0
  6  7  1  0
  7  8  1  0
  8  9  1  0
  8 10  2  0
 10 11  1  0
 11 12  2  0
 12 13  1  0
 12 14  1  0
 14 15  1  0
 14 16  2  0
 16 17  1  0
 17 18  1  0
 17 19  1  0
 19 20  1  0
 19 21  1  0
 19 22  1  0
 17 23  1  0
 23 24  1  0
 23 25  1  0
 23 26  1  0
 16 27  1  0
 27 28  1  0
 27 29  2  0
 29 30  1  0
 10 31  1  0
 31 32  1  0
 31 33  1  0
 33 34  2  0
  6 35  1  0
 35 36  1  0
 35 37  2  0
 37 38  1  0
 37  2  1  0
 33  7  1  0
 29 11  1  0
M  END
>  <cnnaffinity>  (1) 
-5.15404

>  <filename>  (1) 
CC(C)c1ccc(-c2cn(-c3cccnc3)c(=O)[nH]2)cc1

$$$$
