
     RDKit          3D

 41 42  0  0  0  0  0  0  0  0999 V2000
    4.9873    1.7806   16.9460 H   0  0  0  0  0  0  0  0  0  0  0  0
    5.4414    1.2694   17.7900 C   0  0  0  0  0  0  0  0  0  0  0  0
    6.5984    0.6289   17.5449 N   0  0  0  0  0  0  0  0  0  0  0  0
    7.1915    0.0112   18.5746 C   0  0  0  0  0  0  0  0  0  0  0  0
    8.1274   -0.5074   18.3627 H   0  0  0  0  0  0  0  0  0  0  0  0
    6.6868    0.0165   19.8956 C   0  0  0  0  0  0  0  0  0  0  0  0
    7.3927   -0.5969   20.9666 N   0  0  0  0  0  0  0  0  0  0  0  0
    7.8076   -1.4946   20.7898 H   0  0  0  0  0  0  0  0  0  0  0  0
    7.3567   -0.1937   22.2880 C   0  0  0  0  0  0  0  0  0  0  0  0
    6.9283    0.8999   22.6042 O   0  0  0  0  0  0  0  0  0  0  0  0
    7.8799   -1.2294   23.3177 C   0  0  0  0  0  0  0  0  0  0  0  0
    7.7123   -0.6595   24.7468 C   0  0  0  0  0  0  0  0  0  0  0  0
    6.6570   -0.5033   24.9921 H   0  0  0  0  0  0  0  0  0  0  0  0
    8.2288    0.3000   24.8392 H   0  0  0  0  0  0  0  0  0  0  0  0
    8.1366   -1.3368   25.4944 H   0  0  0  0  0  0  0  0  0  0  0  0
    9.3847   -1.5399   23.0978 C   0  0  0  0  0  0  0  0  0  0  0  0
    9.9798   -0.6206   23.1037 H   0  0  0  0  0  0  0  0  0  0  0  0
    9.5891   -2.0675   22.1587 H   0  0  0  0  0  0  0  0  0  0  0  0
    9.7698   -2.1693   23.9090 H   0  0  0  0  0  0  0  0  0  0  0  0
    7.0117   -2.5106   23.1128 C   0  0  0  0  0  0  0  0  0  0  0  0
    5.9472   -2.2584   23.1207 H   0  0  0  0  0  0  0  0  0  0  0  0
    7.2366   -2.9638   22.1397 H   0  0  0  0  0  0  0  0  0  0  0  0
    7.2270   -3.5117   24.1238 N   0  0  0  0  0  0  0  0  0  0  0  0
    8.1186   -3.9706   24.1475 H   0  0  0  0  0  0  0  0  0  0  0  0
    6.5002   -3.5532   25.2819 C   0  0  0  0  0  0  0  0  0  0  0  0
    5.3946   -3.0424   25.3750 O   0  0  0  0  0  0  0  0  0  0  0  0
    7.1453   -4.3105   26.4131 C   0  0  0  0  0  0  0  0  0  0  0  0
    6.3059   -4.9689   27.3307 C   0  0  0  0  0  0  0  0  0  0  0  0
    5.2282   -4.8347   27.2770 H   0  0  0  0  0  0  0  0  0  0  0  0
    6.8447   -5.8230   28.2899 C   0  0  0  0  0  0  0  0  0  0  0  0
    6.1920   -6.3587   28.9732 H   0  0  0  0  0  0  0  0  0  0  0  0
    8.2251   -6.0065   28.3584 C   0  0  0  0  0  0  0  0  0  0  0  0
    8.6266   -6.7597   29.0180 H   0  0  0  0  0  0  0  0  0  0  0  0
    9.0780   -5.2624   27.5416 C   0  0  0  0  0  0  0  0  0  0  0  0
   10.1545   -5.3725   27.6290 H   0  0  0  0  0  0  0  0  0  0  0  0
    8.5417   -4.4124   26.5759 C   0  0  0  0  0  0  0  0  0  0  0  0
    9.2370   -3.8426   25.9600 H   0  0  0  0  0  0  0  0  0  0  0  0
    5.4607    0.6583   20.1233 C   0  0  0  0  0  0  0  0  0  0  0  0
    5.0341    0.6661   21.1231 H   0  0  0  0  0  0  0  0  0  0  0  0
    4.8341    1.2931   19.0480 C   0  0  0  0  0  0  0  0  0  0  0  0
    3.8980    1.8231   19.1889 H   0  0  0  0  0  0  0  0  0  0  0  0
  1  2  1  0
  2  3  2  0
  3  4  1  0
  4  5  1  0
  4  6  2  0
  6  7  1  0
  7  8  1  0
  7  9  1  0
  9 10  2  0
  9 11  1  0
 11 12  1  0
 12 13  1  0
 12 14  1  0
 12 15  1  0
 11 16  1  0
 16 17  1  0
 16 18  1  0
 16 19  1  0
 11 20  1  0
 20 21  1  0
 20 22  1  0
 20 23  1  0
 23 24  1  0
 23 25  1  0
 25 26  2  0
 25 27  1  0
 27 28  2  0
 28 29  1  0
 28 30  1  0
 30 31  1  0
 30 32  2  0
 32 33  1  0
 32 34  1  0
 34 35  1  0
 34 36  2  0
 36 37  1  0
  6 38  1  0
 38 39  1  0
 38 40  2  0
 40 41  1  0
 40  2  1  0
 36 27  1  0
M  END
>  <cnnaffinity>  (1) 
-4.99015

>  <filename>  (1) 
CC(C)(CNC(=O)c1ccccc1)C(=O)Nc1cccnc1

$$$$
