
     RDKit          3D

 31 33  0  0  0  0  0  0  0  0999 V2000
    8.0228    2.0753   21.0836 H   0  0  0  0  0  0  0  0  0  0  0  0
    7.3537    2.1091   21.7804 O   0  0  0  0  0  0  0  0  0  0  0  0
    7.7613    1.1698   22.7623 C   0  0  0  0  0  0  0  0  0  0  0  0
    7.7782   -0.2116   22.1782 C   0  0  0  0  0  0  0  0  0  0  0  0
    7.3605   -0.6912   20.9489 C   0  0  0  0  0  0  0  0  0  0  0  0
    6.6473    0.0157   19.8986 C   0  0  0  0  0  0  0  0  0  0  0  0
    7.1705    0.0484   18.6008 C   0  0  0  0  0  0  0  0  0  0  0  0
    8.1192   -0.4361   18.3791 H   0  0  0  0  0  0  0  0  0  0  0  0
    6.5726    0.6755   17.5839 N   0  0  0  0  0  0  0  0  0  0  0  0
    5.4067    1.2904   17.8413 C   0  0  0  0  0  0  0  0  0  0  0  0
    4.9192    1.7763   17.0003 H   0  0  0  0  0  0  0  0  0  0  0  0
    4.7983    1.3090   19.1019 C   0  0  0  0  0  0  0  0  0  0  0  0
    3.8713    1.8445   19.2627 H   0  0  0  0  0  0  0  0  0  0  0  0
    5.4284    0.6557   20.1526 C   0  0  0  0  0  0  0  0  0  0  0  0
    4.9991    0.6431   21.1583 H   0  0  0  0  0  0  0  0  0  0  0  0
    7.6382   -2.0237   20.7984 N   0  0  0  0  0  0  0  0  0  0  0  0
    8.1491   -2.3726   21.9490 C   0  0  0  0  0  0  0  0  0  0  0  0
    8.7193   -3.8614   22.6677 S   0  0  0  0  0  0  0  0  0  0  0  0
    9.0769   -2.9912   24.1528 C   0  0  0  0  0  0  0  0  0  0  0  0
    9.4879   -3.5331   24.9962 H   0  0  0  0  0  0  0  0  0  0  0  0
    8.7733   -1.6861   24.0812 C   0  0  0  0  0  0  0  0  0  0  0  0
    8.8666   -0.9426   24.8678 H   0  0  0  0  0  0  0  0  0  0  0  0
    8.2676   -1.3305   22.8335 N   0  0  0  0  0  0  0  0  0  0  0  0
    6.7313    1.2612   23.8867 C   0  0  0  0  0  0  0  0  0  0  0  0
    5.7397    0.9780   23.5263 H   0  0  0  0  0  0  0  0  0  0  0  0
    6.9952    0.5900   24.7073 H   0  0  0  0  0  0  0  0  0  0  0  0
    6.6794    2.2799   24.2761 H   0  0  0  0  0  0  0  0  0  0  0  0
    9.1504    1.5906   23.2611 C   0  0  0  0  0  0  0  0  0  0  0  0
    9.1436    2.6622   23.4791 H   0  0  0  0  0  0  0  0  0  0  0  0
    9.4307    1.0655   24.1761 H   0  0  0  0  0  0  0  0  0  0  0  0
    9.9132    1.3919   22.5029 H   0  0  0  0  0  0  0  0  0  0  0  0
  1  2  1  0
  2  3  1  0
  3  4  1  0
  4  5  2  0
  5  6  1  0
  6  7  2  0
  7  8  1  0
  7  9  1  0
  9 10  2  0
 10 11  1  0
 10 12  1  0
 12 13  1  0
 12 14  2  0
 14 15  1  0
  5 16  1  0
 16 17  2  0
 17 18  1  0
 18 19  1  0
 19 20  1  0
 19 21  2  0
 21 22  1  0
 21 23  1  0
  3 24  1  0
 24 25  1  0
 24 26  1  0
 24 27  1  0
  3 28  1  0
 28 29  1  0
 28 30  1  0
 28 31  1  0
 23  4  1  0
 14  6  1  0
 23 17  1  0
M  END
>  <cnnaffinity>  (1) 
-5.26065

>  <filename>  (1) 
CC(C)(O)c1c(-c2cccnc2)nc2sccn12

$$$$
