
     RDKit          3D

 38 40  0  0  0  0  0  0  0  0999 V2000
    4.9413    1.8627   16.9338 H   0  0  0  0  0  0  0  0  0  0  0  0
    5.3808    1.3174   17.7669 C   0  0  0  0  0  0  0  0  0  0  0  0
    6.5294    0.6739   17.5086 N   0  0  0  0  0  0  0  0  0  0  0  0
    7.1191    0.0349   18.5238 C   0  0  0  0  0  0  0  0  0  0  0  0
    8.0529   -0.4769   18.2935 H   0  0  0  0  0  0  0  0  0  0  0  0
    6.6093    0.0224   19.8370 C   0  0  0  0  0  0  0  0  0  0  0  0
    7.3691   -0.5912   20.9283 C   0  0  0  0  0  0  0  0  0  0  0  0
    8.1725   -1.6373   20.7259 N   0  0  0  0  0  0  0  0  0  0  0  0
    8.6980   -1.8634   21.9266 N   0  0  0  0  0  0  0  0  0  0  0  0
    8.3128   -1.0317   22.8949 C   0  0  0  0  0  0  0  0  0  0  0  0
    7.4146   -0.1706   22.2991 C   0  0  0  0  0  0  0  0  0  0  0  0
    6.7496    0.8962   22.9436 N   0  0  0  0  0  0  0  0  0  0  0  0
    6.8857    1.8030   22.5233 H   0  0  0  0  0  0  0  0  0  0  0  0
    6.6140    0.9424   24.3173 C   0  0  0  0  0  0  0  0  0  0  0  0
    6.5530   -0.0542   25.0092 O   0  0  0  0  0  0  0  0  0  0  0  0
    6.4812    2.3529   24.8841 C   0  0  0  0  0  0  0  0  0  0  0  0
    6.9146    3.0591   24.1571 H   0  0  0  0  0  0  0  0  0  0  0  0
    4.9856    2.6629   25.0557 C   0  0  0  0  0  0  0  0  0  0  0  0
    4.5222    1.9402   25.7400 H   0  0  0  0  0  0  0  0  0  0  0  0
    4.8422    3.6682   25.4688 H   0  0  0  0  0  0  0  0  0  0  0  0
    4.4626    2.6040   24.0949 H   0  0  0  0  0  0  0  0  0  0  0  0
    7.2417    2.4861   26.2073 C   0  0  0  0  0  0  0  0  0  0  0  0
    6.8585    1.7688   26.9406 H   0  0  0  0  0  0  0  0  0  0  0  0
    7.1304    3.4958   26.6158 H   0  0  0  0  0  0  0  0  0  0  0  0
    8.3103    2.2856   26.0763 H   0  0  0  0  0  0  0  0  0  0  0  0
    9.1211   -1.2522   24.1410 C   0  0  0  0  0  0  0  0  0  0  0  0
    8.4863   -1.5937   24.9600 H   0  0  0  0  0  0  0  0  0  0  0  0
    9.5828   -0.3151   24.4733 H   0  0  0  0  0  0  0  0  0  0  0  0
   10.1701   -2.2984   23.6673 C   0  0  0  0  0  0  0  0  0  0  0  0
   10.3445   -3.1002   24.3871 H   0  0  0  0  0  0  0  0  0  0  0  0
   11.1056   -1.7786   23.4940 H   0  0  0  0  0  0  0  0  0  0  0  0
    9.7009   -2.8263   22.2870 C   0  0  0  0  0  0  0  0  0  0  0  0
    9.2566   -3.8230   22.3033 H   0  0  0  0  0  0  0  0  0  0  0  0
   10.4937   -2.7968   21.5396 H   0  0  0  0  0  0  0  0  0  0  0  0
    5.3832    0.6606   20.0781 C   0  0  0  0  0  0  0  0  0  0  0  0
    4.9466    0.6404   21.0784 H   0  0  0  0  0  0  0  0  0  0  0  0
    4.7620    1.3216   19.0216 C   0  0  0  0  0  0  0  0  0  0  0  0
    3.8359    1.8632   19.1631 H   0  0  0  0  0  0  0  0  0  0  0  0
  1  2  1  0
  2  3  2  0
  3  4  1  0
  4  5  1  0
  4  6  2  0
  6  7  1  0
  7  8  2  0
  8  9  1  0
  9 10  1  0
 10 11  2  0
 11 12  1  0
 12 13  1  0
 12 14  1  0
 14 15  2  0
 14 16  1  0
 16 17  1  0
 16 18  1  0
 18 19  1  0
 18 20  1  0
 18 21  1  0
 16 22  1  0
 22 23  1  0
 22 24  1  0
 22 25  1  0
 10 26  1  0
 26 27  1  0
 26 28  1  0
 26 29  1  0
 29 30  1  0
 29 31  1  0
 29 32  1  0
 32 33  1  0
 32 34  1  0
  6 35  1  0
 35 36  1  0
 35 37  2  0
 37 38  1  0
 37  2  1  0
 11  7  1  0
 32  9  1  0
M  END
>  <cnnaffinity>  (1) 
-5.36769

>  <filename>  (1) 
CC(C)C(=O)Nc1c(-c2cccnc2)nn2c1CCC2

$$$$
