
     RDKit          3D

 34 35  0  0  0  0  0  0  0  0999 V2000
    5.1576    1.8834   16.9596 H   0  0  0  0  0  0  0  0  0  0  0  0
    5.5754    1.3301   17.7982 C   0  0  0  0  0  0  0  0  0  0  0  0
    6.7360    0.6952   17.5671 N   0  0  0  0  0  0  0  0  0  0  0  0
    7.2794    0.0100   18.5817 C   0  0  0  0  0  0  0  0  0  0  0  0
    8.2322   -0.4823   18.3857 H   0  0  0  0  0  0  0  0  0  0  0  0
    6.6795   -0.1098   19.8508 C   0  0  0  0  0  0  0  0  0  0  0  0
    7.3232   -0.8238   20.9241 N   0  0  0  0  0  0  0  0  0  0  0  0
    8.5471   -0.3389   21.3536 C   0  0  0  0  0  0  0  0  0  0  0  0
    8.9972    0.4449   20.7555 H   0  0  0  0  0  0  0  0  0  0  0  0
    9.1713   -0.8137   22.4655 C   0  0  0  0  0  0  0  0  0  0  0  0
   10.3904   -0.2281   22.9218 N   0  0  0  0  0  0  0  0  0  0  0  0
   10.3770    0.2421   23.8096 H   0  0  0  0  0  0  0  0  0  0  0  0
   11.4530    0.0252   22.0879 C   0  0  0  0  0  0  0  0  0  0  0  0
   11.5147   -0.4680   20.9764 O   0  0  0  0  0  0  0  0  0  0  0  0
   12.5816    0.9513   22.5754 C   0  0  0  0  0  0  0  0  0  0  0  0
   12.8302    1.4604   21.6377 H   0  0  0  0  0  0  0  0  0  0  0  0
   13.8369    0.1802   23.0435 C   0  0  0  0  0  0  0  0  0  0  0  0
   13.9895   -0.7682   22.5197 H   0  0  0  0  0  0  0  0  0  0  0  0
   13.7851   -0.0280   24.1162 H   0  0  0  0  0  0  0  0  0  0  0  0
   14.7292    0.7918   22.8740 H   0  0  0  0  0  0  0  0  0  0  0  0
   12.2020    2.0307   23.5992 C   0  0  0  0  0  0  0  0  0  0  0  0
   11.9150    1.6191   24.5769 H   0  0  0  0  0  0  0  0  0  0  0  0
   13.0742    2.6716   23.7703 H   0  0  0  0  0  0  0  0  0  0  0  0
   11.3886    2.6692   23.2391 H   0  0  0  0  0  0  0  0  0  0  0  0
    8.5794   -1.9108   23.1674 C   0  0  0  0  0  0  0  0  0  0  0  0
    9.1058   -2.3057   24.0369 H   0  0  0  0  0  0  0  0  0  0  0  0
    7.4050   -2.4536   22.7291 C   0  0  0  0  0  0  0  0  0  0  0  0
    6.9158   -3.2984   23.1936 H   0  0  0  0  0  0  0  0  0  0  0  0
    6.6754   -1.9441   21.5707 C   0  0  0  0  0  0  0  0  0  0  0  0
    5.6319   -2.4305   21.1680 O   0  0  0  0  0  0  0  0  0  0  0  0
    5.4655    0.5475   20.0764 C   0  0  0  0  0  0  0  0  0  0  0  0
    4.9937    0.4652   21.0555 H   0  0  0  0  0  0  0  0  0  0  0  0
    4.9115    1.2907   19.0291 C   0  0  0  0  0  0  0  0  0  0  0  0
    3.9825    1.8345   19.1530 H   0  0  0  0  0  0  0  0  0  0  0  0
  1  2  1  0
  2  3  2  0
  3  4  1  0
  4  5  1  0
  4  6  2  0
  6  7  1  0
  7  8  1  0
  8  9  1  0
  8 10  2  0
 10 11  1  0
 11 12  1  0
 11 13  1  0
 13 14  2  0
 13 15  1  0
 15 16  1  0
 15 17  1  0
 17 18  1  0
 17 19  1  0
 17 20  1  0
 15 21  1  0
 21 22  1  0
 21 23  1  0
 21 24  1  0
 10 25  1  0
 25 26  1  0
 25 27  2  0
 27 28  1  0
 27 29  1  0
 29 30  2  0
  6 31  1  0
 31 32  1  0
 31 33  2  0
 33 34  1  0
 33  2  1  0
 29  7  1  0
M  END
>  <cnnaffinity>  (1) 
-5.19635

>  <filename>  (1) 
CC(C)C(=O)Nc1ccc(=O)n(-c2cccnc2)c1

$$$$
