
     RDKit          3D

 42 45  0  0  0  0  0  0  0  0999 V2000
    4.9096    1.7702   17.0072 H   0  0  0  0  0  0  0  0  0  0  0  0
    5.4055    1.2877   17.8486 C   0  0  0  0  0  0  0  0  0  0  0  0
    6.5746    0.6746   17.5947 N   0  0  0  0  0  0  0  0  0  0  0  0
    7.1848    0.0550   18.6125 C   0  0  0  0  0  0  0  0  0  0  0  0
    8.1319   -0.4368   18.3825 H   0  0  0  0  0  0  0  0  0  0  0  0
    6.6537    0.0117   19.9088 C   0  0  0  0  0  0  0  0  0  0  0  0
    7.3621   -0.6920   20.9674 C   0  0  0  0  0  0  0  0  0  0  0  0
    8.5491   -1.3250   20.7626 N   0  0  0  0  0  0  0  0  0  0  0  0
    8.7916   -1.8079   21.9606 C   0  0  0  0  0  0  0  0  0  0  0  0
    9.9853   -2.8230   22.7153 S   0  0  0  0  0  0  0  0  0  0  0  0
    9.0780   -2.7733   24.2021 C   0  0  0  0  0  0  0  0  0  0  0  0
    9.4476   -3.2979   25.0690 H   0  0  0  0  0  0  0  0  0  0  0  0
    7.9549   -2.0254   24.1208 C   0  0  0  0  0  0  0  0  0  0  0  0
    6.9639   -1.7837   25.1863 C   0  0  0  0  0  0  0  0  0  0  0  0
    6.2357   -0.5846   25.2766 C   0  0  0  0  0  0  0  0  0  0  0  0
    6.3897    0.2020   24.5450 H   0  0  0  0  0  0  0  0  0  0  0  0
    5.3196   -0.3944   26.3047 C   0  0  0  0  0  0  0  0  0  0  0  0
    4.7824    0.5478   26.3256 H   0  0  0  0  0  0  0  0  0  0  0  0
    5.0875   -1.3750   27.2893 C   0  0  0  0  0  0  0  0  0  0  0  0
    4.0790   -1.1998   28.4451 C   0  0  0  0  0  0  0  0  0  0  0  0
    4.8252   -1.2943   29.7964 C   0  0  0  0  0  0  0  0  0  0  0  0
    5.2852   -2.2781   29.9383 H   0  0  0  0  0  0  0  0  0  0  0  0
    4.1351   -1.1292   30.6310 H   0  0  0  0  0  0  0  0  0  0  0  0
    5.6188   -0.5401   29.8519 H   0  0  0  0  0  0  0  0  0  0  0  0
    3.3496    0.1589   28.4005 C   0  0  0  0  0  0  0  0  0  0  0  0
    4.0557    0.9935   28.4833 H   0  0  0  0  0  0  0  0  0  0  0  0
    2.7781    0.2744   27.4721 H   0  0  0  0  0  0  0  0  0  0  0  0
    2.6433    0.2425   29.2339 H   0  0  0  0  0  0  0  0  0  0  0  0
    3.0102   -2.3151   28.3682 C   0  0  0  0  0  0  0  0  0  0  0  0
    2.5011   -2.2934   27.3976 H   0  0  0  0  0  0  0  0  0  0  0  0
    2.2583   -2.1838   29.1541 H   0  0  0  0  0  0  0  0  0  0  0  0
    3.4512   -3.3098   28.4950 H   0  0  0  0  0  0  0  0  0  0  0  0
    5.8333   -2.5694   27.1904 C   0  0  0  0  0  0  0  0  0  0  0  0
    5.7058   -3.3652   27.9196 H   0  0  0  0  0  0  0  0  0  0  0  0
    6.7518   -2.7711   26.1656 C   0  0  0  0  0  0  0  0  0  0  0  0
    7.2973   -3.7107   26.1182 H   0  0  0  0  0  0  0  0  0  0  0  0
    7.8237   -1.4788   22.8381 N   0  0  0  0  0  0  0  0  0  0  0  0
    6.8673   -0.7542   22.2017 N   0  0  0  0  0  0  0  0  0  0  0  0
    5.4371    0.6545   20.1634 C   0  0  0  0  0  0  0  0  0  0  0  0
    5.0069    0.6288   21.1636 H   0  0  0  0  0  0  0  0  0  0  0  0
    4.8058    1.3103   19.1138 C   0  0  0  0  0  0  0  0  0  0  0  0
    3.8716    1.8453   19.2674 H   0  0  0  0  0  0  0  0  0  0  0  0
  1  2  1  0
  2  3  2  0
  3  4  1  0
  4  5  1  0
  4  6  2  0
  6  7  1  0
  7  8  1  0
  8  9  2  0
  9 10  1  0
 10 11  1  0
 11 12  1  0
 11 13  2  0
 13 14  1  0
 14 15  2  0
 15 16  1  0
 15 17  1  0
 17 18  1  0
 17 19  2  0
 19 20  1  0
 20 21  1  0
 21 22  1  0
 21 23  1  0
 21 24  1  0
 20 25  1  0
 25 26  1  0
 25 27  1  0
 25 28  1  0
 20 29  1  0
 29 30  1  0
 29 31  1  0
 29 32  1  0
 19 33  1  0
 33 34  1  0
 33 35  2  0
 35 36  1  0
 13 37  1  0
 37 38  1  0
  6 39  1  0
 39 40  1  0
 39 41  2  0
 41 42  1  0
 41  2  1  0
 38  7  2  0
 37  9  1  0
 35 14  1  0
M  END
>  <cnnaffinity>  (1) 
-5.72429

>  <filename>  (1) 
CC(C)(C)c1ccc(-c2csc3nc(-c4cccnc4)nn23)cc1

$$$$
