
     RDKit          3D

 34 35  0  0  0  0  0  0  0  0999 V2000
    4.9675    1.8237   17.0450 H   0  0  0  0  0  0  0  0  0  0  0  0
    5.4100    1.2659   17.8683 C   0  0  0  0  0  0  0  0  0  0  0  0
    6.5543    0.6155   17.6001 N   0  0  0  0  0  0  0  0  0  0  0  0
    7.1508   -0.0325   18.6064 C   0  0  0  0  0  0  0  0  0  0  0  0
    8.1115   -0.5004   18.3952 H   0  0  0  0  0  0  0  0  0  0  0  0
    6.6188   -0.1055   19.9049 C   0  0  0  0  0  0  0  0  0  0  0  0
    7.3271   -0.7957   20.9431 N   0  0  0  0  0  0  0  0  0  0  0  0
    6.5869   -1.7109   21.6661 N   0  0  0  0  0  0  0  0  0  0  0  0
    7.1772   -2.3454   22.6534 C   0  0  0  0  0  0  0  0  0  0  0  0
    6.3646   -3.2627   23.2925 N   0  0  0  0  0  0  0  0  0  0  0  0
    5.4546   -3.0803   22.8805 H   0  0  0  0  0  0  0  0  0  0  0  0
    6.3700   -3.5483   24.7340 C   0  0  0  0  0  0  0  0  0  0  0  0
    7.3686   -4.6769   25.0259 C   0  0  0  0  0  0  0  0  0  0  0  0
    7.1419   -5.5488   24.4048 H   0  0  0  0  0  0  0  0  0  0  0  0
    8.4063   -4.3915   24.8351 H   0  0  0  0  0  0  0  0  0  0  0  0
    7.3101   -4.9832   26.0784 H   0  0  0  0  0  0  0  0  0  0  0  0
    4.9579   -4.0476   25.0489 C   0  0  0  0  0  0  0  0  0  0  0  0
    4.2178   -3.2717   24.8263 H   0  0  0  0  0  0  0  0  0  0  0  0
    4.8601   -4.3173   26.1062 H   0  0  0  0  0  0  0  0  0  0  0  0
    4.7258   -4.9271   24.4414 H   0  0  0  0  0  0  0  0  0  0  0  0
    6.6708   -2.3221   25.6209 C   0  0  0  0  0  0  0  0  0  0  0  0
    7.6976   -1.9566   25.5296 H   0  0  0  0  0  0  0  0  0  0  0  0
    5.9930   -1.4920   25.3936 H   0  0  0  0  0  0  0  0  0  0  0  0
    6.5327   -2.5873   26.6749 H   0  0  0  0  0  0  0  0  0  0  0  0
    8.5551   -2.1380   22.9900 C   0  0  0  0  0  0  0  0  0  0  0  0
    8.9720   -2.7116   23.8091 H   0  0  0  0  0  0  0  0  0  0  0  0
    9.2799   -1.2219   22.2906 C   0  0  0  0  0  0  0  0  0  0  0  0
   10.3228   -0.9945   22.4669 H   0  0  0  0  0  0  0  0  0  0  0  0
    8.6947   -0.4419   21.2080 C   0  0  0  0  0  0  0  0  0  0  0  0
    9.2970    0.4078   20.5694 O   0  0  0  0  0  0  0  0  0  0  0  0
    5.4110    0.5524   20.1713 C   0  0  0  0  0  0  0  0  0  0  0  0
    4.9846    0.5127   21.1719 H   0  0  0  0  0  0  0  0  0  0  0  0
    4.8068    1.2680   19.1302 C   0  0  0  0  0  0  0  0  0  0  0  0
    3.9009    1.8453   19.2903 H   0  0  0  0  0  0  0  0  0  0  0  0
  1  2  1  0
  2  3  2  0
  3  4  1  0
  4  5  1  0
  4  6  2  0
  6  7  1  0
  7  8  1  0
  8  9  2  0
  9 10  1  0
 10 11  1  0
 10 12  1  0
 12 13  1  0
 13 14  1  0
 13 15  1  0
 13 16  1  0
 12 17  1  0
 17 18  1  0
 17 19  1  0
 17 20  1  0
 12 21  1  0
 21 22  1  0
 21 23  1  0
 21 24  1  0
  9 25  1  0
 25 26  1  0
 25 27  2  0
 27 28  1  0
 27 29  1  0
 29 30  2  0
  6 31  1  0
 31 32  1  0
 31 33  2  0
 33 34  1  0
 33  2  1  0
 29  7  1  0
M  END
>  <cnnaffinity>  (1) 
-5.0353

>  <filename>  (1) 
CC(C)(C)Nc1ccc(=O)n(-c2cccnc2)n1

$$$$
