
     RDKit          3D

 36 37  0  0  0  0  0  0  0  0999 V2000
    4.9593    1.7266   16.9285 H   0  0  0  0  0  0  0  0  0  0  0  0
    5.4576    1.2699   17.7781 C   0  0  0  0  0  0  0  0  0  0  0  0
    6.6100    0.6428   17.5191 N   0  0  0  0  0  0  0  0  0  0  0  0
    7.2412    0.0638   18.5507 C   0  0  0  0  0  0  0  0  0  0  0  0
    8.1613   -0.4642   18.3042 H   0  0  0  0  0  0  0  0  0  0  0  0
    6.7876    0.0990   19.8873 C   0  0  0  0  0  0  0  0  0  0  0  0
    7.5227   -0.5871   21.0626 C   0  0  0  0  0  0  0  0  0  0  0  0
    6.6763   -1.7695   21.5706 C   0  0  0  0  0  0  0  0  0  0  0  0
    5.6607   -1.4471   21.8025 H   0  0  0  0  0  0  0  0  0  0  0  0
    6.6057   -2.5378   20.7914 H   0  0  0  0  0  0  0  0  0  0  0  0
    7.1265   -2.2159   22.4639 H   0  0  0  0  0  0  0  0  0  0  0  0
    8.9364   -1.0954   20.6987 C   0  0  0  0  0  0  0  0  0  0  0  0
    8.8716   -1.8492   19.9131 H   0  0  0  0  0  0  0  0  0  0  0  0
    9.6010   -0.3162   20.3240 H   0  0  0  0  0  0  0  0  0  0  0  0
    9.4261   -1.5566   21.5601 H   0  0  0  0  0  0  0  0  0  0  0  0
    7.7349    0.6208   22.5199 S   0  0  0  0  0  0  0  0  0  0  0  0
    6.4356    1.1515   22.9411 O   0  0  0  0  0  0  0  0  0  0  0  0
    8.6157   -0.0087   23.5030 O   0  0  0  0  0  0  0  0  0  0  0  0
    8.6212    1.9338   21.6723 C   0  0  0  0  0  0  0  0  0  0  0  0
    7.8883    2.3502   20.9802 H   0  0  0  0  0  0  0  0  0  0  0  0
    9.4272    1.4401   21.1376 H   0  0  0  0  0  0  0  0  0  0  0  0
    9.1618    2.9552   22.6161 C   0  0  0  0  0  0  0  0  0  0  0  0
    8.3074    3.9688   23.0643 C   0  0  0  0  0  0  0  0  0  0  0  0
    7.3094    4.0230   22.6368 H   0  0  0  0  0  0  0  0  0  0  0  0
    8.7170    4.8798   24.0379 C   0  0  0  0  0  0  0  0  0  0  0  0
    8.0287    5.6479   24.3776 H   0  0  0  0  0  0  0  0  0  0  0  0
   10.0127    4.7944   24.5606 C   0  0  0  0  0  0  0  0  0  0  0  0
   10.3296    5.4813   25.3400 H   0  0  0  0  0  0  0  0  0  0  0  0
   10.9026    3.8243   24.0901 C   0  0  0  0  0  0  0  0  0  0  0  0
   11.9201    3.7566   24.4632 H   0  0  0  0  0  0  0  0  0  0  0  0
   10.4778    2.9221   23.1121 C   0  0  0  0  0  0  0  0  0  0  0  0
   11.6354    1.7567   22.5138 Cl  0  0  0  0  0  0  0  0  0  0  0  0
    5.5607    0.7492   20.1213 C   0  0  0  0  0  0  0  0  0  0  0  0
    5.1523    0.7938   21.1319 H   0  0  0  0  0  0  0  0  0  0  0  0
    4.8900    1.3426   19.0538 C   0  0  0  0  0  0  0  0  0  0  0  0
    3.9397    1.8402   19.2012 H   0  0  0  0  0  0  0  0  0  0  0  0
  1  2  1  0
  2  3  2  0
  3  4  1  0
  4  5  1  0
  4  6  2  0
  6  7  1  0
  7  8  1  0
  8  9  1  0
  8 10  1  0
  8 11  1  0
  7 12  1  0
 12 13  1  0
 12 14  1  0
 12 15  1  0
  7 16  1  0
 16 17  2  0
 16 18  2  0
 16 19  1  0
 19 20  1  0
 19 21  1  0
 19 22  1  0
 22 23  2  0
 23 24  1  0
 23 25  1  0
 25 26  1  0
 25 27  2  0
 27 28  1  0
 27 29  1  0
 29 30  1  0
 29 31  2  0
 31 32  1  0
  6 33  1  0
 33 34  1  0
 33 35  2  0
 35 36  1  0
 35  2  1  0
 31 22  1  0
M  END
>  <cnnaffinity>  (1) 
-5.05563

>  <filename>  (1) 
CC(C)(c1cccnc1)S(=O)(=O)Cc1ccccc1Cl

$$$$
