
     RDKit          3D

 45 48  0  0  0  0  0  0  0  0999 V2000
    4.9516    1.8811   16.8835 H   0  0  0  0  0  0  0  0  0  0  0  0
    5.4072    1.3481   17.7161 C   0  0  0  0  0  0  0  0  0  0  0  0
    6.5587    0.7140   17.4547 N   0  0  0  0  0  0  0  0  0  0  0  0
    7.1475    0.0676   18.4699 C   0  0  0  0  0  0  0  0  0  0  0  0
    8.0749   -0.4430   18.2144 H   0  0  0  0  0  0  0  0  0  0  0  0
    6.6495    0.0057   19.7848 C   0  0  0  0  0  0  0  0  0  0  0  0
    7.3586   -0.7831   20.8735 C   0  0  1  0  0  0  0  0  0  0  0  0
    6.9616   -1.8071   20.8361 H   0  0  0  0  0  0  0  0  0  0  0  0
    8.9166   -0.8988   20.7599 C   0  0  0  0  0  0  0  0  0  0  0  0
    9.2586   -1.6468   20.0438 H   0  0  0  0  0  0  0  0  0  0  0  0
    9.3234    0.0760   20.4692 H   0  0  0  0  0  0  0  0  0  0  0  0
    9.3088   -1.2200   22.1762 C   0  0  0  0  0  0  0  0  0  0  0  0
   10.3423   -1.7729   22.7854 N   0  0  0  0  0  0  0  0  0  0  0  0
    9.9398   -1.8143   24.0836 N   0  0  0  0  0  0  0  0  0  0  0  0
   10.6123   -2.0873   24.7916 H   0  0  0  0  0  0  0  0  0  0  0  0
    8.6983   -1.2804   24.2999 C   0  0  0  0  0  0  0  0  0  0  0  0
    7.9053   -1.3426   25.5397 C   0  0  0  0  0  0  0  0  0  0  0  0
    7.8440   -2.5267   26.2989 C   0  0  0  0  0  0  0  0  0  0  0  0
    8.5122   -3.3537   26.0718 H   0  0  0  0  0  0  0  0  0  0  0  0
    6.9177   -2.6560   27.3140 C   0  0  0  0  0  0  0  0  0  0  0  0
    6.7935   -3.5925   27.8477 H   0  0  0  0  0  0  0  0  0  0  0  0
    6.1154   -1.5651   27.6925 C   0  0  0  0  0  0  0  0  0  0  0  0
    5.3960   -1.7695   28.8264 O   0  0  0  0  0  0  0  0  0  0  0  0
    4.4437   -0.8026   29.2758 C   0  0  0  0  0  0  0  0  0  0  0  0
    4.8544    0.2111   29.1404 H   0  0  0  0  0  0  0  0  0  0  0  0
    4.2570   -1.0401   30.7676 C   0  0  0  0  0  0  0  0  0  0  0  0
    5.1948   -0.8626   31.3056 H   0  0  0  0  0  0  0  0  0  0  0  0
    3.4973   -0.3608   31.1717 H   0  0  0  0  0  0  0  0  0  0  0  0
    3.9369   -2.0702   30.9614 H   0  0  0  0  0  0  0  0  0  0  0  0
    3.1667   -0.9853   28.4660 C   0  0  0  0  0  0  0  0  0  0  0  0
    2.3749   -0.3042   28.7975 H   0  0  0  0  0  0  0  0  0  0  0  0
    3.3605   -0.8071   27.4023 H   0  0  0  0  0  0  0  0  0  0  0  0
    2.8145   -2.0180   28.5805 H   0  0  0  0  0  0  0  0  0  0  0  0
    6.1528   -0.3780   26.9453 C   0  0  0  0  0  0  0  0  0  0  0  0
    5.4804    0.4473   27.1589 H   0  0  0  0  0  0  0  0  0  0  0  0
    7.0499   -0.2828   25.8790 C   0  0  0  0  0  0  0  0  0  0  0  0
    7.0951    0.6333   25.2971 H   0  0  0  0  0  0  0  0  0  0  0  0
    8.2872   -0.8659   23.0565 C   0  0  0  0  0  0  0  0  0  0  0  0
    7.1296   -0.2655   22.3244 C   0  0  0  0  0  0  0  0  0  0  0  0
    7.1954    0.8320   22.3161 H   0  0  0  0  0  0  0  0  0  0  0  0
    6.1534   -0.5357   22.7403 H   0  0  0  0  0  0  0  0  0  0  0  0
    5.4204    0.6513   20.0185 C   0  0  0  0  0  0  0  0  0  0  0  0
    4.9550    0.6231   21.0057 H   0  0  0  0  0  0  0  0  0  0  0  0
    4.7975    1.3354   18.9732 C   0  0  0  0  0  0  0  0  0  0  0  0
    3.8632    1.8663   19.1236 H   0  0  0  0  0  0  0  0  0  0  0  0
  1  2  1  0
  2  3  2  0
  3  4  1  0
  4  5  1  0
  4  6  2  0
  6  7  1  0
  7  8  1  1
  7  9  1  0
  9 10  1  0
  9 11  1  0
  9 12  1  0
 12 13  2  0
 13 14  1  0
 14 15  1  0
 14 16  1  0
 16 17  1  0
 17 18  2  0
 18 19  1  0
 18 20  1  0
 20 21  1  0
 20 22  2  0
 22 23  1  0
 23 24  1  0
 24 25  1  0
 24 26  1  0
 26 27  1  0
 26 28  1  0
 26 29  1  0
 24 30  1  0
 30 31  1  0
 30 32  1  0
 30 33  1  0
 22 34  1  0
 34 35  1  0
 34 36  2  0
 36 37  1  0
 16 38  2  0
 38 39  1  0
 39 40  1  0
 39 41  1  0
  6 42  1  0
 42 43  1  0
 42 44  2  0
 44 45  1  0
 44  2  1  0
 39  7  1  0
 38 12  1  0
 36 17  1  0
M  END
>  <cnnaffinity>  (1) 
-5.24275

>  <filename>  (1) 
CC(C)Oc1ccc(-c2[nH]nc3c2C[C@@H](c2cccnc2)C3)cc1

$$$$
