
     RDKit          3D

 38 40  0  0  0  0  0  0  0  0999 V2000
    4.9306    1.8185   16.9803 H   0  0  0  0  0  0  0  0  0  0  0  0
    5.3923    1.2958   17.8166 C   0  0  0  0  0  0  0  0  0  0  0  0
    6.5471    0.6582   17.5585 N   0  0  0  0  0  0  0  0  0  0  0  0
    7.1710    0.0402   18.5712 C   0  0  0  0  0  0  0  0  0  0  0  0
    8.1203   -0.4480   18.3504 H   0  0  0  0  0  0  0  0  0  0  0  0
    6.6571    0.0037   19.8826 C   0  0  0  0  0  0  0  0  0  0  0  0
    7.3328   -0.6802   20.9446 N   0  0  0  0  0  0  0  0  0  0  0  0
    6.7349   -1.6204   21.7770 C   0  0  0  0  0  0  0  0  0  0  0  0
    5.6849   -1.8426   21.6549 H   0  0  0  0  0  0  0  0  0  0  0  0
    7.6698   -2.0869   22.6471 C   0  0  0  0  0  0  0  0  0  0  0  0
    7.5560   -3.0373   23.7674 C   0  0  0  0  0  0  0  0  0  0  0  0
    6.2802   -3.2845   24.3094 C   0  0  0  0  0  0  0  0  0  0  0  0
    5.4220   -2.7449   23.9164 H   0  0  0  0  0  0  0  0  0  0  0  0
    6.1095   -4.1852   25.3553 C   0  0  0  0  0  0  0  0  0  0  0  0
    5.1090   -4.3591   25.7356 H   0  0  0  0  0  0  0  0  0  0  0  0
    7.1954   -4.8691   25.9244 C   0  0  0  0  0  0  0  0  0  0  0  0
    6.9847   -5.8294   27.0974 C   0  0  0  0  0  0  0  0  0  0  0  0
    7.9561   -6.2869   27.3386 H   0  0  0  0  0  0  0  0  0  0  0  0
    5.9753   -6.9537   26.8093 C   0  0  0  0  0  0  0  0  0  0  0  0
    6.2776   -7.6419   26.0261 H   0  0  0  0  0  0  0  0  0  0  0  0
    5.0027   -6.5394   26.5240 H   0  0  0  0  0  0  0  0  0  0  0  0
    5.8268   -7.5416   27.7237 H   0  0  0  0  0  0  0  0  0  0  0  0
    6.4936   -5.1022   28.3638 C   0  0  0  0  0  0  0  0  0  0  0  0
    5.5039   -4.6486   28.2122 H   0  0  0  0  0  0  0  0  0  0  0  0
    6.4107   -5.7967   29.2096 H   0  0  0  0  0  0  0  0  0  0  0  0
    7.1967   -4.3276   28.6513 H   0  0  0  0  0  0  0  0  0  0  0  0
    8.4709   -4.6094   25.3870 C   0  0  0  0  0  0  0  0  0  0  0  0
    9.3307   -5.1206   25.8112 H   0  0  0  0  0  0  0  0  0  0  0  0
    8.6566   -3.7145   24.3318 C   0  0  0  0  0  0  0  0  0  0  0  0
    9.6624   -3.5529   23.9463 H   0  0  0  0  0  0  0  0  0  0  0  0
    8.8378   -1.4050   22.3140 N   0  0  0  0  0  0  0  0  0  0  0  0
    9.7249   -1.3765   22.7821 H   0  0  0  0  0  0  0  0  0  0  0  0
    8.6408   -0.4842   21.3372 C   0  0  0  0  0  0  0  0  0  0  0  0
    9.7693    0.6249   20.8387 S   0  0  0  0  0  0  0  0  0  0  0  0
    5.4438    0.6539   20.1330 C   0  0  0  0  0  0  0  0  0  0  0  0
    5.0379    0.6485   21.1434 H   0  0  0  0  0  0  0  0  0  0  0  0
    4.7987    1.3167   19.0840 C   0  0  0  0  0  0  0  0  0  0  0  0
    3.8679    1.8560   19.2425 H   0  0  0  0  0  0  0  0  0  0  0  0
  1  2  1  0
  2  3  2  0
  3  4  1  0
  4  5  1  0
  4  6  2  0
  6  7  1  0
  7  8  1  0
  8  9  1  0
  8 10  2  0
 10 11  1  0
 11 12  2  0
 12 13  1  0
 12 14  1  0
 14 15  1  0
 14 16  2  0
 16 17  1  0
 17 18  1  0
 17 19  1  0
 19 20  1  0
 19 21  1  0
 19 22  1  0
 17 23  1  0
 23 24  1  0
 23 25  1  0
 23 26  1  0
 16 27  1  0
 27 28  1  0
 27 29  2  0
 29 30  1  0
 10 31  1  0
 31 32  1  0
 31 33  1  0
 33 34  2  0
  6 35  1  0
 35 36  1  0
 35 37  2  0
 37 38  1  0
 37  2  1  0
 33  7  1  0
 29 11  1  0
M  END
>  <cnnaffinity>  (1) 
-5.51512

>  <filename>  (1) 
CC(C)c1ccc(-c2cn(-c3cccnc3)c(=S)[nH]2)cc1

$$$$
