
     RDKit          3D

 41 42  0  0  0  0  0  0  0  0999 V2000
    4.9762    1.8613   16.8174 H   0  0  0  0  0  0  0  0  0  0  0  0
    5.4035    1.4052   17.7043 C   0  0  0  0  0  0  0  0  0  0  0  0
    6.5579    0.7423   17.5216 N   0  0  0  0  0  0  0  0  0  0  0  0
    7.0974    0.1387   18.5916 C   0  0  0  0  0  0  0  0  0  0  0  0
    8.0145   -0.4250   18.4218 H   0  0  0  0  0  0  0  0  0  0  0  0
    6.5468    0.1745   19.9004 C   0  0  0  0  0  0  0  0  0  0  0  0
    7.0785   -0.5415   21.0027 N   0  0  0  0  0  0  0  0  0  0  0  0
    7.6802   -1.8431   20.7486 C   0  0  0  0  0  0  0  0  0  0  0  0
    8.7100   -1.7659   20.3474 H   0  0  0  0  0  0  0  0  0  0  0  0
    7.0612   -2.3279   19.9855 H   0  0  0  0  0  0  0  0  0  0  0  0
    7.6733   -2.7224   21.9977 C   0  0  0  0  0  0  0  0  0  0  0  0
    8.2525   -3.6327   21.7953 H   0  0  0  0  0  0  0  0  0  0  0  0
    6.6330   -3.0320   22.1709 H   0  0  0  0  0  0  0  0  0  0  0  0
    8.1881   -2.0140   23.2669 C   0  0  0  0  0  0  0  0  0  0  0  0
    9.2714   -1.8222   23.1622 H   0  0  0  0  0  0  0  0  0  0  0  0
    7.9733   -2.9006   24.5043 C   0  0  0  0  0  0  0  0  0  0  0  0
    6.8977   -3.1064   24.6006 H   0  0  0  0  0  0  0  0  0  0  0  0
    8.2469   -2.3467   25.4138 H   0  0  0  0  0  0  0  0  0  0  0  0
    8.7573   -4.2149   24.4477 C   0  0  0  0  0  0  0  0  0  0  0  0
    8.3467   -4.8619   23.6560 H   0  0  0  0  0  0  0  0  0  0  0  0
    9.7888   -3.9895   24.1386 H   0  0  0  0  0  0  0  0  0  0  0  0
    8.8252   -5.0372   25.7447 C   0  0  0  0  0  0  0  0  0  0  0  0
    9.2031   -4.3782   26.5445 H   0  0  0  0  0  0  0  0  0  0  0  0
    9.8438   -6.1661   25.5364 C   0  0  0  0  0  0  0  0  0  0  0  0
    9.6526   -6.6996   24.5991 H   0  0  0  0  0  0  0  0  0  0  0  0
    9.8407   -6.9002   26.3463 H   0  0  0  0  0  0  0  0  0  0  0  0
   10.8581   -5.7622   25.4483 H   0  0  0  0  0  0  0  0  0  0  0  0
    7.4494   -5.5464   26.1943 C   0  0  0  0  0  0  0  0  0  0  0  0
    7.0056   -6.2317   25.4606 H   0  0  0  0  0  0  0  0  0  0  0  0
    6.7500   -4.7139   26.3308 H   0  0  0  0  0  0  0  0  0  0  0  0
    7.5089   -6.0763   27.1524 H   0  0  0  0  0  0  0  0  0  0  0  0
    7.5044   -0.6425   23.4081 C   0  0  0  0  0  0  0  0  0  0  0  0
    6.4329   -0.7858   23.5943 H   0  0  0  0  0  0  0  0  0  0  0  0
    7.9119   -0.0921   24.2678 H   0  0  0  0  0  0  0  0  0  0  0  0
    7.6658    0.1828   22.1294 C   0  0  0  0  0  0  0  0  0  0  0  0
    7.1708    1.1543   22.2277 H   0  0  0  0  0  0  0  0  0  0  0  0
    8.7440    0.3830   21.9705 H   0  0  0  0  0  0  0  0  0  0  0  0
    5.3571    0.9087   20.0663 C   0  0  0  0  0  0  0  0  0  0  0  0
    4.9119    0.9660   21.0597 H   0  0  0  0  0  0  0  0  0  0  0  0
    4.7659    1.5055   18.9475 C   0  0  0  0  0  0  0  0  0  0  0  0
    3.8294    2.0466   19.0265 H   0  0  0  0  0  0  0  0  0  0  0  0
  1  2  1  0
  2  3  2  0
  3  4  1  0
  4  5  1  0
  4  6  2  0
  6  7  1  0
  7  8  1  0
  8  9  1  0
  8 10  1  0
  8 11  1  0
 11 12  1  0
 11 13  1  0
 11 14  1  0
 14 15  1  0
 14 16  1  0
 16 17  1  0
 16 18  1  0
 16 19  1  0
 19 20  1  0
 19 21  1  0
 19 22  1  0
 22 23  1  0
 22 24  1  0
 24 25  1  0
 24 26  1  0
 24 27  1  0
 22 28  1  0
 28 29  1  0
 28 30  1  0
 28 31  1  0
 14 32  1  0
 32 33  1  0
 32 34  1  0
 32 35  1  0
 35 36  1  0
 35 37  1  0
  6 38  1  0
 38 39  1  0
 38 40  2  0
 40 41  1  0
 40  2  1  0
 35  7  1  0
M  END
>  <cnnaffinity>  (1) 
-4.66461

>  <filename>  (1) 
CC(C)CCC1CCN(c2cccnc2)CC1

$$$$
