
     RDKit          3D

 43 45  0  0  0  0  0  0  0  0999 V2000
    4.9180    1.8468   16.9148 H   0  0  0  0  0  0  0  0  0  0  0  0
    5.3966    1.3210   17.7392 C   0  0  0  0  0  0  0  0  0  0  0  0
    6.5359    0.6738   17.4411 N   0  0  0  0  0  0  0  0  0  0  0  0
    7.1685    0.0481   18.4427 C   0  0  0  0  0  0  0  0  0  0  0  0
    8.1084   -0.4405   18.2010 H   0  0  0  0  0  0  0  0  0  0  0  0
    6.6910    0.0026   19.7678 C   0  0  0  0  0  0  0  0  0  0  0  0
    7.4141   -0.6924   20.8126 N   0  0  0  0  0  0  0  0  0  0  0  0
    6.7954   -1.7446   21.4620 C   0  0  0  0  0  0  0  0  0  0  0  0
    5.7805   -1.9470   21.1345 H   0  0  0  0  0  0  0  0  0  0  0  0
    7.4023   -2.4639   22.4658 C   0  0  0  0  0  0  0  0  0  0  0  0
    6.7086   -3.5884   23.1566 C   0  0  0  0  0  0  0  0  0  0  0  0
    7.4020   -4.6105   23.8384 C   0  0  0  0  0  0  0  0  0  0  0  0
    8.4857   -4.6700   23.7878 H   0  0  0  0  0  0  0  0  0  0  0  0
    6.7165   -5.5782   24.5744 C   0  0  0  0  0  0  0  0  0  0  0  0
    7.3065   -6.3012   25.1275 H   0  0  0  0  0  0  0  0  0  0  0  0
    5.3105   -5.5941   24.6635 C   0  0  0  0  0  0  0  0  0  0  0  0
    4.5558   -6.7242   25.3959 C   0  0  0  0  0  0  0  0  0  0  0  0
    4.4201   -7.9320   24.4355 C   0  0  0  0  0  0  0  0  0  0  0  0
    3.8269   -8.7306   24.9026 H   0  0  0  0  0  0  0  0  0  0  0  0
    5.3933   -8.3429   24.1530 H   0  0  0  0  0  0  0  0  0  0  0  0
    3.9211   -7.6289   23.5070 H   0  0  0  0  0  0  0  0  0  0  0  0
    5.2708   -7.1594   26.6982 C   0  0  0  0  0  0  0  0  0  0  0  0
    5.2631   -6.3689   27.4602 H   0  0  0  0  0  0  0  0  0  0  0  0
    4.7689   -8.0377   27.1231 H   0  0  0  0  0  0  0  0  0  0  0  0
    6.3141   -7.4265   26.5296 H   0  0  0  0  0  0  0  0  0  0  0  0
    3.1247   -6.3108   25.8007 C   0  0  0  0  0  0  0  0  0  0  0  0
    2.4924   -6.1295   24.9231 H   0  0  0  0  0  0  0  0  0  0  0  0
    3.1291   -5.4029   26.4159 H   0  0  0  0  0  0  0  0  0  0  0  0
    2.6668   -7.1216   26.3799 H   0  0  0  0  0  0  0  0  0  0  0  0
    4.6275   -4.5822   23.9645 C   0  0  0  0  0  0  0  0  0  0  0  0
    3.5480   -4.4903   24.0392 H   0  0  0  0  0  0  0  0  0  0  0  0
    5.3064   -3.6365   23.2042 C   0  0  0  0  0  0  0  0  0  0  0  0
    4.7086   -2.9269   22.6477 H   0  0  0  0  0  0  0  0  0  0  0  0
    8.6964   -2.0259   22.8966 C   0  0  0  0  0  0  0  0  0  0  0  0
    9.1650   -2.5223   23.7458 H   0  0  0  0  0  0  0  0  0  0  0  0
    9.3193   -0.9769   22.2954 C   0  0  0  0  0  0  0  0  0  0  0  0
   10.2854   -0.6011   22.5887 H   0  0  0  0  0  0  0  0  0  0  0  0
    8.7364   -0.2563   21.1763 C   0  0  0  0  0  0  0  0  0  0  0  0
    9.3078    0.6439   20.5848 O   0  0  0  0  0  0  0  0  0  0  0  0
    5.4927    0.6676   20.0585 C   0  0  0  0  0  0  0  0  0  0  0  0
    5.1215    0.6734   21.0855 H   0  0  0  0  0  0  0  0  0  0  0  0
    4.8333    1.3420   19.0210 C   0  0  0  0  0  0  0  0  0  0  0  0
    3.9129    1.8943   19.1947 H   0  0  0  0  0  0  0  0  0  0  0  0
  1  2  1  0
  2  3  2  0
  3  4  1  0
  4  5  1  0
  4  6  2  0
  6  7  1  0
  7  8  1  0
  8  9  1  0
  8 10  2  0
 10 11  1  0
 11 12  2  0
 12 13  1  0
 12 14  1  0
 14 15  1  0
 14 16  2  0
 16 17  1  0
 17 18  1  0
 18 19  1  0
 18 20  1  0
 18 21  1  0
 17 22  1  0
 22 23  1  0
 22 24  1  0
 22 25  1  0
 17 26  1  0
 26 27  1  0
 26 28  1  0
 26 29  1  0
 16 30  1  0
 30 31  1  0
 30 32  2  0
 32 33  1  0
 10 34  1  0
 34 35  1  0
 34 36  2  0
 36 37  1  0
 36 38  1  0
 38 39  2  0
  6 40  1  0
 40 41  1  0
 40 42  2  0
 42 43  1  0
 42  2  1  0
 38  7  1  0
 32 11  1  0
M  END
>  <cnnaffinity>  (1) 
-5.6119

>  <filename>  (1) 
CC(C)(C)c1ccc(-c2ccc(=O)n(-c3cccnc3)c2)cc1

$$$$
