
     RDKit          3D

 37 39  0  0  0  0  0  0  0  0999 V2000
    4.9555    1.8036   16.9761 H   0  0  0  0  0  0  0  0  0  0  0  0
    5.4040    1.2982   17.8304 C   0  0  0  0  0  0  0  0  0  0  0  0
    6.5603    0.6635   17.5889 N   0  0  0  0  0  0  0  0  0  0  0  0
    7.1453    0.0389   18.6195 C   0  0  0  0  0  0  0  0  0  0  0  0
    8.0998   -0.4371   18.3976 H   0  0  0  0  0  0  0  0  0  0  0  0
    6.6130   -0.0160   19.9149 C   0  0  0  0  0  0  0  0  0  0  0  0
    7.3412   -0.7261   20.9797 C   0  0  0  0  0  0  0  0  0  0  0  0
    6.7281   -1.6221   21.7570 N   0  0  0  0  0  0  0  0  0  0  0  0
    7.7030   -2.0295   22.5777 N   0  0  0  0  0  0  0  0  0  0  0  0
    8.8890   -1.4554   22.3664 C   0  0  0  0  0  0  0  0  0  0  0  0
    8.7227   -0.5656   21.3290 C   0  0  0  0  0  0  0  0  0  0  0  0
    9.7498    0.4219   20.8511 C   0  0  0  0  0  0  0  0  0  0  0  0
   10.7500   -0.0138   20.9708 H   0  0  0  0  0  0  0  0  0  0  0  0
    9.5871    0.5864   19.7803 H   0  0  0  0  0  0  0  0  0  0  0  0
    9.7263    1.8014   21.5499 C   0  0  0  0  0  0  0  0  0  0  0  0
   10.5374    2.3825   21.0819 H   0  0  0  0  0  0  0  0  0  0  0  0
    9.9940    1.7331   23.0604 C   0  0  0  0  0  0  0  0  0  0  0  0
   10.9393    1.2214   23.2925 H   0  0  0  0  0  0  0  0  0  0  0  0
   10.0392    2.7417   23.4929 H   0  0  0  0  0  0  0  0  0  0  0  0
    9.1813    1.1906   23.5618 H   0  0  0  0  0  0  0  0  0  0  0  0
    8.4006    2.5002   21.2455 C   0  0  0  0  0  0  0  0  0  0  0  0
    8.1755    2.3871   20.1812 H   0  0  0  0  0  0  0  0  0  0  0  0
    7.5682    2.0373   21.7920 H   0  0  0  0  0  0  0  0  0  0  0  0
    8.4361    3.5629   21.5141 H   0  0  0  0  0  0  0  0  0  0  0  0
    9.9169   -1.9487   23.3360 C   0  0  0  0  0  0  0  0  0  0  0  0
   10.3143   -1.1140   23.9298 H   0  0  0  0  0  0  0  0  0  0  0  0
   10.7757   -2.3866   22.8143 H   0  0  0  0  0  0  0  0  0  0  0  0
    9.1178   -2.9960   24.1791 C   0  0  0  0  0  0  0  0  0  0  0  0
    9.1281   -2.7436   25.2403 H   0  0  0  0  0  0  0  0  0  0  0  0
    9.5559   -3.9889   24.0693 H   0  0  0  0  0  0  0  0  0  0  0  0
    7.6444   -3.0029   23.6430 C   0  0  0  0  0  0  0  0  0  0  0  0
    6.9040   -2.6963   24.3904 H   0  0  0  0  0  0  0  0  0  0  0  0
    7.3290   -3.9685   23.2334 H   0  0  0  0  0  0  0  0  0  0  0  0
    5.4006    0.6514   20.1499 C   0  0  0  0  0  0  0  0  0  0  0  0
    4.9620    0.6519   21.1508 H   0  0  0  0  0  0  0  0  0  0  0  0
    4.7901    1.3217   19.0877 C   0  0  0  0  0  0  0  0  0  0  0  0
    3.8606    1.8636   19.2162 H   0  0  0  0  0  0  0  0  0  0  0  0
  1  2  1  0
  2  3  2  0
  3  4  1  0
  4  5  1  0
  4  6  2  0
  6  7  1  0
  7  8  2  0
  8  9  1  0
  9 10  1  0
 10 11  2  0
 11 12  1  0
 12 13  1  0
 12 14  1  0
 12 15  1  0
 15 16  1  0
 15 17  1  0
 17 18  1  0
 17 19  1  0
 17 20  1  0
 15 21  1  0
 21 22  1  0
 21 23  1  0
 21 24  1  0
 10 25  1  0
 25 26  1  0
 25 27  1  0
 25 28  1  0
 28 29  1  0
 28 30  1  0
 28 31  1  0
 31 32  1  0
 31 33  1  0
  6 34  1  0
 34 35  1  0
 34 36  2  0
 36 37  1  0
 36  2  1  0
 11  7  1  0
 31  9  1  0
M  END
>  <cnnaffinity>  (1) 
-5.37245

>  <filename>  (1) 
CC(C)Cc1c(-c2cccnc2)nn2c1CCC2

$$$$
