
     RDKit          3D

 38 40  0  0  0  0  0  0  0  0999 V2000
    4.9197    1.8009   16.9764 H   0  0  0  0  0  0  0  0  0  0  0  0
    5.3924    1.2955   17.8167 C   0  0  0  0  0  0  0  0  0  0  0  0
    6.5493    0.6749   17.5549 N   0  0  0  0  0  0  0  0  0  0  0  0
    7.1698    0.0652   18.5770 C   0  0  0  0  0  0  0  0  0  0  0  0
    8.1149   -0.4134   18.3217 H   0  0  0  0  0  0  0  0  0  0  0  0
    6.6833    0.0311   19.9003 C   0  0  0  0  0  0  0  0  0  0  0  0
    7.3603   -0.7251   21.0631 C   0  0  0  0  0  0  0  0  0  0  0  0
    7.3785    0.1547   22.3826 C   0  0  0  0  0  0  0  0  0  0  0  0
    6.8716   -0.2140   23.4270 O   0  0  0  0  0  0  0  0  0  0  0  0
    8.0568    1.3571   22.2716 N   0  0  0  0  0  0  0  0  0  0  0  0
    8.1449    1.7493   21.3506 H   0  0  0  0  0  0  0  0  0  0  0  0
    8.3359    2.2212   23.3477 C   0  0  0  0  0  0  0  0  0  0  0  0
    8.7268    1.6383   24.5799 C   0  0  0  0  0  0  0  0  0  0  0  0
    8.7666    0.5564   24.6361 H   0  0  0  0  0  0  0  0  0  0  0  0
    9.0250    2.4335   25.6702 C   0  0  0  0  0  0  0  0  0  0  0  0
    9.2961    1.9609   26.6103 H   0  0  0  0  0  0  0  0  0  0  0  0
    8.9433    3.8388   25.5570 C   0  0  0  0  0  0  0  0  0  0  0  0
    9.1705    4.9480   26.4438 C   0  0  0  0  0  0  0  0  0  0  0  0
    9.4731    4.9268   27.4717 H   0  0  0  0  0  0  0  0  0  0  0  0
    8.9379    6.0892   25.7411 C   0  0  0  0  0  0  0  0  0  0  0  0
    9.0099    7.1164   26.0705 H   0  0  0  0  0  0  0  0  0  0  0  0
    8.5712    5.7656   24.4516 N   0  0  0  0  0  0  0  0  0  0  0  0
    8.3421    6.4095   23.7164 H   0  0  0  0  0  0  0  0  0  0  0  0
    8.5641    4.3977   24.3030 C   0  0  0  0  0  0  0  0  0  0  0  0
    8.2666    3.6016   23.1798 C   0  0  0  0  0  0  0  0  0  0  0  0
    7.9710    4.0320   22.2233 H   0  0  0  0  0  0  0  0  0  0  0  0
    8.8253   -1.1292   20.7428 C   0  0  0  0  0  0  0  0  0  0  0  0
    8.8623   -1.8650   19.9399 H   0  0  0  0  0  0  0  0  0  0  0  0
    9.4457   -0.2813   20.4292 H   0  0  0  0  0  0  0  0  0  0  0  0
    9.2865   -1.5941   21.6212 H   0  0  0  0  0  0  0  0  0  0  0  0
    6.5475   -2.0243   21.3077 C   0  0  0  0  0  0  0  0  0  0  0  0
    6.5199   -2.6288   20.3949 H   0  0  0  0  0  0  0  0  0  0  0  0
    6.9907   -2.6231   22.1094 H   0  0  0  0  0  0  0  0  0  0  0  0
    5.5136   -1.8019   21.5886 H   0  0  0  0  0  0  0  0  0  0  0  0
    5.4512    0.6618   20.1359 C   0  0  0  0  0  0  0  0  0  0  0  0
    5.0221    0.6385   21.1419 H   0  0  0  0  0  0  0  0  0  0  0  0
    4.8051    1.3136   19.0853 C   0  0  0  0  0  0  0  0  0  0  0  0
    3.8740    1.8396   19.2405 H   0  0  0  0  0  0  0  0  0  0  0  0
  1  2  1  0
  2  3  2  0
  3  4  1  0
  4  5  1  0
  4  6  2  0
  6  7  1  0
  7  8  1  0
  8  9  2  0
  8 10  1  0
 10 11  1  0
 10 12  1  0
 12 13  2  0
 13 14  1  0
 13 15  1  0
 15 16  1  0
 15 17  2  0
 17 18  1  0
 18 19  1  0
 18 20  2  0
 20 21  1  0
 20 22  1  0
 22 23  1  0
 22 24  1  0
 24 25  2  0
 25 26  1  0
  7 27  1  0
 27 28  1  0
 27 29  1  0
 27 30  1  0
  7 31  1  0
 31 32  1  0
 31 33  1  0
 31 34  1  0
  6 35  1  0
 35 36  1  0
 35 37  2  0
 37 38  1  0
 37  2  1  0
 25 12  1  0
 24 17  1  0
M  END
>  <cnnaffinity>  (1) 
-4.65075

>  <filename>  (1) 
CC(C)(C(=O)Nc1ccc2cc[nH]c2c1)c1cccnc1

$$$$
