
     RDKit          3D

 40 42  0  0  0  0  0  0  0  0999 V2000
    4.9243    1.7874   16.9916 H   0  0  0  0  0  0  0  0  0  0  0  0
    5.4006    1.2960   17.8373 C   0  0  0  0  0  0  0  0  0  0  0  0
    6.5618    0.6740   17.5793 N   0  0  0  0  0  0  0  0  0  0  0  0
    7.1728    0.0583   18.5988 C   0  0  0  0  0  0  0  0  0  0  0  0
    8.1118   -0.4399   18.3672 H   0  0  0  0  0  0  0  0  0  0  0  0
    6.6603    0.0022   19.9083 C   0  0  0  0  0  0  0  0  0  0  0  0
    7.3457   -0.6998   20.9542 N   0  0  0  0  0  0  0  0  0  0  0  0
    6.5666   -1.4372   21.8073 N   0  0  0  0  0  0  0  0  0  0  0  0
    7.1293   -2.0844   22.7992 C   0  0  0  0  0  0  0  0  0  0  0  0
    6.2216   -2.8535   23.7191 C   0  0  0  0  0  0  0  0  0  0  0  0
    5.1510   -3.6006   23.1940 C   0  0  0  0  0  0  0  0  0  0  0  0
    5.0013   -3.5817   22.1170 H   0  0  0  0  0  0  0  0  0  0  0  0
    4.3214   -4.3434   24.0284 C   0  0  0  0  0  0  0  0  0  0  0  0
    3.4862   -4.9084   23.6301 H   0  0  0  0  0  0  0  0  0  0  0  0
    4.5304   -4.3530   25.4243 C   0  0  0  0  0  0  0  0  0  0  0  0
    3.6520   -5.1162   26.1368 O   0  0  0  0  0  0  0  0  0  0  0  0
    3.6424   -5.1423   27.5750 C   0  0  0  0  0  0  0  0  0  0  0  0
    4.6714   -5.2744   27.9410 H   0  0  0  0  0  0  0  0  0  0  0  0
    3.0470   -3.8620   28.1555 C   0  0  0  0  0  0  0  0  0  0  0  0
    2.0201   -3.7287   27.7983 H   0  0  0  0  0  0  0  0  0  0  0  0
    3.6254   -2.9739   27.8834 H   0  0  0  0  0  0  0  0  0  0  0  0
    3.0175   -3.9264   29.2497 H   0  0  0  0  0  0  0  0  0  0  0  0
    2.8255   -6.3614   27.9897 C   0  0  0  0  0  0  0  0  0  0  0  0
    1.7903   -6.2748   27.6428 H   0  0  0  0  0  0  0  0  0  0  0  0
    2.8000   -6.4450   29.0819 H   0  0  0  0  0  0  0  0  0  0  0  0
    3.2478   -7.2899   27.5946 H   0  0  0  0  0  0  0  0  0  0  0  0
    5.6023   -3.6205   25.9570 C   0  0  0  0  0  0  0  0  0  0  0  0
    5.7939   -3.6321   27.0255 H   0  0  0  0  0  0  0  0  0  0  0  0
    6.4348   -2.8881   25.1107 C   0  0  0  0  0  0  0  0  0  0  0  0
    7.2942   -2.3640   25.5214 H   0  0  0  0  0  0  0  0  0  0  0  0
    8.6264   -2.0889   23.0270 C   0  0  0  0  0  0  0  0  0  0  0  0
    9.1999   -2.7212   23.9120 O   0  0  0  0  0  0  0  0  0  0  0  0
    9.3719   -1.2591   22.0858 C   0  0  0  0  0  0  0  0  0  0  0  0
   10.4487   -1.2151   22.2143 H   0  0  0  0  0  0  0  0  0  0  0  0
    8.7138   -0.6138   21.1116 C   0  0  0  0  0  0  0  0  0  0  0  0
    9.2131    0.0345   20.3918 H   0  0  0  0  0  0  0  0  0  0  0  0
    5.4413    0.6435   20.1662 C   0  0  0  0  0  0  0  0  0  0  0  0
    5.0341    0.5935   21.1760 H   0  0  0  0  0  0  0  0  0  0  0  0
    4.8138    1.3116   19.1086 C   0  0  0  0  0  0  0  0  0  0  0  0
    3.8802    1.8406   19.2577 H   0  0  0  0  0  0  0  0  0  0  0  0
  1  2  1  0
  2  3  2  0
  3  4  1  0
  4  5  1  0
  4  6  2  0
  6  7  1  0
  7  8  1  0
  8  9  2  0
  9 10  1  0
 10 11  2  0
 11 12  1  0
 11 13  1  0
 13 14  1  0
 13 15  2  0
 15 16  1  0
 16 17  1  0
 17 18  1  0
 17 19  1  0
 19 20  1  0
 19 21  1  0
 19 22  1  0
 17 23  1  0
 23 24  1  0
 23 25  1  0
 23 26  1  0
 15 27  1  0
 27 28  1  0
 27 29  2  0
 29 30  1  0
  9 31  1  0
 31 32  2  0
 31 33  1  0
 33 34  1  0
 33 35  2  0
 35 36  1  0
  6 37  1  0
 37 38  1  0
 37 39  2  0
 39 40  1  0
 39  2  1  0
 35  7  1  0
 29 10  1  0
M  END
>  <cnnaffinity>  (1) 
-5.40057

>  <filename>  (1) 
CC(C)Oc1ccc(-c2nn(-c3cccnc3)ccc2=O)cc1

$$$$
