
     RDKit          3D

 40 43  0  0  0  0  0  0  0  0999 V2000
    4.9347    1.7737   17.0009 H   0  0  0  0  0  0  0  0  0  0  0  0
    5.4098    1.2847   17.8461 C   0  0  0  0  0  0  0  0  0  0  0  0
    6.5733    0.6652   17.5952 N   0  0  0  0  0  0  0  0  0  0  0  0
    7.1773    0.0526   18.6176 C   0  0  0  0  0  0  0  0  0  0  0  0
    8.1247   -0.4318   18.3869 H   0  0  0  0  0  0  0  0  0  0  0  0
    6.6430    0.0177   19.9137 C   0  0  0  0  0  0  0  0  0  0  0  0
    7.3673   -0.6884   20.9661 C   0  0  0  0  0  0  0  0  0  0  0  0
    8.5499   -1.3291   20.7538 N   0  0  0  0  0  0  0  0  0  0  0  0
    8.8034   -1.8184   21.9465 C   0  0  0  0  0  0  0  0  0  0  0  0
    9.9974   -2.8105   22.7294 S   0  0  0  0  0  0  0  0  0  0  0  0
    9.0768   -2.7624   24.2049 C   0  0  0  0  0  0  0  0  0  0  0  0
    9.4603   -3.2801   25.0714 H   0  0  0  0  0  0  0  0  0  0  0  0
    7.9524   -2.0149   24.1236 C   0  0  0  0  0  0  0  0  0  0  0  0
    6.9677   -1.7605   25.2039 C   0  0  0  0  0  0  0  0  0  0  0  0
    6.2340   -0.5594   25.3064 C   0  0  0  0  0  0  0  0  0  0  0  0
    6.3844    0.2031   24.5457 H   0  0  0  0  0  0  0  0  0  0  0  0
    5.3244   -0.3654   26.3412 C   0  0  0  0  0  0  0  0  0  0  0  0
    4.7613    0.5583   26.4072 H   0  0  0  0  0  0  0  0  0  0  0  0
    5.1067   -1.3610   27.3183 C   0  0  0  0  0  0  0  0  0  0  0  0
    4.2056   -1.0459   28.2924 O   0  0  0  0  0  0  0  0  0  0  0  0
    3.7858   -1.9941   29.2902 C   0  0  0  0  0  0  0  0  0  0  0  0
    4.6677   -2.4914   29.7168 H   0  0  0  0  0  0  0  0  0  0  0  0
    2.8370   -3.0355   28.7068 C   0  0  0  0  0  0  0  0  0  0  0  0
    2.4988   -3.7220   29.4921 H   0  0  0  0  0  0  0  0  0  0  0  0
    3.3068   -3.6286   27.9174 H   0  0  0  0  0  0  0  0  0  0  0  0
    1.9513   -2.5457   28.2883 H   0  0  0  0  0  0  0  0  0  0  0  0
    3.1078   -1.2008   30.3991 C   0  0  0  0  0  0  0  0  0  0  0  0
    2.2187   -0.6832   30.0273 H   0  0  0  0  0  0  0  0  0  0  0  0
    3.7782   -0.4608   30.8408 H   0  0  0  0  0  0  0  0  0  0  0  0
    2.7809   -1.8695   31.2020 H   0  0  0  0  0  0  0  0  0  0  0  0
    5.8382   -2.5555   27.2341 C   0  0  0  0  0  0  0  0  0  0  0  0
    5.7074   -3.3339   27.9806 H   0  0  0  0  0  0  0  0  0  0  0  0
    6.7537   -2.7387   26.1929 C   0  0  0  0  0  0  0  0  0  0  0  0
    7.3012   -3.6773   26.1423 H   0  0  0  0  0  0  0  0  0  0  0  0
    7.8383   -1.4854   22.8311 N   0  0  0  0  0  0  0  0  0  0  0  0
    6.8909   -0.7505   22.2045 N   0  0  0  0  0  0  0  0  0  0  0  0
    5.4213    0.6604   20.1699 C   0  0  0  0  0  0  0  0  0  0  0  0
    4.9953    0.6378   21.1794 H   0  0  0  0  0  0  0  0  0  0  0  0
    4.8040    1.3100   19.1074 C   0  0  0  0  0  0  0  0  0  0  0  0
    3.8742    1.8428   19.2532 H   0  0  0  0  0  0  0  0  0  0  0  0
  1  2  1  0
  2  3  2  0
  3  4  1  0
  4  5  1  0
  4  6  2  0
  6  7  1  0
  7  8  1  0
  8  9  2  0
  9 10  1  0
 10 11  1  0
 11 12  1  0
 11 13  2  0
 13 14  1  0
 14 15  2  0
 15 16  1  0
 15 17  1  0
 17 18  1  0
 17 19  2  0
 19 20  1  0
 20 21  1  0
 21 22  1  0
 21 23  1  0
 23 24  1  0
 23 25  1  0
 23 26  1  0
 21 27  1  0
 27 28  1  0
 27 29  1  0
 27 30  1  0
 19 31  1  0
 31 32  1  0
 31 33  2  0
 33 34  1  0
 13 35  1  0
 35 36  1  0
  6 37  1  0
 37 38  1  0
 37 39  2  0
 39 40  1  0
 39  2  1  0
 36  7  2  0
 35  9  1  0
 33 14  1  0
M  END
>  <cnnaffinity>  (1) 
-5.65106

>  <filename>  (1) 
CC(C)Oc1ccc(-c2csc3nc(-c4cccnc4)nn23)cc1

$$$$
