
     RDKit          3D

 41 43  0  0  0  0  0  0  0  0999 V2000
    4.9184    1.8032   16.9722 H   0  0  0  0  0  0  0  0  0  0  0  0
    5.3866    1.3050   17.8188 C   0  0  0  0  0  0  0  0  0  0  0  0
    6.5491    0.6843   17.5590 N   0  0  0  0  0  0  0  0  0  0  0  0
    7.1557    0.0730   18.5839 C   0  0  0  0  0  0  0  0  0  0  0  0
    8.1017   -0.4175   18.3515 H   0  0  0  0  0  0  0  0  0  0  0  0
    6.6465    0.0105   19.8956 C   0  0  0  0  0  0  0  0  0  0  0  0
    7.3706   -0.7121   20.9763 C   0  0  0  0  0  0  0  0  0  0  0  0
    8.7851   -0.5627   21.1322 C   0  0  0  0  0  0  0  0  0  0  0  0
    9.3070    0.1079   20.4465 H   0  0  0  0  0  0  0  0  0  0  0  0
    9.4346   -1.2150   22.1314 C   0  0  0  0  0  0  0  0  0  0  0  0
   10.4998   -1.1444   22.3020 H   0  0  0  0  0  0  0  0  0  0  0  0
    8.7499   -2.0962   23.0731 C   0  0  0  0  0  0  0  0  0  0  0  0
    9.3384   -2.6926   23.9581 O   0  0  0  0  0  0  0  0  0  0  0  0
    7.3353   -2.2170   22.8710 N   0  0  0  0  0  0  0  0  0  0  0  0
    6.5501   -3.0412   23.7649 C   0  0  0  0  0  0  0  0  0  0  0  0
    6.5693   -2.8093   25.1411 C   0  0  0  0  0  0  0  0  0  0  0  0
    7.2030   -2.0122   25.5105 H   0  0  0  0  0  0  0  0  0  0  0  0
    5.8270   -3.6136   26.0167 C   0  0  0  0  0  0  0  0  0  0  0  0
    5.8731   -3.4308   27.0863 H   0  0  0  0  0  0  0  0  0  0  0  0
    5.0584   -4.6740   25.5123 C   0  0  0  0  0  0  0  0  0  0  0  0
    4.3152   -5.5460   26.2555 O   0  0  0  0  0  0  0  0  0  0  0  0
    4.1286   -5.3697   27.6692 C   0  0  0  0  0  0  0  0  0  0  0  0
    5.1044   -5.1620   28.1348 H   0  0  0  0  0  0  0  0  0  0  0  0
    3.5994   -6.6959   28.2077 C   0  0  0  0  0  0  0  0  0  0  0  0
    4.2912   -7.5215   28.0102 H   0  0  0  0  0  0  0  0  0  0  0  0
    3.4538   -6.6266   29.2923 H   0  0  0  0  0  0  0  0  0  0  0  0
    2.6299   -6.9369   27.7552 H   0  0  0  0  0  0  0  0  0  0  0  0
    3.1590   -4.2264   27.9684 C   0  0  0  0  0  0  0  0  0  0  0  0
    2.1869   -4.4269   27.5030 H   0  0  0  0  0  0  0  0  0  0  0  0
    3.0066   -4.1474   29.0515 H   0  0  0  0  0  0  0  0  0  0  0  0
    3.5245   -3.2597   27.6052 H   0  0  0  0  0  0  0  0  0  0  0  0
    5.0408   -4.9095   24.1235 C   0  0  0  0  0  0  0  0  0  0  0  0
    4.4386   -5.7371   23.7604 H   0  0  0  0  0  0  0  0  0  0  0  0
    5.7704   -4.0903   23.2601 C   0  0  0  0  0  0  0  0  0  0  0  0
    5.7814   -4.2653   22.1884 H   0  0  0  0  0  0  0  0  0  0  0  0
    6.7078   -1.5314   21.8509 C   0  0  0  0  0  0  0  0  0  0  0  0
    5.6391   -1.6912   21.7716 H   0  0  0  0  0  0  0  0  0  0  0  0
    5.4238    0.6545   20.1383 C   0  0  0  0  0  0  0  0  0  0  0  0
    5.0064    0.6502   21.1475 H   0  0  0  0  0  0  0  0  0  0  0  0
    4.7942    1.3212   19.0856 C   0  0  0  0  0  0  0  0  0  0  0  0
    3.8644    1.8531   19.2352 H   0  0  0  0  0  0  0  0  0  0  0  0
  1  2  1  0
  2  3  2  0
  3  4  1  0
  4  5  1  0
  4  6  2  0
  6  7  1  0
  7  8  1  0
  8  9  1  0
  8 10  2  0
 10 11  1  0
 10 12  1  0
 12 13  2  0
 12 14  1  0
 14 15  1  0
 15 16  2  0
 16 17  1  0
 16 18  1  0
 18 19  1  0
 18 20  2  0
 20 21  1  0
 21 22  1  0
 22 23  1  0
 22 24  1  0
 24 25  1  0
 24 26  1  0
 24 27  1  0
 22 28  1  0
 28 29  1  0
 28 30  1  0
 28 31  1  0
 20 32  1  0
 32 33  1  0
 32 34  2  0
 34 35  1  0
 14 36  1  0
 36 37  1  0
  6 38  1  0
 38 39  1  0
 38 40  2  0
 40 41  1  0
 40  2  1  0
 36  7  2  0
 34 15  1  0
M  END
>  <cnnaffinity>  (1) 
-5.42911

>  <filename>  (1) 
CC(C)Oc1ccc(-n2cc(-c3cccnc3)ccc2=O)cc1

$$$$
