
     RDKit          3D

 32 33  0  0  0  0  0  0  0  0999 V2000
    5.0374    1.8014   17.0213 H   0  0  0  0  0  0  0  0  0  0  0  0
    5.5346    1.2881   17.8445 C   0  0  0  0  0  0  0  0  0  0  0  0
    6.7076    0.6991   17.5620 N   0  0  0  0  0  0  0  0  0  0  0  0
    7.3435    0.0639   18.5571 C   0  0  0  0  0  0  0  0  0  0  0  0
    8.2863   -0.4217   18.3084 H   0  0  0  0  0  0  0  0  0  0  0  0
    6.8442   -0.0151   19.8708 C   0  0  0  0  0  0  0  0  0  0  0  0
    7.5160   -0.7455   20.9217 N   0  0  0  0  0  0  0  0  0  0  0  0
    8.6848   -0.4444   21.6235 C   0  0  0  0  0  0  0  0  0  0  0  0
    9.4541    0.6099   21.3004 N   0  0  0  0  0  0  0  0  0  0  0  0
    9.0394    1.2403   20.6405 H   0  0  0  0  0  0  0  0  0  0  0  0
   10.8297    0.7934   21.7719 C   0  0  0  0  0  0  0  0  0  0  0  0
   11.3734    2.0871   21.1284 C   0  0  0  0  0  0  0  0  0  0  0  0
   10.7310    2.4529   20.3379 H   0  0  0  0  0  0  0  0  0  0  0  0
   12.3475    1.9464   20.6624 H   0  0  0  0  0  0  0  0  0  0  0  0
   11.4472    2.9307   21.8219 H   0  0  0  0  0  0  0  0  0  0  0  0
   11.6754   -0.4349   21.3765 C   0  0  0  0  0  0  0  0  0  0  0  0
   11.7740   -0.5426   20.2928 H   0  0  0  0  0  0  0  0  0  0  0  0
   11.2101   -1.3460   21.7593 H   0  0  0  0  0  0  0  0  0  0  0  0
   12.6772   -0.3430   21.8125 H   0  0  0  0  0  0  0  0  0  0  0  0
   10.8613    0.9039   23.3037 C   0  0  0  0  0  0  0  0  0  0  0  0
   10.5454   -0.0392   23.7494 H   0  0  0  0  0  0  0  0  0  0  0  0
   10.1922    1.6948   23.6530 H   0  0  0  0  0  0  0  0  0  0  0  0
   11.8802    1.1359   23.6319 H   0  0  0  0  0  0  0  0  0  0  0  0
    8.9117   -1.3010   22.5817 N   0  0  0  0  0  0  0  0  0  0  0  0
    7.8605   -2.1709   22.4831 N   0  0  0  0  0  0  0  0  0  0  0  0
    7.7074   -2.9287   23.1264 H   0  0  0  0  0  0  0  0  0  0  0  0
    6.9870   -1.8850   21.5103 C   0  0  0  0  0  0  0  0  0  0  0  0
    5.6195   -2.7634   21.1534 S   0  0  0  0  0  0  0  0  0  0  0  0
    5.6080    0.5721   20.1468 C   0  0  0  0  0  0  0  0  0  0  0  0
    5.1776    0.4796   21.1436 H   0  0  0  0  0  0  0  0  0  0  0  0
    4.9509    1.2493   19.1140 C   0  0  0  0  0  0  0  0  0  0  0  0
    4.0027    1.7457   19.2838 H   0  0  0  0  0  0  0  0  0  0  0  0
  1  2  1  0
  2  3  2  0
  3  4  1  0
  4  5  1  0
  4  6  2  0
  6  7  1  0
  7  8  1  0
  8  9  1  0
  9 10  1  0
  9 11  1  0
 11 12  1  0
 12 13  1  0
 12 14  1  0
 12 15  1  0
 11 16  1  0
 16 17  1  0
 16 18  1  0
 16 19  1  0
 11 20  1  0
 20 21  1  0
 20 22  1  0
 20 23  1  0
  8 24  2  0
 24 25  1  0
 25 26  1  0
 25 27  1  0
 27 28  2  0
  6 29  1  0
 29 30  1  0
 29 31  2  0
 31 32  1  0
 31  2  1  0
 27  7  1  0
M  END
>  <cnnaffinity>  (1) 
-4.59432

>  <filename>  (1) 
CC(C)(C)Nc1n[nH]c(=S)n1-c1cccnc1

$$$$
