
     RDKit          3D

 32 34  0  0  0  0  0  0  0  0999 V2000
   10.8382   -4.3722   24.6286 C   0  0  0  0  0  0  0  0  0  0  0  0
    9.9477   -3.3885   23.8996 C   0  0  0  0  0  0  0  0  0  0  0  0
    9.3591   -4.0808   22.8687 F   0  0  0  0  0  0  0  0  0  0  0  0
   10.7635   -2.4288   23.3588 F   0  0  0  0  0  0  0  0  0  0  0  0
    8.8382   -2.7022   24.7066 C   0  0  0  0  0  0  0  0  0  0  0  0
    8.7791   -2.9173   26.0836 C   0  0  0  0  0  0  0  0  0  0  0  0
    7.7318   -2.4300   26.8548 C   0  0  0  0  0  0  0  0  0  0  0  0
    6.7057   -1.6844   26.2816 C   0  0  0  0  0  0  0  0  0  0  0  0
    6.7660   -1.3991   24.9217 C   0  0  0  0  0  0  0  0  0  0  0  0
    7.8386   -1.8651   24.1273 C   0  0  0  0  0  0  0  0  0  0  0  0
    7.8348   -1.4275   22.7148 C   0  0  0  0  0  0  0  0  0  0  0  0
    6.8943   -0.7392   22.1336 N   0  0  0  0  0  0  0  0  0  0  0  0
    7.3574   -0.6331   20.8583 C   0  0  0  0  0  0  0  0  0  0  0  0
    6.6090    0.0480   19.8284 C   0  0  0  0  0  0  0  0  0  0  0  0
    5.3949    0.6886   20.0961 C   0  0  0  0  0  0  0  0  0  0  0  0
    4.7761    1.3404   19.0373 C   0  0  0  0  0  0  0  0  0  0  0  0
    5.3891    1.3235   17.7773 C   0  0  0  0  0  0  0  0  0  0  0  0
    6.5479    0.6975   17.5217 N   0  0  0  0  0  0  0  0  0  0  0  0
    7.1432    0.0723   18.5383 C   0  0  0  0  0  0  0  0  0  0  0  0
    8.0892   -0.4313   18.3449 H   0  0  0  0  0  0  0  0  0  0  0  0
    4.9299    1.8359   16.9367 H   0  0  0  0  0  0  0  0  0  0  0  0
    3.8429    1.8695   19.1795 H   0  0  0  0  0  0  0  0  0  0  0  0
    4.9792    0.6793   21.1076 H   0  0  0  0  0  0  0  0  0  0  0  0
    8.5158   -1.1976   20.6521 N   0  0  0  0  0  0  0  0  0  0  0  0
    8.8443   -1.7257   21.8803 O   0  0  0  0  0  0  0  0  0  0  0  0
    5.9811   -0.7933   24.4734 H   0  0  0  0  0  0  0  0  0  0  0  0
    5.8762   -1.3196   26.8822 H   0  0  0  0  0  0  0  0  0  0  0  0
    7.7465   -2.6359   27.9033 H   0  0  0  0  0  0  0  0  0  0  0  0
    9.5524   -3.4921   26.5803 H   0  0  0  0  0  0  0  0  0  0  0  0
   11.2116   -3.9583   25.5619 H   0  0  0  0  0  0  0  0  0  0  0  0
   11.6965   -4.5738   23.9949 H   0  0  0  0  0  0  0  0  0  0  0  0
   10.2757   -5.2852   24.8363 H   0  0  0  0  0  0  0  0  0  0  0  0
  1  2  1  0
  2  3  1  0
  2  4  1  0
  2  5  1  0
  5  6  2  0
  6  7  1  0
  7  8  2  0
  8  9  1  0
  9 10  2  0
 10 11  1  0
 11 12  2  0
 12 13  1  0
 13 14  1  0
 14 15  2  0
 15 16  1  0
 16 17  2  0
 17 18  1  0
 18 19  2  0
 19 20  1  0
 17 21  1  0
 16 22  1  0
 15 23  1  0
 13 24  2  0
 24 25  1  0
  9 26  1  0
  8 27  1  0
  7 28  1  0
  6 29  1  0
  1 30  1  0
  1 31  1  0
  1 32  1  0
 10  5  1  0
 25 11  1  0
 19 14  1  0
M  END
>  <cnnaffinity>  (1) 
-5.31567

>  <filename>  (1) 
CC(F)(F)c1ccccc1-c1nc(-c2cccnc2)no1

$$$$
