
     RDKit          3D

 41 43  0  0  0  0  0  0  0  0999 V2000
    4.9943    1.6350   24.3706 C   0  0  0  0  0  0  0  0  0  0  0  0
    5.2351    0.7822   25.5954 C   0  0  0  0  0  0  0  0  0  0  0  0
    4.0151    0.3481   26.0593 F   0  0  0  0  0  0  0  0  0  0  0  0
    5.7048    1.6132   26.5890 F   0  0  0  0  0  0  0  0  0  0  0  0
    6.1877   -0.4444   25.4677 C   0  0  0  0  0  0  0  0  0  0  0  0
    6.7046   -1.0359   26.6283 C   0  0  0  0  0  0  0  0  0  0  0  0
    7.5083   -2.1751   26.5040 C   0  0  0  0  0  0  0  0  0  0  0  0
    7.7460   -2.6939   25.2391 C   0  0  0  0  0  0  0  0  0  0  0  0
    7.1790   -2.0380   24.1170 C   0  0  0  0  0  0  0  0  0  0  0  0
    7.3378   -2.5273   22.8479 N   0  0  0  0  0  0  0  0  0  0  0  0
    7.8790   -3.8644   22.6090 C   0  0  0  0  0  0  0  0  0  0  0  0
    7.8442   -3.9640   21.0966 C   0  0  0  0  0  0  0  0  0  0  0  0
    6.5626   -3.1974   20.7436 C   0  0  0  0  0  0  0  0  0  0  0  0
    6.6222   -1.9806   21.6787 C   0  0  0  0  0  0  0  0  0  0  0  0
    7.3330   -0.7298   21.0997 C   0  0  0  0  0  0  0  0  0  0  0  0
    6.6388   -0.0300   19.9398 C   0  0  0  0  0  0  0  0  0  0  0  0
    5.4249    0.6487   20.1341 C   0  0  0  0  0  0  0  0  0  0  0  0
    4.8198    1.3064   19.0604 C   0  0  0  0  0  0  0  0  0  0  0  0
    5.4595    1.2756   17.8161 C   0  0  0  0  0  0  0  0  0  0  0  0
    6.6187    0.6366   17.5961 N   0  0  0  0  0  0  0  0  0  0  0  0
    7.1836    0.0146   18.6413 C   0  0  0  0  0  0  0  0  0  0  0  0
    8.1398   -0.4719   18.4382 H   0  0  0  0  0  0  0  0  0  0  0  0
    5.0235    1.7859   16.9605 H   0  0  0  0  0  0  0  0  0  0  0  0
    3.8874    1.8501   19.1758 H   0  0  0  0  0  0  0  0  0  0  0  0
    4.9810    0.6698   21.1306 H   0  0  0  0  0  0  0  0  0  0  0  0
    7.4233   -0.0231   21.9345 H   0  0  0  0  0  0  0  0  0  0  0  0
    8.3527   -1.0061   20.8073 H   0  0  0  0  0  0  0  0  0  0  0  0
    5.6114   -1.6638   21.9478 H   0  0  0  0  0  0  0  0  0  0  0  0
    5.6858   -3.8088   21.0005 H   0  0  0  0  0  0  0  0  0  0  0  0
    6.4543   -2.8981   19.6940 H   0  0  0  0  0  0  0  0  0  0  0  0
    8.7284   -3.4244   20.7369 H   0  0  0  0  0  0  0  0  0  0  0  0
    7.8709   -4.9935   20.7269 H   0  0  0  0  0  0  0  0  0  0  0  0
    8.8935   -3.9901   23.0143 H   0  0  0  0  0  0  0  0  0  0  0  0
    7.2436   -4.6304   23.0780 H   0  0  0  0  0  0  0  0  0  0  0  0
    6.4556   -0.9138   24.2420 N   0  0  0  0  0  0  0  0  0  0  0  0
    8.3372   -3.5856   25.0783 H   0  0  0  0  0  0  0  0  0  0  0  0
    7.9296   -2.6507   27.3907 H   0  0  0  0  0  0  0  0  0  0  0  0
    6.4702   -0.6128   27.5955 H   0  0  0  0  0  0  0  0  0  0  0  0
    5.9206    2.1234   24.0652 H   0  0  0  0  0  0  0  0  0  0  0  0
    4.6160    1.0343   23.5428 H   0  0  0  0  0  0  0  0  0  0  0  0
    4.2534    2.3945   24.6258 H   0  0  0  0  0  0  0  0  0  0  0  0
  1  2  1  0
  2  3  1  0
  2  4  1  0
  2  5  1  0
  5  6  2  0
  6  7  1  0
  7  8  2  0
  8  9  1  0
  9 10  1  0
 10 11  1  0
 11 12  1  0
 12 13  1  0
 13 14  1  0
 14 15  1  0
 15 16  1  0
 16 17  2  0
 17 18  1  0
 18 19  2  0
 19 20  1  0
 20 21  2  0
 21 22  1  0
 19 23  1  0
 18 24  1  0
 17 25  1  0
 15 26  1  0
 15 27  1  0
 14 28  1  0
 13 29  1  0
 13 30  1  0
 12 31  1  0
 12 32  1  0
 11 33  1  0
 11 34  1  0
  9 35  2  0
  8 36  1  0
  7 37  1  0
  6 38  1  0
  1 39  1  0
  1 40  1  0
  1 41  1  0
 35  5  1  0
 14 10  1  0
 21 16  1  0
M  END
>  <cnnaffinity>  (1) 
-4.91996

>  <filename>  (1) 
CC(F)(F)c1cccc(N2CCCC2Cc2cccnc2)n1

$$$$
