
     RDKit          3D

 32 33  0  0  0  0  0  0  0  0999 V2000
    8.7194    0.0138   21.3922 C   0  0  0  0  0  0  0  0  0  0  0  0
    7.3429   -0.6074   21.1671 C   0  0  0  0  0  0  0  0  0  0  0  0
    7.4526   -2.0266   20.8887 N   0  0  0  0  0  0  0  0  0  0  0  0
    7.8519   -3.1754   21.9963 S   0  0  0  0  0  0  0  0  0  0  0  0
    8.9209   -2.7480   22.8708 O   0  0  0  0  0  0  0  0  0  0  0  0
    8.0612   -4.3235   21.1285 O   0  0  0  0  0  0  0  0  0  0  0  0
    6.3046   -3.3138   22.8539 C   0  0  0  0  0  0  0  0  0  0  0  0
    5.3071   -4.1300   22.2909 C   0  0  0  0  0  0  0  0  0  0  0  0
    4.1054   -4.3117   22.9676 C   0  0  0  0  0  0  0  0  0  0  0  0
    3.8734   -3.6832   24.1920 C   0  0  0  0  0  0  0  0  0  0  0  0
    4.8424   -2.8365   24.7330 C   0  0  0  0  0  0  0  0  0  0  0  0
    4.4756   -2.0249   26.2210 Cl  0  0  0  0  0  0  0  0  0  0  0  0
    6.0658   -2.6202   24.0574 C   0  0  0  0  0  0  0  0  0  0  0  0
    7.1885   -1.5027   24.7392 Cl  0  0  0  0  0  0  0  0  0  0  0  0
    2.9528   -3.8469   24.7445 H   0  0  0  0  0  0  0  0  0  0  0  0
    3.3376   -4.9505   22.5450 H   0  0  0  0  0  0  0  0  0  0  0  0
    5.4603   -4.6430   21.3429 H   0  0  0  0  0  0  0  0  0  0  0  0
    8.0005   -2.3171   20.0953 H   0  0  0  0  0  0  0  0  0  0  0  0
    6.5914   -0.0043   20.0061 C   0  0  0  0  0  0  0  0  0  0  0  0
    5.3713    0.6712   20.1576 C   0  0  0  0  0  0  0  0  0  0  0  0
    4.8094    1.3051   19.0487 C   0  0  0  0  0  0  0  0  0  0  0  0
    5.4773    1.2283   17.8232 C   0  0  0  0  0  0  0  0  0  0  0  0
    6.6051    0.5265   17.6415 N   0  0  0  0  0  0  0  0  0  0  0  0
    7.1255   -0.0895   18.7123 C   0  0  0  0  0  0  0  0  0  0  0  0
    8.0362   -0.6577   18.5090 H   0  0  0  0  0  0  0  0  0  0  0  0
    5.0806    1.7370   16.9473 H   0  0  0  0  0  0  0  0  0  0  0  0
    3.8823    1.8619   19.1258 H   0  0  0  0  0  0  0  0  0  0  0  0
    4.8751    0.6968   21.1293 H   0  0  0  0  0  0  0  0  0  0  0  0
    6.7349   -0.4721   22.0724 H   0  0  0  0  0  0  0  0  0  0  0  0
    9.3279   -0.0489   20.4840 H   0  0  0  0  0  0  0  0  0  0  0  0
    8.6330    1.0674   21.6713 H   0  0  0  0  0  0  0  0  0  0  0  0
    9.2345   -0.5341   22.1849 H   0  0  0  0  0  0  0  0  0  0  0  0
  1  2  1  0
  2  3  1  0
  3  4  1  0
  4  5  2  0
  4  6  2  0
  4  7  1  0
  7  8  2  0
  8  9  1  0
  9 10  2  0
 10 11  1  0
 11 12  1  0
 11 13  2  0
 13 14  1  0
 10 15  1  0
  9 16  1  0
  8 17  1  0
  3 18  1  0
  2 19  1  0
 19 20  2  0
 20 21  1  0
 21 22  2  0
 22 23  1  0
 23 24  2  0
 24 25  1  0
 22 26  1  0
 21 27  1  0
 20 28  1  0
  2 29  1  0
  1 30  1  0
  1 31  1  0
  1 32  1  0
 13  7  1  0
 24 19  1  0
M  END
>  <cnnaffinity>  (1) 
-5.38822

>  <filename>  (1) 
CC(NS(=O)(=O)c1cccc(Cl)c1Cl)c1cccnc1

$$$$
