
     RDKit          3D

 38 40  0  0  0  0  0  0  0  0999 V2000
    7.5280   -2.0802   20.8496 C   0  0  0  0  0  0  0  0  0  0  0  0
    7.2380   -0.6190   21.1555 C   0  0  0  0  0  0  0  0  0  0  0  0
    8.5491   -0.0430   21.4389 N   0  0  0  0  0  0  0  0  0  0  0  0
    8.6481    1.3654   22.2731 S   0  0  0  0  0  0  0  0  0  0  0  0
    7.5688    2.2435   21.8674 O   0  0  0  0  0  0  0  0  0  0  0  0
   10.0227    1.7300   21.9895 O   0  0  0  0  0  0  0  0  0  0  0  0
    8.3883    0.8456   23.9429 C   0  0  0  0  0  0  0  0  0  0  0  0
    8.4048   -0.4911   24.3093 C   0  0  0  0  0  0  0  0  0  0  0  0
    8.0921   -0.8660   25.6367 C   0  0  0  0  0  0  0  0  0  0  0  0
    7.7944    0.0790   26.5916 C   0  0  0  0  0  0  0  0  0  0  0  0
    7.7981    1.4673   26.2520 C   0  0  0  0  0  0  0  0  0  0  0  0
    7.5124    2.4728   27.2284 C   0  0  0  0  0  0  0  0  0  0  0  0
    7.5375    3.8047   26.8903 C   0  0  0  0  0  0  0  0  0  0  0  0
    7.8451    4.2017   25.5625 C   0  0  0  0  0  0  0  0  0  0  0  0
    8.1179    3.2617   24.5928 C   0  0  0  0  0  0  0  0  0  0  0  0
    8.1019    1.8696   24.9111 C   0  0  0  0  0  0  0  0  0  0  0  0
    8.3295    3.5698   23.5749 H   0  0  0  0  0  0  0  0  0  0  0  0
    7.8595    5.2562   25.3010 H   0  0  0  0  0  0  0  0  0  0  0  0
    7.3243    4.5634   27.6392 H   0  0  0  0  0  0  0  0  0  0  0  0
    7.2834    2.1522   28.2422 H   0  0  0  0  0  0  0  0  0  0  0  0
    7.5605   -0.2089   27.6151 H   0  0  0  0  0  0  0  0  0  0  0  0
    8.0914   -1.9209   25.8895 H   0  0  0  0  0  0  0  0  0  0  0  0
    8.6536   -1.2817   23.6023 H   0  0  0  0  0  0  0  0  0  0  0  0
    9.0690    0.2846   20.6331 H   0  0  0  0  0  0  0  0  0  0  0  0
    6.5761    0.0989   20.0203 C   0  0  0  0  0  0  0  0  0  0  0  0
    5.3421    0.7390   20.1680 C   0  0  0  0  0  0  0  0  0  0  0  0
    4.7629    1.3419   19.0523 C   0  0  0  0  0  0  0  0  0  0  0  0
    5.4420    1.2900   17.8291 C   0  0  0  0  0  0  0  0  0  0  0  0
    6.6255    0.6786   17.6707 N   0  0  0  0  0  0  0  0  0  0  0  0
    7.1732    0.1131   18.7539 C   0  0  0  0  0  0  0  0  0  0  0  0
    8.1258   -0.3922   18.5783 H   0  0  0  0  0  0  0  0  0  0  0  0
    5.0152    1.7526   16.9410 H   0  0  0  0  0  0  0  0  0  0  0  0
    3.8118    1.8547   19.1229 H   0  0  0  0  0  0  0  0  0  0  0  0
    4.8679    0.7848   21.1513 H   0  0  0  0  0  0  0  0  0  0  0  0
    6.5913   -0.5659   22.0475 H   0  0  0  0  0  0  0  0  0  0  0  0
    6.6778   -2.6069   20.4149 H   0  0  0  0  0  0  0  0  0  0  0  0
    7.8216   -2.5987   21.7634 H   0  0  0  0  0  0  0  0  0  0  0  0
    8.3842   -2.1149   20.1755 H   0  0  0  0  0  0  0  0  0  0  0  0
  1  2  1  0
  2  3  1  0
  3  4  1  0
  4  5  2  0
  4  6  2  0
  4  7  1  0
  7  8  2  0
  8  9  1  0
  9 10  2  0
 10 11  1  0
 11 12  2  0
 12 13  1  0
 13 14  2  0
 14 15  1  0
 15 16  2  0
 15 17  1  0
 14 18  1  0
 13 19  1  0
 12 20  1  0
 10 21  1  0
  9 22  1  0
  8 23  1  0
  3 24  1  0
  2 25  1  0
 25 26  2  0
 26 27  1  0
 27 28  2  0
 28 29  1  0
 29 30  2  0
 30 31  1  0
 28 32  1  0
 27 33  1  0
 26 34  1  0
  2 35  1  0
  1 36  1  0
  1 37  1  0
  1 38  1  0
 16  7  1  0
 30 25  1  0
 16 11  1  0
M  END
>  <cnnaffinity>  (1) 
-4.95041

>  <filename>  (1) 
CC(NS(=O)(=O)c1cccc2ccccc12)c1cccnc1

$$$$
