
     RDKit          3D

 43 46  0  0  0  0  0  0  0  0999 V2000
    4.9441    1.8490   16.9432 H   0  0  0  0  0  0  0  0  0  0  0  0
    5.3902    1.3084   17.7745 C   0  0  0  0  0  0  0  0  0  0  0  0
    6.5387    0.6614   17.5128 N   0  0  0  0  0  0  0  0  0  0  0  0
    7.1299    0.0215   18.5250 C   0  0  0  0  0  0  0  0  0  0  0  0
    8.0643   -0.4904   18.2913 H   0  0  0  0  0  0  0  0  0  0  0  0
    6.6213    0.0129   19.8359 C   0  0  0  0  0  0  0  0  0  0  0  0
    7.3657   -0.6021   20.9352 C   0  0  0  0  0  0  0  0  0  0  0  0
    8.1343   -1.6718   20.7356 N   0  0  0  0  0  0  0  0  0  0  0  0
    8.6589   -1.8941   21.9327 N   0  0  0  0  0  0  0  0  0  0  0  0
    8.3374   -1.0299   22.9027 C   0  0  0  0  0  0  0  0  0  0  0  0
    7.4298   -0.1733   22.3127 C   0  0  0  0  0  0  0  0  0  0  0  0
    6.6798    0.8817   22.9417 N   0  0  0  0  0  0  0  0  0  0  0  0
    7.1244    1.7786   22.7764 H   0  0  0  0  0  0  0  0  0  0  0  0
    6.7205    1.0053   24.6341 S   0  0  0  0  0  0  0  0  0  0  0  0
    6.2223   -0.2070   25.2526 O   0  0  0  0  0  0  0  0  0  0  0  0
    8.0532    1.5270   24.9040 O   0  0  0  0  0  0  0  0  0  0  0  0
    5.5498    2.3154   24.8085 C   0  0  0  0  0  0  0  0  0  0  0  0
    5.7902    3.3987   25.6630 C   0  0  0  0  0  0  0  0  0  0  0  0
    6.7353    3.5032   26.1956 H   0  0  0  0  0  0  0  0  0  0  0  0
    4.8004    4.3724   25.8008 C   0  0  0  0  0  0  0  0  0  0  0  0
    4.9761    5.2166   26.4629 H   0  0  0  0  0  0  0  0  0  0  0  0
    3.5830    4.2939   25.1037 C   0  0  0  0  0  0  0  0  0  0  0  0
    2.5215    5.3459   25.2850 C   0  0  0  0  0  0  0  0  0  0  0  0
    1.8438    5.0785   26.1030 H   0  0  0  0  0  0  0  0  0  0  0  0
    1.9197    5.4618   24.3786 H   0  0  0  0  0  0  0  0  0  0  0  0
    2.9671    6.3163   25.5234 H   0  0  0  0  0  0  0  0  0  0  0  0
    3.3817    3.2096   24.2347 C   0  0  0  0  0  0  0  0  0  0  0  0
    2.4583    3.1365   23.6661 H   0  0  0  0  0  0  0  0  0  0  0  0
    4.3600    2.2358   24.0734 C   0  0  0  0  0  0  0  0  0  0  0  0
    4.2334    1.4456   23.3383 H   0  0  0  0  0  0  0  0  0  0  0  0
    9.1551   -1.3072   24.1345 C   0  0  0  0  0  0  0  0  0  0  0  0
    8.5019   -1.5435   24.9771 H   0  0  0  0  0  0  0  0  0  0  0  0
    9.7444   -0.4284   24.4163 H   0  0  0  0  0  0  0  0  0  0  0  0
   10.0494   -2.5016   23.6989 C   0  0  0  0  0  0  0  0  0  0  0  0
   10.0005   -3.3385   24.3960 H   0  0  0  0  0  0  0  0  0  0  0  0
   11.0826   -2.1876   23.6230 H   0  0  0  0  0  0  0  0  0  0  0  0
    9.6044   -2.9115   22.2755 C   0  0  0  0  0  0  0  0  0  0  0  0
   10.4272   -2.8556   21.5641 H   0  0  0  0  0  0  0  0  0  0  0  0
    9.1280   -3.8927   22.2190 H   0  0  0  0  0  0  0  0  0  0  0  0
    5.4026    0.6611   20.0841 C   0  0  0  0  0  0  0  0  0  0  0  0
    4.9989    0.6580   21.0993 H   0  0  0  0  0  0  0  0  0  0  0  0
    4.7767    1.3171   19.0319 C   0  0  0  0  0  0  0  0  0  0  0  0
    3.8515    1.8628   19.1781 H   0  0  0  0  0  0  0  0  0  0  0  0
  1  2  1  0
  2  3  2  0
  3  4  1  0
  4  5  1  0
  4  6  2  0
  6  7  1  0
  7  8  2  0
  8  9  1  0
  9 10  1  0
 10 11  2  0
 11 12  1  0
 12 13  1  0
 12 14  1  0
 14 15  2  0
 14 16  2  0
 14 17  1  0
 17 18  2  0
 18 19  1  0
 18 20  1  0
 20 21  1  0
 20 22  2  0
 22 23  1  0
 23 24  1  0
 23 25  1  0
 23 26  1  0
 22 27  1  0
 27 28  1  0
 27 29  2  0
 29 30  1  0
 10 31  1  0
 31 32  1  0
 31 33  1  0
 31 34  1  0
 34 35  1  0
 34 36  1  0
 34 37  1  0
 37 38  1  0
 37 39  1  0
  6 40  1  0
 40 41  1  0
 40 42  2  0
 42 43  1  0
 42  2  1  0
 11  7  1  0
 29 17  1  0
 37  9  1  0
M  END
>  <cnnaffinity>  (1) 
-5.55881

>  <filename>  (1) 
Cc1ccc(S(=O)(=O)Nc2c(-c3cccnc3)nn3c2CCC3)cc1

$$$$
