
     RDKit          3D

 39 42  0  0  0  0  0  0  0  0999 V2000
    4.9541    1.8228   16.8942 H   0  0  0  0  0  0  0  0  0  0  0  0
    5.3878    1.3022   17.7448 C   0  0  0  0  0  0  0  0  0  0  0  0
    6.5335    0.6418   17.5146 N   0  0  0  0  0  0  0  0  0  0  0  0
    7.1051    0.0321   18.5560 C   0  0  0  0  0  0  0  0  0  0  0  0
    8.0251   -0.5078   18.3439 H   0  0  0  0  0  0  0  0  0  0  0  0
    6.5877    0.0598   19.8673 C   0  0  0  0  0  0  0  0  0  0  0  0
    7.3491   -0.5467   20.9672 C   0  0  0  0  0  0  0  0  0  0  0  0
    8.2690   -1.4934   20.7475 N   0  0  0  0  0  0  0  0  0  0  0  0
    8.7755   -1.7284   21.9506 N   0  0  0  0  0  0  0  0  0  0  0  0
    8.2876   -0.9789   22.9517 C   0  0  0  0  0  0  0  0  0  0  0  0
    7.2973   -0.2176   22.3560 C   0  0  0  0  0  0  0  0  0  0  0  0
    6.4255    0.6905   22.8995 O   0  0  0  0  0  0  0  0  0  0  0  0
    6.2127    0.6926   24.2686 C   0  0  0  0  0  0  0  0  0  0  0  0
    6.3050    1.9212   24.9250 C   0  0  0  0  0  0  0  0  0  0  0  0
    6.6263    2.7932   24.3644 H   0  0  0  0  0  0  0  0  0  0  0  0
    5.9938    1.9897   26.2828 C   0  0  0  0  0  0  0  0  0  0  0  0
    6.0648    2.9438   26.8008 H   0  0  0  0  0  0  0  0  0  0  0  0
    5.6028    0.8401   26.9782 C   0  0  0  0  0  0  0  0  0  0  0  0
    5.3581    0.9063   28.0355 H   0  0  0  0  0  0  0  0  0  0  0  0
    5.5429   -0.4025   26.3355 C   0  0  0  0  0  0  0  0  0  0  0  0
    5.1428   -1.6563   27.0751 C   0  0  0  0  0  0  0  0  0  0  0  0
    5.6822   -2.5272   26.6853 H   0  0  0  0  0  0  0  0  0  0  0  0
    4.0715   -1.8529   26.9494 H   0  0  0  0  0  0  0  0  0  0  0  0
    5.3470   -1.5814   28.1491 H   0  0  0  0  0  0  0  0  0  0  0  0
    5.8557   -0.4641   24.9685 C   0  0  0  0  0  0  0  0  0  0  0  0
    5.8739   -1.4188   24.4489 H   0  0  0  0  0  0  0  0  0  0  0  0
    8.9995   -1.2956   24.2388 C   0  0  0  0  0  0  0  0  0  0  0  0
    9.3986   -0.3949   24.7148 H   0  0  0  0  0  0  0  0  0  0  0  0
    8.3252   -1.7731   24.9614 H   0  0  0  0  0  0  0  0  0  0  0  0
   10.1322   -2.2414   23.7628 C   0  0  0  0  0  0  0  0  0  0  0  0
   11.0476   -1.6645   23.6518 H   0  0  0  0  0  0  0  0  0  0  0  0
   10.3196   -3.0544   24.4680 H   0  0  0  0  0  0  0  0  0  0  0  0
    9.7434   -2.7240   22.3431 C   0  0  0  0  0  0  0  0  0  0  0  0
   10.5879   -2.6877   21.6550 H   0  0  0  0  0  0  0  0  0  0  0  0
    9.2977   -3.7262   22.3271 H   0  0  0  0  0  0  0  0  0  0  0  0
    5.3616    0.7164   20.0806 C   0  0  0  0  0  0  0  0  0  0  0  0
    4.9051    0.7363   21.0716 H   0  0  0  0  0  0  0  0  0  0  0  0
    4.7590    1.3422   18.9944 C   0  0  0  0  0  0  0  0  0  0  0  0
    3.8258    1.8826   19.1083 H   0  0  0  0  0  0  0  0  0  0  0  0
  1  2  1  0
  2  3  2  0
  3  4  1  0
  4  5  1  0
  4  6  2  0
  6  7  1  0
  7  8  2  0
  8  9  1  0
  9 10  1  0
 10 11  2  0
 11 12  1  0
 12 13  1  0
 13 14  2  0
 14 15  1  0
 14 16  1  0
 16 17  1  0
 16 18  2  0
 18 19  1  0
 18 20  1  0
 20 21  1  0
 21 22  1  0
 21 23  1  0
 21 24  1  0
 20 25  2  0
 25 26  1  0
 10 27  1  0
 27 28  1  0
 27 29  1  0
 27 30  1  0
 30 31  1  0
 30 32  1  0
 30 33  1  0
 33 34  1  0
 33 35  1  0
  6 36  1  0
 36 37  1  0
 36 38  2  0
 38 39  1  0
 38  2  1  0
 11  7  1  0
 25 13  1  0
 33  9  1  0
M  END
>  <cnnaffinity>  (1) 
-5.40772

>  <filename>  (1) 
Cc1cccc(Oc2c(-c3cccnc3)nn3c2CCC3)c1

$$$$
