
     RDKit          3D

 32 34  0  0  0  0  0  0  0  0999 V2000
    5.1640    2.0156   16.3225 H   0  0  0  0  0  0  0  0  0  0  0  0
    5.4057    1.4901   17.2407 C   0  0  0  0  0  0  0  0  0  0  0  0
    6.5212    0.7438   17.2145 N   0  0  0  0  0  0  0  0  0  0  0  0
    6.8655    0.1381   18.3565 C   0  0  0  0  0  0  0  0  0  0  0  0
    7.7555   -0.4901   18.3224 H   0  0  0  0  0  0  0  0  0  0  0  0
    6.1629    0.2593   19.5744 C   0  0  0  0  0  0  0  0  0  0  0  0
    6.6888   -0.3892   20.8157 C   0  0  0  0  0  0  0  0  0  0  0  0
    7.0261   -1.7589   20.8009 C   0  0  0  0  0  0  0  0  0  0  0  0
    6.8626   -2.3297   19.8916 H   0  0  0  0  0  0  0  0  0  0  0  0
    7.5361   -2.4338   21.8360 N   0  0  0  0  0  0  0  0  0  0  0  0
    7.7523   -1.7438   22.9566 C   0  0  0  0  0  0  0  0  0  0  0  0
    8.1425   -2.2950   23.8093 H   0  0  0  0  0  0  0  0  0  0  0  0
    7.4617   -0.3771   23.0994 C   0  0  0  0  0  0  0  0  0  0  0  0
    7.6983    0.1794   24.4506 C   0  0  0  0  0  0  0  0  0  0  0  0
    8.7648   -0.3156   25.0966 N   0  0  0  0  0  0  0  0  0  0  0  0
    8.9608    0.0453   26.3703 C   0  0  0  0  0  0  0  0  0  0  0  0
   10.1306   -0.6025   27.0400 C   0  0  0  0  0  0  0  0  0  0  0  0
   11.0364   -0.3862   26.4656 H   0  0  0  0  0  0  0  0  0  0  0  0
    9.9392   -1.6773   27.0364 H   0  0  0  0  0  0  0  0  0  0  0  0
   10.2682   -0.2915   28.0787 H   0  0  0  0  0  0  0  0  0  0  0  0
    8.0800    0.8778   27.0656 C   0  0  0  0  0  0  0  0  0  0  0  0
    8.2783    1.0683   28.1170 H   0  0  0  0  0  0  0  0  0  0  0  0
    6.9739    1.4097   26.3953 C   0  0  0  0  0  0  0  0  0  0  0  0
    6.2667    2.0699   26.8968 H   0  0  0  0  0  0  0  0  0  0  0  0
    6.7930    1.0601   25.0548 C   0  0  0  0  0  0  0  0  0  0  0  0
    5.9463    1.4016   24.4706 H   0  0  0  0  0  0  0  0  0  0  0  0
    6.9003    0.3106   22.0117 C   0  0  0  0  0  0  0  0  0  0  0  0
    6.6424    1.3750   22.0650 H   0  0  0  0  0  0  0  0  0  0  0  0
    4.9677    0.9937   19.5499 C   0  0  0  0  0  0  0  0  0  0  0  0
    4.3567    1.0601   20.4503 H   0  0  0  0  0  0  0  0  0  0  0  0
    4.5741    1.6105   18.3592 C   0  0  0  0  0  0  0  0  0  0  0  0
    3.6532    2.1826   18.2848 H   0  0  0  0  0  0  0  0  0  0  0  0
  1  2  1  0
  2  3  2  0
  3  4  1  0
  4  5  1  0
  4  6  2  0
  6  7  1  0
  7  8  2  0
  8  9  1  0
  8 10  1  0
 10 11  2  0
 11 12  1  0
 11 13  1  0
 13 14  1  0
 14 15  2  0
 15 16  1  0
 16 17  1  0
 17 18  1  0
 17 19  1  0
 17 20  1  0
 16 21  2  0
 21 22  1  0
 21 23  1  0
 23 24  1  0
 23 25  2  0
 25 26  1  0
 13 27  2  0
 27 28  1  0
  6 29  1  0
 29 30  1  0
 29 31  2  0
 31 32  1  0
 31  2  1  0
 27  7  1  0
 25 14  1  0
M  END
>  <cnnaffinity>  (1) 
-4.77386

>  <filename>  (1) 
Cc1cccc(-c2cncc(-c3cccnc3)c2)n1

$$$$
