
     RDKit          3D

 32 34  0  0  0  0  0  0  0  0999 V2000
    4.9113    1.7952   16.9827 H   0  0  0  0  0  0  0  0  0  0  0  0
    5.3892    1.3037   17.8238 C   0  0  0  0  0  0  0  0  0  0  0  0
    6.5550    0.6895   17.5561 N   0  0  0  0  0  0  0  0  0  0  0  0
    7.1598    0.0646   18.5709 C   0  0  0  0  0  0  0  0  0  0  0  0
    8.1169   -0.4035   18.3393 H   0  0  0  0  0  0  0  0  0  0  0  0
    6.6514    0.0139   19.8850 C   0  0  0  0  0  0  0  0  0  0  0  0
    7.3663   -0.6580   20.9726 C   0  0  0  0  0  0  0  0  0  0  0  0
    7.5093   -0.3263   22.3138 C   0  0  0  0  0  0  0  0  0  0  0  0
    7.0273    0.8328   22.9365 N   0  0  0  0  0  0  0  0  0  0  0  0
    6.9848    1.6572   22.3618 H   0  0  0  0  0  0  0  0  0  0  0  0
    6.8204    1.0323   24.2859 C   0  0  0  0  0  0  0  0  0  0  0  0
    6.3646   -0.0131   25.0869 C   0  0  0  0  0  0  0  0  0  0  0  0
    6.1777   -0.9789   24.6437 H   0  0  0  0  0  0  0  0  0  0  0  0
    6.1665    0.2470   26.4259 C   0  0  0  0  0  0  0  0  0  0  0  0
    5.8163   -0.5489   27.0762 H   0  0  0  0  0  0  0  0  0  0  0  0
    6.3701    1.4322   27.0090 N   0  0  0  0  0  0  0  0  0  0  0  0
    6.7983    2.4330   26.2327 C   0  0  0  0  0  0  0  0  0  0  0  0
    7.0134    3.7650   26.8951 C   0  0  0  0  0  0  0  0  0  0  0  0
    6.8660    3.7028   27.9734 H   0  0  0  0  0  0  0  0  0  0  0  0
    8.0200    4.1397   26.7000 H   0  0  0  0  0  0  0  0  0  0  0  0
    6.3164    4.5047   26.4952 H   0  0  0  0  0  0  0  0  0  0  0  0
    7.0240    2.2830   24.8624 C   0  0  0  0  0  0  0  0  0  0  0  0
    7.3770    3.1212   24.2776 H   0  0  0  0  0  0  0  0  0  0  0  0
    8.2859   -1.3791   22.8602 C   0  0  0  0  0  0  0  0  0  0  0  0
    8.6219   -1.4600   23.8832 H   0  0  0  0  0  0  0  0  0  0  0  0
    8.6049   -2.2897   21.9478 N   0  0  0  0  0  0  0  0  0  0  0  0
    8.0484   -1.8240   20.8199 N   0  0  0  0  0  0  0  0  0  0  0  0
    8.1336   -2.3590   19.9724 H   0  0  0  0  0  0  0  0  0  0  0  0
    5.4329    0.6626   20.1434 C   0  0  0  0  0  0  0  0  0  0  0  0
    5.0160    0.6265   21.1524 H   0  0  0  0  0  0  0  0  0  0  0  0
    4.7955    1.3187   19.0914 C   0  0  0  0  0  0  0  0  0  0  0  0
    3.8653    1.8483   19.2481 H   0  0  0  0  0  0  0  0  0  0  0  0
  1  2  1  0
  2  3  2  0
  3  4  1  0
  4  5  1  0
  4  6  2  0
  6  7  1  0
  7  8  2  0
  8  9  1  0
  9 10  1  0
  9 11  1  0
 11 12  2  0
 12 13  1  0
 12 14  1  0
 14 15  1  0
 14 16  2  0
 16 17  1  0
 17 18  1  0
 18 19  1  0
 18 20  1  0
 18 21  1  0
 17 22  2  0
 22 23  1  0
  8 24  1  0
 24 25  1  0
 24 26  2  0
 26 27  1  0
 27 28  1  0
  6 29  1  0
 29 30  1  0
 29 31  2  0
 31 32  1  0
 31  2  1  0
 27  7  1  0
 22 11  1  0
M  END
>  <cnnaffinity>  (1) 
-5.4107

>  <filename>  (1) 
Cc1cc(Nc2cn[nH]c2-c2cccnc2)ccn1

$$$$
