
     RDKit          3D

 33 35  0  0  0  0  0  0  0  0999 V2000
    4.9126    1.8027   16.9790 H   0  0  0  0  0  0  0  0  0  0  0  0
    5.3830    1.3035   17.8226 C   0  0  0  0  0  0  0  0  0  0  0  0
    6.5422    0.6816   17.5523 N   0  0  0  0  0  0  0  0  0  0  0  0
    7.1512    0.0662   18.5711 C   0  0  0  0  0  0  0  0  0  0  0  0
    8.1102   -0.4073   18.3605 H   0  0  0  0  0  0  0  0  0  0  0  0
    6.6422    0.0026   19.8828 C   0  0  0  0  0  0  0  0  0  0  0  0
    7.3435   -0.7229   20.9571 C   0  0  0  0  0  0  0  0  0  0  0  0
    6.6751   -1.6453   21.7360 C   0  0  0  0  0  0  0  0  0  0  0  0
    5.6247   -1.8440   21.5383 H   0  0  0  0  0  0  0  0  0  0  0  0
    7.3174   -2.3681   22.7869 C   0  0  0  0  0  0  0  0  0  0  0  0
    6.5679   -3.3865   23.5878 C   0  0  0  0  0  0  0  0  0  0  0  0
    5.2359   -3.2229   23.7005 N   0  0  0  0  0  0  0  0  0  0  0  0
    4.5335   -4.0835   24.4415 C   0  0  0  0  0  0  0  0  0  0  0  0
    3.0497   -3.8477   24.6055 C   0  0  0  0  0  0  0  0  0  0  0  0
    2.4836   -4.6761   24.1601 H   0  0  0  0  0  0  0  0  0  0  0  0
    2.7738   -3.8068   25.6652 H   0  0  0  0  0  0  0  0  0  0  0  0
    2.7458   -2.9014   24.1599 H   0  0  0  0  0  0  0  0  0  0  0  0
    5.1271   -5.1993   25.0547 C   0  0  0  0  0  0  0  0  0  0  0  0
    4.4947   -5.8688   25.6242 H   0  0  0  0  0  0  0  0  0  0  0  0
    6.4960   -5.4084   24.9138 C   0  0  0  0  0  0  0  0  0  0  0  0
    6.9883   -6.2608   25.3859 H   0  0  0  0  0  0  0  0  0  0  0  0
    7.2283   -4.4835   24.1658 C   0  0  0  0  0  0  0  0  0  0  0  0
    8.2880   -4.6168   23.9994 H   0  0  0  0  0  0  0  0  0  0  0  0
    8.6394   -2.1061   23.0372 C   0  0  0  0  0  0  0  0  0  0  0  0
    9.2342   -2.5775   23.8184 H   0  0  0  0  0  0  0  0  0  0  0  0
    9.2886   -1.1835   22.2815 N   0  0  0  0  0  0  0  0  0  0  0  0
   10.2526   -0.9044   22.3661 H   0  0  0  0  0  0  0  0  0  0  0  0
    8.7588   -0.4366   21.2363 C   0  0  0  0  0  0  0  0  0  0  0  0
    9.5354    0.3462   20.7082 O   0  0  0  0  0  0  0  0  0  0  0  0
    5.4220    0.6471   20.1359 C   0  0  0  0  0  0  0  0  0  0  0  0
    5.0127    0.6313   21.1494 H   0  0  0  0  0  0  0  0  0  0  0  0
    4.7929    1.3206   19.0919 C   0  0  0  0  0  0  0  0  0  0  0  0
    3.8645    1.8553   19.2419 H   0  0  0  0  0  0  0  0  0  0  0  0
  1  2  1  0
  2  3  2  0
  3  4  1  0
  4  5  1  0
  4  6  2  0
  6  7  1  0
  7  8  2  0
  8  9  1  0
  8 10  1  0
 10 11  1  0
 11 12  2  0
 12 13  1  0
 13 14  1  0
 14 15  1  0
 14 16  1  0
 14 17  1  0
 13 18  2  0
 18 19  1  0
 18 20  1  0
 20 21  1  0
 20 22  2  0
 22 23  1  0
 10 24  2  0
 24 25  1  0
 24 26  1  0
 26 27  1  0
 26 28  1  0
 28 29  2  0
  6 30  1  0
 30 31  1  0
 30 32  2  0
 32 33  1  0
 32  2  1  0
 28  7  1  0
 22 11  1  0
M  END
>  <cnnaffinity>  (1) 
-5.33967

>  <filename>  (1) 
Cc1cccc(-c2c[nH]c(=O)c(-c3cccnc3)c2)n1

$$$$
