
     RDKit          3D

 34 37  0  0  0  0  0  0  0  0999 V2000
    4.9372    1.7997   16.9601 H   0  0  0  0  0  0  0  0  0  0  0  0
    5.4194    1.3019   17.7944 C   0  0  0  0  0  0  0  0  0  0  0  0
    6.5828    0.6842   17.5320 N   0  0  0  0  0  0  0  0  0  0  0  0
    7.2130    0.0924   18.5504 C   0  0  0  0  0  0  0  0  0  0  0  0
    8.1494   -0.4055   18.3034 H   0  0  0  0  0  0  0  0  0  0  0  0
    6.7158    0.0723   19.8660 C   0  0  0  0  0  0  0  0  0  0  0  0
    7.4113   -0.6651   20.9335 C   0  0  0  0  0  0  0  0  0  0  0  0
    8.6300   -1.2088   20.7607 N   0  0  0  0  0  0  0  0  0  0  0  0
    8.8082   -1.8946   21.9122 N   0  0  0  0  0  0  0  0  0  0  0  0
    9.7640   -2.7800   22.3909 C   0  0  0  0  0  0  0  0  0  0  0  0
   10.7028   -2.8975   21.8786 H   0  0  0  0  0  0  0  0  0  0  0  0
    9.2440   -3.3136   23.5257 C   0  0  0  0  0  0  0  0  0  0  0  0
    9.6156   -4.1035   24.1637 H   0  0  0  0  0  0  0  0  0  0  0  0
    7.9906   -2.7262   23.7817 N   0  0  0  0  0  0  0  0  0  0  0  0
    7.0021   -3.0546   24.7359 C   0  0  0  0  0  0  0  0  0  0  0  0
    5.7396   -3.0933   24.2850 N   0  0  0  0  0  0  0  0  0  0  0  0
    4.7800   -3.4390   25.1407 C   0  0  0  0  0  0  0  0  0  0  0  0
    3.7714   -3.4700   24.7322 H   0  0  0  0  0  0  0  0  0  0  0  0
    5.0114   -3.7536   26.4740 C   0  0  0  0  0  0  0  0  0  0  0  0
    4.1909   -4.0431   27.1190 H   0  0  0  0  0  0  0  0  0  0  0  0
    6.3238   -3.6751   26.9485 C   0  0  0  0  0  0  0  0  0  0  0  0
    6.5511   -3.9030   27.9888 H   0  0  0  0  0  0  0  0  0  0  0  0
    7.3600   -3.2938   26.0916 C   0  0  0  0  0  0  0  0  0  0  0  0
    8.7692   -3.1338   26.6129 C   0  0  0  0  0  0  0  0  0  0  0  0
    8.7455   -2.9409   27.6814 H   0  0  0  0  0  0  0  0  0  0  0  0
    9.2896   -2.2941   26.1429 H   0  0  0  0  0  0  0  0  0  0  0  0
    9.3722   -4.0351   26.4546 H   0  0  0  0  0  0  0  0  0  0  0  0
    7.7721   -1.8127   22.7579 C   0  0  0  0  0  0  0  0  0  0  0  0
    6.8533   -0.9552   22.1919 C   0  0  0  0  0  0  0  0  0  0  0  0
    5.9451   -0.5832   22.6132 H   0  0  0  0  0  0  0  0  0  0  0  0
    5.4798    0.6981   20.1097 C   0  0  0  0  0  0  0  0  0  0  0  0
    5.0323    0.6907   21.1037 H   0  0  0  0  0  0  0  0  0  0  0  0
    4.8239    1.3224   19.0588 C   0  0  0  0  0  0  0  0  0  0  0  0
    3.8770    1.8316   19.2127 H   0  0  0  0  0  0  0  0  0  0  0  0
  1  2  1  0
  2  3  2  0
  3  4  1  0
  4  5  1  0
  4  6  2  0
  6  7  1  0
  7  8  2  0
  8  9  1  0
  9 10  1  0
 10 11  1  0
 10 12  2  0
 12 13  1  0
 12 14  1  0
 14 15  1  0
 15 16  2  0
 16 17  1  0
 17 18  1  0
 17 19  2  0
 19 20  1  0
 19 21  1  0
 21 22  1  0
 21 23  2  0
 23 24  1  0
 24 25  1  0
 24 26  1  0
 24 27  1  0
 14 28  1  0
 28 29  2  0
 29 30  1  0
  6 31  1  0
 31 32  1  0
 31 33  2  0
 33 34  1  0
 33  2  1  0
 29  7  1  0
 28  9  1  0
 23 15  1  0
M  END
>  <cnnaffinity>  (1) 
-5.63891

>  <filename>  (1) 
Cc1cccnc1-n1ccn2nc(-c3cccnc3)cc12

$$$$
