
     RDKit          3D

 37 40  0  0  0  0  0  0  0  0999 V2000
    4.9483    1.8068   16.9797 H   0  0  0  0  0  0  0  0  0  0  0  0
    5.4036    1.2925   17.8227 C   0  0  0  0  0  0  0  0  0  0  0  0
    6.5666    0.6691   17.5765 N   0  0  0  0  0  0  0  0  0  0  0  0
    7.1572    0.0310   18.5917 C   0  0  0  0  0  0  0  0  0  0  0  0
    8.1078   -0.4480   18.3572 H   0  0  0  0  0  0  0  0  0  0  0  0
    6.6256   -0.0096   19.8921 C   0  0  0  0  0  0  0  0  0  0  0  0
    7.3502   -0.6837   20.9671 C   0  0  0  0  0  0  0  0  0  0  0  0
    8.0267   -1.8054   20.7427 N   0  0  0  0  0  0  0  0  0  0  0  0
    8.4880   -2.1431   21.9490 N   0  0  0  0  0  0  0  0  0  0  0  0
    8.2038   -1.2956   22.9284 C   0  0  0  0  0  0  0  0  0  0  0  0
    7.4632   -0.2945   22.3348 C   0  0  0  0  0  0  0  0  0  0  0  0
    7.1524    0.9495   23.0029 C   0  0  0  0  0  0  0  0  0  0  0  0
    6.8322    0.8601   24.3076 N   0  0  0  0  0  0  0  0  0  0  0  0
    6.5307    1.9927   24.9324 C   0  0  0  0  0  0  0  0  0  0  0  0
    6.2397    1.8858   25.9776 H   0  0  0  0  0  0  0  0  0  0  0  0
    6.5802    3.2515   24.3267 C   0  0  0  0  0  0  0  0  0  0  0  0
    6.3325    4.1319   24.9039 H   0  0  0  0  0  0  0  0  0  0  0  0
    6.9643    3.3628   22.9836 C   0  0  0  0  0  0  0  0  0  0  0  0
    7.0303    4.6909   22.2683 C   0  0  0  0  0  0  0  0  0  0  0  0
    6.0850    4.9135   21.7561 H   0  0  0  0  0  0  0  0  0  0  0  0
    7.2241    5.5119   22.9653 H   0  0  0  0  0  0  0  0  0  0  0  0
    7.8245    4.7018   21.5135 H   0  0  0  0  0  0  0  0  0  0  0  0
    7.2599    2.1697   22.3252 C   0  0  0  0  0  0  0  0  0  0  0  0
    7.5664    2.1530   21.2858 H   0  0  0  0  0  0  0  0  0  0  0  0
    9.0320   -1.5609   24.1565 C   0  0  0  0  0  0  0  0  0  0  0  0
    8.3878   -1.6934   25.0300 H   0  0  0  0  0  0  0  0  0  0  0  0
    9.6670   -0.6888   24.3543 H   0  0  0  0  0  0  0  0  0  0  0  0
    9.8465   -2.8244   23.7505 C   0  0  0  0  0  0  0  0  0  0  0  0
   10.9211   -2.6662   23.8316 H   0  0  0  0  0  0  0  0  0  0  0  0
    9.5992   -3.6914   24.3646 H   0  0  0  0  0  0  0  0  0  0  0  0
    9.4929   -3.1205   22.2645 C   0  0  0  0  0  0  0  0  0  0  0  0
   10.3378   -2.9411   21.5943 H   0  0  0  0  0  0  0  0  0  0  0  0
    9.0684   -4.1167   22.1279 H   0  0  0  0  0  0  0  0  0  0  0  0
    5.4032    0.6342   20.1300 C   0  0  0  0  0  0  0  0  0  0  0  0
    4.9763    0.6452   21.1331 H   0  0  0  0  0  0  0  0  0  0  0  0
    4.7870    1.3009   19.0766 C   0  0  0  0  0  0  0  0  0  0  0  0
    3.8636    1.8428   19.2263 H   0  0  0  0  0  0  0  0  0  0  0  0
  1  2  1  0
  2  3  2  0
  3  4  1  0
  4  5  1  0
  4  6  2  0
  6  7  1  0
  7  8  2  0
  8  9  1  0
  9 10  1  0
 10 11  2  0
 11 12  1  0
 12 13  2  0
 13 14  1  0
 14 15  1  0
 14 16  2  0
 16 17  1  0
 16 18  1  0
 18 19  1  0
 19 20  1  0
 19 21  1  0
 19 22  1  0
 18 23  2  0
 23 24  1  0
 10 25  1  0
 25 26  1  0
 25 27  1  0
 25 28  1  0
 28 29  1  0
 28 30  1  0
 28 31  1  0
 31 32  1  0
 31 33  1  0
  6 34  1  0
 34 35  1  0
 34 36  2  0
 36 37  1  0
 36  2  1  0
 11  7  1  0
 23 12  1  0
 31  9  1  0
M  END
>  <cnnaffinity>  (1) 
-5.57245

>  <filename>  (1) 
Cc1ccnc(-c2c(-c3cccnc3)nn3c2CCC3)c1

$$$$
