
     RDKit          3D

 41 44  0  0  0  0  0  0  0  0999 V2000
    4.9461    1.8499   16.9599 H   0  0  0  0  0  0  0  0  0  0  0  0
    5.3782    1.3156   17.7999 C   0  0  0  0  0  0  0  0  0  0  0  0
    6.5301    0.6658   17.5746 N   0  0  0  0  0  0  0  0  0  0  0  0
    7.0961    0.0388   18.6160 C   0  0  0  0  0  0  0  0  0  0  0  0
    8.0382   -0.4634   18.3891 H   0  0  0  0  0  0  0  0  0  0  0  0
    6.5389   -0.0031   19.9145 C   0  0  0  0  0  0  0  0  0  0  0  0
    7.2899   -0.6134   21.0300 C   0  0  0  0  0  0  0  0  0  0  0  0
    8.6416   -0.5707   21.2534 C   0  0  0  0  0  0  0  0  0  0  0  0
    8.8397   -1.0687   22.5464 C   0  0  0  0  0  0  0  0  0  0  0  0
    7.7311   -1.5167   23.0943 N   0  0  0  0  0  0  0  0  0  0  0  0
    6.7838   -1.2012   22.1609 N   0  0  0  0  0  0  0  0  0  0  0  0
    5.8148   -1.3281   22.4192 H   0  0  0  0  0  0  0  0  0  0  0  0
   10.2557   -0.8309   22.9973 C   0  0  0  0  0  0  0  0  0  0  0  0
   10.8303   -1.7533   22.8741 H   0  0  0  0  0  0  0  0  0  0  0  0
   10.3583   -0.5247   24.0425 H   0  0  0  0  0  0  0  0  0  0  0  0
   10.7238    0.2712   21.9959 C   0  0  2  0  0  0  0  0  0  0  0  0
   11.7916    0.1605   21.7860 H   0  0  0  0  0  0  0  0  0  0  0  0
   10.4975    1.7139   22.5343 C   0  0  0  0  0  0  0  0  0  0  0  0
   11.0314    1.8133   23.4900 H   0  0  0  0  0  0  0  0  0  0  0  0
   10.9914    2.4062   21.8376 H   0  0  0  0  0  0  0  0  0  0  0  0
    9.0429    2.1215   22.7016 C   0  0  0  0  0  0  0  0  0  0  0  0
    8.3146    1.7807   23.8493 C   0  0  0  0  0  0  0  0  0  0  0  0
    8.8055    1.2330   24.6511 H   0  0  0  0  0  0  0  0  0  0  0  0
    6.9568    2.0935   23.9731 C   0  0  0  0  0  0  0  0  0  0  0  0
    6.4215    1.7885   24.8708 H   0  0  0  0  0  0  0  0  0  0  0  0
    6.2787    2.7961   22.9646 C   0  0  0  0  0  0  0  0  0  0  0  0
    4.8159    3.1667   23.0794 C   0  0  0  0  0  0  0  0  0  0  0  0
    4.2559    2.4402   23.6781 H   0  0  0  0  0  0  0  0  0  0  0  0
    4.3490    3.2055   22.0864 H   0  0  0  0  0  0  0  0  0  0  0  0
    4.6775    4.1530   23.5425 H   0  0  0  0  0  0  0  0  0  0  0  0
    7.0137    3.1625   21.8274 C   0  0  0  0  0  0  0  0  0  0  0  0
    6.5181    3.7346   21.0441 H   0  0  0  0  0  0  0  0  0  0  0  0
    8.3609    2.8176   21.6930 C   0  0  0  0  0  0  0  0  0  0  0  0
    8.8909    3.1020   20.7860 H   0  0  0  0  0  0  0  0  0  0  0  0
    9.8987    0.0083   20.7115 C   0  0  0  0  0  0  0  0  0  0  0  0
    9.7622    0.9065   20.0977 H   0  0  0  0  0  0  0  0  0  0  0  0
   10.4165   -0.7273   20.0978 H   0  0  0  0  0  0  0  0  0  0  0  0
    5.3168    0.6631   20.1082 C   0  0  0  0  0  0  0  0  0  0  0  0
    4.8666    0.6892   21.1004 H   0  0  0  0  0  0  0  0  0  0  0  0
    4.7313    1.3381   19.0424 C   0  0  0  0  0  0  0  0  0  0  0  0
    3.8155    1.9086   19.1730 H   0  0  0  0  0  0  0  0  0  0  0  0
  1  2  1  0
  2  3  2  0
  3  4  1  0
  4  5  1  0
  4  6  2  0
  6  7  1  0
  7  8  2  0
  8  9  1  0
  9 10  2  0
 10 11  1  0
 11 12  1  0
  9 13  1  0
 13 14  1  0
 13 15  1  0
 13 16  1  0
 16 17  1  6
 16 18  1  0
 18 19  1  0
 18 20  1  0
 18 21  1  0
 21 22  2  0
 22 23  1  0
 22 24  1  0
 24 25  1  0
 24 26  2  0
 26 27  1  0
 27 28  1  0
 27 29  1  0
 27 30  1  0
 26 31  1  0
 31 32  1  0
 31 33  2  0
 33 34  1  0
 16 35  1  0
 35 36  1  0
 35 37  1  0
  6 38  1  0
 38 39  1  0
 38 40  2  0
 40 41  1  0
 40  2  1  0
 11  7  1  0
 33 21  1  0
 35  8  1  0
M  END
>  <cnnaffinity>  (1) 
-5.71535

>  <filename>  (1) 
Cc1ccc(C[C@H]2Cc3n[nH]c(-c4cccnc4)c3C2)cc1

$$$$
