
     RDKit          3D

 31 33  0  0  0  0  0  0  0  0999 V2000
    4.9239    1.8000   16.9723 H   0  0  0  0  0  0  0  0  0  0  0  0
    5.3929    1.2981   17.8190 C   0  0  0  0  0  0  0  0  0  0  0  0
    6.5573    0.6740   17.5721 N   0  0  0  0  0  0  0  0  0  0  0  0
    7.1625    0.0511   18.5929 C   0  0  0  0  0  0  0  0  0  0  0  0
    8.1207   -0.4035   18.3409 H   0  0  0  0  0  0  0  0  0  0  0  0
    6.6471   -0.0015   19.9055 C   0  0  0  0  0  0  0  0  0  0  0  0
    7.3299   -0.6452   21.0282 C   0  0  0  0  0  0  0  0  0  0  0  0
    7.2472   -0.3921   22.3553 C   0  0  0  0  0  0  0  0  0  0  0  0
    6.6708    0.3531   22.8815 H   0  0  0  0  0  0  0  0  0  0  0  0
    8.1197   -1.2548   23.0130 N   0  0  0  0  0  0  0  0  0  0  0  0
    8.3563   -1.3390   24.3974 C   0  0  0  0  0  0  0  0  0  0  0  0
    8.7037   -0.1726   24.9352 N   0  0  0  0  0  0  0  0  0  0  0  0
    8.9632   -0.1475   26.2458 C   0  0  0  0  0  0  0  0  0  0  0  0
    9.2494    0.8191   26.6491 H   0  0  0  0  0  0  0  0  0  0  0  0
    8.8684   -1.2664   27.0672 C   0  0  0  0  0  0  0  0  0  0  0  0
    9.0998   -1.1703   28.1189 H   0  0  0  0  0  0  0  0  0  0  0  0
    8.4584   -2.4751   26.4997 C   0  0  0  0  0  0  0  0  0  0  0  0
    8.3509   -3.3757   27.1056 H   0  0  0  0  0  0  0  0  0  0  0  0
    8.1677   -2.5418   25.1310 C   0  0  0  0  0  0  0  0  0  0  0  0
    7.6729   -3.8402   24.5358 C   0  0  0  0  0  0  0  0  0  0  0  0
    6.9845   -3.6676   23.7035 H   0  0  0  0  0  0  0  0  0  0  0  0
    8.5151   -4.4211   24.1531 H   0  0  0  0  0  0  0  0  0  0  0  0
    7.1569   -4.4298   25.2988 H   0  0  0  0  0  0  0  0  0  0  0  0
    8.7687   -2.0604   22.0925 C   0  0  0  0  0  0  0  0  0  0  0  0
    9.5687   -2.9497   22.2776 O   0  0  0  0  0  0  0  0  0  0  0  0
    8.2765   -1.6473   20.8819 N   0  0  0  0  0  0  0  0  0  0  0  0
    8.5690   -2.1381   20.0630 H   0  0  0  0  0  0  0  0  0  0  0  0
    5.4265    0.6561   20.1334 C   0  0  0  0  0  0  0  0  0  0  0  0
    4.9885    0.6391   21.1299 H   0  0  0  0  0  0  0  0  0  0  0  0
    4.7952    1.3169   19.0828 C   0  0  0  0  0  0  0  0  0  0  0  0
    3.8651    1.8515   19.2324 H   0  0  0  0  0  0  0  0  0  0  0  0
  1  2  1  0
  2  3  2  0
  3  4  1  0
  4  5  1  0
  4  6  2  0
  6  7  1  0
  7  8  2  0
  8  9  1  0
  8 10  1  0
 10 11  1  0
 11 12  2  0
 12 13  1  0
 13 14  1  0
 13 15  2  0
 15 16  1  0
 15 17  1  0
 17 18  1  0
 17 19  2  0
 19 20  1  0
 20 21  1  0
 20 22  1  0
 20 23  1  0
 10 24  1  0
 24 25  2  0
 24 26  1  0
 26 27  1  0
  6 28  1  0
 28 29  1  0
 28 30  2  0
 30 31  1  0
 30  2  1  0
 26  7  1  0
 19 11  1  0
M  END
>  <cnnaffinity>  (1) 
-5.36742

>  <filename>  (1) 
Cc1cccnc1-n1cc(-c2cccnc2)[nH]c1=O

$$$$
