
     RDKit          3D

 34 36  0  0  0  0  0  0  0  0999 V2000
    4.9225    1.7769   17.0035 H   0  0  0  0  0  0  0  0  0  0  0  0
    5.4076    1.2866   17.8474 C   0  0  0  0  0  0  0  0  0  0  0  0
    6.5723    0.6748   17.5926 N   0  0  0  0  0  0  0  0  0  0  0  0
    7.1764    0.0479   18.6060 C   0  0  0  0  0  0  0  0  0  0  0  0
    8.1230   -0.4350   18.3742 H   0  0  0  0  0  0  0  0  0  0  0  0
    6.6643   -0.0045   19.9116 C   0  0  0  0  0  0  0  0  0  0  0  0
    7.4102   -0.7174   20.9854 C   0  0  0  0  0  0  0  0  0  0  0  0
    8.1200   -1.8075   20.6396 N   0  0  0  0  0  0  0  0  0  0  0  0
    8.7803   -2.5071   21.5680 N   0  0  0  0  0  0  0  0  0  0  0  0
    8.7713   -2.1074   22.8393 C   0  0  0  0  0  0  0  0  0  0  0  0
    9.3407   -2.7211   23.5272 H   0  0  0  0  0  0  0  0  0  0  0  0
    8.0530   -0.9679   23.2822 C   0  0  0  0  0  0  0  0  0  0  0  0
    8.0370   -0.5707   24.6177 N   0  0  0  0  0  0  0  0  0  0  0  0
    8.8554   -0.7695   25.1716 H   0  0  0  0  0  0  0  0  0  0  0  0
    7.0225    0.1171   25.3010 C   0  0  0  0  0  0  0  0  0  0  0  0
    7.3174    0.9939   26.3459 C   0  0  0  0  0  0  0  0  0  0  0  0
    8.3535    1.1531   26.6295 H   0  0  0  0  0  0  0  0  0  0  0  0
    6.2772    1.6648   26.9955 C   0  0  0  0  0  0  0  0  0  0  0  0
    6.5094    2.3468   27.8039 H   0  0  0  0  0  0  0  0  0  0  0  0
    4.9313    1.4691   26.6436 C   0  0  0  0  0  0  0  0  0  0  0  0
    3.8188    2.1708   27.3773 C   0  0  0  0  0  0  0  0  0  0  0  0
    2.9447    2.3312   26.7363 H   0  0  0  0  0  0  0  0  0  0  0  0
    3.4863    1.5760   28.2357 H   0  0  0  0  0  0  0  0  0  0  0  0
    4.1382    3.1459   27.7577 H   0  0  0  0  0  0  0  0  0  0  0  0
    4.6480    0.5581   25.6180 C   0  0  0  0  0  0  0  0  0  0  0  0
    3.6157    0.3686   25.3350 H   0  0  0  0  0  0  0  0  0  0  0  0
    5.6887   -0.1122   24.9777 C   0  0  0  0  0  0  0  0  0  0  0  0
    5.5607   -0.8816   24.2407 H   0  0  0  0  0  0  0  0  0  0  0  0
    7.3663   -0.2593   22.3071 C   0  0  0  0  0  0  0  0  0  0  0  0
    6.8325    0.6476   22.5741 H   0  0  0  0  0  0  0  0  0  0  0  0
    5.4478    0.6465   20.1650 C   0  0  0  0  0  0  0  0  0  0  0  0
    5.0028    0.6323   21.1628 H   0  0  0  0  0  0  0  0  0  0  0  0
    4.8103    1.3011   19.1122 C   0  0  0  0  0  0  0  0  0  0  0  0
    3.8788    1.8391   19.2615 H   0  0  0  0  0  0  0  0  0  0  0  0
  1  2  1  0
  2  3  2  0
  3  4  1  0
  4  5  1  0
  4  6  2  0
  6  7  1  0
  7  8  2  0
  8  9  1  0
  9 10  2  0
 10 11  1  0
 10 12  1  0
 12 13  1  0
 13 14  1  0
 13 15  1  0
 15 16  2  0
 16 17  1  0
 16 18  1  0
 18 19  1  0
 18 20  2  0
 20 21  1  0
 21 22  1  0
 21 23  1  0
 21 24  1  0
 20 25  1  0
 25 26  1  0
 25 27  2  0
 27 28  1  0
 12 29  2  0
 29 30  1  0
  6 31  1  0
 31 32  1  0
 31 33  2  0
 33 34  1  0
 33  2  1  0
 29  7  1  0
 27 15  1  0
M  END
>  <cnnaffinity>  (1) 
-4.93399

>  <filename>  (1) 
Cc1ccc(Nc2cnnc(-c3cccnc3)c2)cc1

$$$$
