
     RDKit          3D

 37 40  0  0  0  0  0  0  0  0999 V2000
    5.8189    2.5957   25.8607 H   0  0  0  0  0  0  0  0  0  0  0  0
    6.6482    1.9617   26.1609 C   0  0  0  0  0  0  0  0  0  0  0  0
    7.2572    1.2945   25.1850 N   0  0  0  0  0  0  0  0  0  0  0  0
    8.3325    0.5396   25.4810 C   0  0  0  0  0  0  0  0  0  0  0  0
    8.9941   -0.0629   24.2895 C   0  0  0  0  0  0  0  0  0  0  0  0
    8.4022   -0.3466   23.0768 C   0  0  0  0  0  0  0  0  0  0  0  0
    9.4177   -0.7215   22.2127 C   0  0  0  0  0  0  0  0  0  0  0  0
   10.5989   -0.7397   22.8011 N   0  0  0  0  0  0  0  0  0  0  0  0
   10.3192   -0.3513   24.0690 N   0  0  0  0  0  0  0  0  0  0  0  0
   11.1140   -0.1379   24.6577 H   0  0  0  0  0  0  0  0  0  0  0  0
    8.9218   -0.8786   20.8087 C   0  0  0  0  0  0  0  0  0  0  0  0
    9.2702   -0.0417   20.1984 H   0  0  0  0  0  0  0  0  0  0  0  0
    9.2814   -1.8001   20.3526 H   0  0  0  0  0  0  0  0  0  0  0  0
    7.3598   -0.8232   20.9553 C   0  0  2  0  0  0  0  0  0  0  0  0
    7.0144   -1.8652   20.9496 H   0  0  0  0  0  0  0  0  0  0  0  0
    6.6271   -0.0677   19.8440 C   0  0  0  0  0  0  0  0  0  0  0  0
    7.1382    0.0193   18.5311 C   0  0  0  0  0  0  0  0  0  0  0  0
    8.0944   -0.4440   18.2852 H   0  0  0  0  0  0  0  0  0  0  0  0
    6.5553    0.6787   17.5197 N   0  0  0  0  0  0  0  0  0  0  0  0
    5.4038    1.3140   17.7814 C   0  0  0  0  0  0  0  0  0  0  0  0
    4.9483    1.8521   16.9546 H   0  0  0  0  0  0  0  0  0  0  0  0
    4.7910    1.3034   19.0354 C   0  0  0  0  0  0  0  0  0  0  0  0
    3.8721    1.8593   19.2000 H   0  0  0  0  0  0  0  0  0  0  0  0
    5.4095    0.6064   20.0726 C   0  0  0  0  0  0  0  0  0  0  0  0
    4.9700    0.6362   21.0708 H   0  0  0  0  0  0  0  0  0  0  0  0
    7.0840   -0.2508   22.3845 C   0  0  0  0  0  0  0  0  0  0  0  0
    6.7592    0.7976   22.3340 H   0  0  0  0  0  0  0  0  0  0  0  0
    6.3097   -0.8118   22.9131 H   0  0  0  0  0  0  0  0  0  0  0  0
    8.7522    0.3202   26.8234 C   0  0  0  0  0  0  0  0  0  0  0  0
    9.8646   -0.6333   27.1799 C   0  0  0  0  0  0  0  0  0  0  0  0
    9.7830   -1.5530   26.5959 H   0  0  0  0  0  0  0  0  0  0  0  0
   10.8394   -0.1839   26.9624 H   0  0  0  0  0  0  0  0  0  0  0  0
    9.8466   -0.9087   28.2387 H   0  0  0  0  0  0  0  0  0  0  0  0
    8.0778    1.0304   27.8289 C   0  0  0  0  0  0  0  0  0  0  0  0
    8.3750    0.9120   28.8731 H   0  0  0  0  0  0  0  0  0  0  0  0
    7.0303    1.8870   27.4974 C   0  0  0  0  0  0  0  0  0  0  0  0
    6.5098    2.4813   28.2404 H   0  0  0  0  0  0  0  0  0  0  0  0
  1  2  1  0
  2  3  2  0
  3  4  1  0
  4  5  1  0
  5  6  2  0
  6  7  1  0
  7  8  2  0
  8  9  1  0
  9 10  1  0
  7 11  1  0
 11 12  1  0
 11 13  1  0
 11 14  1  0
 14 15  1  1
 14 16  1  0
 16 17  2  0
 17 18  1  0
 17 19  1  0
 19 20  2  0
 20 21  1  0
 20 22  1  0
 22 23  1  0
 22 24  2  0
 24 25  1  0
 14 26  1  0
 26 27  1  0
 26 28  1  0
  4 29  2  0
 29 30  1  0
 30 31  1  0
 30 32  1  0
 30 33  1  0
 29 34  1  0
 34 35  1  0
 34 36  2  0
 36 37  1  0
 36  2  1  0
  9  5  1  0
 24 16  1  0
 26  6  1  0
M  END
>  <cnnaffinity>  (1) 
-5.37824

>  <filename>  (1) 
Cc1cccnc1-c1[nH]nc2c1C[C@@H](c1cccnc1)C2

$$$$
