
     RDKit          3D

 37 40  0  0  0  0  0  0  0  0999 V2000
    4.9964    1.8278   16.9221 H   0  0  0  0  0  0  0  0  0  0  0  0
    5.3951    1.3022   17.7912 C   0  0  0  0  0  0  0  0  0  0  0  0
    6.5481    0.6427   17.6017 N   0  0  0  0  0  0  0  0  0  0  0  0
    7.0793    0.0291   18.6689 C   0  0  0  0  0  0  0  0  0  0  0  0
    8.0121   -0.5027   18.4881 H   0  0  0  0  0  0  0  0  0  0  0  0
    6.5037    0.0067   19.9557 C   0  0  0  0  0  0  0  0  0  0  0  0
    7.2659   -0.6045   21.0690 C   0  0  0  0  0  0  0  0  0  0  0  0
    8.6202   -0.5429   21.3045 C   0  0  0  0  0  0  0  0  0  0  0  0
    8.8274   -1.1598   22.5312 C   0  0  0  0  0  0  0  0  0  0  0  0
    7.7158   -1.6119   23.0721 N   0  0  0  0  0  0  0  0  0  0  0  0
    6.7666   -1.2541   22.1647 N   0  0  0  0  0  0  0  0  0  0  0  0
    5.8070   -1.5125   22.3612 H   0  0  0  0  0  0  0  0  0  0  0  0
   10.2463   -1.0706   22.9988 C   0  0  0  0  0  0  0  0  0  0  0  0
   10.7093   -2.0580   23.0789 H   0  0  0  0  0  0  0  0  0  0  0  0
   10.3041   -0.6092   23.9905 H   0  0  0  0  0  0  0  0  0  0  0  0
   10.9416   -0.2060   21.8848 C   0  0  2  0  0  0  0  0  0  0  0  0
   11.7681   -0.7889   21.4733 H   0  0  0  0  0  0  0  0  0  0  0  0
   11.5749    1.0706   22.4230 C   0  0  0  0  0  0  0  0  0  0  0  0
   12.9203    1.0908   22.3720 N   0  0  0  0  0  0  0  0  0  0  0  0
   13.5574    2.2025   22.7492 C   0  0  0  0  0  0  0  0  0  0  0  0
   14.6397    2.1806   22.6471 H   0  0  0  0  0  0  0  0  0  0  0  0
   12.8986    3.3409   23.2051 C   0  0  0  0  0  0  0  0  0  0  0  0
   13.4596    4.2288   23.4683 H   0  0  0  0  0  0  0  0  0  0  0  0
   11.5087    3.3100   23.3096 C   0  0  0  0  0  0  0  0  0  0  0  0
   10.9577    4.1886   23.6533 H   0  0  0  0  0  0  0  0  0  0  0  0
   10.8125    2.1399   22.9632 C   0  0  0  0  0  0  0  0  0  0  0  0
    9.3257    2.0716   23.2500 C   0  0  0  0  0  0  0  0  0  0  0  0
    8.7713    1.4920   22.5120 H   0  0  0  0  0  0  0  0  0  0  0  0
    9.1337    1.6215   24.2315 H   0  0  0  0  0  0  0  0  0  0  0  0
    8.8926    3.0739   23.2871 H   0  0  0  0  0  0  0  0  0  0  0  0
    9.8819    0.0103   20.7462 C   0  0  0  0  0  0  0  0  0  0  0  0
    9.7728    1.0548   20.4247 H   0  0  0  0  0  0  0  0  0  0  0  0
   10.1680   -0.5810   19.8731 H   0  0  0  0  0  0  0  0  0  0  0  0
    5.2761    0.6719   20.1227 C   0  0  0  0  0  0  0  0  0  0  0  0
    4.7760    0.6988   21.0962 H   0  0  0  0  0  0  0  0  0  0  0  0
    4.7284    1.3332   19.0227 C   0  0  0  0  0  0  0  0  0  0  0  0
    3.8067    1.8977   19.1029 H   0  0  0  0  0  0  0  0  0  0  0  0
  1  2  1  0
  2  3  2  0
  3  4  1  0
  4  5  1  0
  4  6  2  0
  6  7  1  0
  7  8  2  0
  8  9  1  0
  9 10  2  0
 10 11  1  0
 11 12  1  0
  9 13  1  0
 13 14  1  0
 13 15  1  0
 13 16  1  0
 16 17  1  6
 16 18  1  0
 18 19  2  0
 19 20  1  0
 20 21  1  0
 20 22  2  0
 22 23  1  0
 22 24  1  0
 24 25  1  0
 24 26  2  0
 26 27  1  0
 27 28  1  0
 27 29  1  0
 27 30  1  0
 16 31  1  0
 31 32  1  0
 31 33  1  0
  6 34  1  0
 34 35  1  0
 34 36  2  0
 36 37  1  0
 36  2  1  0
 11  7  1  0
 26 18  1  0
 31  8  1  0
M  END
>  <cnnaffinity>  (1) 
-5.54723

>  <filename>  (1) 
Cc1cccnc1[C@H]1Cc2n[nH]c(-c3cccnc3)c2C1

$$$$
