
     RDKit          3D

 34 36  0  0  0  0  0  0  0  0999 V2000
    4.9137    1.7892   16.9899 H   0  0  0  0  0  0  0  0  0  0  0  0
    5.3978    1.2984   17.8308 C   0  0  0  0  0  0  0  0  0  0  0  0
    6.5646    0.6846   17.5690 N   0  0  0  0  0  0  0  0  0  0  0  0
    7.1704    0.0574   18.5880 C   0  0  0  0  0  0  0  0  0  0  0  0
    8.1208   -0.4247   18.3658 H   0  0  0  0  0  0  0  0  0  0  0  0
    6.6641   -0.0084   19.9065 C   0  0  0  0  0  0  0  0  0  0  0  0
    7.3362   -0.7180   20.9122 N   0  0  0  0  0  0  0  0  0  0  0  0
    7.8668   -1.5480   20.6798 H   0  0  0  0  0  0  0  0  0  0  0  0
    7.4659   -0.3053   22.2455 C   0  0  0  0  0  0  0  0  0  0  0  0
    7.2656    0.9786   22.8132 C   0  0  0  0  0  0  0  0  0  0  0  0
    6.9457    1.8681   22.2927 H   0  0  0  0  0  0  0  0  0  0  0  0
    7.5497    1.0188   24.1044 N   0  0  0  0  0  0  0  0  0  0  0  0
    7.9360   -0.2501   24.3895 N   0  0  0  0  0  0  0  0  0  0  0  0
    8.2448   -0.4544   25.3235 H   0  0  0  0  0  0  0  0  0  0  0  0
    7.8953   -1.0771   23.3097 C   0  0  0  0  0  0  0  0  0  0  0  0
    8.3187   -2.3734   23.2761 O   0  0  0  0  0  0  0  0  0  0  0  0
    8.3365   -3.2117   24.3888 C   0  0  0  0  0  0  0  0  0  0  0  0
    9.2962   -4.2305   24.3638 C   0  0  0  0  0  0  0  0  0  0  0  0
    9.9665   -4.2974   23.5151 H   0  0  0  0  0  0  0  0  0  0  0  0
    9.3674   -5.1353   25.4246 C   0  0  0  0  0  0  0  0  0  0  0  0
   10.1098   -5.9285   25.4195 H   0  0  0  0  0  0  0  0  0  0  0  0
    8.4787   -5.0275   26.4991 C   0  0  0  0  0  0  0  0  0  0  0  0
    8.5328   -5.7280   27.3302 H   0  0  0  0  0  0  0  0  0  0  0  0
    7.5001   -4.0299   26.5090 C   0  0  0  0  0  0  0  0  0  0  0  0
    6.5118   -3.9368   27.6389 C   0  0  0  0  0  0  0  0  0  0  0  0
    6.1974   -2.9002   27.8072 H   0  0  0  0  0  0  0  0  0  0  0  0
    5.6100   -4.5163   27.4248 H   0  0  0  0  0  0  0  0  0  0  0  0
    6.9280   -4.3477   28.5634 H   0  0  0  0  0  0  0  0  0  0  0  0
    7.4201   -3.1237   25.4396 C   0  0  0  0  0  0  0  0  0  0  0  0
    6.6426   -2.3636   25.4223 H   0  0  0  0  0  0  0  0  0  0  0  0
    5.4447    0.6419   20.1574 C   0  0  0  0  0  0  0  0  0  0  0  0
    5.0279    0.6137   21.1662 H   0  0  0  0  0  0  0  0  0  0  0  0
    4.8109    1.3061   19.1003 C   0  0  0  0  0  0  0  0  0  0  0  0
    3.8821    1.8357   19.2611 H   0  0  0  0  0  0  0  0  0  0  0  0
  1  2  1  0
  2  3  2  0
  3  4  1  0
  4  5  1  0
  4  6  2  0
  6  7  1  0
  7  8  1  0
  7  9  1  0
  9 10  1  0
 10 11  1  0
 10 12  2  0
 12 13  1  0
 13 14  1  0
 13 15  1  0
 15 16  1  0
 16 17  1  0
 17 18  2  0
 18 19  1  0
 18 20  1  0
 20 21  1  0
 20 22  2  0
 22 23  1  0
 22 24  1  0
 24 25  1  0
 25 26  1  0
 25 27  1  0
 25 28  1  0
 24 29  2  0
 29 30  1  0
  6 31  1  0
 31 32  1  0
 31 33  2  0
 33 34  1  0
 33  2  1  0
 15  9  2  0
 29 17  1  0
M  END
>  <cnnaffinity>  (1) 
-5.32766

>  <filename>  (1) 
Cc1cccc(Oc2[nH]ncc2Nc2cccnc2)c1

$$$$
