
     RDKit          3D

 36 39  0  0  0  0  0  0  0  0999 V2000
    4.9481    1.8048   16.9776 H   0  0  0  0  0  0  0  0  0  0  0  0
    5.3999    1.2932   17.8252 C   0  0  0  0  0  0  0  0  0  0  0  0
    6.5559    0.6599   17.5766 N   0  0  0  0  0  0  0  0  0  0  0  0
    7.1544    0.0295   18.5903 C   0  0  0  0  0  0  0  0  0  0  0  0
    8.1039   -0.4492   18.3603 H   0  0  0  0  0  0  0  0  0  0  0  0
    6.6401    0.0011   19.8978 C   0  0  0  0  0  0  0  0  0  0  0  0
    7.3893   -0.6640   20.9574 C   0  0  0  0  0  0  0  0  0  0  0  0
    8.1706   -1.7774   20.7296 N   0  0  0  0  0  0  0  0  0  0  0  0
    8.6230   -2.0756   21.9156 C   0  0  0  0  0  0  0  0  0  0  0  0
    9.7329   -3.2379   22.5612 S   0  0  0  0  0  0  0  0  0  0  0  0
    9.6518   -2.5068   24.1399 C   0  0  0  0  0  0  0  0  0  0  0  0
   10.2710   -2.9346   24.9180 H   0  0  0  0  0  0  0  0  0  0  0  0
    8.8080   -1.4635   24.1674 C   0  0  0  0  0  0  0  0  0  0  0  0
    8.5276   -0.8103   24.9883 H   0  0  0  0  0  0  0  0  0  0  0  0
    8.2209   -1.2327   22.9209 N   0  0  0  0  0  0  0  0  0  0  0  0
    7.4255   -0.2817   22.3016 C   0  0  0  0  0  0  0  0  0  0  0  0
    6.9525    0.8164   22.9814 N   0  0  0  0  0  0  0  0  0  0  0  0
    6.9111    1.7000   22.4960 H   0  0  0  0  0  0  0  0  0  0  0  0
    6.3983    0.8522   24.2606 C   0  0  0  0  0  0  0  0  0  0  0  0
    5.8336   -0.2816   24.8560 C   0  0  0  0  0  0  0  0  0  0  0  0
    5.8632   -1.2058   24.2840 H   0  0  0  0  0  0  0  0  0  0  0  0
    5.2917   -0.1948   26.1419 C   0  0  0  0  0  0  0  0  0  0  0  0
    4.8605   -1.0831   26.6015 H   0  0  0  0  0  0  0  0  0  0  0  0
    5.3117    1.0125   26.8606 C   0  0  0  0  0  0  0  0  0  0  0  0
    4.7188    1.0951   28.2520 C   0  0  0  0  0  0  0  0  0  0  0  0
    5.2154    1.8559   28.8652 H   0  0  0  0  0  0  0  0  0  0  0  0
    3.6518    1.3515   28.2212 H   0  0  0  0  0  0  0  0  0  0  0  0
    4.8004    0.1387   28.7824 H   0  0  0  0  0  0  0  0  0  0  0  0
    5.8753    2.1426   26.2367 C   0  0  0  0  0  0  0  0  0  0  0  0
    5.9066    3.0872   26.7779 H   0  0  0  0  0  0  0  0  0  0  0  0
    6.3978    2.0698   24.9437 C   0  0  0  0  0  0  0  0  0  0  0  0
    6.8407    2.9340   24.4483 H   0  0  0  0  0  0  0  0  0  0  0  0
    5.4185    0.6550   20.1421 C   0  0  0  0  0  0  0  0  0  0  0  0
    4.9829    0.6456   21.1428 H   0  0  0  0  0  0  0  0  0  0  0  0
    4.7933    1.3114   19.0857 C   0  0  0  0  0  0  0  0  0  0  0  0
    3.8619    1.8488   19.2236 H   0  0  0  0  0  0  0  0  0  0  0  0
  1  2  1  0
  2  3  2  0
  3  4  1  0
  4  5  1  0
  4  6  2  0
  6  7  1  0
  7  8  1  0
  8  9  2  0
  9 10  1  0
 10 11  1  0
 11 12  1  0
 11 13  2  0
 13 14  1  0
 13 15  1  0
 15 16  1  0
 16 17  1  0
 17 18  1  0
 17 19  1  0
 19 20  2  0
 20 21  1  0
 20 22  1  0
 22 23  1  0
 22 24  2  0
 24 25  1  0
 25 26  1  0
 25 27  1  0
 25 28  1  0
 24 29  1  0
 29 30  1  0
 29 31  2  0
 31 32  1  0
  6 33  1  0
 33 34  1  0
 33 35  2  0
 35 36  1  0
 35  2  1  0
 16  7  2  0
 31 19  1  0
 15  9  1  0
M  END
>  <cnnaffinity>  (1) 
-5.31827

>  <filename>  (1) 
Cc1ccc(Nc2c(-c3cccnc3)nc3sccn23)cc1

$$$$
