
     RDKit          3D

 34 36  0  0  0  0  0  0  0  0999 V2000
    4.9133    1.7861   16.9895 H   0  0  0  0  0  0  0  0  0  0  0  0
    5.3974    1.2978   17.8283 C   0  0  0  0  0  0  0  0  0  0  0  0
    6.5584    0.6808   17.5577 N   0  0  0  0  0  0  0  0  0  0  0  0
    7.1697    0.0778   18.5831 C   0  0  0  0  0  0  0  0  0  0  0  0
    8.1099   -0.4236   18.3610 H   0  0  0  0  0  0  0  0  0  0  0  0
    6.6600    0.0224   19.8925 C   0  0  0  0  0  0  0  0  0  0  0  0
    7.3898   -0.6901   20.9680 C   0  0  0  0  0  0  0  0  0  0  0  0
    6.6830   -1.5427   21.8691 C   0  0  0  0  0  0  0  0  0  0  0  0
    5.6041   -1.6652   21.7270 H   0  0  0  0  0  0  0  0  0  0  0  0
    7.3485   -2.2046   22.8509 C   0  0  0  0  0  0  0  0  0  0  0  0
    6.8566   -2.8544   23.5622 H   0  0  0  0  0  0  0  0  0  0  0  0
    8.7860   -2.0768   23.0463 C   0  0  0  0  0  0  0  0  0  0  0  0
    9.3937   -2.6578   23.9293 O   0  0  0  0  0  0  0  0  0  0  0  0
    9.4322   -1.2066   22.1155 N   0  0  0  0  0  0  0  0  0  0  0  0
   10.8593   -0.9909   22.2474 C   0  0  0  0  0  0  0  0  0  0  0  0
   11.7135   -1.6831   21.4007 C   0  0  0  0  0  0  0  0  0  0  0  0
   11.2304   -2.3277   20.6967 H   0  0  0  0  0  0  0  0  0  0  0  0
   13.1041   -1.5591   21.4864 C   0  0  0  0  0  0  0  0  0  0  0  0
   13.7488   -2.1127   20.8061 H   0  0  0  0  0  0  0  0  0  0  0  0
   13.6362   -0.7063   22.4533 C   0  0  0  0  0  0  0  0  0  0  0  0
   14.7126   -0.5956   22.5507 H   0  0  0  0  0  0  0  0  0  0  0  0
   12.7791   -0.0066   23.3111 C   0  0  0  0  0  0  0  0  0  0  0  0
   13.1887    0.6432   24.0771 H   0  0  0  0  0  0  0  0  0  0  0  0
   11.3816   -0.1315   23.2293 C   0  0  0  0  0  0  0  0  0  0  0  0
   10.4794    0.6177   24.1707 C   0  0  0  0  0  0  0  0  0  0  0  0
    9.6142    1.0256   23.6383 H   0  0  0  0  0  0  0  0  0  0  0  0
   10.0912   -0.0491   24.9470 H   0  0  0  0  0  0  0  0  0  0  0  0
   11.0149    1.4347   24.6585 H   0  0  0  0  0  0  0  0  0  0  0  0
    8.7424   -0.5541   21.1201 C   0  0  0  0  0  0  0  0  0  0  0  0
    9.3253    0.0969   20.4723 H   0  0  0  0  0  0  0  0  0  0  0  0
    5.4333    0.6524   20.1464 C   0  0  0  0  0  0  0  0  0  0  0  0
    5.0147    0.6351   21.1583 H   0  0  0  0  0  0  0  0  0  0  0  0
    4.8027    1.3169   19.0970 C   0  0  0  0  0  0  0  0  0  0  0  0
    3.8698    1.8461   19.2547 H   0  0  0  0  0  0  0  0  0  0  0  0
  1  2  1  0
  2  3  2  0
  3  4  1  0
  4  5  1  0
  4  6  2  0
  6  7  1  0
  7  8  1  0
  8  9  1  0
  8 10  2  0
 10 11  1  0
 10 12  1  0
 12 13  2  0
 12 14  1  0
 14 15  1  0
 15 16  2  0
 16 17  1  0
 16 18  1  0
 18 19  1  0
 18 20  2  0
 20 21  1  0
 20 22  1  0
 22 23  1  0
 22 24  2  0
 24 25  1  0
 25 26  1  0
 25 27  1  0
 25 28  1  0
 14 29  1  0
 29 30  1  0
  6 31  1  0
 31 32  1  0
 31 33  2  0
 33 34  1  0
 33  2  1  0
 29  7  2  0
 24 15  1  0
M  END
>  <cnnaffinity>  (1) 
-5.41018

>  <filename>  (1) 
Cc1ccccc1-n1cc(-c2cccnc2)ccc1=O

$$$$
