
     RDKit          3D

 38 41  0  0  0  0  0  0  0  0999 V2000
    5.0017    1.8266   16.9241 H   0  0  0  0  0  0  0  0  0  0  0  0
    5.3968    1.3030   17.7924 C   0  0  0  0  0  0  0  0  0  0  0  0
    6.5476    0.6344   17.6174 N   0  0  0  0  0  0  0  0  0  0  0  0
    7.0727    0.0182   18.6846 C   0  0  0  0  0  0  0  0  0  0  0  0
    8.0032   -0.5153   18.4999 H   0  0  0  0  0  0  0  0  0  0  0  0
    6.4911    0.0049   19.9652 C   0  0  0  0  0  0  0  0  0  0  0  0
    7.2552   -0.5913   21.0792 C   0  0  0  0  0  0  0  0  0  0  0  0
    8.6155   -0.5488   21.3040 C   0  0  0  0  0  0  0  0  0  0  0  0
    8.8209   -1.1476   22.5413 C   0  0  0  0  0  0  0  0  0  0  0  0
    7.7078   -1.6080   23.0757 N   0  0  0  0  0  0  0  0  0  0  0  0
    6.7571   -1.2550   22.1681 N   0  0  0  0  0  0  0  0  0  0  0  0
    5.7980   -1.5182   22.3534 H   0  0  0  0  0  0  0  0  0  0  0  0
   10.2369   -1.0699   23.0156 C   0  0  0  0  0  0  0  0  0  0  0  0
   10.6922   -2.0618   23.1002 H   0  0  0  0  0  0  0  0  0  0  0  0
   10.2954   -0.6027   24.0046 H   0  0  0  0  0  0  0  0  0  0  0  0
   10.9370   -0.2143   21.9042 C   0  0  2  0  0  0  0  0  0  0  0  0
   11.7451   -0.8187   21.4773 H   0  0  0  0  0  0  0  0  0  0  0  0
   11.5715    1.0633   22.4368 C   0  0  0  0  0  0  0  0  0  0  0  0
   12.9715    1.1817   22.3955 C   0  0  0  0  0  0  0  0  0  0  0  0
   13.5635    0.3375   22.0500 H   0  0  0  0  0  0  0  0  0  0  0  0
   13.6167    2.3506   22.7924 C   0  0  0  0  0  0  0  0  0  0  0  0
   14.6918    2.4200   22.6786 H   0  0  0  0  0  0  0  0  0  0  0  0
   12.8691    3.4345   23.2429 C   0  0  0  0  0  0  0  0  0  0  0  0
   13.3595    4.3602   23.5273 H   0  0  0  0  0  0  0  0  0  0  0  0
   11.4789    3.3201   23.3228 C   0  0  0  0  0  0  0  0  0  0  0  0
   10.8849    4.1705   23.6466 H   0  0  0  0  0  0  0  0  0  0  0  0
   10.8140    2.1302   22.9741 C   0  0  0  0  0  0  0  0  0  0  0  0
    9.3293    2.0505   23.2489 C   0  0  0  0  0  0  0  0  0  0  0  0
    8.7883    1.4809   22.4957 H   0  0  0  0  0  0  0  0  0  0  0  0
    9.1284    1.5870   24.2240 H   0  0  0  0  0  0  0  0  0  0  0  0
    8.8947    3.0527   23.2789 H   0  0  0  0  0  0  0  0  0  0  0  0
    9.8816    0.0115   20.7609 C   0  0  0  0  0  0  0  0  0  0  0  0
   10.1638   -0.5692   19.8804 H   0  0  0  0  0  0  0  0  0  0  0  0
    9.7905    1.0650   20.4584 H   0  0  0  0  0  0  0  0  0  0  0  0
    5.2639    0.6752   20.1155 C   0  0  0  0  0  0  0  0  0  0  0  0
    4.7633    0.6962   21.0814 H   0  0  0  0  0  0  0  0  0  0  0  0
    4.7185    1.3366   19.0154 C   0  0  0  0  0  0  0  0  0  0  0  0
    3.7994    1.9055   19.0944 H   0  0  0  0  0  0  0  0  0  0  0  0
  1  2  1  0
  2  3  2  0
  3  4  1  0
  4  5  1  0
  4  6  2  0
  6  7  1  0
  7  8  2  0
  8  9  1  0
  9 10  2  0
 10 11  1  0
 11 12  1  0
  9 13  1  0
 13 14  1  0
 13 15  1  0
 13 16  1  0
 16 17  1  6
 16 18  1  0
 18 19  2  0
 19 20  1  0
 19 21  1  0
 21 22  1  0
 21 23  2  0
 23 24  1  0
 23 25  1  0
 25 26  1  0
 25 27  2  0
 27 28  1  0
 28 29  1  0
 28 30  1  0
 28 31  1  0
 16 32  1  0
 32 33  1  0
 32 34  1  0
  6 35  1  0
 35 36  1  0
 35 37  2  0
 37 38  1  0
 37  2  1  0
 11  7  1  0
 27 18  1  0
 32  8  1  0
M  END
>  <cnnaffinity>  (1) 
-5.63896

>  <filename>  (1) 
Cc1ccccc1[C@H]1Cc2n[nH]c(-c3cccnc3)c2C1

$$$$
