
     RDKit          3D

 31 33  0  0  0  0  0  0  0  0999 V2000
    9.1148   -2.2525   24.0406 H   0  0  0  0  0  0  0  0  0  0  0  0
    8.6844   -1.7132   23.2008 C   0  0  0  0  0  0  0  0  0  0  0  0
    8.8805   -2.2227   21.9741 N   0  0  0  0  0  0  0  0  0  0  0  0
    8.2929   -1.5638   20.9633 C   0  0  0  0  0  0  0  0  0  0  0  0
    8.5043   -1.9274   19.9696 H   0  0  0  0  0  0  0  0  0  0  0  0
    7.4383   -0.4470   21.1540 C   0  0  0  0  0  0  0  0  0  0  0  0
    6.6622    0.1786   20.0423 C   0  0  0  0  0  0  0  0  0  0  0  0
    7.1995    0.1602   18.7454 C   0  0  0  0  0  0  0  0  0  0  0  0
    8.1614   -0.3173   18.5658 H   0  0  0  0  0  0  0  0  0  0  0  0
    6.6141    0.7028   17.6754 N   0  0  0  0  0  0  0  0  0  0  0  0
    5.4238    1.2907   17.8673 C   0  0  0  0  0  0  0  0  0  0  0  0
    4.9594    1.7190   16.9836 H   0  0  0  0  0  0  0  0  0  0  0  0
    4.7827    1.3551   19.1093 C   0  0  0  0  0  0  0  0  0  0  0  0
    3.8187    1.8463   19.1928 H   0  0  0  0  0  0  0  0  0  0  0  0
    5.4158    0.8034   20.2232 C   0  0  0  0  0  0  0  0  0  0  0  0
    4.9577    0.8658   21.2146 H   0  0  0  0  0  0  0  0  0  0  0  0
    7.2858    0.0780   22.3834 N   0  0  0  0  0  0  0  0  0  0  0  0
    7.9428   -0.5265   23.4121 C   0  0  0  0  0  0  0  0  0  0  0  0
    7.9086    0.0080   24.8138 C   0  0  0  0  0  0  0  0  0  0  0  0
    8.9607   -0.3596   25.5786 N   0  0  0  0  0  0  0  0  0  0  0  0
    9.0302    0.0727   26.8357 C   0  0  0  0  0  0  0  0  0  0  0  0
    9.9062   -0.2466   27.3987 H   0  0  0  0  0  0  0  0  0  0  0  0
    8.0438    0.8770   27.4066 C   0  0  0  0  0  0  0  0  0  0  0  0
    8.1645    1.2181   28.4258 H   0  0  0  0  0  0  0  0  0  0  0  0
    6.9401    1.2355   26.6332 C   0  0  0  0  0  0  0  0  0  0  0  0
    6.1608    1.8654   27.0650 H   0  0  0  0  0  0  0  0  0  0  0  0
    6.8312    0.7913   25.3104 C   0  0  0  0  0  0  0  0  0  0  0  0
    5.6351    1.1726   24.4741 C   0  0  0  0  0  0  0  0  0  0  0  0
    4.7842    1.4972   25.0783 H   0  0  0  0  0  0  0  0  0  0  0  0
    5.3324    0.3344   23.8473 H   0  0  0  0  0  0  0  0  0  0  0  0
    5.9092    1.9916   23.8025 H   0  0  0  0  0  0  0  0  0  0  0  0
  1  2  1  0
  2  3  2  0
  3  4  1  0
  4  5  1  0
  4  6  2  0
  6  7  1  0
  7  8  2  0
  8  9  1  0
  8 10  1  0
 10 11  2  0
 11 12  1  0
 11 13  1  0
 13 14  1  0
 13 15  2  0
 15 16  1  0
  6 17  1  0
 17 18  2  0
 18 19  1  0
 19 20  2  0
 20 21  1  0
 21 22  1  0
 21 23  2  0
 23 24  1  0
 23 25  1  0
 25 26  1  0
 25 27  2  0
 27 28  1  0
 28 29  1  0
 28 30  1  0
 28 31  1  0
 18  2  1  0
 27 19  1  0
 15  7  1  0
M  END
>  <cnnaffinity>  (1) 
-5.03041

>  <filename>  (1) 
Cc1cccnc1-c1cncc(-c2cccnc2)n1

$$$$
