
     RDKit          3D

 36 38  0  0  0  0  0  0  0  0999 V2000
    4.8288   -6.1299   21.3718 C   0  0  0  0  0  0  0  0  0  0  0  0
    5.9665   -5.8865   22.3212 C   0  0  0  0  0  0  0  0  0  0  0  0
    7.0540   -6.7567   22.4795 C   0  0  0  0  0  0  0  0  0  0  0  0
    8.1451   -6.3765   23.2830 C   0  0  0  0  0  0  0  0  0  0  0  0
    8.1676   -5.1238   23.9097 C   0  0  0  0  0  0  0  0  0  0  0  0
    7.0569   -4.2756   23.7793 C   0  0  0  0  0  0  0  0  0  0  0  0
    7.0728   -2.6209   24.4532 S   0  0  0  0  0  0  0  0  0  0  0  0
    7.7394   -1.8069   23.0201 C   0  0  0  0  0  0  0  0  0  0  0  0
    6.9040   -1.3034   22.0273 C   0  0  0  0  0  0  0  0  0  0  0  0
    7.5271   -0.6873   20.9491 C   0  0  0  0  0  0  0  0  0  0  0  0
    6.7403   -0.0133   19.8914 C   0  0  0  0  0  0  0  0  0  0  0  0
    5.5082    0.6266   20.1262 C   0  0  0  0  0  0  0  0  0  0  0  0
    4.8853    1.2808   19.0637 C   0  0  0  0  0  0  0  0  0  0  0  0
    5.4933    1.2543   17.8046 C   0  0  0  0  0  0  0  0  0  0  0  0
    6.6548    0.6306   17.5592 N   0  0  0  0  0  0  0  0  0  0  0  0
    7.2611    0.0305   18.5887 C   0  0  0  0  0  0  0  0  0  0  0  0
    8.2159   -0.4402   18.3668 H   0  0  0  0  0  0  0  0  0  0  0  0
    5.0281    1.7554   16.9577 H   0  0  0  0  0  0  0  0  0  0  0  0
    3.9529    1.8219   19.1955 H   0  0  0  0  0  0  0  0  0  0  0  0
    5.0509    0.6508   21.1184 H   0  0  0  0  0  0  0  0  0  0  0  0
    8.8596   -0.6990   20.8203 N   0  0  0  0  0  0  0  0  0  0  0  0
    9.5626   -1.2104   21.8237 C   0  0  0  0  0  0  0  0  0  0  0  0
   11.0518   -1.1981   21.7421 C   0  0  0  0  0  0  0  0  0  0  0  0
   11.4391   -0.4074   22.3914 H   0  0  0  0  0  0  0  0  0  0  0  0
   11.3736   -1.0254   20.7177 H   0  0  0  0  0  0  0  0  0  0  0  0
   11.4329   -2.1511   22.1181 H   0  0  0  0  0  0  0  0  0  0  0  0
    9.0593   -1.7434   22.9394 N   0  0  0  0  0  0  0  0  0  0  0  0
    5.8372   -1.4246   22.0689 H   0  0  0  0  0  0  0  0  0  0  0  0
    5.9516   -4.6793   23.0279 C   0  0  0  0  0  0  0  0  0  0  0  0
    5.0602   -4.0557   22.9603 H   0  0  0  0  0  0  0  0  0  0  0  0
    9.0375   -4.7686   24.4684 H   0  0  0  0  0  0  0  0  0  0  0  0
    8.9871   -7.0543   23.4130 H   0  0  0  0  0  0  0  0  0  0  0  0
    7.0462   -7.7079   21.9412 H   0  0  0  0  0  0  0  0  0  0  0  0
    3.8942   -5.7870   21.8281 H   0  0  0  0  0  0  0  0  0  0  0  0
    4.9730   -5.5597   20.4445 H   0  0  0  0  0  0  0  0  0  0  0  0
    4.7218   -7.1752   21.0923 H   0  0  0  0  0  0  0  0  0  0  0  0
  1  2  1  0
  2  3  2  0
  3  4  1  0
  4  5  2  0
  5  6  1  0
  6  7  1  0
  7  8  1  0
  8  9  2  0
  9 10  1  0
 10 11  1  0
 11 12  2  0
 12 13  1  0
 13 14  2  0
 14 15  1  0
 15 16  2  0
 16 17  1  0
 14 18  1  0
 13 19  1  0
 12 20  1  0
 10 21  2  0
 21 22  1  0
 22 23  1  0
 23 24  1  0
 23 25  1  0
 23 26  1  0
 22 27  2  0
  9 28  1  0
  6 29  2  0
 29 30  1  0
  5 31  1  0
  4 32  1  0
  3 33  1  0
  1 34  1  0
  1 35  1  0
  1 36  1  0
 29  2  1  0
 27  8  1  0
 16 11  1  0
M  END
>  <cnnaffinity>  (1) 
-5.2696

>  <filename>  (1) 
Cc1cccc(Sc2cc(-c3cccnc3)nc(C)n2)c1

$$$$
