
     RDKit          3D

 36 38  0  0  0  0  0  0  0  0999 V2000
    4.9089    1.7956   16.9872 H   0  0  0  0  0  0  0  0  0  0  0  0
    5.3905    1.3000   17.8284 C   0  0  0  0  0  0  0  0  0  0  0  0
    6.5496    0.6802   17.5542 N   0  0  0  0  0  0  0  0  0  0  0  0
    7.1778    0.0740   18.5690 C   0  0  0  0  0  0  0  0  0  0  0  0
    8.1224   -0.4157   18.3455 H   0  0  0  0  0  0  0  0  0  0  0  0
    6.6780    0.0337   19.8876 C   0  0  0  0  0  0  0  0  0  0  0  0
    7.3657   -0.6714   20.9577 N   0  0  0  0  0  0  0  0  0  0  0  0
    6.7690   -1.8375   21.5186 C   0  0  0  0  0  0  0  0  0  0  0  0
    5.7061   -2.2533   21.1021 O   0  0  0  0  0  0  0  0  0  0  0  0
    7.4925   -2.4991   22.5555 C   0  0  0  0  0  0  0  0  0  0  0  0
    7.0480   -3.3756   22.9780 H   0  0  0  0  0  0  0  0  0  0  0  0
    8.6722   -2.0418   22.9842 C   0  0  0  0  0  0  0  0  0  0  0  0
    9.3955   -2.5715   24.0033 N   0  0  0  0  0  0  0  0  0  0  0  0
   10.3900   -2.5775   23.8777 H   0  0  0  0  0  0  0  0  0  0  0  0
    8.8570   -3.3314   25.0652 C   0  0  0  0  0  0  0  0  0  0  0  0
    7.6282   -2.9602   25.6312 C   0  0  0  0  0  0  0  0  0  0  0  0
    7.1056   -2.1058   25.2121 H   0  0  0  0  0  0  0  0  0  0  0  0
    7.0987   -3.6693   26.7097 C   0  0  0  0  0  0  0  0  0  0  0  0
    6.1429   -3.3675   27.1303 H   0  0  0  0  0  0  0  0  0  0  0  0
    7.7676   -4.7737   27.2564 C   0  0  0  0  0  0  0  0  0  0  0  0
    7.1651   -5.5528   28.4043 C   0  0  0  0  0  0  0  0  0  0  0  0
    6.5408   -4.9193   29.0441 H   0  0  0  0  0  0  0  0  0  0  0  0
    7.9307   -6.0094   29.0392 H   0  0  0  0  0  0  0  0  0  0  0  0
    6.5253   -6.3667   28.0434 H   0  0  0  0  0  0  0  0  0  0  0  0
    8.9960   -5.1353   26.6822 C   0  0  0  0  0  0  0  0  0  0  0  0
    9.5274   -5.9868   27.0981 H   0  0  0  0  0  0  0  0  0  0  0  0
    9.5460   -4.4261   25.6034 C   0  0  0  0  0  0  0  0  0  0  0  0
   10.5003   -4.7355   25.1833 H   0  0  0  0  0  0  0  0  0  0  0  0
    9.2350   -0.9781   22.3555 N   0  0  0  0  0  0  0  0  0  0  0  0
   10.0752   -0.5150   22.6437 H   0  0  0  0  0  0  0  0  0  0  0  0
    8.6122   -0.2285   21.3928 C   0  0  0  0  0  0  0  0  0  0  0  0
    9.1845    0.7441   20.9585 O   0  0  0  0  0  0  0  0  0  0  0  0
    5.4577    0.6544   20.1524 C   0  0  0  0  0  0  0  0  0  0  0  0
    5.0338    0.6023   21.1547 H   0  0  0  0  0  0  0  0  0  0  0  0
    4.8115    1.3165   19.1012 C   0  0  0  0  0  0  0  0  0  0  0  0
    3.8775    1.8402   19.2565 H   0  0  0  0  0  0  0  0  0  0  0  0
  1  2  1  0
  2  3  2  0
  3  4  1  0
  4  5  1  0
  4  6  2  0
  6  7  1  0
  7  8  1  0
  8  9  2  0
  8 10  1  0
 10 11  1  0
 10 12  2  0
 12 13  1  0
 13 14  1  0
 13 15  1  0
 15 16  2  0
 16 17  1  0
 16 18  1  0
 18 19  1  0
 18 20  2  0
 20 21  1  0
 21 22  1  0
 21 23  1  0
 21 24  1  0
 20 25  1  0
 25 26  1  0
 25 27  2  0
 27 28  1  0
 12 29  1  0
 29 30  1  0
 29 31  1  0
 31 32  2  0
  6 33  1  0
 33 34  1  0
 33 35  2  0
 35 36  1  0
 35  2  1  0
 31  7  1  0
 27 15  1  0
M  END
>  <cnnaffinity>  (1) 
-5.50681

>  <filename>  (1) 
Cc1ccc(Nc2cc(=O)n(-c3cccnc3)c(=O)[nH]2)cc1

$$$$
