
     RDKit          3D

 38 40  0  0  0  0  0  0  0  0999 V2000
    4.9441    1.8032   16.9851 H   0  0  0  0  0  0  0  0  0  0  0  0
    5.3915    1.2950   17.8377 C   0  0  0  0  0  0  0  0  0  0  0  0
    6.5438    0.6589   17.5911 N   0  0  0  0  0  0  0  0  0  0  0  0
    7.1300    0.0252   18.6112 C   0  0  0  0  0  0  0  0  0  0  0  0
    8.1038   -0.4127   18.4041 H   0  0  0  0  0  0  0  0  0  0  0  0
    6.5848   -0.0475   19.9119 C   0  0  0  0  0  0  0  0  0  0  0  0
    7.2908   -0.7780   21.0154 C   0  0  0  0  0  0  0  0  0  0  0  0
    6.5654   -1.5727   21.7722 N   0  0  0  0  0  0  0  0  0  0  0  0
    7.1707   -2.1810   22.8238 N   0  0  0  0  0  0  0  0  0  0  0  0
    6.4711   -3.0771   23.5794 N   0  0  0  0  0  0  0  0  0  0  0  0
    6.3273   -2.7961   25.0264 C   0  0  0  0  0  0  0  0  0  0  0  0
    5.4888   -2.0983   25.1926 H   0  0  0  0  0  0  0  0  0  0  0  0
    7.2234   -2.2647   25.3768 H   0  0  0  0  0  0  0  0  0  0  0  0
    6.1274   -4.1291   25.7754 C   0  0  0  0  0  0  0  0  0  0  0  0
    5.9999   -3.9429   26.8508 H   0  0  0  0  0  0  0  0  0  0  0  0
    7.0451   -4.7259   25.6571 H   0  0  0  0  0  0  0  0  0  0  0  0
    4.9274   -4.9399   25.2264 C   0  0  0  0  0  0  0  0  0  0  0  0
    4.9906   -5.9532   25.6540 H   0  0  0  0  0  0  0  0  0  0  0  0
    3.5737   -4.3525   25.6601 C   0  0  0  0  0  0  0  0  0  0  0  0
    3.4211   -3.3402   25.2669 H   0  0  0  0  0  0  0  0  0  0  0  0
    3.5006   -4.2937   26.7540 H   0  0  0  0  0  0  0  0  0  0  0  0
    2.7410   -4.9722   25.3039 H   0  0  0  0  0  0  0  0  0  0  0  0
    5.0540   -5.0762   23.6863 C   0  0  0  0  0  0  0  0  0  0  0  0
    4.1542   -5.5565   23.2786 H   0  0  0  0  0  0  0  0  0  0  0  0
    5.9074   -5.7295   23.4519 H   0  0  0  0  0  0  0  0  0  0  0  0
    5.2978   -3.7244   22.9718 C   0  0  0  0  0  0  0  0  0  0  0  0
    4.4114   -3.0742   23.0401 H   0  0  0  0  0  0  0  0  0  0  0  0
    5.5276   -3.8536   21.9084 H   0  0  0  0  0  0  0  0  0  0  0  0
    8.5227   -2.1246   23.0396 C   0  0  0  0  0  0  0  0  0  0  0  0
    8.7977   -2.7858   23.8566 H   0  0  0  0  0  0  0  0  0  0  0  0
    9.3350   -1.3741   22.2937 C   0  0  0  0  0  0  0  0  0  0  0  0
   10.4003   -1.2900   22.4379 H   0  0  0  0  0  0  0  0  0  0  0  0
    8.7665   -0.5957   21.2168 C   0  0  0  0  0  0  0  0  0  0  0  0
    9.4677    0.1454   20.5282 O   0  0  0  0  0  0  0  0  0  0  0  0
    5.3813    0.6295   20.1508 C   0  0  0  0  0  0  0  0  0  0  0  0
    4.9571    0.6370   21.1558 H   0  0  0  0  0  0  0  0  0  0  0  0
    4.7796    1.3200   19.0954 C   0  0  0  0  0  0  0  0  0  0  0  0
    3.8587    1.8770   19.2263 H   0  0  0  0  0  0  0  0  0  0  0  0
  1  2  1  0
  2  3  2  0
  3  4  1  0
  4  5  1  0
  4  6  2  0
  6  7  1  0
  7  8  2  0
  8  9  1  0
  9 10  1  0
 10 11  1  0
 11 12  1  0
 11 13  1  0
 11 14  1  0
 14 15  1  0
 14 16  1  0
 14 17  1  0
 17 18  1  0
 17 19  1  0
 19 20  1  0
 19 21  1  0
 19 22  1  0
 17 23  1  0
 23 24  1  0
 23 25  1  0
 23 26  1  0
 26 27  1  0
 26 28  1  0
  9 29  1  0
 29 30  1  0
 29 31  2  0
 31 32  1  0
 31 33  1  0
 33 34  2  0
  6 35  1  0
 35 36  1  0
 35 37  2  0
 37 38  1  0
 37  2  1  0
 33  7  1  0
 26 10  1  0
M  END
>  <cnnaffinity>  (1) 
-5.32789

>  <filename>  (1) 
CC1CCN(n2ccc(=O)c(-c3cccnc3)n2)CC1

$$$$
