
     RDKit          3D

 32 34  0  0  0  0  0  0  0  0999 V2000
    4.9715    1.8308   17.0040 H   0  0  0  0  0  0  0  0  0  0  0  0
    5.3988    1.2905   17.8470 C   0  0  0  0  0  0  0  0  0  0  0  0
    6.5499    0.6458   17.6037 N   0  0  0  0  0  0  0  0  0  0  0  0
    7.1110   -0.0130   18.6190 C   0  0  0  0  0  0  0  0  0  0  0  0
    8.0718   -0.4879   18.4184 H   0  0  0  0  0  0  0  0  0  0  0  0
    6.5518   -0.0942   19.9089 C   0  0  0  0  0  0  0  0  0  0  0  0
    7.2574   -0.8325   20.9995 C   0  0  0  0  0  0  0  0  0  0  0  0
    6.5126   -1.6127   21.7484 N   0  0  0  0  0  0  0  0  0  0  0  0
    7.1036   -2.3358   22.7719 N   0  0  0  0  0  0  0  0  0  0  0  0
    6.2942   -3.1818   23.6102 C   0  0  0  0  0  0  0  0  0  0  0  0
    6.9245   -3.7238   24.6621 N   0  0  0  0  0  0  0  0  0  0  0  0
    6.2051   -4.4226   25.5358 C   0  0  0  0  0  0  0  0  0  0  0  0
    6.7593   -4.8249   26.3832 H   0  0  0  0  0  0  0  0  0  0  0  0
    4.8346   -4.5979   25.4167 C   0  0  0  0  0  0  0  0  0  0  0  0
    4.2879   -5.1649   26.1575 H   0  0  0  0  0  0  0  0  0  0  0  0
    4.1490   -4.0493   24.3229 C   0  0  0  0  0  0  0  0  0  0  0  0
    2.6361   -4.1732   24.3504 C   0  0  0  0  0  0  0  0  0  0  0  0
    2.3671   -5.0881   24.8843 H   0  0  0  0  0  0  0  0  0  0  0  0
    2.1189   -4.2298   23.3923 H   0  0  0  0  0  0  0  0  0  0  0  0
    2.1908   -3.3356   24.9006 H   0  0  0  0  0  0  0  0  0  0  0  0
    4.9221   -3.3830   23.3640 C   0  0  0  0  0  0  0  0  0  0  0  0
    4.5351   -2.9641   22.4472 H   0  0  0  0  0  0  0  0  0  0  0  0
    8.4621   -2.2026   23.0496 C   0  0  0  0  0  0  0  0  0  0  0  0
    8.8097   -2.7853   23.8996 H   0  0  0  0  0  0  0  0  0  0  0  0
    9.2760   -1.4259   22.3280 C   0  0  0  0  0  0  0  0  0  0  0  0
   10.3336   -1.3352   22.5310 H   0  0  0  0  0  0  0  0  0  0  0  0
    8.7531   -0.6462   21.2157 C   0  0  0  0  0  0  0  0  0  0  0  0
    9.4769    0.0791   20.5414 O   0  0  0  0  0  0  0  0  0  0  0  0
    5.3417    0.5719   20.1445 C   0  0  0  0  0  0  0  0  0  0  0  0
    4.8970    0.5274   21.1394 H   0  0  0  0  0  0  0  0  0  0  0  0
    4.7648    1.2885   19.0933 C   0  0  0  0  0  0  0  0  0  0  0  0
    3.8481    1.8532   19.2224 H   0  0  0  0  0  0  0  0  0  0  0  0
  1  2  1  0
  2  3  2  0
  3  4  1  0
  4  5  1  0
  4  6  2  0
  6  7  1  0
  7  8  2  0
  8  9  1  0
  9 10  1  0
 10 11  2  0
 11 12  1  0
 12 13  1  0
 12 14  2  0
 14 15  1  0
 14 16  1  0
 16 17  1  0
 17 18  1  0
 17 19  1  0
 17 20  1  0
 16 21  2  0
 21 22  1  0
  9 23  1  0
 23 24  1  0
 23 25  2  0
 25 26  1  0
 25 27  1  0
 27 28  2  0
  6 29  1  0
 29 30  1  0
 29 31  2  0
 31 32  1  0
 31  2  1  0
 27  7  1  0
 21 10  1  0
M  END
>  <cnnaffinity>  (1) 
-5.09593

>  <filename>  (1) 
Cc1ccnc(-n2ccc(=O)c(-c3cccnc3)n2)c1

$$$$
