
     RDKit          3D

 37 38  0  0  0  0  0  0  0  0999 V2000
    4.9868    1.8267   16.9701 H   0  0  0  0  0  0  0  0  0  0  0  0
    5.4724    1.3197   17.8010 C   0  0  0  0  0  0  0  0  0  0  0  0
    6.6520    0.7328   17.5308 N   0  0  0  0  0  0  0  0  0  0  0  0
    7.2797    0.1005   18.5322 C   0  0  0  0  0  0  0  0  0  0  0  0
    8.2312   -0.3707   18.2863 H   0  0  0  0  0  0  0  0  0  0  0  0
    6.7620   -0.0114   19.8406 C   0  0  0  0  0  0  0  0  0  0  0  0
    7.4699   -0.6995   20.8755 N   0  0  0  0  0  0  0  0  0  0  0  0
    8.3455   -0.3076   21.1850 H   0  0  0  0  0  0  0  0  0  0  0  0
    6.8856   -1.5755   21.7697 C   0  0  0  0  0  0  0  0  0  0  0  0
    5.8011   -2.0744   21.5396 O   0  0  0  0  0  0  0  0  0  0  0  0
    7.7563   -2.0051   22.9996 C   0  0  0  0  0  0  0  0  0  0  0  0
    8.6785   -0.8815   23.5700 C   0  0  0  0  0  0  0  0  0  0  0  0
    9.9957   -1.1917   23.9775 C   0  0  0  0  0  0  0  0  0  0  0  0
   10.3901   -2.1932   23.8310 H   0  0  0  0  0  0  0  0  0  0  0  0
   10.8252   -0.2443   24.5859 C   0  0  0  0  0  0  0  0  0  0  0  0
   11.8107   -0.5214   24.9528 H   0  0  0  0  0  0  0  0  0  0  0  0
   10.3757    1.0608   24.7621 C   0  0  0  0  0  0  0  0  0  0  0  0
   11.0210    1.8111   25.2142 H   0  0  0  0  0  0  0  0  0  0  0  0
    9.0715    1.3859   24.3910 C   0  0  0  0  0  0  0  0  0  0  0  0
    8.7055    2.3976   24.5610 H   0  0  0  0  0  0  0  0  0  0  0  0
    8.1909    0.4340   23.8433 C   0  0  0  0  0  0  0  0  0  0  0  0
    6.7718    0.9047   23.6107 C   0  0  0  0  0  0  0  0  0  0  0  0
    6.6560    1.3078   22.5983 H   0  0  0  0  0  0  0  0  0  0  0  0
    6.5297    1.7219   24.2983 H   0  0  0  0  0  0  0  0  0  0  0  0
    6.0223    0.1238   23.7531 H   0  0  0  0  0  0  0  0  0  0  0  0
    8.5221   -3.2607   22.4694 C   0  0  0  0  0  0  0  0  0  0  0  0
    7.8078   -3.9777   22.0428 H   0  0  0  0  0  0  0  0  0  0  0  0
    9.2480   -3.0084   21.6877 H   0  0  0  0  0  0  0  0  0  0  0  0
    9.0474   -3.7864   23.2734 H   0  0  0  0  0  0  0  0  0  0  0  0
    6.8415   -2.4848   24.1506 C   0  0  0  0  0  0  0  0  0  0  0  0
    6.2988   -1.6600   24.6199 H   0  0  0  0  0  0  0  0  0  0  0  0
    6.1101   -3.2103   23.7845 H   0  0  0  0  0  0  0  0  0  0  0  0
    7.4459   -2.9563   24.9327 H   0  0  0  0  0  0  0  0  0  0  0  0
    5.5248    0.5941   20.0986 C   0  0  0  0  0  0  0  0  0  0  0  0
    5.0926    0.5130   21.0957 H   0  0  0  0  0  0  0  0  0  0  0  0
    4.8741    1.2772   19.0642 C   0  0  0  0  0  0  0  0  0  0  0  0
    3.9310    1.7894   19.2285 H   0  0  0  0  0  0  0  0  0  0  0  0
  1  2  1  0
  2  3  2  0
  3  4  1  0
  4  5  1  0
  4  6  2  0
  6  7  1  0
  7  8  1  0
  7  9  1  0
  9 10  2  0
  9 11  1  0
 11 12  1  0
 12 13  2  0
 13 14  1  0
 13 15  1  0
 15 16  1  0
 15 17  2  0
 17 18  1  0
 17 19  1  0
 19 20  1  0
 19 21  2  0
 21 22  1  0
 22 23  1  0
 22 24  1  0
 22 25  1  0
 11 26  1  0
 26 27  1  0
 26 28  1  0
 26 29  1  0
 11 30  1  0
 30 31  1  0
 30 32  1  0
 30 33  1  0
  6 34  1  0
 34 35  1  0
 34 36  2  0
 36 37  1  0
 36  2  1  0
 21 12  1  0
M  END
>  <cnnaffinity>  (1) 
-5.04113

>  <filename>  (1) 
Cc1ccccc1C(C)(C)C(=O)Nc1cccnc1

$$$$
