
     RDKit          3D

 31 33  0  0  0  0  0  0  0  0999 V2000
    4.9412    1.8148   16.9553 H   0  0  0  0  0  0  0  0  0  0  0  0
    5.3961    1.3006   17.7994 C   0  0  0  0  0  0  0  0  0  0  0  0
    6.5563    0.6704   17.5543 N   0  0  0  0  0  0  0  0  0  0  0  0
    7.1568    0.0545   18.5804 C   0  0  0  0  0  0  0  0  0  0  0  0
    8.1141   -0.4000   18.3328 H   0  0  0  0  0  0  0  0  0  0  0  0
    6.6366    0.0107   19.8897 C   0  0  0  0  0  0  0  0  0  0  0  0
    7.3302   -0.6350   21.0057 C   0  0  0  0  0  0  0  0  0  0  0  0
    7.2312   -0.4172   22.3401 C   0  0  0  0  0  0  0  0  0  0  0  0
    6.6409    0.2767   22.9221 H   0  0  0  0  0  0  0  0  0  0  0  0
    8.0933   -1.2972   22.9965 N   0  0  0  0  0  0  0  0  0  0  0  0
    8.2813   -1.4117   24.3888 C   0  0  0  0  0  0  0  0  0  0  0  0
    8.2569   -0.2660   25.1924 C   0  0  0  0  0  0  0  0  0  0  0  0
    8.1113    0.7086   24.7410 H   0  0  0  0  0  0  0  0  0  0  0  0
    8.4353   -0.4250   26.5626 C   0  0  0  0  0  0  0  0  0  0  0  0
    8.4192    0.4551   27.2079 H   0  0  0  0  0  0  0  0  0  0  0  0
    8.6180   -1.6148   27.1653 N   0  0  0  0  0  0  0  0  0  0  0  0
    8.6360   -2.6986   26.3774 C   0  0  0  0  0  0  0  0  0  0  0  0
    8.8192   -4.0578   26.9871 C   0  0  0  0  0  0  0  0  0  0  0  0
    7.9117   -4.6531   26.8500 H   0  0  0  0  0  0  0  0  0  0  0  0
    9.0450   -4.0339   28.0463 H   0  0  0  0  0  0  0  0  0  0  0  0
    9.6296   -4.5838   26.4745 H   0  0  0  0  0  0  0  0  0  0  0  0
    8.4879   -2.6461   24.9838 C   0  0  0  0  0  0  0  0  0  0  0  0
    8.5464   -3.5455   24.3772 H   0  0  0  0  0  0  0  0  0  0  0  0
    8.7273   -2.1073   22.0584 C   0  0  0  0  0  0  0  0  0  0  0  0
    9.4878   -3.0435   22.2139 O   0  0  0  0  0  0  0  0  0  0  0  0
    8.2866   -1.6335   20.8521 N   0  0  0  0  0  0  0  0  0  0  0  0
    8.5451   -2.1905   20.0576 H   0  0  0  0  0  0  0  0  0  0  0  0
    5.4114    0.6657   20.1135 C   0  0  0  0  0  0  0  0  0  0  0  0
    4.9637    0.6581   21.1073 H   0  0  0  0  0  0  0  0  0  0  0  0
    4.7835    1.3197   19.0565 C   0  0  0  0  0  0  0  0  0  0  0  0
    3.8539    1.8604   19.1989 H   0  0  0  0  0  0  0  0  0  0  0  0
  1  2  1  0
  2  3  2  0
  3  4  1  0
  4  5  1  0
  4  6  2  0
  6  7  1  0
  7  8  2  0
  8  9  1  0
  8 10  1  0
 10 11  1  0
 11 12  2  0
 12 13  1  0
 12 14  1  0
 14 15  1  0
 14 16  2  0
 16 17  1  0
 17 18  1  0
 18 19  1  0
 18 20  1  0
 18 21  1  0
 17 22  2  0
 22 23  1  0
 10 24  1  0
 24 25  2  0
 24 26  1  0
 26 27  1  0
  6 28  1  0
 28 29  1  0
 28 30  2  0
 30 31  1  0
 30  2  1  0
 26  7  1  0
 22 11  1  0
M  END
>  <cnnaffinity>  (1) 
-5.46792

>  <filename>  (1) 
Cc1cc(-n2cc(-c3cccnc3)[nH]c2=O)ccn1

$$$$
