
     RDKit          3D

 35 37  0  0  0  0  0  0  0  0999 V2000
    4.9582    1.8432   16.9380 H   0  0  0  0  0  0  0  0  0  0  0  0
    5.4159    1.3191   17.7747 C   0  0  0  0  0  0  0  0  0  0  0  0
    6.5830    0.7053   17.5222 N   0  0  0  0  0  0  0  0  0  0  0  0
    7.1677    0.0702   18.5463 C   0  0  0  0  0  0  0  0  0  0  0  0
    8.1204   -0.4058   18.3167 H   0  0  0  0  0  0  0  0  0  0  0  0
    6.6333   -0.0109   19.8496 C   0  0  0  0  0  0  0  0  0  0  0  0
    7.3578   -0.7018   21.0004 C   0  0  2  0  0  0  0  0  0  0  0  0
    8.1522   -1.3268   20.5746 H   0  0  0  0  0  0  0  0  0  0  0  0
    6.4925   -1.6747   21.8209 C   0  0  0  0  0  0  0  0  0  0  0  0
    5.7805   -2.5748   21.4226 O   0  0  0  0  0  0  0  0  0  0  0  0
    6.7165   -1.4045   23.1301 N   0  0  0  0  0  0  0  0  0  0  0  0
    6.0791   -1.8377   23.7774 H   0  0  0  0  0  0  0  0  0  0  0  0
    7.5639   -0.2758   23.4372 C   0  0  0  0  0  0  0  0  0  0  0  0
    8.4365   -0.5876   24.0289 H   0  0  0  0  0  0  0  0  0  0  0  0
    7.0333    0.4644   24.0499 H   0  0  0  0  0  0  0  0  0  0  0  0
    7.9476    0.2938   22.0445 C   0  0  1  0  0  0  0  0  0  0  0  0
    7.4284    1.2560   21.9384 H   0  0  0  0  0  0  0  0  0  0  0  0
    9.4385    0.5395   21.8714 C   0  0  0  0  0  0  0  0  0  0  0  0
    9.9247    1.8330   21.6154 C   0  0  0  0  0  0  0  0  0  0  0  0
    9.2310    2.6570   21.4494 H   0  0  0  0  0  0  0  0  0  0  0  0
   11.2996    2.0673   21.5745 C   0  0  0  0  0  0  0  0  0  0  0  0
   11.6747    3.0702   21.3887 H   0  0  0  0  0  0  0  0  0  0  0  0
   12.1926    1.0171   21.7730 C   0  0  0  0  0  0  0  0  0  0  0  0
   13.2619    1.2033   21.7895 H   0  0  0  0  0  0  0  0  0  0  0  0
   11.7412   -0.3051   21.9275 C   0  0  0  0  0  0  0  0  0  0  0  0
   12.7409   -1.4438   21.9138 C   0  0  0  0  0  0  0  0  0  0  0  0
   13.5445   -1.2907   22.6439 H   0  0  0  0  0  0  0  0  0  0  0  0
   12.2750   -2.4113   22.1204 H   0  0  0  0  0  0  0  0  0  0  0  0
   13.2292   -1.5179   20.9353 H   0  0  0  0  0  0  0  0  0  0  0  0
   10.3573   -0.5169   22.0040 C   0  0  0  0  0  0  0  0  0  0  0  0
    9.9831   -1.5307   22.1604 H   0  0  0  0  0  0  0  0  0  0  0  0
    5.4159    0.6402   20.0859 C   0  0  0  0  0  0  0  0  0  0  0  0
    4.9717    0.6309   21.0849 H   0  0  0  0  0  0  0  0  0  0  0  0
    4.7973    1.3123   19.0287 C   0  0  0  0  0  0  0  0  0  0  0  0
    3.8660    1.8481   19.1714 H   0  0  0  0  0  0  0  0  0  0  0  0
  1  2  1  0
  2  3  2  0
  3  4  1  0
  4  5  1  0
  4  6  2  0
  6  7  1  0
  7  8  1  6
  7  9  1  0
  9 10  2  0
  9 11  1  0
 11 12  1  0
 11 13  1  0
 13 14  1  0
 13 15  1  0
 13 16  1  0
 16 17  1  6
 16 18  1  0
 18 19  2  0
 19 20  1  0
 19 21  1  0
 21 22  1  0
 21 23  2  0
 23 24  1  0
 23 25  1  0
 25 26  1  0
 26 27  1  0
 26 28  1  0
 26 29  1  0
 25 30  2  0
 30 31  1  0
  6 32  1  0
 32 33  1  0
 32 34  2  0
 34 35  1  0
 34  2  1  0
 16  7  1  0
 30 18  1  0
M  END
>  <cnnaffinity>  (1) 
-5.21286

>  <filename>  (1) 
Cc1cccc([C@@H]2CNC(=O)[C@H]2c2cccnc2)c1

$$$$
