
     RDKit          3D

 35 37  0  0  0  0  0  0  0  0999 V2000
    4.9335    1.7992   16.9951 H   0  0  0  0  0  0  0  0  0  0  0  0
    5.3971    1.2899   17.8331 C   0  0  0  0  0  0  0  0  0  0  0  0
    6.5511    0.6594   17.5641 N   0  0  0  0  0  0  0  0  0  0  0  0
    7.1718    0.0439   18.5771 C   0  0  0  0  0  0  0  0  0  0  0  0
    8.1252   -0.4332   18.3549 H   0  0  0  0  0  0  0  0  0  0  0  0
    6.6526    0.0028   19.8871 C   0  0  0  0  0  0  0  0  0  0  0  0
    7.3343   -0.6784   20.9410 N   0  0  0  0  0  0  0  0  0  0  0  0
    6.7333   -1.5977   21.7885 C   0  0  0  0  0  0  0  0  0  0  0  0
    5.6850   -1.8366   21.6861 H   0  0  0  0  0  0  0  0  0  0  0  0
    7.6719   -2.0590   22.6500 C   0  0  0  0  0  0  0  0  0  0  0  0
    7.5510   -3.0004   23.7652 C   0  0  0  0  0  0  0  0  0  0  0  0
    6.2792   -3.2362   24.3054 C   0  0  0  0  0  0  0  0  0  0  0  0
    5.4266   -2.6912   23.9118 H   0  0  0  0  0  0  0  0  0  0  0  0
    6.1103   -4.1494   25.3441 C   0  0  0  0  0  0  0  0  0  0  0  0
    5.1158   -4.3387   25.7465 H   0  0  0  0  0  0  0  0  0  0  0  0
    7.2020   -4.8422   25.8836 C   0  0  0  0  0  0  0  0  0  0  0  0
    6.9879   -5.8199   27.0091 C   0  0  0  0  0  0  0  0  0  0  0  0
    7.4172   -6.7941   26.7586 H   0  0  0  0  0  0  0  0  0  0  0  0
    7.4725   -5.4844   27.9350 H   0  0  0  0  0  0  0  0  0  0  0  0
    5.9224   -5.9584   27.2145 H   0  0  0  0  0  0  0  0  0  0  0  0
    8.4982   -4.6084   25.3548 C   0  0  0  0  0  0  0  0  0  0  0  0
    9.7114   -5.3356   25.9004 C   0  0  0  0  0  0  0  0  0  0  0  0
   10.6368   -4.9537   25.4579 H   0  0  0  0  0  0  0  0  0  0  0  0
    9.7952   -5.2255   26.9889 H   0  0  0  0  0  0  0  0  0  0  0  0
    9.6700   -6.4136   25.6933 H   0  0  0  0  0  0  0  0  0  0  0  0
    8.6466   -3.6952   24.3077 C   0  0  0  0  0  0  0  0  0  0  0  0
    9.6444   -3.5370   23.9025 H   0  0  0  0  0  0  0  0  0  0  0  0
    8.8462   -1.4094   22.2955 N   0  0  0  0  0  0  0  0  0  0  0  0
    9.7457   -1.3991   22.7419 H   0  0  0  0  0  0  0  0  0  0  0  0
    8.6545   -0.5109   21.3006 C   0  0  0  0  0  0  0  0  0  0  0  0
    9.8149    0.5517   20.7835 S   0  0  0  0  0  0  0  0  0  0  0  0
    5.4413    0.6478   20.1535 C   0  0  0  0  0  0  0  0  0  0  0  0
    5.0406    0.6334   21.1703 H   0  0  0  0  0  0  0  0  0  0  0  0
    4.8047    1.3118   19.1020 C   0  0  0  0  0  0  0  0  0  0  0  0
    3.8736    1.8463   19.2565 H   0  0  0  0  0  0  0  0  0  0  0  0
  1  2  1  0
  2  3  2  0
  3  4  1  0
  4  5  1  0
  4  6  2  0
  6  7  1  0
  7  8  1  0
  8  9  1  0
  8 10  2  0
 10 11  1  0
 11 12  2  0
 12 13  1  0
 12 14  1  0
 14 15  1  0
 14 16  2  0
 16 17  1  0
 17 18  1  0
 17 19  1  0
 17 20  1  0
 16 21  1  0
 21 22  1  0
 22 23  1  0
 22 24  1  0
 22 25  1  0
 21 26  2  0
 26 27  1  0
 10 28  1  0
 28 29  1  0
 28 30  1  0
 30 31  2  0
  6 32  1  0
 32 33  1  0
 32 34  2  0
 34 35  1  0
 34  2  1  0
 30  7  1  0
 26 11  1  0
M  END
>  <cnnaffinity>  (1) 
-5.71654

>  <filename>  (1) 
Cc1ccc(-c2cn(-c3cccnc3)c(=S)[nH]2)cc1C

$$$$
