
     RDKit          3D

 35 38  0  0  0  0  0  0  0  0999 V2000
    5.0133    1.8359   16.7976 H   0  0  0  0  0  0  0  0  0  0  0  0
    5.4632    1.3320   17.6507 C   0  0  0  0  0  0  0  0  0  0  0  0
    6.6228    0.6961   17.4232 N   0  0  0  0  0  0  0  0  0  0  0  0
    7.2008    0.0689   18.4554 C   0  0  0  0  0  0  0  0  0  0  0  0
    8.1419   -0.4305   18.2323 H   0  0  0  0  0  0  0  0  0  0  0  0
    6.6558    0.0325   19.7561 C   0  0  0  0  0  0  0  0  0  0  0  0
    7.3305   -0.6787   20.8662 C   0  0  0  0  0  0  0  0  0  0  0  0
    8.4955   -1.3264   20.6882 N   0  0  0  0  0  0  0  0  0  0  0  0
    8.7587   -1.8118   21.9215 N   0  0  0  0  0  0  0  0  0  0  0  0
    9.7676   -2.5721   22.4855 C   0  0  0  0  0  0  0  0  0  0  0  0
   10.6228   -2.8408   21.8974 H   0  0  0  0  0  0  0  0  0  0  0  0
    9.4090   -2.7584   23.7865 C   0  0  0  0  0  0  0  0  0  0  0  0
    9.8720   -3.3523   24.5557 H   0  0  0  0  0  0  0  0  0  0  0  0
    8.2072   -2.0974   24.0332 N   0  0  0  0  0  0  0  0  0  0  0  0
    7.4407   -1.9799   25.2333 C   0  0  0  0  0  0  0  0  0  0  0  0
    6.0922   -2.3747   25.2059 C   0  0  0  0  0  0  0  0  0  0  0  0
    5.7009   -2.8696   24.3197 H   0  0  0  0  0  0  0  0  0  0  0  0
    5.2698   -2.1436   26.3131 C   0  0  0  0  0  0  0  0  0  0  0  0
    4.2525   -2.5252   26.3180 H   0  0  0  0  0  0  0  0  0  0  0  0
    5.7546   -1.4282   27.4117 C   0  0  0  0  0  0  0  0  0  0  0  0
    5.0901   -1.1838   28.2399 H   0  0  0  0  0  0  0  0  0  0  0  0
    7.1008   -1.0585   27.4439 C   0  0  0  0  0  0  0  0  0  0  0  0
    7.5035   -0.4817   28.2738 H   0  0  0  0  0  0  0  0  0  0  0  0
    7.9825   -1.4110   26.4053 C   0  0  0  0  0  0  0  0  0  0  0  0
    9.4603   -1.1931   26.6071 C   0  0  0  0  0  0  0  0  0  0  0  0
   10.0181   -1.1573   25.6680 H   0  0  0  0  0  0  0  0  0  0  0  0
    9.8653   -1.9978   27.2330 H   0  0  0  0  0  0  0  0  0  0  0  0
    9.6613   -0.2558   27.1308 H   0  0  0  0  0  0  0  0  0  0  0  0
    7.8227   -1.5143   22.8394 C   0  0  0  0  0  0  0  0  0  0  0  0
    6.8588   -0.7595   22.2004 C   0  0  0  0  0  0  0  0  0  0  0  0
    5.9746   -0.3247   22.6254 H   0  0  0  0  0  0  0  0  0  0  0  0
    5.4394    0.7065   19.9678 C   0  0  0  0  0  0  0  0  0  0  0  0
    4.9722    0.7237   20.9544 H   0  0  0  0  0  0  0  0  0  0  0  0
    4.8350    1.3624   18.9000 C   0  0  0  0  0  0  0  0  0  0  0  0
    3.9008    1.8988   19.0279 H   0  0  0  0  0  0  0  0  0  0  0  0
  1  2  1  0
  2  3  2  0
  3  4  1  0
  4  5  1  0
  4  6  2  0
  6  7  1  0
  7  8  2  0
  8  9  1  0
  9 10  1  0
 10 11  1  0
 10 12  2  0
 12 13  1  0
 12 14  1  0
 14 15  1  0
 15 16  2  0
 16 17  1  0
 16 18  1  0
 18 19  1  0
 18 20  2  0
 20 21  1  0
 20 22  1  0
 22 23  1  0
 22 24  2  0
 24 25  1  0
 25 26  1  0
 25 27  1  0
 25 28  1  0
 14 29  1  0
 29 30  2  0
 30 31  1  0
  6 32  1  0
 32 33  1  0
 32 34  2  0
 34 35  1  0
 34  2  1  0
 30  7  1  0
 29  9  1  0
 24 15  1  0
M  END
>  <cnnaffinity>  (1) 
-5.61016

>  <filename>  (1) 
Cc1ccccc1-n1ccn2nc(-c3cccnc3)cc12

$$$$
