
     RDKit          3D

 35 37  0  0  0  0  0  0  0  0999 V2000
    4.9203    1.8004   16.9696 H   0  0  0  0  0  0  0  0  0  0  0  0
    5.3921    1.3029   17.8168 C   0  0  0  0  0  0  0  0  0  0  0  0
    6.5578    0.6845   17.5619 N   0  0  0  0  0  0  0  0  0  0  0  0
    7.1707    0.0722   18.5841 C   0  0  0  0  0  0  0  0  0  0  0  0
    8.1079   -0.4223   18.3305 H   0  0  0  0  0  0  0  0  0  0  0  0
    6.6657    0.0204   19.8979 C   0  0  0  0  0  0  0  0  0  0  0  0
    7.3393   -0.6984   20.9791 C   0  0  0  0  0  0  0  0  0  0  0  0
    6.8205   -1.2294   22.1046 C   0  0  0  0  0  0  0  0  0  0  0  0
    5.7988   -1.3007   22.3887 H   0  0  0  0  0  0  0  0  0  0  0  0
    7.8339   -1.8006   22.8598 N   0  0  0  0  0  0  0  0  0  0  0  0
    7.6597   -2.4563   24.1072 C   0  0  0  0  0  0  0  0  0  0  0  0
    6.7087   -1.9802   25.0163 C   0  0  0  0  0  0  0  0  0  0  0  0
    6.1067   -1.1082   24.7679 H   0  0  0  0  0  0  0  0  0  0  0  0
    6.5558   -2.6338   26.2409 C   0  0  0  0  0  0  0  0  0  0  0  0
    5.8218   -2.2728   26.9592 H   0  0  0  0  0  0  0  0  0  0  0  0
    7.3177   -3.7636   26.5700 C   0  0  0  0  0  0  0  0  0  0  0  0
    7.1257   -4.4581   27.8973 C   0  0  0  0  0  0  0  0  0  0  0  0
    6.9502   -5.5344   27.7918 H   0  0  0  0  0  0  0  0  0  0  0  0
    8.0201   -4.3607   28.5224 H   0  0  0  0  0  0  0  0  0  0  0  0
    6.2734   -4.0493   28.4476 H   0  0  0  0  0  0  0  0  0  0  0  0
    8.2788   -4.2356   25.6408 C   0  0  0  0  0  0  0  0  0  0  0  0
    9.1389   -5.4349   25.9617 C   0  0  0  0  0  0  0  0  0  0  0  0
    9.8911   -5.6036   25.1867 H   0  0  0  0  0  0  0  0  0  0  0  0
    9.6620   -5.3175   26.9178 H   0  0  0  0  0  0  0  0  0  0  0  0
    8.5356   -6.3458   26.0481 H   0  0  0  0  0  0  0  0  0  0  0  0
    8.4322   -3.5797   24.4163 C   0  0  0  0  0  0  0  0  0  0  0  0
    9.1717   -3.9102   23.6913 H   0  0  0  0  0  0  0  0  0  0  0  0
    9.0433   -1.6379   22.1768 C   0  0  0  0  0  0  0  0  0  0  0  0
   10.1737   -1.9670   22.4722 O   0  0  0  0  0  0  0  0  0  0  0  0
    8.6949   -0.9827   21.0207 N   0  0  0  0  0  0  0  0  0  0  0  0
    9.4380   -0.6858   20.4217 H   0  0  0  0  0  0  0  0  0  0  0  0
    5.4372    0.6651   20.1346 C   0  0  0  0  0  0  0  0  0  0  0  0
    5.0054    0.6602   21.1362 H   0  0  0  0  0  0  0  0  0  0  0  0
    4.7977    1.3205   19.0836 C   0  0  0  0  0  0  0  0  0  0  0  0
    3.8642    1.8512   19.2318 H   0  0  0  0  0  0  0  0  0  0  0  0
  1  2  1  0
  2  3  2  0
  3  4  1  0
  4  5  1  0
  4  6  2  0
  6  7  1  0
  7  8  2  0
  8  9  1  0
  8 10  1  0
 10 11  1  0
 11 12  2  0
 12 13  1  0
 12 14  1  0
 14 15  1  0
 14 16  2  0
 16 17  1  0
 17 18  1  0
 17 19  1  0
 17 20  1  0
 16 21  1  0
 21 22  1  0
 22 23  1  0
 22 24  1  0
 22 25  1  0
 21 26  2  0
 26 27  1  0
 10 28  1  0
 28 29  2  0
 28 30  1  0
 30 31  1  0
  6 32  1  0
 32 33  1  0
 32 34  2  0
 34 35  1  0
 34  2  1  0
 30  7  1  0
 26 11  1  0
M  END
>  <cnnaffinity>  (1) 
-5.46161

>  <filename>  (1) 
Cc1ccc(-n2cc(-c3cccnc3)[nH]c2=O)cc1C

$$$$
