
     RDKit          3D

 38 40  0  0  0  0  0  0  0  0999 V2000
    9.3396    0.6742   20.7670 C   0  0  0  0  0  0  0  0  0  0  0  0
    8.5823   -0.4631   21.3832 C   0  0  0  0  0  0  0  0  0  0  0  0
    9.1510   -1.2392   22.3849 C   0  0  0  0  0  0  0  0  0  0  0  0
    8.5481   -2.2567   22.9799 N   0  0  0  0  0  0  0  0  0  0  0  0
    7.3036   -2.4769   22.5647 C   0  0  0  0  0  0  0  0  0  0  0  0
    6.6102   -3.4908   23.1102 N   0  0  0  0  0  0  0  0  0  0  0  0
    7.0246   -4.1844   24.3238 C   0  0  2  0  0  0  0  0  0  0  0  0
    6.1794   -5.4476   24.5154 C   0  0  0  0  0  0  0  0  0  0  0  0
    6.6007   -6.2028   25.7885 C   0  0  0  0  0  0  0  0  0  0  0  0
    6.6260   -5.2788   27.0060 C   0  0  0  0  0  0  0  0  0  0  0  0
    7.4350   -4.1396   26.7588 O   0  0  0  0  0  0  0  0  0  0  0  0
    7.0080   -3.3597   25.6455 C   0  0  0  0  0  0  0  0  0  0  0  0
    7.7119   -2.5290   25.5712 H   0  0  0  0  0  0  0  0  0  0  0  0
    5.9939   -2.9536   25.8210 H   0  0  0  0  0  0  0  0  0  0  0  0
    5.6049   -4.9671   27.2889 H   0  0  0  0  0  0  0  0  0  0  0  0
    7.0688   -5.7824   27.8726 H   0  0  0  0  0  0  0  0  0  0  0  0
    7.6169   -6.5986   25.6610 H   0  0  0  0  0  0  0  0  0  0  0  0
    5.9413   -7.0556   25.9784 H   0  0  0  0  0  0  0  0  0  0  0  0
    6.2873   -6.0777   23.6240 H   0  0  0  0  0  0  0  0  0  0  0  0
    5.1230   -5.1437   24.5820 H   0  0  0  0  0  0  0  0  0  0  0  0
    8.0673   -4.4779   24.1599 H   0  0  0  0  0  0  0  0  0  0  0  0
    5.6534   -3.3120   22.8618 H   0  0  0  0  0  0  0  0  0  0  0  0
    6.6107   -1.8148   21.6396 N   0  0  0  0  0  0  0  0  0  0  0  0
    7.2621   -0.8325   21.0391 C   0  0  0  0  0  0  0  0  0  0  0  0
    6.5397   -0.1096   19.9832 C   0  0  0  0  0  0  0  0  0  0  0  0
    5.3315    0.5661   20.1892 C   0  0  0  0  0  0  0  0  0  0  0  0
    4.7892    1.2770   19.1194 C   0  0  0  0  0  0  0  0  0  0  0  0
    5.4468    1.2586   17.8848 C   0  0  0  0  0  0  0  0  0  0  0  0
    6.5844    0.5841   17.6694 N   0  0  0  0  0  0  0  0  0  0  0  0
    7.1090   -0.0763   18.7068 C   0  0  0  0  0  0  0  0  0  0  0  0
    8.0567   -0.5812   18.5113 H   0  0  0  0  0  0  0  0  0  0  0  0
    5.0454    1.8072   17.0356 H   0  0  0  0  0  0  0  0  0  0  0  0
    3.8903    1.8681   19.2322 H   0  0  0  0  0  0  0  0  0  0  0  0
    4.8570    0.5669   21.1718 H   0  0  0  0  0  0  0  0  0  0  0  0
   10.1618   -1.0020   22.7322 H   0  0  0  0  0  0  0  0  0  0  0  0
    8.7074    1.5597   20.6751 H   0  0  0  0  0  0  0  0  0  0  0  0
    9.6399    0.4042   19.7559 H   0  0  0  0  0  0  0  0  0  0  0  0
   10.2303    0.9115   21.3531 H   0  0  0  0  0  0  0  0  0  0  0  0
  1  2  1  0
  2  3  2  0
  3  4  1  0
  4  5  2  0
  5  6  1  0
  6  7  1  0
  7  8  1  0
  8  9  1  0
  9 10  1  0
 10 11  1  0
 11 12  1  0
 12 13  1  0
 12 14  1  0
 10 15  1  0
 10 16  1  0
  9 17  1  0
  9 18  1  0
  8 19  1  0
  8 20  1  0
  7 21  1  6
  6 22  1  0
  5 23  1  0
 23 24  2  0
 24 25  1  0
 25 26  2  0
 26 27  1  0
 27 28  2  0
 28 29  1  0
 29 30  2  0
 30 31  1  0
 28 32  1  0
 27 33  1  0
 26 34  1  0
  3 35  1  0
  1 36  1  0
  1 37  1  0
  1 38  1  0
 24  2  1  0
 30 25  1  0
 12  7  1  0
M  END
>  <cnnaffinity>  (1) 
-5.14738

>  <filename>  (1) 
Cc1cnc(N[C@@H]2CCCOC2)nc1-c1cccnc1

$$$$
