
     RDKit          3D

 37 39  0  0  0  0  0  0  0  0999 V2000
    5.0880    1.7895   16.8728 H   0  0  0  0  0  0  0  0  0  0  0  0
    5.5251    1.2780   17.7285 C   0  0  0  0  0  0  0  0  0  0  0  0
    6.6626    0.6028   17.4981 N   0  0  0  0  0  0  0  0  0  0  0  0
    7.2286   -0.0196   18.5394 C   0  0  0  0  0  0  0  0  0  0  0  0
    8.1465   -0.5656   18.3215 H   0  0  0  0  0  0  0  0  0  0  0  0
    6.7034   -0.0318   19.8489 C   0  0  0  0  0  0  0  0  0  0  0  0
    7.3894   -0.7613   20.9515 C   0  0  0  0  0  0  0  0  0  0  0  0
    8.8105   -0.6753   21.1064 C   0  0  0  0  0  0  0  0  0  0  0  0
    9.3749   -0.0084   20.4523 H   0  0  0  0  0  0  0  0  0  0  0  0
    9.4396   -1.3905   22.0742 C   0  0  0  0  0  0  0  0  0  0  0  0
   10.5033   -1.3485   22.2564 H   0  0  0  0  0  0  0  0  0  0  0  0
    8.7343   -2.2986   22.9685 C   0  0  0  0  0  0  0  0  0  0  0  0
    9.3295   -2.9553   23.8101 O   0  0  0  0  0  0  0  0  0  0  0  0
    7.3112   -2.3195   22.8046 N   0  0  0  0  0  0  0  0  0  0  0  0
    6.5532   -3.0789   23.7434 C   0  0  0  0  0  0  0  0  0  0  0  0
    5.7079   -2.5264   24.6331 C   0  0  0  0  0  0  0  0  0  0  0  0
    5.6355   -1.4431   24.6984 H   0  0  0  0  0  0  0  0  0  0  0  0
    4.8722   -3.3456   25.4714 C   0  0  0  0  0  0  0  0  0  0  0  0
    4.1266   -2.8662   26.1112 H   0  0  0  0  0  0  0  0  0  0  0  0
    4.9755   -4.6839   25.4901 C   0  0  0  0  0  0  0  0  0  0  0  0
    4.0229   -5.6270   26.1780 C   0  0  0  0  0  0  0  0  0  0  0  0
    3.6424   -6.3826   25.4770 H   0  0  0  0  0  0  0  0  0  0  0  0
    4.4666   -6.1651   27.0318 H   0  0  0  0  0  0  0  0  0  0  0  0
    3.1555   -5.0902   26.5852 H   0  0  0  0  0  0  0  0  0  0  0  0
    6.4087   -5.4584   24.5318 C   0  0  0  0  0  0  0  0  0  0  0  0
    6.7211   -5.5312   24.8094 C   0  0  0  0  0  0  0  0  0  0  0  0
    7.8155   -5.9780   25.0648 H   0  0  0  0  0  0  0  0  0  0  0  0
    7.2485   -5.1904   25.8610 H   0  0  0  0  0  0  0  0  0  0  0  0
    5.9762   -6.6612   24.9089 H   0  0  0  0  0  0  0  0  0  0  0  0
    6.7235   -4.5386   23.6252 C   0  0  0  0  0  0  0  0  0  0  0  0
    7.0648   -4.9090   22.6934 H   0  0  0  0  0  0  0  0  0  0  0  0
    6.6912   -1.5324   21.8380 C   0  0  0  0  0  0  0  0  0  0  0  0
    5.6059   -1.5581   21.7902 H   0  0  0  0  0  0  0  0  0  0  0  0
    5.5026    0.6654   20.0564 C   0  0  0  0  0  0  0  0  0  0  0  0
    5.0577    0.7044   21.0520 H   0  0  0  0  0  0  0  0  0  0  0  0
    4.9104    1.3353   18.9826 C   0  0  0  0  0  0  0  0  0  0  0  0
    3.9942    1.9017   19.1062 H   0  0  0  0  0  0  0  0  0  0  0  0
  1  2  1  0
  2  3  2  0
  3  4  1  0
  4  5  1  0
  4  6  2  0
  6  7  1  0
  7  8  1  0
  8  9  1  0
  8 10  2  0
 10 11  1  0
 10 12  1  0
 12 13  2  0
 12 14  1  0
 14 15  1  0
 15 16  2  0
 16 17  1  0
 16 18  1  0
 18 19  1  0
 18 20  2  0
 20 21  1  0
 21 22  1  0
 21 23  1  0
 21 24  1  0
 20 25  1  0
 25 26  1  0
 26 27  1  0
 26 28  1  0
 26 29  1  0
 25 30  2  0
 30 31  1  0
 14 32  1  0
 32 33  1  0
  6 34  1  0
 34 35  1  0
 34 36  2  0
 36 37  1  0
 36  2  1  0
 32  7  2  0
 30 15  1  0
M  END
>  <cnnaffinity>  (1) 
-5.36374

>  <filename>  (1) 
Cc1ccc(-n2cc(-c3cccnc3)ccc2=O)cc1C

$$$$
