
     RDKit          3D

 38 40  0  0  0  0  0  0  0  0999 V2000
    7.7312   -4.2125   26.0527 C   0  0  0  0  0  0  0  0  0  0  0  0
    7.5019   -2.8161   25.5471 C   0  0  0  0  0  0  0  0  0  0  0  0
    6.5056   -2.0240   26.0984 C   0  0  0  0  0  0  0  0  0  0  0  0
    6.2930   -0.7395   25.5970 C   0  0  0  0  0  0  0  0  0  0  0  0
    7.0162   -0.2092   24.6026 N   0  0  0  0  0  0  0  0  0  0  0  0
    7.9943   -0.9584   24.0680 C   0  0  0  0  0  0  0  0  0  0  0  0
    8.7450   -0.3906   23.0317 N   0  0  0  0  0  0  0  0  0  0  0  0
   10.1521   -0.0005   23.2029 C   0  0  0  0  0  0  0  0  0  0  0  0
   10.3855    1.1343   22.2059 C   0  0  0  0  0  0  0  0  0  0  0  0
    9.2686    1.0154   21.1814 C   0  0  0  0  0  0  0  0  0  0  0  0
    8.1126    0.3169   21.9109 C   0  0  0  0  0  0  0  0  0  0  0  0
    7.3862   -0.6864   21.0098 C   0  0  0  0  0  0  0  0  0  0  0  0
    6.6571    0.0166   19.8904 C   0  0  0  0  0  0  0  0  0  0  0  0
    5.4432    0.6494   20.1586 C   0  0  0  0  0  0  0  0  0  0  0  0
    4.8180    1.3058   19.0988 C   0  0  0  0  0  0  0  0  0  0  0  0
    5.4021    1.2957   17.8221 C   0  0  0  0  0  0  0  0  0  0  0  0
    6.5685    0.6763   17.5573 N   0  0  0  0  0  0  0  0  0  0  0  0
    7.1808    0.0592   18.5831 C   0  0  0  0  0  0  0  0  0  0  0  0
    8.1288   -0.4354   18.3989 H   0  0  0  0  0  0  0  0  0  0  0  0
    4.8851    1.8001   17.0115 H   0  0  0  0  0  0  0  0  0  0  0  0
    3.8822    1.8311   19.2588 H   0  0  0  0  0  0  0  0  0  0  0  0
    5.0122    0.6361   21.1634 H   0  0  0  0  0  0  0  0  0  0  0  0
    8.1050   -1.4051   20.6001 H   0  0  0  0  0  0  0  0  0  0  0  0
    6.6702   -1.2503   21.6169 H   0  0  0  0  0  0  0  0  0  0  0  0
    7.4120    1.0748   22.2781 H   0  0  0  0  0  0  0  0  0  0  0  0
    8.9736    1.9969   20.8016 H   0  0  0  0  0  0  0  0  0  0  0  0
    9.6122    0.4252   20.3271 H   0  0  0  0  0  0  0  0  0  0  0  0
   10.3249    2.1034   22.7081 H   0  0  0  0  0  0  0  0  0  0  0  0
   11.3721    1.0748   21.7367 H   0  0  0  0  0  0  0  0  0  0  0  0
   10.3658    0.3479   24.2165 H   0  0  0  0  0  0  0  0  0  0  0  0
   10.8175   -0.8372   22.9752 H   0  0  0  0  0  0  0  0  0  0  0  0
    8.2578   -2.2736   24.5045 C   0  0  0  0  0  0  0  0  0  0  0  0
    9.5986   -3.3439   23.6396 Br  0  0  0  0  0  0  0  0  0  0  0  0
    5.5003   -0.1588   26.0498 H   0  0  0  0  0  0  0  0  0  0  0  0
    5.8894   -2.4038   26.9052 H   0  0  0  0  0  0  0  0  0  0  0  0
    8.7728   -4.3372   26.3575 H   0  0  0  0  0  0  0  0  0  0  0  0
    7.5122   -4.9363   25.2649 H   0  0  0  0  0  0  0  0  0  0  0  0
    7.0911   -4.4333   26.9113 H   0  0  0  0  0  0  0  0  0  0  0  0
  1  2  1  0
  2  3  2  0
  3  4  1  0
  4  5  2  0
  5  6  1  0
  6  7  1  0
  7  8  1  0
  8  9  1  0
  9 10  1  0
 10 11  1  0
 11 12  1  0
 12 13  1  0
 13 14  2  0
 14 15  1  0
 15 16  2  0
 16 17  1  0
 17 18  2  0
 18 19  1  0
 16 20  1  0
 15 21  1  0
 14 22  1  0
 12 23  1  0
 12 24  1  0
 11 25  1  0
 10 26  1  0
 10 27  1  0
  9 28  1  0
  9 29  1  0
  8 30  1  0
  8 31  1  0
  6 32  2  0
 32 33  1  0
  4 34  1  0
  3 35  1  0
  1 36  1  0
  1 37  1  0
  1 38  1  0
 32  2  1  0
 11  7  1  0
 18 13  1  0
M  END
>  <cnnaffinity>  (1) 
-5.57423

>  <filename>  (1) 
Cc1ccnc(N2CCCC2Cc2cccnc2)c1Br

$$$$
