
     RDKit          3D

 33 36  0  0  0  0  0  0  0  0999 V2000
    4.9099    1.7703   17.0070 H   0  0  0  0  0  0  0  0  0  0  0  0
    5.4058    1.2877   17.8483 C   0  0  0  0  0  0  0  0  0  0  0  0
    6.5746    0.6744   17.5945 N   0  0  0  0  0  0  0  0  0  0  0  0
    7.1846    0.0549   18.6125 C   0  0  0  0  0  0  0  0  0  0  0  0
    8.1318   -0.4367   18.3824 H   0  0  0  0  0  0  0  0  0  0  0  0
    6.6530    0.0116   19.9088 C   0  0  0  0  0  0  0  0  0  0  0  0
    7.3630   -0.6902   20.9698 C   0  0  0  0  0  0  0  0  0  0  0  0
    8.5453   -1.3324   20.7599 N   0  0  0  0  0  0  0  0  0  0  0  0
    8.7977   -1.8010   21.9615 C   0  0  0  0  0  0  0  0  0  0  0  0
   10.0457   -2.7289   22.7456 S   0  0  0  0  0  0  0  0  0  0  0  0
    9.1698   -2.6130   24.2536 C   0  0  0  0  0  0  0  0  0  0  0  0
    9.5551   -3.0963   25.1357 H   0  0  0  0  0  0  0  0  0  0  0  0
    8.0226   -1.9040   24.1556 C   0  0  0  0  0  0  0  0  0  0  0  0
    7.0206   -1.6456   25.2113 C   0  0  0  0  0  0  0  0  0  0  0  0
    5.6651   -1.9407   24.9705 C   0  0  0  0  0  0  0  0  0  0  0  0
    5.3755   -2.3243   23.9968 H   0  0  0  0  0  0  0  0  0  0  0  0
    4.7109   -1.7572   25.9643 C   0  0  0  0  0  0  0  0  0  0  0  0
    3.6712   -1.9860   25.7612 H   0  0  0  0  0  0  0  0  0  0  0  0
    5.0945   -1.2841   27.2193 C   0  0  0  0  0  0  0  0  0  0  0  0
    4.3510   -1.1482   28.0000 H   0  0  0  0  0  0  0  0  0  0  0  0
    6.4341   -0.9826   27.4661 C   0  0  0  0  0  0  0  0  0  0  0  0
    6.7186   -0.6073   28.4468 H   0  0  0  0  0  0  0  0  0  0  0  0
    7.4133   -1.1401   26.4754 C   0  0  0  0  0  0  0  0  0  0  0  0
    8.8383   -0.7603   26.7885 C   0  0  0  0  0  0  0  0  0  0  0  0
    9.3309   -0.3118   25.9228 H   0  0  0  0  0  0  0  0  0  0  0  0
    8.8831   -0.0373   27.6067 H   0  0  0  0  0  0  0  0  0  0  0  0
    9.4059   -1.6444   27.0954 H   0  0  0  0  0  0  0  0  0  0  0  0
    7.8288   -1.4773   22.8392 N   0  0  0  0  0  0  0  0  0  0  0  0
    6.8782   -0.7419   22.2073 N   0  0  0  0  0  0  0  0  0  0  0  0
    5.4363    0.6548   20.1628 C   0  0  0  0  0  0  0  0  0  0  0  0
    5.0060    0.6301   21.1629 H   0  0  0  0  0  0  0  0  0  0  0  0
    4.8056    1.3103   19.1132 C   0  0  0  0  0  0  0  0  0  0  0  0
    3.8713    1.8455   19.2672 H   0  0  0  0  0  0  0  0  0  0  0  0
  1  2  1  0
  2  3  2  0
  3  4  1  0
  4  5  1  0
  4  6  2  0
  6  7  1  0
  7  8  1  0
  8  9  2  0
  9 10  1  0
 10 11  1  0
 11 12  1  0
 11 13  2  0
 13 14  1  0
 14 15  2  0
 15 16  1  0
 15 17  1  0
 17 18  1  0
 17 19  2  0
 19 20  1  0
 19 21  1  0
 21 22  1  0
 21 23  2  0
 23 24  1  0
 24 25  1  0
 24 26  1  0
 24 27  1  0
 13 28  1  0
 28 29  1  0
  6 30  1  0
 30 31  1  0
 30 32  2  0
 32 33  1  0
 32  2  1  0
 29  7  2  0
 28  9  1  0
 23 14  1  0
M  END
>  <cnnaffinity>  (1) 
-5.48201

>  <filename>  (1) 
Cc1ccccc1-c1csc2nc(-c3cccnc3)nn12

$$$$
