
     RDKit          3D

 33 35  0  0  0  0  0  0  0  0999 V2000
    4.9114    1.7990   16.9792 H   0  0  0  0  0  0  0  0  0  0  0  0
    5.3877    1.3054   17.8199 C   0  0  0  0  0  0  0  0  0  0  0  0
    6.5527    0.6906   17.5510 N   0  0  0  0  0  0  0  0  0  0  0  0
    7.1578    0.0649   18.5673 C   0  0  0  0  0  0  0  0  0  0  0  0
    8.1153   -0.3999   18.3351 H   0  0  0  0  0  0  0  0  0  0  0  0
    6.6503    0.0139   19.8829 C   0  0  0  0  0  0  0  0  0  0  0  0
    7.3697   -0.6557   20.9738 C   0  0  0  0  0  0  0  0  0  0  0  0
    7.5147   -0.3221   22.3161 C   0  0  0  0  0  0  0  0  0  0  0  0
    7.0256    0.8312   22.9322 N   0  0  0  0  0  0  0  0  0  0  0  0
    6.9832    1.6476   22.3460 H   0  0  0  0  0  0  0  0  0  0  0  0
    6.8179    1.0254   24.2979 C   0  0  0  0  0  0  0  0  0  0  0  0
    6.3536   -0.0309   25.0941 C   0  0  0  0  0  0  0  0  0  0  0  0
    6.1750   -0.9825   24.6049 H   0  0  0  0  0  0  0  0  0  0  0  0
    6.1513    0.1635   26.4567 C   0  0  0  0  0  0  0  0  0  0  0  0
    5.8070   -0.6669   27.0654 H   0  0  0  0  0  0  0  0  0  0  0  0
    6.3931    1.4104   27.0332 C   0  0  0  0  0  0  0  0  0  0  0  0
    6.2346    1.5620   28.0976 H   0  0  0  0  0  0  0  0  0  0  0  0
    6.8379    2.4854   26.2458 C   0  0  0  0  0  0  0  0  0  0  0  0
    7.1074    3.8285   26.8812 C   0  0  0  0  0  0  0  0  0  0  0  0
    6.4721    3.9969   27.7563 H   0  0  0  0  0  0  0  0  0  0  0  0
    6.9327    4.6504   26.1807 H   0  0  0  0  0  0  0  0  0  0  0  0
    8.1446    3.9060   27.2252 H   0  0  0  0  0  0  0  0  0  0  0  0
    7.0410    2.2835   24.8735 C   0  0  0  0  0  0  0  0  0  0  0  0
    7.4012    3.1039   24.2531 H   0  0  0  0  0  0  0  0  0  0  0  0
    8.2895   -1.3766   22.8627 C   0  0  0  0  0  0  0  0  0  0  0  0
    8.6254   -1.4669   23.8857 H   0  0  0  0  0  0  0  0  0  0  0  0
    8.6043   -2.2892   21.9518 N   0  0  0  0  0  0  0  0  0  0  0  0
    8.0480   -1.8233   20.8235 N   0  0  0  0  0  0  0  0  0  0  0  0
    8.1322   -2.3623   19.9779 H   0  0  0  0  0  0  0  0  0  0  0  0
    5.4323    0.6618   20.1414 C   0  0  0  0  0  0  0  0  0  0  0  0
    5.0177    0.6264   21.1515 H   0  0  0  0  0  0  0  0  0  0  0  0
    4.7942    1.3190   19.0886 C   0  0  0  0  0  0  0  0  0  0  0  0
    3.8646    1.8486   19.2450 H   0  0  0  0  0  0  0  0  0  0  0  0
  1  2  1  0
  2  3  2  0
  3  4  1  0
  4  5  1  0
  4  6  2  0
  6  7  1  0
  7  8  2  0
  8  9  1  0
  9 10  1  0
  9 11  1  0
 11 12  2  0
 12 13  1  0
 12 14  1  0
 14 15  1  0
 14 16  2  0
 16 17  1  0
 16 18  1  0
 18 19  1  0
 19 20  1  0
 19 21  1  0
 19 22  1  0
 18 23  2  0
 23 24  1  0
  8 25  1  0
 25 26  1  0
 25 27  2  0
 27 28  1  0
 28 29  1  0
  6 30  1  0
 30 31  1  0
 30 32  2  0
 32 33  1  0
 32  2  1  0
 28  7  1  0
 23 11  1  0
M  END
>  <cnnaffinity>  (1) 
-5.31323

>  <filename>  (1) 
Cc1cccc(Nc2cn[nH]c2-c2cccnc2)c1

$$$$
