
     RDKit          3D

 39 42  0  0  0  0  0  0  0  0999 V2000
    4.9557    1.8296   16.9619 H   0  0  0  0  0  0  0  0  0  0  0  0
    5.3966    1.2959   17.8018 C   0  0  0  0  0  0  0  0  0  0  0  0
    6.5454    0.6449   17.5586 N   0  0  0  0  0  0  0  0  0  0  0  0
    7.1258    0.0037   18.5763 C   0  0  0  0  0  0  0  0  0  0  0  0
    8.0653   -0.4999   18.3540 H   0  0  0  0  0  0  0  0  0  0  0  0
    6.6169   -0.0088   19.8825 C   0  0  0  0  0  0  0  0  0  0  0  0
    7.3967   -0.6572   20.9346 C   0  0  0  0  0  0  0  0  0  0  0  0
    7.8849   -1.9388   20.8010 N   0  0  0  0  0  0  0  0  0  0  0  0
    8.4743   -2.1647   21.9396 C   0  0  0  0  0  0  0  0  0  0  0  0
    8.5053   -1.0783   22.7520 N   0  0  0  0  0  0  0  0  0  0  0  0
    7.7746   -0.0990   22.1449 C   0  0  0  0  0  0  0  0  0  0  0  0
    7.5765    1.2420   22.7875 C   0  0  0  0  0  0  0  0  0  0  0  0
    6.9180    1.8271   22.1412 H   0  0  0  0  0  0  0  0  0  0  0  0
    8.5381    1.7723   22.7869 H   0  0  0  0  0  0  0  0  0  0  0  0
    7.0057    1.1992   24.2009 C   0  0  0  0  0  0  0  0  0  0  0  0
    5.6818    0.7936   24.4133 C   0  0  0  0  0  0  0  0  0  0  0  0
    5.0445    0.5962   23.5559 H   0  0  0  0  0  0  0  0  0  0  0  0
    5.1572    0.6743   25.7024 C   0  0  0  0  0  0  0  0  0  0  0  0
    4.1513    0.2877   25.8398 H   0  0  0  0  0  0  0  0  0  0  0  0
    5.9134    1.0335   26.8291 C   0  0  0  0  0  0  0  0  0  0  0  0
    5.3181    0.9961   28.2192 C   0  0  0  0  0  0  0  0  0  0  0  0
    4.8153    1.9396   28.4629 H   0  0  0  0  0  0  0  0  0  0  0  0
    4.5736    0.2018   28.3302 H   0  0  0  0  0  0  0  0  0  0  0  0
    6.0777    0.8342   28.9903 H   0  0  0  0  0  0  0  0  0  0  0  0
    7.2296    1.4728   26.6163 C   0  0  0  0  0  0  0  0  0  0  0  0
    7.8303    1.7729   27.4707 H   0  0  0  0  0  0  0  0  0  0  0  0
    7.7678    1.5435   25.3270 C   0  0  0  0  0  0  0  0  0  0  0  0
    8.7941    1.8822   25.2001 H   0  0  0  0  0  0  0  0  0  0  0  0
    9.2396   -1.1839   23.9938 C   0  0  0  0  0  0  0  0  0  0  0  0
    9.8087   -0.2710   24.1870 H   0  0  0  0  0  0  0  0  0  0  0  0
    8.5406   -1.3334   24.8218 H   0  0  0  0  0  0  0  0  0  0  0  0
   10.1579   -2.3960   23.7775 C   0  0  0  0  0  0  0  0  0  0  0  0
   11.0437   -2.1096   23.2043 H   0  0  0  0  0  0  0  0  0  0  0  0
   10.4624   -2.8900   24.7048 H   0  0  0  0  0  0  0  0  0  0  0  0
    9.2128   -3.5535   22.7210 S   0  0  0  0  0  0  0  0  0  0  0  0
    5.3986    0.6547   20.1132 C   0  0  0  0  0  0  0  0  0  0  0  0
    4.9424    0.6573   21.1034 H   0  0  0  0  0  0  0  0  0  0  0  0
    4.7768    1.3112   19.0542 C   0  0  0  0  0  0  0  0  0  0  0  0
    3.8536    1.8597   19.1953 H   0  0  0  0  0  0  0  0  0  0  0  0
  1  2  1  0
  2  3  2  0
  3  4  1  0
  4  5  1  0
  4  6  2  0
  6  7  1  0
  7  8  1  0
  8  9  2  0
  9 10  1  0
 10 11  1  0
 11 12  1  0
 12 13  1  0
 12 14  1  0
 12 15  1  0
 15 16  2  0
 16 17  1  0
 16 18  1  0
 18 19  1  0
 18 20  2  0
 20 21  1  0
 21 22  1  0
 21 23  1  0
 21 24  1  0
 20 25  1  0
 25 26  1  0
 25 27  2  0
 27 28  1  0
 10 29  1  0
 29 30  1  0
 29 31  1  0
 29 32  1  0
 32 33  1  0
 32 34  1  0
 32 35  1  0
  6 36  1  0
 36 37  1  0
 36 38  2  0
 38 39  1  0
 38  2  1  0
 11  7  2  0
 27 15  1  0
 35  9  1  0
M  END
>  <cnnaffinity>  (1) 
-5.18699

>  <filename>  (1) 
Cc1ccc(Cc2c(-c3cccnc3)nc3n2CCS3)cc1

$$$$
