
     RDKit          3D

 31 33  0  0  0  0  0  0  0  0999 V2000
    4.9210    1.7894   16.9949 H   0  0  0  0  0  0  0  0  0  0  0  0
    5.3953    1.2913   17.8385 C   0  0  0  0  0  0  0  0  0  0  0  0
    6.5532    0.6663   17.5745 N   0  0  0  0  0  0  0  0  0  0  0  0
    7.1721    0.0516   18.5872 C   0  0  0  0  0  0  0  0  0  0  0  0
    8.1264   -0.4190   18.3672 H   0  0  0  0  0  0  0  0  0  0  0  0
    6.6642    0.0024   19.9027 C   0  0  0  0  0  0  0  0  0  0  0  0
    7.3579   -0.6729   20.9447 N   0  0  0  0  0  0  0  0  0  0  0  0
    6.7669   -1.4420   21.9377 C   0  0  0  0  0  0  0  0  0  0  0  0
    5.7008   -1.6074   21.9840 H   0  0  0  0  0  0  0  0  0  0  0  0
    7.7263   -1.9386   22.7542 C   0  0  0  0  0  0  0  0  0  0  0  0
    7.5484   -2.8006   23.9470 C   0  0  0  0  0  0  0  0  0  0  0  0
    6.2799   -3.1129   24.2659 N   0  0  0  0  0  0  0  0  0  0  0  0
    6.0814   -3.8829   25.3362 C   0  0  0  0  0  0  0  0  0  0  0  0
    5.0427   -4.1091   25.5647 H   0  0  0  0  0  0  0  0  0  0  0  0
    7.1118   -4.3897   26.1290 C   0  0  0  0  0  0  0  0  0  0  0  0
    6.8883   -5.0198   26.9790 H   0  0  0  0  0  0  0  0  0  0  0  0
    8.4351   -4.0836   25.8035 C   0  0  0  0  0  0  0  0  0  0  0  0
    9.5880   -4.6288   26.5978 C   0  0  0  0  0  0  0  0  0  0  0  0
    9.3054   -4.8015   27.6400 H   0  0  0  0  0  0  0  0  0  0  0  0
   10.4301   -3.9379   26.5770 H   0  0  0  0  0  0  0  0  0  0  0  0
    9.9345   -5.5776   26.1757 H   0  0  0  0  0  0  0  0  0  0  0  0
    8.6406   -3.2706   24.6901 C   0  0  0  0  0  0  0  0  0  0  0  0
    9.6475   -3.0083   24.3943 H   0  0  0  0  0  0  0  0  0  0  0  0
    8.9367   -1.4605   22.2297 N   0  0  0  0  0  0  0  0  0  0  0  0
    9.8923   -1.5607   22.5180 H   0  0  0  0  0  0  0  0  0  0  0  0
    8.7527   -0.6698   21.1290 C   0  0  0  0  0  0  0  0  0  0  0  0
    9.6340   -0.1244   20.4991 O   0  0  0  0  0  0  0  0  0  0  0  0
    5.4477    0.6412   20.1636 C   0  0  0  0  0  0  0  0  0  0  0  0
    5.0317    0.6343   21.1727 H   0  0  0  0  0  0  0  0  0  0  0  0
    4.8126    1.3055   19.1100 C   0  0  0  0  0  0  0  0  0  0  0  0
    3.8825    1.8370   19.2614 H   0  0  0  0  0  0  0  0  0  0  0  0
  1  2  1  0
  2  3  2  0
  3  4  1  0
  4  5  1  0
  4  6  2  0
  6  7  1  0
  7  8  1  0
  8  9  1  0
  8 10  2  0
 10 11  1  0
 11 12  2  0
 12 13  1  0
 13 14  1  0
 13 15  2  0
 15 16  1  0
 15 17  1  0
 17 18  1  0
 18 19  1  0
 18 20  1  0
 18 21  1  0
 17 22  2  0
 22 23  1  0
 10 24  1  0
 24 25  1  0
 24 26  1  0
 26 27  2  0
  6 28  1  0
 28 29  1  0
 28 30  2  0
 30 31  1  0
 30  2  1  0
 26  7  1  0
 22 11  1  0
M  END
>  <cnnaffinity>  (1) 
-5.46163

>  <filename>  (1) 
Cc1ccnc(-c2cn(-c3cccnc3)c(=O)[nH]2)c1

$$$$
