
     RDKit          3D

 39 42  0  0  0  0  0  0  0  0999 V2000
    4.9201    1.7773   17.0020 H   0  0  0  0  0  0  0  0  0  0  0  0
    5.4063    1.2924   17.8433 C   0  0  0  0  0  0  0  0  0  0  0  0
    6.5712    0.6775   17.5805 N   0  0  0  0  0  0  0  0  0  0  0  0
    7.1717    0.0463   18.5913 C   0  0  0  0  0  0  0  0  0  0  0  0
    8.1220   -0.4356   18.3724 H   0  0  0  0  0  0  0  0  0  0  0  0
    6.6489    0.0047   19.8918 C   0  0  0  0  0  0  0  0  0  0  0  0
    7.3686   -0.6868   20.9430 C   0  0  0  0  0  0  0  0  0  0  0  0
    8.0537   -1.8557   20.7163 N   0  0  0  0  0  0  0  0  0  0  0  0
    8.4874   -2.1830   21.9008 C   0  0  0  0  0  0  0  0  0  0  0  0
    9.4855   -3.4397   22.5621 S   0  0  0  0  0  0  0  0  0  0  0  0
    9.4776   -2.6871   24.1308 C   0  0  0  0  0  0  0  0  0  0  0  0
   10.0406   -3.1533   24.9276 H   0  0  0  0  0  0  0  0  0  0  0  0
    8.7293   -1.5741   24.1477 C   0  0  0  0  0  0  0  0  0  0  0  0
    8.5611   -0.9047   24.9815 H   0  0  0  0  0  0  0  0  0  0  0  0
    8.1487   -1.3139   22.9033 N   0  0  0  0  0  0  0  0  0  0  0  0
    7.4411   -0.2962   22.2884 C   0  0  0  0  0  0  0  0  0  0  0  0
    7.1103    0.8602   22.9383 N   0  0  0  0  0  0  0  0  0  0  0  0
    6.2570    0.8680   24.1253 C   0  0  0  0  0  0  0  0  0  0  0  0
    6.1490   -0.1502   24.5083 H   0  0  0  0  0  0  0  0  0  0  0  0
    5.2358    1.2125   23.8810 H   0  0  0  0  0  0  0  0  0  0  0  0
    6.8501    1.7972   25.1803 C   0  0  0  0  0  0  0  0  0  0  0  0
    6.1748    1.8632   26.0399 H   0  0  0  0  0  0  0  0  0  0  0  0
    7.7856    1.3584   25.5513 H   0  0  0  0  0  0  0  0  0  0  0  0
    7.1373    3.1943   24.6146 C   0  0  0  0  0  0  0  0  0  0  0  0
    6.1766    3.6369   24.3076 H   0  0  0  0  0  0  0  0  0  0  0  0
    7.7658    4.1039   25.6635 C   0  0  0  0  0  0  0  0  0  0  0  0
    7.9458    5.1067   25.2626 H   0  0  0  0  0  0  0  0  0  0  0  0
    8.7294    3.7011   25.9965 H   0  0  0  0  0  0  0  0  0  0  0  0
    7.1222    4.1983   26.5438 H   0  0  0  0  0  0  0  0  0  0  0  0
    8.0194    3.0863   23.3652 C   0  0  0  0  0  0  0  0  0  0  0  0
    8.1900    4.0743   22.9243 H   0  0  0  0  0  0  0  0  0  0  0  0
    9.0049    2.6926   23.6453 H   0  0  0  0  0  0  0  0  0  0  0  0
    7.3989    2.1598   22.3241 C   0  0  0  0  0  0  0  0  0  0  0  0
    6.4955    2.6277   21.9008 H   0  0  0  0  0  0  0  0  0  0  0  0
    8.0858    1.9957   21.4892 H   0  0  0  0  0  0  0  0  0  0  0  0
    5.4341    0.6564   20.1550 C   0  0  0  0  0  0  0  0  0  0  0  0
    5.0032    0.6337   21.1605 H   0  0  0  0  0  0  0  0  0  0  0  0
    4.8022    1.3120   19.1063 C   0  0  0  0  0  0  0  0  0  0  0  0
    3.8714    1.8439   19.2614 H   0  0  0  0  0  0  0  0  0  0  0  0
  1  2  1  0
  2  3  2  0
  3  4  1  0
  4  5  1  0
  4  6  2  0
  6  7  1  0
  7  8  1  0
  8  9  2  0
  9 10  1  0
 10 11  1  0
 11 12  1  0
 11 13  2  0
 13 14  1  0
 13 15  1  0
 15 16  1  0
 16 17  1  0
 17 18  1  0
 18 19  1  0
 18 20  1  0
 18 21  1  0
 21 22  1  0
 21 23  1  0
 21 24  1  0
 24 25  1  0
 24 26  1  0
 26 27  1  0
 26 28  1  0
 26 29  1  0
 24 30  1  0
 30 31  1  0
 30 32  1  0
 30 33  1  0
 33 34  1  0
 33 35  1  0
  6 36  1  0
 36 37  1  0
 36 38  2  0
 38 39  1  0
 38  2  1  0
 16  7  2  0
 33 17  1  0
 15  9  1  0
M  END
>  <cnnaffinity>  (1) 
-5.66

>  <filename>  (1) 
CC1CCN(c2c(-c3cccnc3)nc3sccn23)CC1

$$$$
