
     RDKit          3D

 37 38  0  0  0  0  0  0  0  0999 V2000
    4.9245    1.7814   16.9954 H   0  0  0  0  0  0  0  0  0  0  0  0
    5.4073    1.2918   17.8397 C   0  0  0  0  0  0  0  0  0  0  0  0
    6.5704    0.6720   17.5909 N   0  0  0  0  0  0  0  0  0  0  0  0
    7.1793    0.0584   18.6132 C   0  0  0  0  0  0  0  0  0  0  0  0
    8.1239   -0.4257   18.3772 H   0  0  0  0  0  0  0  0  0  0  0  0
    6.6587   -0.0123   19.9252 C   0  0  0  0  0  0  0  0  0  0  0  0
    7.3270   -0.7221   20.9904 N   0  0  0  0  0  0  0  0  0  0  0  0
    6.6319   -1.7275   21.6552 C   0  0  0  0  0  0  0  0  0  0  0  0
    5.5195   -2.1058   21.3783 O   0  0  0  0  0  0  0  0  0  0  0  0
    7.4213   -2.2724   22.6788 O   0  0  0  0  0  0  0  0  0  0  0  0
    6.9334   -3.3044   23.5111 N   0  0  0  0  0  0  0  0  0  0  0  0
    6.6308   -4.5435   22.7570 C   0  0  0  0  0  0  0  0  0  0  0  0
    7.5099   -4.8169   22.1658 H   0  0  0  0  0  0  0  0  0  0  0  0
    5.8019   -4.3762   22.0507 H   0  0  0  0  0  0  0  0  0  0  0  0
    6.2519   -5.6806   23.7227 C   0  0  0  0  0  0  0  0  0  0  0  0
    6.0195   -6.5886   23.1519 H   0  0  0  0  0  0  0  0  0  0  0  0
    7.1159   -5.9269   24.3539 H   0  0  0  0  0  0  0  0  0  0  0  0
    5.0585   -5.3164   24.6204 C   0  0  0  0  0  0  0  0  0  0  0  0
    4.1806   -5.1727   23.9682 H   0  0  0  0  0  0  0  0  0  0  0  0
    4.7339   -6.4239   25.6262 C   0  0  0  0  0  0  0  0  0  0  0  0
    3.8707   -6.1610   26.2506 H   0  0  0  0  0  0  0  0  0  0  0  0
    4.5132   -7.3743   25.1250 H   0  0  0  0  0  0  0  0  0  0  0  0
    5.5849   -6.5949   26.2973 H   0  0  0  0  0  0  0  0  0  0  0  0
    5.3543   -3.9778   25.3169 C   0  0  0  0  0  0  0  0  0  0  0  0
    6.1509   -4.1139   26.0577 H   0  0  0  0  0  0  0  0  0  0  0  0
    4.4659   -3.6521   25.8757 H   0  0  0  0  0  0  0  0  0  0  0  0
    5.7601   -2.8870   24.3134 C   0  0  0  0  0  0  0  0  0  0  0  0
    5.9803   -1.9438   24.8258 H   0  0  0  0  0  0  0  0  0  0  0  0
    4.8994   -2.7330   23.6535 H   0  0  0  0  0  0  0  0  0  0  0  0
    8.7633   -0.4539   21.1909 C   0  0  0  0  0  0  0  0  0  0  0  0
    8.9916    0.4990   20.7042 H   0  0  0  0  0  0  0  0  0  0  0  0
    9.4113   -1.2139   20.7319 H   0  0  0  0  0  0  0  0  0  0  0  0
    9.0283   -0.3486   22.2480 H   0  0  0  0  0  0  0  0  0  0  0  0
    5.4435    0.6445   20.1704 C   0  0  0  0  0  0  0  0  0  0  0  0
    5.0093    0.6147   21.1665 H   0  0  0  0  0  0  0  0  0  0  0  0
    4.8209    1.3114   19.1097 C   0  0  0  0  0  0  0  0  0  0  0  0
    3.8865    1.8370   19.2599 H   0  0  0  0  0  0  0  0  0  0  0  0
  1  2  1  0
  2  3  2  0
  3  4  1  0
  4  5  1  0
  4  6  2  0
  6  7  1  0
  7  8  1  0
  8  9  2  0
  8 10  1  0
 10 11  1  0
 11 12  1  0
 12 13  1  0
 12 14  1  0
 12 15  1  0
 15 16  1  0
 15 17  1  0
 15 18  1  0
 18 19  1  0
 18 20  1  0
 20 21  1  0
 20 22  1  0
 20 23  1  0
 18 24  1  0
 24 25  1  0
 24 26  1  0
 24 27  1  0
 27 28  1  0
 27 29  1  0
  7 30  1  0
 30 31  1  0
 30 32  1  0
 30 33  1  0
  6 34  1  0
 34 35  1  0
 34 36  2  0
 36 37  1  0
 36  2  1  0
 27 11  1  0
M  END
>  <cnnaffinity>  (1) 
-4.78836

>  <filename>  (1) 
CC1CCN(OC(=O)N(C)c2cccnc2)CC1

$$$$
