
     RDKit          3D

 35 37  0  0  0  0  0  0  0  0999 V2000
    4.9489    1.8009   16.9662 H   0  0  0  0  0  0  0  0  0  0  0  0
    5.3925    1.3070   17.8266 C   0  0  0  0  0  0  0  0  0  0  0  0
    6.5566    0.6766   17.6034 N   0  0  0  0  0  0  0  0  0  0  0  0
    7.1475    0.0868   18.6446 C   0  0  0  0  0  0  0  0  0  0  0  0
    8.0770   -0.4538   18.4571 H   0  0  0  0  0  0  0  0  0  0  0  0
    6.6280    0.1262   19.9439 C   0  0  0  0  0  0  0  0  0  0  0  0
    7.3808   -0.5482   21.0090 C   0  0  0  0  0  0  0  0  0  0  0  0
    8.0602   -1.5965   20.6307 N   0  0  0  0  0  0  0  0  0  0  0  0
    8.6084   -2.3610   21.6082 C   0  0  0  0  0  0  0  0  0  0  0  0
    8.8792   -3.5307   21.4891 O   0  0  0  0  0  0  0  0  0  0  0  0
    8.8664   -1.7644   22.8501 N   0  0  0  0  0  0  0  0  0  0  0  0
    9.0745   -2.5093   23.4922 H   0  0  0  0  0  0  0  0  0  0  0  0
    8.0374   -0.7800   23.2689 C   0  0  0  0  0  0  0  0  0  0  0  0
    8.0568   -0.5849   24.6081 N   0  0  0  0  0  0  0  0  0  0  0  0
    8.9378   -0.8100   25.0344 H   0  0  0  0  0  0  0  0  0  0  0  0
    7.0535    0.0778   25.3482 C   0  0  0  0  0  0  0  0  0  0  0  0
    5.7146   -0.1816   25.0463 C   0  0  0  0  0  0  0  0  0  0  0  0
    5.5349   -0.9541   24.3179 H   0  0  0  0  0  0  0  0  0  0  0  0
    4.6852    0.5166   25.6722 C   0  0  0  0  0  0  0  0  0  0  0  0
    3.6598    0.3414   25.3576 H   0  0  0  0  0  0  0  0  0  0  0  0
    4.9622    1.4517   26.6791 C   0  0  0  0  0  0  0  0  0  0  0  0
    3.8347    2.1512   27.3976 C   0  0  0  0  0  0  0  0  0  0  0  0
    2.9699    2.3027   26.7432 H   0  0  0  0  0  0  0  0  0  0  0  0
    3.4904    1.5620   28.2559 H   0  0  0  0  0  0  0  0  0  0  0  0
    4.1363    3.1321   27.7752 H   0  0  0  0  0  0  0  0  0  0  0  0
    6.3082    1.6699   27.0181 C   0  0  0  0  0  0  0  0  0  0  0  0
    6.5450    2.3757   27.8138 H   0  0  0  0  0  0  0  0  0  0  0  0
    7.3482    0.9894   26.3634 C   0  0  0  0  0  0  0  0  0  0  0  0
    8.3838    1.1698   26.6334 H   0  0  0  0  0  0  0  0  0  0  0  0
    7.3072   -0.0918   22.3422 C   0  0  0  0  0  0  0  0  0  0  0  0
    6.7301    0.7644   22.6426 H   0  0  0  0  0  0  0  0  0  0  0  0
    5.3895    0.7388   20.1565 C   0  0  0  0  0  0  0  0  0  0  0  0
    4.9312    0.7087   21.1466 H   0  0  0  0  0  0  0  0  0  0  0  0
    4.7598    1.3468   19.0744 C   0  0  0  0  0  0  0  0  0  0  0  0
    3.8143    1.8657   19.1896 H   0  0  0  0  0  0  0  0  0  0  0  0
  1  2  1  0
  2  3  2  0
  3  4  1  0
  4  5  1  0
  4  6  2  0
  6  7  1  0
  7  8  2  0
  8  9  1  0
  9 10  2  0
  9 11  1  0
 11 12  1  0
 11 13  1  0
 13 14  1  0
 14 15  1  0
 14 16  1  0
 16 17  2  0
 17 18  1  0
 17 19  1  0
 19 20  1  0
 19 21  2  0
 21 22  1  0
 22 23  1  0
 22 24  1  0
 22 25  1  0
 21 26  1  0
 26 27  1  0
 26 28  2  0
 28 29  1  0
 13 30  2  0
 30 31  1  0
  6 32  1  0
 32 33  1  0
 32 34  2  0
 34 35  1  0
 34  2  1  0
 30  7  1  0
 28 16  1  0
M  END
>  <cnnaffinity>  (1) 
-5.21921

>  <filename>  (1) 
Cc1ccc(Nc2cc(-c3cccnc3)nc(=O)[nH]2)cc1

$$$$
