
     RDKit          3D

 42 45  0  0  0  0  0  0  0  0999 V2000
    9.3521    0.6375   20.7815 C   0  0  0  0  0  0  0  0  0  0  0  0
    8.5719   -0.4884   21.3933 C   0  0  0  0  0  0  0  0  0  0  0  0
    9.1007   -1.2757   22.4064 C   0  0  0  0  0  0  0  0  0  0  0  0
    8.4523   -2.2523   23.0150 N   0  0  0  0  0  0  0  0  0  0  0  0
    7.2012   -2.4578   22.6022 C   0  0  0  0  0  0  0  0  0  0  0  0
    6.4901   -3.4252   23.2128 N   0  0  0  0  0  0  0  0  0  0  0  0
    5.2245   -3.8940   22.6424 C   0  0  0  0  0  0  0  0  0  0  0  0
    4.9249   -5.1592   23.4566 C   0  0  0  0  0  0  0  0  0  0  0  0
    5.6357   -4.8797   24.7729 C   0  0  0  0  0  0  0  0  0  0  0  0
    5.8866   -5.9989   25.7939 C   0  0  0  0  0  0  0  0  0  0  0  0
    7.2095   -5.9310   26.3174 O   0  0  0  0  0  0  0  0  0  0  0  0
    7.5630   -4.6177   26.7260 C   0  0  0  0  0  0  0  0  0  0  0  0
    7.6706   -3.6317   25.5192 C   0  0  0  0  0  0  0  0  0  0  0  0
    6.9608   -4.2616   24.3085 C   0  0  0  0  0  0  0  0  0  0  0  0
    7.6237   -5.0532   23.9166 H   0  0  0  0  0  0  0  0  0  0  0  0
    7.1991   -2.6783   25.7867 H   0  0  0  0  0  0  0  0  0  0  0  0
    8.7140   -3.4267   25.2706 H   0  0  0  0  0  0  0  0  0  0  0  0
    8.5108   -4.7201   27.2649 H   0  0  0  0  0  0  0  0  0  0  0  0
    6.8023   -4.2473   27.4366 H   0  0  0  0  0  0  0  0  0  0  0  0
    5.1571   -5.9172   26.6174 H   0  0  0  0  0  0  0  0  0  0  0  0
    5.8085   -7.0016   25.3666 H   0  0  0  0  0  0  0  0  0  0  0  0
    5.0891   -4.0715   25.2883 H   0  0  0  0  0  0  0  0  0  0  0  0
    3.8548   -5.3548   23.5509 H   0  0  0  0  0  0  0  0  0  0  0  0
    5.3761   -6.0288   22.9660 H   0  0  0  0  0  0  0  0  0  0  0  0
    5.3267   -4.0969   21.5701 H   0  0  0  0  0  0  0  0  0  0  0  0
    4.4477   -3.1275   22.7565 H   0  0  0  0  0  0  0  0  0  0  0  0
    6.5790   -1.8038   21.6156 N   0  0  0  0  0  0  0  0  0  0  0  0
    7.2547   -0.8301   21.0333 C   0  0  0  0  0  0  0  0  0  0  0  0
    6.5468   -0.0940   19.9739 C   0  0  0  0  0  0  0  0  0  0  0  0
    5.3442    0.5874   20.1850 C   0  0  0  0  0  0  0  0  0  0  0  0
    4.7920    1.2899   19.1154 C   0  0  0  0  0  0  0  0  0  0  0  0
    5.4440    1.2625   17.8760 C   0  0  0  0  0  0  0  0  0  0  0  0
    6.5832    0.5912   17.6586 N   0  0  0  0  0  0  0  0  0  0  0  0
    7.1139   -0.0637   18.6974 C   0  0  0  0  0  0  0  0  0  0  0  0
    8.0568   -0.5745   18.5014 H   0  0  0  0  0  0  0  0  0  0  0  0
    5.0303    1.8009   17.0255 H   0  0  0  0  0  0  0  0  0  0  0  0
    3.8837    1.8683   19.2326 H   0  0  0  0  0  0  0  0  0  0  0  0
    4.8706    0.5900   21.1700 H   0  0  0  0  0  0  0  0  0  0  0  0
   10.1148   -1.0920   22.7651 H   0  0  0  0  0  0  0  0  0  0  0  0
    8.7270    1.5290   20.6750 H   0  0  0  0  0  0  0  0  0  0  0  0
    9.6627    0.3553   19.7766 H   0  0  0  0  0  0  0  0  0  0  0  0
   10.2390    0.8773   21.3736 H   0  0  0  0  0  0  0  0  0  0  0  0
  1  2  1  0
  2  3  2  0
  3  4  1  0
  4  5  2  0
  5  6  1  0
  6  7  1  0
  7  8  1  0
  8  9  1  0
  9 10  1  0
 10 11  1  0
 11 12  1  0
 12 13  1  0
 13 14  1  0
 14 15  1  0
 13 16  1  0
 13 17  1  0
 12 18  1  0
 12 19  1  0
 10 20  1  0
 10 21  1  0
  9 22  1  0
  8 23  1  0
  8 24  1  0
  7 25  1  0
  7 26  1  0
  5 27  1  0
 27 28  2  0
 28 29  1  0
 29 30  2  0
 30 31  1  0
 31 32  2  0
 32 33  1  0
 33 34  2  0
 34 35  1  0
 32 36  1  0
 31 37  1  0
 30 38  1  0
  3 39  1  0
  1 40  1  0
  1 41  1  0
  1 42  1  0
 28  2  1  0
 34 29  1  0
 14  6  1  0
 14  9  1  0
M  END
>  <cnnaffinity>  (1) 
-5.38542

>  <filename>  (1) 
Cc1cnc(N2CCC3COCCC32)nc1-c1cccnc1

$$$$
