
     RDKit          3D

 37 40  0  0  0  0  0  0  0  0999 V2000
    4.9192    1.7777   16.9998 H   0  0  0  0  0  0  0  0  0  0  0  0
    5.4048    1.2898   17.8414 C   0  0  0  0  0  0  0  0  0  0  0  0
    6.5691    0.6764   17.5758 N   0  0  0  0  0  0  0  0  0  0  0  0
    7.1729    0.0551   18.5908 C   0  0  0  0  0  0  0  0  0  0  0  0
    8.1223   -0.4335   18.3713 H   0  0  0  0  0  0  0  0  0  0  0  0
    6.6461    0.0121   19.8943 C   0  0  0  0  0  0  0  0  0  0  0  0
    7.3991   -0.6891   20.9348 C   0  0  0  0  0  0  0  0  0  0  0  0
    8.3223   -1.5952   20.7115 N   0  0  0  0  0  0  0  0  0  0  0  0
    8.8201   -2.0305   21.9214 N   0  0  0  0  0  0  0  0  0  0  0  0
    8.1880   -1.3444   22.8337 C   0  0  0  0  0  0  0  0  0  0  0  0
    8.2471   -1.1035   24.5660 S   0  0  0  0  0  0  0  0  0  0  0  0
    7.0143    0.1739   24.3565 C   0  0  0  0  0  0  0  0  0  0  0  0
    6.5476    0.8892   25.4168 N   0  0  0  0  0  0  0  0  0  0  0  0
    7.0301    0.7125   26.7946 C   0  0  0  0  0  0  0  0  0  0  0  0
    6.3085    0.0989   27.3530 H   0  0  0  0  0  0  0  0  0  0  0  0
    7.9774    0.1706   26.8110 H   0  0  0  0  0  0  0  0  0  0  0  0
    7.2170    2.0587   27.5138 C   0  0  0  0  0  0  0  0  0  0  0  0
    8.1973    2.4683   27.2580 H   0  0  0  0  0  0  0  0  0  0  0  0
    7.2637    1.8497   28.5889 H   0  0  0  0  0  0  0  0  0  0  0  0
    6.1247    3.1156   27.2153 C   0  0  0  0  0  0  0  0  0  0  0  0
    6.5641    3.8546   26.5325 H   0  0  0  0  0  0  0  0  0  0  0  0
    5.6787    3.8614   28.4738 C   0  0  0  0  0  0  0  0  0  0  0  0
    4.9519    4.6460   28.2364 H   0  0  0  0  0  0  0  0  0  0  0  0
    5.2052    3.1756   29.1863 H   0  0  0  0  0  0  0  0  0  0  0  0
    6.5288    4.3318   28.9793 H   0  0  0  0  0  0  0  0  0  0  0  0
    4.9422    2.4784   26.4806 C   0  0  0  0  0  0  0  0  0  0  0  0
    4.4258    1.7723   27.1423 H   0  0  0  0  0  0  0  0  0  0  0  0
    4.2017    3.2450   26.2311 H   0  0  0  0  0  0  0  0  0  0  0  0
    5.3888    1.7737   25.1948 C   0  0  0  0  0  0  0  0  0  0  0  0
    5.6549    2.5341   24.4507 H   0  0  0  0  0  0  0  0  0  0  0  0
    4.5506    1.2017   24.7812 H   0  0  0  0  0  0  0  0  0  0  0  0
    6.5976    0.3649   23.1330 N   0  0  0  0  0  0  0  0  0  0  0  0
    7.2667   -0.5049   22.3010 N   0  0  0  0  0  0  0  0  0  0  0  0
    5.4313    0.6527   20.1637 C   0  0  0  0  0  0  0  0  0  0  0  0
    5.0105    0.6390   21.1735 H   0  0  0  0  0  0  0  0  0  0  0  0
    4.8050    1.3073   19.1078 C   0  0  0  0  0  0  0  0  0  0  0  0
    3.8739    1.8434   19.2589 H   0  0  0  0  0  0  0  0  0  0  0  0
  1  2  1  0
  2  3  2  0
  3  4  1  0
  4  5  1  0
  4  6  2  0
  6  7  1  0
  7  8  2  0
  8  9  1  0
  9 10  2  0
 10 11  1  0
 11 12  1  0
 12 13  1  0
 13 14  1  0
 14 15  1  0
 14 16  1  0
 14 17  1  0
 17 18  1  0
 17 19  1  0
 17 20  1  0
 20 21  1  0
 20 22  1  0
 22 23  1  0
 22 24  1  0
 22 25  1  0
 20 26  1  0
 26 27  1  0
 26 28  1  0
 26 29  1  0
 29 30  1  0
 29 31  1  0
 12 32  2  0
 32 33  1  0
  6 34  1  0
 34 35  1  0
 34 36  2  0
 36 37  1  0
 36  2  1  0
 33  7  1  0
 33 10  1  0
 29 13  1  0
M  END
>  <cnnaffinity>  (1) 
-5.22608

>  <filename>  (1) 
CC1CCN(c2nn3c(-c4cccnc4)nnc3s2)CC1

$$$$
