
     RDKit          3D

 32 35  0  0  0  0  0  0  0  0999 V2000
    4.9343    1.7735   17.0011 H   0  0  0  0  0  0  0  0  0  0  0  0
    5.4102    1.2845   17.8468 C   0  0  0  0  0  0  0  0  0  0  0  0
    6.5743    0.6640   17.5981 N   0  0  0  0  0  0  0  0  0  0  0  0
    7.1775    0.0515   18.6222 C   0  0  0  0  0  0  0  0  0  0  0  0
    8.1244   -0.4318   18.3873 H   0  0  0  0  0  0  0  0  0  0  0  0
    6.6427    0.0160   19.9209 C   0  0  0  0  0  0  0  0  0  0  0  0
    7.3607   -0.6890   20.9822 C   0  0  0  0  0  0  0  0  0  0  0  0
    8.5432   -1.3266   20.7641 N   0  0  0  0  0  0  0  0  0  0  0  0
    8.7989   -1.8233   21.9529 C   0  0  0  0  0  0  0  0  0  0  0  0
    9.9894   -2.8260   22.7273 S   0  0  0  0  0  0  0  0  0  0  0  0
    9.0735   -2.7914   24.1997 C   0  0  0  0  0  0  0  0  0  0  0  0
    9.4308   -3.3424   25.0599 H   0  0  0  0  0  0  0  0  0  0  0  0
    7.9458   -2.0469   24.1228 C   0  0  0  0  0  0  0  0  0  0  0  0
    6.9612   -1.8062   25.2101 C   0  0  0  0  0  0  0  0  0  0  0  0
    6.9878   -2.7060   26.2147 N   0  0  0  0  0  0  0  0  0  0  0  0
    6.1213   -2.5628   27.2176 C   0  0  0  0  0  0  0  0  0  0  0  0
    6.1654   -3.3247   27.9939 H   0  0  0  0  0  0  0  0  0  0  0  0
    5.1943   -1.5132   27.3276 C   0  0  0  0  0  0  0  0  0  0  0  0
    4.2717   -1.3791   28.5096 C   0  0  0  0  0  0  0  0  0  0  0  0
    4.7309   -0.7769   29.3008 H   0  0  0  0  0  0  0  0  0  0  0  0
    4.0087   -2.3467   28.9490 H   0  0  0  0  0  0  0  0  0  0  0  0
    3.3419   -0.8784   28.2262 H   0  0  0  0  0  0  0  0  0  0  0  0
    5.1987   -0.5657   26.2972 C   0  0  0  0  0  0  0  0  0  0  0  0
    4.5034    0.2748   26.3330 H   0  0  0  0  0  0  0  0  0  0  0  0
    6.0865   -0.7040   25.2328 C   0  0  0  0  0  0  0  0  0  0  0  0
    6.1129    0.0052   24.4192 H   0  0  0  0  0  0  0  0  0  0  0  0
    7.8332   -1.4970   22.8434 N   0  0  0  0  0  0  0  0  0  0  0  0
    6.8856   -0.7582   22.2247 N   0  0  0  0  0  0  0  0  0  0  0  0
    5.4214    0.6598   20.1714 C   0  0  0  0  0  0  0  0  0  0  0  0
    4.9939    0.6378   21.1783 H   0  0  0  0  0  0  0  0  0  0  0  0
    4.8042    1.3097   19.1079 C   0  0  0  0  0  0  0  0  0  0  0  0
    3.8740    1.8429   19.2534 H   0  0  0  0  0  0  0  0  0  0  0  0
  1  2  1  0
  2  3  2  0
  3  4  1  0
  4  5  1  0
  4  6  2  0
  6  7  1  0
  7  8  1  0
  8  9  2  0
  9 10  1  0
 10 11  1  0
 11 12  1  0
 11 13  2  0
 13 14  1  0
 14 15  2  0
 15 16  1  0
 16 17  1  0
 16 18  2  0
 18 19  1  0
 19 20  1  0
 19 21  1  0
 19 22  1  0
 18 23  1  0
 23 24  1  0
 23 25  2  0
 25 26  1  0
 13 27  1  0
 27 28  1  0
  6 29  1  0
 29 30  1  0
 29 31  2  0
 31 32  1  0
 31  2  1  0
 28  7  2  0
 27  9  1  0
 25 14  1  0
M  END
>  <cnnaffinity>  (1) 
-5.56346

>  <filename>  (1) 
Cc1ccc(-c2csc3nc(-c4cccnc4)nn23)nc1

$$$$
