
     RDKit          3D

 32 34  0  0  0  0  0  0  0  0999 V2000
    4.9160    1.7810   16.9947 H   0  0  0  0  0  0  0  0  0  0  0  0
    5.4018    1.2947   17.8384 C   0  0  0  0  0  0  0  0  0  0  0  0
    6.5657    0.6755   17.5796 N   0  0  0  0  0  0  0  0  0  0  0  0
    7.1756    0.0616   18.6008 C   0  0  0  0  0  0  0  0  0  0  0  0
    8.1150   -0.4372   18.3749 H   0  0  0  0  0  0  0  0  0  0  0  0
    6.6587    0.0024   19.9083 C   0  0  0  0  0  0  0  0  0  0  0  0
    7.3393   -0.7003   20.9539 N   0  0  0  0  0  0  0  0  0  0  0  0
    6.5511   -1.4456   21.8022 N   0  0  0  0  0  0  0  0  0  0  0  0
    7.1224   -2.0905   22.7894 C   0  0  0  0  0  0  0  0  0  0  0  0
    6.2366   -2.8460   23.7210 C   0  0  0  0  0  0  0  0  0  0  0  0
    5.1484   -3.5770   23.2247 C   0  0  0  0  0  0  0  0  0  0  0  0
    4.9634   -3.5742   22.1553 H   0  0  0  0  0  0  0  0  0  0  0  0
    4.3261   -4.3115   23.9856 N   0  0  0  0  0  0  0  0  0  0  0  0
    4.5496   -4.3291   25.3088 C   0  0  0  0  0  0  0  0  0  0  0  0
    3.6023   -5.1130   26.1697 C   0  0  0  0  0  0  0  0  0  0  0  0
    3.0034   -4.4413   26.7916 H   0  0  0  0  0  0  0  0  0  0  0  0
    4.1398   -5.7711   26.8579 H   0  0  0  0  0  0  0  0  0  0  0  0
    2.9234   -5.7177   25.5690 H   0  0  0  0  0  0  0  0  0  0  0  0
    5.6203   -3.6320   25.8999 C   0  0  0  0  0  0  0  0  0  0  0  0
    5.7558   -3.6800   26.9753 H   0  0  0  0  0  0  0  0  0  0  0  0
    6.4782   -2.8899   25.1089 C   0  0  0  0  0  0  0  0  0  0  0  0
    7.3278   -2.3605   25.5450 H   0  0  0  0  0  0  0  0  0  0  0  0
    8.6264   -2.0893   23.0237 C   0  0  0  0  0  0  0  0  0  0  0  0
    9.1980   -2.7200   23.9054 O   0  0  0  0  0  0  0  0  0  0  0  0
    9.3682   -1.2562   22.0852 C   0  0  0  0  0  0  0  0  0  0  0  0
   10.4440   -1.2163   22.2144 H   0  0  0  0  0  0  0  0  0  0  0  0
    8.7115   -0.6114   21.1091 C   0  0  0  0  0  0  0  0  0  0  0  0
    9.2285    0.0347   20.3947 H   0  0  0  0  0  0  0  0  0  0  0  0
    5.4402    0.6453   20.1667 C   0  0  0  0  0  0  0  0  0  0  0  0
    5.0270    0.6025   21.1757 H   0  0  0  0  0  0  0  0  0  0  0  0
    4.8121    1.3122   19.1097 C   0  0  0  0  0  0  0  0  0  0  0  0
    3.8773    1.8422   19.2623 H   0  0  0  0  0  0  0  0  0  0  0  0
  1  2  1  0
  2  3  2  0
  3  4  1  0
  4  5  1  0
  4  6  2  0
  6  7  1  0
  7  8  1  0
  8  9  2  0
  9 10  1  0
 10 11  2  0
 11 12  1  0
 11 13  1  0
 13 14  2  0
 14 15  1  0
 15 16  1  0
 15 17  1  0
 15 18  1  0
 14 19  1  0
 19 20  1  0
 19 21  2  0
 21 22  1  0
  9 23  1  0
 23 24  2  0
 23 25  1  0
 25 26  1  0
 25 27  2  0
 27 28  1  0
  6 29  1  0
 29 30  1  0
 29 31  2  0
 31 32  1  0
 31  2  1  0
 27  7  1  0
 21 10  1  0
M  END
>  <cnnaffinity>  (1) 
-5.03013

>  <filename>  (1) 
Cc1ccc(-c2nn(-c3cccnc3)ccc2=O)cn1

$$$$
