
     RDKit          3D

 33 36  0  0  0  0  0  0  0  0999 V2000
    5.0590    1.7612   16.9869 H   0  0  0  0  0  0  0  0  0  0  0  0
    5.4766    1.2552   17.8524 C   0  0  0  0  0  0  0  0  0  0  0  0
    6.6299    0.6049   17.6455 N   0  0  0  0  0  0  0  0  0  0  0  0
    7.1865   -0.0185   18.6859 C   0  0  0  0  0  0  0  0  0  0  0  0
    8.1202   -0.5406   18.4893 H   0  0  0  0  0  0  0  0  0  0  0  0
    6.6282   -0.0232   19.9736 C   0  0  0  0  0  0  0  0  0  0  0  0
    7.3755   -0.7094   21.0310 C   0  0  0  0  0  0  0  0  0  0  0  0
    8.5685   -1.3276   20.7860 N   0  0  0  0  0  0  0  0  0  0  0  0
    8.8851   -1.7792   21.9754 C   0  0  0  0  0  0  0  0  0  0  0  0
   10.1953   -2.6418   22.7241 S   0  0  0  0  0  0  0  0  0  0  0  0
    9.3710   -2.5517   24.2564 C   0  0  0  0  0  0  0  0  0  0  0  0
    9.8207   -3.0273   25.1170 H   0  0  0  0  0  0  0  0  0  0  0  0
    8.1918   -1.8923   24.1994 C   0  0  0  0  0  0  0  0  0  0  0  0
    7.2150   -1.6056   25.2777 C   0  0  0  0  0  0  0  0  0  0  0  0
    7.6292   -1.1260   26.5362 C   0  0  0  0  0  0  0  0  0  0  0  0
    8.6843   -0.9933   26.7555 H   0  0  0  0  0  0  0  0  0  0  0  0
    6.6921   -0.7744   27.5119 C   0  0  0  0  0  0  0  0  0  0  0  0
    7.0207   -0.3429   28.4578 H   0  0  0  0  0  0  0  0  0  0  0  0
    5.3185   -0.9505   27.2918 C   0  0  0  0  0  0  0  0  0  0  0  0
    4.3236   -0.6820   28.3935 C   0  0  0  0  0  0  0  0  0  0  0  0
    4.7444   -0.0740   29.1989 H   0  0  0  0  0  0  0  0  0  0  0  0
    3.4297   -0.1675   28.0299 H   0  0  0  0  0  0  0  0  0  0  0  0
    3.9913   -1.6185   28.8539 H   0  0  0  0  0  0  0  0  0  0  0  0
    4.9046   -1.4390   26.0375 C   0  0  0  0  0  0  0  0  0  0  0  0
    3.8424   -1.5599   25.8340 H   0  0  0  0  0  0  0  0  0  0  0  0
    5.8329   -1.7718   25.0538 C   0  0  0  0  0  0  0  0  0  0  0  0
    5.5084   -2.1775   24.1007 H   0  0  0  0  0  0  0  0  0  0  0  0
    7.9407   -1.4738   22.8853 N   0  0  0  0  0  0  0  0  0  0  0  0
    6.9450   -0.7663   22.2842 N   0  0  0  0  0  0  0  0  0  0  0  0
    5.4081    0.6466   20.1769 C   0  0  0  0  0  0  0  0  0  0  0  0
    4.9322    0.6617   21.1590 H   0  0  0  0  0  0  0  0  0  0  0  0
    4.8270    1.2948   19.0908 C   0  0  0  0  0  0  0  0  0  0  0  0
    3.8956    1.8436   19.1810 H   0  0  0  0  0  0  0  0  0  0  0  0
  1  2  1  0
  2  3  2  0
  3  4  1  0
  4  5  1  0
  4  6  2  0
  6  7  1  0
  7  8  1  0
  8  9  2  0
  9 10  1  0
 10 11  1  0
 11 12  1  0
 11 13  2  0
 13 14  1  0
 14 15  2  0
 15 16  1  0
 15 17  1  0
 17 18  1  0
 17 19  2  0
 19 20  1  0
 20 21  1  0
 20 22  1  0
 20 23  1  0
 19 24  1  0
 24 25  1  0
 24 26  2  0
 26 27  1  0
 13 28  1  0
 28 29  1  0
  6 30  1  0
 30 31  1  0
 30 32  2  0
 32 33  1  0
 32  2  1  0
 29  7  2  0
 28  9  1  0
 26 14  1  0
M  END
>  <cnnaffinity>  (1) 
-5.45323

>  <filename>  (1) 
Cc1ccc(-c2csc3nc(-c4cccnc4)nn23)cc1

$$$$
