
     RDKit          3D

 43 45  0  0  0  0  0  0  0  0999 V2000
    5.7358   -2.4974   21.1120 C   0  0  0  0  0  0  0  0  0  0  0  0
    7.0429   -1.8103   21.3923 C   0  0  0  0  0  0  0  0  0  0  0  0
    7.9249   -2.3085   22.3447 C   0  0  0  0  0  0  0  0  0  0  0  0
    9.0970   -1.7821   22.6356 N   0  0  0  0  0  0  0  0  0  0  0  0
    9.4002   -0.6446   21.9977 C   0  0  0  0  0  0  0  0  0  0  0  0
   10.5609   -0.0348   22.3329 N   0  0  0  0  0  0  0  0  0  0  0  0
   11.6090   -0.7670   23.0437 C   0  0  0  0  0  0  0  0  0  0  0  0
   12.9637   -0.4115   22.4448 C   0  0  0  0  0  0  0  0  0  0  0  0
   13.2888    1.0697   22.7079 C   0  0  0  0  0  0  0  0  0  0  0  0
   12.0419    1.9974   22.5587 C   0  0  0  0  0  0  0  0  0  0  0  0
   12.2849    3.3712   21.8908 C   0  0  0  0  0  0  0  0  0  0  0  0
   13.2713    4.3109   22.5570 C   0  0  0  0  0  0  0  0  0  0  0  0
   12.9929    4.4402   23.8867 F   0  0  0  0  0  0  0  0  0  0  0  0
   14.5487    3.8398   22.4343 F   0  0  0  0  0  0  0  0  0  0  0  0
   13.2589    5.3243   22.1359 H   0  0  0  0  0  0  0  0  0  0  0  0
   12.6147    3.2563   20.8531 H   0  0  0  0  0  0  0  0  0  0  0  0
   11.3273    3.9043   21.8532 H   0  0  0  0  0  0  0  0  0  0  0  0
   10.7955    1.3431   21.8984 C   0  0  0  0  0  0  0  0  0  0  0  0
    9.9257    1.9591   22.1738 H   0  0  0  0  0  0  0  0  0  0  0  0
   10.8284    1.3861   20.8005 H   0  0  0  0  0  0  0  0  0  0  0  0
   11.7049    2.2038   23.5844 H   0  0  0  0  0  0  0  0  0  0  0  0
   14.1727    1.3678   22.1437 H   0  0  0  0  0  0  0  0  0  0  0  0
   13.6158    1.1486   23.7537 H   0  0  0  0  0  0  0  0  0  0  0  0
   13.7580   -1.0463   22.8493 H   0  0  0  0  0  0  0  0  0  0  0  0
   12.8995   -0.6574   21.3828 H   0  0  0  0  0  0  0  0  0  0  0  0
   11.5839   -0.5069   24.1150 H   0  0  0  0  0  0  0  0  0  0  0  0
   11.4042   -1.8377   22.9548 H   0  0  0  0  0  0  0  0  0  0  0  0
    8.6562   -0.0607   21.0532 N   0  0  0  0  0  0  0  0  0  0  0  0
    7.4825   -0.6202   20.7831 C   0  0  0  0  0  0  0  0  0  0  0  0
    6.6887    0.0624   19.7382 C   0  0  0  0  0  0  0  0  0  0  0  0
    5.4100    0.6221   19.9034 C   0  0  0  0  0  0  0  0  0  0  0  0
    4.8316    1.2803   18.8175 C   0  0  0  0  0  0  0  0  0  0  0  0
    5.5297    1.3344   17.6063 C   0  0  0  0  0  0  0  0  0  0  0  0
    6.7376    0.7745   17.4296 N   0  0  0  0  0  0  0  0  0  0  0  0
    7.2968    0.1747   18.4826 C   0  0  0  0  0  0  0  0  0  0  0  0
    8.2847   -0.2523   18.3056 H   0  0  0  0  0  0  0  0  0  0  0  0
    5.1054    1.8417   16.7416 H   0  0  0  0  0  0  0  0  0  0  0  0
    3.8617    1.7611   18.8919 H   0  0  0  0  0  0  0  0  0  0  0  0
    4.8803    0.5786   20.8604 H   0  0  0  0  0  0  0  0  0  0  0  0
    7.6596   -3.2119   22.8999 H   0  0  0  0  0  0  0  0  0  0  0  0
    5.6009   -2.6981   20.0439 H   0  0  0  0  0  0  0  0  0  0  0  0
    4.9383   -1.8306   21.4318 H   0  0  0  0  0  0  0  0  0  0  0  0
    5.6338   -3.4300   21.6757 H   0  0  0  0  0  0  0  0  0  0  0  0
  1  2  1  0
  2  3  2  0
  3  4  1  0
  4  5  2  0
  5  6  1  0
  6  7  1  0
  7  8  1  0
  8  9  1  0
  9 10  1  0
 10 11  1  0
 11 12  1  0
 12 13  1  0
 12 14  1  0
 12 15  1  0
 11 16  1  0
 11 17  1  0
 10 18  1  0
 18 19  1  0
 18 20  1  0
 10 21  1  0
  9 22  1  0
  9 23  1  0
  8 24  1  0
  8 25  1  0
  7 26  1  0
  7 27  1  0
  5 28  1  0
 28 29  2  0
 29 30  1  0
 30 31  2  0
 31 32  1  0
 32 33  2  0
 33 34  1  0
 34 35  2  0
 35 36  1  0
 33 37  1  0
 32 38  1  0
 31 39  1  0
  3 40  1  0
  1 41  1  0
  1 42  1  0
  1 43  1  0
 29  2  1  0
 35 30  1  0
 18  6  1  0
M  END
>  <cnnaffinity>  (1) 
-5.60362

>  <filename>  (1) 
Cc1cnc(N2CCCC(CC(F)F)C2)nc1-c1cccnc1

$$$$
