
     RDKit          3D

 36 38  0  0  0  0  0  0  0  0999 V2000
    4.9094    1.8666   16.9700 H   0  0  0  0  0  0  0  0  0  0  0  0
    5.3919    1.3323   17.7873 C   0  0  0  0  0  0  0  0  0  0  0  0
    6.5420    0.7051   17.4904 N   0  0  0  0  0  0  0  0  0  0  0  0
    7.1846    0.0612   18.4803 C   0  0  0  0  0  0  0  0  0  0  0  0
    8.0878   -0.4784   18.1930 H   0  0  0  0  0  0  0  0  0  0  0  0
    6.7320    0.0155   19.8242 C   0  0  0  0  0  0  0  0  0  0  0  0
    7.4259   -0.6369   20.8646 N   0  0  0  0  0  0  0  0  0  0  0  0
    6.8785   -0.8934   21.6775 H   0  0  0  0  0  0  0  0  0  0  0  0
    8.8170   -0.5980   21.0913 C   0  0  0  0  0  0  0  0  0  0  0  0
    9.7597    0.3829   20.7224 C   0  0  0  0  0  0  0  0  0  0  0  0
    9.5354    1.2756   20.1806 H   0  0  0  0  0  0  0  0  0  0  0  0
   10.9918    0.0867   21.1165 N   0  0  0  0  0  0  0  0  0  0  0  0
   10.8473   -1.0800   21.7616 N   0  0  0  0  0  0  0  0  0  0  0  0
   11.6778   -1.5881   22.0361 H   0  0  0  0  0  0  0  0  0  0  0  0
    9.5642   -1.5441   21.7826 C   0  0  0  0  0  0  0  0  0  0  0  0
    9.0854   -2.7292   22.5023 C   0  0  0  0  0  0  0  0  0  0  0  0
    8.0153   -3.4685   21.9794 C   0  0  0  0  0  0  0  0  0  0  0  0
    7.6450   -3.2252   20.9898 H   0  0  0  0  0  0  0  0  0  0  0  0
    7.4209   -4.4809   22.7333 C   0  0  0  0  0  0  0  0  0  0  0  0
    6.5657   -5.0149   22.3267 H   0  0  0  0  0  0  0  0  0  0  0  0
    7.8979   -4.7929   24.0142 C   0  0  0  0  0  0  0  0  0  0  0  0
    7.1873   -5.7628   24.9150 C   0  0  0  0  0  0  0  0  0  0  0  0
    7.8724   -6.5547   25.2394 H   0  0  0  0  0  0  0  0  0  0  0  0
    6.8560   -5.2800   25.8425 H   0  0  0  0  0  0  0  0  0  0  0  0
    6.3119   -6.1986   24.4286 H   0  0  0  0  0  0  0  0  0  0  0  0
    9.0780   -4.1622   24.4751 C   0  0  0  0  0  0  0  0  0  0  0  0
    9.7474   -4.6104   25.7472 C   0  0  0  0  0  0  0  0  0  0  0  0
   10.6273   -4.0036   25.9672 H   0  0  0  0  0  0  0  0  0  0  0  0
   10.0717   -5.6549   25.6714 H   0  0  0  0  0  0  0  0  0  0  0  0
    9.0585   -4.5462   26.5952 H   0  0  0  0  0  0  0  0  0  0  0  0
    9.6250   -3.1192   23.7370 C   0  0  0  0  0  0  0  0  0  0  0  0
   10.4575   -2.5652   24.1647 H   0  0  0  0  0  0  0  0  0  0  0  0
    5.4921    0.6194   20.0886 C   0  0  0  0  0  0  0  0  0  0  0  0
    5.0717    0.5475   21.0882 H   0  0  0  0  0  0  0  0  0  0  0  0
    4.8228    1.3008   19.0637 C   0  0  0  0  0  0  0  0  0  0  0  0
    3.8789    1.8070   19.2414 H   0  0  0  0  0  0  0  0  0  0  0  0
  1  2  1  0
  2  3  2  0
  3  4  1  0
  4  5  1  0
  4  6  2  0
  6  7  1  0
  7  8  1  0
  7  9  1  0
  9 10  1  0
 10 11  1  0
 10 12  2  0
 12 13  1  0
 13 14  1  0
 13 15  1  0
 15 16  1  0
 16 17  2  0
 17 18  1  0
 17 19  1  0
 19 20  1  0
 19 21  2  0
 21 22  1  0
 22 23  1  0
 22 24  1  0
 22 25  1  0
 21 26  1  0
 26 27  1  0
 27 28  1  0
 27 29  1  0
 27 30  1  0
 26 31  2  0
 31 32  1  0
  6 33  1  0
 33 34  1  0
 33 35  2  0
 35 36  1  0
 35  2  1  0
 15  9  2  0
 31 16  1  0
M  END
>  <cnnaffinity>  (1) 
-5.7612

>  <filename>  (1) 
Cc1ccc(-c2[nH]ncc2Nc2cccnc2)cc1C

$$$$
