
     RDKit          3D

 41 44  0  0  0  0  0  0  0  0999 V2000
    4.9976    1.8457   16.9106 H   0  0  0  0  0  0  0  0  0  0  0  0
    5.3866    1.3107   17.7772 C   0  0  0  0  0  0  0  0  0  0  0  0
    6.5389    0.6474   17.5937 N   0  0  0  0  0  0  0  0  0  0  0  0
    7.0612    0.0249   18.6611 C   0  0  0  0  0  0  0  0  0  0  0  0
    7.9993   -0.4947   18.4781 H   0  0  0  0  0  0  0  0  0  0  0  0
    6.4759   -0.0087   19.9472 C   0  0  0  0  0  0  0  0  0  0  0  0
    7.2293   -0.6200   21.0682 C   0  0  0  0  0  0  0  0  0  0  0  0
    8.5837   -0.5528   21.3065 C   0  0  0  0  0  0  0  0  0  0  0  0
    8.7997   -1.1521   22.5391 C   0  0  0  0  0  0  0  0  0  0  0  0
    7.6900   -1.6136   23.0804 N   0  0  0  0  0  0  0  0  0  0  0  0
    6.7342   -1.2722   22.1718 N   0  0  0  0  0  0  0  0  0  0  0  0
    5.7775   -1.5236   22.3774 H   0  0  0  0  0  0  0  0  0  0  0  0
   10.2408   -1.1204   22.9542 C   0  0  0  0  0  0  0  0  0  0  0  0
   10.6592   -2.1325   22.9899 H   0  0  0  0  0  0  0  0  0  0  0  0
   10.3888   -0.6859   23.9481 H   0  0  0  0  0  0  0  0  0  0  0  0
   10.9166   -0.2488   21.8333 C   0  0  2  0  0  0  0  0  0  0  0  0
   11.7651   -0.8090   21.4342 H   0  0  0  0  0  0  0  0  0  0  0  0
   11.4282    1.0876   22.3497 C   0  0  0  0  0  0  0  0  0  0  0  0
   12.7865    1.4318   22.3285 C   0  0  0  0  0  0  0  0  0  0  0  0
   13.5255    0.7314   21.9462 H   0  0  0  0  0  0  0  0  0  0  0  0
   13.2104    2.6796   22.7985 C   0  0  0  0  0  0  0  0  0  0  0  0
   14.2644    2.9480   22.7469 H   0  0  0  0  0  0  0  0  0  0  0  0
   12.3065    3.6091   23.3230 C   0  0  0  0  0  0  0  0  0  0  0  0
   12.8008    4.9447   23.8332 C   0  0  0  0  0  0  0  0  0  0  0  0
   13.8909    5.0152   23.7837 H   0  0  0  0  0  0  0  0  0  0  0  0
   12.3942    5.7800   23.2501 H   0  0  0  0  0  0  0  0  0  0  0  0
   12.5070    5.1171   24.8753 H   0  0  0  0  0  0  0  0  0  0  0  0
   10.9314    3.2695   23.3617 C   0  0  0  0  0  0  0  0  0  0  0  0
    9.9096    4.2265   23.9249 C   0  0  0  0  0  0  0  0  0  0  0  0
   10.0804    4.4160   24.9905 H   0  0  0  0  0  0  0  0  0  0  0  0
    9.9536    5.2016   23.4275 H   0  0  0  0  0  0  0  0  0  0  0  0
    8.8877    3.8498   23.8215 H   0  0  0  0  0  0  0  0  0  0  0  0
   10.5242    2.0238   22.8685 C   0  0  0  0  0  0  0  0  0  0  0  0
    9.4629    1.7760   22.8883 H   0  0  0  0  0  0  0  0  0  0  0  0
    9.8503   -0.0670   20.6991 C   0  0  0  0  0  0  0  0  0  0  0  0
   10.1164   -0.6689   19.8286 H   0  0  0  0  0  0  0  0  0  0  0  0
    9.7771    0.9673   20.3450 H   0  0  0  0  0  0  0  0  0  0  0  0
    5.2518    0.6670   20.1065 C   0  0  0  0  0  0  0  0  0  0  0  0
    4.7527    0.7085   21.0782 H   0  0  0  0  0  0  0  0  0  0  0  0
    4.7138    1.3384   19.0053 C   0  0  0  0  0  0  0  0  0  0  0  0
    3.7988    1.9117   19.0862 H   0  0  0  0  0  0  0  0  0  0  0  0
  1  2  1  0
  2  3  2  0
  3  4  1  0
  4  5  1  0
  4  6  2  0
  6  7  1  0
  7  8  2  0
  8  9  1  0
  9 10  2  0
 10 11  1  0
 11 12  1  0
  9 13  1  0
 13 14  1  0
 13 15  1  0
 13 16  1  0
 16 17  1  6
 16 18  1  0
 18 19  2  0
 19 20  1  0
 19 21  1  0
 21 22  1  0
 21 23  2  0
 23 24  1  0
 24 25  1  0
 24 26  1  0
 24 27  1  0
 23 28  1  0
 28 29  1  0
 29 30  1  0
 29 31  1  0
 29 32  1  0
 28 33  2  0
 33 34  1  0
 16 35  1  0
 35 36  1  0
 35 37  1  0
  6 38  1  0
 38 39  1  0
 38 40  2  0
 40 41  1  0
 40  2  1  0
 11  7  1  0
 33 18  1  0
 35  8  1  0
M  END
>  <cnnaffinity>  (1) 
-5.82712

>  <filename>  (1) 
Cc1ccc([C@H]2Cc3n[nH]c(-c4cccnc4)c3C2)cc1C

$$$$
