
     RDKit          3D

 31 33  0  0  0  0  0  0  0  0999 V2000
    4.9616    1.9404   16.7113 H   0  0  0  0  0  0  0  0  0  0  0  0
    5.4560    1.4442   17.5408 C   0  0  0  0  0  0  0  0  0  0  0  0
    6.6036    0.8162   17.2361 N   0  0  0  0  0  0  0  0  0  0  0  0
    7.2407    0.1803   18.2279 C   0  0  0  0  0  0  0  0  0  0  0  0
    8.1569   -0.3359   17.9355 H   0  0  0  0  0  0  0  0  0  0  0  0
    6.7610    0.1274   19.5520 C   0  0  0  0  0  0  0  0  0  0  0  0
    7.3712   -0.6865   20.6052 C   0  0  0  0  0  0  0  0  0  0  0  0
    6.7673   -1.3996   21.5755 C   0  0  0  0  0  0  0  0  0  0  0  0
    5.7151   -1.5859   21.7647 H   0  0  0  0  0  0  0  0  0  0  0  0
    7.7604   -2.0177   22.3371 N   0  0  0  0  0  0  0  0  0  0  0  0
    7.5033   -2.7543   23.5178 C   0  0  0  0  0  0  0  0  0  0  0  0
    6.3708   -3.4570   23.4860 N   0  0  0  0  0  0  0  0  0  0  0  0
    6.0384   -4.1346   24.5896 C   0  0  0  0  0  0  0  0  0  0  0  0
    5.1016   -4.6872   24.5317 H   0  0  0  0  0  0  0  0  0  0  0  0
    6.7830   -4.1107   25.7626 C   0  0  0  0  0  0  0  0  0  0  0  0
    6.4484   -4.6710   26.6278 H   0  0  0  0  0  0  0  0  0  0  0  0
    7.9655   -3.3589   25.7936 C   0  0  0  0  0  0  0  0  0  0  0  0
    8.8540   -3.2987   26.9993 C   0  0  0  0  0  0  0  0  0  0  0  0
    9.2293   -2.2772   27.1306 H   0  0  0  0  0  0  0  0  0  0  0  0
    9.7278   -3.9468   26.8521 H   0  0  0  0  0  0  0  0  0  0  0  0
    8.3196   -3.6066   27.9042 H   0  0  0  0  0  0  0  0  0  0  0  0
    8.3266   -2.6669   24.6358 C   0  0  0  0  0  0  0  0  0  0  0  0
    9.2230   -2.0621   24.5959 H   0  0  0  0  0  0  0  0  0  0  0  0
    8.9990   -1.7129   21.8178 C   0  0  0  0  0  0  0  0  0  0  0  0
   10.5354   -2.1560   22.2494 S   0  0  0  0  0  0  0  0  0  0  0  0
    8.7280   -0.9109   20.7597 N   0  0  0  0  0  0  0  0  0  0  0  0
    9.5112   -0.5261   20.2595 H   0  0  0  0  0  0  0  0  0  0  0  0
    5.5676    0.8084   19.8503 C   0  0  0  0  0  0  0  0  0  0  0  0
    5.1943    0.8196   20.8782 H   0  0  0  0  0  0  0  0  0  0  0  0
    4.8979    1.4698   18.8249 C   0  0  0  0  0  0  0  0  0  0  0  0
    3.9632    1.9912   19.0035 H   0  0  0  0  0  0  0  0  0  0  0  0
  1  2  1  0
  2  3  2  0
  3  4  1  0
  4  5  1  0
  4  6  2  0
  6  7  1  0
  7  8  2  0
  8  9  1  0
  8 10  1  0
 10 11  1  0
 11 12  2  0
 12 13  1  0
 13 14  1  0
 13 15  2  0
 15 16  1  0
 15 17  1  0
 17 18  1  0
 18 19  1  0
 18 20  1  0
 18 21  1  0
 17 22  2  0
 22 23  1  0
 10 24  1  0
 24 25  2  0
 24 26  1  0
 26 27  1  0
  6 28  1  0
 28 29  1  0
 28 30  2  0
 30 31  1  0
 30  2  1  0
 26  7  1  0
 22 11  1  0
M  END
>  <cnnaffinity>  (1) 
-5.27642

>  <filename>  (1) 
Cc1ccnc(-n2cc(-c3cccnc3)[nH]c2=S)c1

$$$$
