
     RDKit          3D

 38 41  0  0  0  0  0  0  0  0999 V2000
    4.9966    1.8436   16.9120 H   0  0  0  0  0  0  0  0  0  0  0  0
    5.3886    1.3095   17.7794 C   0  0  0  0  0  0  0  0  0  0  0  0
    6.5389    0.6471   17.5951 N   0  0  0  0  0  0  0  0  0  0  0  0
    7.0624    0.0249   18.6608 C   0  0  0  0  0  0  0  0  0  0  0  0
    8.0014   -0.4946   18.4772 H   0  0  0  0  0  0  0  0  0  0  0  0
    6.4789   -0.0083   19.9456 C   0  0  0  0  0  0  0  0  0  0  0  0
    7.2361   -0.6216   21.0670 C   0  0  0  0  0  0  0  0  0  0  0  0
    8.5912   -0.5548   21.3048 C   0  0  0  0  0  0  0  0  0  0  0  0
    8.8036   -1.1598   22.5378 C   0  0  0  0  0  0  0  0  0  0  0  0
    7.6907   -1.6221   23.0733 N   0  0  0  0  0  0  0  0  0  0  0  0
    6.7426   -1.2757   22.1635 N   0  0  0  0  0  0  0  0  0  0  0  0
    5.7807   -1.5214   22.3703 H   0  0  0  0  0  0  0  0  0  0  0  0
   10.2405   -1.1267   22.9633 C   0  0  0  0  0  0  0  0  0  0  0  0
   10.3741   -0.6705   23.9489 H   0  0  0  0  0  0  0  0  0  0  0  0
   10.6559   -2.1380   23.0297 H   0  0  0  0  0  0  0  0  0  0  0  0
   10.9365   -0.2836   21.8322 C   0  0  2  0  0  0  0  0  0  0  0  0
   11.7498   -0.8839   21.4159 H   0  0  0  0  0  0  0  0  0  0  0  0
   11.5192    1.0227   22.3490 C   0  0  0  0  0  0  0  0  0  0  0  0
   10.6616    2.0067   22.8692 C   0  0  0  0  0  0  0  0  0  0  0  0
    9.5897    1.8175   22.9016 H   0  0  0  0  0  0  0  0  0  0  0  0
   11.1583    3.2318   23.3225 C   0  0  0  0  0  0  0  0  0  0  0  0
   10.4682    3.9730   23.7132 H   0  0  0  0  0  0  0  0  0  0  0  0
   12.5291    3.5314   23.2592 C   0  0  0  0  0  0  0  0  0  0  0  0
   13.0679    4.8832   23.6792 C   0  0  0  0  0  0  0  0  0  0  0  0
   12.3366    5.6808   23.5079 H   0  0  0  0  0  0  0  0  0  0  0  0
   13.9854    5.1326   23.1331 H   0  0  0  0  0  0  0  0  0  0  0  0
   13.3160    4.9207   24.7448 H   0  0  0  0  0  0  0  0  0  0  0  0
   13.3854    2.5344   22.7712 C   0  0  0  0  0  0  0  0  0  0  0  0
   14.4474    2.7508   22.6998 H   0  0  0  0  0  0  0  0  0  0  0  0
   12.8970    1.2986   22.3303 C   0  0  0  0  0  0  0  0  0  0  0  0
   13.6016    0.5601   21.9498 H   0  0  0  0  0  0  0  0  0  0  0  0
    9.8606   -0.0617   20.7085 C   0  0  0  0  0  0  0  0  0  0  0  0
   10.1135   -0.6462   19.8205 H   0  0  0  0  0  0  0  0  0  0  0  0
    9.7945    0.9818   20.3770 H   0  0  0  0  0  0  0  0  0  0  0  0
    5.2566    0.6675   20.1069 C   0  0  0  0  0  0  0  0  0  0  0  0
    4.7599    0.7090   21.0803 H   0  0  0  0  0  0  0  0  0  0  0  0
    4.7152    1.3387   19.0068 C   0  0  0  0  0  0  0  0  0  0  0  0
    3.7998    1.9117   19.0893 H   0  0  0  0  0  0  0  0  0  0  0  0
  1  2  1  0
  2  3  2  0
  3  4  1  0
  4  5  1  0
  4  6  2  0
  6  7  1  0
  7  8  2  0
  8  9  1  0
  9 10  2  0
 10 11  1  0
 11 12  1  0
  9 13  1  0
 13 14  1  0
 13 15  1  0
 13 16  1  0
 16 17  1  6
 16 18  1  0
 18 19  2  0
 19 20  1  0
 19 21  1  0
 21 22  1  0
 21 23  2  0
 23 24  1  0
 24 25  1  0
 24 26  1  0
 24 27  1  0
 23 28  1  0
 28 29  1  0
 28 30  2  0
 30 31  1  0
 16 32  1  0
 32 33  1  0
 32 34  1  0
  6 35  1  0
 35 36  1  0
 35 37  2  0
 37 38  1  0
 37  2  1  0
 11  7  1  0
 30 18  1  0
 32  8  1  0
M  END
>  <cnnaffinity>  (1) 
-5.60393

>  <filename>  (1) 
Cc1ccc([C@H]2Cc3n[nH]c(-c4cccnc4)c3C2)cc1

$$$$
