
     RDKit          3D

 37 40  0  0  0  0  0  0  0  0999 V2000
    4.9511    1.8263   16.9727 H   0  0  0  0  0  0  0  0  0  0  0  0
    5.4031    1.2959   17.8093 C   0  0  0  0  0  0  0  0  0  0  0  0
    6.5630    0.6691   17.5544 N   0  0  0  0  0  0  0  0  0  0  0  0
    7.1491    0.0148   18.5620 C   0  0  0  0  0  0  0  0  0  0  0  0
    8.1043   -0.4527   18.3262 H   0  0  0  0  0  0  0  0  0  0  0  0
    6.6169   -0.0464   19.8625 C   0  0  0  0  0  0  0  0  0  0  0  0
    7.3561   -0.7022   20.9450 C   0  0  0  0  0  0  0  0  0  0  0  0
    8.0849   -1.7953   20.7299 N   0  0  0  0  0  0  0  0  0  0  0  0
    8.5668   -2.0873   21.9372 N   0  0  0  0  0  0  0  0  0  0  0  0
    8.2377   -1.2529   22.9167 C   0  0  0  0  0  0  0  0  0  0  0  0
    7.4515   -0.2887   22.3142 C   0  0  0  0  0  0  0  0  0  0  0  0
    7.0965    0.9599   22.9606 C   0  0  0  0  0  0  0  0  0  0  0  0
    6.6290    0.9498   24.2780 C   0  0  0  0  0  0  0  0  0  0  0  0
    6.4928    0.0147   24.8123 H   0  0  0  0  0  0  0  0  0  0  0  0
    6.3307    2.1661   24.8733 C   0  0  0  0  0  0  0  0  0  0  0  0
    5.9497    2.2045   25.8928 H   0  0  0  0  0  0  0  0  0  0  0  0
    6.4860    3.3491   24.2607 N   0  0  0  0  0  0  0  0  0  0  0  0
    6.9551    3.3549   23.0057 C   0  0  0  0  0  0  0  0  0  0  0  0
    7.1306    4.6721   22.3151 C   0  0  0  0  0  0  0  0  0  0  0  0
    8.1994    4.8595   22.1447 H   0  0  0  0  0  0  0  0  0  0  0  0
    6.6311    4.6387   21.3378 H   0  0  0  0  0  0  0  0  0  0  0  0
    6.7041    5.4739   22.9225 H   0  0  0  0  0  0  0  0  0  0  0  0
    7.2813    2.1833   22.3246 C   0  0  0  0  0  0  0  0  0  0  0  0
    7.6596    2.2338   21.3075 H   0  0  0  0  0  0  0  0  0  0  0  0
    9.0799   -1.4959   24.1492 C   0  0  0  0  0  0  0  0  0  0  0  0
    9.6793   -0.6014   24.3582 H   0  0  0  0  0  0  0  0  0  0  0  0
    8.4806   -1.6889   25.0468 H   0  0  0  0  0  0  0  0  0  0  0  0
    9.9510   -2.7166   23.7267 C   0  0  0  0  0  0  0  0  0  0  0  0
   11.0127   -2.4927   23.7748 H   0  0  0  0  0  0  0  0  0  0  0  0
    9.7736   -3.5895   24.3539 H   0  0  0  0  0  0  0  0  0  0  0  0
    9.5730   -3.0534   22.2591 C   0  0  0  0  0  0  0  0  0  0  0  0
   10.4054   -2.9006   21.5684 H   0  0  0  0  0  0  0  0  0  0  0  0
    9.1429   -4.0523   22.1556 H   0  0  0  0  0  0  0  0  0  0  0  0
    5.4007    0.6092   20.1089 C   0  0  0  0  0  0  0  0  0  0  0  0
    4.9764    0.6284   21.1138 H   0  0  0  0  0  0  0  0  0  0  0  0
    4.7856    1.2918   19.0636 C   0  0  0  0  0  0  0  0  0  0  0  0
    3.8635    1.8412   19.2187 H   0  0  0  0  0  0  0  0  0  0  0  0
  1  2  1  0
  2  3  2  0
  3  4  1  0
  4  5  1  0
  4  6  2  0
  6  7  1  0
  7  8  2  0
  8  9  1  0
  9 10  1  0
 10 11  2  0
 11 12  1  0
 12 13  2  0
 13 14  1  0
 13 15  1  0
 15 16  1  0
 15 17  2  0
 17 18  1  0
 18 19  1  0
 19 20  1  0
 19 21  1  0
 19 22  1  0
 18 23  2  0
 23 24  1  0
 10 25  1  0
 25 26  1  0
 25 27  1  0
 25 28  1  0
 28 29  1  0
 28 30  1  0
 28 31  1  0
 31 32  1  0
 31 33  1  0
  6 34  1  0
 34 35  1  0
 34 36  2  0
 36 37  1  0
 36  2  1  0
 11  7  1  0
 23 12  1  0
 31  9  1  0
M  END
>  <cnnaffinity>  (1) 
-5.61368

>  <filename>  (1) 
Cc1cc(-c2c(-c3cccnc3)nn3c2CCC3)ccn1

$$$$
