
     RDKit          3D

 32 35  0  0  0  0  0  0  0  0999 V2000
    4.9738    1.7866   16.9894 H   0  0  0  0  0  0  0  0  0  0  0  0
    5.4163    1.2808   17.8453 C   0  0  0  0  0  0  0  0  0  0  0  0
    6.5759    0.6507   17.6108 N   0  0  0  0  0  0  0  0  0  0  0  0
    7.1707    0.0417   18.6386 C   0  0  0  0  0  0  0  0  0  0  0  0
    8.1193   -0.4462   18.4279 H   0  0  0  0  0  0  0  0  0  0  0  0
    6.6365    0.0185   19.9313 C   0  0  0  0  0  0  0  0  0  0  0  0
    7.3789   -0.6901   20.9692 C   0  0  0  0  0  0  0  0  0  0  0  0
    8.5618   -1.3314   20.7378 N   0  0  0  0  0  0  0  0  0  0  0  0
    8.8253   -1.8234   21.9308 C   0  0  0  0  0  0  0  0  0  0  0  0
   10.0530   -2.7806   22.6989 S   0  0  0  0  0  0  0  0  0  0  0  0
    9.1334   -2.7641   24.1808 C   0  0  0  0  0  0  0  0  0  0  0  0
    9.5087   -3.2791   25.0563 H   0  0  0  0  0  0  0  0  0  0  0  0
    7.9936   -2.0399   24.1034 C   0  0  0  0  0  0  0  0  0  0  0  0
    6.9912   -1.7887   25.1797 C   0  0  0  0  0  0  0  0  0  0  0  0
    6.2404   -0.5971   25.2866 C   0  0  0  0  0  0  0  0  0  0  0  0
    6.3208    0.1804   24.5374 H   0  0  0  0  0  0  0  0  0  0  0  0
    5.3554   -0.4534   26.3525 C   0  0  0  0  0  0  0  0  0  0  0  0
    4.7625    0.4539   26.4710 H   0  0  0  0  0  0  0  0  0  0  0  0
    5.1388   -1.3990   27.2798 N   0  0  0  0  0  0  0  0  0  0  0  0
    5.8197   -2.5463   27.1670 C   0  0  0  0  0  0  0  0  0  0  0  0
    5.4890   -3.6448   28.1382 C   0  0  0  0  0  0  0  0  0  0  0  0
    6.3915   -4.1765   28.4588 H   0  0  0  0  0  0  0  0  0  0  0  0
    4.9758   -3.2524   29.0195 H   0  0  0  0  0  0  0  0  0  0  0  0
    4.8309   -4.3779   27.6566 H   0  0  0  0  0  0  0  0  0  0  0  0
    6.7706   -2.7649   26.1616 C   0  0  0  0  0  0  0  0  0  0  0  0
    7.3006   -3.7142   26.1528 H   0  0  0  0  0  0  0  0  0  0  0  0
    7.8604   -1.5084   22.8191 N   0  0  0  0  0  0  0  0  0  0  0  0
    6.9123   -0.7625   22.2098 N   0  0  0  0  0  0  0  0  0  0  0  0
    5.4123    0.6680   20.1715 C   0  0  0  0  0  0  0  0  0  0  0  0
    4.9683    0.6694   21.1697 H   0  0  0  0  0  0  0  0  0  0  0  0
    4.7954    1.3111   19.1004 C   0  0  0  0  0  0  0  0  0  0  0  0
    3.8603    1.8504   19.2150 H   0  0  0  0  0  0  0  0  0  0  0  0
  1  2  1  0
  2  3  2  0
  3  4  1  0
  4  5  1  0
  4  6  2  0
  6  7  1  0
  7  8  1  0
  8  9  2  0
  9 10  1  0
 10 11  1  0
 11 12  1  0
 11 13  2  0
 13 14  1  0
 14 15  2  0
 15 16  1  0
 15 17  1  0
 17 18  1  0
 17 19  2  0
 19 20  1  0
 20 21  1  0
 21 22  1  0
 21 23  1  0
 21 24  1  0
 20 25  2  0
 25 26  1  0
 13 27  1  0
 27 28  1  0
  6 29  1  0
 29 30  1  0
 29 31  2  0
 31 32  1  0
 31  2  1  0
 28  7  2  0
 27  9  1  0
 25 14  1  0
M  END
>  <cnnaffinity>  (1) 
-5.5581

>  <filename>  (1) 
Cc1cc(-c2csc3nc(-c4cccnc4)nn23)ccn1

$$$$
