
     RDKit          3D

 35 37  0  0  0  0  0  0  0  0999 V2000
    9.4341    0.8603   20.2812 H   0  0  0  0  0  0  0  0  0  0  0  0
    9.7205    0.0274   20.9298 C   0  0  0  0  0  0  0  0  0  0  0  0
    8.7546   -0.8243   21.3467 C   0  0  0  0  0  0  0  0  0  0  0  0
    7.2986   -0.8232   21.0220 C   0  0  0  0  0  0  0  0  0  0  0  0
    6.6584   -0.0293   19.9437 C   0  0  0  0  0  0  0  0  0  0  0  0
    7.2430    0.0164   18.6734 C   0  0  0  0  0  0  0  0  0  0  0  0
    8.1920   -0.4878   18.4909 H   0  0  0  0  0  0  0  0  0  0  0  0
    6.7040    0.6511   17.6237 N   0  0  0  0  0  0  0  0  0  0  0  0
    5.5442    1.2934   17.8237 C   0  0  0  0  0  0  0  0  0  0  0  0
    5.1173    1.7960   16.9571 H   0  0  0  0  0  0  0  0  0  0  0  0
    4.8685    1.3062   19.0505 C   0  0  0  0  0  0  0  0  0  0  0  0
    3.9313    1.8475   19.1435 H   0  0  0  0  0  0  0  0  0  0  0  0
    5.4262    0.6200   20.1292 C   0  0  0  0  0  0  0  0  0  0  0  0
    4.9259    0.5810   21.0980 H   0  0  0  0  0  0  0  0  0  0  0  0
    6.5996   -1.5957   21.7667 N   0  0  0  0  0  0  0  0  0  0  0  0
    7.4547   -2.2185   22.7756 C   0  0  0  0  0  0  0  0  0  0  0  0
    7.2494   -3.2902   22.8185 H   0  0  0  0  0  0  0  0  0  0  0  0
    7.1750   -1.8070   23.7496 H   0  0  0  0  0  0  0  0  0  0  0  0
    8.9209   -1.8837   22.4184 C   0  0  0  0  0  0  0  0  0  0  0  0
    9.4284   -2.7697   22.0226 H   0  0  0  0  0  0  0  0  0  0  0  0
    9.4961   -1.5248   23.2779 H   0  0  0  0  0  0  0  0  0  0  0  0
   11.1446    0.0172   21.3892 C   0  0  0  0  0  0  0  0  0  0  0  0
   11.9015   -1.1700   21.4201 C   0  0  0  0  0  0  0  0  0  0  0  0
   11.4515   -2.0719   21.0236 H   0  0  0  0  0  0  0  0  0  0  0  0
   13.2045   -1.2047   21.9284 C   0  0  0  0  0  0  0  0  0  0  0  0
   13.7656   -2.1354   21.9320 H   0  0  0  0  0  0  0  0  0  0  0  0
   13.7653   -0.0447   22.4668 C   0  0  0  0  0  0  0  0  0  0  0  0
   14.7762   -0.0563   22.8671 H   0  0  0  0  0  0  0  0  0  0  0  0
   13.0338    1.1513   22.4311 C   0  0  0  0  0  0  0  0  0  0  0  0
   13.4560    2.0526   22.8755 H   0  0  0  0  0  0  0  0  0  0  0  0
   11.7669    1.2188   21.8341 C   0  0  0  0  0  0  0  0  0  0  0  0
   11.0605    2.5487   21.6948 C   0  0  0  0  0  0  0  0  0  0  0  0
   11.6365    3.3859   22.1010 H   0  0  0  0  0  0  0  0  0  0  0  0
   10.0901    2.5317   22.2016 H   0  0  0  0  0  0  0  0  0  0  0  0
   10.8649    2.7763   20.6427 H   0  0  0  0  0  0  0  0  0  0  0  0
  1  2  1  0
  2  3  2  3
  3  4  1  0
  4  5  1  0
  5  6  2  0
  6  7  1  0
  6  8  1  0
  8  9  2  0
  9 10  1  0
  9 11  1  0
 11 12  1  0
 11 13  2  0
 13 14  1  0
  4 15  2  0
 15 16  1  0
 16 17  1  0
 16 18  1  0
 16 19  1  0
 19 20  1  0
 19 21  1  0
  2 22  1  0
 22 23  2  0
 23 24  1  0
 23 25  1  0
 25 26  1  0
 25 27  2  0
 27 28  1  0
 27 29  1  0
 29 30  1  0
 29 31  2  0
 31 32  1  0
 32 33  1  0
 32 34  1  0
 32 35  1  0
 19  3  1  0
 31 22  1  0
 13  5  1  0
M  END
>  <cnnaffinity>  (1) 
-5.87852

>  <filename>  (1) 
Cc1ccccc1C=C1CCN=C1c1cccnc1

$$$$
