
     RDKit          3D

 36 39  0  0  0  0  0  0  0  0999 V2000
    4.9447    1.7798   16.9754 H   0  0  0  0  0  0  0  0  0  0  0  0
    5.4051    1.2921   17.8306 C   0  0  0  0  0  0  0  0  0  0  0  0
    6.5670    0.6626   17.5951 N   0  0  0  0  0  0  0  0  0  0  0  0
    7.1565    0.0839   18.6437 C   0  0  0  0  0  0  0  0  0  0  0  0
    8.1021   -0.4117   18.4292 H   0  0  0  0  0  0  0  0  0  0  0  0
    6.6525    0.1016   19.9619 C   0  0  0  0  0  0  0  0  0  0  0  0
    7.4321   -0.5942   21.0072 C   0  0  0  0  0  0  0  0  0  0  0  0
    8.3012   -1.6097   20.8308 C   0  0  0  0  0  0  0  0  0  0  0  0
    8.7266   -1.9562   19.9094 H   0  0  0  0  0  0  0  0  0  0  0  0
    8.8740   -2.3095   22.3185 S   0  0  0  0  0  0  0  0  0  0  0  0
    8.0782   -1.0503   23.1996 C   0  0  0  0  0  0  0  0  0  0  0  0
    8.1043   -0.5550   24.4114 N   0  0  0  0  0  0  0  0  0  0  0  0
    7.3471    0.5706   24.2600 C   0  0  0  0  0  0  0  0  0  0  0  0
    7.1002    1.5165   25.3617 C   0  0  0  0  0  0  0  0  0  0  0  0
    7.6333    1.2869   26.6402 C   0  0  0  0  0  0  0  0  0  0  0  0
    8.2544    0.4144   26.8265 H   0  0  0  0  0  0  0  0  0  0  0  0
    7.3661    2.1805   27.6710 C   0  0  0  0  0  0  0  0  0  0  0  0
    7.7727    1.9977   28.6653 H   0  0  0  0  0  0  0  0  0  0  0  0
    6.5750    3.3181   27.4635 C   0  0  0  0  0  0  0  0  0  0  0  0
    6.3011    4.2555   28.6042 C   0  0  0  0  0  0  0  0  0  0  0  0
    6.7176    3.8751   29.5397 H   0  0  0  0  0  0  0  0  0  0  0  0
    5.2247    4.3968   28.7490 H   0  0  0  0  0  0  0  0  0  0  0  0
    6.7419    5.2411   28.4186 H   0  0  0  0  0  0  0  0  0  0  0  0
    6.0468    3.5678   26.1722 C   0  0  0  0  0  0  0  0  0  0  0  0
    5.1894    4.7810   25.8819 C   0  0  0  0  0  0  0  0  0  0  0  0
    5.6912    5.7168   26.1490 H   0  0  0  0  0  0  0  0  0  0  0  0
    4.2411    4.7571   26.4304 H   0  0  0  0  0  0  0  0  0  0  0  0
    4.9358    4.8490   24.8205 H   0  0  0  0  0  0  0  0  0  0  0  0
    6.3211    2.6659   25.1456 C   0  0  0  0  0  0  0  0  0  0  0  0
    5.9271    2.8572   24.1491 H   0  0  0  0  0  0  0  0  0  0  0  0
    6.8601    0.7793   23.0395 N   0  0  0  0  0  0  0  0  0  0  0  0
    7.3317   -0.2938   22.3669 N   0  0  0  0  0  0  0  0  0  0  0  0
    5.4173    0.7444   20.1831 C   0  0  0  0  0  0  0  0  0  0  0  0
    4.9843    0.7842   21.1872 H   0  0  0  0  0  0  0  0  0  0  0  0
    4.7903    1.3373   19.0871 C   0  0  0  0  0  0  0  0  0  0  0  0
    3.8386    1.8452   19.1957 H   0  0  0  0  0  0  0  0  0  0  0  0
  1  2  1  0
  2  3  2  0
  3  4  1  0
  4  5  1  0
  4  6  2  0
  6  7  1  0
  7  8  2  0
  8  9  1  0
  8 10  1  0
 10 11  1  0
 11 12  2  0
 12 13  1  0
 13 14  1  0
 14 15  2  0
 15 16  1  0
 15 17  1  0
 17 18  1  0
 17 19  2  0
 19 20  1  0
 20 21  1  0
 20 22  1  0
 20 23  1  0
 19 24  1  0
 24 25  1  0
 25 26  1  0
 25 27  1  0
 25 28  1  0
 24 29  2  0
 29 30  1  0
 13 31  2  0
 31 32  1  0
  6 33  1  0
 33 34  1  0
 33 35  2  0
 35 36  1  0
 35  2  1  0
 32  7  1  0
 32 11  1  0
 29 14  1  0
M  END
>  <cnnaffinity>  (1) 
-5.21932

>  <filename>  (1) 
Cc1ccc(-c2nc3scc(-c4cccnc4)n3n2)cc1C

$$$$
