
     RDKit          3D

 35 37  0  0  0  0  0  0  0  0999 V2000
    4.9201    1.8088   16.9616 H   0  0  0  0  0  0  0  0  0  0  0  0
    5.3908    1.3077   17.8085 C   0  0  0  0  0  0  0  0  0  0  0  0
    6.5549    0.6875   17.5571 N   0  0  0  0  0  0  0  0  0  0  0  0
    7.1690    0.0720   18.5756 C   0  0  0  0  0  0  0  0  0  0  0  0
    8.1038   -0.4201   18.3164 H   0  0  0  0  0  0  0  0  0  0  0  0
    6.6674    0.0175   19.8900 C   0  0  0  0  0  0  0  0  0  0  0  0
    7.3434   -0.7062   20.9747 C   0  0  0  0  0  0  0  0  0  0  0  0
    6.8261   -1.2344   22.1014 C   0  0  0  0  0  0  0  0  0  0  0  0
    5.8083   -1.3165   22.4086 H   0  0  0  0  0  0  0  0  0  0  0  0
    7.8468   -1.7863   22.8562 N   0  0  0  0  0  0  0  0  0  0  0  0
    7.6417   -2.4378   24.1118 C   0  0  0  0  0  0  0  0  0  0  0  0
    6.8392   -1.8310   25.0828 C   0  0  0  0  0  0  0  0  0  0  0  0
    6.3719   -0.8711   24.8629 H   0  0  0  0  0  0  0  0  0  0  0  0
    6.6609   -2.4767   26.3099 C   0  0  0  0  0  0  0  0  0  0  0  0
    6.0435   -2.0118   27.0762 H   0  0  0  0  0  0  0  0  0  0  0  0
    7.2437   -3.7261   26.5714 C   0  0  0  0  0  0  0  0  0  0  0  0
    7.0070   -4.4263   27.8876 C   0  0  0  0  0  0  0  0  0  0  0  0
    6.7167   -5.4748   27.7589 H   0  0  0  0  0  0  0  0  0  0  0  0
    7.9187   -4.4356   28.4962 H   0  0  0  0  0  0  0  0  0  0  0  0
    6.2109   -3.9421   28.4588 H   0  0  0  0  0  0  0  0  0  0  0  0
    8.0617   -4.3242   25.5801 C   0  0  0  0  0  0  0  0  0  0  0  0
    8.7386   -5.6480   25.8346 C   0  0  0  0  0  0  0  0  0  0  0  0
    9.3394   -5.6246   26.7517 H   0  0  0  0  0  0  0  0  0  0  0  0
    8.0014   -6.4483   25.9668 H   0  0  0  0  0  0  0  0  0  0  0  0
    9.3960   -5.9258   25.0062 H   0  0  0  0  0  0  0  0  0  0  0  0
    8.2389   -3.6766   24.3539 C   0  0  0  0  0  0  0  0  0  0  0  0
    8.8663   -4.1100   23.5783 H   0  0  0  0  0  0  0  0  0  0  0  0
    9.0417   -1.6119   22.1965 C   0  0  0  0  0  0  0  0  0  0  0  0
   10.6119   -1.9920   22.5890 S   0  0  0  0  0  0  0  0  0  0  0  0
    8.7001   -0.9780   21.0418 N   0  0  0  0  0  0  0  0  0  0  0  0
    9.4453   -0.6749   20.4413 H   0  0  0  0  0  0  0  0  0  0  0  0
    5.4418    0.6675   20.1258 C   0  0  0  0  0  0  0  0  0  0  0  0
    5.0095    0.6671   21.1271 H   0  0  0  0  0  0  0  0  0  0  0  0
    4.7980    1.3232   19.0764 C   0  0  0  0  0  0  0  0  0  0  0  0
    3.8624    1.8535   19.2225 H   0  0  0  0  0  0  0  0  0  0  0  0
  1  2  1  0
  2  3  2  0
  3  4  1  0
  4  5  1  0
  4  6  2  0
  6  7  1  0
  7  8  2  0
  8  9  1  0
  8 10  1  0
 10 11  1  0
 11 12  2  0
 12 13  1  0
 12 14  1  0
 14 15  1  0
 14 16  2  0
 16 17  1  0
 17 18  1  0
 17 19  1  0
 17 20  1  0
 16 21  1  0
 21 22  1  0
 22 23  1  0
 22 24  1  0
 22 25  1  0
 21 26  2  0
 26 27  1  0
 10 28  1  0
 28 29  2  0
 28 30  1  0
 30 31  1  0
  6 32  1  0
 32 33  1  0
 32 34  2  0
 34 35  1  0
 34  2  1  0
 30  7  1  0
 26 11  1  0
M  END
>  <cnnaffinity>  (1) 
-5.67822

>  <filename>  (1) 
Cc1ccc(-n2cc(-c3cccnc3)[nH]c2=S)cc1C

$$$$
