
     RDKit          3D

 32 34  0  0  0  0  0  0  0  0999 V2000
    4.9130    1.7855   16.9956 H   0  0  0  0  0  0  0  0  0  0  0  0
    5.3967    1.2968   17.8388 C   0  0  0  0  0  0  0  0  0  0  0  0
    6.5609    0.6825   17.5725 N   0  0  0  0  0  0  0  0  0  0  0  0
    7.1730    0.0598   18.5906 C   0  0  0  0  0  0  0  0  0  0  0  0
    8.1199   -0.4285   18.3707 H   0  0  0  0  0  0  0  0  0  0  0  0
    6.6680   -0.0161   19.9144 C   0  0  0  0  0  0  0  0  0  0  0  0
    7.3229   -0.7428   20.9239 N   0  0  0  0  0  0  0  0  0  0  0  0
    6.7739   -1.0427   21.7182 H   0  0  0  0  0  0  0  0  0  0  0  0
    8.7088   -0.7902   21.1117 C   0  0  0  0  0  0  0  0  0  0  0  0
    9.6967    0.1247   20.6859 C   0  0  0  0  0  0  0  0  0  0  0  0
    9.5375    1.0166   20.1010 H   0  0  0  0  0  0  0  0  0  0  0  0
   10.9040   -0.2173   21.1166 N   0  0  0  0  0  0  0  0  0  0  0  0
   10.7105   -1.3449   21.8012 N   0  0  0  0  0  0  0  0  0  0  0  0
   11.4928   -1.7832   22.2675 H   0  0  0  0  0  0  0  0  0  0  0  0
    9.4061   -1.7440   21.8393 C   0  0  0  0  0  0  0  0  0  0  0  0
    8.9340   -2.9578   22.5170 C   0  0  0  0  0  0  0  0  0  0  0  0
    9.6344   -3.3831   23.5913 N   0  0  0  0  0  0  0  0  0  0  0  0
    9.2030   -4.4667   24.2405 C   0  0  0  0  0  0  0  0  0  0  0  0
    9.9778   -4.9196   25.4530 C   0  0  0  0  0  0  0  0  0  0  0  0
    9.3195   -5.0290   26.3209 H   0  0  0  0  0  0  0  0  0  0  0  0
   10.7751   -4.2200   25.7044 H   0  0  0  0  0  0  0  0  0  0  0  0
   10.4226   -5.9046   25.2787 H   0  0  0  0  0  0  0  0  0  0  0  0
    8.0782   -5.2007   23.8176 C   0  0  0  0  0  0  0  0  0  0  0  0
    7.7830   -6.0784   24.3789 H   0  0  0  0  0  0  0  0  0  0  0  0
    7.3770   -4.7931   22.6873 C   0  0  0  0  0  0  0  0  0  0  0  0
    6.5060   -5.3460   22.3319 H   0  0  0  0  0  0  0  0  0  0  0  0
    7.8163   -3.6470   22.0224 C   0  0  0  0  0  0  0  0  0  0  0  0
    7.3342   -3.2892   21.1223 H   0  0  0  0  0  0  0  0  0  0  0  0
    5.4474    0.6311   20.1661 C   0  0  0  0  0  0  0  0  0  0  0  0
    5.0200    0.6209   21.1694 H   0  0  0  0  0  0  0  0  0  0  0  0
    4.8140    1.3045   19.1114 C   0  0  0  0  0  0  0  0  0  0  0  0
    3.8824    1.8371   19.2646 H   0  0  0  0  0  0  0  0  0  0  0  0
  1  2  1  0
  2  3  2  0
  3  4  1  0
  4  5  1  0
  4  6  2  0
  6  7  1  0
  7  8  1  0
  7  9  1  0
  9 10  1  0
 10 11  1  0
 10 12  2  0
 12 13  1  0
 13 14  1  0
 13 15  1  0
 15 16  1  0
 16 17  2  0
 17 18  1  0
 18 19  1  0
 19 20  1  0
 19 21  1  0
 19 22  1  0
 18 23  2  0
 23 24  1  0
 23 25  1  0
 25 26  1  0
 25 27  2  0
 27 28  1  0
  6 29  1  0
 29 30  1  0
 29 31  2  0
 31 32  1  0
 31  2  1  0
 15  9  2  0
 27 16  1  0
M  END
>  <cnnaffinity>  (1) 
-5.7502

>  <filename>  (1) 
Cc1cccc(-c2[nH]ncc2Nc2cccnc2)n1

$$$$
