
     RDKit          3D

 32 34  0  0  0  0  0  0  0  0999 V2000
    4.9770    1.7778   16.9852 H   0  0  0  0  0  0  0  0  0  0  0  0
    5.4126    1.2865   17.8502 C   0  0  0  0  0  0  0  0  0  0  0  0
    6.5813    0.6593   17.6359 N   0  0  0  0  0  0  0  0  0  0  0  0
    7.1649    0.0664   18.6804 C   0  0  0  0  0  0  0  0  0  0  0  0
    8.0962   -0.4580   18.4653 H   0  0  0  0  0  0  0  0  0  0  0  0
    6.6363    0.0910   19.9749 C   0  0  0  0  0  0  0  0  0  0  0  0
    7.3830   -0.6431   21.0114 C   0  0  0  0  0  0  0  0  0  0  0  0
    7.9798   -1.7350   20.7389 N   0  0  0  0  0  0  0  0  0  0  0  0
    8.4583   -2.3215   21.9886 C   0  0  0  0  0  0  0  0  0  0  0  0
    9.5507   -2.4226   21.9318 H   0  0  0  0  0  0  0  0  0  0  0  0
    8.0307   -3.3268   22.1033 H   0  0  0  0  0  0  0  0  0  0  0  0
    8.0121   -1.3637   23.1268 C   0  0  0  0  0  0  0  0  0  0  0  0
    7.2721   -1.7937   23.8194 H   0  0  0  0  0  0  0  0  0  0  0  0
    8.8510   -1.0051   23.7439 H   0  0  0  0  0  0  0  0  0  0  0  0
    7.4141   -0.2745   22.3441 N   0  0  0  0  0  0  0  0  0  0  0  0
    7.2004    0.9905   22.8625 C   0  0  0  0  0  0  0  0  0  0  0  0
    6.7397    1.0176   24.1177 N   0  0  0  0  0  0  0  0  0  0  0  0
    6.5079    2.2153   24.6621 C   0  0  0  0  0  0  0  0  0  0  0  0
    5.9623    2.2807   26.0692 C   0  0  0  0  0  0  0  0  0  0  0  0
    5.0663    2.9152   26.0903 H   0  0  0  0  0  0  0  0  0  0  0  0
    6.7068    2.7567   26.7216 H   0  0  0  0  0  0  0  0  0  0  0  0
    5.7170    1.2905   26.4675 H   0  0  0  0  0  0  0  0  0  0  0  0
    6.7862    3.4128   23.9888 C   0  0  0  0  0  0  0  0  0  0  0  0
    6.5953    4.3389   24.5141 H   0  0  0  0  0  0  0  0  0  0  0  0
    7.3033    3.3742   22.6924 C   0  0  0  0  0  0  0  0  0  0  0  0
    7.5364    4.2991   22.1604 H   0  0  0  0  0  0  0  0  0  0  0  0
    7.5111    2.1299   22.1034 C   0  0  0  0  0  0  0  0  0  0  0  0
    7.8893    1.9930   21.0967 H   0  0  0  0  0  0  0  0  0  0  0  0
    5.3919    0.7019   20.1800 C   0  0  0  0  0  0  0  0  0  0  0  0
    4.9169    0.6911   21.1651 H   0  0  0  0  0  0  0  0  0  0  0  0
    4.7792    1.3230   19.0984 C   0  0  0  0  0  0  0  0  0  0  0  0
    3.8387    1.8496   19.2062 H   0  0  0  0  0  0  0  0  0  0  0  0
  1  2  1  0
  2  3  2  0
  3  4  1  0
  4  5  1  0
  4  6  2  0
  6  7  1  0
  7  8  2  0
  8  9  1  0
  9 10  1  0
  9 11  1  0
  9 12  1  0
 12 13  1  0
 12 14  1  0
 12 15  1  0
 15 16  1  0
 16 17  2  0
 17 18  1  0
 18 19  1  0
 19 20  1  0
 19 21  1  0
 19 22  1  0
 18 23  2  0
 23 24  1  0
 23 25  1  0
 25 26  1  0
 25 27  2  0
 27 28  1  0
  6 29  1  0
 29 30  1  0
 29 31  2  0
 31 32  1  0
 31  2  1  0
 15  7  1  0
 27 16  1  0
M  END
>  <cnnaffinity>  (1) 
-4.85277

>  <filename>  (1) 
Cc1cccc(N2CCN=C2c2cccnc2)n1

$$$$
