
     RDKit          3D

 37 40  0  0  0  0  0  0  0  0999 V2000
    5.0013    1.8322   16.9111 H   0  0  0  0  0  0  0  0  0  0  0  0
    5.3931    1.3065   17.7832 C   0  0  0  0  0  0  0  0  0  0  0  0
    6.5452    0.6429   17.6078 N   0  0  0  0  0  0  0  0  0  0  0  0
    7.0701    0.0266   18.6758 C   0  0  0  0  0  0  0  0  0  0  0  0
    8.0043   -0.5018   18.4966 H   0  0  0  0  0  0  0  0  0  0  0  0
    6.4865    0.0067   19.9599 C   0  0  0  0  0  0  0  0  0  0  0  0
    7.2420   -0.5918   21.0806 C   0  0  0  0  0  0  0  0  0  0  0  0
    8.5989   -0.5293   21.3149 C   0  0  0  0  0  0  0  0  0  0  0  0
    8.8089   -1.1449   22.5408 C   0  0  0  0  0  0  0  0  0  0  0  0
    7.6967   -1.6070   23.0768 N   0  0  0  0  0  0  0  0  0  0  0  0
    6.7469   -1.2545   22.1715 N   0  0  0  0  0  0  0  0  0  0  0  0
    5.7921   -1.5309   22.3517 H   0  0  0  0  0  0  0  0  0  0  0  0
   10.2479   -1.1267   22.9660 C   0  0  0  0  0  0  0  0  0  0  0  0
   10.3828   -0.6927   23.9663 H   0  0  0  0  0  0  0  0  0  0  0  0
   10.6688   -2.1410   22.9945 H   0  0  0  0  0  0  0  0  0  0  0  0
   10.9392   -0.2612   21.8390 C   0  0  2  0  0  0  0  0  0  0  0  0
   11.7974   -0.8085   21.4413 H   0  0  0  0  0  0  0  0  0  0  0  0
   11.4818    1.0636   22.3492 C   0  0  0  0  0  0  0  0  0  0  0  0
   12.8097    1.2513   22.2744 N   0  0  0  0  0  0  0  0  0  0  0  0
   13.2798    2.4218   22.7197 C   0  0  0  0  0  0  0  0  0  0  0  0
   14.3529    2.5648   22.6420 H   0  0  0  0  0  0  0  0  0  0  0  0
   12.4854    3.4374   23.2522 C   0  0  0  0  0  0  0  0  0  0  0  0
   12.9359    4.3682   23.5746 H   0  0  0  0  0  0  0  0  0  0  0  0
   11.1040    3.2481   23.3448 C   0  0  0  0  0  0  0  0  0  0  0  0
   10.1908    4.2877   23.9313 C   0  0  0  0  0  0  0  0  0  0  0  0
   10.0506    4.1266   25.0051 H   0  0  0  0  0  0  0  0  0  0  0  0
   10.6077    5.2892   23.8003 H   0  0  0  0  0  0  0  0  0  0  0  0
    9.2017    4.2636   23.4618 H   0  0  0  0  0  0  0  0  0  0  0  0
   10.6129    2.0300   22.8681 C   0  0  0  0  0  0  0  0  0  0  0  0
    9.5471    1.8297   22.8888 H   0  0  0  0  0  0  0  0  0  0  0  0
    9.8677   -0.0490   20.7066 C   0  0  0  0  0  0  0  0  0  0  0  0
    9.7991    0.9893   20.3530 H   0  0  0  0  0  0  0  0  0  0  0  0
   10.1254   -0.6613   19.8385 H   0  0  0  0  0  0  0  0  0  0  0  0
    5.2604    0.6740   20.1112 C   0  0  0  0  0  0  0  0  0  0  0  0
    4.7539    0.7010   21.0771 H   0  0  0  0  0  0  0  0  0  0  0  0
    4.7175    1.3356   19.0087 C   0  0  0  0  0  0  0  0  0  0  0  0
    3.7975    1.9019   19.0833 H   0  0  0  0  0  0  0  0  0  0  0  0
  1  2  1  0
  2  3  2  0
  3  4  1  0
  4  5  1  0
  4  6  2  0
  6  7  1  0
  7  8  2  0
  8  9  1  0
  9 10  2  0
 10 11  1  0
 11 12  1  0
  9 13  1  0
 13 14  1  0
 13 15  1  0
 13 16  1  0
 16 17  1  6
 16 18  1  0
 18 19  2  0
 19 20  1  0
 20 21  1  0
 20 22  2  0
 22 23  1  0
 22 24  1  0
 24 25  1  0
 25 26  1  0
 25 27  1  0
 25 28  1  0
 24 29  2  0
 29 30  1  0
 16 31  1  0
 31 32  1  0
 31 33  1  0
  6 34  1  0
 34 35  1  0
 34 36  2  0
 36 37  1  0
 36  2  1  0
 11  7  1  0
 29 18  1  0
 31  8  1  0
M  END
>  <cnnaffinity>  (1) 
-5.55948

>  <filename>  (1) 
Cc1ccnc([C@H]2Cc3n[nH]c(-c4cccnc4)c3C2)c1

$$$$
