
     RDKit          3D

 32 35  0  0  0  0  0  0  0  0999 V2000
    4.9126    1.8082   16.9747 H   0  0  0  0  0  0  0  0  0  0  0  0
    5.3795    1.3032   17.8216 C   0  0  0  0  0  0  0  0  0  0  0  0
    6.5430    0.6836   17.5687 N   0  0  0  0  0  0  0  0  0  0  0  0
    7.1539    0.0743   18.5885 C   0  0  0  0  0  0  0  0  0  0  0  0
    8.1044   -0.3948   18.3400 H   0  0  0  0  0  0  0  0  0  0  0  0
    6.6615    0.0278   19.9135 C   0  0  0  0  0  0  0  0  0  0  0  0
    7.4110   -0.6734   20.9724 C   0  0  0  0  0  0  0  0  0  0  0  0
    8.3223   -1.7025   20.9135 C   0  0  0  0  0  0  0  0  0  0  0  0
    8.7198   -2.1173   20.0094 H   0  0  0  0  0  0  0  0  0  0  0  0
    8.7803   -2.1150   22.1343 N   0  0  0  0  0  0  0  0  0  0  0  0
    8.1733   -1.3011   22.9597 C   0  0  0  0  0  0  0  0  0  0  0  0
    8.2477   -0.9475   24.6461 S   0  0  0  0  0  0  0  0  0  0  0  0
    7.1322    0.3734   24.3190 C   0  0  0  0  0  0  0  0  0  0  0  0
    6.6822    1.2580   25.4149 C   0  0  0  0  0  0  0  0  0  0  0  0
    7.1692    0.9977   26.6437 N   0  0  0  0  0  0  0  0  0  0  0  0
    6.7773    1.7852   27.6441 C   0  0  0  0  0  0  0  0  0  0  0  0
    7.1934    1.5469   28.6219 H   0  0  0  0  0  0  0  0  0  0  0  0
    5.8902    2.8537   27.4741 C   0  0  0  0  0  0  0  0  0  0  0  0
    5.6054    3.4571   28.3255 H   0  0  0  0  0  0  0  0  0  0  0  0
    5.3768    3.1310   26.2007 C   0  0  0  0  0  0  0  0  0  0  0  0
    4.4387    4.2863   25.9572 C   0  0  0  0  0  0  0  0  0  0  0  0
    3.8396    4.5095   26.8452 H   0  0  0  0  0  0  0  0  0  0  0  0
    3.7548    4.0702   25.1297 H   0  0  0  0  0  0  0  0  0  0  0  0
    4.9996    5.1911   25.6948 H   0  0  0  0  0  0  0  0  0  0  0  0
    5.7920    2.3083   25.1522 C   0  0  0  0  0  0  0  0  0  0  0  0
    5.4482    2.4595   24.1349 H   0  0  0  0  0  0  0  0  0  0  0  0
    6.7459    0.5268   23.0872 N   0  0  0  0  0  0  0  0  0  0  0  0
    7.3322   -0.4236   22.3363 N   0  0  0  0  0  0  0  0  0  0  0  0
    5.4310    0.6672   20.1491 C   0  0  0  0  0  0  0  0  0  0  0  0
    5.0182    0.6561   21.1559 H   0  0  0  0  0  0  0  0  0  0  0  0
    4.7902    1.3151   19.0893 C   0  0  0  0  0  0  0  0  0  0  0  0
    3.8587    1.8494   19.2327 H   0  0  0  0  0  0  0  0  0  0  0  0
  1  2  1  0
  2  3  2  0
  3  4  1  0
  4  5  1  0
  4  6  2  0
  6  7  1  0
  7  8  2  0
  8  9  1  0
  8 10  1  0
 10 11  2  0
 11 12  1  0
 12 13  1  0
 13 14  1  0
 14 15  2  0
 15 16  1  0
 16 17  1  0
 16 18  2  0
 18 19  1  0
 18 20  1  0
 20 21  1  0
 21 22  1  0
 21 23  1  0
 21 24  1  0
 20 25  2  0
 25 26  1  0
 13 27  2  0
 27 28  1  0
  6 29  1  0
 29 30  1  0
 29 31  2  0
 31 32  1  0
 31  2  1  0
 28  7  1  0
 28 11  1  0
 25 14  1  0
M  END
>  <cnnaffinity>  (1) 
-5.2536

>  <filename>  (1) 
Cc1ccnc(-c2nn3c(-c4cccnc4)cnc3s2)c1

$$$$
