
     RDKit          3D

 34 36  0  0  0  0  0  0  0  0999 V2000
    4.9052    1.8379   16.9460 H   0  0  0  0  0  0  0  0  0  0  0  0
    5.3869    1.3399   17.7843 C   0  0  0  0  0  0  0  0  0  0  0  0
    6.5522    0.7329   17.5137 N   0  0  0  0  0  0  0  0  0  0  0  0
    7.1753    0.1112   18.5225 C   0  0  0  0  0  0  0  0  0  0  0  0
    8.1173   -0.3722   18.2619 H   0  0  0  0  0  0  0  0  0  0  0  0
    6.6692    0.0224   19.8432 C   0  0  0  0  0  0  0  0  0  0  0  0
    7.4047   -0.6956   20.9386 C   0  0  0  0  0  0  0  0  0  0  0  0
    8.7059   -0.4260   21.2007 C   0  0  0  0  0  0  0  0  0  0  0  0
    9.2743    0.3031   20.6203 H   0  0  0  0  0  0  0  0  0  0  0  0
    9.4257   -1.0573   22.2094 N   0  0  0  0  0  0  0  0  0  0  0  0
   10.8278   -0.7522   22.3656 C   0  0  0  0  0  0  0  0  0  0  0  0
   11.7879   -1.7569   22.2191 C   0  0  0  0  0  0  0  0  0  0  0  0
   11.4595   -2.7829   22.1042 H   0  0  0  0  0  0  0  0  0  0  0  0
   13.1422   -1.4200   22.2740 C   0  0  0  0  0  0  0  0  0  0  0  0
   13.8918   -2.1886   22.0936 H   0  0  0  0  0  0  0  0  0  0  0  0
   13.5232   -0.1144   22.6063 C   0  0  0  0  0  0  0  0  0  0  0  0
   14.5696    0.1292   22.7785 H   0  0  0  0  0  0  0  0  0  0  0  0
   12.5644    0.8995   22.7664 C   0  0  0  0  0  0  0  0  0  0  0  0
   12.9835    2.3161   23.0783 C   0  0  0  0  0  0  0  0  0  0  0  0
   14.0094    2.5147   22.7531 H   0  0  0  0  0  0  0  0  0  0  0  0
   12.9371    2.5178   24.1515 H   0  0  0  0  0  0  0  0  0  0  0  0
   12.3375    3.0528   22.5884 H   0  0  0  0  0  0  0  0  0  0  0  0
   11.2100    0.5679   22.6063 C   0  0  0  0  0  0  0  0  0  0  0  0
   10.4301    1.3247   22.6647 H   0  0  0  0  0  0  0  0  0  0  0  0
    8.8262   -2.0082   23.0511 C   0  0  0  0  0  0  0  0  0  0  0  0
    9.4002   -2.6296   23.9160 O   0  0  0  0  0  0  0  0  0  0  0  0
    7.4969   -2.2020   22.8268 N   0  0  0  0  0  0  0  0  0  0  0  0
    7.0833   -2.9420   23.3624 H   0  0  0  0  0  0  0  0  0  0  0  0
    6.7379   -1.7496   21.7620 C   0  0  0  0  0  0  0  0  0  0  0  0
    5.6556   -2.2627   21.5809 O   0  0  0  0  0  0  0  0  0  0  0  0
    5.4381    0.6592   20.0879 C   0  0  0  0  0  0  0  0  0  0  0  0
    5.0092    0.6141   21.0881 H   0  0  0  0  0  0  0  0  0  0  0  0
    4.7937    1.3373   19.0480 C   0  0  0  0  0  0  0  0  0  0  0  0
    3.8522    1.8560   19.1957 H   0  0  0  0  0  0  0  0  0  0  0  0
  1  2  1  0
  2  3  2  0
  3  4  1  0
  4  5  1  0
  4  6  2  0
  6  7  1  0
  7  8  2  0
  8  9  1  0
  8 10  1  0
 10 11  1  0
 11 12  2  0
 12 13  1  0
 12 14  1  0
 14 15  1  0
 14 16  2  0
 16 17  1  0
 16 18  1  0
 18 19  1  0
 19 20  1  0
 19 21  1  0
 19 22  1  0
 18 23  2  0
 23 24  1  0
 10 25  1  0
 25 26  2  0
 25 27  1  0
 27 28  1  0
 27 29  1  0
 29 30  2  0
  6 31  1  0
 31 32  1  0
 31 33  2  0
 33 34  1  0
 33  2  1  0
 29  7  1  0
 23 11  1  0
M  END
>  <cnnaffinity>  (1) 
-5.56265

>  <filename>  (1) 
Cc1cccc(-n2cc(-c3cccnc3)c(=O)[nH]c2=O)c1

$$$$
