
     RDKit          3D

 41 44  0  0  0  0  0  0  0  0999 V2000
    5.0146    1.8419   16.9116 H   0  0  0  0  0  0  0  0  0  0  0  0
    5.4260    1.2872   17.7547 C   0  0  0  0  0  0  0  0  0  0  0  0
    6.5637    0.6158   17.5246 N   0  0  0  0  0  0  0  0  0  0  0  0
    7.1250   -0.0187   18.5579 C   0  0  0  0  0  0  0  0  0  0  0  0
    8.0294   -0.5771   18.3284 H   0  0  0  0  0  0  0  0  0  0  0  0
    6.6150    0.0062   19.8726 C   0  0  0  0  0  0  0  0  0  0  0  0
    7.3774   -0.6148   20.9704 C   0  0  0  0  0  0  0  0  0  0  0  0
    8.0644   -1.7394   20.7696 N   0  0  0  0  0  0  0  0  0  0  0  0
    8.5739   -2.0171   21.9682 N   0  0  0  0  0  0  0  0  0  0  0  0
    8.3005   -1.1471   22.9334 C   0  0  0  0  0  0  0  0  0  0  0  0
    7.5064   -0.1781   22.3348 C   0  0  0  0  0  0  0  0  0  0  0  0
    7.0562    1.0433   22.9944 C   0  0  0  0  0  0  0  0  0  0  0  0
    6.5702    0.9863   24.3067 C   0  0  0  0  0  0  0  0  0  0  0  0
    6.4350    0.0261   24.8026 H   0  0  0  0  0  0  0  0  0  0  0  0
    6.2394    2.1639   24.9768 C   0  0  0  0  0  0  0  0  0  0  0  0
    5.8685    2.1178   25.9996 H   0  0  0  0  0  0  0  0  0  0  0  0
    6.4043    3.4131   24.3670 C   0  0  0  0  0  0  0  0  0  0  0  0
    6.0415    4.6790   25.0988 C   0  0  0  0  0  0  0  0  0  0  0  0
    6.8788    5.3870   25.1095 H   0  0  0  0  0  0  0  0  0  0  0  0
    5.2045    5.1791   24.5976 H   0  0  0  0  0  0  0  0  0  0  0  0
    5.7475    4.4887   26.1338 H   0  0  0  0  0  0  0  0  0  0  0  0
    6.9031    3.4782   23.0417 C   0  0  0  0  0  0  0  0  0  0  0  0
    7.1411    4.8085   22.3687 C   0  0  0  0  0  0  0  0  0  0  0  0
    7.5232    4.6983   21.3533 H   0  0  0  0  0  0  0  0  0  0  0  0
    7.8826    5.4014   22.9174 H   0  0  0  0  0  0  0  0  0  0  0  0
    6.2182    5.3969   22.3140 H   0  0  0  0  0  0  0  0  0  0  0  0
    7.1956    2.2919   22.3714 C   0  0  0  0  0  0  0  0  0  0  0  0
    7.5487    2.3354   21.3418 H   0  0  0  0  0  0  0  0  0  0  0  0
    9.0655   -1.4986   24.1946 C   0  0  0  0  0  0  0  0  0  0  0  0
    8.3922   -1.7328   25.0242 H   0  0  0  0  0  0  0  0  0  0  0  0
    9.7196   -0.6855   24.5264 H   0  0  0  0  0  0  0  0  0  0  0  0
    9.8956   -2.7416   23.7701 C   0  0  0  0  0  0  0  0  0  0  0  0
   10.9603   -2.5225   23.7936 H   0  0  0  0  0  0  0  0  0  0  0  0
    9.7190   -3.5854   24.4391 H   0  0  0  0  0  0  0  0  0  0  0  0
    9.5010   -3.0638   22.3053 C   0  0  0  0  0  0  0  0  0  0  0  0
   10.3573   -2.9697   21.6400 H   0  0  0  0  0  0  0  0  0  0  0  0
    9.0129   -4.0324   22.1841 H   0  0  0  0  0  0  0  0  0  0  0  0
    5.3748    0.6392   20.0741 C   0  0  0  0  0  0  0  0  0  0  0  0
    4.8868    0.6287   21.0527 H   0  0  0  0  0  0  0  0  0  0  0  0
    4.7820    1.2958   18.9958 C   0  0  0  0  0  0  0  0  0  0  0  0
    3.8457    1.8280   19.1002 H   0  0  0  0  0  0  0  0  0  0  0  0
  1  2  1  0
  2  3  2  0
  3  4  1  0
  4  5  1  0
  4  6  2  0
  6  7  1  0
  7  8  2  0
  8  9  1  0
  9 10  1  0
 10 11  2  0
 11 12  1  0
 12 13  2  0
 13 14  1  0
 13 15  1  0
 15 16  1  0
 15 17  2  0
 17 18  1  0
 18 19  1  0
 18 20  1  0
 18 21  1  0
 17 22  1  0
 22 23  1  0
 23 24  1  0
 23 25  1  0
 23 26  1  0
 22 27  2  0
 27 28  1  0
 10 29  1  0
 29 30  1  0
 29 31  1  0
 29 32  1  0
 32 33  1  0
 32 34  1  0
 32 35  1  0
 35 36  1  0
 35 37  1  0
  6 38  1  0
 38 39  1  0
 38 40  2  0
 40 41  1  0
 40  2  1  0
 11  7  1  0
 27 12  1  0
 35  9  1  0
M  END
>  <cnnaffinity>  (1) 
-5.58283

>  <filename>  (1) 
Cc1ccc(-c2c(-c3cccnc3)nn3c2CCC3)cc1C

$$$$
