
     RDKit          3D

 34 36  0  0  0  0  0  0  0  0999 V2000
    5.3511   -2.5427   20.9527 H   0  0  0  0  0  0  0  0  0  0  0  0
    5.8741   -2.4308   21.9022 C   0  0  0  0  0  0  0  0  0  0  0  0
    7.0122   -1.7129   21.9727 C   0  0  0  0  0  0  0  0  0  0  0  0
    7.5118   -0.7282   20.9681 C   0  0  0  0  0  0  0  0  0  0  0  0
    6.6881   -0.0450   19.9380 C   0  0  0  0  0  0  0  0  0  0  0  0
    7.2286    0.0402   18.6461 C   0  0  0  0  0  0  0  0  0  0  0  0
    8.1925   -0.4148   18.4273 H   0  0  0  0  0  0  0  0  0  0  0  0
    6.6280    0.6458   17.6195 N   0  0  0  0  0  0  0  0  0  0  0  0
    5.4559    1.2523   17.8660 C   0  0  0  0  0  0  0  0  0  0  0  0
    4.9862    1.7558   17.0213 H   0  0  0  0  0  0  0  0  0  0  0  0
    4.8386    1.2465   19.1193 C   0  0  0  0  0  0  0  0  0  0  0  0
    3.9082    1.7856   19.2509 H   0  0  0  0  0  0  0  0  0  0  0  0
    5.4550    0.5804   20.1815 C   0  0  0  0  0  0  0  0  0  0  0  0
    5.0066    0.5800   21.1766 H   0  0  0  0  0  0  0  0  0  0  0  0
    8.7722   -0.5064   21.0518 N   0  0  0  0  0  0  0  0  0  0  0  0
    9.3347   -1.2712   22.1704 C   0  0  0  0  0  0  0  0  0  0  0  0
    9.9543   -0.6297   22.8006 H   0  0  0  0  0  0  0  0  0  0  0  0
    9.9863   -2.0588   21.7677 H   0  0  0  0  0  0  0  0  0  0  0  0
    8.1489   -1.8559   22.9743 C   0  0  0  0  0  0  0  0  0  0  0  0
    8.3183   -2.8840   23.3054 H   0  0  0  0  0  0  0  0  0  0  0  0
    7.9656   -1.2335   23.8611 H   0  0  0  0  0  0  0  0  0  0  0  0
    5.2491   -3.2081   22.9958 C   0  0  0  0  0  0  0  0  0  0  0  0
    4.4525   -4.2126   22.5676 N   0  0  0  0  0  0  0  0  0  0  0  0
    3.8685   -4.9626   23.5017 C   0  0  0  0  0  0  0  0  0  0  0  0
    3.2450   -5.7772   23.1416 H   0  0  0  0  0  0  0  0  0  0  0  0
    3.9928   -4.7573   24.8812 C   0  0  0  0  0  0  0  0  0  0  0  0
    3.4523   -5.3975   25.5686 H   0  0  0  0  0  0  0  0  0  0  0  0
    4.7612   -3.6820   25.3391 C   0  0  0  0  0  0  0  0  0  0  0  0
    4.8724   -3.3425   26.8036 C   0  0  0  0  0  0  0  0  0  0  0  0
    5.7962   -3.7290   27.2491 H   0  0  0  0  0  0  0  0  0  0  0  0
    4.8659   -2.2562   26.9451 H   0  0  0  0  0  0  0  0  0  0  0  0
    4.0394   -3.7620   27.3747 H   0  0  0  0  0  0  0  0  0  0  0  0
    5.3929   -2.9057   24.3643 C   0  0  0  0  0  0  0  0  0  0  0  0
    5.9548   -2.0267   24.6571 H   0  0  0  0  0  0  0  0  0  0  0  0
  1  2  1  0
  2  3  2  3
  3  4  1  0
  4  5  1  0
  5  6  2  0
  6  7  1  0
  6  8  1  0
  8  9  2  0
  9 10  1  0
  9 11  1  0
 11 12  1  0
 11 13  2  0
 13 14  1  0
  4 15  2  0
 15 16  1  0
 16 17  1  0
 16 18  1  0
 16 19  1  0
 19 20  1  0
 19 21  1  0
  2 22  1  0
 22 23  2  0
 23 24  1  0
 24 25  1  0
 24 26  2  0
 26 27  1  0
 26 28  1  0
 28 29  1  0
 29 30  1  0
 29 31  1  0
 29 32  1  0
 28 33  2  0
 33 34  1  0
 19  3  1  0
 33 22  1  0
 13  5  1  0
M  END
>  <cnnaffinity>  (1) 
-5.18208

>  <filename>  (1) 
Cc1ccnc(C=C2CCN=C2c2cccnc2)c1

$$$$
