
     RDKit          3D

 32 34  0  0  0  0  0  0  0  0999 V2000
    5.1721    1.7277   17.0769 H   0  0  0  0  0  0  0  0  0  0  0  0
    5.5783    1.2099   17.9443 C   0  0  0  0  0  0  0  0  0  0  0  0
    6.7291    0.5455   17.7525 N   0  0  0  0  0  0  0  0  0  0  0  0
    7.2470   -0.1107   18.8035 C   0  0  0  0  0  0  0  0  0  0  0  0
    8.1652   -0.6646   18.6204 H   0  0  0  0  0  0  0  0  0  0  0  0
    6.6775   -0.1322   20.1050 C   0  0  0  0  0  0  0  0  0  0  0  0
    7.2641   -0.7935   21.2025 N   0  0  0  0  0  0  0  0  0  0  0  0
    6.6877   -0.8142   22.0373 H   0  0  0  0  0  0  0  0  0  0  0  0
    8.6452   -0.8692   21.4638 C   0  0  0  0  0  0  0  0  0  0  0  0
    9.7410   -0.1302   20.9337 C   0  0  0  0  0  0  0  0  0  0  0  0
    9.7315    0.6274   20.1612 H   0  0  0  0  0  0  0  0  0  0  0  0
   10.8826   -0.4389   21.5408 N   0  0  0  0  0  0  0  0  0  0  0  0
   10.5486   -1.3754   22.4303 N   0  0  0  0  0  0  0  0  0  0  0  0
   11.2160   -1.7309   23.1096 H   0  0  0  0  0  0  0  0  0  0  0  0
    9.2256   -1.6826   22.4293 C   0  0  0  0  0  0  0  0  0  0  0  0
    8.7409   -2.8041   23.2551 C   0  0  0  0  0  0  0  0  0  0  0  0
    9.3208   -2.8794   24.4706 N   0  0  0  0  0  0  0  0  0  0  0  0
    8.9295   -3.8398   25.3020 C   0  0  0  0  0  0  0  0  0  0  0  0
    9.3666   -3.8027   26.2999 H   0  0  0  0  0  0  0  0  0  0  0  0
    8.0150   -4.8327   24.9428 C   0  0  0  0  0  0  0  0  0  0  0  0
    7.7790   -5.6161   25.6503 H   0  0  0  0  0  0  0  0  0  0  0  0
    7.4642   -4.8017   23.6633 C   0  0  0  0  0  0  0  0  0  0  0  0
    6.7534   -5.5612   23.3289 H   0  0  0  0  0  0  0  0  0  0  0  0
    7.8250   -3.7781   22.7732 C   0  0  0  0  0  0  0  0  0  0  0  0
    7.3012   -3.8355   21.3623 C   0  0  0  0  0  0  0  0  0  0  0  0
    7.4369   -4.8370   20.9396 H   0  0  0  0  0  0  0  0  0  0  0  0
    6.2294   -3.5967   21.3197 H   0  0  0  0  0  0  0  0  0  0  0  0
    7.8296   -3.1291   20.7257 H   0  0  0  0  0  0  0  0  0  0  0  0
    5.4447    0.5236   20.2602 C   0  0  0  0  0  0  0  0  0  0  0  0
    4.9355    0.4908   21.2235 H   0  0  0  0  0  0  0  0  0  0  0  0
    4.9000    1.2171   19.1699 C   0  0  0  0  0  0  0  0  0  0  0  0
    3.9626    1.7592   19.2533 H   0  0  0  0  0  0  0  0  0  0  0  0
  1  2  1  0
  2  3  2  0
  3  4  1  0
  4  5  1  0
  4  6  2  0
  6  7  1  0
  7  8  1  0
  7  9  1  0
  9 10  1  0
 10 11  1  0
 10 12  2  0
 12 13  1  0
 13 14  1  0
 13 15  1  0
 15 16  1  0
 16 17  2  0
 17 18  1  0
 18 19  1  0
 18 20  2  0
 20 21  1  0
 20 22  1  0
 22 23  1  0
 22 24  2  0
 24 25  1  0
 25 26  1  0
 25 27  1  0
 25 28  1  0
  6 29  1  0
 29 30  1  0
 29 31  2  0
 31 32  1  0
 31  2  1  0
 15  9  2  0
 24 16  1  0
M  END
>  <cnnaffinity>  (1) 
-5.70807

>  <filename>  (1) 
Cc1cccnc1-c1[nH]ncc1Nc1cccnc1

$$$$
