
     RDKit          3D

 34 36  0  0  0  0  0  0  0  0999 V2000
    4.9376    1.8938   16.8990 H   0  0  0  0  0  0  0  0  0  0  0  0
    5.3784    1.3649   17.7425 C   0  0  0  0  0  0  0  0  0  0  0  0
    6.5401    0.7356   17.5022 N   0  0  0  0  0  0  0  0  0  0  0  0
    7.1138    0.0940   18.5276 C   0  0  0  0  0  0  0  0  0  0  0  0
    8.0583   -0.4031   18.3032 H   0  0  0  0  0  0  0  0  0  0  0  0
    6.5638    0.0117   19.8297 C   0  0  0  0  0  0  0  0  0  0  0  0
    7.2699   -0.6690   20.9501 C   0  0  0  0  0  0  0  0  0  0  0  0
    8.5560   -0.3493   21.2565 C   0  0  0  0  0  0  0  0  0  0  0  0
    9.0892    0.4247   20.7054 H   0  0  0  0  0  0  0  0  0  0  0  0
    9.2355   -0.9524   22.3097 N   0  0  0  0  0  0  0  0  0  0  0  0
   10.6549   -0.7486   22.4993 C   0  0  0  0  0  0  0  0  0  0  0  0
   11.1523    0.3237   23.1427 C   0  0  0  0  0  0  0  0  0  0  0  0
   10.4487    1.0401   23.5527 H   0  0  0  0  0  0  0  0  0  0  0  0
   12.5385    0.5564   23.2401 C   0  0  0  0  0  0  0  0  0  0  0  0
   12.8504    1.4322   23.8191 H   0  0  0  0  0  0  0  0  0  0  0  0
   13.5294   -0.2179   22.6341 C   0  0  0  0  0  0  0  0  0  0  0  0
   14.5588    0.1217   22.7446 H   0  0  0  0  0  0  0  0  0  0  0  0
   13.2838   -1.3310   21.8339 C   0  0  0  0  0  0  0  0  0  0  0  0
   14.0329   -2.1193   22.0401 H   0  0  0  0  0  0  0  0  0  0  0  0
   11.8380   -1.7547   22.1115 C   0  0  0  0  0  0  0  0  0  0  0  0
   11.6803   -1.9995   21.8135 C   0  0  0  0  0  0  0  0  0  0  0  0
   11.4894   -2.8623   22.7996 H   0  0  0  0  0  0  0  0  0  0  0  0
   13.5896   -1.3045   19.9021 H   0  0  0  0  0  0  0  0  0  0  0  0
   11.1166   -2.4050   20.9023 H   0  0  0  0  0  0  0  0  0  0  0  0
    8.6300   -1.9587   23.0794 C   0  0  0  0  0  0  0  0  0  0  0  0
    9.2245   -2.6798   23.8488 O   0  0  0  0  0  0  0  0  0  0  0  0
    7.2881   -2.0963   22.8914 N   0  0  0  0  0  0  0  0  0  0  0  0
    6.9164   -2.9079   23.3458 H   0  0  0  0  0  0  0  0  0  0  0  0
    6.6047   -1.7426   21.7441 C   0  0  0  0  0  0  0  0  0  0  0  0
    5.5866   -2.3489   21.4922 O   0  0  0  0  0  0  0  0  0  0  0  0
    5.3309    0.6496   20.0388 C   0  0  0  0  0  0  0  0  0  0  0  0
    4.8720    0.6028   21.0260 H   0  0  0  0  0  0  0  0  0  0  0  0
    4.7397    1.3508   18.9850 C   0  0  0  0  0  0  0  0  0  0  0  0
    3.8123    1.8955   19.1144 H   0  0  0  0  0  0  0  0  0  0  0  0
  1  2  1  0
  2  3  2  0
  3  4  1  0
  4  5  1  0
  4  6  2  0
  6  7  1  0
  7  8  2  0
  8  9  1  0
  8 10  1  0
 10 11  1  0
 11 12  2  0
 12 13  1  0
 12 14  1  0
 14 15  1  0
 14 16  2  0
 16 17  1  0
 16 18  1  0
 18 19  1  0
 18 20  2  0
 20 21  1  0
 21 22  1  0
 21 23  1  0
 21 24  1  0
 10 25  1  0
 25 26  2  0
 25 27  1  0
 27 28  1  0
 27 29  1  0
 29 30  2  0
  6 31  1  0
 31 32  1  0
 31 33  2  0
 33 34  1  0
 33  2  1  0
 29  7  1  0
 20 11  1  0
M  END
>  <cnnaffinity>  (1) 
-5.75104

>  <filename>  (1) 
Cc1ccccc1-n1cc(-c2cccnc2)c(=O)[nH]c1=O

$$$$
