
     RDKit          3D

 36 38  0  0  0  0  0  0  0  0999 V2000
    4.9111    1.7980   16.9800 H   0  0  0  0  0  0  0  0  0  0  0  0
    5.3883    1.3049   17.8207 C   0  0  0  0  0  0  0  0  0  0  0  0
    6.5529    0.6907   17.5523 N   0  0  0  0  0  0  0  0  0  0  0  0
    7.1588    0.0650   18.5676 C   0  0  0  0  0  0  0  0  0  0  0  0
    8.1154   -0.4010   18.3354 H   0  0  0  0  0  0  0  0  0  0  0  0
    6.6506    0.0138   19.8831 C   0  0  0  0  0  0  0  0  0  0  0  0
    7.3691   -0.6582   20.9711 C   0  0  0  0  0  0  0  0  0  0  0  0
    7.5147   -0.3233   22.3120 C   0  0  0  0  0  0  0  0  0  0  0  0
    7.0290    0.8347   22.9223 N   0  0  0  0  0  0  0  0  0  0  0  0
    6.9850    1.6497   22.3341 H   0  0  0  0  0  0  0  0  0  0  0  0
    6.8241    1.0269   24.2868 C   0  0  0  0  0  0  0  0  0  0  0  0
    6.3576   -0.0233   25.0827 C   0  0  0  0  0  0  0  0  0  0  0  0
    6.1716   -0.9783   24.6026 H   0  0  0  0  0  0  0  0  0  0  0  0
    6.1569    0.1788   26.4452 C   0  0  0  0  0  0  0  0  0  0  0  0
    5.8057   -0.6484   27.0573 H   0  0  0  0  0  0  0  0  0  0  0  0
    6.3965    1.4153   27.0501 C   0  0  0  0  0  0  0  0  0  0  0  0
    6.1552    1.5917   28.5317 C   0  0  0  0  0  0  0  0  0  0  0  0
    5.9214    0.6402   29.0189 H   0  0  0  0  0  0  0  0  0  0  0  0
    5.3155    2.2695   28.7305 H   0  0  0  0  0  0  0  0  0  0  0  0
    7.0248    2.0177   29.0458 H   0  0  0  0  0  0  0  0  0  0  0  0
    6.8459    2.4893   26.2385 C   0  0  0  0  0  0  0  0  0  0  0  0
    7.1001    3.8482   26.8464 C   0  0  0  0  0  0  0  0  0  0  0  0
    6.2315    4.2112   27.4072 H   0  0  0  0  0  0  0  0  0  0  0  0
    7.3372    4.5918   26.0828 H   0  0  0  0  0  0  0  0  0  0  0  0
    7.9341    3.8256   27.5568 H   0  0  0  0  0  0  0  0  0  0  0  0
    7.0489    2.2821   24.8689 C   0  0  0  0  0  0  0  0  0  0  0  0
    7.4067    3.1052   24.2513 H   0  0  0  0  0  0  0  0  0  0  0  0
    8.2886   -1.3770   22.8606 C   0  0  0  0  0  0  0  0  0  0  0  0
    8.6250   -1.4664   23.8839 H   0  0  0  0  0  0  0  0  0  0  0  0
    8.6037   -2.2903   21.9501 N   0  0  0  0  0  0  0  0  0  0  0  0
    8.0476   -1.8258   20.8213 N   0  0  0  0  0  0  0  0  0  0  0  0
    8.1324   -2.3637   19.9745 H   0  0  0  0  0  0  0  0  0  0  0  0
    5.4328    0.6619   20.1417 C   0  0  0  0  0  0  0  0  0  0  0  0
    5.0182    0.6260   21.1515 H   0  0  0  0  0  0  0  0  0  0  0  0
    4.7942    1.3190   19.0896 C   0  0  0  0  0  0  0  0  0  0  0  0
    3.8646    1.8488   19.2455 H   0  0  0  0  0  0  0  0  0  0  0  0
  1  2  1  0
  2  3  2  0
  3  4  1  0
  4  5  1  0
  4  6  2  0
  6  7  1  0
  7  8  2  0
  8  9  1  0
  9 10  1  0
  9 11  1  0
 11 12  2  0
 12 13  1  0
 12 14  1  0
 14 15  1  0
 14 16  2  0
 16 17  1  0
 17 18  1  0
 17 19  1  0
 17 20  1  0
 16 21  1  0
 21 22  1  0
 22 23  1  0
 22 24  1  0
 22 25  1  0
 21 26  2  0
 26 27  1  0
  8 28  1  0
 28 29  1  0
 28 30  2  0
 30 31  1  0
 31 32  1  0
  6 33  1  0
 33 34  1  0
 33 35  2  0
 35 36  1  0
 35  2  1  0
 31  7  1  0
 26 11  1  0
M  END
>  <cnnaffinity>  (1) 
-5.49434

>  <filename>  (1) 
Cc1ccc(Nc2cn[nH]c2-c2cccnc2)cc1C

$$$$
