
     RDKit          3D

 38 40  0  0  0  0  0  0  0  0999 V2000
    5.7285   -2.7666   21.3489 C   0  0  0  0  0  0  0  0  0  0  0  0
    6.8684   -2.0286   22.0116 C   0  0  0  0  0  0  0  0  0  0  0  0
    7.5816   -2.5784   23.0813 C   0  0  0  0  0  0  0  0  0  0  0  0
    8.6595   -2.0424   23.6318 N   0  0  0  0  0  0  0  0  0  0  0  0
    9.0394   -0.8847   23.0896 C   0  0  0  0  0  0  0  0  0  0  0  0
   10.1853   -0.4006   23.6134 N   0  0  0  0  0  0  0  0  0  0  0  0
   11.0520    0.5065   22.8530 C   0  0  0  0  0  0  0  0  0  0  0  0
   11.4464   -0.0003   21.4531 C   0  0  0  0  0  0  0  0  0  0  0  0
   12.5143   -1.0952   21.5325 C   0  0  0  0  0  0  0  0  0  0  0  0
   13.7486   -0.5777   22.2742 C   0  0  0  0  0  0  0  0  0  0  0  0
   13.4138   -0.0688   23.5578 O   0  0  0  0  0  0  0  0  0  0  0  0
   12.3375    0.8629   23.6391 C   0  0  0  0  0  0  0  0  0  0  0  0
   12.6656    1.8712   23.3341 H   0  0  0  0  0  0  0  0  0  0  0  0
   12.0782    0.8991   24.7027 H   0  0  0  0  0  0  0  0  0  0  0  0
   14.2814    0.1884   21.6884 H   0  0  0  0  0  0  0  0  0  0  0  0
   14.4621   -1.3897   22.4561 H   0  0  0  0  0  0  0  0  0  0  0  0
   12.1213   -1.9579   22.0810 H   0  0  0  0  0  0  0  0  0  0  0  0
   12.7685   -1.4583   20.5324 H   0  0  0  0  0  0  0  0  0  0  0  0
   10.5619   -0.3337   20.8983 H   0  0  0  0  0  0  0  0  0  0  0  0
   11.8354    0.8772   20.9231 H   0  0  0  0  0  0  0  0  0  0  0  0
   10.4859    1.4385   22.7196 H   0  0  0  0  0  0  0  0  0  0  0  0
   10.5734   -1.2173   24.0583 H   0  0  0  0  0  0  0  0  0  0  0  0
    8.4520   -0.2180   22.1129 N   0  0  0  0  0  0  0  0  0  0  0  0
    7.3654   -0.7819   21.5996 C   0  0  0  0  0  0  0  0  0  0  0  0
    6.8026   -0.0758   20.4397 C   0  0  0  0  0  0  0  0  0  0  0  0
    5.5698    0.5860   20.4300 C   0  0  0  0  0  0  0  0  0  0  0  0
    5.1795    1.2120   19.2436 C   0  0  0  0  0  0  0  0  0  0  0  0
    6.0201    1.1318   18.1272 C   0  0  0  0  0  0  0  0  0  0  0  0
    7.1945    0.4822   18.1275 N   0  0  0  0  0  0  0  0  0  0  0  0
    7.5720   -0.0897   19.2744 C   0  0  0  0  0  0  0  0  0  0  0  0
    8.5350   -0.6038   19.2425 H   0  0  0  0  0  0  0  0  0  0  0  0
    5.7314    1.5923   17.1847 H   0  0  0  0  0  0  0  0  0  0  0  0
    4.2587    1.7806   19.1797 H   0  0  0  0  0  0  0  0  0  0  0  0
    4.9421    0.6355   21.3227 H   0  0  0  0  0  0  0  0  0  0  0  0
    7.2807   -3.5446   23.4840 H   0  0  0  0  0  0  0  0  0  0  0  0
    5.6949   -2.5100   20.2868 H   0  0  0  0  0  0  0  0  0  0  0  0
    4.7581   -2.5150   21.7792 H   0  0  0  0  0  0  0  0  0  0  0  0
    5.8472   -3.8474   21.4440 H   0  0  0  0  0  0  0  0  0  0  0  0
  1  2  1  0
  2  3  2  0
  3  4  1  0
  4  5  2  0
  5  6  1  0
  6  7  1  0
  7  8  1  0
  8  9  1  0
  9 10  1  0
 10 11  1  0
 11 12  1  0
 12 13  1  0
 12 14  1  0
 10 15  1  0
 10 16  1  0
  9 17  1  0
  9 18  1  0
  8 19  1  0
  8 20  1  0
  7 21  1  0
  6 22  1  0
  5 23  1  0
 23 24  2  0
 24 25  1  0
 25 26  2  0
 26 27  1  0
 27 28  2  0
 28 29  1  0
 29 30  2  0
 30 31  1  0
 28 32  1  0
 27 33  1  0
 26 34  1  0
  3 35  1  0
  1 36  1  0
  1 37  1  0
  1 38  1  0
 24  2  1  0
 30 25  1  0
 12  7  1  0
M  END
>  <cnnaffinity>  (1) 
-5.12251

>  <filename>  (1) 
Cc1cnc(NC2CCCOC2)nc1-c1cccnc1

$$$$
