
     RDKit          3D

 32 34  0  0  0  0  0  0  0  0999 V2000
    4.9216    1.7810   16.9960 H   0  0  0  0  0  0  0  0  0  0  0  0
    5.4010    1.2944   17.8408 C   0  0  0  0  0  0  0  0  0  0  0  0
    6.5620    0.6716   17.5826 N   0  0  0  0  0  0  0  0  0  0  0  0
    7.1518    0.0453   18.6012 C   0  0  0  0  0  0  0  0  0  0  0  0
    8.1154   -0.4152   18.3914 H   0  0  0  0  0  0  0  0  0  0  0  0
    6.6075   -0.0287   19.8996 C   0  0  0  0  0  0  0  0  0  0  0  0
    7.3037   -0.7510   20.9963 C   0  0  0  0  0  0  0  0  0  0  0  0
    6.5613   -1.5143   21.7638 N   0  0  0  0  0  0  0  0  0  0  0  0
    7.1576   -2.1912   22.8012 N   0  0  0  0  0  0  0  0  0  0  0  0
    6.2957   -2.9904   23.6286 C   0  0  0  0  0  0  0  0  0  0  0  0
    5.1860   -3.6621   23.0904 C   0  0  0  0  0  0  0  0  0  0  0  0
    4.9736   -3.5764   22.0307 H   0  0  0  0  0  0  0  0  0  0  0  0
    4.3564   -4.4401   23.8058 N   0  0  0  0  0  0  0  0  0  0  0  0
    4.5805   -4.5680   25.1237 C   0  0  0  0  0  0  0  0  0  0  0  0
    3.6392   -5.4159   25.9339 C   0  0  0  0  0  0  0  0  0  0  0  0
    4.1845   -6.1408   26.5465 H   0  0  0  0  0  0  0  0  0  0  0  0
    3.0666   -4.7976   26.6327 H   0  0  0  0  0  0  0  0  0  0  0  0
    2.9354   -5.9567   25.3007 H   0  0  0  0  0  0  0  0  0  0  0  0
    5.6595   -3.9210   25.7520 C   0  0  0  0  0  0  0  0  0  0  0  0
    5.8054   -4.0492   26.8181 H   0  0  0  0  0  0  0  0  0  0  0  0
    6.5295   -3.1302   25.0076 C   0  0  0  0  0  0  0  0  0  0  0  0
    7.3555   -2.6019   25.4813 H   0  0  0  0  0  0  0  0  0  0  0  0
    8.5218   -2.1142   23.0168 C   0  0  0  0  0  0  0  0  0  0  0  0
    8.9019   -2.7312   23.8307 H   0  0  0  0  0  0  0  0  0  0  0  0
    9.3432   -1.3573   22.2712 C   0  0  0  0  0  0  0  0  0  0  0  0
   10.4114   -1.2747   22.4385 H   0  0  0  0  0  0  0  0  0  0  0  0
    8.7957   -0.5572   21.1803 C   0  0  0  0  0  0  0  0  0  0  0  0
    9.4957    0.1768   20.4916 O   0  0  0  0  0  0  0  0  0  0  0  0
    5.4101    0.6444   20.1587 C   0  0  0  0  0  0  0  0  0  0  0  0
    5.0005    0.6201   21.1724 H   0  0  0  0  0  0  0  0  0  0  0  0
    4.7999    1.3220   19.1044 C   0  0  0  0  0  0  0  0  0  0  0  0
    3.8676    1.8539   19.2528 H   0  0  0  0  0  0  0  0  0  0  0  0
  1  2  1  0
  2  3  2  0
  3  4  1  0
  4  5  1  0
  4  6  2  0
  6  7  1  0
  7  8  2  0
  8  9  1  0
  9 10  1  0
 10 11  2  0
 11 12  1  0
 11 13  1  0
 13 14  2  0
 14 15  1  0
 15 16  1  0
 15 17  1  0
 15 18  1  0
 14 19  1  0
 19 20  1  0
 19 21  2  0
 21 22  1  0
  9 23  1  0
 23 24  1  0
 23 25  2  0
 25 26  1  0
 25 27  1  0
 27 28  2  0
  6 29  1  0
 29 30  1  0
 29 31  2  0
 31 32  1  0
 31  2  1  0
 27  7  1  0
 21 10  1  0
M  END
>  <cnnaffinity>  (1) 
-5.19011

>  <filename>  (1) 
Cc1ccc(-n2ccc(=O)c(-c3cccnc3)n2)cn1

$$$$
