
     RDKit          3D

 32 34  0  0  0  0  0  0  0  0999 V2000
    4.9122    1.7858   16.9948 H   0  0  0  0  0  0  0  0  0  0  0  0
    5.3956    1.2977   17.8376 C   0  0  0  0  0  0  0  0  0  0  0  0
    6.5598    0.6833   17.5717 N   0  0  0  0  0  0  0  0  0  0  0  0
    7.1719    0.0606   18.5889 C   0  0  0  0  0  0  0  0  0  0  0  0
    8.1197   -0.4285   18.3725 H   0  0  0  0  0  0  0  0  0  0  0  0
    6.6640   -0.0113   19.9109 C   0  0  0  0  0  0  0  0  0  0  0  0
    7.3231   -0.7192   20.9240 N   0  0  0  0  0  0  0  0  0  0  0  0
    6.7727   -1.0662   21.6997 H   0  0  0  0  0  0  0  0  0  0  0  0
    8.7109   -0.7605   21.1042 C   0  0  0  0  0  0  0  0  0  0  0  0
    9.7000    0.1494   20.6694 C   0  0  0  0  0  0  0  0  0  0  0  0
    9.5322    1.0268   20.0693 H   0  0  0  0  0  0  0  0  0  0  0  0
   10.9114   -0.1760   21.1012 N   0  0  0  0  0  0  0  0  0  0  0  0
   10.7122   -1.2950   21.8089 N   0  0  0  0  0  0  0  0  0  0  0  0
   11.5052   -1.7503   22.2356 H   0  0  0  0  0  0  0  0  0  0  0  0
    9.4142   -1.7035   21.8359 C   0  0  0  0  0  0  0  0  0  0  0  0
    8.9392   -2.8949   22.5302 C   0  0  0  0  0  0  0  0  0  0  0  0
    7.8867   -3.6464   21.9962 C   0  0  0  0  0  0  0  0  0  0  0  0
    7.4398   -3.3704   21.0492 H   0  0  0  0  0  0  0  0  0  0  0  0
    7.4534   -4.7611   22.7028 C   0  0  0  0  0  0  0  0  0  0  0  0
    6.6371   -5.3608   22.3094 H   0  0  0  0  0  0  0  0  0  0  0  0
    7.9837   -5.1663   23.8667 N   0  0  0  0  0  0  0  0  0  0  0  0
    8.9897   -4.4438   24.3780 C   0  0  0  0  0  0  0  0  0  0  0  0
    9.5913   -4.8810   25.6840 C   0  0  0  0  0  0  0  0  0  0  0  0
   10.6695   -5.0371   25.5822 H   0  0  0  0  0  0  0  0  0  0  0  0
    9.4566   -4.1087   26.4474 H   0  0  0  0  0  0  0  0  0  0  0  0
    9.1342   -5.8045   26.0359 H   0  0  0  0  0  0  0  0  0  0  0  0
    9.4950   -3.3077   23.7407 C   0  0  0  0  0  0  0  0  0  0  0  0
   10.3023   -2.7486   24.2003 H   0  0  0  0  0  0  0  0  0  0  0  0
    5.4434    0.6340   20.1629 C   0  0  0  0  0  0  0  0  0  0  0  0
    5.0206    0.6210   21.1684 H   0  0  0  0  0  0  0  0  0  0  0  0
    4.8114    1.3066   19.1092 C   0  0  0  0  0  0  0  0  0  0  0  0
    3.8808    1.8386   19.2638 H   0  0  0  0  0  0  0  0  0  0  0  0
  1  2  1  0
  2  3  2  0
  3  4  1  0
  4  5  1  0
  4  6  2  0
  6  7  1  0
  7  8  1  0
  7  9  1  0
  9 10  1  0
 10 11  1  0
 10 12  2  0
 12 13  1  0
 13 14  1  0
 13 15  1  0
 15 16  1  0
 16 17  2  0
 17 18  1  0
 17 19  1  0
 19 20  1  0
 19 21  2  0
 21 22  1  0
 22 23  1  0
 23 24  1  0
 23 25  1  0
 23 26  1  0
 22 27  2  0
 27 28  1  0
  6 29  1  0
 29 30  1  0
 29 31  2  0
 31 32  1  0
 31  2  1  0
 15  9  2  0
 27 16  1  0
M  END
>  <cnnaffinity>  (1) 
-5.74401

>  <filename>  (1) 
Cc1cc(-c2[nH]ncc2Nc2cccnc2)ccn1

$$$$
