
     RDKit          3D

 33 35  0  0  0  0  0  0  0  0999 V2000
    4.9434    1.8252   16.9588 H   0  0  0  0  0  0  0  0  0  0  0  0
    5.4100    1.3097   17.7980 C   0  0  0  0  0  0  0  0  0  0  0  0
    6.5689    0.6798   17.5445 N   0  0  0  0  0  0  0  0  0  0  0  0
    7.1661    0.0566   18.5693 C   0  0  0  0  0  0  0  0  0  0  0  0
    8.1013   -0.4476   18.3278 H   0  0  0  0  0  0  0  0  0  0  0  0
    6.6571   -0.0006   19.8862 C   0  0  0  0  0  0  0  0  0  0  0  0
    7.3915   -0.6960   20.9907 C   0  0  0  0  0  0  0  0  0  0  0  0
    6.7416   -1.5660   21.8970 C   0  0  0  0  0  0  0  0  0  0  0  0
    5.6770   -1.7763   21.7889 H   0  0  0  0  0  0  0  0  0  0  0  0
    7.3652   -2.2248   22.8841 N   0  0  0  0  0  0  0  0  0  0  0  0
    8.6810   -2.0081   23.0413 C   0  0  0  0  0  0  0  0  0  0  0  0
    9.1902   -2.5614   23.8334 H   0  0  0  0  0  0  0  0  0  0  0  0
    9.4321   -1.1487   22.2297 C   0  0  0  0  0  0  0  0  0  0  0  0
   10.9034   -1.0065   22.4460 C   0  0  0  0  0  0  0  0  0  0  0  0
   11.7468   -1.6215   21.5163 C   0  0  0  0  0  0  0  0  0  0  0  0
   11.2813   -2.2248   20.7528 H   0  0  0  0  0  0  0  0  0  0  0  0
   13.1256   -1.4243   21.5314 C   0  0  0  0  0  0  0  0  0  0  0  0
   13.7291   -1.8771   20.7494 H   0  0  0  0  0  0  0  0  0  0  0  0
   13.6844   -0.6015   22.5109 C   0  0  0  0  0  0  0  0  0  0  0  0
   14.7575   -0.4157   22.5263 H   0  0  0  0  0  0  0  0  0  0  0  0
   12.8582   -0.0471   23.4983 C   0  0  0  0  0  0  0  0  0  0  0  0
   13.3109    0.5402   24.2934 H   0  0  0  0  0  0  0  0  0  0  0  0
   11.4736   -0.3045   23.5368 C   0  0  0  0  0  0  0  0  0  0  0  0
   10.6489    0.0559   24.7554 C   0  0  0  0  0  0  0  0  0  0  0  0
   11.1975    0.6957   25.4499 H   0  0  0  0  0  0  0  0  0  0  0  0
   10.3733   -0.8560   25.3022 H   0  0  0  0  0  0  0  0  0  0  0  0
    9.7082    0.5478   24.4883 H   0  0  0  0  0  0  0  0  0  0  0  0
    8.7716   -0.5153   21.1659 C   0  0  0  0  0  0  0  0  0  0  0  0
    9.3308    0.1379   20.4937 H   0  0  0  0  0  0  0  0  0  0  0  0
    5.4330    0.6484   20.1144 C   0  0  0  0  0  0  0  0  0  0  0  0
    4.9977    0.6589   21.1139 H   0  0  0  0  0  0  0  0  0  0  0  0
    4.8076    1.3142   19.0590 C   0  0  0  0  0  0  0  0  0  0  0  0
    3.8728    1.8424   19.2003 H   0  0  0  0  0  0  0  0  0  0  0  0
  1  2  1  0
  2  3  2  0
  3  4  1  0
  4  5  1  0
  4  6  2  0
  6  7  1  0
  7  8  2  0
  8  9  1  0
  8 10  1  0
 10 11  2  0
 11 12  1  0
 11 13  1  0
 13 14  1  0
 14 15  2  0
 15 16  1  0
 15 17  1  0
 17 18  1  0
 17 19  2  0
 19 20  1  0
 19 21  1  0
 21 22  1  0
 21 23  2  0
 23 24  1  0
 24 25  1  0
 24 26  1  0
 24 27  1  0
 13 28  2  0
 28 29  1  0
  6 30  1  0
 30 31  1  0
 30 32  2  0
 32 33  1  0
 32  2  1  0
 28  7  1  0
 23 14  1  0
M  END
>  <cnnaffinity>  (1) 
-5.62217

>  <filename>  (1) 
Cc1ccccc1-c1cncc(-c2cccnc2)c1

$$$$
