
     RDKit          3D

 32 34  0  0  0  0  0  0  0  0999 V2000
    4.9205    1.7816   16.9972 H   0  0  0  0  0  0  0  0  0  0  0  0
    5.4007    1.2934   17.8444 C   0  0  0  0  0  0  0  0  0  0  0  0
    6.5598    0.6691   17.5878 N   0  0  0  0  0  0  0  0  0  0  0  0
    7.1674    0.0443   18.6011 C   0  0  0  0  0  0  0  0  0  0  0  0
    8.1219   -0.4235   18.3818 H   0  0  0  0  0  0  0  0  0  0  0  0
    6.6385   -0.0206   19.9007 C   0  0  0  0  0  0  0  0  0  0  0  0
    7.3339   -0.7235   20.9457 N   0  0  0  0  0  0  0  0  0  0  0  0
    6.5838   -1.6061   21.6694 N   0  0  0  0  0  0  0  0  0  0  0  0
    7.1551   -2.2972   22.6408 C   0  0  0  0  0  0  0  0  0  0  0  0
    6.2995   -3.2995   23.4076 C   0  0  0  0  0  0  0  0  0  0  0  0
    6.8842   -4.0091   24.4033 N   0  0  0  0  0  0  0  0  0  0  0  0
    6.1528   -4.8917   25.0960 C   0  0  0  0  0  0  0  0  0  0  0  0
    6.8222   -5.6669   26.2031 C   0  0  0  0  0  0  0  0  0  0  0  0
    7.8754   -5.3981   26.3036 H   0  0  0  0  0  0  0  0  0  0  0  0
    6.7513   -6.7446   26.0223 H   0  0  0  0  0  0  0  0  0  0  0  0
    6.3205   -5.4882   27.1608 H   0  0  0  0  0  0  0  0  0  0  0  0
    4.7918   -5.1087   24.8159 C   0  0  0  0  0  0  0  0  0  0  0  0
    4.2409   -5.8334   25.4036 H   0  0  0  0  0  0  0  0  0  0  0  0
    4.1804   -4.3924   23.7926 C   0  0  0  0  0  0  0  0  0  0  0  0
    3.1259   -4.5367   23.5576 H   0  0  0  0  0  0  0  0  0  0  0  0
    4.9476   -3.4784   23.0703 C   0  0  0  0  0  0  0  0  0  0  0  0
    4.5334   -2.8901   22.2634 H   0  0  0  0  0  0  0  0  0  0  0  0
    8.5433   -2.1098   22.9747 C   0  0  0  0  0  0  0  0  0  0  0  0
    8.9625   -2.6976   23.7825 H   0  0  0  0  0  0  0  0  0  0  0  0
    9.2839   -1.2015   22.2853 C   0  0  0  0  0  0  0  0  0  0  0  0
   10.3292   -0.9963   22.4794 H   0  0  0  0  0  0  0  0  0  0  0  0
    8.7119   -0.4084   21.2049 C   0  0  0  0  0  0  0  0  0  0  0  0
    9.3258    0.4284   20.5651 O   0  0  0  0  0  0  0  0  0  0  0  0
    5.4336    0.6353   20.1678 C   0  0  0  0  0  0  0  0  0  0  0  0
    5.0200    0.5989   21.1763 H   0  0  0  0  0  0  0  0  0  0  0  0
    4.8111    1.3145   19.1134 C   0  0  0  0  0  0  0  0  0  0  0  0
    3.8783    1.8449   19.2609 H   0  0  0  0  0  0  0  0  0  0  0  0
  1  2  1  0
  2  3  2  0
  3  4  1  0
  4  5  1  0
  4  6  2  0
  6  7  1  0
  7  8  1  0
  8  9  2  0
  9 10  1  0
 10 11  2  0
 11 12  1  0
 12 13  1  0
 13 14  1  0
 13 15  1  0
 13 16  1  0
 12 17  2  0
 17 18  1  0
 17 19  1  0
 19 20  1  0
 19 21  2  0
 21 22  1  0
  9 23  1  0
 23 24  1  0
 23 25  2  0
 25 26  1  0
 25 27  1  0
 27 28  2  0
  6 29  1  0
 29 30  1  0
 29 31  2  0
 31 32  1  0
 31  2  1  0
 27  7  1  0
 21 10  1  0
M  END
>  <cnnaffinity>  (1) 
-5.21876

>  <filename>  (1) 
Cc1cccc(-c2ccc(=O)n(-c3cccnc3)n2)n1

$$$$
