
     RDKit          3D

 38 40  0  0  0  0  0  0  0  0999 V2000
    9.3478    0.6793   20.7646 C   0  0  0  0  0  0  0  0  0  0  0  0
    8.5905   -0.4539   21.3881 C   0  0  0  0  0  0  0  0  0  0  0  0
    9.1571   -1.2311   22.3889 C   0  0  0  0  0  0  0  0  0  0  0  0
    8.5466   -2.2450   22.9901 N   0  0  0  0  0  0  0  0  0  0  0  0
    7.3038   -2.4580   22.5763 C   0  0  0  0  0  0  0  0  0  0  0  0
    6.6034   -3.4761   23.1075 N   0  0  0  0  0  0  0  0  0  0  0  0
    7.0142   -4.1946   24.3067 C   0  0  1  0  0  0  0  0  0  0  0  0
    7.0219   -3.3823   25.6229 C   0  0  0  0  0  0  0  0  0  0  0  0
    7.4028   -4.2874   26.8102 C   0  0  0  0  0  0  0  0  0  0  0  0
    6.5289   -5.5439   26.8475 C   0  0  0  0  0  0  0  0  0  0  0  0
    6.5525   -6.2309   25.6066 O   0  0  0  0  0  0  0  0  0  0  0  0
    6.1441   -5.4457   24.4946 C   0  0  0  0  0  0  0  0  0  0  0  0
    6.2309   -6.0918   23.6162 H   0  0  0  0  0  0  0  0  0  0  0  0
    5.0893   -5.1367   24.6022 H   0  0  0  0  0  0  0  0  0  0  0  0
    6.8903   -6.2578   27.5976 H   0  0  0  0  0  0  0  0  0  0  0  0
    5.4917   -5.2716   27.1130 H   0  0  0  0  0  0  0  0  0  0  0  0
    7.3068   -3.7406   27.7526 H   0  0  0  0  0  0  0  0  0  0  0  0
    8.4556   -4.5901   26.7343 H   0  0  0  0  0  0  0  0  0  0  0  0
    6.0248   -2.9448   25.7853 H   0  0  0  0  0  0  0  0  0  0  0  0
    7.7310   -2.5529   25.5377 H   0  0  0  0  0  0  0  0  0  0  0  0
    8.0402   -4.5356   24.1308 H   0  0  0  0  0  0  0  0  0  0  0  0
    5.6486   -3.2659   22.8698 H   0  0  0  0  0  0  0  0  0  0  0  0
    6.6118   -1.7909   21.6531 N   0  0  0  0  0  0  0  0  0  0  0  0
    7.2699   -0.8178   21.0434 C   0  0  0  0  0  0  0  0  0  0  0  0
    6.5481   -0.1015   19.9820 C   0  0  0  0  0  0  0  0  0  0  0  0
    5.3380    0.5708   20.1878 C   0  0  0  0  0  0  0  0  0  0  0  0
    4.7897    1.2789   19.1188 C   0  0  0  0  0  0  0  0  0  0  0  0
    5.4451    1.2602   17.8826 C   0  0  0  0  0  0  0  0  0  0  0  0
    6.5842    0.5885   17.6668 N   0  0  0  0  0  0  0  0  0  0  0  0
    7.1141   -0.0688   18.7042 C   0  0  0  0  0  0  0  0  0  0  0  0
    8.0624   -0.5703   18.5048 H   0  0  0  0  0  0  0  0  0  0  0  0
    5.0384    1.8051   17.0330 H   0  0  0  0  0  0  0  0  0  0  0  0
    3.8887    1.8672   19.2336 H   0  0  0  0  0  0  0  0  0  0  0  0
    4.8660    0.5718   21.1719 H   0  0  0  0  0  0  0  0  0  0  0  0
   10.1729   -1.0007   22.7274 H   0  0  0  0  0  0  0  0  0  0  0  0
   10.2367    0.9211   21.3520 H   0  0  0  0  0  0  0  0  0  0  0  0
    8.7155    1.5645   20.6617 H   0  0  0  0  0  0  0  0  0  0  0  0
    9.6512    0.3969   19.7570 H   0  0  0  0  0  0  0  0  0  0  0  0
  1  2  1  0
  2  3  2  0
  3  4  1  0
  4  5  2  0
  5  6  1  0
  6  7  1  0
  7  8  1  0
  8  9  1  0
  9 10  1  0
 10 11  1  0
 11 12  1  0
 12 13  1  0
 12 14  1  0
 10 15  1  0
 10 16  1  0
  9 17  1  0
  9 18  1  0
  8 19  1  0
  8 20  1  0
  7 21  1  6
  6 22  1  0
  5 23  1  0
 23 24  2  0
 24 25  1  0
 25 26  2  0
 26 27  1  0
 27 28  2  0
 28 29  1  0
 29 30  2  0
 30 31  1  0
 28 32  1  0
 27 33  1  0
 26 34  1  0
  3 35  1  0
  1 36  1  0
  1 37  1  0
  1 38  1  0
 24  2  1  0
 30 25  1  0
 12  7  1  0
M  END
>  <cnnaffinity>  (1) 
-5.14184

>  <filename>  (1) 
Cc1cnc(N[C@H]2CCCOC2)nc1-c1cccnc1

$$$$
