
     RDKit          3D

 29 31  0  0  0  0  0  0  0  0999 V2000
    4.9156    1.7852   17.0012 H   0  0  0  0  0  0  0  0  0  0  0  0
    5.3987    1.2900   17.8415 C   0  0  0  0  0  0  0  0  0  0  0  0
    6.5547    0.6668   17.5737 N   0  0  0  0  0  0  0  0  0  0  0  0
    7.1930    0.0600   18.5821 C   0  0  0  0  0  0  0  0  0  0  0  0
    8.1396   -0.4202   18.3525 H   0  0  0  0  0  0  0  0  0  0  0  0
    6.6945    0.0287   19.9005 C   0  0  0  0  0  0  0  0  0  0  0  0
    7.2805   -0.6756   20.9558 O   0  0  0  0  0  0  0  0  0  0  0  0
    8.6018   -0.7974   21.0963 C   0  0  0  0  0  0  0  0  0  0  0  0
    9.5315   -0.1181   20.4781 N   0  0  0  0  0  0  0  0  0  0  0  0
   10.7045   -0.5679   20.9778 N   0  0  0  0  0  0  0  0  0  0  0  0
   10.5294   -1.4824   21.8460 N   0  0  0  0  0  0  0  0  0  0  0  0
    9.1765   -1.6644   21.9549 N   0  0  0  0  0  0  0  0  0  0  0  0
    8.6009   -2.6101   22.8332 C   0  0  0  0  0  0  0  0  0  0  0  0
    7.2779   -2.6788   22.8140 N   0  0  0  0  0  0  0  0  0  0  0  0
    6.7095   -3.5521   23.6498 C   0  0  0  0  0  0  0  0  0  0  0  0
    5.6264   -3.5917   23.6341 H   0  0  0  0  0  0  0  0  0  0  0  0
    7.4141   -4.3891   24.5073 C   0  0  0  0  0  0  0  0  0  0  0  0
    6.8944   -5.0764   25.1631 H   0  0  0  0  0  0  0  0  0  0  0  0
    8.8108   -4.3211   24.5138 C   0  0  0  0  0  0  0  0  0  0  0  0
    9.6221   -5.1816   25.4435 C   0  0  0  0  0  0  0  0  0  0  0  0
    9.1129   -6.1230   25.6688 H   0  0  0  0  0  0  0  0  0  0  0  0
    9.7893   -4.6655   26.3943 H   0  0  0  0  0  0  0  0  0  0  0  0
   10.6001   -5.4167   25.0159 H   0  0  0  0  0  0  0  0  0  0  0  0
    9.4106   -3.4048   23.6540 C   0  0  0  0  0  0  0  0  0  0  0  0
   10.4858   -3.2972   23.6212 H   0  0  0  0  0  0  0  0  0  0  0  0
    5.4697    0.6440   20.1719 C   0  0  0  0  0  0  0  0  0  0  0  0
    5.0467    0.6033   21.1768 H   0  0  0  0  0  0  0  0  0  0  0  0
    4.8243    1.2991   19.1175 C   0  0  0  0  0  0  0  0  0  0  0  0
    3.8917    1.8261   19.2704 H   0  0  0  0  0  0  0  0  0  0  0  0
  1  2  1  0
  2  3  2  0
  3  4  1  0
  4  5  1  0
  4  6  2  0
  6  7  1  0
  7  8  1  0
  8  9  2  0
  9 10  1  0
 10 11  2  0
 11 12  1  0
 12 13  1  0
 13 14  2  0
 14 15  1  0
 15 16  1  0
 15 17  2  0
 17 18  1  0
 17 19  1  0
 19 20  1  0
 20 21  1  0
 20 22  1  0
 20 23  1  0
 19 24  2  0
 24 25  1  0
  6 26  1  0
 26 27  1  0
 26 28  2  0
 28 29  1  0
 28  2  1  0
 12  8  1  0
 24 13  1  0
M  END
>  <cnnaffinity>  (1) 
-5.36761

>  <filename>  (1) 
Cc1ccnc(-n2nnnc2Oc2cccnc2)c1

$$$$
