
     RDKit          3D

 26 27  0  0  0  0  0  0  0  0999 V2000
    4.9948    1.8921   17.0070 H   0  0  0  0  0  0  0  0  0  0  0  0
    5.4445    1.3271   17.8237 C   0  0  0  0  0  0  0  0  0  0  0  0
    6.5917    0.6796   17.5590 N   0  0  0  0  0  0  0  0  0  0  0  0
    7.1551   -0.0290   18.5569 C   0  0  0  0  0  0  0  0  0  0  0  0
    8.0835   -0.5337   18.2992 H   0  0  0  0  0  0  0  0  0  0  0  0
    6.5987   -0.1472   19.8611 C   0  0  0  0  0  0  0  0  0  0  0  0
    7.0595   -0.9471   20.9272 N   0  0  0  0  0  0  0  0  0  0  0  0
    6.5733   -0.7453   21.7961 H   0  0  0  0  0  0  0  0  0  0  0  0
    8.6621   -1.4545   21.1660 S   0  0  0  0  0  0  0  0  0  0  0  0
    9.5085    0.0411   21.7222 C   0  0  0  0  0  0  0  0  0  0  0  0
    9.9016    0.9821   20.7704 C   0  0  0  0  0  0  0  0  0  0  0  0
    9.6352    0.8203   19.7375 H   0  0  0  0  0  0  0  0  0  0  0  0
   10.6355    2.0940   21.1765 C   0  0  0  0  0  0  0  0  0  0  0  0
   10.9998    2.7943   20.4272 H   0  0  0  0  0  0  0  0  0  0  0  0
   10.9105    2.3637   22.4590 N   0  0  0  0  0  0  0  0  0  0  0  0
   10.4598    1.5078   23.3886 C   0  0  0  0  0  0  0  0  0  0  0  0
   10.6416    1.9173   24.8274 C   0  0  0  0  0  0  0  0  0  0  0  0
    9.6680    1.9780   25.3361 H   0  0  0  0  0  0  0  0  0  0  0  0
   11.2560    1.1940   25.3796 H   0  0  0  0  0  0  0  0  0  0  0  0
   11.1191    2.8994   24.8362 H   0  0  0  0  0  0  0  0  0  0  0  0
    9.8152    0.2974   23.0581 C   0  0  0  0  0  0  0  0  0  0  0  0
    9.5602   -0.4129   23.8337 H   0  0  0  0  0  0  0  0  0  0  0  0
    5.4176    0.5633   20.1095 C   0  0  0  0  0  0  0  0  0  0  0  0
    4.9961    0.5320   21.1146 H   0  0  0  0  0  0  0  0  0  0  0  0
    4.8301    1.3004   19.0817 C   0  0  0  0  0  0  0  0  0  0  0  0
    3.9175    1.8598   19.2601 H   0  0  0  0  0  0  0  0  0  0  0  0
  1  2  1  0
  2  3  2  0
  3  4  1  0
  4  5  1  0
  4  6  2  0
  6  7  1  0
  7  8  1  0
  7  9  1  0
  9 10  1  0
 10 11  2  0
 11 12  1  0
 11 13  1  0
 13 14  1  0
 13 15  2  0
 15 16  1  0
 16 17  1  0
 17 18  1  0
 17 19  1  0
 17 20  1  0
 16 21  2  0
 21 22  1  0
  6 23  1  0
 23 24  1  0
 23 25  2  0
 25 26  1  0
 25  2  1  0
 21 10  1  0
M  END
>  <cnnaffinity>  (1) 
-4.73882

>  <filename>  (1) 
Cc1cc(SNc2cccnc2)ccn1

$$$$
