
     RDKit          3D

 31 33  0  0  0  0  0  0  0  0999 V2000
    4.9203    1.8055   16.9657 H   0  0  0  0  0  0  0  0  0  0  0  0
    5.3930    1.3061   17.8120 C   0  0  0  0  0  0  0  0  0  0  0  0
    6.5572    0.6861   17.5585 N   0  0  0  0  0  0  0  0  0  0  0  0
    7.1708    0.0714   18.5774 C   0  0  0  0  0  0  0  0  0  0  0  0
    8.1060   -0.4219   18.3206 H   0  0  0  0  0  0  0  0  0  0  0  0
    6.6668    0.0183   19.8898 C   0  0  0  0  0  0  0  0  0  0  0  0
    7.3410   -0.7024   20.9744 C   0  0  0  0  0  0  0  0  0  0  0  0
    6.8231   -1.2289   22.1001 C   0  0  0  0  0  0  0  0  0  0  0  0
    5.8055   -1.3086   22.4078 H   0  0  0  0  0  0  0  0  0  0  0  0
    7.8442   -1.7884   22.8526 N   0  0  0  0  0  0  0  0  0  0  0  0
    7.6484   -2.4419   24.1012 C   0  0  0  0  0  0  0  0  0  0  0  0
    6.8335   -1.8573   25.0773 C   0  0  0  0  0  0  0  0  0  0  0  0
    6.3382   -0.9099   24.9043 H   0  0  0  0  0  0  0  0  0  0  0  0
    6.6928   -2.5304   26.2849 C   0  0  0  0  0  0  0  0  0  0  0  0
    6.0722   -2.1130   27.0747 H   0  0  0  0  0  0  0  0  0  0  0  0
    7.2773   -3.7041   26.5619 N   0  0  0  0  0  0  0  0  0  0  0  0
    8.0426   -4.2591   25.6137 C   0  0  0  0  0  0  0  0  0  0  0  0
    8.6906   -5.5752   25.9232 C   0  0  0  0  0  0  0  0  0  0  0  0
    8.5637   -5.8275   26.9785 H   0  0  0  0  0  0  0  0  0  0  0  0
    9.7595   -5.5399   25.6827 H   0  0  0  0  0  0  0  0  0  0  0  0
    8.2403   -6.3645   25.3113 H   0  0  0  0  0  0  0  0  0  0  0  0
    8.2511   -3.6644   24.3626 C   0  0  0  0  0  0  0  0  0  0  0  0
    8.8905   -4.1327   23.6235 H   0  0  0  0  0  0  0  0  0  0  0  0
    9.0407   -1.6105   22.1942 C   0  0  0  0  0  0  0  0  0  0  0  0
   10.6089   -1.9866   22.5989 S   0  0  0  0  0  0  0  0  0  0  0  0
    8.6970   -0.9768   21.0403 N   0  0  0  0  0  0  0  0  0  0  0  0
    9.4396   -0.6725   20.4374 H   0  0  0  0  0  0  0  0  0  0  0  0
    5.4415    0.6671   20.1281 C   0  0  0  0  0  0  0  0  0  0  0  0
    5.0097    0.6652   21.1293 H   0  0  0  0  0  0  0  0  0  0  0  0
    4.7988    1.3223   19.0790 C   0  0  0  0  0  0  0  0  0  0  0  0
    3.8631    1.8528   19.2260 H   0  0  0  0  0  0  0  0  0  0  0  0
  1  2  1  0
  2  3  2  0
  3  4  1  0
  4  5  1  0
  4  6  2  0
  6  7  1  0
  7  8  2  0
  8  9  1  0
  8 10  1  0
 10 11  1  0
 11 12  2  0
 12 13  1  0
 12 14  1  0
 14 15  1  0
 14 16  2  0
 16 17  1  0
 17 18  1  0
 18 19  1  0
 18 20  1  0
 18 21  1  0
 17 22  2  0
 22 23  1  0
 10 24  1  0
 24 25  2  0
 24 26  1  0
 26 27  1  0
  6 28  1  0
 28 29  1  0
 28 30  2  0
 30 31  1  0
 30  2  1  0
 26  7  1  0
 22 11  1  0
M  END
>  <cnnaffinity>  (1) 
-5.64997

>  <filename>  (1) 
Cc1cc(-n2cc(-c3cccnc3)[nH]c2=S)ccn1

$$$$
