
     RDKit          3D

 32 35  0  0  0  0  0  0  0  0999 V2000
    4.9225    1.7719   17.0038 H   0  0  0  0  0  0  0  0  0  0  0  0
    5.4097    1.2857   17.8469 C   0  0  0  0  0  0  0  0  0  0  0  0
    6.5749    0.6686   17.5955 N   0  0  0  0  0  0  0  0  0  0  0  0
    7.1810    0.0536   18.6170 C   0  0  0  0  0  0  0  0  0  0  0  0
    8.1271   -0.4331   18.3844 H   0  0  0  0  0  0  0  0  0  0  0  0
    6.6469    0.0136   19.9139 C   0  0  0  0  0  0  0  0  0  0  0  0
    7.3578   -0.6902   20.9735 C   0  0  0  0  0  0  0  0  0  0  0  0
    8.5510   -1.3129   20.7628 N   0  0  0  0  0  0  0  0  0  0  0  0
    8.7989   -1.8136   21.9581 C   0  0  0  0  0  0  0  0  0  0  0  0
    9.9656   -2.8535   22.7239 S   0  0  0  0  0  0  0  0  0  0  0  0
    9.0173   -2.8386   24.1825 C   0  0  0  0  0  0  0  0  0  0  0  0
    9.3535   -3.4273   25.0290 H   0  0  0  0  0  0  0  0  0  0  0  0
    7.9051   -2.0758   24.1055 C   0  0  0  0  0  0  0  0  0  0  0  0
    6.8678   -1.9071   25.1659 C   0  0  0  0  0  0  0  0  0  0  0  0
    6.4844   -3.0464   25.7768 N   0  0  0  0  0  0  0  0  0  0  0  0
    5.5394   -2.9760   26.7178 C   0  0  0  0  0  0  0  0  0  0  0  0
    5.2402   -3.9181   27.1656 H   0  0  0  0  0  0  0  0  0  0  0  0
    4.9627   -1.7752   27.1349 C   0  0  0  0  0  0  0  0  0  0  0  0
    4.2082   -1.7730   27.9114 H   0  0  0  0  0  0  0  0  0  0  0  0
    5.3999   -0.5911   26.5467 C   0  0  0  0  0  0  0  0  0  0  0  0
    4.9803    0.3647   26.8602 H   0  0  0  0  0  0  0  0  0  0  0  0
    6.3893   -0.6244   25.5537 C   0  0  0  0  0  0  0  0  0  0  0  0
    6.8865    0.6797   24.9796 C   0  0  0  0  0  0  0  0  0  0  0  0
    6.2682    0.9760   24.1282 H   0  0  0  0  0  0  0  0  0  0  0  0
    7.9198    0.6180   24.6291 H   0  0  0  0  0  0  0  0  0  0  0  0
    6.8312    1.4785   25.7274 H   0  0  0  0  0  0  0  0  0  0  0  0
    7.8308   -1.4854   22.8393 N   0  0  0  0  0  0  0  0  0  0  0  0
    6.8722   -0.7650   22.2119 N   0  0  0  0  0  0  0  0  0  0  0  0
    5.4285    0.6576   20.1655 C   0  0  0  0  0  0  0  0  0  0  0  0
    4.9964    0.6339   21.1695 H   0  0  0  0  0  0  0  0  0  0  0  0
    4.8044    1.3105   19.1094 C   0  0  0  0  0  0  0  0  0  0  0  0
    3.8732    1.8438   19.2605 H   0  0  0  0  0  0  0  0  0  0  0  0
  1  2  1  0
  2  3  2  0
  3  4  1  0
  4  5  1  0
  4  6  2  0
  6  7  1  0
  7  8  1  0
  8  9  2  0
  9 10  1  0
 10 11  1  0
 11 12  1  0
 11 13  2  0
 13 14  1  0
 14 15  2  0
 15 16  1  0
 16 17  1  0
 16 18  2  0
 18 19  1  0
 18 20  1  0
 20 21  1  0
 20 22  2  0
 22 23  1  0
 23 24  1  0
 23 25  1  0
 23 26  1  0
 13 27  1  0
 27 28  1  0
  6 29  1  0
 29 30  1  0
 29 31  2  0
 31 32  1  0
 31  2  1  0
 28  7  2  0
 27  9  1  0
 22 14  1  0
M  END
>  <cnnaffinity>  (1) 
-5.60258

>  <filename>  (1) 
Cc1cccnc1-c1csc2nc(-c3cccnc3)nn12

$$$$
