
     RDKit          3D

 36 39  0  0  0  0  0  0  0  0999 V2000
    4.9575    1.7962   16.9793 H   0  0  0  0  0  0  0  0  0  0  0  0
    5.4040    1.2849   17.8315 C   0  0  0  0  0  0  0  0  0  0  0  0
    6.5612    0.6509   17.5910 N   0  0  0  0  0  0  0  0  0  0  0  0
    7.1578    0.0359   18.6145 C   0  0  0  0  0  0  0  0  0  0  0  0
    8.1036   -0.4487   18.3797 H   0  0  0  0  0  0  0  0  0  0  0  0
    6.6453    0.0218   19.9210 C   0  0  0  0  0  0  0  0  0  0  0  0
    7.3955   -0.6572   20.9671 C   0  0  0  0  0  0  0  0  0  0  0  0
    8.0696   -1.8308   20.7391 N   0  0  0  0  0  0  0  0  0  0  0  0
    8.5015   -2.1851   21.9159 C   0  0  0  0  0  0  0  0  0  0  0  0
    9.4311   -3.4859   22.5910 S   0  0  0  0  0  0  0  0  0  0  0  0
    9.5296   -2.6804   24.1349 C   0  0  0  0  0  0  0  0  0  0  0  0
   10.1332   -3.1437   24.9077 H   0  0  0  0  0  0  0  0  0  0  0  0
    8.8020   -1.5446   24.1381 C   0  0  0  0  0  0  0  0  0  0  0  0
    8.5925   -0.8289   24.9201 H   0  0  0  0  0  0  0  0  0  0  0  0
    8.2042   -1.2996   22.9080 N   0  0  0  0  0  0  0  0  0  0  0  0
    7.4994   -0.2804   22.2973 C   0  0  0  0  0  0  0  0  0  0  0  0
    7.0749    0.9739   22.9109 C   0  0  0  0  0  0  0  0  0  0  0  0
    7.1629    2.0152   22.2806 O   0  0  0  0  0  0  0  0  0  0  0  0
    6.5221    0.9597   24.3142 C   0  0  0  0  0  0  0  0  0  0  0  0
    6.6322    2.1191   25.0993 C   0  0  0  0  0  0  0  0  0  0  0  0
    7.1147    2.9988   24.6743 H   0  0  0  0  0  0  0  0  0  0  0  0
    6.1206    2.1368   26.3954 C   0  0  0  0  0  0  0  0  0  0  0  0
    6.2074    3.0379   26.9980 H   0  0  0  0  0  0  0  0  0  0  0  0
    5.4688    1.0185   26.9433 C   0  0  0  0  0  0  0  0  0  0  0  0
    4.8822    1.0649   28.3371 C   0  0  0  0  0  0  0  0  0  0  0  0
    3.8385    1.4058   28.3253 H   0  0  0  0  0  0  0  0  0  0  0  0
    5.4366    1.7533   28.9853 H   0  0  0  0  0  0  0  0  0  0  0  0
    4.8909    0.0775   28.8135 H   0  0  0  0  0  0  0  0  0  0  0  0
    5.3571   -0.1338   26.1492 C   0  0  0  0  0  0  0  0  0  0  0  0
    4.8543   -1.0053   26.5603 H   0  0  0  0  0  0  0  0  0  0  0  0
    5.8878   -0.1737   24.8578 C   0  0  0  0  0  0  0  0  0  0  0  0
    5.8295   -1.1005   24.2873 H   0  0  0  0  0  0  0  0  0  0  0  0
    5.4127    0.6595   20.1508 C   0  0  0  0  0  0  0  0  0  0  0  0
    4.9599    0.6684   21.1437 H   0  0  0  0  0  0  0  0  0  0  0  0
    4.7921    1.3060   19.0877 C   0  0  0  0  0  0  0  0  0  0  0  0
    3.8663    1.8470   19.2274 H   0  0  0  0  0  0  0  0  0  0  0  0
  1  2  1  0
  2  3  2  0
  3  4  1  0
  4  5  1  0
  4  6  2  0
  6  7  1  0
  7  8  1  0
  8  9  2  0
  9 10  1  0
 10 11  1  0
 11 12  1  0
 11 13  2  0
 13 14  1  0
 13 15  1  0
 15 16  1  0
 16 17  1  0
 17 18  2  0
 17 19  1  0
 19 20  2  0
 20 21  1  0
 20 22  1  0
 22 23  1  0
 22 24  2  0
 24 25  1  0
 25 26  1  0
 25 27  1  0
 25 28  1  0
 24 29  1  0
 29 30  1  0
 29 31  2  0
 31 32  1  0
  6 33  1  0
 33 34  1  0
 33 35  2  0
 35 36  1  0
 35  2  1  0
 16  7  2  0
 31 19  1  0
 15  9  1  0
M  END
>  <cnnaffinity>  (1) 
-5.1225

>  <filename>  (1) 
Cc1ccc(C(=O)c2c(-c3cccnc3)nc3sccn23)cc1

$$$$
