
     RDKit          3D

 35 38  0  0  0  0  0  0  0  0999 V2000
    4.9162    1.7755   17.0021 H   0  0  0  0  0  0  0  0  0  0  0  0
    5.4046    1.2899   17.8427 C   0  0  0  0  0  0  0  0  0  0  0  0
    6.5701    0.6779   17.5770 N   0  0  0  0  0  0  0  0  0  0  0  0
    7.1748    0.0567   18.5903 C   0  0  0  0  0  0  0  0  0  0  0  0
    8.1245   -0.4346   18.3743 H   0  0  0  0  0  0  0  0  0  0  0  0
    6.6478    0.0110   19.8914 C   0  0  0  0  0  0  0  0  0  0  0  0
    7.4037   -0.7014   20.9179 C   0  0  0  0  0  0  0  0  0  0  0  0
    8.3304   -1.6013   20.6991 N   0  0  0  0  0  0  0  0  0  0  0  0
    8.8307   -2.0345   21.9062 N   0  0  0  0  0  0  0  0  0  0  0  0
    8.1967   -1.3537   22.8195 C   0  0  0  0  0  0  0  0  0  0  0  0
    8.2643   -1.0955   24.5357 S   0  0  0  0  0  0  0  0  0  0  0  0
    7.0344    0.1737   24.3205 C   0  0  0  0  0  0  0  0  0  0  0  0
    6.5357    0.9664   25.4620 C   0  0  0  0  0  0  0  0  0  0  0  0
    5.5712    1.9625   25.2419 C   0  0  0  0  0  0  0  0  0  0  0  0
    5.2028    2.1436   24.2371 H   0  0  0  0  0  0  0  0  0  0  0  0
    5.0917    2.7159   26.3096 C   0  0  0  0  0  0  0  0  0  0  0  0
    4.3455    3.4832   26.1219 H   0  0  0  0  0  0  0  0  0  0  0  0
    5.5483    2.5094   27.6153 C   0  0  0  0  0  0  0  0  0  0  0  0
    5.0041    3.3485   28.7405 C   0  0  0  0  0  0  0  0  0  0  0  0
    5.7867    3.9753   29.1818 H   0  0  0  0  0  0  0  0  0  0  0  0
    4.5954    2.7266   29.5438 H   0  0  0  0  0  0  0  0  0  0  0  0
    4.2057    4.0128   28.4005 H   0  0  0  0  0  0  0  0  0  0  0  0
    6.5268    1.5112   27.8482 C   0  0  0  0  0  0  0  0  0  0  0  0
    7.0485    1.2536   29.2395 C   0  0  0  0  0  0  0  0  0  0  0  0
    6.2555    0.8801   29.8978 H   0  0  0  0  0  0  0  0  0  0  0  0
    7.8547    0.5165   29.2457 H   0  0  0  0  0  0  0  0  0  0  0  0
    7.4411    2.1677   29.6971 H   0  0  0  0  0  0  0  0  0  0  0  0
    7.0035    0.7543   26.7751 C   0  0  0  0  0  0  0  0  0  0  0  0
    7.7528   -0.0105   26.9835 H   0  0  0  0  0  0  0  0  0  0  0  0
    6.6220    0.3546   23.1027 N   0  0  0  0  0  0  0  0  0  0  0  0
    7.2698   -0.5200   22.2791 N   0  0  0  0  0  0  0  0  0  0  0  0
    5.4330    0.6523   20.1617 C   0  0  0  0  0  0  0  0  0  0  0  0
    5.0089    0.6348   21.1685 H   0  0  0  0  0  0  0  0  0  0  0  0
    4.8047    1.3084   19.1087 C   0  0  0  0  0  0  0  0  0  0  0  0
    3.8739    1.8435   19.2618 H   0  0  0  0  0  0  0  0  0  0  0  0
  1  2  1  0
  2  3  2  0
  3  4  1  0
  4  5  1  0
  4  6  2  0
  6  7  1  0
  7  8  2  0
  8  9  1  0
  9 10  2  0
 10 11  1  0
 11 12  1  0
 12 13  1  0
 13 14  2  0
 14 15  1  0
 14 16  1  0
 16 17  1  0
 16 18  2  0
 18 19  1  0
 19 20  1  0
 19 21  1  0
 19 22  1  0
 18 23  1  0
 23 24  1  0
 24 25  1  0
 24 26  1  0
 24 27  1  0
 23 28  2  0
 28 29  1  0
 12 30  2  0
 30 31  1  0
  6 32  1  0
 32 33  1  0
 32 34  2  0
 34 35  1  0
 34  2  1  0
 31  7  1  0
 31 10  1  0
 28 13  1  0
M  END
>  <cnnaffinity>  (1) 
-5.3336

>  <filename>  (1) 
Cc1ccc(-c2nn3c(-c4cccnc4)nnc3s2)cc1C

$$$$
