
     RDKit          3D

 30 32  0  0  0  0  0  0  0  0999 V2000
    4.9184    1.8214   16.9696 H   0  0  0  0  0  0  0  0  0  0  0  0
    5.3858    1.3075   17.8099 C   0  0  0  0  0  0  0  0  0  0  0  0
    6.5447    0.6844   17.5480 N   0  0  0  0  0  0  0  0  0  0  0  0
    7.1583    0.0630   18.5632 C   0  0  0  0  0  0  0  0  0  0  0  0
    8.1003   -0.4200   18.3099 H   0  0  0  0  0  0  0  0  0  0  0  0
    6.6702    0.0058   19.8871 C   0  0  0  0  0  0  0  0  0  0  0  0
    7.3943   -0.7066   20.9711 C   0  0  0  0  0  0  0  0  0  0  0  0
    8.7671   -1.1004   21.0580 C   0  0  0  0  0  0  0  0  0  0  0  0
    9.5806   -0.9457   20.3614 H   0  0  0  0  0  0  0  0  0  0  0  0
    9.0413   -1.7246   22.1842 N   0  0  0  0  0  0  0  0  0  0  0  0
    7.8655   -1.7549   22.8686 N   0  0  0  0  0  0  0  0  0  0  0  0
    7.7109   -2.3810   24.1430 C   0  0  0  0  0  0  0  0  0  0  0  0
    6.4992   -2.3039   24.7087 N   0  0  0  0  0  0  0  0  0  0  0  0
    6.3364   -2.8808   25.9050 C   0  0  0  0  0  0  0  0  0  0  0  0
    5.3470   -2.7867   26.3516 H   0  0  0  0  0  0  0  0  0  0  0  0
    7.3622   -3.5372   26.5705 C   0  0  0  0  0  0  0  0  0  0  0  0
    7.2200   -3.9198   27.5702 H   0  0  0  0  0  0  0  0  0  0  0  0
    8.6293   -3.6196   25.9747 C   0  0  0  0  0  0  0  0  0  0  0  0
    9.7764   -4.1984   26.7450 C   0  0  0  0  0  0  0  0  0  0  0  0
   10.0677   -3.4089   27.4368 H   0  0  0  0  0  0  0  0  0  0  0  0
    9.4887   -5.0680   27.3445 H   0  0  0  0  0  0  0  0  0  0  0  0
   10.6330   -4.4604   26.1142 H   0  0  0  0  0  0  0  0  0  0  0  0
    8.8082   -3.0153   24.7382 C   0  0  0  0  0  0  0  0  0  0  0  0
    9.7696   -2.9391   24.2420 H   0  0  0  0  0  0  0  0  0  0  0  0
    6.8777   -1.1520   22.1626 C   0  0  0  0  0  0  0  0  0  0  0  0
    5.8999   -1.1199   22.6038 H   0  0  0  0  0  0  0  0  0  0  0  0
    5.4484    0.6611   20.1265 C   0  0  0  0  0  0  0  0  0  0  0  0
    5.0179    0.6711   21.1270 H   0  0  0  0  0  0  0  0  0  0  0  0
    4.7974    1.3182   19.0779 C   0  0  0  0  0  0  0  0  0  0  0  0
    3.8624    1.8490   19.2277 H   0  0  0  0  0  0  0  0  0  0  0  0
  1  2  1  0
  2  3  2  0
  3  4  1  0
  4  5  1  0
  4  6  2  0
  6  7  1  0
  7  8  1  0
  8  9  1  0
  8 10  2  0
 10 11  1  0
 11 12  1  0
 12 13  2  0
 13 14  1  0
 14 15  1  0
 14 16  2  0
 16 17  1  0
 16 18  1  0
 18 19  1  0
 19 20  1  0
 19 21  1  0
 19 22  1  0
 18 23  2  0
 23 24  1  0
 11 25  1  0
 25 26  1  0
  6 27  1  0
 27 28  1  0
 27 29  2  0
 29 30  1  0
 29  2  1  0
 25  7  2  0
 23 12  1  0
M  END
>  <cnnaffinity>  (1) 
-4.77348

>  <filename>  (1) 
Cc1ccnc(-n2cc(-c3cccnc3)cn2)c1

$$$$
