
     RDKit          3D

 33 35  0  0  0  0  0  0  0  0999 V2000
    4.9093    1.8536   16.9408 H   0  0  0  0  0  0  0  0  0  0  0  0
    5.3937    1.3428   17.7730 C   0  0  0  0  0  0  0  0  0  0  0  0
    6.5614    0.7425   17.4929 N   0  0  0  0  0  0  0  0  0  0  0  0
    7.1786    0.1192   18.5058 C   0  0  0  0  0  0  0  0  0  0  0  0
    8.1228   -0.3567   18.2441 H   0  0  0  0  0  0  0  0  0  0  0  0
    6.6741    0.0191   19.8285 C   0  0  0  0  0  0  0  0  0  0  0  0
    7.4291   -0.6774   20.9183 C   0  0  0  0  0  0  0  0  0  0  0  0
    8.7203   -0.3647   21.1539 C   0  0  0  0  0  0  0  0  0  0  0  0
    9.2359    0.4227   20.6025 H   0  0  0  0  0  0  0  0  0  0  0  0
    9.4644   -1.0095   22.1321 N   0  0  0  0  0  0  0  0  0  0  0  0
   10.8252   -0.7231   22.3193 C   0  0  0  0  0  0  0  0  0  0  0  0
   11.0981    0.5608   22.4757 N   0  0  0  0  0  0  0  0  0  0  0  0
   12.3821    0.9159   22.6158 C   0  0  0  0  0  0  0  0  0  0  0  0
   12.6349    2.3794   22.8443 C   0  0  0  0  0  0  0  0  0  0  0  0
   11.6841    2.9176   22.9068 H   0  0  0  0  0  0  0  0  0  0  0  0
   13.2006    2.8094   22.0151 H   0  0  0  0  0  0  0  0  0  0  0  0
   13.2340    2.5369   23.7478 H   0  0  0  0  0  0  0  0  0  0  0  0
   13.4313   -0.0098   22.4929 C   0  0  0  0  0  0  0  0  0  0  0  0
   14.4541    0.3371   22.5799 H   0  0  0  0  0  0  0  0  0  0  0  0
   13.1223   -1.3551   22.2599 C   0  0  0  0  0  0  0  0  0  0  0  0
   13.8970   -2.1152   22.1336 H   0  0  0  0  0  0  0  0  0  0  0  0
   11.7820   -1.7351   22.2514 C   0  0  0  0  0  0  0  0  0  0  0  0
   11.4626   -2.7645   22.2118 H   0  0  0  0  0  0  0  0  0  0  0  0
    8.9267   -1.9295   23.0180 C   0  0  0  0  0  0  0  0  0  0  0  0
    9.5434   -2.5209   23.8706 O   0  0  0  0  0  0  0  0  0  0  0  0
    7.6069   -2.1340   22.8405 N   0  0  0  0  0  0  0  0  0  0  0  0
    7.2454   -2.8897   23.3835 H   0  0  0  0  0  0  0  0  0  0  0  0
    6.8257   -1.7394   21.7722 C   0  0  0  0  0  0  0  0  0  0  0  0
    5.7668   -2.3075   21.6256 O   0  0  0  0  0  0  0  0  0  0  0  0
    5.4409    0.6401   20.0820 C   0  0  0  0  0  0  0  0  0  0  0  0
    5.0132    0.6027   21.0845 H   0  0  0  0  0  0  0  0  0  0  0  0
    4.8028    1.3212   19.0386 C   0  0  0  0  0  0  0  0  0  0  0  0
    3.8675    1.8424   19.1933 H   0  0  0  0  0  0  0  0  0  0  0  0
  1  2  1  0
  2  3  2  0
  3  4  1  0
  4  5  1  0
  4  6  2  0
  6  7  1  0
  7  8  2  0
  8  9  1  0
  8 10  1  0
 10 11  1  0
 11 12  2  0
 12 13  1  0
 13 14  1  0
 14 15  1  0
 14 16  1  0
 14 17  1  0
 13 18  2  0
 18 19  1  0
 18 20  1  0
 20 21  1  0
 20 22  2  0
 22 23  1  0
 10 24  1  0
 24 25  2  0
 24 26  1  0
 26 27  1  0
 26 28  1  0
 28 29  2  0
  6 30  1  0
 30 31  1  0
 30 32  2  0
 32 33  1  0
 32  2  1  0
 28  7  1  0
 22 11  1  0
M  END
>  <cnnaffinity>  (1) 
-5.06149

>  <filename>  (1) 
Cc1cccc(-n2cc(-c3cccnc3)c(=O)[nH]c2=O)n1

$$$$
