
     RDKit          3D

 35 37  0  0  0  0  0  0  0  0999 V2000
    1.9338    2.1040   26.3671 C   0  0  0  0  0  0  0  0  0  0  0  0
    3.2456    2.4045   25.6839 C   0  0  0  0  0  0  0  0  0  0  0  0
    3.8305    3.6836   25.7611 C   0  0  0  0  0  0  0  0  0  0  0  0
    5.0029    3.9977   25.2026 N   0  0  0  0  0  0  0  0  0  0  0  0
    5.6476    3.0348   24.5303 C   0  0  0  0  0  0  0  0  0  0  0  0
    5.1723    1.7027   24.3764 C   0  0  0  0  0  0  0  0  0  0  0  0
    5.8460    0.7134   23.6748 N   0  0  0  0  0  0  0  0  0  0  0  0
    7.1032    0.9106   22.9730 C   0  0  0  0  0  0  0  0  0  0  0  0
    7.5650   -0.3399   22.2925 C   0  0  0  0  0  0  0  0  0  0  0  0
    8.3229   -1.3382   22.8566 C   0  0  0  0  0  0  0  0  0  0  0  0
    8.5479   -2.2413   21.8780 N   0  0  0  0  0  0  0  0  0  0  0  0
    8.0114   -1.8869   20.7004 N   0  0  0  0  0  0  0  0  0  0  0  0
    7.3910   -0.7344   20.9417 C   0  0  0  0  0  0  0  0  0  0  0  0
    6.6559   -0.0066   19.9007 C   0  0  0  0  0  0  0  0  0  0  0  0
    5.4413    0.6486   20.1581 C   0  0  0  0  0  0  0  0  0  0  0  0
    4.8056    1.3077   19.1093 C   0  0  0  0  0  0  0  0  0  0  0  0
    5.4045    1.2909   17.8454 C   0  0  0  0  0  0  0  0  0  0  0  0
    6.5703    0.6790   17.5863 N   0  0  0  0  0  0  0  0  0  0  0  0
    7.1732    0.0490   18.5996 C   0  0  0  0  0  0  0  0  0  0  0  0
    8.1201   -0.4338   18.3713 H   0  0  0  0  0  0  0  0  0  0  0  0
    4.9204    1.7778   17.0015 H   0  0  0  0  0  0  0  0  0  0  0  0
    3.8758    1.8415   19.2613 H   0  0  0  0  0  0  0  0  0  0  0  0
    5.0022    0.6357   21.1566 H   0  0  0  0  0  0  0  0  0  0  0  0
    9.0741   -3.0996   21.9369 H   0  0  0  0  0  0  0  0  0  0  0  0
    8.7047   -1.4527   23.8648 H   0  0  0  0  0  0  0  0  0  0  0  0
    7.8779    1.2414   23.6823 H   0  0  0  0  0  0  0  0  0  0  0  0
    7.0041    1.7309   22.2463 H   0  0  0  0  0  0  0  0  0  0  0  0
    5.4402   -0.2121   23.6569 H   0  0  0  0  0  0  0  0  0  0  0  0
    3.9356    1.4078   24.9858 C   0  0  0  0  0  0  0  0  0  0  0  0
    3.5266    0.3982   24.9184 H   0  0  0  0  0  0  0  0  0  0  0  0
    6.5979    3.3195   24.0869 H   0  0  0  0  0  0  0  0  0  0  0  0
    3.3239    4.4794   26.3054 H   0  0  0  0  0  0  0  0  0  0  0  0
    1.3780    1.3286   25.8322 H   0  0  0  0  0  0  0  0  0  0  0  0
    1.2891    2.9870   26.4358 H   0  0  0  0  0  0  0  0  0  0  0  0
    2.0970    1.7448   27.3896 H   0  0  0  0  0  0  0  0  0  0  0  0
  1  2  1  0
  2  3  2  0
  3  4  1  0
  4  5  2  0
  5  6  1  0
  6  7  1  0
  7  8  1  0
  8  9  1  0
  9 10  2  0
 10 11  1  0
 11 12  1  0
 12 13  2  0
 13 14  1  0
 14 15  2  0
 15 16  1  0
 16 17  2  0
 17 18  1  0
 18 19  2  0
 19 20  1  0
 17 21  1  0
 16 22  1  0
 15 23  1  0
 11 24  1  0
 10 25  1  0
  8 26  1  0
  8 27  1  0
  7 28  1  0
  6 29  2  0
 29 30  1  0
  5 31  1  0
  3 32  1  0
  1 33  1  0
  1 34  1  0
  1 35  1  0
 29  2  1  0
 13  9  1  0
 19 14  1  0
M  END
>  <cnnaffinity>  (1) 
-4.76427

>  <filename>  (1) 
Cc1cncc(NCc2c[nH]nc2-c2cccnc2)c1

$$$$
