
     RDKit          3D

 32 35  0  0  0  0  0  0  0  0999 V2000
    4.9334    1.7733   17.0015 H   0  0  0  0  0  0  0  0  0  0  0  0
    5.4100    1.2846   17.8469 C   0  0  0  0  0  0  0  0  0  0  0  0
    6.5744    0.6644   17.5978 N   0  0  0  0  0  0  0  0  0  0  0  0
    7.1777    0.0517   18.6217 C   0  0  0  0  0  0  0  0  0  0  0  0
    8.1247   -0.4319   18.3871 H   0  0  0  0  0  0  0  0  0  0  0  0
    6.6430    0.0160   19.9203 C   0  0  0  0  0  0  0  0  0  0  0  0
    7.3609   -0.6889   20.9815 C   0  0  0  0  0  0  0  0  0  0  0  0
    8.5443   -1.3256   20.7654 N   0  0  0  0  0  0  0  0  0  0  0  0
    8.7979   -1.8217   21.9544 C   0  0  0  0  0  0  0  0  0  0  0  0
    9.9857   -2.8249   22.7307 S   0  0  0  0  0  0  0  0  0  0  0  0
    9.0667   -2.7897   24.2017 C   0  0  0  0  0  0  0  0  0  0  0  0
    9.4253   -3.3431   25.0593 H   0  0  0  0  0  0  0  0  0  0  0  0
    7.9386   -2.0459   24.1256 C   0  0  0  0  0  0  0  0  0  0  0  0
    6.9525   -1.8169   25.2192 C   0  0  0  0  0  0  0  0  0  0  0  0
    6.9768   -2.7250   26.2153 N   0  0  0  0  0  0  0  0  0  0  0  0
    6.1109   -2.5782   27.2200 C   0  0  0  0  0  0  0  0  0  0  0  0
    6.1470   -3.3395   27.9943 H   0  0  0  0  0  0  0  0  0  0  0  0
    5.2040   -1.5251   27.3147 C   0  0  0  0  0  0  0  0  0  0  0  0
    4.5371   -1.4500   28.1647 H   0  0  0  0  0  0  0  0  0  0  0  0
    5.1864   -0.5626   26.3055 C   0  0  0  0  0  0  0  0  0  0  0  0
    4.2551    0.6112   26.3651 C   0  0  0  0  0  0  0  0  0  0  0  0
    4.7455    1.4495   26.8691 H   0  0  0  0  0  0  0  0  0  0  0  0
    3.3442    0.3711   26.9201 H   0  0  0  0  0  0  0  0  0  0  0  0
    3.9731    0.9409   25.3615 H   0  0  0  0  0  0  0  0  0  0  0  0
    6.0867   -0.7137   25.2494 C   0  0  0  0  0  0  0  0  0  0  0  0
    6.1238   -0.0002   24.4389 H   0  0  0  0  0  0  0  0  0  0  0  0
    7.8309   -1.4963   22.8445 N   0  0  0  0  0  0  0  0  0  0  0  0
    6.8843   -0.7589   22.2235 N   0  0  0  0  0  0  0  0  0  0  0  0
    5.4216    0.6598   20.1709 C   0  0  0  0  0  0  0  0  0  0  0  0
    4.9948    0.6370   21.1783 H   0  0  0  0  0  0  0  0  0  0  0  0
    4.8043    1.3097   19.1079 C   0  0  0  0  0  0  0  0  0  0  0  0
    3.8741    1.8429   19.2539 H   0  0  0  0  0  0  0  0  0  0  0  0
  1  2  1  0
  2  3  2  0
  3  4  1  0
  4  5  1  0
  4  6  2  0
  6  7  1  0
  7  8  1  0
  8  9  2  0
  9 10  1  0
 10 11  1  0
 11 12  1  0
 11 13  2  0
 13 14  1  0
 14 15  2  0
 15 16  1  0
 16 17  1  0
 16 18  2  0
 18 19  1  0
 18 20  1  0
 20 21  1  0
 21 22  1  0
 21 23  1  0
 21 24  1  0
 20 25  2  0
 25 26  1  0
 13 27  1  0
 27 28  1  0
  6 29  1  0
 29 30  1  0
 29 31  2  0
 31 32  1  0
 31  2  1  0
 28  7  2  0
 27  9  1  0
 25 14  1  0
M  END
>  <cnnaffinity>  (1) 
-5.48383

>  <filename>  (1) 
Cc1ccnc(-c2csc3nc(-c4cccnc4)nn23)c1

$$$$
