
     RDKit          3D

 37 39  0  0  0  0  0  0  0  0999 V2000
    9.6866   -4.6630   26.9904 C   0  0  0  0  0  0  0  0  0  0  0  0
    9.3627   -3.4471   26.1555 C   0  0  0  0  0  0  0  0  0  0  0  0
    9.2946   -2.1419   26.6796 C   0  0  0  0  0  0  0  0  0  0  0  0
    9.2913   -1.0468   25.8194 C   0  0  0  0  0  0  0  0  0  0  0  0
    9.2487   -1.1485   24.4876 N   0  0  0  0  0  0  0  0  0  0  0  0
    9.1093   -2.3744   23.9661 C   0  0  0  0  0  0  0  0  0  0  0  0
    8.8896   -2.4707   22.5827 N   0  0  0  0  0  0  0  0  0  0  0  0
    7.5183   -2.8005   22.1353 C   0  0  0  0  0  0  0  0  0  0  0  0
    6.6824   -1.5356   21.8227 C   0  0  0  0  0  0  0  0  0  0  0  0
    7.3773   -0.7454   20.7996 N   0  0  0  0  0  0  0  0  0  0  0  0
    6.6742   -0.0083   19.8145 C   0  0  0  0  0  0  0  0  0  0  0  0
    5.4469    0.6290   20.0745 C   0  0  0  0  0  0  0  0  0  0  0  0
    4.8019    1.3198   19.0398 C   0  0  0  0  0  0  0  0  0  0  0  0
    5.3860    1.3576   17.7686 C   0  0  0  0  0  0  0  0  0  0  0  0
    6.5513    0.7519   17.4862 N   0  0  0  0  0  0  0  0  0  0  0  0
    7.1664    0.1005   18.4855 C   0  0  0  0  0  0  0  0  0  0  0  0
    8.1055   -0.3901   18.2375 H   0  0  0  0  0  0  0  0  0  0  0  0
    4.9081    1.8924   16.9483 H   0  0  0  0  0  0  0  0  0  0  0  0
    3.8631    1.8334   19.2118 H   0  0  0  0  0  0  0  0  0  0  0  0
    5.0332    0.5829   21.0812 H   0  0  0  0  0  0  0  0  0  0  0  0
    8.6791   -0.2882   21.3152 C   0  0  0  0  0  0  0  0  0  0  0  0
    9.5512   -1.5193   21.6679 C   0  0  0  0  0  0  0  0  0  0  0  0
   10.5054   -1.1864   22.0967 H   0  0  0  0  0  0  0  0  0  0  0  0
    9.7557   -2.0584   20.7286 H   0  0  0  0  0  0  0  0  0  0  0  0
    8.5545    0.3345   22.2199 H   0  0  0  0  0  0  0  0  0  0  0  0
    9.1828    0.3218   20.5560 H   0  0  0  0  0  0  0  0  0  0  0  0
    6.5586   -0.9606   22.7606 H   0  0  0  0  0  0  0  0  0  0  0  0
    5.6862   -1.8224   21.4681 H   0  0  0  0  0  0  0  0  0  0  0  0
    7.5891   -3.3980   21.2130 H   0  0  0  0  0  0  0  0  0  0  0  0
    7.0071   -3.4059   22.8943 H   0  0  0  0  0  0  0  0  0  0  0  0
    9.1727   -3.5475   24.7718 C   0  0  0  0  0  0  0  0  0  0  0  0
    8.9961   -5.1225   24.0535 Cl  0  0  0  0  0  0  0  0  0  0  0  0
    9.3354   -0.0444   26.2432 H   0  0  0  0  0  0  0  0  0  0  0  0
    9.2756   -1.9465   27.7380 H   0  0  0  0  0  0  0  0  0  0  0  0
   10.5568   -5.1787   26.5669 H   0  0  0  0  0  0  0  0  0  0  0  0
    9.9263   -4.4229   28.0284 H   0  0  0  0  0  0  0  0  0  0  0  0
    8.8603   -5.3785   26.9757 H   0  0  0  0  0  0  0  0  0  0  0  0
  1  2  1  0
  2  3  2  0
  3  4  1  0
  4  5  2  0
  5  6  1  0
  6  7  1  0
  7  8  1  0
  8  9  1  0
  9 10  1  0
 10 11  1  0
 11 12  2  0
 12 13  1  0
 13 14  2  0
 14 15  1  0
 15 16  2  0
 16 17  1  0
 14 18  1  0
 13 19  1  0
 12 20  1  0
 10 21  1  0
 21 22  1  0
 22 23  1  0
 22 24  1  0
 21 25  1  0
 21 26  1  0
  9 27  1  0
  9 28  1  0
  8 29  1  0
  8 30  1  0
  6 31  2  0
 31 32  1  0
  4 33  1  0
  3 34  1  0
  1 35  1  0
  1 36  1  0
  1 37  1  0
 31  2  1  0
 22  7  1  0
 16 11  1  0
M  END
>  <cnnaffinity>  (1) 
-5.43825

>  <filename>  (1) 
Cc1ccnc(N2CCN(c3cccnc3)CC2)c1Cl

$$$$
