
     RDKit          3D

 34 36  0  0  0  0  0  0  0  0999 V2000
    4.9698    1.8689   16.9539 H   0  0  0  0  0  0  0  0  0  0  0  0
    5.4240    1.3380   17.7866 C   0  0  0  0  0  0  0  0  0  0  0  0
    6.5851    0.7141   17.5258 N   0  0  0  0  0  0  0  0  0  0  0  0
    7.1746    0.0628   18.5360 C   0  0  0  0  0  0  0  0  0  0  0  0
    8.1199   -0.4310   18.3120 H   0  0  0  0  0  0  0  0  0  0  0  0
    6.6299   -0.0285   19.8327 C   0  0  0  0  0  0  0  0  0  0  0  0
    7.3250   -0.7209   20.8926 N   0  0  0  0  0  0  0  0  0  0  0  0
    8.5830   -0.2653   21.2335 C   0  0  0  0  0  0  0  0  0  0  0  0
    8.9364    0.5900   20.6618 H   0  0  0  0  0  0  0  0  0  0  0  0
    9.3526   -0.8367   22.2047 C   0  0  0  0  0  0  0  0  0  0  0  0
   10.7413   -0.3407   22.4552 C   0  0  0  0  0  0  0  0  0  0  0  0
   11.8372   -1.2212   22.4025 C   0  0  0  0  0  0  0  0  0  0  0  0
   11.6582   -2.2573   22.1252 H   0  0  0  0  0  0  0  0  0  0  0  0
   13.1375   -0.7557   22.6250 C   0  0  0  0  0  0  0  0  0  0  0  0
   13.9794   -1.4440   22.6518 H   0  0  0  0  0  0  0  0  0  0  0  0
   13.3571    0.6013   22.8572 C   0  0  0  0  0  0  0  0  0  0  0  0
   14.3818    0.9420   23.0108 H   0  0  0  0  0  0  0  0  0  0  0  0
   12.2906    1.5116   22.8820 C   0  0  0  0  0  0  0  0  0  0  0  0
   12.5386    2.9815   23.1167 C   0  0  0  0  0  0  0  0  0  0  0  0
   11.9859    3.6055   22.4120 H   0  0  0  0  0  0  0  0  0  0  0  0
   12.2273    3.2836   24.1210 H   0  0  0  0  0  0  0  0  0  0  0  0
   13.5892    3.2579   23.0005 H   0  0  0  0  0  0  0  0  0  0  0  0
   10.9848    1.0222   22.6957 C   0  0  0  0  0  0  0  0  0  0  0  0
   10.1393    1.7113   22.7376 H   0  0  0  0  0  0  0  0  0  0  0  0
    8.7844   -1.9273   22.9444 C   0  0  0  0  0  0  0  0  0  0  0  0
    9.3647   -2.3870   23.7463 H   0  0  0  0  0  0  0  0  0  0  0  0
    7.5297   -2.3756   22.6647 C   0  0  0  0  0  0  0  0  0  0  0  0
    7.0484   -3.1886   23.1908 H   0  0  0  0  0  0  0  0  0  0  0  0
    6.7106   -1.8229   21.5929 C   0  0  0  0  0  0  0  0  0  0  0  0
    5.6155   -2.2625   21.2868 O   0  0  0  0  0  0  0  0  0  0  0  0
    5.4233    0.6302   20.0900 C   0  0  0  0  0  0  0  0  0  0  0  0
    4.9958    0.5866   21.0908 H   0  0  0  0  0  0  0  0  0  0  0  0
    4.8102    1.3269   19.0436 C   0  0  0  0  0  0  0  0  0  0  0  0
    3.8800    1.8659   19.1935 H   0  0  0  0  0  0  0  0  0  0  0  0
  1  2  1  0
  2  3  2  0
  3  4  1  0
  4  5  1  0
  4  6  2  0
  6  7  1  0
  7  8  1  0
  8  9  1  0
  8 10  2  0
 10 11  1  0
 11 12  2  0
 12 13  1  0
 12 14  1  0
 14 15  1  0
 14 16  2  0
 16 17  1  0
 16 18  1  0
 18 19  1  0
 19 20  1  0
 19 21  1  0
 19 22  1  0
 18 23  2  0
 23 24  1  0
 10 25  1  0
 25 26  1  0
 25 27  2  0
 27 28  1  0
 27 29  1  0
 29 30  2  0
  6 31  1  0
 31 32  1  0
 31 33  2  0
 33 34  1  0
 33  2  1  0
 29  7  1  0
 23 11  1  0
M  END
>  <cnnaffinity>  (1) 
-4.99427

>  <filename>  (1) 
Cc1cccc(-c2ccc(=O)n(-c3cccnc3)c2)c1

$$$$
