
     RDKit          3D

 39 41  0  0  0  0  0  0  0  0999 V2000
    5.1171    2.1446   16.8065 H   0  0  0  0  0  0  0  0  0  0  0  0
    5.4114    1.4726   17.6142 C   0  0  0  0  0  0  0  0  0  0  0  0
    6.5079    0.7321   17.3908 N   0  0  0  0  0  0  0  0  0  0  0  0
    6.9204   -0.0901   18.3656 C   0  0  0  0  0  0  0  0  0  0  0  0
    7.8285   -0.6659   18.1855 H   0  0  0  0  0  0  0  0  0  0  0  0
    6.2419   -0.2393   19.5886 C   0  0  0  0  0  0  0  0  0  0  0  0
    6.7898   -1.0335   20.6638 N   0  0  0  0  0  0  0  0  0  0  0  0
    7.4661   -0.3151   21.6344 C   0  0  0  0  0  0  0  0  0  0  0  0
    7.3399    0.7607   21.5970 H   0  0  0  0  0  0  0  0  0  0  0  0
    8.2611   -0.9037   22.5796 C   0  0  0  0  0  0  0  0  0  0  0  0
    8.9799   -0.1745   23.5665 N   0  0  0  0  0  0  0  0  0  0  0  0
    9.1918    1.2580   23.3015 C   0  0  0  0  0  0  0  0  0  0  0  0
    9.5487    1.3719   22.2737 H   0  0  0  0  0  0  0  0  0  0  0  0
    8.2502    1.8386   23.3956 H   0  0  0  0  0  0  0  0  0  0  0  0
   10.2300    1.8259   24.2678 C   0  0  0  0  0  0  0  0  0  0  0  0
   10.4175    2.8825   24.0347 H   0  0  0  0  0  0  0  0  0  0  0  0
   11.1738    1.2901   24.1065 H   0  0  0  0  0  0  0  0  0  0  0  0
    9.8258    1.6396   25.7438 C   0  0  0  0  0  0  0  0  0  0  0  0
   10.7231    1.8329   26.3356 H   0  0  0  0  0  0  0  0  0  0  0  0
    8.7601    2.6265   26.2489 C   0  0  0  0  0  0  0  0  0  0  0  0
    9.1304    3.6592   26.1975 H   0  0  0  0  0  0  0  0  0  0  0  0
    7.8196    2.5814   25.6861 H   0  0  0  0  0  0  0  0  0  0  0  0
    8.5215    2.4217   27.3014 H   0  0  0  0  0  0  0  0  0  0  0  0
    9.4621    0.1560   25.9662 C   0  0  0  0  0  0  0  0  0  0  0  0
    9.0694   -0.0045   26.9804 H   0  0  0  0  0  0  0  0  0  0  0  0
   10.3850   -0.4323   25.8804 H   0  0  0  0  0  0  0  0  0  0  0  0
    8.4638   -0.3702   24.9341 C   0  0  0  0  0  0  0  0  0  0  0  0
    7.4802    0.1281   25.0586 H   0  0  0  0  0  0  0  0  0  0  0  0
    8.3029   -1.4410   25.0933 H   0  0  0  0  0  0  0  0  0  0  0  0
    8.3474   -2.3417   22.5590 C   0  0  0  0  0  0  0  0  0  0  0  0
    9.0339   -2.8026   23.2735 H   0  0  0  0  0  0  0  0  0  0  0  0
    7.6226   -3.0798   21.6679 C   0  0  0  0  0  0  0  0  0  0  0  0
    7.6098   -4.1608   21.6650 H   0  0  0  0  0  0  0  0  0  0  0  0
    6.7203   -2.4749   20.6827 C   0  0  0  0  0  0  0  0  0  0  0  0
    5.9797   -3.1122   19.9558 O   0  0  0  0  0  0  0  0  0  0  0  0
    5.0966    0.5310   19.8076 C   0  0  0  0  0  0  0  0  0  0  0  0
    4.5696    0.4434   20.7572 H   0  0  0  0  0  0  0  0  0  0  0  0
    4.6768    1.4108   18.8016 C   0  0  0  0  0  0  0  0  0  0  0  0
    3.8374    2.0799   18.9414 H   0  0  0  0  0  0  0  0  0  0  0  0
  1  2  1  0
  2  3  2  0
  3  4  1  0
  4  5  1  0
  4  6  2  0
  6  7  1  0
  7  8  1  0
  8  9  1  0
  8 10  2  0
 10 11  1  0
 11 12  1  0
 12 13  1  0
 12 14  1  0
 12 15  1  0
 15 16  1  0
 15 17  1  0
 15 18  1  0
 18 19  1  0
 18 20  1  0
 20 21  1  0
 20 22  1  0
 20 23  1  0
 18 24  1  0
 24 25  1  0
 24 26  1  0
 24 27  1  0
 27 28  1  0
 27 29  1  0
 10 30  1  0
 30 31  1  0
 30 32  2  0
 32 33  1  0
 32 34  1  0
 34 35  2  0
  6 36  1  0
 36 37  1  0
 36 38  2  0
 38 39  1  0
 38  2  1  0
 34  7  1  0
 27 11  1  0
M  END
>  <cnnaffinity>  (1) 
-5.07697

>  <filename>  (1) 
CC1CCN(c2ccc(=O)n(-c3cccnc3)c2)CC1

$$$$
