
     RDKit          3D

 31 33  0  0  0  0  0  0  0  0999 V2000
    4.9321    1.8054   16.9753 H   0  0  0  0  0  0  0  0  0  0  0  0
    5.3973    1.3009   17.8207 C   0  0  0  0  0  0  0  0  0  0  0  0
    6.5575    0.6711   17.5718 N   0  0  0  0  0  0  0  0  0  0  0  0
    7.1568    0.0524   18.5925 C   0  0  0  0  0  0  0  0  0  0  0  0
    8.1003   -0.4379   18.3552 H   0  0  0  0  0  0  0  0  0  0  0  0
    6.6464    0.0327   19.8999 C   0  0  0  0  0  0  0  0  0  0  0  0
    7.3984   -0.6860   20.9331 C   0  0  0  0  0  0  0  0  0  0  0  0
    8.0479   -1.7896   20.7051 N   0  0  0  0  0  0  0  0  0  0  0  0
    8.5535   -2.1250   21.9239 N   0  0  0  0  0  0  0  0  0  0  0  0
    9.1195   -2.9409   22.0915 H   0  0  0  0  0  0  0  0  0  0  0  0
    8.2703   -1.2561   22.9102 C   0  0  0  0  0  0  0  0  0  0  0  0
    8.7914   -1.3540   24.4854 S   0  0  0  0  0  0  0  0  0  0  0  0
    7.5003   -0.3079   22.2616 N   0  0  0  0  0  0  0  0  0  0  0  0
    7.0525    0.9177   22.8661 C   0  0  0  0  0  0  0  0  0  0  0  0
    6.0829    0.8266   23.8658 C   0  0  0  0  0  0  0  0  0  0  0  0
    5.7539   -0.1677   24.1616 H   0  0  0  0  0  0  0  0  0  0  0  0
    5.5776    1.9897   24.4528 C   0  0  0  0  0  0  0  0  0  0  0  0
    4.8177    1.9171   25.2253 H   0  0  0  0  0  0  0  0  0  0  0  0
    6.0701    3.2351   24.0490 C   0  0  0  0  0  0  0  0  0  0  0  0
    5.6959    4.1467   24.5060 H   0  0  0  0  0  0  0  0  0  0  0  0
    7.0620    3.3075   23.0658 C   0  0  0  0  0  0  0  0  0  0  0  0
    7.4615    4.2702   22.7573 H   0  0  0  0  0  0  0  0  0  0  0  0
    7.5855    2.1584   22.4542 C   0  0  0  0  0  0  0  0  0  0  0  0
    8.6681    2.2795   21.4050 C   0  0  0  0  0  0  0  0  0  0  0  0
    9.3463    1.4207   21.4161 H   0  0  0  0  0  0  0  0  0  0  0  0
    9.2516    3.1888   21.5685 H   0  0  0  0  0  0  0  0  0  0  0  0
    8.2315    2.3299   20.4031 H   0  0  0  0  0  0  0  0  0  0  0  0
    5.4255    0.6771   20.1429 C   0  0  0  0  0  0  0  0  0  0  0  0
    4.9927    0.6620   21.1446 H   0  0  0  0  0  0  0  0  0  0  0  0
    4.7927    1.3215   19.0829 C   0  0  0  0  0  0  0  0  0  0  0  0
    3.8571    1.8515   19.2255 H   0  0  0  0  0  0  0  0  0  0  0  0
  1  2  1  0
  2  3  2  0
  3  4  1  0
  4  5  1  0
  4  6  2  0
  6  7  1  0
  7  8  2  0
  8  9  1  0
  9 10  1  0
  9 11  1  0
 11 12  2  0
 11 13  1  0
 13 14  1  0
 14 15  2  0
 15 16  1  0
 15 17  1  0
 17 18  1  0
 17 19  2  0
 19 20  1  0
 19 21  1  0
 21 22  1  0
 21 23  2  0
 23 24  1  0
 24 25  1  0
 24 26  1  0
 24 27  1  0
  6 28  1  0
 28 29  1  0
 28 30  2  0
 30 31  1  0
 30  2  1  0
 13  7  1  0
 23 14  1  0
M  END
>  <cnnaffinity>  (1) 
-5.03524

>  <filename>  (1) 
Cc1ccccc1-n1c(-c2cccnc2)n[nH]c1=S

$$$$
