
     RDKit          3D

 28 30  0  0  0  0  0  0  0  0999 V2000
    4.9736    1.7818   16.9841 H   0  0  0  0  0  0  0  0  0  0  0  0
    5.4109    1.2828   17.8463 C   0  0  0  0  0  0  0  0  0  0  0  0
    6.5796    0.6578   17.6267 N   0  0  0  0  0  0  0  0  0  0  0  0
    7.1608    0.0546   18.6657 C   0  0  0  0  0  0  0  0  0  0  0  0
    8.0976   -0.4616   18.4573 H   0  0  0  0  0  0  0  0  0  0  0  0
    6.6316    0.0587   19.9587 C   0  0  0  0  0  0  0  0  0  0  0  0
    7.3736   -0.6902   20.9799 C   0  0  0  0  0  0  0  0  0  0  0  0
    7.9211   -1.8094   20.7316 N   0  0  0  0  0  0  0  0  0  0  0  0
    8.4127   -2.3784   21.9853 C   0  0  0  0  0  0  0  0  0  0  0  0
    9.4875   -2.5731   21.8805 H   0  0  0  0  0  0  0  0  0  0  0  0
    7.9006   -3.3324   22.1677 H   0  0  0  0  0  0  0  0  0  0  0  0
    8.1068   -1.3432   23.0999 C   0  0  0  0  0  0  0  0  0  0  0  0
    9.0056   -1.0007   23.6294 H   0  0  0  0  0  0  0  0  0  0  0  0
    7.4122   -1.7081   23.8675 H   0  0  0  0  0  0  0  0  0  0  0  0
    7.4824   -0.2703   22.3058 N   0  0  0  0  0  0  0  0  0  0  0  0
    7.4092    1.0333   22.6768 C   0  0  0  0  0  0  0  0  0  0  0  0
    7.3067    2.0877   21.9361 N   0  0  0  0  0  0  0  0  0  0  0  0
    7.2440    3.1651   22.8221 N   0  0  0  0  0  0  0  0  0  0  0  0
    7.3440    2.6697   24.0042 C   0  0  0  0  0  0  0  0  0  0  0  0
    7.3921    3.4226   25.2807 C   0  0  0  0  0  0  0  0  0  0  0  0
    6.7518    4.2982   25.1707 H   0  0  0  0  0  0  0  0  0  0  0  0
    8.4116    3.7802   25.4619 H   0  0  0  0  0  0  0  0  0  0  0  0
    7.0695    2.8256   26.1349 H   0  0  0  0  0  0  0  0  0  0  0  0
    7.4575    1.3133   24.0016 O   0  0  0  0  0  0  0  0  0  0  0  0
    5.3967    0.6916   20.1758 C   0  0  0  0  0  0  0  0  0  0  0  0
    4.9555    0.7316   21.1736 H   0  0  0  0  0  0  0  0  0  0  0  0
    4.7770    1.3135   19.0933 C   0  0  0  0  0  0  0  0  0  0  0  0
    3.8378    1.8468   19.2095 H   0  0  0  0  0  0  0  0  0  0  0  0
  1  2  1  0
  2  3  2  0
  3  4  1  0
  4  5  1  0
  4  6  2  0
  6  7  1  0
  7  8  2  0
  8  9  1  0
  9 10  1  0
  9 11  1  0
  9 12  1  0
 12 13  1  0
 12 14  1  0
 12 15  1  0
 15 16  1  0
 16 17  2  0
 17 18  1  0
 18 19  2  0
 19 20  1  0
 20 21  1  0
 20 22  1  0
 20 23  1  0
 19 24  1  0
  6 25  1  0
 25 26  1  0
 25 27  2  0
 27 28  1  0
 27  2  1  0
 15  7  1  0
 24 16  1  0
M  END
>  <cnnaffinity>  (1) 
-4.6298

>  <filename>  (1) 
Cc1nnc(N2CCN=C2c2cccnc2)o1

$$$$
