
     RDKit          3D

 31 34  0  0  0  0  0  0  0  0999 V2000
    4.9484    1.8053   16.9757 H   0  0  0  0  0  0  0  0  0  0  0  0
    5.3985    1.2900   17.8232 C   0  0  0  0  0  0  0  0  0  0  0  0
    6.5549    0.6578   17.5747 N   0  0  0  0  0  0  0  0  0  0  0  0
    7.1526    0.0288   18.5890 C   0  0  0  0  0  0  0  0  0  0  0  0
    8.1005   -0.4529   18.3566 H   0  0  0  0  0  0  0  0  0  0  0  0
    6.6404    0.0056   19.8962 C   0  0  0  0  0  0  0  0  0  0  0  0
    7.3940   -0.6561   20.9563 C   0  0  0  0  0  0  0  0  0  0  0  0
    8.1567   -1.7783   20.7405 N   0  0  0  0  0  0  0  0  0  0  0  0
    8.5812   -2.0987   21.9293 C   0  0  0  0  0  0  0  0  0  0  0  0
    9.6575   -3.2868   22.5826 S   0  0  0  0  0  0  0  0  0  0  0  0
    9.6062   -2.5322   24.1560 C   0  0  0  0  0  0  0  0  0  0  0  0
   10.2265   -2.9614   24.9328 H   0  0  0  0  0  0  0  0  0  0  0  0
    8.7820   -1.4723   24.1771 C   0  0  0  0  0  0  0  0  0  0  0  0
    8.5531   -0.7900   24.9896 H   0  0  0  0  0  0  0  0  0  0  0  0
    8.1796   -1.2560   22.9333 N   0  0  0  0  0  0  0  0  0  0  0  0
    7.4319   -0.2934   22.2998 C   0  0  0  0  0  0  0  0  0  0  0  0
    7.0128    0.8518   22.9538 N   0  0  0  0  0  0  0  0  0  0  0  0
    6.2460    0.9747   24.1015 C   0  0  0  0  0  0  0  0  0  0  0  0
    5.7434   -0.1738   24.9203 C   0  0  0  0  0  0  0  0  0  0  0  0
    6.3500   -0.3306   25.8186 H   0  0  0  0  0  0  0  0  0  0  0  0
    5.7460   -1.1080   24.3558 H   0  0  0  0  0  0  0  0  0  0  0  0
    4.7312    0.0520   25.2662 H   0  0  0  0  0  0  0  0  0  0  0  0
    6.0035    2.2317   24.3559 N   0  0  0  0  0  0  0  0  0  0  0  0
    6.6260    2.9692   23.3712 C   0  0  0  0  0  0  0  0  0  0  0  0
    6.5937    4.0507   23.4073 H   0  0  0  0  0  0  0  0  0  0  0  0
    7.2399    2.1364   22.4842 C   0  0  0  0  0  0  0  0  0  0  0  0
    7.7825    2.2778   21.5653 H   0  0  0  0  0  0  0  0  0  0  0  0
    5.4209    0.6624   20.1422 C   0  0  0  0  0  0  0  0  0  0  0  0
    5.0030    0.6878   21.1512 H   0  0  0  0  0  0  0  0  0  0  0  0
    4.7911    1.3100   19.0842 C   0  0  0  0  0  0  0  0  0  0  0  0
    3.8612    1.8496   19.2201 H   0  0  0  0  0  0  0  0  0  0  0  0
  1  2  1  0
  2  3  2  0
  3  4  1  0
  4  5  1  0
  4  6  2  0
  6  7  1  0
  7  8  1  0
  8  9  2  0
  9 10  1  0
 10 11  1  0
 11 12  1  0
 11 13  2  0
 13 14  1  0
 13 15  1  0
 15 16  1  0
 16 17  1  0
 17 18  1  0
 18 19  1  0
 19 20  1  0
 19 21  1  0
 19 22  1  0
 18 23  2  0
 23 24  1  0
 24 25  1  0
 24 26  2  0
 26 27  1  0
  6 28  1  0
 28 29  1  0
 28 30  2  0
 30 31  1  0
 30  2  1  0
 16  7  2  0
 26 17  1  0
 15  9  1  0
M  END
>  <cnnaffinity>  (1) 
-5.38342

>  <filename>  (1) 
Cc1nccn1-c1c(-c2cccnc2)nc2sccn12

$$$$
