
     RDKit          3D

 28 30  0  0  0  0  0  0  0  0999 V2000
    4.9079    1.7771   17.0009 H   0  0  0  0  0  0  0  0  0  0  0  0
    5.3976    1.2938   17.8425 C   0  0  0  0  0  0  0  0  0  0  0  0
    6.5625    0.6773   17.5789 N   0  0  0  0  0  0  0  0  0  0  0  0
    7.1792    0.0583   18.5926 C   0  0  0  0  0  0  0  0  0  0  0  0
    8.1289   -0.4295   18.3828 H   0  0  0  0  0  0  0  0  0  0  0  0
    6.6661    0.0014   19.9082 C   0  0  0  0  0  0  0  0  0  0  0  0
    7.3591   -0.6851   20.9491 N   0  0  0  0  0  0  0  0  0  0  0  0
    6.7717   -1.4487   21.9478 C   0  0  0  0  0  0  0  0  0  0  0  0
    5.6993   -1.5833   21.9847 H   0  0  0  0  0  0  0  0  0  0  0  0
    7.7446   -1.9386   22.7544 C   0  0  0  0  0  0  0  0  0  0  0  0
    7.6121   -2.7837   23.9316 C   0  0  0  0  0  0  0  0  0  0  0  0
    8.7216   -3.2030   24.6492 N   0  0  0  0  0  0  0  0  0  0  0  0
    8.3583   -3.9483   25.6413 C   0  0  0  0  0  0  0  0  0  0  0  0
    9.3141   -4.6040   26.5860 C   0  0  0  0  0  0  0  0  0  0  0  0
   10.2360   -4.0237   26.6356 H   0  0  0  0  0  0  0  0  0  0  0  0
    9.5645   -5.6058   26.2178 H   0  0  0  0  0  0  0  0  0  0  0  0
    8.8906   -4.7026   27.5872 H   0  0  0  0  0  0  0  0  0  0  0  0
    6.6348   -4.1945   25.7757 S   0  0  0  0  0  0  0  0  0  0  0  0
    6.4056   -3.2205   24.3903 C   0  0  0  0  0  0  0  0  0  0  0  0
    5.4355   -2.9987   23.9674 H   0  0  0  0  0  0  0  0  0  0  0  0
    8.9507   -1.4632   22.2316 N   0  0  0  0  0  0  0  0  0  0  0  0
    9.8733   -1.6265   22.5945 H   0  0  0  0  0  0  0  0  0  0  0  0
    8.7584   -0.6750   21.1307 C   0  0  0  0  0  0  0  0  0  0  0  0
    9.5970   -0.1047   20.4657 O   0  0  0  0  0  0  0  0  0  0  0  0
    5.4470    0.6444   20.1625 C   0  0  0  0  0  0  0  0  0  0  0  0
    5.0149    0.6307   21.1633 H   0  0  0  0  0  0  0  0  0  0  0  0
    4.8085    1.3107   19.1112 C   0  0  0  0  0  0  0  0  0  0  0  0
    3.8741    1.8431   19.2673 H   0  0  0  0  0  0  0  0  0  0  0  0
  1  2  1  0
  2  3  2  0
  3  4  1  0
  4  5  1  0
  4  6  2  0
  6  7  1  0
  7  8  1  0
  8  9  1  0
  8 10  2  0
 10 11  1  0
 11 12  1  0
 12 13  2  0
 13 14  1  0
 14 15  1  0
 14 16  1  0
 14 17  1  0
 13 18  1  0
 18 19  1  0
 19 20  1  0
 10 21  1  0
 21 22  1  0
 21 23  1  0
 23 24  2  0
  6 25  1  0
 25 26  1  0
 25 27  2  0
 27 28  1  0
 27  2  1  0
 23  7  1  0
 19 11  2  0
M  END
>  <cnnaffinity>  (1) 
-5.34011

>  <filename>  (1) 
Cc1nc(-c2cn(-c3cccnc3)c(=O)[nH]2)cs1

$$$$
