
     RDKit          3D

 41 44  0  0  0  0  0  0  0  0999 V2000
    2.3799    1.5636   25.0713 H   0  0  0  0  0  0  0  0  0  0  0  0
    2.9522    2.3114   25.3214 O   0  0  0  0  0  0  0  0  0  0  0  0
    4.1159    1.6377   25.4018 C   0  0  0  0  0  0  0  0  0  0  0  0
    4.1202    0.4526   25.1530 O   0  0  0  0  0  0  0  0  0  0  0  0
    5.2789    2.4584   25.7776 C   0  0  0  0  0  0  0  0  0  0  0  0
    6.6192    2.0905   25.8891 C   0  0  0  0  0  0  0  0  0  0  0  0
    7.2900    0.7553   25.6730 C   0  0  0  0  0  0  0  0  0  0  0  0
    6.5314   -0.0377   25.6543 H   0  0  0  0  0  0  0  0  0  0  0  0
    7.9546    0.5323   26.5222 H   0  0  0  0  0  0  0  0  0  0  0  0
    8.1104    0.6949   24.3653 C   0  0  1  0  0  0  0  0  0  0  0  0
    8.8536    1.5039   24.3873 H   0  0  0  0  0  0  0  0  0  0  0  0
    8.9012   -0.6470   24.1590 C   0  0  0  0  0  0  0  0  0  0  0  0
    8.5989   -1.4334   24.8619 H   0  0  0  0  0  0  0  0  0  0  0  0
    9.9769   -0.4941   24.3033 H   0  0  0  0  0  0  0  0  0  0  0  0
    8.5620   -1.0292   22.7460 C   0  0  0  0  0  0  0  0  0  0  0  0
    8.9180   -2.0215   21.9477 N   0  0  0  0  0  0  0  0  0  0  0  0
    8.2316   -1.7553   20.8075 N   0  0  0  0  0  0  0  0  0  0  0  0
    8.3117   -2.3973   20.0315 H   0  0  0  0  0  0  0  0  0  0  0  0
    7.4482   -0.6358   20.8709 C   0  0  0  0  0  0  0  0  0  0  0  0
    6.6573   -0.0420   19.7675 C   0  0  0  0  0  0  0  0  0  0  0  0
    7.1268    0.0245   18.4391 C   0  0  0  0  0  0  0  0  0  0  0  0
    8.0659   -0.4468   18.1531 H   0  0  0  0  0  0  0  0  0  0  0  0
    6.5099    0.6806   17.4486 N   0  0  0  0  0  0  0  0  0  0  0  0
    5.3683    1.3235   17.7424 C   0  0  0  0  0  0  0  0  0  0  0  0
    4.9042    1.8850   16.9306 H   0  0  0  0  0  0  0  0  0  0  0  0
    4.7897    1.2995   19.0142 C   0  0  0  0  0  0  0  0  0  0  0  0
    3.8697    1.8442   19.1914 H   0  0  0  0  0  0  0  0  0  0  0  0
    5.4401    0.6096   20.0388 C   0  0  0  0  0  0  0  0  0  0  0  0
    5.0139    0.5802   21.0440 H   0  0  0  0  0  0  0  0  0  0  0  0
    7.6544   -0.1578   22.1525 C   0  0  0  0  0  0  0  0  0  0  0  0
    7.2100    0.9088   23.1008 C   0  0  0  0  0  0  0  0  0  0  0  0
    7.3208    1.9214   22.6934 H   0  0  0  0  0  0  0  0  0  0  0  0
    6.1458    0.7905   23.3568 H   0  0  0  0  0  0  0  0  0  0  0  0
    7.2840    3.3065   26.1802 C   0  0  0  0  0  0  0  0  0  0  0  0
    8.7577    3.5011   26.3540 C   0  0  0  0  0  0  0  0  0  0  0  0
    8.9595    4.3556   27.0032 H   0  0  0  0  0  0  0  0  0  0  0  0
    9.1993    2.5908   26.7689 H   0  0  0  0  0  0  0  0  0  0  0  0
    9.2549    3.6765   25.3914 H   0  0  0  0  0  0  0  0  0  0  0  0
    6.4294    4.3197   26.2646 N   0  0  0  0  0  0  0  0  0  0  0  0
    5.2288    3.7979   26.0167 N   0  0  0  0  0  0  0  0  0  0  0  0
    4.4244    4.4144   26.0185 H   0  0  0  0  0  0  0  0  0  0  0  0
  1  2  1  0
  2  3  1  0
  3  4  2  0
  3  5  1  0
  5  6  2  0
  6  7  1  0
  7  8  1  0
  7  9  1  0
  7 10  1  0
 10 11  1  1
 10 12  1  0
 12 13  1  0
 12 14  1  0
 12 15  1  0
 15 16  2  0
 16 17  1  0
 17 18  1  0
 17 19  1  0
 19 20  1  0
 20 21  2  0
 21 22  1  0
 21 23  1  0
 23 24  2  0
 24 25  1  0
 24 26  1  0
 26 27  1  0
 26 28  2  0
 28 29  1  0
 19 30  2  0
 30 31  1  0
 31 32  1  0
 31 33  1  0
  6 34  1  0
 34 35  1  0
 35 36  1  0
 35 37  1  0
 35 38  1  0
 34 39  2  0
 39 40  1  0
 40 41  1  0
 40  5  1  0
 31 10  1  0
 30 15  1  0
 28 20  1  0
M  END
>  <cnnaffinity>  (1) 
-5.35369

>  <filename>  (1) 
Cc1n[nH]c(C(=O)O)c1C[C@H]1Cc2n[nH]c(-c3cccnc3)c2C1

$$$$
