
     RDKit          3D

 26 28  0  0  0  0  0  0  0  0999 V2000
    4.9637    1.8096   17.0094 H   0  0  0  0  0  0  0  0  0  0  0  0
    5.4286    1.2862   17.8405 C   0  0  0  0  0  0  0  0  0  0  0  0
    6.5902    0.6673   17.5685 N   0  0  0  0  0  0  0  0  0  0  0  0
    7.1913    0.0291   18.5775 C   0  0  0  0  0  0  0  0  0  0  0  0
    8.1477   -0.4480   18.3803 H   0  0  0  0  0  0  0  0  0  0  0  0
    6.6484   -0.0570   19.8708 C   0  0  0  0  0  0  0  0  0  0  0  0
    7.4269   -0.6875   20.8403 O   0  0  0  0  0  0  0  0  0  0  0  0
    6.9237   -1.5916   21.6758 C   0  0  0  0  0  0  0  0  0  0  0  0
    5.8125   -2.2755   21.5574 N   0  0  0  0  0  0  0  0  0  0  0  0
    5.7800   -3.0875   22.6430 N   0  0  0  0  0  0  0  0  0  0  0  0
    6.7994   -2.9224   23.3955 N   0  0  0  0  0  0  0  0  0  0  0  0
    7.5709   -1.9623   22.8000 N   0  0  0  0  0  0  0  0  0  0  0  0
    8.8047   -1.4949   23.3089 C   0  0  0  0  0  0  0  0  0  0  0  0
    9.6680   -0.8868   22.4301 N   0  0  0  0  0  0  0  0  0  0  0  0
   10.7606   -0.5484   23.0287 C   0  0  0  0  0  0  0  0  0  0  0  0
   11.9905   -0.0923   22.2951 C   0  0  0  0  0  0  0  0  0  0  0  0
   12.8319   -0.7476   22.5461 H   0  0  0  0  0  0  0  0  0  0  0  0
   12.2716    0.9307   22.5690 H   0  0  0  0  0  0  0  0  0  0  0  0
   11.7938   -0.1593   21.2203 H   0  0  0  0  0  0  0  0  0  0  0  0
   10.7264   -0.7668   24.7670 S   0  0  0  0  0  0  0  0  0  0  0  0
    9.2237   -1.5904   24.6014 C   0  0  0  0  0  0  0  0  0  0  0  0
    8.7480   -2.1189   25.4222 H   0  0  0  0  0  0  0  0  0  0  0  0
    5.4414    0.5781   20.1600 C   0  0  0  0  0  0  0  0  0  0  0  0
    5.0077    0.5281   21.1621 H   0  0  0  0  0  0  0  0  0  0  0  0
    4.8298    1.2718   19.1048 C   0  0  0  0  0  0  0  0  0  0  0  0
    3.9018    1.8089   19.2553 H   0  0  0  0  0  0  0  0  0  0  0  0
  1  2  1  0
  2  3  2  0
  3  4  1  0
  4  5  1  0
  4  6  2  0
  6  7  1  0
  7  8  1  0
  8  9  2  0
  9 10  1  0
 10 11  2  0
 11 12  1  0
 12 13  1  0
 13 14  1  0
 14 15  2  0
 15 16  1  0
 16 17  1  0
 16 18  1  0
 16 19  1  0
 15 20  1  0
 20 21  1  0
 21 22  1  0
  6 23  1  0
 23 24  1  0
 23 25  2  0
 25 26  1  0
 25  2  1  0
 12  8  1  0
 21 13  2  0
M  END
>  <cnnaffinity>  (1) 
-5.2263

>  <filename>  (1) 
Cc1nc(-n2nnnc2Oc2cccnc2)cs1

$$$$
