
     RDKit          3D

 39 42  0  0  0  0  0  0  0  0999 V2000
   11.5471    5.9690   22.0425 H   0  0  0  0  0  0  0  0  0  0  0  0
   10.6127    6.1283   22.2598 O   0  0  0  0  0  0  0  0  0  0  0  0
   10.4237    5.0070   22.9784 C   0  0  0  0  0  0  0  0  0  0  0  0
   11.3698    4.2834   23.1922 O   0  0  0  0  0  0  0  0  0  0  0  0
    9.0418    4.8017   23.4407 C   0  0  0  0  0  0  0  0  0  0  0  0
    8.4900    3.7244   24.1236 C   0  0  0  0  0  0  0  0  0  0  0  0
    9.1930    2.4135   24.4140 C   0  0  0  0  0  0  0  0  0  0  0  0
   10.2249    2.6013   24.7179 H   0  0  0  0  0  0  0  0  0  0  0  0
    8.6989    1.8670   25.2296 H   0  0  0  0  0  0  0  0  0  0  0  0
    9.2278    1.4818   23.2341 C   0  0  0  0  0  0  0  0  0  0  0  0
   10.2130    1.0347   22.5282 N   0  0  0  0  0  0  0  0  0  0  0  0
    9.6680    0.1568   21.5911 N   0  0  0  0  0  0  0  0  0  0  0  0
    8.3932    0.1424   21.8001 C   0  0  0  0  0  0  0  0  0  0  0  0
    7.3203   -0.6337   21.0966 C   0  0  0  0  0  0  0  0  0  0  0  0
    6.6003    0.0677   19.9718 C   0  0  0  0  0  0  0  0  0  0  0  0
    7.1502    0.0805   18.6768 C   0  0  0  0  0  0  0  0  0  0  0  0
    8.0973   -0.4276   18.4938 H   0  0  0  0  0  0  0  0  0  0  0  0
    6.5864    0.6753   17.6164 N   0  0  0  0  0  0  0  0  0  0  0  0
    5.4194    1.3067   17.8203 C   0  0  0  0  0  0  0  0  0  0  0  0
    4.9794    1.7946   16.9508 H   0  0  0  0  0  0  0  0  0  0  0  0
    4.7796    1.3539   19.0639 C   0  0  0  0  0  0  0  0  0  0  0  0
    3.8407    1.8851   19.1622 H   0  0  0  0  0  0  0  0  0  0  0  0
    5.3811    0.7264   20.1573 C   0  0  0  0  0  0  0  0  0  0  0  0
    4.9251    0.7424   21.1498 H   0  0  0  0  0  0  0  0  0  0  0  0
    6.5765   -1.6500   21.9412 C   0  0  0  0  0  0  0  0  0  0  0  0
    6.8383   -1.7149   22.9927 H   0  0  0  0  0  0  0  0  0  0  0  0
    5.5223   -1.8050   21.7260 H   0  0  0  0  0  0  0  0  0  0  0  0
    7.5413   -2.1165   20.9034 C   0  0  0  0  0  0  0  0  0  0  0  0
    8.5181   -2.5153   21.1593 H   0  0  0  0  0  0  0  0  0  0  0  0
    7.0642   -2.5512   20.0307 H   0  0  0  0  0  0  0  0  0  0  0  0
    8.0416    0.9574   22.8325 O   0  0  0  0  0  0  0  0  0  0  0  0
    7.1283    4.0802   24.3006 C   0  0  0  0  0  0  0  0  0  0  0  0
    6.0325    3.2899   24.9475 C   0  0  0  0  0  0  0  0  0  0  0  0
    6.2623    3.0588   25.9948 H   0  0  0  0  0  0  0  0  0  0  0  0
    5.1008    3.8596   24.9041 H   0  0  0  0  0  0  0  0  0  0  0  0
    5.8938    2.3353   24.4221 H   0  0  0  0  0  0  0  0  0  0  0  0
    6.8759    5.2643   23.7527 N   0  0  0  0  0  0  0  0  0  0  0  0
    8.0275    5.6860   23.2348 N   0  0  0  0  0  0  0  0  0  0  0  0
    8.0318    6.5499   22.7047 H   0  0  0  0  0  0  0  0  0  0  0  0
  1  2  1  0
  2  3  1  0
  3  4  2  0
  3  5  1  0
  5  6  2  0
  6  7  1  0
  7  8  1  0
  7  9  1  0
  7 10  1  0
 10 11  2  0
 11 12  1  0
 12 13  2  0
 13 14  1  0
 14 15  1  0
 15 16  2  0
 16 17  1  0
 16 18  1  0
 18 19  2  0
 19 20  1  0
 19 21  1  0
 21 22  1  0
 21 23  2  0
 23 24  1  0
 14 25  1  0
 25 26  1  0
 25 27  1  0
 25 28  1  0
 28 29  1  0
 28 30  1  0
 13 31  1  0
  6 32  1  0
 32 33  1  0
 33 34  1  0
 33 35  1  0
 33 36  1  0
 32 37  2  0
 37 38  1  0
 38 39  1  0
 38  5  1  0
 31 10  1  0
 28 14  1  0
 23 15  1  0
M  END
>  <cnnaffinity>  (1) 
-5.35239

>  <filename>  (1) 
Cc1n[nH]c(C(=O)O)c1Cc1nnc(C2(c3cccnc3)CC2)o1

$$$$
