
     RDKit          3D

 30 32  0  0  0  0  0  0  0  0999 V2000
    4.9170    1.8624   16.9479 H   0  0  0  0  0  0  0  0  0  0  0  0
    5.3842    1.3409   17.7807 C   0  0  0  0  0  0  0  0  0  0  0  0
    6.5463    0.7218   17.5138 N   0  0  0  0  0  0  0  0  0  0  0  0
    7.1457    0.0742   18.5194 C   0  0  0  0  0  0  0  0  0  0  0  0
    8.0995   -0.4011   18.2891 H   0  0  0  0  0  0  0  0  0  0  0  0
    6.6048   -0.0216   19.8201 C   0  0  0  0  0  0  0  0  0  0  0  0
    7.3096   -0.7043   20.8856 N   0  0  0  0  0  0  0  0  0  0  0  0
    8.5594   -0.2315   21.2286 C   0  0  0  0  0  0  0  0  0  0  0  0
    8.9187    0.6354   20.6722 H   0  0  0  0  0  0  0  0  0  0  0  0
    9.2899   -0.8166   22.2043 C   0  0  0  0  0  0  0  0  0  0  0  0
   10.6341   -0.4060   22.5158 C   0  0  0  0  0  0  0  0  0  0  0  0
   10.9185    0.9380   22.5307 N   0  0  0  0  0  0  0  0  0  0  0  0
   12.1841    1.1499   22.7141 C   0  0  0  0  0  0  0  0  0  0  0  0
   12.7732    2.5186   22.8195 C   0  0  0  0  0  0  0  0  0  0  0  0
   12.0190    3.1833   23.2448 H   0  0  0  0  0  0  0  0  0  0  0  0
   13.0184    2.9174   21.8273 H   0  0  0  0  0  0  0  0  0  0  0  0
   13.6761    2.5113   23.4363 H   0  0  0  0  0  0  0  0  0  0  0  0
   13.1459   -0.3035   22.7751 S   0  0  0  0  0  0  0  0  0  0  0  0
   11.7032   -1.2360   22.6563 C   0  0  0  0  0  0  0  0  0  0  0  0
   11.6541   -2.3125   22.7263 H   0  0  0  0  0  0  0  0  0  0  0  0
    8.7675   -1.9444   22.9522 C   0  0  0  0  0  0  0  0  0  0  0  0
    9.3351   -2.5928   23.8016 O   0  0  0  0  0  0  0  0  0  0  0  0
    7.4802   -2.2721   22.6182 N   0  0  0  0  0  0  0  0  0  0  0  0
    7.0871   -3.0419   23.1206 H   0  0  0  0  0  0  0  0  0  0  0  0
    6.7158   -1.7729   21.6112 C   0  0  0  0  0  0  0  0  0  0  0  0
    5.6352   -2.2526   21.3687 O   0  0  0  0  0  0  0  0  0  0  0  0
    5.3995    0.6295   20.0874 C   0  0  0  0  0  0  0  0  0  0  0  0
    4.9828    0.6053   21.0938 H   0  0  0  0  0  0  0  0  0  0  0  0
    4.7829    1.3279   19.0431 C   0  0  0  0  0  0  0  0  0  0  0  0
    3.8558    1.8661   19.2001 H   0  0  0  0  0  0  0  0  0  0  0  0
  1  2  1  0
  2  3  2  0
  3  4  1  0
  4  5  1  0
  4  6  2  0
  6  7  1  0
  7  8  1  0
  8  9  1  0
  8 10  2  0
 10 11  1  0
 11 12  1  0
 12 13  2  0
 13 14  1  0
 14 15  1  0
 14 16  1  0
 14 17  1  0
 13 18  1  0
 18 19  1  0
 19 20  1  0
 10 21  1  0
 21 22  2  0
 21 23  1  0
 23 24  1  0
 23 25  1  0
 25 26  2  0
  6 27  1  0
 27 28  1  0
 27 29  2  0
 29 30  1  0
 29  2  1  0
 25  7  1  0
 19 11  2  0
M  END
>  <cnnaffinity>  (1) 
-5.0656

>  <filename>  (1) 
Cc1nc(-c2cn(-c3cccnc3)c(=O)[nH]c2=O)cs1

$$$$
