
     RDKit          3D

 36 38  0  0  0  0  0  0  0  0999 V2000
   13.3062    0.4940   23.8848 H   0  0  0  0  0  0  0  0  0  0  0  0
   12.8131    1.3259   23.7914 O   0  0  0  0  0  0  0  0  0  0  0  0
   11.5812    0.8705   24.0796 C   0  0  0  0  0  0  0  0  0  0  0  0
   11.4359   -0.2931   24.3839 O   0  0  0  0  0  0  0  0  0  0  0  0
   10.5049    1.8687   23.9677 C   0  0  0  0  0  0  0  0  0  0  0  0
    9.1413    1.6805   24.1603 C   0  0  0  0  0  0  0  0  0  0  0  0
    8.4240    0.3712   24.3814 C   0  0  0  0  0  0  0  0  0  0  0  0
    8.9808   -0.2240   25.1090 H   0  0  0  0  0  0  0  0  0  0  0  0
    7.4273    0.5565   24.8158 H   0  0  0  0  0  0  0  0  0  0  0  0
    8.2368   -0.4357   23.1087 C   0  0  0  0  0  0  0  0  0  0  0  0
    7.5240    0.1083   22.1533 N   0  0  0  0  0  0  0  0  0  0  0  0
    7.2328   -0.6538   21.0481 N   0  0  0  0  0  0  0  0  0  0  0  0
    6.6297    0.0572   19.9641 C   0  0  0  0  0  0  0  0  0  0  0  0
    7.1981    0.1101   18.6765 C   0  0  0  0  0  0  0  0  0  0  0  0
    8.1555   -0.3689   18.4821 H   0  0  0  0  0  0  0  0  0  0  0  0
    6.6055    0.7140   17.6381 N   0  0  0  0  0  0  0  0  0  0  0  0
    5.4161    1.3018   17.8516 C   0  0  0  0  0  0  0  0  0  0  0  0
    4.9565    1.7759   16.9870 H   0  0  0  0  0  0  0  0  0  0  0  0
    4.7991    1.3448   19.1065 C   0  0  0  0  0  0  0  0  0  0  0  0
    3.8533    1.8587   19.2271 H   0  0  0  0  0  0  0  0  0  0  0  0
    5.4364    0.7426   20.1925 C   0  0  0  0  0  0  0  0  0  0  0  0
    5.0440    0.7998   21.2049 H   0  0  0  0  0  0  0  0  0  0  0  0
    7.2936   -2.0942   21.0347 C   0  0  0  0  0  0  0  0  0  0  0  0
    6.6086   -2.7820   20.3018 O   0  0  0  0  0  0  0  0  0  0  0  0
    8.2877   -2.5838   21.9866 C   0  0  0  0  0  0  0  0  0  0  0  0
    8.5760   -3.6158   21.8414 H   0  0  0  0  0  0  0  0  0  0  0  0
    8.7534   -1.7825   22.9869 C   0  0  0  0  0  0  0  0  0  0  0  0
    9.4753   -2.1230   23.7289 H   0  0  0  0  0  0  0  0  0  0  0  0
    8.5663    2.9394   23.8633 C   0  0  0  0  0  0  0  0  0  0  0  0
    7.1066    3.2674   23.8495 C   0  0  0  0  0  0  0  0  0  0  0  0
    6.6010    2.6112   23.1300 H   0  0  0  0  0  0  0  0  0  0  0  0
    6.9477    4.3090   23.5651 H   0  0  0  0  0  0  0  0  0  0  0  0
    6.6425    3.0883   24.8264 H   0  0  0  0  0  0  0  0  0  0  0  0
    9.4976    3.8151   23.5083 N   0  0  0  0  0  0  0  0  0  0  0  0
   10.6580    3.1624   23.5742 N   0  0  0  0  0  0  0  0  0  0  0  0
   11.4944    3.6472   23.2540 H   0  0  0  0  0  0  0  0  0  0  0  0
  1  2  1  0
  2  3  1  0
  3  4  2  0
  3  5  1  0
  5  6  2  0
  6  7  1  0
  7  8  1  0
  7  9  1  0
  7 10  1  0
 10 11  2  0
 11 12  1  0
 12 13  1  0
 13 14  2  0
 14 15  1  0
 14 16  1  0
 16 17  2  0
 17 18  1  0
 17 19  1  0
 19 20  1  0
 19 21  2  0
 21 22  1  0
 12 23  1  0
 23 24  2  0
 23 25  1  0
 25 26  1  0
 25 27  2  0
 27 28  1  0
  6 29  1  0
 29 30  1  0
 30 31  1  0
 30 32  1  0
 30 33  1  0
 29 34  2  0
 34 35  1  0
 35 36  1  0
 35  5  1  0
 27 10  1  0
 21 13  1  0
M  END
>  <cnnaffinity>  (1) 
-5.01029

>  <filename>  (1) 
Cc1n[nH]c(C(=O)O)c1Cc1ccc(=O)n(-c2cccnc2)n1

$$$$
