
     RDKit          3D

 41 44  0  0  0  0  0  0  0  0999 V2000
   11.3255    2.7980   20.8723 H   0  0  0  0  0  0  0  0  0  0  0  0
   11.2455    2.7944   21.8423 O   0  0  0  0  0  0  0  0  0  0  0  0
   10.0169    2.2463   21.9419 C   0  0  0  0  0  0  0  0  0  0  0  0
    9.4525    1.8727   20.9421 O   0  0  0  0  0  0  0  0  0  0  0  0
    9.5040    2.1571   23.3271 C   0  0  0  0  0  0  0  0  0  0  0  0
    8.2625    1.7133   23.7762 C   0  0  0  0  0  0  0  0  0  0  0  0
    7.1399    1.1467   22.9401 C   0  0  0  0  0  0  0  0  0  0  0  0
    6.2137    1.0648   23.5301 H   0  0  0  0  0  0  0  0  0  0  0  0
    6.9146    1.8491   22.1279 H   0  0  0  0  0  0  0  0  0  0  0  0
    7.4969   -0.1993   22.3533 C   0  0  0  0  0  0  0  0  0  0  0  0
    7.3155   -0.6682   21.0113 C   0  0  0  0  0  0  0  0  0  0  0  0
    6.6139   -0.0021   19.9037 C   0  0  0  0  0  0  0  0  0  0  0  0
    7.1621    0.0206   18.6066 C   0  0  0  0  0  0  0  0  0  0  0  0
    8.1016   -0.4865   18.3862 H   0  0  0  0  0  0  0  0  0  0  0  0
    6.5967    0.6524   17.5707 N   0  0  0  0  0  0  0  0  0  0  0  0
    5.4366    1.2928   17.7895 C   0  0  0  0  0  0  0  0  0  0  0  0
    5.0078    1.8242   16.9406 H   0  0  0  0  0  0  0  0  0  0  0  0
    4.7887    1.2991   19.0276 C   0  0  0  0  0  0  0  0  0  0  0  0
    3.8531    1.8299   19.1480 H   0  0  0  0  0  0  0  0  0  0  0  0
    5.3824    0.6402   20.0997 C   0  0  0  0  0  0  0  0  0  0  0  0
    4.9044    0.6194   21.0803 H   0  0  0  0  0  0  0  0  0  0  0  0
    7.9213   -1.8371   20.8128 N   0  0  0  0  0  0  0  0  0  0  0  0
    8.4194   -2.1346   22.0120 N   0  0  0  0  0  0  0  0  0  0  0  0
    8.2307   -1.2082   22.9587 C   0  0  0  0  0  0  0  0  0  0  0  0
    9.0063   -1.5997   24.2015 C   0  0  0  0  0  0  0  0  0  0  0  0
    8.3659   -1.6697   25.0849 H   0  0  0  0  0  0  0  0  0  0  0  0
    9.7807   -0.8589   24.4145 H   0  0  0  0  0  0  0  0  0  0  0  0
    9.6353   -2.9746   23.8238 C   0  0  0  0  0  0  0  0  0  0  0  0
    9.1671   -3.7968   24.3708 H   0  0  0  0  0  0  0  0  0  0  0  0
   10.7046   -2.9958   24.0432 H   0  0  0  0  0  0  0  0  0  0  0  0
    9.3824   -3.1589   22.3076 C   0  0  0  0  0  0  0  0  0  0  0  0
    8.9553   -4.1294   22.0534 H   0  0  0  0  0  0  0  0  0  0  0  0
   10.2781   -2.9611   21.7107 H   0  0  0  0  0  0  0  0  0  0  0  0
    8.3694    1.7474   25.1831 C   0  0  0  0  0  0  0  0  0  0  0  0
    7.3392    1.3081   26.1775 C   0  0  0  0  0  0  0  0  0  0  0  0
    7.7458    1.3755   27.1891 H   0  0  0  0  0  0  0  0  0  0  0  0
    7.0411    0.2694   25.9820 H   0  0  0  0  0  0  0  0  0  0  0  0
    6.4333    1.9219   26.1064 H   0  0  0  0  0  0  0  0  0  0  0  0
    9.5579    2.2035   25.5666 N   0  0  0  0  0  0  0  0  0  0  0  0
   10.2334    2.4424   24.4408 N   0  0  0  0  0  0  0  0  0  0  0  0
   11.1684    2.8300   24.5064 H   0  0  0  0  0  0  0  0  0  0  0  0
  1  2  1  0
  2  3  1  0
  3  4  2  0
  3  5  1  0
  5  6  2  0
  6  7  1  0
  7  8  1  0
  7  9  1  0
  7 10  1  0
 10 11  1  0
 11 12  1  0
 12 13  2  0
 13 14  1  0
 13 15  1  0
 15 16  2  0
 16 17  1  0
 16 18  1  0
 18 19  1  0
 18 20  2  0
 20 21  1  0
 11 22  2  0
 22 23  1  0
 23 24  1  0
 24 25  1  0
 25 26  1  0
 25 27  1  0
 25 28  1  0
 28 29  1  0
 28 30  1  0
 28 31  1  0
 31 32  1  0
 31 33  1  0
  6 34  1  0
 34 35  1  0
 35 36  1  0
 35 37  1  0
 35 38  1  0
 34 39  2  0
 39 40  1  0
 40 41  1  0
 40  5  1  0
 24 10  2  0
 20 12  1  0
 31 23  1  0
M  END
>  <cnnaffinity>  (1) 
-5.54485

>  <filename>  (1) 
Cc1n[nH]c(C(=O)O)c1Cc1c(-c2cccnc2)nn2c1CCC2

$$$$
