
     RDKit          3D

 33 35  0  0  0  0  0  0  0  0999 V2000
    8.5838   -3.5490   22.2990 C   0  0  0  0  0  0  0  0  0  0  0  0
    8.1075   -2.1678   21.9758 C   0  0  0  0  0  0  0  0  0  0  0  0
    7.8533   -1.7629   20.7587 N   0  0  0  0  0  0  0  0  0  0  0  0
    7.3560   -0.5165   20.9440 N   0  0  0  0  0  0  0  0  0  0  0  0
    6.6807    0.1648   19.9178 C   0  0  0  0  0  0  0  0  0  0  0  0
    5.5123    0.9068   20.1426 C   0  0  0  0  0  0  0  0  0  0  0  0
    4.8688    1.4744   19.0364 C   0  0  0  0  0  0  0  0  0  0  0  0
    5.4064    1.3154   17.7526 C   0  0  0  0  0  0  0  0  0  0  0  0
    6.5279    0.6034   17.5349 N   0  0  0  0  0  0  0  0  0  0  0  0
    7.1368    0.0324   18.5943 C   0  0  0  0  0  0  0  0  0  0  0  0
    8.0221   -0.5719   18.4109 H   0  0  0  0  0  0  0  0  0  0  0  0
    4.8997    1.7744   16.9064 H   0  0  0  0  0  0  0  0  0  0  0  0
    3.9555    2.0466   19.1585 H   0  0  0  0  0  0  0  0  0  0  0  0
    5.0948    1.0088   21.1440 H   0  0  0  0  0  0  0  0  0  0  0  0
    7.4572   -0.1820   22.2951 C   0  0  0  0  0  0  0  0  0  0  0  0
    7.2035    1.1624   22.9299 C   0  0  0  0  0  0  0  0  0  0  0  0
    8.4488    1.6084   23.6526 C   0  0  0  0  0  0  0  0  0  0  0  0
    9.5681    2.0574   22.9641 C   0  0  0  0  0  0  0  0  0  0  0  0
    9.5222    2.1302   21.0856 Br  0  0  0  0  0  0  0  0  0  0  0  0
   10.7239    2.3936   23.6652 C   0  0  0  0  0  0  0  0  0  0  0  0
   11.8318    2.8894   23.1043 O   0  0  0  0  0  0  0  0  0  0  0  0
   12.3830    3.0517   23.8818 H   0  0  0  0  0  0  0  0  0  0  0  0
   10.8555    2.2638   24.9744 N   0  0  0  0  0  0  0  0  0  0  0  0
    9.7734    1.8203   25.6304 C   0  0  0  0  0  0  0  0  0  0  0  0
    8.5621    1.5071   25.0267 C   0  0  0  0  0  0  0  0  0  0  0  0
    7.7397    1.1592   25.6440 H   0  0  0  0  0  0  0  0  0  0  0  0
    9.8141    1.6888   26.6896 H   0  0  0  0  0  0  0  0  0  0  0  0
    6.9378    1.8975   22.1664 H   0  0  0  0  0  0  0  0  0  0  0  0
    6.3712    1.0872   23.6325 H   0  0  0  0  0  0  0  0  0  0  0  0
    7.8779   -1.2232   22.9607 N   0  0  0  0  0  0  0  0  0  0  0  0
    7.9742   -3.9524   23.1109 H   0  0  0  0  0  0  0  0  0  0  0  0
    9.6312   -3.5185   22.6207 H   0  0  0  0  0  0  0  0  0  0  0  0
    8.4750   -4.2161   21.4416 H   0  0  0  0  0  0  0  0  0  0  0  0
  1  2  1  0
  2  3  2  0
  3  4  1  0
  4  5  1  0
  5  6  2  0
  6  7  1  0
  7  8  2  0
  8  9  1  0
  9 10  2  0
 10 11  1  0
  8 12  1  0
  7 13  1  0
  6 14  1  0
  4 15  1  0
 15 16  1  0
 16 17  1  0
 17 18  2  0
 18 19  1  0
 18 20  1  0
 20 21  1  0
 21 22  1  0
 20 23  2  0
 23 24  1  0
 24 25  2  0
 25 26  1  0
 24 27  1  0
 16 28  1  0
 16 29  1  0
 15 30  2  0
  1 31  1  0
  1 32  1  0
  1 33  1  0
 30  2  1  0
 10  5  1  0
 25 17  1  0
M  END
>  <cnnaffinity>  (1) 
-5.49077

>  <filename>  (1) 
Cc1nc(Cc2ccnc(O)c2Br)n(-c2cccnc2)n1

$$$$
