
     RDKit          3D

 29 31  0  0  0  0  0  0  0  0999 V2000
    4.8994    1.8352   16.8184 H   0  0  0  0  0  0  0  0  0  0  0  0
    5.3744    1.3835   17.6826 C   0  0  0  0  0  0  0  0  0  0  0  0
    6.5741    0.8223   17.4670 N   0  0  0  0  0  0  0  0  0  0  0  0
    7.1936    0.2878   18.5222 C   0  0  0  0  0  0  0  0  0  0  0  0
    8.1726   -0.1428   18.3172 H   0  0  0  0  0  0  0  0  0  0  0  0
    6.6620    0.2677   19.8178 C   0  0  0  0  0  0  0  0  0  0  0  0
    7.4180   -0.3314   20.9454 C   0  0  0  0  0  0  0  0  0  0  0  0
    7.0706    0.0698   22.1475 N   0  0  0  0  0  0  0  0  0  0  0  0
    7.6957   -0.4927   23.2416 N   0  0  0  0  0  0  0  0  0  0  0  0
    7.6187    0.1961   24.4622 C   0  0  0  0  0  0  0  0  0  0  0  0
    8.2592   -0.2819   25.5884 N   0  0  0  0  0  0  0  0  0  0  0  0
    7.9846    0.4633   26.5987 C   0  0  0  0  0  0  0  0  0  0  0  0
    8.2282    0.0481   28.0138 C   0  0  0  0  0  0  0  0  0  0  0  0
    9.0551   -0.6617   28.0682 H   0  0  0  0  0  0  0  0  0  0  0  0
    8.4083    0.8886   28.6829 H   0  0  0  0  0  0  0  0  0  0  0  0
    7.3080   -0.4529   28.3366 H   0  0  0  0  0  0  0  0  0  0  0  0
    7.0134    1.8830   26.2459 S   0  0  0  0  0  0  0  0  0  0  0  0
    6.9153    1.3544   24.6198 C   0  0  0  0  0  0  0  0  0  0  0  0
    6.3423    1.8496   23.8519 H   0  0  0  0  0  0  0  0  0  0  0  0
    8.4318   -1.7291   23.1901 C   0  0  0  0  0  0  0  0  0  0  0  0
    8.5746   -2.4850   24.1192 O   0  0  0  0  0  0  0  0  0  0  0  0
    8.9740   -1.9623   21.8456 C   0  0  0  0  0  0  0  0  0  0  0  0
    9.7256   -2.7397   21.7862 H   0  0  0  0  0  0  0  0  0  0  0  0
    8.4749   -1.3026   20.7642 C   0  0  0  0  0  0  0  0  0  0  0  0
    8.8283   -1.5332   19.7664 H   0  0  0  0  0  0  0  0  0  0  0  0
    5.3876    0.8287   20.0196 C   0  0  0  0  0  0  0  0  0  0  0  0
    4.9239    0.7919   21.0069 H   0  0  0  0  0  0  0  0  0  0  0  0
    4.7424    1.4030   18.9290 C   0  0  0  0  0  0  0  0  0  0  0  0
    3.7681    1.8669   19.0331 H   0  0  0  0  0  0  0  0  0  0  0  0
  1  2  1  0
  2  3  2  0
  3  4  1  0
  4  5  1  0
  4  6  2  0
  6  7  1  0
  7  8  2  0
  8  9  1  0
  9 10  1  0
 10 11  1  0
 11 12  2  0
 12 13  1  0
 13 14  1  0
 13 15  1  0
 13 16  1  0
 12 17  1  0
 17 18  1  0
 18 19  1  0
  9 20  1  0
 20 21  2  0
 20 22  1  0
 22 23  1  0
 22 24  2  0
 24 25  1  0
  6 26  1  0
 26 27  1  0
 26 28  2  0
 28 29  1  0
 28  2  1  0
 24  7  1  0
 18 10  2  0
M  END
>  <cnnaffinity>  (1) 
-4.89641

>  <filename>  (1) 
Cc1nc(-n2nc(-c3cccnc3)ccc2=O)cs1

$$$$
