
     RDKit          3D

 36 39  0  0  0  0  0  0  0  0999 V2000
    8.3671    2.9863   25.5500 H   0  0  0  0  0  0  0  0  0  0  0  0
    8.6767    2.3030   26.1700 O   0  0  0  0  0  0  0  0  0  0  0  0
    7.9178    1.3024   25.6924 C   0  0  0  0  0  0  0  0  0  0  0  0
    7.1704    1.5393   24.7696 O   0  0  0  0  0  0  0  0  0  0  0  0
    8.1304    0.0049   26.3570 C   0  0  0  0  0  0  0  0  0  0  0  0
    7.5931   -1.2451   26.0722 C   0  0  0  0  0  0  0  0  0  0  0  0
    6.9282   -1.6180   24.7600 C   0  0  0  0  0  0  0  0  0  0  0  0
    6.1839   -2.4219   24.8531 H   0  0  0  0  0  0  0  0  0  0  0  0
    6.3995   -0.7355   24.3791 H   0  0  0  0  0  0  0  0  0  0  0  0
    7.9829   -2.0128   23.7520 C   0  0  0  0  0  0  0  0  0  0  0  0
    9.1986   -2.5684   23.9254 C   0  0  0  0  0  0  0  0  0  0  0  0
    9.6126   -2.9373   24.8558 H   0  0  0  0  0  0  0  0  0  0  0  0
   10.1844   -2.5464   22.4740 S   0  0  0  0  0  0  0  0  0  0  0  0
    8.8760   -1.7762   21.6015 C   0  0  0  0  0  0  0  0  0  0  0  0
    8.6212   -1.2299   20.4293 N   0  0  0  0  0  0  0  0  0  0  0  0
    7.3578   -0.7463   20.6220 C   0  0  0  0  0  0  0  0  0  0  0  0
    6.6303    0.0122   19.6139 C   0  0  0  0  0  0  0  0  0  0  0  0
    7.1685    0.0839   18.3247 C   0  0  0  0  0  0  0  0  0  0  0  0
    8.1121   -0.4075   18.0898 H   0  0  0  0  0  0  0  0  0  0  0  0
    6.5762    0.7416   17.3242 N   0  0  0  0  0  0  0  0  0  0  0  0
    5.4277    1.3820   17.5914 C   0  0  0  0  0  0  0  0  0  0  0  0
    4.9679    1.9163   16.7625 H   0  0  0  0  0  0  0  0  0  0  0  0
    4.8228    1.3876   18.8555 C   0  0  0  0  0  0  0  0  0  0  0  0
    3.9071    1.9469   19.0123 H   0  0  0  0  0  0  0  0  0  0  0  0
    5.4313    0.6900   19.8937 C   0  0  0  0  0  0  0  0  0  0  0  0
    5.0059    0.6756   20.9010 H   0  0  0  0  0  0  0  0  0  0  0  0
    6.8223   -0.9745   21.8113 N   0  0  0  0  0  0  0  0  0  0  0  0
    7.8159   -1.6443   22.4278 N   0  0  0  0  0  0  0  0  0  0  0  0
    8.1916   -2.1066   27.0246 C   0  0  0  0  0  0  0  0  0  0  0  0
    7.9923   -3.5830   27.1826 C   0  0  0  0  0  0  0  0  0  0  0  0
    8.1350   -4.0898   26.2234 H   0  0  0  0  0  0  0  0  0  0  0  0
    8.6950   -3.9996   27.9073 H   0  0  0  0  0  0  0  0  0  0  0  0
    6.9689   -3.8099   27.4979 H   0  0  0  0  0  0  0  0  0  0  0  0
    9.0500   -1.4430   27.7875 N   0  0  0  0  0  0  0  0  0  0  0  0
    9.0017   -0.1787   27.3869 N   0  0  0  0  0  0  0  0  0  0  0  0
    9.6447    0.4793   27.8071 H   0  0  0  0  0  0  0  0  0  0  0  0
  1  2  1  0
  2  3  1  0
  3  4  2  0
  3  5  1  0
  5  6  2  0
  6  7  1  0
  7  8  1  0
  7  9  1  0
  7 10  1  0
 10 11  2  0
 11 12  1  0
 11 13  1  0
 13 14  1  0
 14 15  2  0
 15 16  1  0
 16 17  1  0
 17 18  2  0
 18 19  1  0
 18 20  1  0
 20 21  2  0
 21 22  1  0
 21 23  1  0
 23 24  1  0
 23 25  2  0
 25 26  1  0
 16 27  2  0
 27 28  1  0
  6 29  1  0
 29 30  1  0
 30 31  1  0
 30 32  1  0
 30 33  1  0
 29 34  2  0
 34 35  1  0
 35 36  1  0
 35  5  1  0
 28 10  1  0
 28 14  1  0
 25 17  1  0
M  END
>  <cnnaffinity>  (1) 
-5.50254

>  <filename>  (1) 
Cc1n[nH]c(C(=O)O)c1Cc1csc2nc(-c3cccnc3)nn12

$$$$
