
     RDKit          3D

 34 36  0  0  0  0  0  0  0  0999 V2000
    7.5601   -4.1085   25.8978 H   0  0  0  0  0  0  0  0  0  0  0  0
    7.5270   -3.1530   25.6943 O   0  0  0  0  0  0  0  0  0  0  0  0
    6.2187   -2.9544   25.9120 C   0  0  0  0  0  0  0  0  0  0  0  0
    5.5265   -3.8834   26.2613 O   0  0  0  0  0  0  0  0  0  0  0  0
    5.7267   -1.5847   25.6802 C   0  0  0  0  0  0  0  0  0  0  0  0
    6.3290   -0.4164   25.2301 C   0  0  0  0  0  0  0  0  0  0  0  0
    7.7331   -0.2628   24.7120 C   0  0  0  0  0  0  0  0  0  0  0  0
    8.0388    0.7934   24.7231 H   0  0  0  0  0  0  0  0  0  0  0  0
    8.4320   -0.8171   25.3395 H   0  0  0  0  0  0  0  0  0  0  0  0
    7.8591   -0.7712   23.3043 C   0  0  0  0  0  0  0  0  0  0  0  0
    8.6284   -1.8477   23.0958 N   0  0  0  0  0  0  0  0  0  0  0  0
    8.8336   -2.2892   21.8492 N   0  0  0  0  0  0  0  0  0  0  0  0
    8.2595   -1.6267   20.8529 C   0  0  0  0  0  0  0  0  0  0  0  0
    8.5017   -1.9363   19.8530 H   0  0  0  0  0  0  0  0  0  0  0  0
    7.3818   -0.5402   21.0873 C   0  0  0  0  0  0  0  0  0  0  0  0
    6.6321    0.1133   19.9945 C   0  0  0  0  0  0  0  0  0  0  0  0
    7.1688    0.1168   18.6983 C   0  0  0  0  0  0  0  0  0  0  0  0
    8.1261   -0.3646   18.5024 H   0  0  0  0  0  0  0  0  0  0  0  0
    6.5887    0.6873   17.6430 N   0  0  0  0  0  0  0  0  0  0  0  0
    5.4106    1.2962   17.8435 C   0  0  0  0  0  0  0  0  0  0  0  0
    4.9615    1.7695   16.9716 H   0  0  0  0  0  0  0  0  0  0  0  0
    4.7698    1.3328   19.0859 C   0  0  0  0  0  0  0  0  0  0  0  0
    3.8160    1.8377   19.1805 H   0  0  0  0  0  0  0  0  0  0  0  0
    5.3868    0.7336   20.1835 C   0  0  0  0  0  0  0  0  0  0  0  0
    4.9175    0.7417   21.1701 H   0  0  0  0  0  0  0  0  0  0  0  0
    7.2038   -0.0957   22.3334 N   0  0  0  0  0  0  0  0  0  0  0  0
    5.2669    0.5130   25.1215 C   0  0  0  0  0  0  0  0  0  0  0  0
    5.3499    1.9079   24.5960 C   0  0  0  0  0  0  0  0  0  0  0  0
    5.7394    1.8670   23.5715 H   0  0  0  0  0  0  0  0  0  0  0  0
    6.0541    2.5061   25.1828 H   0  0  0  0  0  0  0  0  0  0  0  0
    4.3699    2.3900   24.5997 H   0  0  0  0  0  0  0  0  0  0  0  0
    4.1176   -0.0330   25.4923 N   0  0  0  0  0  0  0  0  0  0  0  0
    4.4056   -1.2918   25.8201 N   0  0  0  0  0  0  0  0  0  0  0  0
    3.6640   -1.9023   26.1372 H   0  0  0  0  0  0  0  0  0  0  0  0
  1  2  1  0
  2  3  1  0
  3  4  2  0
  3  5  1  0
  5  6  2  0
  6  7  1  0
  7  8  1  0
  7  9  1  0
  7 10  1  0
 10 11  2  0
 11 12  1  0
 12 13  2  0
 13 14  1  0
 13 15  1  0
 15 16  1  0
 16 17  2  0
 17 18  1  0
 17 19  1  0
 19 20  2  0
 20 21  1  0
 20 22  1  0
 22 23  1  0
 22 24  2  0
 24 25  1  0
 15 26  2  0
  6 27  1  0
 27 28  1  0
 28 29  1  0
 28 30  1  0
 28 31  1  0
 27 32  2  0
 32 33  1  0
 33 34  1  0
 33  5  1  0
 26 10  1  0
 24 16  1  0
M  END
>  <cnnaffinity>  (1) 
-5.23726

>  <filename>  (1) 
Cc1n[nH]c(C(=O)O)c1Cc1nncc(-c2cccnc2)n1

$$$$
