
     RDKit          3D

 33 34  0  0  0  0  0  0  0  0999 V2000
    8.8156   -3.2027   26.6876 H   0  0  0  0  0  0  0  0  0  0  0  0
    9.2911   -2.3526   26.6724 O   0  0  0  0  0  0  0  0  0  0  0  0
    9.5176   -2.2675   25.3522 C   0  0  0  0  0  0  0  0  0  0  0  0
    9.1214   -3.1542   24.6244 O   0  0  0  0  0  0  0  0  0  0  0  0
   10.2309   -1.0455   24.9138 C   0  0  0  0  0  0  0  0  0  0  0  0
   10.6512   -0.7039   23.6273 C   0  0  0  0  0  0  0  0  0  0  0  0
   10.5874   -1.5901   22.4170 C   0  0  0  0  0  0  0  0  0  0  0  0
   11.2556   -1.2370   21.6198 H   0  0  0  0  0  0  0  0  0  0  0  0
   10.9138   -2.6007   22.6882 H   0  0  0  0  0  0  0  0  0  0  0  0
    9.2336   -1.6750   21.8852 N   0  0  0  0  0  0  0  0  0  0  0  0
    8.5457   -1.9718   22.5583 H   0  0  0  0  0  0  0  0  0  0  0  0
    8.8065   -0.6588   21.0657 C   0  0  0  0  0  0  0  0  0  0  0  0
    9.5463    0.1133   20.4839 O   0  0  0  0  0  0  0  0  0  0  0  0
    7.4383   -0.6747   20.9077 N   0  0  0  0  0  0  0  0  0  0  0  0
    6.9082   -1.1172   21.6362 H   0  0  0  0  0  0  0  0  0  0  0  0
    6.7324   -0.0225   19.8737 C   0  0  0  0  0  0  0  0  0  0  0  0
    7.2170    0.0513   18.5438 C   0  0  0  0  0  0  0  0  0  0  0  0
    8.1659   -0.4226   18.3015 H   0  0  0  0  0  0  0  0  0  0  0  0
    6.5712    0.6778   17.5551 N   0  0  0  0  0  0  0  0  0  0  0  0
    5.4098    1.2804   17.8610 C   0  0  0  0  0  0  0  0  0  0  0  0
    4.9205    1.8026   17.0456 H   0  0  0  0  0  0  0  0  0  0  0  0
    4.8400    1.2566   19.1391 C   0  0  0  0  0  0  0  0  0  0  0  0
    3.9048    1.7739   19.3246 H   0  0  0  0  0  0  0  0  0  0  0  0
    5.5063    0.5803   20.1648 C   0  0  0  0  0  0  0  0  0  0  0  0
    5.1173    0.5314   21.1828 H   0  0  0  0  0  0  0  0  0  0  0  0
   11.1887    0.5975   23.7505 C   0  0  0  0  0  0  0  0  0  0  0  0
   11.7261    1.4716   22.6603 C   0  0  0  0  0  0  0  0  0  0  0  0
   12.1984    2.3606   23.0853 H   0  0  0  0  0  0  0  0  0  0  0  0
   10.9219    1.7724   21.9819 H   0  0  0  0  0  0  0  0  0  0  0  0
   12.4654    0.9380   22.0528 H   0  0  0  0  0  0  0  0  0  0  0  0
   11.1765    0.9872   25.0186 N   0  0  0  0  0  0  0  0  0  0  0  0
   10.6059   -0.0010   25.7104 N   0  0  0  0  0  0  0  0  0  0  0  0
   10.5284    0.1237   26.7146 H   0  0  0  0  0  0  0  0  0  0  0  0
  1  2  1  0
  2  3  1  0
  3  4  2  0
  3  5  1  0
  5  6  2  0
  6  7  1  0
  7  8  1  0
  7  9  1  0
  7 10  1  0
 10 11  1  0
 10 12  1  0
 12 13  2  0
 12 14  1  0
 14 15  1  0
 14 16  1  0
 16 17  2  0
 17 18  1  0
 17 19  1  0
 19 20  2  0
 20 21  1  0
 20 22  1  0
 22 23  1  0
 22 24  2  0
 24 25  1  0
  6 26  1  0
 26 27  1  0
 27 28  1  0
 27 29  1  0
 27 30  1  0
 26 31  2  0
 31 32  1  0
 32 33  1  0
 32  5  1  0
 24 16  1  0
M  END
>  <cnnaffinity>  (1) 
-4.90662

>  <filename>  (1) 
Cc1n[nH]c(C(=O)O)c1CNC(=O)Nc1cccnc1

$$$$
