
     RDKit          3D

 31 33  0  0  0  0  0  0  0  0999 V2000
    4.9437    1.7719   17.0241 H   0  0  0  0  0  0  0  0  0  0  0  0
    5.4210    1.2709   17.8635 C   0  0  0  0  0  0  0  0  0  0  0  0
    6.5836    0.6548   17.6021 N   0  0  0  0  0  0  0  0  0  0  0  0
    7.1986    0.0346   18.6190 C   0  0  0  0  0  0  0  0  0  0  0  0
    8.1457   -0.4396   18.3699 H   0  0  0  0  0  0  0  0  0  0  0  0
    6.7013   -0.0301   19.9587 C   0  0  0  0  0  0  0  0  0  0  0  0
    7.3717   -0.6801   20.9681 N   0  0  0  0  0  0  0  0  0  0  0  0
    7.0526   -0.8785   22.3690 C   0  0  0  0  0  0  0  0  0  0  0  0
    7.0040    0.0351   22.9738 H   0  0  0  0  0  0  0  0  0  0  0  0
    6.1360   -1.4442   22.5667 H   0  0  0  0  0  0  0  0  0  0  0  0
    8.3669   -1.7013   22.4951 C   0  0  0  0  0  0  0  0  0  0  0  0
    9.1045   -1.2390   23.1550 H   0  0  0  0  0  0  0  0  0  0  0  0
    8.2172   -3.1744   22.8689 C   0  0  0  0  0  0  0  0  0  0  0  0
    8.6175   -4.0493   22.1239 O   0  0  0  0  0  0  0  0  0  0  0  0
    7.5687   -3.5248   24.1967 C   0  0  0  0  0  0  0  0  0  0  0  0
    7.1639   -2.5584   25.1106 N   0  0  0  0  0  0  0  0  0  0  0  0
    6.5989   -3.0890   26.1467 C   0  0  0  0  0  0  0  0  0  0  0  0
    6.0014   -2.3015   27.2688 C   0  0  0  0  0  0  0  0  0  0  0  0
    6.5448   -1.3588   27.3752 H   0  0  0  0  0  0  0  0  0  0  0  0
    4.9507   -2.0739   27.0527 H   0  0  0  0  0  0  0  0  0  0  0  0
    6.0169   -2.8747   28.1939 H   0  0  0  0  0  0  0  0  0  0  0  0
    6.5349   -4.8295   26.1039 S   0  0  0  0  0  0  0  0  0  0  0  0
    7.3054   -4.8096   24.5778 C   0  0  0  0  0  0  0  0  0  0  0  0
    7.5184   -5.7201   24.0333 H   0  0  0  0  0  0  0  0  0  0  0  0
    8.6273   -1.4165   20.9950 C   0  0  0  0  0  0  0  0  0  0  0  0
    8.6607   -2.3093   20.3738 H   0  0  0  0  0  0  0  0  0  0  0  0
    9.5174   -0.8210   20.7540 H   0  0  0  0  0  0  0  0  0  0  0  0
    5.4694    0.6239   20.1941 C   0  0  0  0  0  0  0  0  0  0  0  0
    5.0294    0.6192   21.1900 H   0  0  0  0  0  0  0  0  0  0  0  0
    4.8372    1.2814   19.1331 C   0  0  0  0  0  0  0  0  0  0  0  0
    3.9058    1.8126   19.2820 H   0  0  0  0  0  0  0  0  0  0  0  0
  1  2  1  0
  2  3  2  0
  3  4  1  0
  4  5  1  0
  4  6  2  0
  6  7  1  0
  7  8  1  0
  8  9  1  0
  8 10  1  0
  8 11  1  0
 11 12  1  0
 11 13  1  0
 13 14  2  0
 13 15  1  0
 15 16  1  0
 16 17  2  0
 17 18  1  0
 18 19  1  0
 18 20  1  0
 18 21  1  0
 17 22  1  0
 22 23  1  0
 23 24  1  0
 11 25  1  0
 25 26  1  0
 25 27  1  0
  6 28  1  0
 28 29  1  0
 28 30  2  0
 30 31  1  0
 30  2  1  0
 25  7  1  0
 23 15  2  0
M  END
>  <cnnaffinity>  (1) 
-5.02755

>  <filename>  (1) 
Cc1nc(C(=O)C2CN(c3cccnc3)C2)cs1

$$$$
