
     RDKit          3D

 32 34  0  0  0  0  0  0  0  0999 V2000
    4.9179    1.8223   16.9619 H   0  0  0  0  0  0  0  0  0  0  0  0
    5.3949    1.3140   17.7988 C   0  0  0  0  0  0  0  0  0  0  0  0
    6.5573    0.6991   17.5295 N   0  0  0  0  0  0  0  0  0  0  0  0
    7.1696    0.0675   18.5399 C   0  0  0  0  0  0  0  0  0  0  0  0
    8.1227   -0.3993   18.2935 H   0  0  0  0  0  0  0  0  0  0  0  0
    6.6686    0.0078   19.8562 C   0  0  0  0  0  0  0  0  0  0  0  0
    7.3939   -0.6703   20.9490 C   0  0  0  0  0  0  0  0  0  0  0  0
    7.5357   -0.3265   22.2875 C   0  0  0  0  0  0  0  0  0  0  0  0
    7.0835    0.8349   22.8902 N   0  0  0  0  0  0  0  0  0  0  0  0
    6.9257    1.6022   22.2472 H   0  0  0  0  0  0  0  0  0  0  0  0
    6.8425    1.0151   24.2613 C   0  0  0  0  0  0  0  0  0  0  0  0
    6.3072    0.1186   25.2653 C   0  0  0  0  0  0  0  0  0  0  0  0
    6.0379   -1.3617   25.2430 C   0  0  0  0  0  0  0  0  0  0  0  0
    6.8679   -1.9026   25.7172 H   0  0  0  0  0  0  0  0  0  0  0  0
    5.9043   -1.7456   24.2310 H   0  0  0  0  0  0  0  0  0  0  0  0
    5.1416   -1.6109   25.8108 H   0  0  0  0  0  0  0  0  0  0  0  0
    6.0862    0.7605   26.3841 N   0  0  0  0  0  0  0  0  0  0  0  0
    6.5307    2.0509   26.1870 O   0  0  0  0  0  0  0  0  0  0  0  0
    7.0294    2.1804   24.9481 C   0  0  0  0  0  0  0  0  0  0  0  0
    7.7250    3.4585   24.6014 C   0  0  0  0  0  0  0  0  0  0  0  0
    7.1153    4.0845   23.9378 H   0  0  0  0  0  0  0  0  0  0  0  0
    7.9527    4.0141   25.5136 H   0  0  0  0  0  0  0  0  0  0  0  0
    8.6610    3.2306   24.0754 H   0  0  0  0  0  0  0  0  0  0  0  0
    8.2898   -1.3713   22.8566 C   0  0  0  0  0  0  0  0  0  0  0  0
    8.5780   -1.4600   23.8956 H   0  0  0  0  0  0  0  0  0  0  0  0
    8.5993   -2.3068   21.9626 N   0  0  0  0  0  0  0  0  0  0  0  0
    8.0570   -1.8536   20.8197 N   0  0  0  0  0  0  0  0  0  0  0  0
    8.1334   -2.4133   19.9842 H   0  0  0  0  0  0  0  0  0  0  0  0
    5.4488    0.6564   20.1102 C   0  0  0  0  0  0  0  0  0  0  0  0
    5.0246    0.6318   21.1146 H   0  0  0  0  0  0  0  0  0  0  0  0
    4.7997    1.3160   19.0646 C   0  0  0  0  0  0  0  0  0  0  0  0
    3.8648    1.8408   19.2202 H   0  0  0  0  0  0  0  0  0  0  0  0
  1  2  1  0
  2  3  2  0
  3  4  1  0
  4  5  1  0
  4  6  2  0
  6  7  1  0
  7  8  2  0
  8  9  1  0
  9 10  1  0
  9 11  1  0
 11 12  1  0
 12 13  1  0
 13 14  1  0
 13 15  1  0
 13 16  1  0
 12 17  2  0
 17 18  1  0
 18 19  1  0
 19 20  1  0
 20 21  1  0
 20 22  1  0
 20 23  1  0
  8 24  1  0
 24 25  1  0
 24 26  2  0
 26 27  1  0
 27 28  1  0
  6 29  1  0
 29 30  1  0
 29 31  2  0
 31 32  1  0
 31  2  1  0
 27  7  1  0
 19 11  2  0
M  END
>  <cnnaffinity>  (1) 
-5.41568

>  <filename>  (1) 
Cc1noc(C)c1Nc1cn[nH]c1-c1cccnc1

$$$$
