
     RDKit          3D

 37 40  0  0  0  0  0  0  0  0999 V2000
    4.9882    1.8384   16.9194 H   0  0  0  0  0  0  0  0  0  0  0  0
    5.3893    1.3084   17.7842 C   0  0  0  0  0  0  0  0  0  0  0  0
    6.5421    0.6481   17.5983 N   0  0  0  0  0  0  0  0  0  0  0  0
    7.0746    0.0273   18.6612 C   0  0  0  0  0  0  0  0  0  0  0  0
    8.0096   -0.4976   18.4665 H   0  0  0  0  0  0  0  0  0  0  0  0
    6.4949    0.0030   19.9474 C   0  0  0  0  0  0  0  0  0  0  0  0
    7.2427   -0.5988   21.0714 C   0  0  0  0  0  0  0  0  0  0  0  0
    8.5959   -0.5444   21.3080 C   0  0  0  0  0  0  0  0  0  0  0  0
    8.7973   -1.1254   22.5548 C   0  0  0  0  0  0  0  0  0  0  0  0
    7.6826   -1.5846   23.0902 N   0  0  0  0  0  0  0  0  0  0  0  0
    6.7326   -1.2480   22.1680 N   0  0  0  0  0  0  0  0  0  0  0  0
    5.7694   -1.4884   22.3628 H   0  0  0  0  0  0  0  0  0  0  0  0
   10.2259   -1.0545   23.0039 C   0  0  0  0  0  0  0  0  0  0  0  0
   10.3187   -0.6941   24.0348 H   0  0  0  0  0  0  0  0  0  0  0  0
   10.6931   -2.0438   22.9529 H   0  0  0  0  0  0  0  0  0  0  0  0
   10.8581   -0.0683   21.9582 C   0  0  2  0  0  0  0  0  0  0  0  0
   11.8227   -0.4670   21.6159 H   0  0  0  0  0  0  0  0  0  0  0  0
   11.0716    1.2924   22.5461 C   0  0  0  0  0  0  0  0  0  0  0  0
   12.3204    1.9013   22.8753 C   0  0  0  0  0  0  0  0  0  0  0  0
   13.6736    1.2689   22.8421 C   0  0  0  0  0  0  0  0  0  0  0  0
   13.7692    0.5911   23.6988 H   0  0  0  0  0  0  0  0  0  0  0  0
   14.4520    2.0334   22.8993 H   0  0  0  0  0  0  0  0  0  0  0  0
   13.8352    0.6668   21.9437 H   0  0  0  0  0  0  0  0  0  0  0  0
   12.1578    3.1066   23.3482 N   0  0  0  0  0  0  0  0  0  0  0  0
   10.7919    3.3139   23.3806 O   0  0  0  0  0  0  0  0  0  0  0  0
   10.1507    2.2195   22.9407 C   0  0  0  0  0  0  0  0  0  0  0  0
    8.6580    2.1840   23.0373 C   0  0  0  0  0  0  0  0  0  0  0  0
    8.3550    1.3124   23.6332 H   0  0  0  0  0  0  0  0  0  0  0  0
    8.2144    2.0558   22.0434 H   0  0  0  0  0  0  0  0  0  0  0  0
    8.2727    3.0970   23.5002 H   0  0  0  0  0  0  0  0  0  0  0  0
    9.8679   -0.0155   20.7470 C   0  0  0  0  0  0  0  0  0  0  0  0
    9.7611    0.9947   20.3287 H   0  0  0  0  0  0  0  0  0  0  0  0
   10.2279   -0.6771   19.9563 H   0  0  0  0  0  0  0  0  0  0  0  0
    5.2684    0.6697   20.1070 C   0  0  0  0  0  0  0  0  0  0  0  0
    4.7749    0.6924   21.0804 H   0  0  0  0  0  0  0  0  0  0  0  0
    4.7184    1.3375   19.0122 C   0  0  0  0  0  0  0  0  0  0  0  0
    3.7997    1.9045   19.1007 H   0  0  0  0  0  0  0  0  0  0  0  0
  1  2  1  0
  2  3  2  0
  3  4  1  0
  4  5  1  0
  4  6  2  0
  6  7  1  0
  7  8  2  0
  8  9  1  0
  9 10  2  0
 10 11  1  0
 11 12  1  0
  9 13  1  0
 13 14  1  0
 13 15  1  0
 13 16  1  0
 16 17  1  6
 16 18  1  0
 18 19  1  0
 19 20  1  0
 20 21  1  0
 20 22  1  0
 20 23  1  0
 19 24  2  0
 24 25  1  0
 25 26  1  0
 26 27  1  0
 27 28  1  0
 27 29  1  0
 27 30  1  0
 16 31  1  0
 31 32  1  0
 31 33  1  0
  6 34  1  0
 34 35  1  0
 34 36  2  0
 36 37  1  0
 36  2  1  0
 11  7  1  0
 26 18  2  0
 31  8  1  0
M  END
>  <cnnaffinity>  (1) 
-5.77502

>  <filename>  (1) 
Cc1noc(C)c1[C@H]1Cc2n[nH]c(-c3cccnc3)c2C1

$$$$
