
     RDKit          3D

 33 35  0  0  0  0  0  0  0  0999 V2000
    8.8572   -3.1905   21.7837 C   0  0  0  0  0  0  0  0  0  0  0  0
    8.0715   -1.9610   22.0517 C   0  0  0  0  0  0  0  0  0  0  0  0
    8.1452   -1.4621   23.2816 N   0  0  0  0  0  0  0  0  0  0  0  0
    7.5241   -0.3181   23.5339 C   0  0  0  0  0  0  0  0  0  0  0  0
    7.7006    0.4089   25.1284 S   0  0  0  0  0  0  0  0  0  0  0  0
    9.1853    1.2948   24.8005 C   0  0  0  0  0  0  0  0  0  0  0  0
    9.1133    2.6150   24.3404 C   0  0  0  0  0  0  0  0  0  0  0  0
   10.2744    3.2881   23.9366 C   0  0  0  0  0  0  0  0  0  0  0  0
   11.5086    2.6273   23.9941 C   0  0  0  0  0  0  0  0  0  0  0  0
   11.5897    1.3133   24.4711 C   0  0  0  0  0  0  0  0  0  0  0  0
   13.2785    0.4279   24.5474 Br  0  0  0  0  0  0  0  0  0  0  0  0
   10.4255    0.6484   24.8724 C   0  0  0  0  0  0  0  0  0  0  0  0
   10.4813   -0.3830   25.2106 H   0  0  0  0  0  0  0  0  0  0  0  0
   12.4145    3.1278   23.6653 H   0  0  0  0  0  0  0  0  0  0  0  0
   10.2197    4.3108   23.5673 H   0  0  0  0  0  0  0  0  0  0  0  0
    8.1438    3.0979   24.2653 H   0  0  0  0  0  0  0  0  0  0  0  0
    6.8264    0.3408   22.5399 C   0  0  0  0  0  0  0  0  0  0  0  0
    6.8396   -0.2062   21.2722 C   0  0  0  0  0  0  0  0  0  0  0  0
    6.2559    0.4508   20.1231 C   0  0  0  0  0  0  0  0  0  0  0  0
    5.1048    1.2491   20.1318 C   0  0  0  0  0  0  0  0  0  0  0  0
    4.6549    1.7170   18.8963 C   0  0  0  0  0  0  0  0  0  0  0  0
    5.3512    1.4053   17.7248 C   0  0  0  0  0  0  0  0  0  0  0  0
    6.4697    0.6655   17.7342 N   0  0  0  0  0  0  0  0  0  0  0  0
    6.9082    0.2119   18.9133 C   0  0  0  0  0  0  0  0  0  0  0  0
    7.8282   -0.3604   18.9328 H   0  0  0  0  0  0  0  0  0  0  0  0
    4.9746    1.7536   16.7674 H   0  0  0  0  0  0  0  0  0  0  0  0
    3.7698    2.3384   18.8270 H   0  0  0  0  0  0  0  0  0  0  0  0
    4.5608    1.4909   21.0451 H   0  0  0  0  0  0  0  0  0  0  0  0
    7.4619   -1.3580   21.0386 N   0  0  0  0  0  0  0  0  0  0  0  0
    6.3392    1.2821   22.7510 H   0  0  0  0  0  0  0  0  0  0  0  0
    9.7652   -2.9278   21.2453 H   0  0  0  0  0  0  0  0  0  0  0  0
    8.2873   -3.9138   21.1928 H   0  0  0  0  0  0  0  0  0  0  0  0
    9.1428   -3.6525   22.7275 H   0  0  0  0  0  0  0  0  0  0  0  0
  1  2  1  0
  2  3  2  0
  3  4  1  0
  4  5  1  0
  5  6  1  0
  6  7  2  0
  7  8  1  0
  8  9  2  0
  9 10  1  0
 10 11  1  0
 10 12  2  0
 12 13  1  0
  9 14  1  0
  8 15  1  0
  7 16  1  0
  4 17  2  0
 17 18  1  0
 18 19  1  0
 19 20  2  0
 20 21  1  0
 21 22  2  0
 22 23  1  0
 23 24  2  0
 24 25  1  0
 22 26  1  0
 21 27  1  0
 20 28  1  0
 18 29  2  0
 17 30  1  0
  1 31  1  0
  1 32  1  0
  1 33  1  0
 29  2  1  0
 12  6  1  0
 24 19  1  0
M  END
>  <cnnaffinity>  (1) 
-5.75326

>  <filename>  (1) 
Cc1nc(Sc2cccc(Br)c2)cc(-c2cccnc2)n1

$$$$
