
     RDKit          3D

 36 37  0  0  0  0  0  0  0  0999 V2000
    9.8217   -0.6359   27.6685 H   0  0  0  0  0  0  0  0  0  0  0  0
   10.3931   -0.3652   26.9309 O   0  0  0  0  0  0  0  0  0  0  0  0
    9.5022    0.3598   26.2288 C   0  0  0  0  0  0  0  0  0  0  0  0
    8.3491    0.4141   26.5906 O   0  0  0  0  0  0  0  0  0  0  0  0
   10.1038    1.0519   25.0724 C   0  0  0  0  0  0  0  0  0  0  0  0
    9.5168    1.7402   24.0136 C   0  0  0  0  0  0  0  0  0  0  0  0
    8.0667    1.9720   23.6720 C   0  0  0  0  0  0  0  0  0  0  0  0
    7.8538    3.0488   23.6188 H   0  0  0  0  0  0  0  0  0  0  0  0
    7.4652    1.5785   24.4996 H   0  0  0  0  0  0  0  0  0  0  0  0
    7.6466    1.3529   22.4107 N   0  0  0  0  0  0  0  0  0  0  0  0
    7.5581    1.9077   21.5759 H   0  0  0  0  0  0  0  0  0  0  0  0
    7.7877    0.0014   22.2495 C   0  0  0  0  0  0  0  0  0  0  0  0
    8.2188   -0.7030   23.1534 O   0  0  0  0  0  0  0  0  0  0  0  0
    7.4229   -0.5502   21.0079 N   0  0  0  0  0  0  0  0  0  0  0  0
    6.7436    0.1286   19.9331 C   0  0  0  0  0  0  0  0  0  0  0  0
    7.2257    0.1099   18.5991 C   0  0  0  0  0  0  0  0  0  0  0  0
    8.1672   -0.3877   18.3687 H   0  0  0  0  0  0  0  0  0  0  0  0
    6.6065    0.6916   17.5620 N   0  0  0  0  0  0  0  0  0  0  0  0
    5.4344    1.3024   17.8011 C   0  0  0  0  0  0  0  0  0  0  0  0
    4.9509    1.7720   16.9455 H   0  0  0  0  0  0  0  0  0  0  0  0
    4.8450    1.3521   19.0691 C   0  0  0  0  0  0  0  0  0  0  0  0
    3.8938    1.8588   19.2025 H   0  0  0  0  0  0  0  0  0  0  0  0
    5.5132    0.7685   20.1547 C   0  0  0  0  0  0  0  0  0  0  0  0
    5.1060    0.8043   21.1656 H   0  0  0  0  0  0  0  0  0  0  0  0
    7.6628   -1.9963   20.8633 C   0  0  0  0  0  0  0  0  0  0  0  0
    6.9604   -2.4135   20.1411 H   0  0  0  0  0  0  0  0  0  0  0  0
    8.6837   -2.2175   20.5290 H   0  0  0  0  0  0  0  0  0  0  0  0
    7.5202   -2.5121   21.8179 H   0  0  0  0  0  0  0  0  0  0  0  0
   10.6078    2.1876   23.2424 C   0  0  0  0  0  0  0  0  0  0  0  0
   10.5508    3.0423   22.0238 C   0  0  0  0  0  0  0  0  0  0  0  0
   10.2173    2.4609   21.1532 H   0  0  0  0  0  0  0  0  0  0  0  0
    9.8282    3.8516   22.1919 H   0  0  0  0  0  0  0  0  0  0  0  0
   11.5333    3.4791   21.8263 H   0  0  0  0  0  0  0  0  0  0  0  0
   11.7629    1.8119   23.7795 N   0  0  0  0  0  0  0  0  0  0  0  0
   11.4481    1.1255   24.8731 N   0  0  0  0  0  0  0  0  0  0  0  0
   12.2037    0.7603   25.4431 H   0  0  0  0  0  0  0  0  0  0  0  0
  1  2  1  0
  2  3  1  0
  3  4  2  0
  3  5  1  0
  5  6  2  0
  6  7  1  0
  7  8  1  0
  7  9  1  0
  7 10  1  0
 10 11  1  0
 10 12  1  0
 12 13  2  0
 12 14  1  0
 14 15  1  0
 15 16  2  0
 16 17  1  0
 16 18  1  0
 18 19  2  0
 19 20  1  0
 19 21  1  0
 21 22  1  0
 21 23  2  0
 23 24  1  0
 14 25  1  0
 25 26  1  0
 25 27  1  0
 25 28  1  0
  6 29  1  0
 29 30  1  0
 30 31  1  0
 30 32  1  0
 30 33  1  0
 29 34  2  0
 34 35  1  0
 35 36  1  0
 35  5  1  0
 23 15  1  0
M  END
>  <cnnaffinity>  (1) 
-4.87984

>  <filename>  (1) 
Cc1n[nH]c(C(=O)O)c1CNC(=O)N(C)c1cccnc1

$$$$
