
     RDKit          3D

 26 27  0  0  0  0  0  0  0  0999 V2000
    5.0102    1.7120   16.8795 H   0  0  0  0  0  0  0  0  0  0  0  0
    5.4567    1.2382   17.7542 C   0  0  0  0  0  0  0  0  0  0  0  0
    6.6171    0.5902   17.5630 N   0  0  0  0  0  0  0  0  0  0  0  0
    7.1901   -0.0155   18.6140 C   0  0  0  0  0  0  0  0  0  0  0  0
    8.1362   -0.5257   18.4182 H   0  0  0  0  0  0  0  0  0  0  0  0
    6.6448   -0.0004   19.9226 C   0  0  0  0  0  0  0  0  0  0  0  0
    7.2388   -0.6481   21.0469 N   0  0  0  0  0  0  0  0  0  0  0  0
    7.9741   -1.3234   20.9449 H   0  0  0  0  0  0  0  0  0  0  0  0
    7.4282   -0.1281   22.2845 C   0  0  0  0  0  0  0  0  0  0  0  0
    6.8891    0.9448   22.7105 N   0  0  0  0  0  0  0  0  0  0  0  0
    7.2459    1.4184   23.9154 C   0  0  0  0  0  0  0  0  0  0  0  0
    7.9943    0.9749   24.8960 N   0  0  0  0  0  0  0  0  0  0  0  0
    7.9358    1.9307   25.9053 N   0  0  0  0  0  0  0  0  0  0  0  0
    7.1714    2.8652   25.4678 C   0  0  0  0  0  0  0  0  0  0  0  0
    6.7269    4.1280   26.1223 C   0  0  0  0  0  0  0  0  0  0  0  0
    5.7210    4.3632   25.7757 H   0  0  0  0  0  0  0  0  0  0  0  0
    6.7217    4.0351   27.2084 H   0  0  0  0  0  0  0  0  0  0  0  0
    7.3758    4.9614   25.8382 H   0  0  0  0  0  0  0  0  0  0  0  0
    6.7093    2.6296   24.2243 O   0  0  0  0  0  0  0  0  0  0  0  0
    8.2387   -0.9782   22.9734 N   0  0  0  0  0  0  0  0  0  0  0  0
    8.3035   -0.6725   23.9368 H   0  0  0  0  0  0  0  0  0  0  0  0
    7.7967   -1.8736   22.8810 H   0  0  0  0  0  0  0  0  0  0  0  0
    5.4356    0.6837   20.1003 C   0  0  0  0  0  0  0  0  0  0  0  0
    5.0131    0.7319   21.0998 H   0  0  0  0  0  0  0  0  0  0  0  0
    4.8283    1.2970   18.9998 C   0  0  0  0  0  0  0  0  0  0  0  0
    3.8887    1.8241   19.1071 H   0  0  0  0  0  0  0  0  0  0  0  0
  1  2  1  0
  2  3  2  0
  3  4  1  0
  4  5  1  0
  4  6  2  0
  6  7  1  0
  7  8  1  0
  7  9  1  0
  9 10  2  3
 10 11  1  0
 11 12  2  0
 12 13  1  0
 13 14  2  0
 14 15  1  0
 15 16  1  0
 15 17  1  0
 15 18  1  0
 14 19  1  0
  9 20  1  0
 20 21  1  0
 20 22  1  0
  6 23  1  0
 23 24  1  0
 23 25  2  0
 25 26  1  0
 25  2  1  0
 19 11  1  0
M  END
>  <cnnaffinity>  (1) 
-4.39617

>  <filename>  (1) 
Cc1nnc(N=C(N)Nc2cccnc2)o1

$$$$
