
     RDKit          3D

 29 32  0  0  0  0  0  0  0  0999 V2000
    4.9198    1.7716   17.0046 H   0  0  0  0  0  0  0  0  0  0  0  0
    5.4090    1.2861   17.8472 C   0  0  0  0  0  0  0  0  0  0  0  0
    6.5747    0.6702   17.5939 N   0  0  0  0  0  0  0  0  0  0  0  0
    7.1823    0.0539   18.6139 C   0  0  0  0  0  0  0  0  0  0  0  0
    8.1283   -0.4341   18.3836 H   0  0  0  0  0  0  0  0  0  0  0  0
    6.6493    0.0137   19.9092 C   0  0  0  0  0  0  0  0  0  0  0  0
    7.3646   -0.6910   20.9664 C   0  0  0  0  0  0  0  0  0  0  0  0
    8.5506   -1.3295   20.7519 N   0  0  0  0  0  0  0  0  0  0  0  0
    8.8080   -1.8044   21.9551 C   0  0  0  0  0  0  0  0  0  0  0  0
   10.0386   -2.7378   22.7539 S   0  0  0  0  0  0  0  0  0  0  0  0
    9.1533   -2.6296   24.2425 C   0  0  0  0  0  0  0  0  0  0  0  0
    9.5743   -3.1135   25.1161 H   0  0  0  0  0  0  0  0  0  0  0  0
    7.9960   -1.9253   24.1454 C   0  0  0  0  0  0  0  0  0  0  0  0
    7.0217   -1.6439   25.2152 C   0  0  0  0  0  0  0  0  0  0  0  0
    5.8690   -0.9046   25.0135 N   0  0  0  0  0  0  0  0  0  0  0  0
    5.1711   -0.8096   26.0900 C   0  0  0  0  0  0  0  0  0  0  0  0
    3.8474   -0.1121   26.1580 C   0  0  0  0  0  0  0  0  0  0  0  0
    3.6827    0.3496   27.1328 H   0  0  0  0  0  0  0  0  0  0  0  0
    3.0422   -0.8335   25.9819 H   0  0  0  0  0  0  0  0  0  0  0  0
    3.7918    0.6493   25.3779 H   0  0  0  0  0  0  0  0  0  0  0  0
    5.8707   -1.6025   27.4782 S   0  0  0  0  0  0  0  0  0  0  0  0
    7.1832   -2.0976   26.4987 C   0  0  0  0  0  0  0  0  0  0  0  0
    7.9963   -2.6862   26.8980 H   0  0  0  0  0  0  0  0  0  0  0  0
    7.8374   -1.4753   22.8305 N   0  0  0  0  0  0  0  0  0  0  0  0
    6.8875   -0.7486   22.2018 N   0  0  0  0  0  0  0  0  0  0  0  0
    5.4294    0.6573   20.1653 C   0  0  0  0  0  0  0  0  0  0  0  0
    5.0031    0.6312   21.1719 H   0  0  0  0  0  0  0  0  0  0  0  0
    4.8043    1.3105   19.1103 C   0  0  0  0  0  0  0  0  0  0  0  0
    3.8733    1.8439   19.2623 H   0  0  0  0  0  0  0  0  0  0  0  0
  1  2  1  0
  2  3  2  0
  3  4  1  0
  4  5  1  0
  4  6  2  0
  6  7  1  0
  7  8  1  0
  8  9  2  0
  9 10  1  0
 10 11  1  0
 11 12  1  0
 11 13  2  0
 13 14  1  0
 14 15  1  0
 15 16  2  0
 16 17  1  0
 17 18  1  0
 17 19  1  0
 17 20  1  0
 16 21  1  0
 21 22  1  0
 22 23  1  0
 13 24  1  0
 24 25  1  0
  6 26  1  0
 26 27  1  0
 26 28  2  0
 28 29  1  0
 28  2  1  0
 25  7  2  0
 24  9  1  0
 22 14  2  0
M  END
>  <cnnaffinity>  (1) 
-5.55843

>  <filename>  (1) 
Cc1nc(-c2csc3nc(-c4cccnc4)nn23)cs1

$$$$
