
     RDKit          3D

 29 31  0  0  0  0  0  0  0  0999 V2000
    4.9103    1.7747   17.0023 H   0  0  0  0  0  0  0  0  0  0  0  0
    5.4019    1.2929   17.8440 C   0  0  0  0  0  0  0  0  0  0  0  0
    6.5663    0.6758   17.5832 N   0  0  0  0  0  0  0  0  0  0  0  0
    7.1766    0.0548   18.5994 C   0  0  0  0  0  0  0  0  0  0  0  0
    8.1263   -0.4299   18.3842 H   0  0  0  0  0  0  0  0  0  0  0  0
    6.6446   -0.0085   19.9016 C   0  0  0  0  0  0  0  0  0  0  0  0
    7.3283   -0.7192   20.9464 N   0  0  0  0  0  0  0  0  0  0  0  0
    6.5709   -1.6075   21.6579 N   0  0  0  0  0  0  0  0  0  0  0  0
    7.1476   -2.2923   22.6264 C   0  0  0  0  0  0  0  0  0  0  0  0
    6.3082   -3.2722   23.3811 C   0  0  0  0  0  0  0  0  0  0  0  0
    6.8307   -4.0394   24.4195 N   0  0  0  0  0  0  0  0  0  0  0  0
    5.9244   -4.8095   24.9351 C   0  0  0  0  0  0  0  0  0  0  0  0
    6.1460   -5.7225   26.1029 C   0  0  0  0  0  0  0  0  0  0  0  0
    7.1974   -6.0115   26.1515 H   0  0  0  0  0  0  0  0  0  0  0  0
    5.8944   -5.1979   27.0327 H   0  0  0  0  0  0  0  0  0  0  0  0
    5.5276   -6.6218   26.0437 H   0  0  0  0  0  0  0  0  0  0  0  0
    4.3563   -4.6689   24.1788 S   0  0  0  0  0  0  0  0  0  0  0  0
    4.9917   -3.4910   23.1077 C   0  0  0  0  0  0  0  0  0  0  0  0
    4.4035   -2.9944   22.3504 H   0  0  0  0  0  0  0  0  0  0  0  0
    8.5376   -2.1104   22.9721 C   0  0  0  0  0  0  0  0  0  0  0  0
    8.9777   -2.6898   23.7813 H   0  0  0  0  0  0  0  0  0  0  0  0
    9.2760   -1.2040   22.2804 C   0  0  0  0  0  0  0  0  0  0  0  0
   10.3161   -1.0005   22.4822 H   0  0  0  0  0  0  0  0  0  0  0  0
    8.7125   -0.4062   21.2055 C   0  0  0  0  0  0  0  0  0  0  0  0
    9.3267    0.4314   20.5679 O   0  0  0  0  0  0  0  0  0  0  0  0
    5.4384    0.6455   20.1645 C   0  0  0  0  0  0  0  0  0  0  0  0
    5.0164    0.6110   21.1683 H   0  0  0  0  0  0  0  0  0  0  0  0
    4.8078    1.3156   19.1126 C   0  0  0  0  0  0  0  0  0  0  0  0
    3.8721    1.8461   19.2667 H   0  0  0  0  0  0  0  0  0  0  0  0
  1  2  1  0
  2  3  2  0
  3  4  1  0
  4  5  1  0
  4  6  2  0
  6  7  1  0
  7  8  1  0
  8  9  2  0
  9 10  1  0
 10 11  1  0
 11 12  2  0
 12 13  1  0
 13 14  1  0
 13 15  1  0
 13 16  1  0
 12 17  1  0
 17 18  1  0
 18 19  1  0
  9 20  1  0
 20 21  1  0
 20 22  2  0
 22 23  1  0
 22 24  1  0
 24 25  2  0
  6 26  1  0
 26 27  1  0
 26 28  2  0
 28 29  1  0
 28  2  1  0
 24  7  1  0
 18 10  2  0
M  END
>  <cnnaffinity>  (1) 
-5.21808

>  <filename>  (1) 
Cc1nc(-c2ccc(=O)n(-c3cccnc3)n2)cs1

$$$$
