
     RDKit          3D

 31 32  0  0  0  0  0  0  0  0999 V2000
    8.1762   -3.7369   26.2216 H   0  0  0  0  0  0  0  0  0  0  0  0
    8.3018   -2.7711   26.2395 O   0  0  0  0  0  0  0  0  0  0  0  0
    8.7122   -2.5897   24.9710 C   0  0  0  0  0  0  0  0  0  0  0  0
    8.8102   -3.5526   24.2439 O   0  0  0  0  0  0  0  0  0  0  0  0
    9.0039   -1.1781   24.6407 C   0  0  0  0  0  0  0  0  0  0  0  0
    9.3846   -0.5971   23.4320 C   0  0  0  0  0  0  0  0  0  0  0  0
    9.5985   -1.2048   22.0711 C   0  0  0  0  0  0  0  0  0  0  0  0
   10.6475   -1.1065   21.7674 H   0  0  0  0  0  0  0  0  0  0  0  0
    9.3717   -2.2751   22.1400 H   0  0  0  0  0  0  0  0  0  0  0  0
    8.7625   -0.5932   21.0262 N   0  0  0  0  0  0  0  0  0  0  0  0
    9.1800    0.0417   20.3682 H   0  0  0  0  0  0  0  0  0  0  0  0
    7.4253   -0.7154   20.9920 C   0  0  0  0  0  0  0  0  0  0  0  0
    6.6033   -1.6780   22.0619 S   0  0  0  0  0  0  0  0  0  0  0  0
    6.7194    0.0538   19.9227 C   0  0  0  0  0  0  0  0  0  0  0  0
    7.2122    0.0807   18.6109 C   0  0  0  0  0  0  0  0  0  0  0  0
    8.1364   -0.4291   18.3397 H   0  0  0  0  0  0  0  0  0  0  0  0
    6.5769    0.6661   17.5891 N   0  0  0  0  0  0  0  0  0  0  0  0
    5.4151    1.2831   17.8455 C   0  0  0  0  0  0  0  0  0  0  0  0
    4.9327    1.7732   17.0012 H   0  0  0  0  0  0  0  0  0  0  0  0
    4.8287    1.3051   19.1140 C   0  0  0  0  0  0  0  0  0  0  0  0
    3.8916    1.8247   19.2608 H   0  0  0  0  0  0  0  0  0  0  0  0
    5.4762    0.6639   20.1677 C   0  0  0  0  0  0  0  0  0  0  0  0
    5.0256    0.6164   21.1614 H   0  0  0  0  0  0  0  0  0  0  0  0
    9.5203    0.7773   23.7228 C   0  0  0  0  0  0  0  0  0  0  0  0
    9.9124    1.8712   22.7802 C   0  0  0  0  0  0  0  0  0  0  0  0
    9.0729    2.1292   22.1270 H   0  0  0  0  0  0  0  0  0  0  0  0
   10.7384    1.5533   22.1373 H   0  0  0  0  0  0  0  0  0  0  0  0
   10.2159    2.7694   23.3176 H   0  0  0  0  0  0  0  0  0  0  0  0
    9.2458    1.0164   24.9985 N   0  0  0  0  0  0  0  0  0  0  0  0
    8.9323   -0.1591   25.5402 N   0  0  0  0  0  0  0  0  0  0  0  0
    8.6847   -0.1757   26.5280 H   0  0  0  0  0  0  0  0  0  0  0  0
  1  2  1  0
  2  3  1  0
  3  4  2  0
  3  5  1  0
  5  6  2  0
  6  7  1  0
  7  8  1  0
  7  9  1  0
  7 10  1  0
 10 11  1  0
 10 12  1  0
 12 13  2  0
 12 14  1  0
 14 15  2  0
 15 16  1  0
 15 17  1  0
 17 18  2  0
 18 19  1  0
 18 20  1  0
 20 21  1  0
 20 22  2  0
 22 23  1  0
  6 24  1  0
 24 25  1  0
 25 26  1  0
 25 27  1  0
 25 28  1  0
 24 29  2  0
 29 30  1  0
 30 31  1  0
 30  5  1  0
 22 14  1  0
M  END
>  <cnnaffinity>  (1) 
-5.0927

>  <filename>  (1) 
Cc1n[nH]c(C(=O)O)c1CNC(=S)c1cccnc1

$$$$
