
     RDKit          3D

 36 38  0  0  0  0  0  0  0  0999 V2000
   10.3040   -0.7783   27.8002 H   0  0  0  0  0  0  0  0  0  0  0  0
   10.7362   -0.2201   27.1299 O   0  0  0  0  0  0  0  0  0  0  0  0
    9.6639    0.0875   26.3930 C   0  0  0  0  0  0  0  0  0  0  0  0
    8.5893   -0.3988   26.6692 O   0  0  0  0  0  0  0  0  0  0  0  0
    9.9577    1.0035   25.2786 C   0  0  0  0  0  0  0  0  0  0  0  0
    9.0884    1.5636   24.3431 C   0  0  0  0  0  0  0  0  0  0  0  0
    7.5940    1.3525   24.1913 C   0  0  0  0  0  0  0  0  0  0  0  0
    7.2856    0.6242   24.9519 H   0  0  0  0  0  0  0  0  0  0  0  0
    7.0309    2.2687   24.4200 H   0  0  0  0  0  0  0  0  0  0  0  0
    7.1529    0.9028   22.8787 N   0  0  0  0  0  0  0  0  0  0  0  0
    7.0523    1.6299   22.1866 H   0  0  0  0  0  0  0  0  0  0  0  0
    7.6154   -0.2863   22.2957 C   0  0  0  0  0  0  0  0  0  0  0  0
    8.3438   -1.3743   22.8634 C   0  0  0  0  0  0  0  0  0  0  0  0
    8.7341   -1.4674   23.8741 H   0  0  0  0  0  0  0  0  0  0  0  0
    8.5371   -2.3445   21.9705 N   0  0  0  0  0  0  0  0  0  0  0  0
    7.9600   -1.8912   20.8474 N   0  0  0  0  0  0  0  0  0  0  0  0
    7.8865   -2.5127   20.0517 H   0  0  0  0  0  0  0  0  0  0  0  0
    7.3793   -0.6648   20.9737 C   0  0  0  0  0  0  0  0  0  0  0  0
    6.6663    0.0211   19.8680 C   0  0  0  0  0  0  0  0  0  0  0  0
    7.1638    0.0755   18.5449 C   0  0  0  0  0  0  0  0  0  0  0  0
    8.1133   -0.3914   18.2813 H   0  0  0  0  0  0  0  0  0  0  0  0
    6.5542    0.7010   17.5288 N   0  0  0  0  0  0  0  0  0  0  0  0
    5.3911    1.3205   17.7902 C   0  0  0  0  0  0  0  0  0  0  0  0
    4.9181    1.8334   16.9530 H   0  0  0  0  0  0  0  0  0  0  0  0
    4.7966    1.3227   19.0544 C   0  0  0  0  0  0  0  0  0  0  0  0
    3.8558    1.8397   19.1991 H   0  0  0  0  0  0  0  0  0  0  0  0
    5.4416    0.6717   20.1073 C   0  0  0  0  0  0  0  0  0  0  0  0
    5.0057    0.6496   21.1071 H   0  0  0  0  0  0  0  0  0  0  0  0
    9.9344    2.2847   23.4708 C   0  0  0  0  0  0  0  0  0  0  0  0
    9.5796    3.1272   22.2858 C   0  0  0  0  0  0  0  0  0  0  0  0
    9.4007    2.5182   21.3900 H   0  0  0  0  0  0  0  0  0  0  0  0
   10.4251    3.7877   22.0885 H   0  0  0  0  0  0  0  0  0  0  0  0
    8.6874    3.7371   22.4696 H   0  0  0  0  0  0  0  0  0  0  0  0
   11.2071    2.1745   23.8453 N   0  0  0  0  0  0  0  0  0  0  0  0
   11.2070    1.3963   24.9251 N   0  0  0  0  0  0  0  0  0  0  0  0
   12.0921    1.1850   25.3741 H   0  0  0  0  0  0  0  0  0  0  0  0
  1  2  1  0
  2  3  1  0
  3  4  2  0
  3  5  1  0
  5  6  2  0
  6  7  1  0
  7  8  1  0
  7  9  1  0
  7 10  1  0
 10 11  1  0
 10 12  1  0
 12 13  1  0
 13 14  1  0
 13 15  2  0
 15 16  1  0
 16 17  1  0
 16 18  1  0
 18 19  1  0
 19 20  2  0
 20 21  1  0
 20 22  1  0
 22 23  2  0
 23 24  1  0
 23 25  1  0
 25 26  1  0
 25 27  2  0
 27 28  1  0
  6 29  1  0
 29 30  1  0
 30 31  1  0
 30 32  1  0
 30 33  1  0
 29 34  2  0
 34 35  1  0
 35 36  1  0
 35  5  1  0
 18 12  2  0
 27 19  1  0
M  END
>  <cnnaffinity>  (1) 
-5.3105

>  <filename>  (1) 
Cc1n[nH]c(C(=O)O)c1CNc1cn[nH]c1-c1cccnc1

$$$$
