
     RDKit          3D

 42 44  0  0  0  0  0  0  0  0999 V2000
    7.9429    1.2827   27.2060 H   0  0  0  0  0  0  0  0  0  0  0  0
    7.4936    0.4620   26.9386 O   0  0  0  0  0  0  0  0  0  0  0  0
    8.2440    0.1898   25.8571 C   0  0  0  0  0  0  0  0  0  0  0  0
    9.1452    0.9458   25.5704 O   0  0  0  0  0  0  0  0  0  0  0  0
    7.8509   -1.0325   25.1273 C   0  0  0  0  0  0  0  0  0  0  0  0
    8.3006   -1.5252   23.9025 C   0  0  0  0  0  0  0  0  0  0  0  0
    9.1662   -0.8181   22.8920 C   0  0  0  0  0  0  0  0  0  0  0  0
    9.8896   -0.2073   23.4471 H   0  0  0  0  0  0  0  0  0  0  0  0
    9.7634   -1.5381   22.3127 H   0  0  0  0  0  0  0  0  0  0  0  0
    8.4014    0.1190   21.9080 C   0  0  2  0  0  0  0  0  0  0  0  0
    7.3940   -0.7059   21.0328 C   0  0  0  0  0  0  0  0  0  0  0  0
    6.6392   -1.1390   21.7041 H   0  0  0  0  0  0  0  0  0  0  0  0
    7.9569   -1.5446   20.5960 H   0  0  0  0  0  0  0  0  0  0  0  0
    6.6713    0.0207   19.9151 C   0  0  0  0  0  0  0  0  0  0  0  0
    7.1745    0.0651   18.5980 C   0  0  0  0  0  0  0  0  0  0  0  0
    8.1022   -0.4570   18.3568 H   0  0  0  0  0  0  0  0  0  0  0  0
    6.5871    0.6874   17.5650 N   0  0  0  0  0  0  0  0  0  0  0  0
    5.4319    1.3213   17.8105 C   0  0  0  0  0  0  0  0  0  0  0  0
    4.9745    1.8399   16.9678 H   0  0  0  0  0  0  0  0  0  0  0  0
    4.8189    1.3293   19.0672 C   0  0  0  0  0  0  0  0  0  0  0  0
    3.8793    1.8522   19.1981 H   0  0  0  0  0  0  0  0  0  0  0  0
    5.4442    0.6688   20.1305 C   0  0  0  0  0  0  0  0  0  0  0  0
    4.9875    0.6655   21.1228 H   0  0  0  0  0  0  0  0  0  0  0  0
    9.4148    0.8859   21.0281 C   0  0  0  0  0  0  0  0  0  0  0  0
    9.6217    0.3255   20.1067 H   0  0  0  0  0  0  0  0  0  0  0  0
   10.3836    0.9985   21.5573 H   0  0  0  0  0  0  0  0  0  0  0  0
    8.7661    2.1496   20.7183 N   0  0  0  0  0  0  0  0  0  0  0  0
    9.4082    2.9034   20.5074 H   0  0  0  0  0  0  0  0  0  0  0  0
    7.7929    2.5065   21.7443 C   0  0  0  0  0  0  0  0  0  0  0  0
    6.8290    2.7330   21.2733 H   0  0  0  0  0  0  0  0  0  0  0  0
    8.0783    3.4020   22.3190 H   0  0  0  0  0  0  0  0  0  0  0  0
    7.7107    1.2806   22.6631 C   0  0  0  0  0  0  0  0  0  0  0  0
    8.2774    1.4986   23.5726 H   0  0  0  0  0  0  0  0  0  0  0  0
    6.6813    1.0456   22.9562 H   0  0  0  0  0  0  0  0  0  0  0  0
    7.6244   -2.7626   23.7594 C   0  0  0  0  0  0  0  0  0  0  0  0
    7.7202   -3.7361   22.6207 C   0  0  0  0  0  0  0  0  0  0  0  0
    7.5944   -4.7626   22.9746 H   0  0  0  0  0  0  0  0  0  0  0  0
    6.9343   -3.5404   21.8806 H   0  0  0  0  0  0  0  0  0  0  0  0
    8.6841   -3.6578   22.1065 H   0  0  0  0  0  0  0  0  0  0  0  0
    6.8082   -2.9869   24.7854 N   0  0  0  0  0  0  0  0  0  0  0  0
    6.9491   -1.9389   25.5996 N   0  0  0  0  0  0  0  0  0  0  0  0
    6.3669   -1.8885   26.4275 H   0  0  0  0  0  0  0  0  0  0  0  0
  1  2  1  0
  2  3  1  0
  3  4  2  0
  3  5  1  0
  5  6  2  0
  6  7  1  0
  7  8  1  0
  7  9  1  0
 10  7  1  1
 10 11  1  0
 11 12  1  0
 11 13  1  0
 11 14  1  0
 14 15  2  0
 15 16  1  0
 15 17  1  0
 17 18  2  0
 18 19  1  0
 18 20  1  0
 20 21  1  0
 20 22  2  0
 22 23  1  0
 10 24  1  0
 24 25  1  0
 24 26  1  0
 24 27  1  0
 27 28  1  0
 27 29  1  0
 29 30  1  0
 29 31  1  0
 29 32  1  0
 32 33  1  0
 32 34  1  0
  6 35  1  0
 35 36  1  0
 36 37  1  0
 36 38  1  0
 36 39  1  0
 35 40  2  0
 40 41  1  0
 41 42  1  0
 41  5  1  0
 32 10  1  0
 22 14  1  0
M  END
>  <cnnaffinity>  (1) 
-4.95957

>  <filename>  (1) 
Cc1n[nH]c(C(=O)O)c1C[C@@]1(Cc2cccnc2)CCNC1

$$$$
