
     RDKit          3D

 32 34  0  0  0  0  0  0  0  0999 V2000
    8.3190   -6.6146   23.3180 H   0  0  0  0  0  0  0  0  0  0  0  0
    7.4228   -6.2694   23.4809 O   0  0  0  0  0  0  0  0  0  0  0  0
    7.7768   -5.0149   23.8050 C   0  0  0  0  0  0  0  0  0  0  0  0
    8.9469   -4.7142   23.7545 O   0  0  0  0  0  0  0  0  0  0  0  0
    6.6701   -4.1410   24.2302 C   0  0  0  0  0  0  0  0  0  0  0  0
    6.6826   -2.7824   24.5190 C   0  0  0  0  0  0  0  0  0  0  0  0
    7.8251   -1.8301   24.2340 C   0  0  0  0  0  0  0  0  0  0  0  0
    7.7079   -0.8869   24.7824 H   0  0  0  0  0  0  0  0  0  0  0  0
    8.7685   -2.2745   24.5546 H   0  0  0  0  0  0  0  0  0  0  0  0
    7.9749   -1.5118   22.7816 C   0  0  0  0  0  0  0  0  0  0  0  0
    8.9412   -1.7828   21.9753 N   0  0  0  0  0  0  0  0  0  0  0  0
    8.5837   -1.2729   20.7364 N   0  0  0  0  0  0  0  0  0  0  0  0
    7.4305   -0.7045   20.8959 C   0  0  0  0  0  0  0  0  0  0  0  0
    6.6383    0.0053   19.8987 C   0  0  0  0  0  0  0  0  0  0  0  0
    7.1601    0.0480   18.5982 C   0  0  0  0  0  0  0  0  0  0  0  0
    8.1088   -0.4474   18.3913 H   0  0  0  0  0  0  0  0  0  0  0  0
    6.5659    0.6694   17.5795 N   0  0  0  0  0  0  0  0  0  0  0  0
    5.4063    1.2948   17.8357 C   0  0  0  0  0  0  0  0  0  0  0  0
    4.9438    1.8073   16.9938 H   0  0  0  0  0  0  0  0  0  0  0  0
    4.7996    1.3099   19.0977 C   0  0  0  0  0  0  0  0  0  0  0  0
    3.8669    1.8449   19.2322 H   0  0  0  0  0  0  0  0  0  0  0  0
    5.4198    0.6541   20.1611 C   0  0  0  0  0  0  0  0  0  0  0  0
    4.9780    0.6603   21.1584 H   0  0  0  0  0  0  0  0  0  0  0  0
    6.9840   -0.8091   22.1704 O   0  0  0  0  0  0  0  0  0  0  0  0
    5.3724   -2.5126   24.9790 C   0  0  0  0  0  0  0  0  0  0  0  0
    4.8414   -1.1935   25.4425 C   0  0  0  0  0  0  0  0  0  0  0  0
    5.2149   -0.4098   24.7704 H   0  0  0  0  0  0  0  0  0  0  0  0
    5.2082   -0.9615   26.4483 H   0  0  0  0  0  0  0  0  0  0  0  0
    3.7469   -1.1963   25.4462 H   0  0  0  0  0  0  0  0  0  0  0  0
    4.6228   -3.6104   24.9539 N   0  0  0  0  0  0  0  0  0  0  0  0
    5.4099   -4.5827   24.4943 N   0  0  0  0  0  0  0  0  0  0  0  0
    5.0439   -5.5309   24.4544 H   0  0  0  0  0  0  0  0  0  0  0  0
  1  2  1  0
  2  3  1  0
  3  4  2  0
  3  5  1  0
  5  6  2  0
  6  7  1  0
  7  8  1  0
  7  9  1  0
  7 10  1  0
 10 11  2  0
 11 12  1  0
 12 13  2  0
 13 14  1  0
 14 15  2  0
 15 16  1  0
 15 17  1  0
 17 18  2  0
 18 19  1  0
 18 20  1  0
 20 21  1  0
 20 22  2  0
 22 23  1  0
 13 24  1  0
  6 25  1  0
 25 26  1  0
 26 27  1  0
 26 28  1  0
 26 29  1  0
 25 30  2  0
 30 31  1  0
 31 32  1  0
 31  5  1  0
 24 10  1  0
 22 14  1  0
M  END
>  <cnnaffinity>  (1) 
-5.15932

>  <filename>  (1) 
Cc1n[nH]c(C(=O)O)c1Cc1nnc(-c2cccnc2)o1

$$$$
