
     RDKit          3D

 33 36  0  0  0  0  0  0  0  0999 V2000
    4.9973    1.8446   16.9164 H   0  0  0  0  0  0  0  0  0  0  0  0
    5.3872    1.3083   17.7828 C   0  0  0  0  0  0  0  0  0  0  0  0
    6.5395    0.6471   17.5942 N   0  0  0  0  0  0  0  0  0  0  0  0
    7.0620    0.0219   18.6597 C   0  0  0  0  0  0  0  0  0  0  0  0
    8.0029   -0.4963   18.4820 H   0  0  0  0  0  0  0  0  0  0  0  0
    6.4788   -0.0162   19.9466 C   0  0  0  0  0  0  0  0  0  0  0  0
    7.2319   -0.6400   21.0595 C   0  0  0  0  0  0  0  0  0  0  0  0
    8.5859   -0.5634   21.3083 C   0  0  0  0  0  0  0  0  0  0  0  0
    8.7932   -1.1803   22.5374 C   0  0  0  0  0  0  0  0  0  0  0  0
    7.6793   -1.6576   23.0603 N   0  0  0  0  0  0  0  0  0  0  0  0
    6.7331   -1.3131   22.1479 N   0  0  0  0  0  0  0  0  0  0  0  0
    5.7717   -1.5495   22.3610 H   0  0  0  0  0  0  0  0  0  0  0  0
   10.2195   -1.0966   22.9957 C   0  0  0  0  0  0  0  0  0  0  0  0
   10.3242   -0.5731   23.9535 H   0  0  0  0  0  0  0  0  0  0  0  0
   10.6544   -2.0937   23.1286 H   0  0  0  0  0  0  0  0  0  0  0  0
   10.9194   -0.3245   21.8088 C   0  0  2  0  0  0  0  0  0  0  0  0
   11.6749   -0.9914   21.4009 H   0  0  0  0  0  0  0  0  0  0  0  0
   11.6959    0.8777   22.2242 C   0  0  0  0  0  0  0  0  0  0  0  0
   12.9796    1.0126   22.2674 N   0  0  0  0  0  0  0  0  0  0  0  0
   13.2265    2.2766   22.7967 N   0  0  0  0  0  0  0  0  0  0  0  0
   12.0739    2.8057   23.0274 C   0  0  0  0  0  0  0  0  0  0  0  0
   11.7283    4.1203   23.6172 C   0  0  0  0  0  0  0  0  0  0  0  0
   11.5630    4.8648   22.8321 H   0  0  0  0  0  0  0  0  0  0  0  0
   10.8163    4.0280   24.2106 H   0  0  0  0  0  0  0  0  0  0  0  0
   12.5472    4.4759   24.2429 H   0  0  0  0  0  0  0  0  0  0  0  0
   11.0504    1.9840   22.6792 O   0  0  0  0  0  0  0  0  0  0  0  0
    9.8475   -0.0535   20.7024 C   0  0  0  0  0  0  0  0  0  0  0  0
   10.1047   -0.6234   19.8040 H   0  0  0  0  0  0  0  0  0  0  0  0
    9.7688    0.9970   20.4021 H   0  0  0  0  0  0  0  0  0  0  0  0
    5.2556    0.6641   20.1114 C   0  0  0  0  0  0  0  0  0  0  0  0
    4.7594    0.7126   21.0845 H   0  0  0  0  0  0  0  0  0  0  0  0
    4.7161    1.3372   19.0114 C   0  0  0  0  0  0  0  0  0  0  0  0
    3.8004    1.9124   19.0925 H   0  0  0  0  0  0  0  0  0  0  0  0
  1  2  1  0
  2  3  2  0
  3  4  1  0
  4  5  1  0
  4  6  2  0
  6  7  1  0
  7  8  2  0
  8  9  1  0
  9 10  2  0
 10 11  1  0
 11 12  1  0
  9 13  1  0
 13 14  1  0
 13 15  1  0
 13 16  1  0
 16 17  1  6
 16 18  1  0
 18 19  2  0
 19 20  1  0
 20 21  2  0
 21 22  1  0
 22 23  1  0
 22 24  1  0
 22 25  1  0
 21 26  1  0
 16 27  1  0
 27 28  1  0
 27 29  1  0
  6 30  1  0
 30 31  1  0
 30 32  2  0
 32 33  1  0
 32  2  1  0
 11  7  1  0
 26 18  1  0
 27  8  1  0
M  END
>  <cnnaffinity>  (1) 
-5.58242

>  <filename>  (1) 
Cc1nnc([C@H]2Cc3n[nH]c(-c4cccnc4)c3C2)o1

$$$$
