
     RDKit          3D

 41 43  0  0  0  0  0  0  0  0999 V2000
    2.4992   -6.5229   23.3937 C   0  0  0  0  0  0  0  0  0  0  0  0
    3.0292   -5.1007   23.2046 C   0  0  0  0  0  0  0  0  0  0  0  0
    4.5503   -4.9958   23.2551 C   0  0  1  0  0  0  0  0  0  0  0  0
    5.0619   -3.5677   22.9880 C   0  0  0  0  0  0  0  0  0  0  0  0
    6.5254   -3.5084   23.1263 N   0  0  0  0  0  0  0  0  0  0  0  0
    7.2032   -2.4658   22.5591 C   0  0  0  0  0  0  0  0  0  0  0  0
    8.4508   -2.2540   22.9887 N   0  0  0  0  0  0  0  0  0  0  0  0
    9.1026   -1.2627   22.4140 C   0  0  0  0  0  0  0  0  0  0  0  0
    8.5779   -0.4604   21.4068 C   0  0  0  0  0  0  0  0  0  0  0  0
    9.3648    0.6507   20.7723 C   0  0  0  0  0  0  0  0  0  0  0  0
   10.2561    0.8986   21.3513 H   0  0  0  0  0  0  0  0  0  0  0  0
    8.7455    1.5464   20.6510 H   0  0  0  0  0  0  0  0  0  0  0  0
    9.6819    0.3364   19.7785 H   0  0  0  0  0  0  0  0  0  0  0  0
    7.2653   -0.7986   21.0316 C   0  0  0  0  0  0  0  0  0  0  0  0
    6.5673   -0.0701   19.9623 C   0  0  0  0  0  0  0  0  0  0  0  0
    5.3581    0.6005   20.1737 C   0  0  0  0  0  0  0  0  0  0  0  0
    4.7891    1.2953   19.1104 C   0  0  0  0  0  0  0  0  0  0  0  0
    5.4371    1.2695   17.8690 C   0  0  0  0  0  0  0  0  0  0  0  0
    6.5837    0.6062   17.6489 N   0  0  0  0  0  0  0  0  0  0  0  0
    7.1300   -0.0408   18.6834 C   0  0  0  0  0  0  0  0  0  0  0  0
    8.0805   -0.5384   18.4784 H   0  0  0  0  0  0  0  0  0  0  0  0
    5.0124    1.8023   17.0215 H   0  0  0  0  0  0  0  0  0  0  0  0
    3.8750    1.8700   19.2355 H   0  0  0  0  0  0  0  0  0  0  0  0
    4.8959    0.5976   21.1627 H   0  0  0  0  0  0  0  0  0  0  0  0
    6.5762   -1.7722   21.6059 N   0  0  0  0  0  0  0  0  0  0  0  0
   10.1224   -1.1058   22.7787 H   0  0  0  0  0  0  0  0  0  0  0  0
    7.0119   -4.0623   24.4051 C   0  0  0  0  0  0  0  0  0  0  0  0
    6.3992   -5.4416   24.6432 C   0  0  0  0  0  0  0  0  0  0  0  0
    4.9833   -5.4257   24.5504 O   0  0  0  0  0  0  0  0  0  0  0  0
    6.6595   -5.8177   25.6395 H   0  0  0  0  0  0  0  0  0  0  0  0
    6.8112   -6.1345   23.8947 H   0  0  0  0  0  0  0  0  0  0  0  0
    6.7759   -3.3877   25.2444 H   0  0  0  0  0  0  0  0  0  0  0  0
    8.0993   -4.1635   24.3655 H   0  0  0  0  0  0  0  0  0  0  0  0
    4.5753   -2.8949   23.7130 H   0  0  0  0  0  0  0  0  0  0  0  0
    4.7717   -3.2511   21.9817 H   0  0  0  0  0  0  0  0  0  0  0  0
    4.9782   -5.6702   22.4918 H   0  0  0  0  0  0  0  0  0  0  0  0
    2.6755   -4.7058   22.2418 H   0  0  0  0  0  0  0  0  0  0  0  0
    2.6208   -4.4501   23.9863 H   0  0  0  0  0  0  0  0  0  0  0  0
    2.9147   -7.1987   22.6358 H   0  0  0  0  0  0  0  0  0  0  0  0
    2.7755   -6.9120   24.3798 H   0  0  0  0  0  0  0  0  0  0  0  0
    1.4062   -6.5461   23.3111 H   0  0  0  0  0  0  0  0  0  0  0  0
  1  2  1  0
  2  3  1  0
  3  4  1  0
  4  5  1  0
  5  6  1  0
  6  7  2  0
  7  8  1  0
  8  9  2  0
  9 10  1  0
 10 11  1  0
 10 12  1  0
 10 13  1  0
  9 14  1  0
 14 15  1  0
 15 16  2  0
 16 17  1  0
 17 18  2  0
 18 19  1  0
 19 20  2  0
 20 21  1  0
 18 22  1  0
 17 23  1  0
 16 24  1  0
 14 25  2  0
  8 26  1  0
  5 27  1  0
 27 28  1  0
 28 29  1  0
 28 30  1  0
 28 31  1  0
 27 32  1  0
 27 33  1  0
  4 34  1  0
  4 35  1  0
  3 36  1  6
  2 37  1  0
  2 38  1  0
  1 39  1  0
  1 40  1  0
  1 41  1  0
 29  3  1  0
 25  6  1  0
 20 15  1  0
M  END
>  <cnnaffinity>  (1) 
-5.20508

>  <filename>  (1) 
CC[C@H]1CN(c2ncc(C)c(-c3cccnc3)n2)CCO1

$$$$
