
     RDKit          3D

 41 43  0  0  0  0  0  0  0  0999 V2000
   11.9878    4.0281   22.0308 C   0  0  0  0  0  0  0  0  0  0  0  0
   10.7392    3.7808   22.8856 C   0  0  0  0  0  0  0  0  0  0  0  0
   10.4873    2.3121   23.2810 C   0  0  0  0  0  0  0  0  0  0  0  0
   10.7171    1.2962   22.1321 C   0  0  0  0  0  0  0  0  0  0  0  0
   10.4570   -0.0839   22.5328 N   0  0  0  0  0  0  0  0  0  0  0  0
    9.3407   -0.7565   22.1422 C   0  0  0  0  0  0  0  0  0  0  0  0
    9.0476   -1.8998   22.7812 N   0  0  0  0  0  0  0  0  0  0  0  0
    7.9489   -2.5190   22.3953 C   0  0  0  0  0  0  0  0  0  0  0  0
    7.0864   -2.0476   21.4052 C   0  0  0  0  0  0  0  0  0  0  0  0
    5.8153   -2.7767   21.0430 C   0  0  0  0  0  0  0  0  0  0  0  0
    5.8863   -3.8423   21.2805 H   0  0  0  0  0  0  0  0  0  0  0  0
    5.5974   -2.6727   19.9731 H   0  0  0  0  0  0  0  0  0  0  0  0
    4.9630   -2.3846   21.6104 H   0  0  0  0  0  0  0  0  0  0  0  0
    7.5284   -0.8554   20.8036 C   0  0  0  0  0  0  0  0  0  0  0  0
    6.7947   -0.1892   19.7154 C   0  0  0  0  0  0  0  0  0  0  0  0
    5.4903    0.3006   19.8211 C   0  0  0  0  0  0  0  0  0  0  0  0
    4.9786    1.0486   18.7608 C   0  0  0  0  0  0  0  0  0  0  0  0
    5.7808    1.2491   17.6330 C   0  0  0  0  0  0  0  0  0  0  0  0
    7.0184    0.7486   17.5045 N   0  0  0  0  0  0  0  0  0  0  0  0
    7.5129    0.0667   18.5401 C   0  0  0  0  0  0  0  0  0  0  0  0
    8.5339   -0.2976   18.4250 H   0  0  0  0  0  0  0  0  0  0  0  0
    5.4094    1.8406   16.7975 H   0  0  0  0  0  0  0  0  0  0  0  0
    3.9902    1.4905   18.7991 H   0  0  0  0  0  0  0  0  0  0  0  0
    4.8891    0.1232   20.7165 H   0  0  0  0  0  0  0  0  0  0  0  0
    8.6573   -0.2427   21.1275 N   0  0  0  0  0  0  0  0  0  0  0  0
    7.7298   -3.4690   22.8966 H   0  0  0  0  0  0  0  0  0  0  0  0
   11.2680   -0.5899   23.6256 C   0  0  0  0  0  0  0  0  0  0  0  0
   11.0143    0.1817   24.9188 C   0  0  0  0  0  0  0  0  0  0  0  0
   11.5280    1.9099   24.7347 S   0  0  0  0  0  0  0  0  0  0  0  0
   11.5867   -0.2485   25.7463 H   0  0  0  0  0  0  0  0  0  0  0  0
    9.9526    0.1241   25.1837 H   0  0  0  0  0  0  0  0  0  0  0  0
   11.0169   -1.6428   23.7706 H   0  0  0  0  0  0  0  0  0  0  0  0
   12.3314   -0.5071   23.3521 H   0  0  0  0  0  0  0  0  0  0  0  0
   11.7653    1.3670   21.8033 H   0  0  0  0  0  0  0  0  0  0  0  0
   10.0870    1.5469   21.2736 H   0  0  0  0  0  0  0  0  0  0  0  0
    9.4457    2.2131   23.6058 H   0  0  0  0  0  0  0  0  0  0  0  0
   10.7709    4.3898   23.7962 H   0  0  0  0  0  0  0  0  0  0  0  0
    9.8562    4.1332   22.3410 H   0  0  0  0  0  0  0  0  0  0  0  0
   12.1500    5.0971   21.8600 H   0  0  0  0  0  0  0  0  0  0  0  0
   12.8961    3.6224   22.4893 H   0  0  0  0  0  0  0  0  0  0  0  0
   11.8814    3.5572   21.0473 H   0  0  0  0  0  0  0  0  0  0  0  0
  1  2  1  0
  2  3  1  0
  3  4  1  0
  4  5  1  0
  5  6  1  0
  6  7  2  0
  7  8  1  0
  8  9  2  0
  9 10  1  0
 10 11  1  0
 10 12  1  0
 10 13  1  0
  9 14  1  0
 14 15  1  0
 15 16  2  0
 16 17  1  0
 17 18  2  0
 18 19  1  0
 19 20  2  0
 20 21  1  0
 18 22  1  0
 17 23  1  0
 16 24  1  0
 14 25  2  0
  8 26  1  0
  5 27  1  0
 27 28  1  0
 28 29  1  0
 28 30  1  0
 28 31  1  0
 27 32  1  0
 27 33  1  0
  4 34  1  0
  4 35  1  0
  3 36  1  0
  2 37  1  0
  2 38  1  0
  1 39  1  0
  1 40  1  0
  1 41  1  0
 29  3  1  0
 25  6  1  0
 20 15  1  0
M  END
>  <cnnaffinity>  (1) 
-4.81948

>  <filename>  (1) 
CCC1CN(c2ncc(C)c(-c3cccnc3)n2)CCS1

$$$$
