
     RDKit          3D

 41 44  0  0  0  0  0  0  0  0999 V2000
    5.0054    1.8378   16.9082 H   0  0  0  0  0  0  0  0  0  0  0  0
    5.3902    1.3091   17.7819 C   0  0  0  0  0  0  0  0  0  0  0  0
    6.5400    0.6410   17.6087 N   0  0  0  0  0  0  0  0  0  0  0  0
    7.0560    0.0203   18.6780 C   0  0  0  0  0  0  0  0  0  0  0  0
    7.9896   -0.5096   18.5045 H   0  0  0  0  0  0  0  0  0  0  0  0
    6.4691   -0.0027   19.9590 C   0  0  0  0  0  0  0  0  0  0  0  0
    7.2254   -0.6072   21.0731 C   0  0  0  0  0  0  0  0  0  0  0  0
    8.5835   -0.5545   21.3022 C   0  0  0  0  0  0  0  0  0  0  0  0
    8.7963   -1.1544   22.5323 C   0  0  0  0  0  0  0  0  0  0  0  0
    7.6828   -1.6033   23.0791 N   0  0  0  0  0  0  0  0  0  0  0  0
    6.7342   -1.2555   22.1719 N   0  0  0  0  0  0  0  0  0  0  0  0
    5.7762   -1.5304   22.3580 H   0  0  0  0  0  0  0  0  0  0  0  0
   10.2323   -1.1377   22.9573 C   0  0  0  0  0  0  0  0  0  0  0  0
   10.6429   -2.1520   23.0179 H   0  0  0  0  0  0  0  0  0  0  0  0
   10.3621   -0.6832   23.9454 H   0  0  0  0  0  0  0  0  0  0  0  0
   10.9278   -0.2962   21.8261 C   0  0  2  0  0  0  0  0  0  0  0  0
   11.7447   -0.8944   21.4113 H   0  0  0  0  0  0  0  0  0  0  0  0
   11.5030    1.0115   22.3382 C   0  0  0  0  0  0  0  0  0  0  0  0
   10.6446    1.9913   22.8651 C   0  0  0  0  0  0  0  0  0  0  0  0
    9.5714    1.7991   22.8944 H   0  0  0  0  0  0  0  0  0  0  0  0
   11.1439    3.1998   23.3468 C   0  0  0  0  0  0  0  0  0  0  0  0
   10.4512    3.9371   23.7439 H   0  0  0  0  0  0  0  0  0  0  0  0
   12.5208    3.4844   23.3115 C   0  0  0  0  0  0  0  0  0  0  0  0
   13.0660    4.8302   23.7406 C   0  0  0  0  0  0  0  0  0  0  0  0
   12.4813    5.2160   24.5868 H   0  0  0  0  0  0  0  0  0  0  0  0
   14.0947    4.7081   24.1026 H   0  0  0  0  0  0  0  0  0  0  0  0
   13.0477    5.8467   22.5917 C   0  0  0  0  0  0  0  0  0  0  0  0
   12.0327    5.9294   22.1863 H   0  0  0  0  0  0  0  0  0  0  0  0
   13.6931    5.5219   21.7682 H   0  0  0  0  0  0  0  0  0  0  0  0
   13.3898    6.8327   22.9277 H   0  0  0  0  0  0  0  0  0  0  0  0
   13.3730    2.5036   22.7851 C   0  0  0  0  0  0  0  0  0  0  0  0
   14.4377    2.7129   22.7121 H   0  0  0  0  0  0  0  0  0  0  0  0
   12.8806    1.2841   22.3178 C   0  0  0  0  0  0  0  0  0  0  0  0
   13.5758    0.5399   21.9307 H   0  0  0  0  0  0  0  0  0  0  0  0
    9.8533   -0.0674   20.7035 C   0  0  0  0  0  0  0  0  0  0  0  0
    9.7899    0.9790   20.3783 H   0  0  0  0  0  0  0  0  0  0  0  0
   10.0973   -0.6585   19.8197 H   0  0  0  0  0  0  0  0  0  0  0  0
    5.2450    0.6710   20.1093 C   0  0  0  0  0  0  0  0  0  0  0  0
    4.7360    0.6998   21.0737 H   0  0  0  0  0  0  0  0  0  0  0  0
    4.7111    1.3382   19.0049 C   0  0  0  0  0  0  0  0  0  0  0  0
    3.7950    1.9089   19.0773 H   0  0  0  0  0  0  0  0  0  0  0  0
  1  2  1  0
  2  3  2  0
  3  4  1  0
  4  5  1  0
  4  6  2  0
  6  7  1  0
  7  8  2  0
  8  9  1  0
  9 10  2  0
 10 11  1  0
 11 12  1  0
  9 13  1  0
 13 14  1  0
 13 15  1  0
 13 16  1  0
 16 17  1  6
 16 18  1  0
 18 19  2  0
 19 20  1  0
 19 21  1  0
 21 22  1  0
 21 23  2  0
 23 24  1  0
 24 25  1  0
 24 26  1  0
 24 27  1  0
 27 28  1  0
 27 29  1  0
 27 30  1  0
 23 31  1  0
 31 32  1  0
 31 33  2  0
 33 34  1  0
 16 35  1  0
 35 36  1  0
 35 37  1  0
  6 38  1  0
 38 39  1  0
 38 40  2  0
 40 41  1  0
 40  2  1  0
 11  7  1  0
 33 18  1  0
 35  8  1  0
M  END
>  <cnnaffinity>  (1) 
-5.55828

>  <filename>  (1) 
CCc1ccc([C@H]2Cc3n[nH]c(-c4cccnc4)c3C2)cc1

$$$$
