
     RDKit          3D

 43 45  0  0  0  0  0  0  0  0999 V2000
    7.8363   -1.9625   26.6865 C   0  0  0  0  0  0  0  0  0  0  0  0
    6.4228   -2.2548   26.1787 C   0  0  0  0  0  0  0  0  0  0  0  0
    6.2336   -3.7323   25.7507 C   0  0  0  0  0  0  0  0  0  0  0  0
    4.7542   -4.1163   25.5459 C   0  0  0  0  0  0  0  0  0  0  0  0
    4.1631   -3.4186   24.3121 C   0  0  0  0  0  0  0  0  0  0  0  0
    5.0022   -3.6423   23.0411 C   0  0  0  0  0  0  0  0  0  0  0  0
    6.4238   -3.4105   23.2966 N   0  0  0  0  0  0  0  0  0  0  0  0
    7.1111   -2.4140   22.6860 C   0  0  0  0  0  0  0  0  0  0  0  0
    8.3516   -2.1702   23.1246 N   0  0  0  0  0  0  0  0  0  0  0  0
    9.0288   -1.2347   22.4779 C   0  0  0  0  0  0  0  0  0  0  0  0
    8.5259   -0.5045   21.4148 C   0  0  0  0  0  0  0  0  0  0  0  0
    9.3182    0.6142   20.7822 C   0  0  0  0  0  0  0  0  0  0  0  0
   10.2559    0.7872   21.3185 H   0  0  0  0  0  0  0  0  0  0  0  0
    8.7276    1.5359   20.7957 H   0  0  0  0  0  0  0  0  0  0  0  0
    9.5634    0.4152   19.7356 H   0  0  0  0  0  0  0  0  0  0  0  0
    7.1989   -0.8364   21.0719 C   0  0  0  0  0  0  0  0  0  0  0  0
    6.4947   -0.1285   20.0000 C   0  0  0  0  0  0  0  0  0  0  0  0
    5.2892    0.5575   20.1850 C   0  0  0  0  0  0  0  0  0  0  0  0
    4.7848    1.2854   19.1084 C   0  0  0  0  0  0  0  0  0  0  0  0
    5.4738    1.2594   17.8867 C   0  0  0  0  0  0  0  0  0  0  0  0
    6.5936    0.5502   17.6874 N   0  0  0  0  0  0  0  0  0  0  0  0
    7.0758   -0.1296   18.7309 C   0  0  0  0  0  0  0  0  0  0  0  0
    7.9953   -0.6854   18.5519 H   0  0  0  0  0  0  0  0  0  0  0  0
    5.1058    1.8198   17.0311 H   0  0  0  0  0  0  0  0  0  0  0  0
    3.8795    1.8770   19.1939 H   0  0  0  0  0  0  0  0  0  0  0  0
    4.7707    0.5260   21.1484 H   0  0  0  0  0  0  0  0  0  0  0  0
    6.4995   -1.7806   21.6808 N   0  0  0  0  0  0  0  0  0  0  0  0
   10.0484   -1.0480   22.8313 H   0  0  0  0  0  0  0  0  0  0  0  0
    6.9901   -4.1031   24.4568 C   0  0  0  0  0  0  0  0  0  0  0  0
    8.0528   -3.8662   24.5424 H   0  0  0  0  0  0  0  0  0  0  0  0
    6.9030   -5.1891   24.2865 H   0  0  0  0  0  0  0  0  0  0  0  0
    4.8831   -4.6792   22.6838 H   0  0  0  0  0  0  0  0  0  0  0  0
    4.6532   -2.9894   22.2359 H   0  0  0  0  0  0  0  0  0  0  0  0
    3.1320   -3.7477   24.1324 H   0  0  0  0  0  0  0  0  0  0  0  0
    4.1107   -2.3474   24.5380 H   0  0  0  0  0  0  0  0  0  0  0  0
    4.1734   -3.8559   26.4391 H   0  0  0  0  0  0  0  0  0  0  0  0
    4.6797   -5.2089   25.4402 H   0  0  0  0  0  0  0  0  0  0  0  0
    6.6410   -4.3565   26.5595 H   0  0  0  0  0  0  0  0  0  0  0  0
    5.6923   -2.0188   26.9696 H   0  0  0  0  0  0  0  0  0  0  0  0
    6.1949   -1.5799   25.3383 H   0  0  0  0  0  0  0  0  0  0  0  0
    8.1123   -2.6282   27.5152 H   0  0  0  0  0  0  0  0  0  0  0  0
    8.5707   -2.0919   25.8837 H   0  0  0  0  0  0  0  0  0  0  0  0
    7.9270   -0.9335   27.0494 H   0  0  0  0  0  0  0  0  0  0  0  0
  1  2  1  0
  2  3  1  0
  3  4  1  0
  4  5  1  0
  5  6  1  0
  6  7  1  0
  7  8  1  0
  8  9  2  0
  9 10  1  0
 10 11  2  0
 11 12  1  0
 12 13  1  0
 12 14  1  0
 12 15  1  0
 11 16  1  0
 16 17  1  0
 17 18  2  0
 18 19  1  0
 19 20  2  0
 20 21  1  0
 21 22  2  0
 22 23  1  0
 20 24  1  0
 19 25  1  0
 18 26  1  0
 16 27  2  0
 10 28  1  0
  7 29  1  0
 29 30  1  0
 29 31  1  0
  6 32  1  0
  6 33  1  0
  5 34  1  0
  5 35  1  0
  4 36  1  0
  4 37  1  0
  3 38  1  0
  2 39  1  0
  2 40  1  0
  1 41  1  0
  1 42  1  0
  1 43  1  0
 29  3  1  0
 27  8  1  0
 22 17  1  0
M  END
>  <cnnaffinity>  (1) 
-5.49589

>  <filename>  (1) 
CCC1CCCN(c2ncc(C)c(-c3cccnc3)n2)C1

$$$$
