
     RDKit          3D

 37 39  0  0  0  0  0  0  0  0999 V2000
    4.9096    1.7810   16.9951 H   0  0  0  0  0  0  0  0  0  0  0  0
    5.3973    1.2975   17.8361 C   0  0  0  0  0  0  0  0  0  0  0  0
    6.5599    0.6783   17.5694 N   0  0  0  0  0  0  0  0  0  0  0  0
    7.1705    0.0594   18.5857 C   0  0  0  0  0  0  0  0  0  0  0  0
    8.1220   -0.4257   18.3799 H   0  0  0  0  0  0  0  0  0  0  0  0
    6.6422   -0.0037   19.8892 C   0  0  0  0  0  0  0  0  0  0  0  0
    7.3436   -0.6883   20.9403 N   0  0  0  0  0  0  0  0  0  0  0  0
    6.7191   -1.7436   21.5782 C   0  0  0  0  0  0  0  0  0  0  0  0
    5.7055   -1.9661   21.2428 H   0  0  0  0  0  0  0  0  0  0  0  0
    7.3304   -2.4508   22.5780 C   0  0  0  0  0  0  0  0  0  0  0  0
    6.6460   -3.5771   23.2483 C   0  0  0  0  0  0  0  0  0  0  0  0
    6.7524   -3.7511   24.6386 C   0  0  0  0  0  0  0  0  0  0  0  0
    7.3274   -3.0419   25.2291 H   0  0  0  0  0  0  0  0  0  0  0  0
    6.1089   -4.8126   25.2659 C   0  0  0  0  0  0  0  0  0  0  0  0
    6.1924   -4.9267   26.3434 H   0  0  0  0  0  0  0  0  0  0  0  0
    5.3611   -5.7398   24.5237 C   0  0  0  0  0  0  0  0  0  0  0  0
    4.6242   -6.8578   25.2119 C   0  0  0  0  0  0  0  0  0  0  0  0
    5.1904   -7.1884   26.0903 H   0  0  0  0  0  0  0  0  0  0  0  0
    4.5582   -7.7234   24.5429 H   0  0  0  0  0  0  0  0  0  0  0  0
    3.2193   -6.4279   25.6374 C   0  0  0  0  0  0  0  0  0  0  0  0
    2.6327   -6.1146   24.7680 H   0  0  0  0  0  0  0  0  0  0  0  0
    2.6911   -7.2446   26.1361 H   0  0  0  0  0  0  0  0  0  0  0  0
    3.2692   -5.5771   26.3245 H   0  0  0  0  0  0  0  0  0  0  0  0
    5.2439   -5.5539   23.1374 C   0  0  0  0  0  0  0  0  0  0  0  0
    4.6423   -6.2422   22.5503 H   0  0  0  0  0  0  0  0  0  0  0  0
    5.8770   -4.4885   22.5051 C   0  0  0  0  0  0  0  0  0  0  0  0
    5.8019   -4.3745   21.4272 H   0  0  0  0  0  0  0  0  0  0  0  0
    8.6535   -2.0647   22.9601 C   0  0  0  0  0  0  0  0  0  0  0  0
    9.1652   -2.6252   23.7434 H   0  0  0  0  0  0  0  0  0  0  0  0
    9.2883   -1.0305   22.3441 C   0  0  0  0  0  0  0  0  0  0  0  0
   10.2814   -0.7020   22.5982 H   0  0  0  0  0  0  0  0  0  0  0  0
    8.6708   -0.2514   21.2875 C   0  0  0  0  0  0  0  0  0  0  0  0
    9.2124    0.6813   20.7190 O   0  0  0  0  0  0  0  0  0  0  0  0
    5.4329    0.6449   20.1550 C   0  0  0  0  0  0  0  0  0  0  0  0
    5.0220    0.6240   21.1685 H   0  0  0  0  0  0  0  0  0  0  0  0
    4.8012    1.3191   19.1042 C   0  0  0  0  0  0  0  0  0  0  0  0
    3.8666    1.8496   19.2625 H   0  0  0  0  0  0  0  0  0  0  0  0
  1  2  1  0
  2  3  2  0
  3  4  1  0
  4  5  1  0
  4  6  2  0
  6  7  1  0
  7  8  1  0
  8  9  1  0
  8 10  2  0
 10 11  1  0
 11 12  2  0
 12 13  1  0
 12 14  1  0
 14 15  1  0
 14 16  2  0
 16 17  1  0
 17 18  1  0
 17 19  1  0
 17 20  1  0
 20 21  1  0
 20 22  1  0
 20 23  1  0
 16 24  1  0
 24 25  1  0
 24 26  2  0
 26 27  1  0
 10 28  1  0
 28 29  1  0
 28 30  2  0
 30 31  1  0
 30 32  1  0
 32 33  2  0
  6 34  1  0
 34 35  1  0
 34 36  2  0
 36 37  1  0
 36  2  1  0
 32  7  1  0
 26 11  1  0
M  END
>  <cnnaffinity>  (1) 
-5.37648

>  <filename>  (1) 
CCc1ccc(-c2ccc(=O)n(-c3cccnc3)c2)cc1

$$$$
