
     RDKit          3D

 36 38  0  0  0  0  0  0  0  0999 V2000
    4.9297    1.7913   16.9889 H   0  0  0  0  0  0  0  0  0  0  0  0
    5.3959    1.2962   17.8385 C   0  0  0  0  0  0  0  0  0  0  0  0
    6.5515    0.6683   17.5813 N   0  0  0  0  0  0  0  0  0  0  0  0
    7.1402    0.0373   18.5990 C   0  0  0  0  0  0  0  0  0  0  0  0
    8.1105   -0.4103   18.3950 H   0  0  0  0  0  0  0  0  0  0  0  0
    6.6003   -0.0319   19.8980 C   0  0  0  0  0  0  0  0  0  0  0  0
    7.3171   -0.7451   20.9897 C   0  0  0  0  0  0  0  0  0  0  0  0
    6.5788   -1.5091   21.7528 N   0  0  0  0  0  0  0  0  0  0  0  0
    7.1612   -2.1831   22.7966 N   0  0  0  0  0  0  0  0  0  0  0  0
    6.2940   -2.9921   23.6156 C   0  0  0  0  0  0  0  0  0  0  0  0
    6.5106   -3.1135   25.0000 C   0  0  0  0  0  0  0  0  0  0  0  0
    7.3313   -2.5728   25.4603 H   0  0  0  0  0  0  0  0  0  0  0  0
    5.6522   -3.8945   25.7767 C   0  0  0  0  0  0  0  0  0  0  0  0
    5.8370   -3.9967   26.8454 H   0  0  0  0  0  0  0  0  0  0  0  0
    4.5657   -4.5711   25.2026 C   0  0  0  0  0  0  0  0  0  0  0  0
    3.6761   -5.4627   26.0438 C   0  0  0  0  0  0  0  0  0  0  0  0
    2.6543   -5.4575   25.6415 H   0  0  0  0  0  0  0  0  0  0  0  0
    3.5947   -5.0554   27.0608 H   0  0  0  0  0  0  0  0  0  0  0  0
    4.2023   -6.9062   26.1053 C   0  0  0  0  0  0  0  0  0  0  0  0
    3.5599   -7.5529   26.7143 H   0  0  0  0  0  0  0  0  0  0  0  0
    5.2118   -6.9333   26.5315 H   0  0  0  0  0  0  0  0  0  0  0  0
    4.2653   -7.3379   25.1001 H   0  0  0  0  0  0  0  0  0  0  0  0
    4.3706   -4.4556   23.8154 C   0  0  0  0  0  0  0  0  0  0  0  0
    3.5367   -4.9868   23.3591 H   0  0  0  0  0  0  0  0  0  0  0  0
    5.2163   -3.6711   23.0258 C   0  0  0  0  0  0  0  0  0  0  0  0
    5.0636   -3.5476   21.9593 H   0  0  0  0  0  0  0  0  0  0  0  0
    8.5230   -2.1151   23.0186 C   0  0  0  0  0  0  0  0  0  0  0  0
    8.8842   -2.7354   23.8351 H   0  0  0  0  0  0  0  0  0  0  0  0
    9.3485   -1.3598   22.2751 C   0  0  0  0  0  0  0  0  0  0  0  0
   10.4167   -1.2861   22.4486 H   0  0  0  0  0  0  0  0  0  0  0  0
    8.8056   -0.5619   21.1852 C   0  0  0  0  0  0  0  0  0  0  0  0
    9.5102    0.1726   20.4973 O   0  0  0  0  0  0  0  0  0  0  0  0
    5.3989    0.6365   20.1553 C   0  0  0  0  0  0  0  0  0  0  0  0
    4.9922    0.6195   21.1692 H   0  0  0  0  0  0  0  0  0  0  0  0
    4.7932    1.3214   19.1023 C   0  0  0  0  0  0  0  0  0  0  0  0
    3.8658    1.8601   19.2428 H   0  0  0  0  0  0  0  0  0  0  0  0
  1  2  1  0
  2  3  2  0
  3  4  1  0
  4  5  1  0
  4  6  2  0
  6  7  1  0
  7  8  2  0
  8  9  1  0
  9 10  1  0
 10 11  2  0
 11 12  1  0
 11 13  1  0
 13 14  1  0
 13 15  2  0
 15 16  1  0
 16 17  1  0
 16 18  1  0
 16 19  1  0
 19 20  1  0
 19 21  1  0
 19 22  1  0
 15 23  1  0
 23 24  1  0
 23 25  2  0
 25 26  1  0
  9 27  1  0
 27 28  1  0
 27 29  2  0
 29 30  1  0
 29 31  1  0
 31 32  2  0
  6 33  1  0
 33 34  1  0
 33 35  2  0
 35 36  1  0
 35  2  1  0
 31  7  1  0
 25 10  1  0
M  END
>  <cnnaffinity>  (1) 
-5.3406

>  <filename>  (1) 
CCc1ccc(-n2ccc(=O)c(-c3cccnc3)n2)cc1

$$$$
