
     RDKit          3D

 37 39  0  0  0  0  0  0  0  0999 V2000
    4.9122    1.7822   16.9928 H   0  0  0  0  0  0  0  0  0  0  0  0
    5.4004    1.2968   17.8320 C   0  0  0  0  0  0  0  0  0  0  0  0
    6.5633    0.6799   17.5593 N   0  0  0  0  0  0  0  0  0  0  0  0
    7.1689    0.0759   18.5894 C   0  0  0  0  0  0  0  0  0  0  0  0
    8.1101   -0.4250   18.3711 H   0  0  0  0  0  0  0  0  0  0  0  0
    6.6504    0.0126   19.8969 C   0  0  0  0  0  0  0  0  0  0  0  0
    7.3669   -0.7061   20.9721 C   0  0  0  0  0  0  0  0  0  0  0  0
    8.7795   -0.5520   21.1210 C   0  0  0  0  0  0  0  0  0  0  0  0
    9.3148    0.1189   20.4418 H   0  0  0  0  0  0  0  0  0  0  0  0
    9.4274   -1.2032   22.1229 C   0  0  0  0  0  0  0  0  0  0  0  0
   10.4904   -1.1280   22.2829 H   0  0  0  0  0  0  0  0  0  0  0  0
    8.7458   -2.0869   23.0625 C   0  0  0  0  0  0  0  0  0  0  0  0
    9.3294   -2.6922   23.9458 O   0  0  0  0  0  0  0  0  0  0  0  0
    7.3302   -2.1993   22.8583 N   0  0  0  0  0  0  0  0  0  0  0  0
    6.5582   -3.0302   23.7420 C   0  0  0  0  0  0  0  0  0  0  0  0
    6.5943   -2.8001   25.1219 C   0  0  0  0  0  0  0  0  0  0  0  0
    7.2039   -1.9936   25.5172 H   0  0  0  0  0  0  0  0  0  0  0  0
    5.8468   -3.6122   25.9738 C   0  0  0  0  0  0  0  0  0  0  0  0
    5.8845   -3.4410   27.0473 H   0  0  0  0  0  0  0  0  0  0  0  0
    5.0579   -4.6603   25.4724 C   0  0  0  0  0  0  0  0  0  0  0  0
    4.2977   -5.5688   26.4046 C   0  0  0  0  0  0  0  0  0  0  0  0
    3.3881   -5.9271   25.9107 H   0  0  0  0  0  0  0  0  0  0  0  0
    3.9632   -5.0040   27.2811 H   0  0  0  0  0  0  0  0  0  0  0  0
    5.1439   -6.7618   26.8524 C   0  0  0  0  0  0  0  0  0  0  0  0
    4.5885   -7.4183   27.5266 H   0  0  0  0  0  0  0  0  0  0  0  0
    6.0458   -6.4222   27.3687 H   0  0  0  0  0  0  0  0  0  0  0  0
    5.4688   -7.3481   25.9895 H   0  0  0  0  0  0  0  0  0  0  0  0
    5.0603   -4.8973   24.0886 C   0  0  0  0  0  0  0  0  0  0  0  0
    4.4701   -5.7148   23.6827 H   0  0  0  0  0  0  0  0  0  0  0  0
    5.7951   -4.0839   23.2240 C   0  0  0  0  0  0  0  0  0  0  0  0
    5.7978   -4.2594   22.1523 H   0  0  0  0  0  0  0  0  0  0  0  0
    6.6909   -1.5218   21.8406 C   0  0  0  0  0  0  0  0  0  0  0  0
    5.6176   -1.6778   21.7503 H   0  0  0  0  0  0  0  0  0  0  0  0
    5.4285    0.6499   20.1502 C   0  0  0  0  0  0  0  0  0  0  0  0
    5.0100    0.6373   21.1615 H   0  0  0  0  0  0  0  0  0  0  0  0
    4.8007    1.3187   19.0997 C   0  0  0  0  0  0  0  0  0  0  0  0
    3.8665    1.8490   19.2579 H   0  0  0  0  0  0  0  0  0  0  0  0
  1  2  1  0
  2  3  2  0
  3  4  1  0
  4  5  1  0
  4  6  2  0
  6  7  1  0
  7  8  1  0
  8  9  1  0
  8 10  2  0
 10 11  1  0
 10 12  1  0
 12 13  2  0
 12 14  1  0
 14 15  1  0
 15 16  2  0
 16 17  1  0
 16 18  1  0
 18 19  1  0
 18 20  2  0
 20 21  1  0
 21 22  1  0
 21 23  1  0
 21 24  1  0
 24 25  1  0
 24 26  1  0
 24 27  1  0
 20 28  1  0
 28 29  1  0
 28 30  2  0
 30 31  1  0
 14 32  1  0
 32 33  1  0
  6 34  1  0
 34 35  1  0
 34 36  2  0
 36 37  1  0
 36  2  1  0
 32  7  2  0
 30 15  1  0
M  END
>  <cnnaffinity>  (1) 
-5.1881

>  <filename>  (1) 
CCc1ccc(-n2cc(-c3cccnc3)ccc2=O)cc1

$$$$
