
     RDKit          3D

 35 37  0  0  0  0  0  0  0  0999 V2000
    4.9723    1.8251   16.9304 H   0  0  0  0  0  0  0  0  0  0  0  0
    5.4402    1.3118   17.7737 C   0  0  0  0  0  0  0  0  0  0  0  0
    6.5991    0.6786   17.5279 N   0  0  0  0  0  0  0  0  0  0  0  0
    7.1982    0.0559   18.5523 C   0  0  0  0  0  0  0  0  0  0  0  0
    8.1218   -0.4614   18.3020 H   0  0  0  0  0  0  0  0  0  0  0  0
    6.6937    0.0126   19.8675 C   0  0  0  0  0  0  0  0  0  0  0  0
    7.3692   -0.7105   20.9513 C   0  0  0  0  0  0  0  0  0  0  0  0
    6.8553   -1.2735   22.0671 C   0  0  0  0  0  0  0  0  0  0  0  0
    5.8297   -1.4209   22.3416 H   0  0  0  0  0  0  0  0  0  0  0  0
    7.8875   -1.8211   22.8290 N   0  0  0  0  0  0  0  0  0  0  0  0
    7.7355   -2.4790   24.0813 C   0  0  0  0  0  0  0  0  0  0  0  0
    8.5215   -3.5944   24.4104 C   0  0  0  0  0  0  0  0  0  0  0  0
    9.3295   -3.8850   23.7489 H   0  0  0  0  0  0  0  0  0  0  0  0
    8.2731   -4.2935   25.5947 C   0  0  0  0  0  0  0  0  0  0  0  0
    8.9049   -5.1435   25.8430 H   0  0  0  0  0  0  0  0  0  0  0  0
    7.2539   -3.9082   26.4834 C   0  0  0  0  0  0  0  0  0  0  0  0
    6.9243   -4.7092   27.7316 C   0  0  0  0  0  0  0  0  0  0  0  0
    6.4191   -4.0437   28.4422 H   0  0  0  0  0  0  0  0  0  0  0  0
    7.8561   -5.0327   28.2093 H   0  0  0  0  0  0  0  0  0  0  0  0
    6.0345   -5.9482   27.5515 C   0  0  0  0  0  0  0  0  0  0  0  0
    5.0301   -5.6878   27.2130 H   0  0  0  0  0  0  0  0  0  0  0  0
    5.9186   -6.4820   28.5018 H   0  0  0  0  0  0  0  0  0  0  0  0
    6.4670   -6.6451   26.8292 H   0  0  0  0  0  0  0  0  0  0  0  0
    6.5487   -2.7309   26.1842 C   0  0  0  0  0  0  0  0  0  0  0  0
    5.8254   -2.3581   26.9071 H   0  0  0  0  0  0  0  0  0  0  0  0
    6.7682   -2.0287   24.9953 C   0  0  0  0  0  0  0  0  0  0  0  0
    6.1989   -1.1265   24.7871 H   0  0  0  0  0  0  0  0  0  0  0  0
    9.0913   -1.6439   22.1414 C   0  0  0  0  0  0  0  0  0  0  0  0
   10.2138   -1.9984   22.4385 O   0  0  0  0  0  0  0  0  0  0  0  0
    8.7351   -0.9721   20.9966 N   0  0  0  0  0  0  0  0  0  0  0  0
    9.4805   -0.6338   20.4200 H   0  0  0  0  0  0  0  0  0  0  0  0
    5.4711    0.6757   20.0951 C   0  0  0  0  0  0  0  0  0  0  0  0
    5.0314    0.6906   21.0914 H   0  0  0  0  0  0  0  0  0  0  0  0
    4.8374    1.3273   19.0357 C   0  0  0  0  0  0  0  0  0  0  0  0
    3.8989    1.8542   19.1686 H   0  0  0  0  0  0  0  0  0  0  0  0
  1  2  1  0
  2  3  2  0
  3  4  1  0
  4  5  1  0
  4  6  2  0
  6  7  1  0
  7  8  2  0
  8  9  1  0
  8 10  1  0
 10 11  1  0
 11 12  2  0
 12 13  1  0
 12 14  1  0
 14 15  1  0
 14 16  2  0
 16 17  1  0
 17 18  1  0
 17 19  1  0
 17 20  1  0
 20 21  1  0
 20 22  1  0
 20 23  1  0
 16 24  1  0
 24 25  1  0
 24 26  2  0
 26 27  1  0
 10 28  1  0
 28 29  2  0
 28 30  1  0
 30 31  1  0
  6 32  1  0
 32 33  1  0
 32 34  2  0
 34 35  1  0
 34  2  1  0
 30  7  1  0
 26 11  1  0
M  END
>  <cnnaffinity>  (1) 
-5.3823

>  <filename>  (1) 
CCc1ccc(-n2cc(-c3cccnc3)[nH]c2=O)cc1

$$$$
