
     RDKit          3D

 41 43  0  0  0  0  0  0  0  0999 V2000
    7.8282   -5.4618   27.1473 C   0  0  0  0  0  0  0  0  0  0  0  0
    6.8075   -5.9303   26.0959 C   0  0  0  0  0  0  0  0  0  0  0  0
    6.1674   -4.8475   25.2262 C   0  0  0  0  0  0  0  0  0  0  0  0
    7.1431   -4.2701   24.1903 C   0  0  0  0  0  0  0  0  0  0  0  0
    6.4572   -3.3400   23.2788 N   0  0  0  0  0  0  0  0  0  0  0  0
    7.1834   -2.4077   22.6106 C   0  0  0  0  0  0  0  0  0  0  0  0
    8.4453   -2.2267   23.0088 N   0  0  0  0  0  0  0  0  0  0  0  0
    9.1059   -1.2621   22.4005 C   0  0  0  0  0  0  0  0  0  0  0  0
    8.5805   -0.4719   21.3842 C   0  0  0  0  0  0  0  0  0  0  0  0
    9.3593    0.6517   20.7706 C   0  0  0  0  0  0  0  0  0  0  0  0
   10.2528    0.8799   21.3533 H   0  0  0  0  0  0  0  0  0  0  0  0
    9.6601    0.3745   19.7621 H   0  0  0  0  0  0  0  0  0  0  0  0
    8.7347    1.5450   20.6853 H   0  0  0  0  0  0  0  0  0  0  0  0
    7.2621   -0.8025   21.0241 C   0  0  0  0  0  0  0  0  0  0  0  0
    6.5515   -0.0775   19.9641 C   0  0  0  0  0  0  0  0  0  0  0  0
    5.3420    0.5930   20.1729 C   0  0  0  0  0  0  0  0  0  0  0  0
    4.7883    1.2939   19.1063 C   0  0  0  0  0  0  0  0  0  0  0  0
    5.4434    1.2689   17.8683 C   0  0  0  0  0  0  0  0  0  0  0  0
    6.5846    0.5983   17.6508 N   0  0  0  0  0  0  0  0  0  0  0  0
    7.1180   -0.0540   18.6888 C   0  0  0  0  0  0  0  0  0  0  0  0
    8.0607   -0.5689   18.4954 H   0  0  0  0  0  0  0  0  0  0  0  0
    5.0281    1.8099   17.0217 H   0  0  0  0  0  0  0  0  0  0  0  0
    3.8794    1.8713   19.2264 H   0  0  0  0  0  0  0  0  0  0  0  0
    4.8698    0.5800   21.1579 H   0  0  0  0  0  0  0  0  0  0  0  0
    6.5688   -1.7552   21.6222 N   0  0  0  0  0  0  0  0  0  0  0  0
   10.1227   -1.1036   22.7667 H   0  0  0  0  0  0  0  0  0  0  0  0
    5.1962   -3.8249   22.7074 C   0  0  0  0  0  0  0  0  0  0  0  0
    4.3345   -4.4639   23.7951 C   0  0  0  0  0  0  0  0  0  0  0  0
    5.0416   -5.4322   24.5538 O   0  0  0  0  0  0  0  0  0  0  0  0
    3.4637   -4.9552   23.3493 H   0  0  0  0  0  0  0  0  0  0  0  0
    3.9549   -3.6707   24.4542 H   0  0  0  0  0  0  0  0  0  0  0  0
    5.3856   -4.5490   21.9009 H   0  0  0  0  0  0  0  0  0  0  0  0
    4.6419   -2.9876   22.2747 H   0  0  0  0  0  0  0  0  0  0  0  0
    7.9474   -3.7472   24.7131 H   0  0  0  0  0  0  0  0  0  0  0  0
    7.6047   -5.0928   23.6204 H   0  0  0  0  0  0  0  0  0  0  0  0
    5.8080   -4.0209   25.8635 H   0  0  0  0  0  0  0  0  0  0  0  0
    7.3329   -6.6056   25.4258 H   0  0  0  0  0  0  0  0  0  0  0  0
    5.9994   -6.5038   26.5634 H   0  0  0  0  0  0  0  0  0  0  0  0
    8.1367   -6.3127   27.7700 H   0  0  0  0  0  0  0  0  0  0  0  0
    8.7418   -5.0598   26.6869 H   0  0  0  0  0  0  0  0  0  0  0  0
    7.4342   -4.6967   27.8274 H   0  0  0  0  0  0  0  0  0  0  0  0
  1  2  1  0
  2  3  1  0
  3  4  1  0
  4  5  1  0
  5  6  1  0
  6  7  2  0
  7  8  1  0
  8  9  2  0
  9 10  1  0
 10 11  1  0
 10 12  1  0
 10 13  1  0
  9 14  1  0
 14 15  1  0
 15 16  2  0
 16 17  1  0
 17 18  2  0
 18 19  1  0
 19 20  2  0
 20 21  1  0
 18 22  1  0
 17 23  1  0
 16 24  1  0
 14 25  2  0
  8 26  1  0
  5 27  1  0
 27 28  1  0
 28 29  1  0
 28 30  1  0
 28 31  1  0
 27 32  1  0
 27 33  1  0
  4 34  1  0
  4 35  1  0
  3 36  1  0
  2 37  1  0
  2 38  1  0
  1 39  1  0
  1 40  1  0
  1 41  1  0
 29  3  1  0
 25  6  1  0
 20 15  1  0
M  END
>  <cnnaffinity>  (1) 
-5.22236

>  <filename>  (1) 
CCC1CN(c2ncc(C)c(-c3cccnc3)n2)CCO1

$$$$
