
     RDKit          3D

 36 38  0  0  0  0  0  0  0  0999 V2000
    4.9114    1.7983   16.9796 H   0  0  0  0  0  0  0  0  0  0  0  0
    5.3881    1.3053   17.8203 C   0  0  0  0  0  0  0  0  0  0  0  0
    6.5530    0.6907   17.5514 N   0  0  0  0  0  0  0  0  0  0  0  0
    7.1582    0.0651   18.5672 C   0  0  0  0  0  0  0  0  0  0  0  0
    8.1152   -0.4003   18.3349 H   0  0  0  0  0  0  0  0  0  0  0  0
    6.6504    0.0134   19.8826 C   0  0  0  0  0  0  0  0  0  0  0  0
    7.3693   -0.6581   20.9718 C   0  0  0  0  0  0  0  0  0  0  0  0
    7.5149   -0.3234   22.3127 C   0  0  0  0  0  0  0  0  0  0  0  0
    7.0286    0.8340   22.9234 N   0  0  0  0  0  0  0  0  0  0  0  0
    6.9853    1.6480   22.3350 H   0  0  0  0  0  0  0  0  0  0  0  0
    6.8226    1.0312   24.2867 C   0  0  0  0  0  0  0  0  0  0  0  0
    6.3557   -0.0190   25.0894 C   0  0  0  0  0  0  0  0  0  0  0  0
    6.1791   -0.9770   24.6116 H   0  0  0  0  0  0  0  0  0  0  0  0
    6.1380    0.1831   26.4472 C   0  0  0  0  0  0  0  0  0  0  0  0
    5.7994   -0.6503   27.0563 H   0  0  0  0  0  0  0  0  0  0  0  0
    6.3575    1.4321   27.0445 C   0  0  0  0  0  0  0  0  0  0  0  0
    6.1598    1.6238   28.5327 C   0  0  0  0  0  0  0  0  0  0  0  0
    5.3471    0.9770   28.8904 H   0  0  0  0  0  0  0  0  0  0  0  0
    5.8374    2.6513   28.7418 H   0  0  0  0  0  0  0  0  0  0  0  0
    7.4408    1.3201   29.3232 C   0  0  0  0  0  0  0  0  0  0  0  0
    7.7693    0.2959   29.1347 H   0  0  0  0  0  0  0  0  0  0  0  0
    7.3042    1.4455   30.4042 H   0  0  0  0  0  0  0  0  0  0  0  0
    8.2601    1.9692   29.0003 H   0  0  0  0  0  0  0  0  0  0  0  0
    6.8279    2.4748   26.2296 C   0  0  0  0  0  0  0  0  0  0  0  0
    7.0185    3.4446   26.6840 H   0  0  0  0  0  0  0  0  0  0  0  0
    7.0487    2.2906   24.8631 C   0  0  0  0  0  0  0  0  0  0  0  0
    7.4114    3.1088   24.2460 H   0  0  0  0  0  0  0  0  0  0  0  0
    8.2886   -1.3770   22.8613 C   0  0  0  0  0  0  0  0  0  0  0  0
    8.6235   -1.4652   23.8844 H   0  0  0  0  0  0  0  0  0  0  0  0
    8.6046   -2.2902   21.9512 N   0  0  0  0  0  0  0  0  0  0  0  0
    8.0486   -1.8250   20.8226 N   0  0  0  0  0  0  0  0  0  0  0  0
    8.1337   -2.3628   19.9766 H   0  0  0  0  0  0  0  0  0  0  0  0
    5.4325    0.6619   20.1413 C   0  0  0  0  0  0  0  0  0  0  0  0
    5.0172    0.6258   21.1510 H   0  0  0  0  0  0  0  0  0  0  0  0
    4.7942    1.3191   19.0890 C   0  0  0  0  0  0  0  0  0  0  0  0
    3.8643    1.8487   19.2457 H   0  0  0  0  0  0  0  0  0  0  0  0
  1  2  1  0
  2  3  2  0
  3  4  1  0
  4  5  1  0
  4  6  2  0
  6  7  1  0
  7  8  2  0
  8  9  1  0
  9 10  1  0
  9 11  1  0
 11 12  2  0
 12 13  1  0
 12 14  1  0
 14 15  1  0
 14 16  2  0
 16 17  1  0
 17 18  1  0
 17 19  1  0
 17 20  1  0
 20 21  1  0
 20 22  1  0
 20 23  1  0
 16 24  1  0
 24 25  1  0
 24 26  2  0
 26 27  1  0
  8 28  1  0
 28 29  1  0
 28 30  2  0
 30 31  1  0
 31 32  1  0
  6 33  1  0
 33 34  1  0
 33 35  2  0
 35 36  1  0
 35  2  1  0
 31  7  1  0
 26 11  1  0
M  END
>  <cnnaffinity>  (1) 
-5.44249

>  <filename>  (1) 
CCc1ccc(Nc2cn[nH]c2-c2cccnc2)cc1

$$$$
