
     RDKit          3D

 44 46  0  0  0  0  0  0  0  0999 V2000
    4.9865    1.8002   16.9851 H   0  0  0  0  0  0  0  0  0  0  0  0
    5.4262    1.2786   17.8335 C   0  0  0  0  0  0  0  0  0  0  0  0
    6.5815    0.6378   17.5991 N   0  0  0  0  0  0  0  0  0  0  0  0
    7.1532    0.0176   18.6409 C   0  0  0  0  0  0  0  0  0  0  0  0
    8.0923   -0.4936   18.4327 H   0  0  0  0  0  0  0  0  0  0  0  0
    6.6182   -0.0200   19.9445 C   0  0  0  0  0  0  0  0  0  0  0  0
    7.3372   -0.7400   21.0584 C   0  0  0  0  0  0  0  0  0  0  0  0
    7.0190   -2.2018   21.2731 C   0  0  0  0  0  0  0  0  0  0  0  0
    7.8926   -3.1623   21.1818 N   0  0  0  0  0  0  0  0  0  0  0  0
    7.3725   -4.3915   21.4482 N   0  0  0  0  0  0  0  0  0  0  0  0
    6.1115   -4.3557   21.7601 C   0  0  0  0  0  0  0  0  0  0  0  0
    5.3645   -5.6013   22.1652 C   0  0  0  0  0  0  0  0  0  0  0  0
    5.2693   -6.2275   21.2674 H   0  0  0  0  0  0  0  0  0  0  0  0
    4.3430   -5.3568   22.4845 H   0  0  0  0  0  0  0  0  0  0  0  0
    6.1243   -6.3655   23.2716 C   0  0  0  0  0  0  0  0  0  0  0  0
    5.5960   -7.3083   23.4812 H   0  0  0  0  0  0  0  0  0  0  0  0
    7.1136   -6.6237   22.8635 H   0  0  0  0  0  0  0  0  0  0  0  0
    6.2936   -5.5127   24.5453 C   0  0  0  0  0  0  0  0  0  0  0  0
    6.8613   -4.6109   24.2665 H   0  0  0  0  0  0  0  0  0  0  0  0
    5.3022   -5.1685   24.8774 H   0  0  0  0  0  0  0  0  0  0  0  0
    7.0022   -6.2105   25.7136 C   0  0  0  0  0  0  0  0  0  0  0  0
    7.9983   -6.5367   25.3765 H   0  0  0  0  0  0  0  0  0  0  0  0
    6.4362   -7.1148   25.9812 H   0  0  0  0  0  0  0  0  0  0  0  0
    7.1646   -5.4111   27.0141 C   0  0  0  0  0  0  0  0  0  0  0  0
    6.1759   -5.2539   27.4676 H   0  0  0  0  0  0  0  0  0  0  0  0
    7.7052   -6.0545   27.7267 H   0  0  0  0  0  0  0  0  0  0  0  0
    7.8964   -4.0667   26.9244 C   0  0  0  0  0  0  0  0  0  0  0  0
    7.3341   -3.3696   26.2842 H   0  0  0  0  0  0  0  0  0  0  0  0
    7.8998   -3.6293   27.9293 H   0  0  0  0  0  0  0  0  0  0  0  0
    9.3435   -4.1595   26.4370 C   0  0  0  0  0  0  0  0  0  0  0  0
    9.4044   -4.4526   25.3800 H   0  0  0  0  0  0  0  0  0  0  0  0
    9.9127   -4.8883   27.0298 H   0  0  0  0  0  0  0  0  0  0  0  0
    9.8315   -3.1873   26.5481 H   0  0  0  0  0  0  0  0  0  0  0  0
    5.4411   -2.7587   21.7149 S   0  0  0  0  0  0  0  0  0  0  0  0
    8.7711   -0.3428   21.3024 C   0  0  0  0  0  0  0  0  0  0  0  0
    9.1948    0.4258   20.6571 H   0  0  0  0  0  0  0  0  0  0  0  0
    9.4321   -1.1513   21.6023 H   0  0  0  0  0  0  0  0  0  0  0  0
    7.7312    0.0771   22.2907 C   0  0  0  0  0  0  0  0  0  0  0  0
    7.7136   -0.4062   23.2644 H   0  0  0  0  0  0  0  0  0  0  0  0
    7.4632    1.1331   22.3119 H   0  0  0  0  0  0  0  0  0  0  0  0
    5.4048    0.6490   20.1606 C   0  0  0  0  0  0  0  0  0  0  0  0
    4.9543    0.6617   21.1555 H   0  0  0  0  0  0  0  0  0  0  0  0
    4.7994    1.3018   19.0839 C   0  0  0  0  0  0  0  0  0  0  0  0
    3.8648    1.8361   19.2049 H   0  0  0  0  0  0  0  0  0  0  0  0
  1  2  1  0
  2  3  2  0
  3  4  1  0
  4  5  1  0
  4  6  2  0
  6  7  1  0
  7  8  1  0
  8  9  2  0
  9 10  1  0
 10 11  2  0
 11 12  1  0
 12 13  1  0
 12 14  1  0
 12 15  1  0
 15 16  1  0
 15 17  1  0
 15 18  1  0
 18 19  1  0
 18 20  1  0
 18 21  1  0
 21 22  1  0
 21 23  1  0
 21 24  1  0
 24 25  1  0
 24 26  1  0
 24 27  1  0
 27 28  1  0
 27 29  1  0
 27 30  1  0
 30 31  1  0
 30 32  1  0
 30 33  1  0
 11 34  1  0
  7 35  1  0
 35 36  1  0
 35 37  1  0
 35 38  1  0
 38 39  1  0
 38 40  1  0
  6 41  1  0
 41 42  1  0
 41 43  2  0
 43 44  1  0
 43  2  1  0
 38  7  1  0
 34  8  1  0
M  END
>  <cnnaffinity>  (1) 
-5.17035

>  <filename>  (1) 
CCCCCCCc1nnc(C2(c3cccnc3)CC2)s1

$$$$
