
     RDKit          3D

 44 45  0  0  0  0  0  0  0  0999 V2000
    4.9945    1.8453   17.0078 H   0  0  0  0  0  0  0  0  0  0  0  0
    5.4427    1.3009   17.8355 C   0  0  0  0  0  0  0  0  0  0  0  0
    6.5809    0.6395   17.5653 N   0  0  0  0  0  0  0  0  0  0  0  0
    7.1727   -0.0124   18.5733 C   0  0  0  0  0  0  0  0  0  0  0  0
    8.0797   -0.5673   18.3366 H   0  0  0  0  0  0  0  0  0  0  0  0
    6.6770   -0.0351   19.8877 C   0  0  0  0  0  0  0  0  0  0  0  0
    7.3898   -0.6870   20.9378 N   0  0  0  0  0  0  0  0  0  0  0  0
    6.6226   -1.4036   21.8136 N   0  0  0  0  0  0  0  0  0  0  0  0
    7.2137   -2.0611   22.7695 C   0  0  0  0  0  0  0  0  0  0  0  0
    6.3500   -2.9615   23.6032 C   0  0  0  0  0  0  0  0  0  0  0  0
    5.3432   -2.5467   23.6595 H   0  0  0  0  0  0  0  0  0  0  0  0
    6.7533   -2.9850   24.6224 H   0  0  0  0  0  0  0  0  0  0  0  0
    6.2720   -4.3791   23.0055 C   0  0  0  0  0  0  0  0  0  0  0  0
    5.9589   -4.3120   21.9534 H   0  0  0  0  0  0  0  0  0  0  0  0
    7.2754   -4.8296   23.0237 H   0  0  0  0  0  0  0  0  0  0  0  0
    5.3170   -5.2534   23.8094 C   0  0  0  0  0  0  0  0  0  0  0  0
    4.3165   -4.7893   23.8205 H   0  0  0  0  0  0  0  0  0  0  0  0
    5.1972   -6.2343   23.3289 H   0  0  0  0  0  0  0  0  0  0  0  0
    5.8231   -5.4294   25.2429 C   0  0  0  0  0  0  0  0  0  0  0  0
    6.8457   -5.8435   25.2152 H   0  0  0  0  0  0  0  0  0  0  0  0
    5.9103   -4.4456   25.7247 H   0  0  0  0  0  0  0  0  0  0  0  0
    4.9123   -6.2921   26.0942 C   0  0  0  0  0  0  0  0  0  0  0  0
    3.8946   -5.8726   26.0637 H   0  0  0  0  0  0  0  0  0  0  0  0
    4.8416   -7.2948   25.6508 H   0  0  0  0  0  0  0  0  0  0  0  0
    5.3382   -6.4110   27.5535 C   0  0  0  0  0  0  0  0  0  0  0  0
    5.3664   -5.4162   28.0181 H   0  0  0  0  0  0  0  0  0  0  0  0
    6.3632   -6.8059   27.6232 H   0  0  0  0  0  0  0  0  0  0  0  0
    4.3575   -7.2784   28.3346 C   0  0  0  0  0  0  0  0  0  0  0  0
    3.3522   -6.8562   28.2030 H   0  0  0  0  0  0  0  0  0  0  0  0
    4.3303   -8.2653   27.8626 H   0  0  0  0  0  0  0  0  0  0  0  0
    4.6712   -7.4079   29.8203 C   0  0  0  0  0  0  0  0  0  0  0  0
    5.6245   -7.9255   29.9709 H   0  0  0  0  0  0  0  0  0  0  0  0
    4.7448   -6.4205   30.2955 H   0  0  0  0  0  0  0  0  0  0  0  0
    3.8977   -7.9818   30.3433 H   0  0  0  0  0  0  0  0  0  0  0  0
    8.6948   -2.0634   23.0037 C   0  0  0  0  0  0  0  0  0  0  0  0
    9.2465   -2.7197   23.8824 O   0  0  0  0  0  0  0  0  0  0  0  0
    9.4154   -1.2152   22.0748 C   0  0  0  0  0  0  0  0  0  0  0  0
   10.4870   -1.1494   22.1965 H   0  0  0  0  0  0  0  0  0  0  0  0
    8.7522   -0.5728   21.0882 C   0  0  0  0  0  0  0  0  0  0  0  0
    9.2513    0.0780   20.3666 H   0  0  0  0  0  0  0  0  0  0  0  0
    5.4566    0.6060   20.1452 C   0  0  0  0  0  0  0  0  0  0  0  0
    5.0290    0.5479   21.1433 H   0  0  0  0  0  0  0  0  0  0  0  0
    4.8392    1.2968   19.0989 C   0  0  0  0  0  0  0  0  0  0  0  0
    3.9111    1.8386   19.2543 H   0  0  0  0  0  0  0  0  0  0  0  0
  1  2  1  0
  2  3  2  0
  3  4  1  0
  4  5  1  0
  4  6  2  0
  6  7  1  0
  7  8  1  0
  8  9  2  0
  9 10  1  0
 10 11  1  0
 10 12  1  0
 10 13  1  0
 13 14  1  0
 13 15  1  0
 13 16  1  0
 16 17  1  0
 16 18  1  0
 16 19  1  0
 19 20  1  0
 19 21  1  0
 19 22  1  0
 22 23  1  0
 22 24  1  0
 22 25  1  0
 25 26  1  0
 25 27  1  0
 25 28  1  0
 28 29  1  0
 28 30  1  0
 28 31  1  0
 31 32  1  0
 31 33  1  0
 31 34  1  0
  9 35  1  0
 35 36  2  0
 35 37  1  0
 37 38  1  0
 37 39  2  0
 39 40  1  0
  6 41  1  0
 41 42  1  0
 41 43  2  0
 43 44  1  0
 43  2  1  0
 39  7  1  0
M  END
>  <cnnaffinity>  (1) 
-5.80432

>  <filename>  (1) 
CCCCCCCCc1nn(-c2cccnc2)ccc1=O

$$$$
