
     RDKit          3D

 41 42  0  0  0  0  0  0  0  0999 V2000
    9.1121   -3.0499   22.1864 H   0  0  0  0  0  0  0  0  0  0  0  0
    8.5673   -2.1634   21.8860 C   0  0  0  0  0  0  0  0  0  0  0  0
    8.0588   -1.8857   20.7374 N   0  0  0  0  0  0  0  0  0  0  0  0
    7.4154   -0.6694   20.9291 C   0  0  0  0  0  0  0  0  0  0  0  0
    6.6446   -0.0075   19.8691 C   0  0  0  0  0  0  0  0  0  0  0  0
    7.1454    0.0057   18.5549 C   0  0  0  0  0  0  0  0  0  0  0  0
    8.0834   -0.4929   18.3195 H   0  0  0  0  0  0  0  0  0  0  0  0
    6.5478    0.6450   17.5442 N   0  0  0  0  0  0  0  0  0  0  0  0
    5.4022    1.2952   17.7996 C   0  0  0  0  0  0  0  0  0  0  0  0
    4.9585    1.8362   16.9659 H   0  0  0  0  0  0  0  0  0  0  0  0
    4.7914    1.3075   19.0566 C   0  0  0  0  0  0  0  0  0  0  0  0
    3.8617    1.8487   19.2025 H   0  0  0  0  0  0  0  0  0  0  0  0
    5.4257    0.6500   20.1085 C   0  0  0  0  0  0  0  0  0  0  0  0
    4.9766    0.6513   21.1032 H   0  0  0  0  0  0  0  0  0  0  0  0
    7.6456   -0.2447   22.2070 C   0  0  0  0  0  0  0  0  0  0  0  0
    7.3422    1.0055   22.9534 C   0  0  0  0  0  0  0  0  0  0  0  0
    7.1042    1.7787   22.2119 H   0  0  0  0  0  0  0  0  0  0  0  0
    8.2576    1.3473   23.4527 H   0  0  0  0  0  0  0  0  0  0  0  0
    6.1893    0.8847   23.9751 C   0  0  0  0  0  0  0  0  0  0  0  0
    5.3026    0.4976   23.4564 H   0  0  0  0  0  0  0  0  0  0  0  0
    5.9245    1.8937   24.3092 H   0  0  0  0  0  0  0  0  0  0  0  0
    6.5162    0.0353   25.2068 C   0  0  0  0  0  0  0  0  0  0  0  0
    6.8694   -0.9512   24.8918 H   0  0  0  0  0  0  0  0  0  0  0  0
    7.3643    0.5013   25.7278 H   0  0  0  0  0  0  0  0  0  0  0  0
    5.3640   -0.1335   26.2020 C   0  0  0  0  0  0  0  0  0  0  0  0
    4.9607    0.8511   26.4813 H   0  0  0  0  0  0  0  0  0  0  0  0
    4.5397   -0.6737   25.7135 H   0  0  0  0  0  0  0  0  0  0  0  0
    5.7827   -0.8922   27.4700 C   0  0  0  0  0  0  0  0  0  0  0  0
    6.5915   -0.3365   27.9719 H   0  0  0  0  0  0  0  0  0  0  0  0
    6.2228   -1.8569   27.1785 H   0  0  0  0  0  0  0  0  0  0  0  0
    4.6404   -1.1391   28.4685 C   0  0  0  0  0  0  0  0  0  0  0  0
    3.8163   -1.6585   27.9537 H   0  0  0  0  0  0  0  0  0  0  0  0
    4.9858   -1.8285   29.2528 H   0  0  0  0  0  0  0  0  0  0  0  0
    4.0971    0.1323   29.1338 C   0  0  0  0  0  0  0  0  0  0  0  0
    4.9317    0.6753   29.6007 H   0  0  0  0  0  0  0  0  0  0  0  0
    3.6945    0.8037   28.3645 H   0  0  0  0  0  0  0  0  0  0  0  0
    3.0207   -0.1529   30.1838 C   0  0  0  0  0  0  0  0  0  0  0  0
    3.4114   -0.7978   30.9799 H   0  0  0  0  0  0  0  0  0  0  0  0
    2.6473    0.7613   30.6588 H   0  0  0  0  0  0  0  0  0  0  0  0
    2.1578   -0.6652   29.7419 H   0  0  0  0  0  0  0  0  0  0  0  0
    8.3715   -1.2250   22.8335 O   0  0  0  0  0  0  0  0  0  0  0  0
  1  2  1  0
  2  3  2  0
  3  4  1  0
  4  5  1  0
  5  6  2  0
  6  7  1  0
  6  8  1  0
  8  9  2  0
  9 10  1  0
  9 11  1  0
 11 12  1  0
 11 13  2  0
 13 14  1  0
  4 15  2  0
 15 16  1  0
 16 17  1  0
 16 18  1  0
 16 19  1  0
 19 20  1  0
 19 21  1  0
 19 22  1  0
 22 23  1  0
 22 24  1  0
 22 25  1  0
 25 26  1  0
 25 27  1  0
 25 28  1  0
 28 29  1  0
 28 30  1  0
 28 31  1  0
 31 32  1  0
 31 33  1  0
 31 34  1  0
 34 35  1  0
 34 36  1  0
 34 37  1  0
 37 38  1  0
 37 39  1  0
 37 40  1  0
 15 41  1  0
 41  2  1  0
 13  5  1  0
M  END
>  <cnnaffinity>  (1) 
-5.02116

>  <filename>  (1) 
CCCCCCCCc1ocnc1-c1cccnc1

$$$$
