
     RDKit          3D

 43 44  0  0  0  0  0  0  0  0999 V2000
    4.9157    1.7755   17.0035 H   0  0  0  0  0  0  0  0  0  0  0  0
    5.4045    1.2892   17.8459 C   0  0  0  0  0  0  0  0  0  0  0  0
    6.5711    0.6800   17.5858 N   0  0  0  0  0  0  0  0  0  0  0  0
    7.1782    0.0520   18.5968 C   0  0  0  0  0  0  0  0  0  0  0  0
    8.1233   -0.4326   18.3732 H   0  0  0  0  0  0  0  0  0  0  0  0
    6.6620   -0.0042   19.8998 C   0  0  0  0  0  0  0  0  0  0  0  0
    7.4022   -0.7247   20.9676 C   0  0  0  0  0  0  0  0  0  0  0  0
    8.1081   -1.8201   20.6267 N   0  0  0  0  0  0  0  0  0  0  0  0
    8.7617   -2.5307   21.5495 N   0  0  0  0  0  0  0  0  0  0  0  0
    8.7582   -2.1242   22.8242 C   0  0  0  0  0  0  0  0  0  0  0  0
    9.3131   -2.7379   23.5190 H   0  0  0  0  0  0  0  0  0  0  0  0
    8.0880   -0.9650   23.2594 C   0  0  0  0  0  0  0  0  0  0  0  0
    8.0401   -0.5638   24.7024 C   0  0  0  0  0  0  0  0  0  0  0  0
    8.9633   -0.8796   25.1985 H   0  0  0  0  0  0  0  0  0  0  0  0
    8.0100    0.5315   24.7600 H   0  0  0  0  0  0  0  0  0  0  0  0
    6.8339   -1.1774   25.4189 C   0  0  0  0  0  0  0  0  0  0  0  0
    5.9124   -0.8193   24.9406 H   0  0  0  0  0  0  0  0  0  0  0  0
    6.8446   -2.2626   25.2671 H   0  0  0  0  0  0  0  0  0  0  0  0
    6.7939   -0.8676   26.9107 C   0  0  0  0  0  0  0  0  0  0  0  0
    7.7557   -1.1537   27.3630 H   0  0  0  0  0  0  0  0  0  0  0  0
    6.0313   -1.4983   27.3833 H   0  0  0  0  0  0  0  0  0  0  0  0
    6.5044    0.5955   27.2289 C   0  0  0  0  0  0  0  0  0  0  0  0
    5.5935    0.9021   26.6982 H   0  0  0  0  0  0  0  0  0  0  0  0
    7.3071    1.2342   26.8370 H   0  0  0  0  0  0  0  0  0  0  0  0
    6.3476    0.8484   28.7242 C   0  0  0  0  0  0  0  0  0  0  0  0
    5.4793    0.2864   29.0960 H   0  0  0  0  0  0  0  0  0  0  0  0
    7.2167    0.4280   29.2460 H   0  0  0  0  0  0  0  0  0  0  0  0
    6.2202    2.3276   29.0967 C   0  0  0  0  0  0  0  0  0  0  0  0
    6.1932    2.4147   30.1914 H   0  0  0  0  0  0  0  0  0  0  0  0
    7.1338    2.8462   28.7745 H   0  0  0  0  0  0  0  0  0  0  0  0
    5.0004    3.0510   28.5157 C   0  0  0  0  0  0  0  0  0  0  0  0
    5.0467    4.1051   28.8097 H   0  0  0  0  0  0  0  0  0  0  0  0
    5.0434    3.0445   27.4196 H   0  0  0  0  0  0  0  0  0  0  0  0
    3.6676    2.4662   28.9743 C   0  0  0  0  0  0  0  0  0  0  0  0
    3.5014    1.4643   28.5653 H   0  0  0  0  0  0  0  0  0  0  0  0
    3.6359    2.3836   30.0664 H   0  0  0  0  0  0  0  0  0  0  0  0
    2.8310    3.0961   28.6608 H   0  0  0  0  0  0  0  0  0  0  0  0
    7.3769   -0.2684   22.2960 C   0  0  0  0  0  0  0  0  0  0  0  0
    6.8220    0.6353   22.5470 H   0  0  0  0  0  0  0  0  0  0  0  0
    5.4472    0.6497   20.1600 C   0  0  0  0  0  0  0  0  0  0  0  0
    4.9982    0.6318   21.1591 H   0  0  0  0  0  0  0  0  0  0  0  0
    4.8065    1.3060   19.1108 C   0  0  0  0  0  0  0  0  0  0  0  0
    3.8756    1.8424   19.2630 H   0  0  0  0  0  0  0  0  0  0  0  0
  1  2  1  0
  2  3  2  0
  3  4  1  0
  4  5  1  0
  4  6  2  0
  6  7  1  0
  7  8  2  0
  8  9  1  0
  9 10  2  0
 10 11  1  0
 10 12  1  0
 12 13  1  0
 13 14  1  0
 13 15  1  0
 13 16  1  0
 16 17  1  0
 16 18  1  0
 16 19  1  0
 19 20  1  0
 19 21  1  0
 19 22  1  0
 22 23  1  0
 22 24  1  0
 22 25  1  0
 25 26  1  0
 25 27  1  0
 25 28  1  0
 28 29  1  0
 28 30  1  0
 28 31  1  0
 31 32  1  0
 31 33  1  0
 31 34  1  0
 34 35  1  0
 34 36  1  0
 34 37  1  0
 12 38  2  0
 38 39  1  0
  6 40  1  0
 40 41  1  0
 40 42  2  0
 42 43  1  0
 42  2  1  0
 38  7  1  0
M  END
>  <cnnaffinity>  (1) 
-5.231

>  <filename>  (1) 
CCCCCCCCc1cnnc(-c2cccnc2)c1

$$$$
