
     RDKit          3D

 42 43  0  0  0  0  0  0  0  0999 V2000
    5.0423    1.9032   16.9984 H   0  0  0  0  0  0  0  0  0  0  0  0
    5.4911    1.3458   17.8178 C   0  0  0  0  0  0  0  0  0  0  0  0
    6.6423    0.7117   17.5425 N   0  0  0  0  0  0  0  0  0  0  0  0
    7.2324    0.0366   18.5362 C   0  0  0  0  0  0  0  0  0  0  0  0
    8.1601   -0.4825   18.2983 H   0  0  0  0  0  0  0  0  0  0  0  0
    6.7042   -0.0542   19.8414 C   0  0  0  0  0  0  0  0  0  0  0  0
    7.3505   -0.7931   20.8768 N   0  0  0  0  0  0  0  0  0  0  0  0
    8.6271   -0.5435   21.4147 C   0  0  0  0  0  0  0  0  0  0  0  0
    9.4520    0.5990   20.9383 C   0  0  0  0  0  0  0  0  0  0  0  0
   10.4806    0.4690   21.2920 H   0  0  0  0  0  0  0  0  0  0  0  0
    9.5013    0.5561   19.8472 H   0  0  0  0  0  0  0  0  0  0  0  0
    8.8941    1.9731   21.3715 C   0  0  0  0  0  0  0  0  0  0  0  0
    9.5709    2.7539   21.0056 H   0  0  0  0  0  0  0  0  0  0  0  0
    7.9362    2.1347   20.8598 H   0  0  0  0  0  0  0  0  0  0  0  0
    8.6922    2.1236   22.8891 C   0  0  0  0  0  0  0  0  0  0  0  0
    8.2643    3.1160   23.0935 H   0  0  0  0  0  0  0  0  0  0  0  0
    7.9267    1.4022   23.2087 H   0  0  0  0  0  0  0  0  0  0  0  0
    9.9613    1.9195   23.7369 C   0  0  0  0  0  0  0  0  0  0  0  0
   10.2821    0.8710   23.6550 H   0  0  0  0  0  0  0  0  0  0  0  0
    9.6938    2.0673   24.7941 H   0  0  0  0  0  0  0  0  0  0  0  0
   11.1388    2.8402   23.3742 C   0  0  0  0  0  0  0  0  0  0  0  0
   11.9630    2.6392   24.0699 H   0  0  0  0  0  0  0  0  0  0  0  0
   11.5336    2.5828   22.3795 H   0  0  0  0  0  0  0  0  0  0  0  0
   10.7611    4.3236   23.3985 C   0  0  0  0  0  0  0  0  0  0  0  0
   10.3574    4.5721   24.3920 H   0  0  0  0  0  0  0  0  0  0  0  0
    9.9396    4.4924   22.6897 H   0  0  0  0  0  0  0  0  0  0  0  0
   11.8613    5.3223   23.0351 C   0  0  0  0  0  0  0  0  0  0  0  0
   11.4230    6.3268   23.0988 H   0  0  0  0  0  0  0  0  0  0  0  0
   12.1443    5.1873   21.9827 H   0  0  0  0  0  0  0  0  0  0  0  0
   13.1168    5.3008   23.9064 C   0  0  0  0  0  0  0  0  0  0  0  0
   12.8704    5.2561   24.9718 H   0  0  0  0  0  0  0  0  0  0  0  0
   13.7773    4.4515   23.7002 H   0  0  0  0  0  0  0  0  0  0  0  0
   13.6845    6.2175   23.7209 H   0  0  0  0  0  0  0  0  0  0  0  0
    8.7778   -1.4178   22.4212 C   0  0  0  0  0  0  0  0  0  0  0  0
    9.5869   -1.6296   23.1028 H   0  0  0  0  0  0  0  0  0  0  0  0
    7.6425   -2.1920   22.5477 O   0  0  0  0  0  0  0  0  0  0  0  0
    6.7371   -1.8186   21.5966 C   0  0  0  0  0  0  0  0  0  0  0  0
    5.6586   -2.3302   21.4233 O   0  0  0  0  0  0  0  0  0  0  0  0
    5.4953    0.5937   20.1077 C   0  0  0  0  0  0  0  0  0  0  0  0
    5.0712    0.5067   21.1067 H   0  0  0  0  0  0  0  0  0  0  0  0
    4.8817    1.3065   19.0762 C   0  0  0  0  0  0  0  0  0  0  0  0
    3.9482    1.8291   19.2417 H   0  0  0  0  0  0  0  0  0  0  0  0
  1  2  1  0
  2  3  2  0
  3  4  1  0
  4  5  1  0
  4  6  2  0
  6  7  1  0
  7  8  1  0
  8  9  1  0
  9 10  1  0
  9 11  1  0
  9 12  1  0
 12 13  1  0
 12 14  1  0
 12 15  1  0
 15 16  1  0
 15 17  1  0
 15 18  1  0
 18 19  1  0
 18 20  1  0
 18 21  1  0
 21 22  1  0
 21 23  1  0
 21 24  1  0
 24 25  1  0
 24 26  1  0
 24 27  1  0
 27 28  1  0
 27 29  1  0
 27 30  1  0
 30 31  1  0
 30 32  1  0
 30 33  1  0
  8 34  2  0
 34 35  1  0
 34 36  1  0
 36 37  1  0
 37 38  2  0
  6 39  1  0
 39 40  1  0
 39 41  2  0
 41 42  1  0
 41  2  1  0
 37  7  1  0
M  END
>  <cnnaffinity>  (1) 
-5.23152

>  <filename>  (1) 
CCCCCCCCc1coc(=O)n1-c1cccnc1

$$$$
