
     RDKit          3D

 42 43  0  0  0  0  0  0  0  0999 V2000
    4.9446    1.8252   16.9483 H   0  0  0  0  0  0  0  0  0  0  0  0
    5.4071    1.3058   17.7848 C   0  0  0  0  0  0  0  0  0  0  0  0
    6.5657    0.6798   17.5221 N   0  0  0  0  0  0  0  0  0  0  0  0
    7.1777    0.0597   18.5361 C   0  0  0  0  0  0  0  0  0  0  0  0
    8.1252   -0.4215   18.2960 H   0  0  0  0  0  0  0  0  0  0  0  0
    6.6697    0.0196   19.8465 C   0  0  0  0  0  0  0  0  0  0  0  0
    7.4099   -0.6696   20.9170 C   0  0  0  0  0  0  0  0  0  0  0  0
    8.5741   -1.2711   20.6944 N   0  0  0  0  0  0  0  0  0  0  0  0
    8.9159   -1.7996   21.8806 N   0  0  0  0  0  0  0  0  0  0  0  0
    9.7944   -2.2922   21.9441 H   0  0  0  0  0  0  0  0  0  0  0  0
    8.0168   -1.5668   22.8713 C   0  0  0  0  0  0  0  0  0  0  0  0
    8.0954   -2.1843   24.2386 C   0  0  0  0  0  0  0  0  0  0  0  0
    7.5917   -1.5070   24.9385 H   0  0  0  0  0  0  0  0  0  0  0  0
    9.1395   -2.2467   24.5745 H   0  0  0  0  0  0  0  0  0  0  0  0
    7.4317   -3.5765   24.3134 C   0  0  0  0  0  0  0  0  0  0  0  0
    6.3821   -3.4780   24.0013 H   0  0  0  0  0  0  0  0  0  0  0  0
    7.9014   -4.2414   23.5787 H   0  0  0  0  0  0  0  0  0  0  0  0
    7.4687   -4.2306   25.7016 C   0  0  0  0  0  0  0  0  0  0  0  0
    8.4929   -4.2139   26.1045 H   0  0  0  0  0  0  0  0  0  0  0  0
    7.2099   -5.2931   25.6013 H   0  0  0  0  0  0  0  0  0  0  0  0
    6.5165   -3.5634   26.6964 C   0  0  0  0  0  0  0  0  0  0  0  0
    6.8562   -2.5316   26.8674 H   0  0  0  0  0  0  0  0  0  0  0  0
    5.5272   -3.4651   26.2358 H   0  0  0  0  0  0  0  0  0  0  0  0
    6.3980   -4.2535   28.0537 C   0  0  0  0  0  0  0  0  0  0  0  0
    7.4081   -4.2996   28.4786 H   0  0  0  0  0  0  0  0  0  0  0  0
    5.7970   -3.6119   28.7114 H   0  0  0  0  0  0  0  0  0  0  0  0
    5.8370   -5.6725   28.1365 C   0  0  0  0  0  0  0  0  0  0  0  0
    6.3759   -6.3264   27.4353 H   0  0  0  0  0  0  0  0  0  0  0  0
    4.7785   -5.6843   27.8388 H   0  0  0  0  0  0  0  0  0  0  0  0
    5.9855   -6.2506   29.5591 C   0  0  0  0  0  0  0  0  0  0  0  0
    5.6485   -7.2945   29.5690 H   0  0  0  0  0  0  0  0  0  0  0  0
    7.0559   -6.2854   29.8087 H   0  0  0  0  0  0  0  0  0  0  0  0
    5.2432   -5.4636   30.6480 C   0  0  0  0  0  0  0  0  0  0  0  0
    5.2642   -5.9881   31.6116 H   0  0  0  0  0  0  0  0  0  0  0  0
    5.6904   -4.4745   30.8052 H   0  0  0  0  0  0  0  0  0  0  0  0
    4.1923   -5.3065   30.3732 H   0  0  0  0  0  0  0  0  0  0  0  0
    7.0303   -0.8145   22.2710 C   0  0  0  0  0  0  0  0  0  0  0  0
    6.1356   -0.4270   22.7278 H   0  0  0  0  0  0  0  0  0  0  0  0
    5.4472    0.6641   20.0958 C   0  0  0  0  0  0  0  0  0  0  0  0
    5.0147    0.6702   21.0969 H   0  0  0  0  0  0  0  0  0  0  0  0
    4.8073    1.3160   19.0469 C   0  0  0  0  0  0  0  0  0  0  0  0
    3.8720    1.8424   19.2016 H   0  0  0  0  0  0  0  0  0  0  0  0
  1  2  1  0
  2  3  2  0
  3  4  1  0
  4  5  1  0
  4  6  2  0
  6  7  1  0
  7  8  2  0
  8  9  1  0
  9 10  1  0
  9 11  1  0
 11 12  1  0
 12 13  1  0
 12 14  1  0
 12 15  1  0
 15 16  1  0
 15 17  1  0
 15 18  1  0
 18 19  1  0
 18 20  1  0
 18 21  1  0
 21 22  1  0
 21 23  1  0
 21 24  1  0
 24 25  1  0
 24 26  1  0
 24 27  1  0
 27 28  1  0
 27 29  1  0
 27 30  1  0
 30 31  1  0
 30 32  1  0
 30 33  1  0
 33 34  1  0
 33 35  1  0
 33 36  1  0
 11 37  2  0
 37 38  1  0
  6 39  1  0
 39 40  1  0
 39 41  2  0
 41 42  1  0
 41  2  1  0
 37  7  1  0
M  END
>  <cnnaffinity>  (1) 
-4.96264

>  <filename>  (1) 
CCCCCCCCc1cc(-c2cccnc2)n[nH]1

$$$$
