
     RDKit          3D

 44 46  0  0  0  0  0  0  0  0999 V2000
    4.9545    1.8013   16.9692 H   0  0  0  0  0  0  0  0  0  0  0  0
    5.3943    1.2871   17.8197 C   0  0  0  0  0  0  0  0  0  0  0  0
    6.5532    0.6569   17.5861 N   0  0  0  0  0  0  0  0  0  0  0  0
    7.1580    0.0722   18.6265 C   0  0  0  0  0  0  0  0  0  0  0  0
    8.1064   -0.4076   18.3823 H   0  0  0  0  0  0  0  0  0  0  0  0
    6.6524    0.0812   19.9485 C   0  0  0  0  0  0  0  0  0  0  0  0
    7.4168   -0.5931   21.0278 C   0  0  0  0  0  0  0  0  0  0  0  0
    8.2509   -1.6377   20.8712 C   0  0  0  0  0  0  0  0  0  0  0  0
    8.6274   -2.0047   19.9395 H   0  0  0  0  0  0  0  0  0  0  0  0
    8.8537   -2.3124   22.3621 S   0  0  0  0  0  0  0  0  0  0  0  0
    8.0940   -1.0046   23.2231 C   0  0  0  0  0  0  0  0  0  0  0  0
    8.1533   -0.4700   24.4250 N   0  0  0  0  0  0  0  0  0  0  0  0
    7.3913    0.6502   24.2650 C   0  0  0  0  0  0  0  0  0  0  0  0
    7.2358    1.6688   25.3477 C   0  0  0  0  0  0  0  0  0  0  0  0
    7.0693    1.1423   26.2942 H   0  0  0  0  0  0  0  0  0  0  0  0
    6.3367    2.2567   25.1353 H   0  0  0  0  0  0  0  0  0  0  0  0
    8.4817    2.5820   25.4490 C   0  0  0  0  0  0  0  0  0  0  0  0
    9.3327    1.9530   25.7399 H   0  0  0  0  0  0  0  0  0  0  0  0
    8.3409    3.3002   26.2691 H   0  0  0  0  0  0  0  0  0  0  0  0
    8.8464    3.3249   24.1477 C   0  0  0  0  0  0  0  0  0  0  0  0
    9.1567    2.6058   23.3754 H   0  0  0  0  0  0  0  0  0  0  0  0
    9.7389    3.9368   24.3413 H   0  0  0  0  0  0  0  0  0  0  0  0
    7.7401    4.2186   23.5673 C   0  0  0  0  0  0  0  0  0  0  0  0
    8.1111    4.6857   22.6450 H   0  0  0  0  0  0  0  0  0  0  0  0
    6.8979    3.5873   23.2519 H   0  0  0  0  0  0  0  0  0  0  0  0
    7.2544    5.3089   24.5272 C   0  0  0  0  0  0  0  0  0  0  0  0
    6.8422    4.8364   25.4280 H   0  0  0  0  0  0  0  0  0  0  0  0
    8.1239    5.8890   24.8720 H   0  0  0  0  0  0  0  0  0  0  0  0
    6.2074    6.2667   23.9463 C   0  0  0  0  0  0  0  0  0  0  0  0
    5.3776    5.6849   23.5189 H   0  0  0  0  0  0  0  0  0  0  0  0
    5.7679    6.8525   24.7655 H   0  0  0  0  0  0  0  0  0  0  0  0
    6.7436    7.2387   22.8887 C   0  0  0  0  0  0  0  0  0  0  0  0
    7.5946    7.7886   23.3114 H   0  0  0  0  0  0  0  0  0  0  0  0
    7.1436    6.6758   22.0360 H   0  0  0  0  0  0  0  0  0  0  0  0
    5.6931    8.2340   22.3933 C   0  0  0  0  0  0  0  0  0  0  0  0
    5.3039    8.8411   23.2186 H   0  0  0  0  0  0  0  0  0  0  0  0
    4.8411    7.7177   21.9364 H   0  0  0  0  0  0  0  0  0  0  0  0
    6.0964    8.9235   21.6432 H   0  0  0  0  0  0  0  0  0  0  0  0
    6.8859    0.8360   23.0579 N   0  0  0  0  0  0  0  0  0  0  0  0
    7.3390   -0.2574   22.3868 N   0  0  0  0  0  0  0  0  0  0  0  0
    5.4088    0.7097   20.1531 C   0  0  0  0  0  0  0  0  0  0  0  0
    4.9613    0.7227   21.1458 H   0  0  0  0  0  0  0  0  0  0  0  0
    4.7754    1.3231   19.0709 C   0  0  0  0  0  0  0  0  0  0  0  0
    3.8333    1.8486   19.1857 H   0  0  0  0  0  0  0  0  0  0  0  0
  1  2  1  0
  2  3  2  0
  3  4  1  0
  4  5  1  0
  4  6  2  0
  6  7  1  0
  7  8  2  0
  8  9  1  0
  8 10  1  0
 10 11  1  0
 11 12  2  0
 12 13  1  0
 13 14  1  0
 14 15  1  0
 14 16  1  0
 14 17  1  0
 17 18  1  0
 17 19  1  0
 17 20  1  0
 20 21  1  0
 20 22  1  0
 20 23  1  0
 23 24  1  0
 23 25  1  0
 23 26  1  0
 26 27  1  0
 26 28  1  0
 26 29  1  0
 29 30  1  0
 29 31  1  0
 29 32  1  0
 32 33  1  0
 32 34  1  0
 32 35  1  0
 35 36  1  0
 35 37  1  0
 35 38  1  0
 13 39  2  0
 39 40  1  0
  6 41  1  0
 41 42  1  0
 41 43  2  0
 43 44  1  0
 43  2  1  0
 40  7  1  0
 40 11  1  0
M  END
>  <cnnaffinity>  (1) 
-5.71066

>  <filename>  (1) 
CCCCCCCCc1nc2scc(-c3cccnc3)n2n1

$$$$
