
     RDKit          3D

 42 44  0  0  0  0  0  0  0  0999 V2000
    4.9640    1.8189   16.9762 H   0  0  0  0  0  0  0  0  0  0  0  0
    5.4166    1.2860   17.8089 C   0  0  0  0  0  0  0  0  0  0  0  0
    6.5638    0.6343   17.5616 N   0  0  0  0  0  0  0  0  0  0  0  0
    7.1536    0.0009   18.5818 C   0  0  0  0  0  0  0  0  0  0  0  0
    8.0802   -0.5249   18.3494 H   0  0  0  0  0  0  0  0  0  0  0  0
    6.6575    0.0153   19.8954 C   0  0  0  0  0  0  0  0  0  0  0  0
    7.4217   -0.6471   20.9553 C   0  0  0  0  0  0  0  0  0  0  0  0
    7.9633   -1.9023   20.7764 N   0  0  0  0  0  0  0  0  0  0  0  0
    8.4655   -2.1974   21.9462 C   0  0  0  0  0  0  0  0  0  0  0  0
    9.2370   -3.5750   22.7037 S   0  0  0  0  0  0  0  0  0  0  0  0
    9.4957   -2.6441   24.1711 C   0  0  0  0  0  0  0  0  0  0  0  0
   10.1140   -3.0321   24.9678 H   0  0  0  0  0  0  0  0  0  0  0  0
    8.9304   -1.4273   24.0974 C   0  0  0  0  0  0  0  0  0  0  0  0
    8.8747   -0.6609   24.8583 H   0  0  0  0  0  0  0  0  0  0  0  0
    8.3493   -1.1865   22.8629 N   0  0  0  0  0  0  0  0  0  0  0  0
    7.6802   -0.1559   22.2265 C   0  0  0  0  0  0  0  0  0  0  0  0
    7.3227    1.1031   22.9307 C   0  0  0  0  0  0  0  0  0  0  0  0
    7.0179    1.8414   22.1790 H   0  0  0  0  0  0  0  0  0  0  0  0
    8.2176    1.5137   23.4208 H   0  0  0  0  0  0  0  0  0  0  0  0
    6.2014    0.8937   23.9617 C   0  0  0  0  0  0  0  0  0  0  0  0
    5.3486    0.4521   23.4370 H   0  0  0  0  0  0  0  0  0  0  0  0
    6.5190    0.1488   24.7029 H   0  0  0  0  0  0  0  0  0  0  0  0
    5.7390    2.1776   24.6379 C   0  0  0  0  0  0  0  0  0  0  0  0
    5.3903    2.8655   23.8526 H   0  0  0  0  0  0  0  0  0  0  0  0
    6.5868    2.6726   25.1320 H   0  0  0  0  0  0  0  0  0  0  0  0
    4.6188    1.9743   25.6552 C   0  0  0  0  0  0  0  0  0  0  0  0
    3.7717    1.4860   25.1531 H   0  0  0  0  0  0  0  0  0  0  0  0
    4.9558    1.2844   26.4426 H   0  0  0  0  0  0  0  0  0  0  0  0
    4.1487    3.2889   26.2801 C   0  0  0  0  0  0  0  0  0  0  0  0
    4.9997    3.7661   26.7898 H   0  0  0  0  0  0  0  0  0  0  0  0
    3.8541    3.9730   25.4734 H   0  0  0  0  0  0  0  0  0  0  0  0
    2.9846    3.1519   27.2661 C   0  0  0  0  0  0  0  0  0  0  0  0
    2.1418    2.6519   26.7692 H   0  0  0  0  0  0  0  0  0  0  0  0
    2.6281    4.1529   27.5368 H   0  0  0  0  0  0  0  0  0  0  0  0
    3.3454    2.3895   28.5393 C   0  0  0  0  0  0  0  0  0  0  0  0
    4.1995    2.8577   29.0434 H   0  0  0  0  0  0  0  0  0  0  0  0
    3.6095    1.3500   28.3164 H   0  0  0  0  0  0  0  0  0  0  0  0
    2.5100    2.3730   29.2466 H   0  0  0  0  0  0  0  0  0  0  0  0
    5.4332    0.6699   20.1238 C   0  0  0  0  0  0  0  0  0  0  0  0
    4.9731    0.6698   21.1118 H   0  0  0  0  0  0  0  0  0  0  0  0
    4.8023    1.3099   19.0615 C   0  0  0  0  0  0  0  0  0  0  0  0
    3.8685    1.8402   19.2006 H   0  0  0  0  0  0  0  0  0  0  0  0
  1  2  1  0
  2  3  2  0
  3  4  1  0
  4  5  1  0
  4  6  2  0
  6  7  1  0
  7  8  1  0
  8  9  2  0
  9 10  1  0
 10 11  1  0
 11 12  1  0
 11 13  2  0
 13 14  1  0
 13 15  1  0
 15 16  1  0
 16 17  1  0
 17 18  1  0
 17 19  1  0
 17 20  1  0
 20 21  1  0
 20 22  1  0
 20 23  1  0
 23 24  1  0
 23 25  1  0
 23 26  1  0
 26 27  1  0
 26 28  1  0
 26 29  1  0
 29 30  1  0
 29 31  1  0
 29 32  1  0
 32 33  1  0
 32 34  1  0
 32 35  1  0
 35 36  1  0
 35 37  1  0
 35 38  1  0
  6 39  1  0
 39 40  1  0
 39 41  2  0
 41 42  1  0
 41  2  1  0
 16  7  2  0
 15  9  1  0
M  END
>  <cnnaffinity>  (1) 
-5.91233

>  <filename>  (1) 
CCCCCCCc1c(-c2cccnc2)nc2sccn12

$$$$
