
     RDKit          3D

 40 42  0  0  0  0  0  0  0  0999 V2000
    5.2326    1.8855   16.6693 H   0  0  0  0  0  0  0  0  0  0  0  0
    5.6468    1.3694   17.5336 C   0  0  0  0  0  0  0  0  0  0  0  0
    6.7681    0.6690   17.3220 N   0  0  0  0  0  0  0  0  0  0  0  0
    7.3071    0.0252   18.3597 C   0  0  0  0  0  0  0  0  0  0  0  0
    8.2179   -0.5350   18.1501 H   0  0  0  0  0  0  0  0  0  0  0  0
    6.7590    0.0441   19.6518 C   0  0  0  0  0  0  0  0  0  0  0  0
    7.4065   -0.6923   20.7445 C   0  0  0  0  0  0  0  0  0  0  0  0
    6.8758   -0.7621   21.9254 N   0  0  0  0  0  0  0  0  0  0  0  0
    7.6541   -1.5451   22.7183 N   0  0  0  0  0  0  0  0  0  0  0  0
    7.6056   -1.9964   24.0149 C   0  0  0  0  0  0  0  0  0  0  0  0
    6.5746   -1.5579   25.0040 C   0  0  0  0  0  0  0  0  0  0  0  0
    6.7896   -2.0978   25.9333 H   0  0  0  0  0  0  0  0  0  0  0  0
    5.5813   -1.8763   24.6630 H   0  0  0  0  0  0  0  0  0  0  0  0
    6.5710   -0.0327   25.2414 C   0  0  0  0  0  0  0  0  0  0  0  0
    6.1876    0.4574   24.3345 H   0  0  0  0  0  0  0  0  0  0  0  0
    5.8652    0.1970   26.0494 H   0  0  0  0  0  0  0  0  0  0  0  0
    7.9425    0.5537   25.5882 C   0  0  0  0  0  0  0  0  0  0  0  0
    8.6392    0.3817   24.7529 H   0  0  0  0  0  0  0  0  0  0  0  0
    7.8467    1.6442   25.6691 H   0  0  0  0  0  0  0  0  0  0  0  0
    8.6251    0.0185   26.8333 C   0  0  0  0  0  0  0  0  0  0  0  0
    9.6433    0.3652   26.9944 H   0  0  0  0  0  0  0  0  0  0  0  0
    8.5528   -1.0536   27.0417 H   0  0  0  0  0  0  0  0  0  0  0  0
    8.3006    0.7655   29.4871 C   0  0  0  0  0  0  0  0  0  0  0  0
    8.5489    1.8329   29.6547 H   0  0  0  0  0  0  0  0  0  0  0  0
    8.0370    0.5813   28.3500 H   0  0  0  0  0  0  0  0  0  0  0  0
    8.9462    1.1478   31.8904 C   0  0  0  0  0  0  0  0  0  0  0  0
    9.1471    0.1362   29.8049 H   0  0  0  0  0  0  0  0  0  0  0  0
    7.5169    0.4563   30.1946 H   0  0  0  0  0  0  0  0  0  0  0  0
    9.0124    1.1907   32.1303 C   0  0  0  0  0  0  0  0  0  0  0  0
    8.7153   -0.1122   32.2762 H   0  0  0  0  0  0  0  0  0  0  0  0
   10.1818    1.5351   31.5660 H   0  0  0  0  0  0  0  0  0  0  0  0
    7.9894    2.0600   32.0878 H   0  0  0  0  0  0  0  0  0  0  0  0
    8.6384   -2.7746   24.2274 N   0  0  0  0  0  0  0  0  0  0  0  0
    9.3942   -2.8467   23.0707 N   0  0  0  0  0  0  0  0  0  0  0  0
    8.7821   -2.0964   22.1977 C   0  0  0  0  0  0  0  0  0  0  0  0
    8.9558   -1.5577   20.5520 S   0  0  0  0  0  0  0  0  0  0  0  0
    5.5742    0.7734   19.8624 C   0  0  0  0  0  0  0  0  0  0  0  0
    5.1131    0.8020   20.8520 H   0  0  0  0  0  0  0  0  0  0  0  0
    5.0161    1.4490   18.7790 C   0  0  0  0  0  0  0  0  0  0  0  0
    4.1136    2.0373   18.8863 H   0  0  0  0  0  0  0  0  0  0  0  0
  1  2  1  0
  2  3  2  0
  3  4  1  0
  4  5  1  0
  4  6  2  0
  6  7  1  0
  7  8  2  0
  8  9  1  0
  9 10  1  0
 10 11  1  0
 11 12  1  0
 11 13  1  0
 11 14  1  0
 14 15  1  0
 14 16  1  0
 14 17  1  0
 17 18  1  0
 17 19  1  0
 17 20  1  0
 20 21  1  0
 20 22  1  0
 20 23  1  0
 23 24  1  0
 23 25  1  0
 23 26  1  0
 26 27  1  0
 26 28  1  0
 26 29  1  0
 29 30  1  0
 29 31  1  0
 29 32  1  0
 10 33  2  0
 33 34  1  0
 34 35  2  0
 35 36  1  0
  6 37  1  0
 37 38  1  0
 37 39  2  0
 39 40  1  0
 39  2  1  0
 36  7  1  0
 35  9  1  0
M  END
>  <cnnaffinity>  (1) 
-4.94921

>  <filename>  (1) 
CCCCCCCc1nnc2sc(-c3cccnc3)nn12

$$$$
