
     RDKit          3D

 40 41  0  0  0  0  0  0  0  0999 V2000
    4.9298    1.7941   16.9968 H   0  0  0  0  0  0  0  0  0  0  0  0
    5.3967    1.2900   17.8377 C   0  0  0  0  0  0  0  0  0  0  0  0
    6.5523    0.6614   17.5714 N   0  0  0  0  0  0  0  0  0  0  0  0
    7.1721    0.0449   18.5832 C   0  0  0  0  0  0  0  0  0  0  0  0
    8.1258   -0.4309   18.3591 H   0  0  0  0  0  0  0  0  0  0  0  0
    6.6519    0.0008   19.8940 C   0  0  0  0  0  0  0  0  0  0  0  0
    7.3301   -0.6770   20.9470 N   0  0  0  0  0  0  0  0  0  0  0  0
    6.7312   -1.6046   21.7966 C   0  0  0  0  0  0  0  0  0  0  0  0
    5.6778   -1.8197   21.7272 H   0  0  0  0  0  0  0  0  0  0  0  0
    7.6697   -2.0601   22.6600 C   0  0  0  0  0  0  0  0  0  0  0  0
    7.5572   -2.9394   23.8607 C   0  0  0  0  0  0  0  0  0  0  0  0
    6.6509   -3.5464   23.7514 H   0  0  0  0  0  0  0  0  0  0  0  0
    8.3917   -3.6499   23.8952 H   0  0  0  0  0  0  0  0  0  0  0  0
    7.4780   -2.1499   25.1833 C   0  0  0  0  0  0  0  0  0  0  0  0
    8.3729   -1.5198   25.2879 H   0  0  0  0  0  0  0  0  0  0  0  0
    7.5110   -2.8544   26.0267 H   0  0  0  0  0  0  0  0  0  0  0  0
    6.2292   -1.2607   25.2883 C   0  0  0  0  0  0  0  0  0  0  0  0
    6.1759   -0.5952   24.4132 H   0  0  0  0  0  0  0  0  0  0  0  0
    5.3256   -1.8887   25.2348 H   0  0  0  0  0  0  0  0  0  0  0  0
    6.1828   -0.4066   26.5647 C   0  0  0  0  0  0  0  0  0  0  0  0
    5.2931    0.2383   26.5401 H   0  0  0  0  0  0  0  0  0  0  0  0
    7.0454    0.2768   26.5670 H   0  0  0  0  0  0  0  0  0  0  0  0
    6.2047   -1.2082   27.8762 C   0  0  0  0  0  0  0  0  0  0  0  0
    6.1738   -0.5045   28.7206 H   0  0  0  0  0  0  0  0  0  0  0  0
    7.1767   -1.7144   27.9375 H   0  0  0  0  0  0  0  0  0  0  0  0
    5.0747   -2.2368   28.0530 C   0  0  0  0  0  0  0  0  0  0  0  0
    5.1557   -3.0133   27.2779 H   0  0  0  0  0  0  0  0  0  0  0  0
    5.2226   -2.7601   29.0076 H   0  0  0  0  0  0  0  0  0  0  0  0
    3.6737   -1.6153   28.0237 C   0  0  0  0  0  0  0  0  0  0  0  0
    3.5942   -0.7940   28.7475 H   0  0  0  0  0  0  0  0  0  0  0  0
    2.8982   -2.3505   28.2649 H   0  0  0  0  0  0  0  0  0  0  0  0
    3.4386   -1.1990   27.0366 H   0  0  0  0  0  0  0  0  0  0  0  0
    8.8342   -1.3915   22.3173 N   0  0  0  0  0  0  0  0  0  0  0  0
    9.7464   -1.3997   22.7461 H   0  0  0  0  0  0  0  0  0  0  0  0
    8.6491   -0.5066   21.3108 C   0  0  0  0  0  0  0  0  0  0  0  0
    9.8207    0.5377   20.7697 S   0  0  0  0  0  0  0  0  0  0  0  0
    5.4415    0.6461   20.1589 C   0  0  0  0  0  0  0  0  0  0  0  0
    5.0417    0.6274   21.1750 H   0  0  0  0  0  0  0  0  0  0  0  0
    4.8073    1.3105   19.1066 C   0  0  0  0  0  0  0  0  0  0  0  0
    3.8778    1.8425   19.2590 H   0  0  0  0  0  0  0  0  0  0  0  0
  1  2  1  0
  2  3  2  0
  3  4  1  0
  4  5  1  0
  4  6  2  0
  6  7  1  0
  7  8  1  0
  8  9  1  0
  8 10  2  0
 10 11  1  0
 11 12  1  0
 11 13  1  0
 11 14  1  0
 14 15  1  0
 14 16  1  0
 14 17  1  0
 17 18  1  0
 17 19  1  0
 17 20  1  0
 20 21  1  0
 20 22  1  0
 20 23  1  0
 23 24  1  0
 23 25  1  0
 23 26  1  0
 26 27  1  0
 26 28  1  0
 26 29  1  0
 29 30  1  0
 29 31  1  0
 29 32  1  0
 10 33  1  0
 33 34  1  0
 33 35  1  0
 35 36  2  0
  6 37  1  0
 37 38  1  0
 37 39  2  0
 39 40  1  0
 39  2  1  0
 35  7  1  0
M  END
>  <cnnaffinity>  (1) 
-5.05862

>  <filename>  (1) 
CCCCCCCc1cn(-c2cccnc2)c(=S)[nH]1

$$$$
