
     RDKit          3D

 33 35  0  0  0  0  0  0  0  0999 V2000
    4.9531    1.8080   16.9724 H   0  0  0  0  0  0  0  0  0  0  0  0
    5.4002    1.2935   17.8229 C   0  0  0  0  0  0  0  0  0  0  0  0
    6.5535    0.6514   17.5800 N   0  0  0  0  0  0  0  0  0  0  0  0
    7.1508    0.0325   18.6022 C   0  0  0  0  0  0  0  0  0  0  0  0
    8.0889   -0.4660   18.3705 H   0  0  0  0  0  0  0  0  0  0  0  0
    6.6479    0.0144   19.9125 C   0  0  0  0  0  0  0  0  0  0  0  0
    7.4133   -0.6557   20.9646 C   0  0  0  0  0  0  0  0  0  0  0  0
    7.9797   -1.8977   20.7754 N   0  0  0  0  0  0  0  0  0  0  0  0
    8.4999   -2.1728   21.9443 C   0  0  0  0  0  0  0  0  0  0  0  0
    9.3461   -3.5123   22.6632 S   0  0  0  0  0  0  0  0  0  0  0  0
    9.7701   -2.5239   24.0478 C   0  0  0  0  0  0  0  0  0  0  0  0
   10.4546   -2.9267   24.7850 H   0  0  0  0  0  0  0  0  0  0  0  0
    9.1687   -1.3196   24.0042 C   0  0  0  0  0  0  0  0  0  0  0  0
    9.1751   -0.5085   24.7223 H   0  0  0  0  0  0  0  0  0  0  0  0
    8.4047   -1.1538   22.8517 N   0  0  0  0  0  0  0  0  0  0  0  0
    7.6768   -0.1513   22.2346 C   0  0  0  0  0  0  0  0  0  0  0  0
    7.5474    1.2382   22.7622 C   0  0  0  0  0  0  0  0  0  0  0  0
    7.7061    1.2358   23.8505 H   0  0  0  0  0  0  0  0  0  0  0  0
    6.5179    1.5814   22.6114 H   0  0  0  0  0  0  0  0  0  0  0  0
    8.5238    2.2057   22.0580 C   0  0  0  0  0  0  0  0  0  0  0  0
    8.3167    2.1672   20.9767 H   0  0  0  0  0  0  0  0  0  0  0  0
    8.2983    3.2332   22.3720 H   0  0  0  0  0  0  0  0  0  0  0  0
    9.9949    1.8651   22.3496 C   0  0  0  0  0  0  0  0  0  0  0  0
   10.1981    0.8505   21.9777 H   0  0  0  0  0  0  0  0  0  0  0  0
   10.1382    1.8279   23.4419 H   0  0  0  0  0  0  0  0  0  0  0  0
   10.9782    2.8572   21.7317 C   0  0  0  0  0  0  0  0  0  0  0  0
   12.0264    2.6384   21.9636 H   0  0  0  0  0  0  0  0  0  0  0  0
   10.7783    3.8714   22.1010 H   0  0  0  0  0  0  0  0  0  0  0  0
   10.8881    2.8526   20.6391 H   0  0  0  0  0  0  0  0  0  0  0  0
    5.4270    0.6749   20.1454 C   0  0  0  0  0  0  0  0  0  0  0  0
    4.9664    0.6740   21.1351 H   0  0  0  0  0  0  0  0  0  0  0  0
    4.7923    1.3185   19.0841 C   0  0  0  0  0  0  0  0  0  0  0  0
    3.8536    1.8524   19.2167 H   0  0  0  0  0  0  0  0  0  0  0  0
  1  2  1  0
  2  3  2  0
  3  4  1  0
  4  5  1  0
  4  6  2  0
  6  7  1  0
  7  8  1  0
  8  9  2  0
  9 10  1  0
 10 11  1  0
 11 12  1  0
 11 13  2  0
 13 14  1  0
 13 15  1  0
 15 16  1  0
 16 17  1  0
 17 18  1  0
 17 19  1  0
 17 20  1  0
 20 21  1  0
 20 22  1  0
 20 23  1  0
 23 24  1  0
 23 25  1  0
 23 26  1  0
 26 27  1  0
 26 28  1  0
 26 29  1  0
  6 30  1  0
 30 31  1  0
 30 32  2  0
 32 33  1  0
 32  2  1  0
 16  7  2  0
 15  9  1  0
M  END
>  <cnnaffinity>  (1) 
-5.22228

>  <filename>  (1) 
CCCCc1c(-c2cccnc2)nc2sccn12

$$$$
