
     RDKit          3D

 35 37  0  0  0  0  0  0  0  0999 V2000
    5.1867    1.7703   16.8674 H   0  0  0  0  0  0  0  0  0  0  0  0
    5.5892    1.2886   17.7560 C   0  0  0  0  0  0  0  0  0  0  0  0
    6.7614    0.6512   17.6107 N   0  0  0  0  0  0  0  0  0  0  0  0
    7.2619    0.0317   18.6888 C   0  0  0  0  0  0  0  0  0  0  0  0
    8.2126   -0.4783   18.5666 H   0  0  0  0  0  0  0  0  0  0  0  0
    6.6146   -0.0250   19.9424 C   0  0  0  0  0  0  0  0  0  0  0  0
    7.0718   -0.8965   21.0354 C   0  0  0  0  0  0  0  0  0  0  0  0
    6.3534   -1.7533   21.8363 C   0  0  0  0  0  0  0  0  0  0  0  0
    5.2948   -1.9448   21.7309 H   0  0  0  0  0  0  0  0  0  0  0  0
    7.1271   -2.4340   22.7420 N   0  0  0  0  0  0  0  0  0  0  0  0
    8.3253   -1.9735   22.4948 C   0  0  0  0  0  0  0  0  0  0  0  0
    9.9210   -2.1705   23.1322 S   0  0  0  0  0  0  0  0  0  0  0  0
   10.4845   -1.1038   21.8414 C   0  0  0  0  0  0  0  0  0  0  0  0
   11.9395   -0.7760   21.7280 C   0  0  0  0  0  0  0  0  0  0  0  0
   12.5190   -1.5330   22.2656 H   0  0  0  0  0  0  0  0  0  0  0  0
   12.2049   -0.8766   20.6717 H   0  0  0  0  0  0  0  0  0  0  0  0
   12.3154    0.6208   22.2651 C   0  0  0  0  0  0  0  0  0  0  0  0
   13.4015    0.7502   22.1608 H   0  0  0  0  0  0  0  0  0  0  0  0
   12.0931    0.6469   23.3401 H   0  0  0  0  0  0  0  0  0  0  0  0
   11.6333    1.7965   21.5645 C   0  0  0  0  0  0  0  0  0  0  0  0
   10.5457    1.7422   21.6857 H   0  0  0  0  0  0  0  0  0  0  0  0
   11.8077    1.6949   20.4878 H   0  0  0  0  0  0  0  0  0  0  0  0
   12.1621    3.1747   21.9914 C   0  0  0  0  0  0  0  0  0  0  0  0
   11.5714    3.9525   21.5056 H   0  0  0  0  0  0  0  0  0  0  0  0
   13.1701    3.2976   21.5849 H   0  0  0  0  0  0  0  0  0  0  0  0
   12.2546    3.4759   23.4892 C   0  0  0  0  0  0  0  0  0  0  0  0
   12.6497    4.4860   23.6546 H   0  0  0  0  0  0  0  0  0  0  0  0
   11.3042    3.4110   24.0313 H   0  0  0  0  0  0  0  0  0  0  0  0
   12.9478    2.7785   23.9646 H   0  0  0  0  0  0  0  0  0  0  0  0
    9.5785   -0.6343   21.0469 N   0  0  0  0  0  0  0  0  0  0  0  0
    8.3699   -1.0912   21.4576 N   0  0  0  0  0  0  0  0  0  0  0  0
    5.4107    0.6860   20.0749 C   0  0  0  0  0  0  0  0  0  0  0  0
    4.9046    0.7121   21.0410 H   0  0  0  0  0  0  0  0  0  0  0  0
    4.8904    1.3512   18.9675 C   0  0  0  0  0  0  0  0  0  0  0  0
    3.9610    1.9027   19.0289 H   0  0  0  0  0  0  0  0  0  0  0  0
  1  2  1  0
  2  3  2  0
  3  4  1  0
  4  5  1  0
  4  6  2  0
  6  7  1  0
  7  8  2  0
  8  9  1  0
  8 10  1  0
 10 11  2  0
 11 12  1  0
 12 13  1  0
 13 14  1  0
 14 15  1  0
 14 16  1  0
 14 17  1  0
 17 18  1  0
 17 19  1  0
 17 20  1  0
 20 21  1  0
 20 22  1  0
 20 23  1  0
 23 24  1  0
 23 25  1  0
 23 26  1  0
 26 27  1  0
 26 28  1  0
 26 29  1  0
 13 30  2  0
 30 31  1  0
  6 32  1  0
 32 33  1  0
 32 34  2  0
 34 35  1  0
 34  2  1  0
 31  7  1  0
 31 11  1  0
M  END
>  <cnnaffinity>  (1) 
-5.2962

>  <filename>  (1) 
CCCCCc1nn2c(-c3cccnc3)cnc2s1

$$$$
