
     RDKit          3D

 32 33  0  0  0  0  0  0  0  0999 V2000
    5.0173    1.7820   16.9455 H   0  0  0  0  0  0  0  0  0  0  0  0
    5.4719    1.2861   17.8016 C   0  0  0  0  0  0  0  0  0  0  0  0
    6.6447    0.6671   17.5784 N   0  0  0  0  0  0  0  0  0  0  0  0
    7.2233    0.0447   18.6137 C   0  0  0  0  0  0  0  0  0  0  0  0
    8.1810   -0.4387   18.4461 H   0  0  0  0  0  0  0  0  0  0  0  0
    6.6615   -0.0186   19.9010 C   0  0  0  0  0  0  0  0  0  0  0  0
    7.3545   -0.7216   20.9273 N   0  0  0  0  0  0  0  0  0  0  0  0
    8.7172   -0.5920   20.8862 N   0  0  0  0  0  0  0  0  0  0  0  0
    9.4346   -1.1393   21.8271 C   0  0  0  0  0  0  0  0  0  0  0  0
   10.9006   -0.7616   21.8243 C   0  0  0  0  0  0  0  0  0  0  0  0
   11.5061   -1.5931   22.2070 H   0  0  0  0  0  0  0  0  0  0  0  0
   11.1989   -0.5705   20.7865 H   0  0  0  0  0  0  0  0  0  0  0  0
   11.1208    0.5082   22.6755 C   0  0  0  0  0  0  0  0  0  0  0  0
   10.9009    0.2760   23.7265 H   0  0  0  0  0  0  0  0  0  0  0  0
   10.3820    1.2627   22.3588 H   0  0  0  0  0  0  0  0  0  0  0  0
   12.5367    1.0831   22.6055 C   0  0  0  0  0  0  0  0  0  0  0  0
   12.8116    1.2442   21.5586 H   0  0  0  0  0  0  0  0  0  0  0  0
   12.5247    2.0806   23.0604 H   0  0  0  0  0  0  0  0  0  0  0  0
   13.5927    0.2021   23.2791 C   0  0  0  0  0  0  0  0  0  0  0  0
   13.5806   -0.8055   22.8412 H   0  0  0  0  0  0  0  0  0  0  0  0
   13.3986    0.1117   24.3559 H   0  0  0  0  0  0  0  0  0  0  0  0
   14.5970    0.6304   23.1521 H   0  0  0  0  0  0  0  0  0  0  0  0
    8.8596   -1.9864   22.9239 C   0  0  0  0  0  0  0  0  0  0  0  0
    9.5327   -2.4930   23.8142 O   0  0  0  0  0  0  0  0  0  0  0  0
    7.4164   -2.1411   22.8317 C   0  0  0  0  0  0  0  0  0  0  0  0
    6.9360   -2.7510   23.5823 H   0  0  0  0  0  0  0  0  0  0  0  0
    6.7244   -1.5011   21.8655 C   0  0  0  0  0  0  0  0  0  0  0  0
    5.6403   -1.5792   21.7565 H   0  0  0  0  0  0  0  0  0  0  0  0
    5.4581    0.6575   20.1321 C   0  0  0  0  0  0  0  0  0  0  0  0
    5.0407    0.6900   21.1363 H   0  0  0  0  0  0  0  0  0  0  0  0
    4.8487    1.3125   19.0547 C   0  0  0  0  0  0  0  0  0  0  0  0
    3.9130    1.8482   19.1801 H   0  0  0  0  0  0  0  0  0  0  0  0
  1  2  1  0
  2  3  2  0
  3  4  1  0
  4  5  1  0
  4  6  2  0
  6  7  1  0
  7  8  1  0
  8  9  2  0
  9 10  1  0
 10 11  1  0
 10 12  1  0
 10 13  1  0
 13 14  1  0
 13 15  1  0
 13 16  1  0
 16 17  1  0
 16 18  1  0
 16 19  1  0
 19 20  1  0
 19 21  1  0
 19 22  1  0
  9 23  1  0
 23 24  2  0
 23 25  1  0
 25 26  1  0
 25 27  2  0
 27 28  1  0
  6 29  1  0
 29 30  1  0
 29 31  2  0
 31 32  1  0
 31  2  1  0
 27  7  1  0
M  END
>  <cnnaffinity>  (1) 
-4.87209

>  <filename>  (1) 
CCCCc1nn(-c2cccnc2)ccc1=O

$$$$
