
     RDKit          3D

 33 34  0  0  0  0  0  0  0  0999 V2000
    4.9235    1.7915   16.9865 H   0  0  0  0  0  0  0  0  0  0  0  0
    5.3993    1.2957   17.8313 C   0  0  0  0  0  0  0  0  0  0  0  0
    6.5567    0.6721   17.5700 N   0  0  0  0  0  0  0  0  0  0  0  0
    7.1650    0.0623   18.5995 C   0  0  0  0  0  0  0  0  0  0  0  0
    8.1079   -0.4259   18.3655 H   0  0  0  0  0  0  0  0  0  0  0  0
    6.6570    0.0112   19.9136 C   0  0  0  0  0  0  0  0  0  0  0  0
    7.3840   -0.6984   20.9868 C   0  0  0  0  0  0  0  0  0  0  0  0
    6.6175   -1.9466   21.9058 S   0  0  0  0  0  0  0  0  0  0  0  0
    8.0124   -2.1656   22.8815 C   0  0  0  0  0  0  0  0  0  0  0  0
    7.9991   -2.8986   23.6729 H   0  0  0  0  0  0  0  0  0  0  0  0
    9.0158   -1.3233   22.5299 C   0  0  0  0  0  0  0  0  0  0  0  0
    9.9791   -1.2628   23.0304 H   0  0  0  0  0  0  0  0  0  0  0  0
    8.6650   -0.4742   21.4301 C   0  0  0  0  0  0  0  0  0  0  0  0
    9.5842    0.6274   20.9736 C   0  0  0  0  0  0  0  0  0  0  0  0
   10.6179    0.2633   20.9725 H   0  0  0  0  0  0  0  0  0  0  0  0
    9.3562    0.8969   19.9389 H   0  0  0  0  0  0  0  0  0  0  0  0
    9.4937    1.8790   21.8636 C   0  0  0  0  0  0  0  0  0  0  0  0
   10.2689    2.6013   21.5643 H   0  0  0  0  0  0  0  0  0  0  0  0
    9.7093    1.6002   22.9030 H   0  0  0  0  0  0  0  0  0  0  0  0
    8.1260    2.5521   21.8065 C   0  0  0  0  0  0  0  0  0  0  0  0
    7.3418    1.8764   22.1762 H   0  0  0  0  0  0  0  0  0  0  0  0
    7.8606    2.6759   20.7550 H   0  0  0  0  0  0  0  0  0  0  0  0
    8.0808    3.8792   22.5678 C   0  0  0  0  0  0  0  0  0  0  0  0
    8.8622    4.5554   22.1915 H   0  0  0  0  0  0  0  0  0  0  0  0
    8.3408    3.6915   23.6196 H   0  0  0  0  0  0  0  0  0  0  0  0
    6.7239    4.5763   22.4878 C   0  0  0  0  0  0  0  0  0  0  0  0
    5.9300    3.9334   22.8842 H   0  0  0  0  0  0  0  0  0  0  0  0
    6.7084    5.5118   23.0574 H   0  0  0  0  0  0  0  0  0  0  0  0
    6.4584    4.8147   21.4512 H   0  0  0  0  0  0  0  0  0  0  0  0
    5.4314    0.6514   20.1557 C   0  0  0  0  0  0  0  0  0  0  0  0
    5.0059    0.6360   21.1612 H   0  0  0  0  0  0  0  0  0  0  0  0
    4.8022    1.3111   19.0970 C   0  0  0  0  0  0  0  0  0  0  0  0
    3.8733    1.8421   19.2475 H   0  0  0  0  0  0  0  0  0  0  0  0
  1  2  1  0
  2  3  2  0
  3  4  1  0
  4  5  1  0
  4  6  2  0
  6  7  1  0
  7  8  1  0
  8  9  1  0
  9 10  1  0
  9 11  2  0
 11 12  1  0
 11 13  1  0
 13 14  1  0
 14 15  1  0
 14 16  1  0
 14 17  1  0
 17 18  1  0
 17 19  1  0
 17 20  1  0
 20 21  1  0
 20 22  1  0
 20 23  1  0
 23 24  1  0
 23 25  1  0
 23 26  1  0
 26 27  1  0
 26 28  1  0
 26 29  1  0
  6 30  1  0
 30 31  1  0
 30 32  2  0
 32 33  1  0
 32  2  1  0
 13  7  2  0
M  END
>  <cnnaffinity>  (1) 
-5.17341

>  <filename>  (1) 
CCCCCc1ccsc1-c1cccnc1

$$$$
