
     RDKit          3D

 46 48  0  0  0  0  0  0  0  0999 V2000
    5.0360    1.7942   16.9007 H   0  0  0  0  0  0  0  0  0  0  0  0
    5.4443    1.3035   17.7825 C   0  0  0  0  0  0  0  0  0  0  0  0
    6.5917    0.6331   17.5982 N   0  0  0  0  0  0  0  0  0  0  0  0
    7.1174    0.0103   18.6589 C   0  0  0  0  0  0  0  0  0  0  0  0
    8.0317   -0.5524   18.4739 H   0  0  0  0  0  0  0  0  0  0  0  0
    6.5570    0.0571   19.9480 C   0  0  0  0  0  0  0  0  0  0  0  0
    7.2902   -0.5677   21.0560 C   0  0  0  0  0  0  0  0  0  0  0  0
    7.9166   -1.7249   20.8443 N   0  0  0  0  0  0  0  0  0  0  0  0
    8.4961   -1.9808   22.0137 N   0  0  0  0  0  0  0  0  0  0  0  0
    8.3544   -1.0264   22.9428 C   0  0  0  0  0  0  0  0  0  0  0  0
    7.5318   -0.0658   22.3783 C   0  0  0  0  0  0  0  0  0  0  0  0
    7.2328    1.3457   22.8189 C   0  0  0  0  0  0  0  0  0  0  0  0
    7.4883    1.4799   23.8779 H   0  0  0  0  0  0  0  0  0  0  0  0
    6.1567    1.5404   22.7483 H   0  0  0  0  0  0  0  0  0  0  0  0
    7.9978    2.3549   21.9394 C   0  0  0  0  0  0  0  0  0  0  0  0
    7.6468    2.2277   20.9071 H   0  0  0  0  0  0  0  0  0  0  0  0
    7.7480    3.3847   22.2323 H   0  0  0  0  0  0  0  0  0  0  0  0
    9.5153    2.1409   21.9879 C   0  0  0  0  0  0  0  0  0  0  0  0
   10.0023    2.7330   21.2053 H   0  0  0  0  0  0  0  0  0  0  0  0
    9.7276    1.0906   21.7326 H   0  0  0  0  0  0  0  0  0  0  0  0
   10.1297    2.4465   23.3556 C   0  0  0  0  0  0  0  0  0  0  0  0
    9.9116    3.4895   23.6322 H   0  0  0  0  0  0  0  0  0  0  0  0
    9.6377    1.8347   24.1231 H   0  0  0  0  0  0  0  0  0  0  0  0
   11.6370    2.2049   23.4232 C   0  0  0  0  0  0  0  0  0  0  0  0
   11.9756    2.4000   24.4505 H   0  0  0  0  0  0  0  0  0  0  0  0
   11.8496    1.1397   23.2439 H   0  0  0  0  0  0  0  0  0  0  0  0
   12.4508    3.0463   22.4308 C   0  0  0  0  0  0  0  0  0  0  0  0
   12.0339    4.0605   22.3601 H   0  0  0  0  0  0  0  0  0  0  0  0
   12.3566    2.6238   21.4178 H   0  0  0  0  0  0  0  0  0  0  0  0
   13.9153    3.1468   22.8347 C   0  0  0  0  0  0  0  0  0  0  0  0
   14.4894    3.7825   22.1558 H   0  0  0  0  0  0  0  0  0  0  0  0
   14.0264    3.5770   23.8374 H   0  0  0  0  0  0  0  0  0  0  0  0
   14.3850    2.1564   22.8513 H   0  0  0  0  0  0  0  0  0  0  0  0
    9.3097   -1.3089   24.0755 C   0  0  0  0  0  0  0  0  0  0  0  0
    8.7901   -1.3591   25.0348 H   0  0  0  0  0  0  0  0  0  0  0  0
   10.0552   -0.5095   24.1449 H   0  0  0  0  0  0  0  0  0  0  0  0
    9.9677   -2.6706   23.6869 C   0  0  0  0  0  0  0  0  0  0  0  0
   11.0551   -2.6312   23.6895 H   0  0  0  0  0  0  0  0  0  0  0  0
    9.6730   -3.4635   24.3743 H   0  0  0  0  0  0  0  0  0  0  0  0
    9.4784   -2.9982   22.2605 C   0  0  0  0  0  0  0  0  0  0  0  0
   10.2674   -2.8897   21.5129 H   0  0  0  0  0  0  0  0  0  0  0  0
    9.0152   -3.9836   22.1828 H   0  0  0  0  0  0  0  0  0  0  0  0
    5.3331    0.7241   20.1093 C   0  0  0  0  0  0  0  0  0  0  0  0
    4.8360    0.7350   21.0798 H   0  0  0  0  0  0  0  0  0  0  0  0
    4.7695    1.3622   19.0047 C   0  0  0  0  0  0  0  0  0  0  0  0
    3.8273    1.8956   19.0815 H   0  0  0  0  0  0  0  0  0  0  0  0
  1  2  1  0
  2  3  2  0
  3  4  1  0
  4  5  1  0
  4  6  2  0
  6  7  1  0
  7  8  2  0
  8  9  1  0
  9 10  1  0
 10 11  2  0
 11 12  1  0
 12 13  1  0
 12 14  1  0
 12 15  1  0
 15 16  1  0
 15 17  1  0
 15 18  1  0
 18 19  1  0
 18 20  1  0
 18 21  1  0
 21 22  1  0
 21 23  1  0
 21 24  1  0
 24 25  1  0
 24 26  1  0
 24 27  1  0
 27 28  1  0
 27 29  1  0
 27 30  1  0
 30 31  1  0
 30 32  1  0
 30 33  1  0
 10 34  1  0
 34 35  1  0
 34 36  1  0
 34 37  1  0
 37 38  1  0
 37 39  1  0
 37 40  1  0
 40 41  1  0
 40 42  1  0
  6 43  1  0
 43 44  1  0
 43 45  2  0
 45 46  1  0
 45  2  1  0
 11  7  1  0
 40  9  1  0
M  END
>  <cnnaffinity>  (1) 
-5.86264

>  <filename>  (1) 
CCCCCCCc1c(-c2cccnc2)nn2c1CCC2

$$$$
