
     RDKit          3D

 37 39  0  0  0  0  0  0  0  0999 V2000
    4.9612    1.8332   16.9718 H   0  0  0  0  0  0  0  0  0  0  0  0
    5.4102    1.2977   17.8061 C   0  0  0  0  0  0  0  0  0  0  0  0
    6.5638    0.6529   17.5624 N   0  0  0  0  0  0  0  0  0  0  0  0
    7.1546    0.0215   18.5853 C   0  0  0  0  0  0  0  0  0  0  0  0
    8.0887   -0.4885   18.3465 H   0  0  0  0  0  0  0  0  0  0  0  0
    6.6394    0.0129   19.8986 C   0  0  0  0  0  0  0  0  0  0  0  0
    7.3681   -0.6330   21.0048 C   0  0  0  0  0  0  0  0  0  0  0  0
    7.9521   -1.8160   20.8149 N   0  0  0  0  0  0  0  0  0  0  0  0
    8.5300   -2.0728   21.9871 N   0  0  0  0  0  0  0  0  0  0  0  0
    8.4002   -1.1117   22.9114 C   0  0  0  0  0  0  0  0  0  0  0  0
    7.6137   -0.1334   22.3314 C   0  0  0  0  0  0  0  0  0  0  0  0
    7.3922    1.2617   22.8382 C   0  0  0  0  0  0  0  0  0  0  0  0
    6.3277    1.5207   22.7866 H   0  0  0  0  0  0  0  0  0  0  0  0
    7.6605    1.2942   23.9034 H   0  0  0  0  0  0  0  0  0  0  0  0
    8.2077    2.2899   22.0338 C   0  0  0  0  0  0  0  0  0  0  0  0
    7.9155    2.1994   20.9782 H   0  0  0  0  0  0  0  0  0  0  0  0
    7.9259    3.3059   22.3414 H   0  0  0  0  0  0  0  0  0  0  0  0
    9.7322    2.1243   22.1468 C   0  0  0  0  0  0  0  0  0  0  0  0
   10.2062    2.7284   21.3661 H   0  0  0  0  0  0  0  0  0  0  0  0
   10.0080    1.0837   21.9198 H   0  0  0  0  0  0  0  0  0  0  0  0
   10.3109    2.5312   23.5025 C   0  0  0  0  0  0  0  0  0  0  0  0
   10.0619    3.5710   23.7403 H   0  0  0  0  0  0  0  0  0  0  0  0
   11.4025    2.4487   23.5185 H   0  0  0  0  0  0  0  0  0  0  0  0
    9.9289    1.9090   24.3184 H   0  0  0  0  0  0  0  0  0  0  0  0
    9.3574   -1.3623   24.0410 C   0  0  0  0  0  0  0  0  0  0  0  0
   10.0817   -0.5439   24.1166 H   0  0  0  0  0  0  0  0  0  0  0  0
    8.8422   -1.4045   25.0034 H   0  0  0  0  0  0  0  0  0  0  0  0
   10.0301   -2.7128   23.6540 C   0  0  0  0  0  0  0  0  0  0  0  0
    9.7510   -3.4929   24.3585 H   0  0  0  0  0  0  0  0  0  0  0  0
   11.1148   -2.6488   23.6450 H   0  0  0  0  0  0  0  0  0  0  0  0
    9.5297   -3.0635   22.2352 C   0  0  0  0  0  0  0  0  0  0  0  0
    9.0888   -4.0576   22.1330 H   0  0  0  0  0  0  0  0  0  0  0  0
   10.3111   -2.9413   21.4818 H   0  0  0  0  0  0  0  0  0  0  0  0
    5.4159    0.6601   20.1157 C   0  0  0  0  0  0  0  0  0  0  0  0
    4.9764    0.6510   21.1113 H   0  0  0  0  0  0  0  0  0  0  0  0
    4.7868    1.3118   19.0581 C   0  0  0  0  0  0  0  0  0  0  0  0
    3.8544    1.8505   19.2066 H   0  0  0  0  0  0  0  0  0  0  0  0
  1  2  1  0
  2  3  2  0
  3  4  1  0
  4  5  1  0
  4  6  2  0
  6  7  1  0
  7  8  2  0
  8  9  1  0
  9 10  1  0
 10 11  2  0
 11 12  1  0
 12 13  1  0
 12 14  1  0
 12 15  1  0
 15 16  1  0
 15 17  1  0
 15 18  1  0
 18 19  1  0
 18 20  1  0
 18 21  1  0
 21 22  1  0
 21 23  1  0
 21 24  1  0
 10 25  1  0
 25 26  1  0
 25 27  1  0
 25 28  1  0
 28 29  1  0
 28 30  1  0
 28 31  1  0
 31 32  1  0
 31 33  1  0
  6 34  1  0
 34 35  1  0
 34 36  2  0
 36 37  1  0
 36  2  1  0
 11  7  1  0
 31  9  1  0
M  END
>  <cnnaffinity>  (1) 
-5.44703

>  <filename>  (1) 
CCCCc1c(-c2cccnc2)nn2c1CCC2

$$$$
