
     RDKit          3D

 36 37  0  0  0  0  0  0  0  0999 V2000
    4.9099    1.8023   16.9809 H   0  0  0  0  0  0  0  0  0  0  0  0
    5.3850    1.3049   17.8233 C   0  0  0  0  0  0  0  0  0  0  0  0
    6.5455    0.6845   17.5496 N   0  0  0  0  0  0  0  0  0  0  0  0
    7.1599    0.0645   18.5627 C   0  0  0  0  0  0  0  0  0  0  0  0
    8.1191   -0.4087   18.3536 H   0  0  0  0  0  0  0  0  0  0  0  0
    6.6352    0.0023   19.8695 C   0  0  0  0  0  0  0  0  0  0  0  0
    7.3428   -0.6788   20.9317 N   0  0  0  0  0  0  0  0  0  0  0  0
    8.6045   -0.1760   21.3623 C   0  0  0  0  0  0  0  0  0  0  0  0
    9.0776    0.8181   20.8469 O   0  0  0  0  0  0  0  0  0  0  0  0
    9.2719   -0.9135   22.4072 C   0  0  0  0  0  0  0  0  0  0  0  0
   10.2073   -0.4900   22.7342 H   0  0  0  0  0  0  0  0  0  0  0  0
    8.7328   -2.0107   22.9643 C   0  0  0  0  0  0  0  0  0  0  0  0
    9.3225   -2.7729   24.1026 C   0  0  0  0  0  0  0  0  0  0  0  0
    9.2905   -3.8478   23.8907 H   0  0  0  0  0  0  0  0  0  0  0  0
   10.3799   -2.4916   24.1489 H   0  0  0  0  0  0  0  0  0  0  0  0
    8.6694   -2.4757   25.4729 C   0  0  0  0  0  0  0  0  0  0  0  0
    7.6116   -2.7813   25.4468 H   0  0  0  0  0  0  0  0  0  0  0  0
    9.1495   -3.1212   26.2200 H   0  0  0  0  0  0  0  0  0  0  0  0
    8.7630   -0.9996   25.9231 C   0  0  0  0  0  0  0  0  0  0  0  0
    8.8838   -0.9519   27.0158 H   0  0  0  0  0  0  0  0  0  0  0  0
    9.6746   -0.5394   25.5058 H   0  0  0  0  0  0  0  0  0  0  0  0
    7.5475   -0.1367   25.5402 C   0  0  0  0  0  0  0  0  0  0  0  0
    7.3659   -0.1856   24.4565 H   0  0  0  0  0  0  0  0  0  0  0  0
    6.6472   -0.5680   26.0033 H   0  0  0  0  0  0  0  0  0  0  0  0
    7.7059    1.3209   25.9757 C   0  0  0  0  0  0  0  0  0  0  0  0
    7.8576    1.3968   27.0601 H   0  0  0  0  0  0  0  0  0  0  0  0
    6.8226    1.9152   25.7194 H   0  0  0  0  0  0  0  0  0  0  0  0
    8.5732    1.7861   25.4905 H   0  0  0  0  0  0  0  0  0  0  0  0
    7.5109   -2.4116   22.4910 N   0  0  0  0  0  0  0  0  0  0  0  0
    6.9865   -3.1942   22.8290 H   0  0  0  0  0  0  0  0  0  0  0  0
    6.7782   -1.8127   21.5031 C   0  0  0  0  0  0  0  0  0  0  0  0
    5.7221   -2.3179   21.1829 O   0  0  0  0  0  0  0  0  0  0  0  0
    5.4322    0.6458   20.1431 C   0  0  0  0  0  0  0  0  0  0  0  0
    5.0248    0.6103   21.1518 H   0  0  0  0  0  0  0  0  0  0  0  0
    4.7995    1.3209   19.0934 C   0  0  0  0  0  0  0  0  0  0  0  0
    3.8704    1.8504   19.2494 H   0  0  0  0  0  0  0  0  0  0  0  0
  1  2  1  0
  2  3  2  0
  3  4  1  0
  4  5  1  0
  4  6  2  0
  6  7  1  0
  7  8  1  0
  8  9  2  0
  8 10  1  0
 10 11  1  0
 10 12  2  0
 12 13  1  0
 13 14  1  0
 13 15  1  0
 13 16  1  0
 16 17  1  0
 16 18  1  0
 16 19  1  0
 19 20  1  0
 19 21  1  0
 19 22  1  0
 22 23  1  0
 22 24  1  0
 22 25  1  0
 25 26  1  0
 25 27  1  0
 25 28  1  0
 12 29  1  0
 29 30  1  0
 29 31  1  0
 31 32  2  0
  6 33  1  0
 33 34  1  0
 33 35  2  0
 35 36  1  0
 35  2  1  0
 31  7  1  0
M  END
>  <cnnaffinity>  (1) 
-5.44945

>  <filename>  (1) 
CCCCCc1cc(=O)n(-c2cccnc2)c(=O)[nH]1

$$$$
