
     RDKit          3D

 37 38  0  0  0  0  0  0  0  0999 V2000
    4.9221    1.7940   16.9947 H   0  0  0  0  0  0  0  0  0  0  0  0
    5.3925    1.2914   17.8344 C   0  0  0  0  0  0  0  0  0  0  0  0
    6.5494    0.6650   17.5638 N   0  0  0  0  0  0  0  0  0  0  0  0
    7.1718    0.0544   18.5772 C   0  0  0  0  0  0  0  0  0  0  0  0
    8.1271   -0.4178   18.3614 H   0  0  0  0  0  0  0  0  0  0  0  0
    6.6679    0.0110   19.8951 C   0  0  0  0  0  0  0  0  0  0  0  0
    7.3630   -0.6561   20.9360 N   0  0  0  0  0  0  0  0  0  0  0  0
    6.7637   -1.4485   21.9199 C   0  0  0  0  0  0  0  0  0  0  0  0
    5.6939   -1.5853   21.9520 H   0  0  0  0  0  0  0  0  0  0  0  0
    7.7248   -1.9445   22.7307 C   0  0  0  0  0  0  0  0  0  0  0  0
    7.6313   -2.7199   23.9977 C   0  0  0  0  0  0  0  0  0  0  0  0
    6.6694   -3.2504   24.0062 H   0  0  0  0  0  0  0  0  0  0  0  0
    8.4033   -3.4978   24.0336 H   0  0  0  0  0  0  0  0  0  0  0  0
    7.7117   -1.8293   25.2513 C   0  0  0  0  0  0  0  0  0  0  0  0
    7.7283   -2.4647   26.1479 H   0  0  0  0  0  0  0  0  0  0  0  0
    8.6651   -1.2837   25.2518 H   0  0  0  0  0  0  0  0  0  0  0  0
    6.5484   -0.8340   25.3591 C   0  0  0  0  0  0  0  0  0  0  0  0
    5.5950   -1.3725   25.2574 H   0  0  0  0  0  0  0  0  0  0  0  0
    6.5835   -0.1251   24.5146 H   0  0  0  0  0  0  0  0  0  0  0  0
    6.5404   -0.0528   26.6767 C   0  0  0  0  0  0  0  0  0  0  0  0
    5.5839    0.4797   26.7796 H   0  0  0  0  0  0  0  0  0  0  0  0
    6.5836   -0.7596   27.5217 H   0  0  0  0  0  0  0  0  0  0  0  0
    7.6822    0.9576   26.8117 C   0  0  0  0  0  0  0  0  0  0  0  0
    7.6785    1.6234   25.9360 H   0  0  0  0  0  0  0  0  0  0  0  0
    8.6514    0.4398   26.7859 H   0  0  0  0  0  0  0  0  0  0  0  0
    7.5708    1.7836   28.0906 C   0  0  0  0  0  0  0  0  0  0  0  0
    8.3754    2.5126   28.1542 H   0  0  0  0  0  0  0  0  0  0  0  0
    7.6158    1.1466   28.9831 H   0  0  0  0  0  0  0  0  0  0  0  0
    6.6274    2.3416   28.1264 H   0  0  0  0  0  0  0  0  0  0  0  0
    8.9253   -1.4482   22.2345 N   0  0  0  0  0  0  0  0  0  0  0  0
    9.8653   -1.5443   22.5612 H   0  0  0  0  0  0  0  0  0  0  0  0
    8.7533   -0.6543   21.1386 C   0  0  0  0  0  0  0  0  0  0  0  0
    9.6448   -0.1085   20.5182 O   0  0  0  0  0  0  0  0  0  0  0  0
    5.4485    0.6476   20.1589 C   0  0  0  0  0  0  0  0  0  0  0  0
    5.0381    0.6355   21.1720 H   0  0  0  0  0  0  0  0  0  0  0  0
    4.8092    1.3080   19.1056 C   0  0  0  0  0  0  0  0  0  0  0  0
    3.8792    1.8382   19.2605 H   0  0  0  0  0  0  0  0  0  0  0  0
  1  2  1  0
  2  3  2  0
  3  4  1  0
  4  5  1  0
  4  6  2  0
  6  7  1  0
  7  8  1  0
  8  9  1  0
  8 10  2  0
 10 11  1  0
 11 12  1  0
 11 13  1  0
 11 14  1  0
 14 15  1  0
 14 16  1  0
 14 17  1  0
 17 18  1  0
 17 19  1  0
 17 20  1  0
 20 21  1  0
 20 22  1  0
 20 23  1  0
 23 24  1  0
 23 25  1  0
 23 26  1  0
 26 27  1  0
 26 28  1  0
 26 29  1  0
 10 30  1  0
 30 31  1  0
 30 32  1  0
 32 33  2  0
  6 34  1  0
 34 35  1  0
 34 36  2  0
 36 37  1  0
 36  2  1  0
 32  7  1  0
M  END
>  <cnnaffinity>  (1) 
-5.30122

>  <filename>  (1) 
CCCCCCc1cn(-c2cccnc2)c(=O)[nH]1

$$$$
