
     RDKit          3D

 34 36  0  0  0  0  0  0  0  0999 V2000
    4.9799    1.8445   16.9464 H   0  0  0  0  0  0  0  0  0  0  0  0
    5.4095    1.3009   17.7856 C   0  0  0  0  0  0  0  0  0  0  0  0
    6.5463    0.6314   17.5362 N   0  0  0  0  0  0  0  0  0  0  0  0
    7.1232   -0.0029   18.5623 C   0  0  0  0  0  0  0  0  0  0  0  0
    8.0274   -0.5582   18.3214 H   0  0  0  0  0  0  0  0  0  0  0  0
    6.6278    0.0230   19.8793 C   0  0  0  0  0  0  0  0  0  0  0  0
    7.3914   -0.5951   20.9694 C   0  0  0  0  0  0  0  0  0  0  0  0
    7.9774   -1.7795   20.7866 N   0  0  0  0  0  0  0  0  0  0  0  0
    8.5499   -2.0189   21.9656 N   0  0  0  0  0  0  0  0  0  0  0  0
    8.4256   -1.0461   22.8732 C   0  0  0  0  0  0  0  0  0  0  0  0
    7.6557   -0.0633   22.2764 C   0  0  0  0  0  0  0  0  0  0  0  0
    7.2214    1.2290   22.9254 C   0  0  0  0  0  0  0  0  0  0  0  0
    8.0984    1.7284   23.3685 H   0  0  0  0  0  0  0  0  0  0  0  0
    6.8416    1.9206   22.1611 H   0  0  0  0  0  0  0  0  0  0  0  0
    6.1722    1.0302   24.0294 C   0  0  0  0  0  0  0  0  0  0  0  0
    5.2692    0.5949   23.5825 H   0  0  0  0  0  0  0  0  0  0  0  0
    6.5504    0.2957   24.7557 H   0  0  0  0  0  0  0  0  0  0  0  0
    5.8098    2.3289   24.7428 C   0  0  0  0  0  0  0  0  0  0  0  0
    5.0644    2.1569   25.5248 H   0  0  0  0  0  0  0  0  0  0  0  0
    6.6920    2.7776   25.2144 H   0  0  0  0  0  0  0  0  0  0  0  0
    5.3953    3.0646   24.0431 H   0  0  0  0  0  0  0  0  0  0  0  0
    9.2377   -1.3863   24.1002 C   0  0  0  0  0  0  0  0  0  0  0  0
    9.9522   -0.5948   24.3459 H   0  0  0  0  0  0  0  0  0  0  0  0
    8.5955   -1.5366   24.9747 H   0  0  0  0  0  0  0  0  0  0  0  0
    9.9679   -2.7019   23.7002 C   0  0  0  0  0  0  0  0  0  0  0  0
    9.7574   -3.5051   24.4076 H   0  0  0  0  0  0  0  0  0  0  0  0
   11.0462   -2.5613   23.6775 H   0  0  0  0  0  0  0  0  0  0  0  0
    9.4891   -3.0587   22.2710 C   0  0  0  0  0  0  0  0  0  0  0  0
   10.3037   -2.9693   21.5518 H   0  0  0  0  0  0  0  0  0  0  0  0
    9.0018   -4.0330   22.1977 H   0  0  0  0  0  0  0  0  0  0  0  0
    5.4014    0.6661   20.1053 C   0  0  0  0  0  0  0  0  0  0  0  0
    4.9310    0.6416   21.0910 H   0  0  0  0  0  0  0  0  0  0  0  0
    4.7850    1.3153   19.0366 C   0  0  0  0  0  0  0  0  0  0  0  0
    3.8486    1.8440   19.1646 H   0  0  0  0  0  0  0  0  0  0  0  0
  1  2  1  0
  2  3  2  0
  3  4  1  0
  4  5  1  0
  4  6  2  0
  6  7  1  0
  7  8  2  0
  8  9  1  0
  9 10  1  0
 10 11  2  0
 11 12  1  0
 12 13  1  0
 12 14  1  0
 12 15  1  0
 15 16  1  0
 15 17  1  0
 15 18  1  0
 18 19  1  0
 18 20  1  0
 18 21  1  0
 10 22  1  0
 22 23  1  0
 22 24  1  0
 22 25  1  0
 25 26  1  0
 25 27  1  0
 25 28  1  0
 28 29  1  0
 28 30  1  0
  6 31  1  0
 31 32  1  0
 31 33  2  0
 33 34  1  0
 33  2  1  0
 11  7  1  0
 28  9  1  0
M  END
>  <cnnaffinity>  (1) 
-5.12897

>  <filename>  (1) 
CCCc1c(-c2cccnc2)nn2c1CCC2

$$$$
