
     RDKit          3D

 35 36  0  0  0  0  0  0  0  0999 V2000
    4.9137    1.7857   16.9951 H   0  0  0  0  0  0  0  0  0  0  0  0
    5.3964    1.2967   17.8378 C   0  0  0  0  0  0  0  0  0  0  0  0
    6.5604    0.6816   17.5722 N   0  0  0  0  0  0  0  0  0  0  0  0
    7.1728    0.0597   18.5903 C   0  0  0  0  0  0  0  0  0  0  0  0
    8.1215   -0.4294   18.3755 H   0  0  0  0  0  0  0  0  0  0  0  0
    6.6631   -0.0128   19.9110 C   0  0  0  0  0  0  0  0  0  0  0  0
    7.3267   -0.7088   20.9271 N   0  0  0  0  0  0  0  0  0  0  0  0
    6.7630   -1.1236   21.6579 H   0  0  0  0  0  0  0  0  0  0  0  0
    8.7140   -0.7049   21.1326 C   0  0  0  0  0  0  0  0  0  0  0  0
    9.6923    0.1976   20.6598 C   0  0  0  0  0  0  0  0  0  0  0  0
    9.5210    1.0274   19.9964 H   0  0  0  0  0  0  0  0  0  0  0  0
   10.9062   -0.0787   21.1270 N   0  0  0  0  0  0  0  0  0  0  0  0
   10.7072   -1.1643   21.8881 N   0  0  0  0  0  0  0  0  0  0  0  0
   11.4873   -1.5533   22.3918 H   0  0  0  0  0  0  0  0  0  0  0  0
    9.4170   -1.5898   21.9233 C   0  0  0  0  0  0  0  0  0  0  0  0
    8.9198   -2.6706   22.8047 C   0  0  0  0  0  0  0  0  0  0  0  0
    8.0684   -3.1490   22.3035 H   0  0  0  0  0  0  0  0  0  0  0  0
    9.6870   -3.4474   22.9239 H   0  0  0  0  0  0  0  0  0  0  0  0
    8.4742   -2.1243   24.1698 C   0  0  0  0  0  0  0  0  0  0  0  0
    7.7935   -1.2771   24.0105 H   0  0  0  0  0  0  0  0  0  0  0  0
    9.3466   -1.7125   24.6952 H   0  0  0  0  0  0  0  0  0  0  0  0
    7.8022   -3.1722   25.0470 C   0  0  0  0  0  0  0  0  0  0  0  0
    6.9731   -3.6347   24.4905 H   0  0  0  0  0  0  0  0  0  0  0  0
    7.3457   -2.6743   25.9129 H   0  0  0  0  0  0  0  0  0  0  0  0
    8.7537   -4.2638   25.5389 C   0  0  0  0  0  0  0  0  0  0  0  0
    9.6155   -3.7931   26.0319 H   0  0  0  0  0  0  0  0  0  0  0  0
    9.1631   -4.8232   24.6879 H   0  0  0  0  0  0  0  0  0  0  0  0
    8.0748   -5.2294   26.5025 C   0  0  0  0  0  0  0  0  0  0  0  0
    8.7659   -6.0037   26.8483 H   0  0  0  0  0  0  0  0  0  0  0  0
    7.2227   -5.7239   26.0211 H   0  0  0  0  0  0  0  0  0  0  0  0
    7.6930   -4.6964   27.3815 H   0  0  0  0  0  0  0  0  0  0  0  0
    5.4411    0.6311   20.1633 C   0  0  0  0  0  0  0  0  0  0  0  0
    5.0183    0.6231   21.1682 H   0  0  0  0  0  0  0  0  0  0  0  0
    4.8117    1.3052   19.1090 C   0  0  0  0  0  0  0  0  0  0  0  0
    3.8819    1.8377   19.2640 H   0  0  0  0  0  0  0  0  0  0  0  0
  1  2  1  0
  2  3  2  0
  3  4  1  0
  4  5  1  0
  4  6  2  0
  6  7  1  0
  7  8  1  0
  7  9  1  0
  9 10  1  0
 10 11  1  0
 10 12  2  0
 12 13  1  0
 13 14  1  0
 13 15  1  0
 15 16  1  0
 16 17  1  0
 16 18  1  0
 16 19  1  0
 19 20  1  0
 19 21  1  0
 19 22  1  0
 22 23  1  0
 22 24  1  0
 22 25  1  0
 25 26  1  0
 25 27  1  0
 25 28  1  0
 28 29  1  0
 28 30  1  0
 28 31  1  0
  6 32  1  0
 32 33  1  0
 32 34  2  0
 34 35  1  0
 34  2  1  0
 15  9  2  0
M  END
>  <cnnaffinity>  (1) 
-5.49617

>  <filename>  (1) 
CCCCCc1[nH]ncc1Nc1cccnc1

$$$$
