
     RDKit          3D

 44 45  0  0  0  0  0  0  0  0999 V2000
    4.9109    1.7922   16.9885 H   0  0  0  0  0  0  0  0  0  0  0  0
    5.3947    1.3003   17.8302 C   0  0  0  0  0  0  0  0  0  0  0  0
    6.5558    0.6830   17.5637 N   0  0  0  0  0  0  0  0  0  0  0  0
    7.1738    0.0686   18.5798 C   0  0  0  0  0  0  0  0  0  0  0  0
    8.1146   -0.4304   18.3585 H   0  0  0  0  0  0  0  0  0  0  0  0
    6.6675    0.0173   19.8969 C   0  0  0  0  0  0  0  0  0  0  0  0
    7.3497   -0.6575   20.9600 N   0  0  0  0  0  0  0  0  0  0  0  0
    6.8326   -1.6204   21.7954 C   0  0  0  0  0  0  0  0  0  0  0  0
    5.8300   -2.0040   21.6823 H   0  0  0  0  0  0  0  0  0  0  0  0
    7.7117   -2.0107   22.6759 N   0  0  0  0  0  0  0  0  0  0  0  0
    8.8513   -1.2732   22.4601 N   0  0  0  0  0  0  0  0  0  0  0  0
    8.6234   -0.4628   21.4583 C   0  0  0  0  0  0  0  0  0  0  0  0
    9.5478    0.5888   20.9422 C   0  0  0  0  0  0  0  0  0  0  0  0
    9.6488    0.4686   19.8604 H   0  0  0  0  0  0  0  0  0  0  0  0
   10.5285    0.4023   21.3912 H   0  0  0  0  0  0  0  0  0  0  0  0
    9.0980    2.0326   21.2418 C   0  0  0  0  0  0  0  0  0  0  0  0
    8.1489    2.2292   20.7222 H   0  0  0  0  0  0  0  0  0  0  0  0
    9.8363    2.7109   20.8033 H   0  0  0  0  0  0  0  0  0  0  0  0
    8.9641    2.3340   22.7408 C   0  0  0  0  0  0  0  0  0  0  0  0
    9.6599    1.6945   23.3023 H   0  0  0  0  0  0  0  0  0  0  0  0
    9.2943    3.3615   22.9381 H   0  0  0  0  0  0  0  0  0  0  0  0
    7.5493    2.1392   23.2948 C   0  0  0  0  0  0  0  0  0  0  0  0
    7.1452    1.1664   22.9801 H   0  0  0  0  0  0  0  0  0  0  0  0
    6.8884    2.8830   22.8319 H   0  0  0  0  0  0  0  0  0  0  0  0
    7.4600    2.2512   24.8200 C   0  0  0  0  0  0  0  0  0  0  0  0
    8.0629    1.4506   25.2702 H   0  0  0  0  0  0  0  0  0  0  0  0
    6.4248    2.0524   25.1307 H   0  0  0  0  0  0  0  0  0  0  0  0
    7.8966    3.5983   25.4109 C   0  0  0  0  0  0  0  0  0  0  0  0
    8.9583    3.7704   25.1899 H   0  0  0  0  0  0  0  0  0  0  0  0
    7.8337    3.5385   26.5055 H   0  0  0  0  0  0  0  0  0  0  0  0
    7.0608    4.7881   24.9293 C   0  0  0  0  0  0  0  0  0  0  0  0
    7.2402    4.9592   23.8588 H   0  0  0  0  0  0  0  0  0  0  0  0
    5.9969    4.5298   25.0093 H   0  0  0  0  0  0  0  0  0  0  0  0
    7.3269    6.0872   25.6934 C   0  0  0  0  0  0  0  0  0  0  0  0
    6.5702    6.8310   25.4153 H   0  0  0  0  0  0  0  0  0  0  0  0
    7.1863    5.9061   26.7673 H   0  0  0  0  0  0  0  0  0  0  0  0
    8.7209    6.6657   25.4487 C   0  0  0  0  0  0  0  0  0  0  0  0
    8.9002    6.8052   24.3763 H   0  0  0  0  0  0  0  0  0  0  0  0
    8.8440    7.6373   25.9376 H   0  0  0  0  0  0  0  0  0  0  0  0
    9.5076    6.0014   25.8232 H   0  0  0  0  0  0  0  0  0  0  0  0
    5.4444    0.6477   20.1563 C   0  0  0  0  0  0  0  0  0  0  0  0
    5.0277    0.6215   21.1676 H   0  0  0  0  0  0  0  0  0  0  0  0
    4.8092    1.3108   19.1018 C   0  0  0  0  0  0  0  0  0  0  0  0
    3.8782    1.8396   19.2574 H   0  0  0  0  0  0  0  0  0  0  0  0
  1  2  1  0
  2  3  2  0
  3  4  1  0
  4  5  1  0
  4  6  2  0
  6  7  1  0
  7  8  1  0
  8  9  1  0
  8 10  2  0
 10 11  1  0
 11 12  2  0
 12 13  1  0
 13 14  1  0
 13 15  1  0
 13 16  1  0
 16 17  1  0
 16 18  1  0
 16 19  1  0
 19 20  1  0
 19 21  1  0
 19 22  1  0
 22 23  1  0
 22 24  1  0
 22 25  1  0
 25 26  1  0
 25 27  1  0
 25 28  1  0
 28 29  1  0
 28 30  1  0
 28 31  1  0
 31 32  1  0
 31 33  1  0
 31 34  1  0
 34 35  1  0
 34 36  1  0
 34 37  1  0
 37 38  1  0
 37 39  1  0
 37 40  1  0
  6 41  1  0
 41 42  1  0
 41 43  2  0
 43 44  1  0
 43  2  1  0
 12  7  1  0
M  END
>  <cnnaffinity>  (1) 
-5.29712

>  <filename>  (1) 
CCCCCCCCCc1nncn1-c1cccnc1

$$$$
