
     RDKit          3D

 45 46  0  0  0  0  0  0  0  0999 V2000
    4.9665    1.7967   16.9053 H   0  0  0  0  0  0  0  0  0  0  0  0
    5.3906    1.3471   17.8004 C   0  0  0  0  0  0  0  0  0  0  0  0
    6.5723    0.7319   17.6365 N   0  0  0  0  0  0  0  0  0  0  0  0
    7.1148    0.1599   18.7178 C   0  0  0  0  0  0  0  0  0  0  0  0
    8.0729   -0.3334   18.5512 H   0  0  0  0  0  0  0  0  0  0  0  0
    6.5407    0.1644   20.0065 C   0  0  0  0  0  0  0  0  0  0  0  0
    7.1998   -0.5757   21.1242 C   0  0  0  0  0  0  0  0  0  0  0  0
    7.6083   -1.9026   20.9139 C   0  0  0  0  0  0  0  0  0  0  0  0
    7.2795   -2.3706   19.9973 H   0  0  0  0  0  0  0  0  0  0  0  0
    8.3606   -2.5864   21.8731 C   0  0  0  0  0  0  0  0  0  0  0  0
    8.7445   -3.5810   21.6691 H   0  0  0  0  0  0  0  0  0  0  0  0
    8.6314   -1.9691   23.0968 C   0  0  0  0  0  0  0  0  0  0  0  0
    9.2554   -2.4633   23.8411 H   0  0  0  0  0  0  0  0  0  0  0  0
    8.1121   -0.6984   23.3915 C   0  0  0  0  0  0  0  0  0  0  0  0
    8.3216   -0.0833   24.7601 C   0  0  0  0  0  0  0  0  0  0  0  0
    7.4007    0.4119   25.0946 H   0  0  0  0  0  0  0  0  0  0  0  0
    8.5224   -0.8756   25.4966 H   0  0  0  0  0  0  0  0  0  0  0  0
    9.4664    0.9343   24.7675 C   0  0  0  0  0  0  0  0  0  0  0  0
    9.2313    1.7112   24.0283 H   0  0  0  0  0  0  0  0  0  0  0  0
    9.4963    1.4492   25.7366 H   0  0  0  0  0  0  0  0  0  0  0  0
   10.8431    0.3381   24.4631 C   0  0  0  0  0  0  0  0  0  0  0  0
   10.8156   -0.2145   23.5121 H   0  0  0  0  0  0  0  0  0  0  0  0
   11.1025   -0.3998   25.2346 H   0  0  0  0  0  0  0  0  0  0  0  0
   11.9146    1.4179   24.3784 C   0  0  0  0  0  0  0  0  0  0  0  0
   11.8926    2.0268   25.2935 H   0  0  0  0  0  0  0  0  0  0  0  0
   12.9122    0.9600   24.3522 H   0  0  0  0  0  0  0  0  0  0  0  0
   11.7623    2.3450   23.1666 C   0  0  0  0  0  0  0  0  0  0  0  0
   10.7524    2.7704   23.1251 H   0  0  0  0  0  0  0  0  0  0  0  0
   11.8664    1.7546   22.2435 H   0  0  0  0  0  0  0  0  0  0  0  0
   12.7910    3.4657   23.2495 C   0  0  0  0  0  0  0  0  0  0  0  0
   13.7668    2.9931   23.4233 H   0  0  0  0  0  0  0  0  0  0  0  0
   12.5827    4.0604   24.1504 H   0  0  0  0  0  0  0  0  0  0  0  0
   12.9443    4.4147   22.0645 C   0  0  0  0  0  0  0  0  0  0  0  0
   12.0155    4.9611   21.8557 H   0  0  0  0  0  0  0  0  0  0  0  0
   13.1594    3.8379   21.1558 H   0  0  0  0  0  0  0  0  0  0  0  0
   14.0765    5.4175   22.3160 C   0  0  0  0  0  0  0  0  0  0  0  0
   14.9814    4.8986   22.6518 H   0  0  0  0  0  0  0  0  0  0  0  0
   14.3414    5.9589   21.4050 H   0  0  0  0  0  0  0  0  0  0  0  0
   13.8129    6.1546   23.0867 H   0  0  0  0  0  0  0  0  0  0  0  0
    7.4471    0.0065   22.3729 C   0  0  0  0  0  0  0  0  0  0  0  0
    7.1300    1.0325   22.5378 H   0  0  0  0  0  0  0  0  0  0  0  0
    5.3223    0.8475   20.1558 C   0  0  0  0  0  0  0  0  0  0  0  0
    4.8495    0.9057   21.1373 H   0  0  0  0  0  0  0  0  0  0  0  0
    4.7282    1.4258   19.0294 C   0  0  0  0  0  0  0  0  0  0  0  0
    3.7780    1.9455   19.0898 H   0  0  0  0  0  0  0  0  0  0  0  0
  1  2  1  0
  2  3  2  0
  3  4  1  0
  4  5  1  0
  4  6  2  0
  6  7  1  0
  7  8  2  0
  8  9  1  0
  8 10  1  0
 10 11  1  0
 10 12  2  0
 12 13  1  0
 12 14  1  0
 14 15  1  0
 15 16  1  0
 15 17  1  0
 15 18  1  0
 18 19  1  0
 18 20  1  0
 18 21  1  0
 21 22  1  0
 21 23  1  0
 21 24  1  0
 24 25  1  0
 24 26  1  0
 24 27  1  0
 27 28  1  0
 27 29  1  0
 27 30  1  0
 30 31  1  0
 30 32  1  0
 30 33  1  0
 33 34  1  0
 33 35  1  0
 33 36  1  0
 36 37  1  0
 36 38  1  0
 36 39  1  0
 14 40  2  0
 40 41  1  0
  6 42  1  0
 42 43  1  0
 42 44  2  0
 44 45  1  0
 44  2  1  0
 40  7  1  0
M  END
>  <cnnaffinity>  (1) 
-5.45138

>  <filename>  (1) 
CCCCCCCCc1cccc(-c2cccnc2)c1

$$$$
