
     RDKit          3D

 43 44  0  0  0  0  0  0  0  0999 V2000
    8.9920   -2.7676   23.7090 H   0  0  0  0  0  0  0  0  0  0  0  0
    8.4781   -2.1894   22.9402 C   0  0  0  0  0  0  0  0  0  0  0  0
    7.9854   -2.8642   21.9035 N   0  0  0  0  0  0  0  0  0  0  0  0
    7.3933   -2.1198   20.9674 C   0  0  0  0  0  0  0  0  0  0  0  0
    6.9481   -2.6584   20.1304 H   0  0  0  0  0  0  0  0  0  0  0  0
    7.2827   -0.7305   21.0159 C   0  0  0  0  0  0  0  0  0  0  0  0
    6.6417    0.0265   19.8879 C   0  0  0  0  0  0  0  0  0  0  0  0
    7.1648    0.0440   18.5736 C   0  0  0  0  0  0  0  0  0  0  0  0
    8.0977   -0.4801   18.3551 H   0  0  0  0  0  0  0  0  0  0  0  0
    6.5871    0.6717   17.5413 N   0  0  0  0  0  0  0  0  0  0  0  0
    5.4339    1.3166   17.7822 C   0  0  0  0  0  0  0  0  0  0  0  0
    4.9848    1.8197   16.9302 H   0  0  0  0  0  0  0  0  0  0  0  0
    4.8181    1.3596   19.0387 C   0  0  0  0  0  0  0  0  0  0  0  0
    3.8931    1.9075   19.1740 H   0  0  0  0  0  0  0  0  0  0  0  0
    5.4402    0.7102   20.1062 C   0  0  0  0  0  0  0  0  0  0  0  0
    5.0191    0.7186   21.1145 H   0  0  0  0  0  0  0  0  0  0  0  0
    7.7648   -0.1391   22.2072 C   0  0  0  0  0  0  0  0  0  0  0  0
    7.5875    1.3251   22.5783 C   0  0  0  0  0  0  0  0  0  0  0  0
    7.1021    1.8816   21.7707 H   0  0  0  0  0  0  0  0  0  0  0  0
    6.8903    1.3383   23.4236 H   0  0  0  0  0  0  0  0  0  0  0  0
    8.8681    2.0620   23.0111 C   0  0  0  0  0  0  0  0  0  0  0  0
    9.4362    1.4209   23.6997 H   0  0  0  0  0  0  0  0  0  0  0  0
    8.5761    2.9466   23.5867 H   0  0  0  0  0  0  0  0  0  0  0  0
    9.7470    2.5685   21.8656 C   0  0  0  0  0  0  0  0  0  0  0  0
    9.1285    3.2146   21.2245 H   0  0  0  0  0  0  0  0  0  0  0  0
   10.5334    3.2162   22.2743 H   0  0  0  0  0  0  0  0  0  0  0  0
   10.4123    1.5188   20.9755 C   0  0  0  0  0  0  0  0  0  0  0  0
    9.6283    0.9998   20.4055 H   0  0  0  0  0  0  0  0  0  0  0  0
   11.0252    2.0570   20.2380 H   0  0  0  0  0  0  0  0  0  0  0  0
   11.2905    0.4675   21.6687 C   0  0  0  0  0  0  0  0  0  0  0  0
   10.6787   -0.0952   22.3882 H   0  0  0  0  0  0  0  0  0  0  0  0
   11.5903   -0.2484   20.8891 H   0  0  0  0  0  0  0  0  0  0  0  0
   12.5342    1.0292   22.3836 C   0  0  0  0  0  0  0  0  0  0  0  0
   12.9891    1.8098   21.7572 H   0  0  0  0  0  0  0  0  0  0  0  0
   12.2002    1.5413   23.3008 H   0  0  0  0  0  0  0  0  0  0  0  0
   13.5971   -0.0157   22.7937 C   0  0  0  0  0  0  0  0  0  0  0  0
   13.2187   -0.5254   23.6848 H   0  0  0  0  0  0  0  0  0  0  0  0
   14.5052    0.5080   23.1217 H   0  0  0  0  0  0  0  0  0  0  0  0
   14.0048   -1.0526   21.7374 C   0  0  0  0  0  0  0  0  0  0  0  0
   14.7009   -1.7836   22.1608 H   0  0  0  0  0  0  0  0  0  0  0  0
   13.1448   -1.6200   21.3641 H   0  0  0  0  0  0  0  0  0  0  0  0
   14.5031   -0.5959   20.8741 H   0  0  0  0  0  0  0  0  0  0  0  0
    8.3991   -0.8749   23.1292 N   0  0  0  0  0  0  0  0  0  0  0  0
  1  2  1  0
  2  3  2  0
  3  4  1  0
  4  5  1  0
  4  6  2  0
  6  7  1  0
  7  8  2  0
  8  9  1  0
  8 10  1  0
 10 11  2  0
 11 12  1  0
 11 13  1  0
 13 14  1  0
 13 15  2  0
 15 16  1  0
  6 17  1  0
 17 18  1  0
 18 19  1  0
 18 20  1  0
 18 21  1  0
 21 22  1  0
 21 23  1  0
 21 24  1  0
 24 25  1  0
 24 26  1  0
 24 27  1  0
 27 28  1  0
 27 29  1  0
 27 30  1  0
 30 31  1  0
 30 32  1  0
 30 33  1  0
 33 34  1  0
 33 35  1  0
 33 36  1  0
 36 37  1  0
 36 38  1  0
 36 39  1  0
 39 40  1  0
 39 41  1  0
 39 42  1  0
 17 43  2  0
 43  2  1  0
 15  7  1  0
M  END
>  <cnnaffinity>  (1) 
-5.46878

>  <filename>  (1) 
CCCCCCCCc1ncncc1-c1cccnc1

$$$$
