
     RDKit          3D

 33 33  0  0  0  0  0  0  0  0999 V2000
    4.9583    1.7584   17.0170 H   0  0  0  0  0  0  0  0  0  0  0  0
    5.4380    1.2745   17.8622 C   0  0  0  0  0  0  0  0  0  0  0  0
    6.6007    0.6584   17.6021 N   0  0  0  0  0  0  0  0  0  0  0  0
    7.2253    0.0677   18.6238 C   0  0  0  0  0  0  0  0  0  0  0  0
    8.1677   -0.4217   18.3786 H   0  0  0  0  0  0  0  0  0  0  0  0
    6.7148    0.0407   19.9283 C   0  0  0  0  0  0  0  0  0  0  0  0
    7.4902   -0.6980   20.9513 C   0  0  0  0  0  0  0  0  0  0  0  0
    8.7273   -0.5332   21.2570 N   0  0  0  0  0  0  0  0  0  0  0  0
    9.2754    0.7431   21.0090 C   0  0  0  0  0  0  0  0  0  0  0  0
    8.6790    1.7279   20.6104 O   0  0  0  0  0  0  0  0  0  0  0  0
   10.5913    0.6931   21.2975 N   0  0  0  0  0  0  0  0  0  0  0  0
   10.7970   -0.2050   21.6895 H   0  0  0  0  0  0  0  0  0  0  0  0
   11.5215    1.7871   21.0894 C   0  0  0  0  0  0  0  0  0  0  0  0
   12.5328    1.4034   21.2333 H   0  0  0  0  0  0  0  0  0  0  0  0
   11.4360    2.1163   20.0544 H   0  0  0  0  0  0  0  0  0  0  0  0
   11.3217    3.0245   21.9597 C   0  0  0  0  0  0  0  0  0  0  0  0
   11.8878    3.8340   21.4821 H   0  0  0  0  0  0  0  0  0  0  0  0
   10.2651    3.3107   21.9093 H   0  0  0  0  0  0  0  0  0  0  0  0
   11.7661    2.8971   23.4156 C   0  0  0  0  0  0  0  0  0  0  0  0
   12.7827    2.4829   23.4490 H   0  0  0  0  0  0  0  0  0  0  0  0
   11.8420    3.9033   23.8435 H   0  0  0  0  0  0  0  0  0  0  0  0
   10.8170    2.0514   24.2607 C   0  0  0  0  0  0  0  0  0  0  0  0
   10.8310    1.0027   23.9518 H   0  0  0  0  0  0  0  0  0  0  0  0
   11.0699    2.0833   25.3227 H   0  0  0  0  0  0  0  0  0  0  0  0
    9.7874    2.4116   24.1460 H   0  0  0  0  0  0  0  0  0  0  0  0
    6.7479   -1.8185   21.6054 C   0  0  0  0  0  0  0  0  0  0  0  0
    7.4185   -2.5961   21.9789 H   0  0  0  0  0  0  0  0  0  0  0  0
    6.1708   -1.4397   22.4540 H   0  0  0  0  0  0  0  0  0  0  0  0
    6.0492   -2.2505   20.8873 H   0  0  0  0  0  0  0  0  0  0  0  0
    5.4767    0.6500   20.1816 C   0  0  0  0  0  0  0  0  0  0  0  0
    5.0280    0.6349   21.1809 H   0  0  0  0  0  0  0  0  0  0  0  0
    4.8385    1.3010   19.1261 C   0  0  0  0  0  0  0  0  0  0  0  0
    3.8912    1.8122   19.2632 H   0  0  0  0  0  0  0  0  0  0  0  0
  1  2  1  0
  2  3  2  0
  3  4  1  0
  4  5  1  0
  4  6  2  0
  6  7  1  0
  7  8  2  3
  8  9  1  0
  9 10  2  0
  9 11  1  0
 11 12  1  0
 11 13  1  0
 13 14  1  0
 13 15  1  0
 13 16  1  0
 16 17  1  0
 16 18  1  0
 16 19  1  0
 19 20  1  0
 19 21  1  0
 19 22  1  0
 22 23  1  0
 22 24  1  0
 22 25  1  0
  7 26  1  0
 26 27  1  0
 26 28  1  0
 26 29  1  0
  6 30  1  0
 30 31  1  0
 30 32  2  0
 32 33  1  0
 32  2  1  0
M  END
>  <cnnaffinity>  (1) 
-4.94731

>  <filename>  (1) 
CCCCNC(=O)N=C(C)c1cccnc1

$$$$
