
     RDKit          3D

 37 38  0  0  0  0  0  0  0  0999 V2000
    4.9684    1.8012   16.9401 H   0  0  0  0  0  0  0  0  0  0  0  0
    5.4323    1.3005   17.7854 C   0  0  0  0  0  0  0  0  0  0  0  0
    6.5903    0.6728   17.5321 N   0  0  0  0  0  0  0  0  0  0  0  0
    7.1950    0.0556   18.5488 C   0  0  0  0  0  0  0  0  0  0  0  0
    8.1326   -0.4466   18.3141 H   0  0  0  0  0  0  0  0  0  0  0  0
    6.6759    0.0354   19.8484 C   0  0  0  0  0  0  0  0  0  0  0  0
    7.4108   -0.6537   20.8968 C   0  0  0  0  0  0  0  0  0  0  0  0
    8.5217   -1.3218   20.7124 N   0  0  0  0  0  0  0  0  0  0  0  0
    8.7969   -1.8234   21.9751 O   0  0  0  0  0  0  0  0  0  0  0  0
    7.8272   -1.3980   22.7851 C   0  0  0  0  0  0  0  0  0  0  0  0
    7.7846   -1.8811   24.1844 C   0  0  0  0  0  0  0  0  0  0  0  0
    8.8045   -2.0390   24.5370 H   0  0  0  0  0  0  0  0  0  0  0  0
    7.3447   -1.0859   24.7922 H   0  0  0  0  0  0  0  0  0  0  0  0
    6.9300   -3.1600   24.3363 C   0  0  0  0  0  0  0  0  0  0  0  0
    5.9046   -2.9340   24.0164 H   0  0  0  0  0  0  0  0  0  0  0  0
    7.2975   -3.9382   23.6508 H   0  0  0  0  0  0  0  0  0  0  0  0
    6.9321   -3.7106   25.7649 C   0  0  0  0  0  0  0  0  0  0  0  0
    7.0361   -2.8749   26.4742 H   0  0  0  0  0  0  0  0  0  0  0  0
    5.9576   -4.1657   25.9920 H   0  0  0  0  0  0  0  0  0  0  0  0
    8.0314   -4.7506   26.0138 C   0  0  0  0  0  0  0  0  0  0  0  0
    7.8325   -5.6355   25.3910 H   0  0  0  0  0  0  0  0  0  0  0  0
    7.9386   -5.1020   27.0492 H   0  0  0  0  0  0  0  0  0  0  0  0
    9.4620   -4.2765   25.7225 C   0  0  0  0  0  0  0  0  0  0  0  0
    9.6115   -3.2565   26.1139 H   0  0  0  0  0  0  0  0  0  0  0  0
    9.6159   -4.2030   24.6361 H   0  0  0  0  0  0  0  0  0  0  0  0
   10.5359   -5.1630   26.3493 C   0  0  0  0  0  0  0  0  0  0  0  0
   11.5090   -4.7768   26.0343 H   0  0  0  0  0  0  0  0  0  0  0  0
   10.4651   -6.1922   25.9665 H   0  0  0  0  0  0  0  0  0  0  0  0
   10.4305   -5.1290   27.8725 C   0  0  0  0  0  0  0  0  0  0  0  0
   10.1674   -4.1254   28.2001 H   0  0  0  0  0  0  0  0  0  0  0  0
   11.3591   -5.4019   28.3750 H   0  0  0  0  0  0  0  0  0  0  0  0
    9.6169   -5.7614   28.2389 H   0  0  0  0  0  0  0  0  0  0  0  0
    6.9435   -0.6679   22.1864 N   0  0  0  0  0  0  0  0  0  0  0  0
    5.4528    0.6770   20.1047 C   0  0  0  0  0  0  0  0  0  0  0  0
    5.0223    0.6633   21.1098 H   0  0  0  0  0  0  0  0  0  0  0  0
    4.8234    1.3232   19.0465 C   0  0  0  0  0  0  0  0  0  0  0  0
    3.8841    1.8487   19.1837 H   0  0  0  0  0  0  0  0  0  0  0  0
  1  2  1  0
  2  3  2  0
  3  4  1  0
  4  5  1  0
  4  6  2  0
  6  7  1  0
  7  8  2  0
  8  9  1  0
  9 10  1  0
 10 11  1  0
 11 12  1  0
 11 13  1  0
 11 14  1  0
 14 15  1  0
 14 16  1  0
 14 17  1  0
 17 18  1  0
 17 19  1  0
 17 20  1  0
 20 21  1  0
 20 22  1  0
 20 23  1  0
 23 24  1  0
 23 25  1  0
 23 26  1  0
 26 27  1  0
 26 28  1  0
 26 29  1  0
 29 30  1  0
 29 31  1  0
 29 32  1  0
 10 33  2  0
  6 34  1  0
 34 35  1  0
 34 36  2  0
 36 37  1  0
 36  2  1  0
 33  7  1  0
M  END
>  <cnnaffinity>  (1) 
-5.1495

>  <filename>  (1) 
CCCCCCCc1nc(-c2cccnc2)no1

$$$$
