
     RDKit          3D

 44 45  0  0  0  0  0  0  0  0999 V2000
    4.9435    1.8199   16.9219 H   0  0  0  0  0  0  0  0  0  0  0  0
    5.4038    1.3094   17.7706 C   0  0  0  0  0  0  0  0  0  0  0  0
    6.5390    0.6394   17.5212 N   0  0  0  0  0  0  0  0  0  0  0  0
    7.1096   -0.0070   18.5523 C   0  0  0  0  0  0  0  0  0  0  0  0
    8.0352   -0.5289   18.3109 H   0  0  0  0  0  0  0  0  0  0  0  0
    6.6221   -0.0027   19.8782 C   0  0  0  0  0  0  0  0  0  0  0  0
    7.3157   -0.7506   20.9943 C   0  0  0  0  0  0  0  0  0  0  0  0
    7.9101   -0.1104   22.1210 C   0  0  0  0  0  0  0  0  0  0  0  0
    7.9485    1.4014   22.2473 C   0  0  0  0  0  0  0  0  0  0  0  0
    8.3204    1.6596   23.2456 H   0  0  0  0  0  0  0  0  0  0  0  0
    6.9385    1.8164   22.1737 H   0  0  0  0  0  0  0  0  0  0  0  0
    8.8498    2.0275   21.1645 C   0  0  0  0  0  0  0  0  0  0  0  0
    8.8380    3.1186   21.2648 H   0  0  0  0  0  0  0  0  0  0  0  0
    8.4226    1.8097   20.1788 H   0  0  0  0  0  0  0  0  0  0  0  0
   10.3025    1.5299   21.2218 C   0  0  0  0  0  0  0  0  0  0  0  0
   10.8761    2.0063   20.4178 H   0  0  0  0  0  0  0  0  0  0  0  0
   10.3284    0.4525   21.0164 H   0  0  0  0  0  0  0  0  0  0  0  0
   10.9972    1.7858   22.5624 C   0  0  0  0  0  0  0  0  0  0  0  0
   10.4877    1.2139   23.3559 H   0  0  0  0  0  0  0  0  0  0  0  0
   12.0169    1.3757   22.5204 H   0  0  0  0  0  0  0  0  0  0  0  0
   11.0547    3.2683   22.9613 C   0  0  0  0  0  0  0  0  0  0  0  0
   11.3347    3.8902   22.0952 H   0  0  0  0  0  0  0  0  0  0  0  0
   10.0485    3.5991   23.2483 H   0  0  0  0  0  0  0  0  0  0  0  0
   12.0044    3.4814   24.1380 C   0  0  0  0  0  0  0  0  0  0  0  0
   11.7534    2.7212   24.8934 H   0  0  0  0  0  0  0  0  0  0  0  0
   13.0234    3.2359   23.7982 H   0  0  0  0  0  0  0  0  0  0  0  0
   12.0284    4.8757   24.7951 C   0  0  0  0  0  0  0  0  0  0  0  0
   11.0023    5.2240   24.9964 H   0  0  0  0  0  0  0  0  0  0  0  0
   12.5158    4.7828   25.7750 H   0  0  0  0  0  0  0  0  0  0  0  0
   12.8158    5.9179   23.9974 C   0  0  0  0  0  0  0  0  0  0  0  0
   13.8500    5.5697   23.8774 H   0  0  0  0  0  0  0  0  0  0  0  0
   12.8435    6.8864   24.5145 H   0  0  0  0  0  0  0  0  0  0  0  0
   12.3978    6.0720   22.9946 H   0  0  0  0  0  0  0  0  0  0  0  0
    8.5822   -0.7947   23.0645 N   0  0  0  0  0  0  0  0  0  0  0  0
    8.6581   -2.1271   22.9620 C   0  0  0  0  0  0  0  0  0  0  0  0
    9.2174   -2.6337   23.7482 H   0  0  0  0  0  0  0  0  0  0  0  0
    8.0771   -2.8481   21.9212 C   0  0  0  0  0  0  0  0  0  0  0  0
    8.1607   -3.9270   21.9021 H   0  0  0  0  0  0  0  0  0  0  0  0
    7.3931   -2.1492   20.9237 C   0  0  0  0  0  0  0  0  0  0  0  0
    6.9040   -2.6779   20.1066 H   0  0  0  0  0  0  0  0  0  0  0  0
    5.4390    0.7135   20.1087 C   0  0  0  0  0  0  0  0  0  0  0  0
    5.0175    0.7507   21.1134 H   0  0  0  0  0  0  0  0  0  0  0  0
    4.8155    1.3583   19.0343 C   0  0  0  0  0  0  0  0  0  0  0  0
    3.8884    1.8975   19.1726 H   0  0  0  0  0  0  0  0  0  0  0  0
  1  2  1  0
  2  3  2  0
  3  4  1  0
  4  5  1  0
  4  6  2  0
  6  7  1  0
  7  8  2  0
  8  9  1  0
  9 10  1  0
  9 11  1  0
  9 12  1  0
 12 13  1  0
 12 14  1  0
 12 15  1  0
 15 16  1  0
 15 17  1  0
 15 18  1  0
 18 19  1  0
 18 20  1  0
 18 21  1  0
 21 22  1  0
 21 23  1  0
 21 24  1  0
 24 25  1  0
 24 26  1  0
 24 27  1  0
 27 28  1  0
 27 29  1  0
 27 30  1  0
 30 31  1  0
 30 32  1  0
 30 33  1  0
  8 34  1  0
 34 35  2  0
 35 36  1  0
 35 37  1  0
 37 38  1  0
 37 39  2  0
 39 40  1  0
  6 41  1  0
 41 42  1  0
 41 43  2  0
 43 44  1  0
 43  2  1  0
 39  7  1  0
M  END
>  <cnnaffinity>  (1) 
-5.18623

>  <filename>  (1) 
CCCCCCCCc1ncccc1-c1cccnc1

$$$$
