
     RDKit          3D

 47 48  0  0  0  0  0  0  0  0999 V2000
    4.9150    1.7905   16.9840 H   0  0  0  0  0  0  0  0  0  0  0  0
    5.3932    1.2980   17.8255 C   0  0  0  0  0  0  0  0  0  0  0  0
    6.5566    0.6848   17.5663 N   0  0  0  0  0  0  0  0  0  0  0  0
    7.1633    0.0739   18.5945 C   0  0  0  0  0  0  0  0  0  0  0  0
    8.1065   -0.4152   18.3517 H   0  0  0  0  0  0  0  0  0  0  0  0
    6.6612    0.0213   19.9103 C   0  0  0  0  0  0  0  0  0  0  0  0
    7.4714   -0.6197   21.0401 C   0  0  2  0  0  0  0  0  0  0  0  0
    8.5686    0.3325   21.5469 C   0  0  0  0  0  0  0  0  0  0  0  0
    9.0823   -0.1527   22.3904 H   0  0  0  0  0  0  0  0  0  0  0  0
    9.3173    0.4419   20.7473 H   0  0  0  0  0  0  0  0  0  0  0  0
    8.0787    1.7182   21.9458 C   0  0  0  0  0  0  0  0  0  0  0  0
    7.2417    1.6325   22.6529 H   0  0  0  0  0  0  0  0  0  0  0  0
    7.6644    2.2204   21.0596 H   0  0  0  0  0  0  0  0  0  0  0  0
    9.1967    2.5642   22.5414 C   0  0  0  0  0  0  0  0  0  0  0  0
    9.5446    2.0942   23.4747 H   0  0  0  0  0  0  0  0  0  0  0  0
   10.0564    2.5586   21.8569 H   0  0  0  0  0  0  0  0  0  0  0  0
    8.7869    4.0088   22.8205 C   0  0  0  0  0  0  0  0  0  0  0  0
    8.3769    4.4524   21.8996 H   0  0  0  0  0  0  0  0  0  0  0  0
    9.6848    4.5916   23.0640 H   0  0  0  0  0  0  0  0  0  0  0  0
    7.7666    4.1592   23.9489 C   0  0  0  0  0  0  0  0  0  0  0  0
    8.1418    3.6468   24.8474 H   0  0  0  0  0  0  0  0  0  0  0  0
    6.8334    3.6431   23.6842 H   0  0  0  0  0  0  0  0  0  0  0  0
    7.4807    5.6217   24.2873 C   0  0  0  0  0  0  0  0  0  0  0  0
    7.0535    6.1185   23.4026 H   0  0  0  0  0  0  0  0  0  0  0  0
    8.4328    6.1325   24.4884 H   0  0  0  0  0  0  0  0  0  0  0  0
    6.5401    5.8152   25.4801 C   0  0  0  0  0  0  0  0  0  0  0  0
    6.9337    5.2579   26.3424 H   0  0  0  0  0  0  0  0  0  0  0  0
    6.5496    6.8715   25.7761 H   0  0  0  0  0  0  0  0  0  0  0  0
    5.0992    5.3798   25.2020 C   0  0  0  0  0  0  0  0  0  0  0  0
    4.4393    5.6290   26.0395 H   0  0  0  0  0  0  0  0  0  0  0  0
    4.7077    5.8798   24.3073 H   0  0  0  0  0  0  0  0  0  0  0  0
    5.0235    4.3001   25.0285 H   0  0  0  0  0  0  0  0  0  0  0  0
    8.0990   -1.9552   20.5954 C   0  0  0  0  0  0  0  0  0  0  0  0
    9.0300   -1.8214   20.0299 H   0  0  0  0  0  0  0  0  0  0  0  0
    7.3114   -2.3803   19.9635 H   0  0  0  0  0  0  0  0  0  0  0  0
    8.3015   -2.8308   21.7483 N   0  0  0  0  0  0  0  0  0  0  0  0
    9.2528   -2.7393   22.0910 H   0  0  0  0  0  0  0  0  0  0  0  0
    7.3553   -2.3782   22.7827 C   0  0  0  0  0  0  0  0  0  0  0  0
    6.6650   -3.1865   23.0618 H   0  0  0  0  0  0  0  0  0  0  0  0
    7.8922   -2.0732   23.6894 H   0  0  0  0  0  0  0  0  0  0  0  0
    6.5895   -1.1840   22.1804 C   0  0  0  0  0  0  0  0  0  0  0  0
    5.6521   -1.5431   21.7386 H   0  0  0  0  0  0  0  0  0  0  0  0
    6.3460   -0.4283   22.9323 H   0  0  0  0  0  0  0  0  0  0  0  0
    5.4333    0.6565   20.1451 C   0  0  0  0  0  0  0  0  0  0  0  0
    4.9950    0.6428   21.1450 H   0  0  0  0  0  0  0  0  0  0  0  0
    4.7999    1.3138   19.0905 C   0  0  0  0  0  0  0  0  0  0  0  0
    3.8714    1.8423   19.2485 H   0  0  0  0  0  0  0  0  0  0  0  0
  1  2  1  0
  2  3  2  0
  3  4  1  0
  4  5  1  0
  4  6  2  0
  6  7  1  0
  7  8  1  1
  8  9  1  0
  8 10  1  0
  8 11  1  0
 11 12  1  0
 11 13  1  0
 11 14  1  0
 14 15  1  0
 14 16  1  0
 14 17  1  0
 17 18  1  0
 17 19  1  0
 17 20  1  0
 20 21  1  0
 20 22  1  0
 20 23  1  0
 23 24  1  0
 23 25  1  0
 23 26  1  0
 26 27  1  0
 26 28  1  0
 26 29  1  0
 29 30  1  0
 29 31  1  0
 29 32  1  0
  7 33  1  0
 33 34  1  0
 33 35  1  0
 33 36  1  0
 36 37  1  0
 36 38  1  0
 38 39  1  0
 38 40  1  0
 38 41  1  0
 41 42  1  0
 41 43  1  0
  6 44  1  0
 44 45  1  0
 44 46  2  0
 46 47  1  0
 46  2  1  0
 41  7  1  0
M  END
>  <cnnaffinity>  (1) 
-4.49333

>  <filename>  (1) 
CCCCCCCC[C@]1(c2cccnc2)CCNC1

$$$$
