
     RDKit          3D

 41 42  0  0  0  0  0  0  0  0999 V2000
    5.0666    1.8029   16.9545 H   0  0  0  0  0  0  0  0  0  0  0  0
    5.4902    1.3005   17.8208 C   0  0  0  0  0  0  0  0  0  0  0  0
    6.6475    0.6517   17.6123 N   0  0  0  0  0  0  0  0  0  0  0  0
    7.1917    0.0215   18.6592 C   0  0  0  0  0  0  0  0  0  0  0  0
    8.1225   -0.5131   18.4623 H   0  0  0  0  0  0  0  0  0  0  0  0
    6.6273    0.0051   19.9417 C   0  0  0  0  0  0  0  0  0  0  0  0
    7.3226   -0.7147   21.0187 C   0  0  0  0  0  0  0  0  0  0  0  0
    6.6938   -1.6044   21.7503 N   0  0  0  0  0  0  0  0  0  0  0  0
    7.6281   -2.0980   22.6290 O   0  0  0  0  0  0  0  0  0  0  0  0
    8.7983   -1.4884   22.4105 C   0  0  0  0  0  0  0  0  0  0  0  0
    9.6154   -1.7892   23.0532 H   0  0  0  0  0  0  0  0  0  0  0  0
    8.7041   -0.5877   21.3988 C   0  0  0  0  0  0  0  0  0  0  0  0
    9.7506    0.4070   20.9631 C   0  0  0  0  0  0  0  0  0  0  0  0
   10.7441   -0.0534   21.0271 H   0  0  0  0  0  0  0  0  0  0  0  0
    9.5889    0.6546   19.9106 H   0  0  0  0  0  0  0  0  0  0  0  0
    9.7259    1.7146   21.7742 C   0  0  0  0  0  0  0  0  0  0  0  0
   10.4910    2.4000   21.3806 H   0  0  0  0  0  0  0  0  0  0  0  0
   10.0006    1.5075   22.8164 H   0  0  0  0  0  0  0  0  0  0  0  0
    8.3634    2.4013   21.7086 C   0  0  0  0  0  0  0  0  0  0  0  0
    7.5791    1.7081   22.0474 H   0  0  0  0  0  0  0  0  0  0  0  0
    8.1398    2.5902   20.6509 H   0  0  0  0  0  0  0  0  0  0  0  0
    8.2787    3.6895   22.5245 C   0  0  0  0  0  0  0  0  0  0  0  0
    8.4477    3.4578   23.5898 H   0  0  0  0  0  0  0  0  0  0  0  0
    9.0940    4.3745   22.2479 H   0  0  0  0  0  0  0  0  0  0  0  0
    6.9367    4.4141   22.3730 C   0  0  0  0  0  0  0  0  0  0  0  0
    6.1255    3.7264   22.6576 H   0  0  0  0  0  0  0  0  0  0  0  0
    6.7709    4.6614   21.3098 H   0  0  0  0  0  0  0  0  0  0  0  0
    6.8400    5.6780   23.2421 C   0  0  0  0  0  0  0  0  0  0  0  0
    5.7815    5.9709   23.3218 H   0  0  0  0  0  0  0  0  0  0  0  0
    7.1779    5.4201   24.2572 H   0  0  0  0  0  0  0  0  0  0  0  0
    7.6528    6.8854   22.7474 C   0  0  0  0  0  0  0  0  0  0  0  0
    7.5266    7.6988   23.4754 H   0  0  0  0  0  0  0  0  0  0  0  0
    8.7278    6.6443   22.7483 H   0  0  0  0  0  0  0  0  0  0  0  0
    7.2510    7.3555   21.3412 C   0  0  0  0  0  0  0  0  0  0  0  0
    7.7774    6.7819   20.5728 H   0  0  0  0  0  0  0  0  0  0  0  0
    7.4774    8.4125   21.1872 H   0  0  0  0  0  0  0  0  0  0  0  0
    6.1820    7.2309   21.1301 H   0  0  0  0  0  0  0  0  0  0  0  0
    5.4098    0.6675   20.1401 C   0  0  0  0  0  0  0  0  0  0  0  0
    4.9331    0.6537   21.1241 H   0  0  0  0  0  0  0  0  0  0  0  0
    4.8361    1.3345   19.0568 C   0  0  0  0  0  0  0  0  0  0  0  0
    3.8981    1.8723   19.1541 H   0  0  0  0  0  0  0  0  0  0  0  0
  1  2  1  0
  2  3  2  0
  3  4  1  0
  4  5  1  0
  4  6  2  0
  6  7  1  0
  7  8  2  0
  8  9  1  0
  9 10  1  0
 10 11  1  0
 10 12  2  0
 12 13  1  0
 13 14  1  0
 13 15  1  0
 13 16  1  0
 16 17  1  0
 16 18  1  0
 16 19  1  0
 19 20  1  0
 19 21  1  0
 19 22  1  0
 22 23  1  0
 22 24  1  0
 22 25  1  0
 25 26  1  0
 25 27  1  0
 25 28  1  0
 28 29  1  0
 28 30  1  0
 28 31  1  0
 31 32  1  0
 31 33  1  0
 31 34  1  0
 34 35  1  0
 34 36  1  0
 34 37  1  0
  6 38  1  0
 38 39  1  0
 38 40  2  0
 40 41  1  0
 40  2  1  0
 12  7  1  0
M  END
>  <cnnaffinity>  (1) 
-5.07774

>  <filename>  (1) 
CCCCCCCCc1conc1-c1cccnc1

$$$$
