
     RDKit          3D

 35 36  0  0  0  0  0  0  0  0999 V2000
    4.9704    2.0513   16.8206 H   0  0  0  0  0  0  0  0  0  0  0  0
    5.3588    1.4468   17.6381 C   0  0  0  0  0  0  0  0  0  0  0  0
    6.4903    0.7683   17.3800 N   0  0  0  0  0  0  0  0  0  0  0  0
    7.0157    0.0502   18.3791 C   0  0  0  0  0  0  0  0  0  0  0  0
    7.9501   -0.4680   18.1685 H   0  0  0  0  0  0  0  0  0  0  0  0
    6.4376   -0.0623   19.6588 C   0  0  0  0  0  0  0  0  0  0  0  0
    7.1188   -0.7750   20.7143 N   0  0  0  0  0  0  0  0  0  0  0  0
    8.3682   -0.3098   21.0765 C   0  0  0  0  0  0  0  0  0  0  0  0
    8.7646    0.5265   20.5074 H   0  0  0  0  0  0  0  0  0  0  0  0
    9.0962   -0.8503   22.0993 C   0  0  0  0  0  0  0  0  0  0  0  0
   10.3660   -0.3378   22.3365 N   0  0  0  0  0  0  0  0  0  0  0  0
   10.4260    0.6445   22.1066 H   0  0  0  0  0  0  0  0  0  0  0  0
   11.1222   -0.6989   23.5110 C   0  0  0  0  0  0  0  0  0  0  0  0
   11.0552   -1.7870   23.6019 H   0  0  0  0  0  0  0  0  0  0  0  0
   12.1789   -0.4550   23.3221 H   0  0  0  0  0  0  0  0  0  0  0  0
   10.6514   -0.0498   24.8173 C   0  0  0  0  0  0  0  0  0  0  0  0
    9.6313   -0.3981   25.0356 H   0  0  0  0  0  0  0  0  0  0  0  0
   11.2900   -0.4411   25.6180 H   0  0  0  0  0  0  0  0  0  0  0  0
   10.6869    1.4922   24.8477 C   0  0  0  0  0  0  0  0  0  0  0  0
    9.7808    1.9076   24.3853 H   0  0  0  0  0  0  0  0  0  0  0  0
   10.6459    1.8041   25.8978 H   0  0  0  0  0  0  0  0  0  0  0  0
   11.9086    2.1143   24.1576 C   0  0  0  0  0  0  0  0  0  0  0  0
   12.8468    1.6733   24.5113 H   0  0  0  0  0  0  0  0  0  0  0  0
   11.9783    3.1955   24.3206 H   0  0  0  0  0  0  0  0  0  0  0  0
   11.8630    1.9556   23.0725 H   0  0  0  0  0  0  0  0  0  0  0  0
    8.5168   -1.9321   22.8411 C   0  0  0  0  0  0  0  0  0  0  0  0
    9.0613   -2.3469   23.6865 H   0  0  0  0  0  0  0  0  0  0  0  0
    7.2873   -2.4096   22.5043 C   0  0  0  0  0  0  0  0  0  0  0  0
    6.7935   -3.2123   23.0293 H   0  0  0  0  0  0  0  0  0  0  0  0
    6.5073   -1.8954   21.3911 C   0  0  0  0  0  0  0  0  0  0  0  0
    5.4512   -2.3914   21.0423 O   0  0  0  0  0  0  0  0  0  0  0  0
    5.2346    0.6125   19.8997 C   0  0  0  0  0  0  0  0  0  0  0  0
    4.7508    0.5232   20.8735 H   0  0  0  0  0  0  0  0  0  0  0  0
    4.7002    1.4011   18.8727 C   0  0  0  0  0  0  0  0  0  0  0  0
    3.7955    1.9882   19.0155 H   0  0  0  0  0  0  0  0  0  0  0  0
  1  2  1  0
  2  3  2  0
  3  4  1  0
  4  5  1  0
  4  6  2  0
  6  7  1  0
  7  8  1  0
  8  9  1  0
  8 10  2  0
 10 11  1  0
 11 12  1  0
 11 13  1  0
 13 14  1  0
 13 15  1  0
 13 16  1  0
 16 17  1  0
 16 18  1  0
 16 19  1  0
 19 20  1  0
 19 21  1  0
 19 22  1  0
 22 23  1  0
 22 24  1  0
 22 25  1  0
 10 26  1  0
 26 27  1  0
 26 28  2  0
 28 29  1  0
 28 30  1  0
 30 31  2  0
  6 32  1  0
 32 33  1  0
 32 34  2  0
 34 35  1  0
 34  2  1  0
 30  7  1  0
M  END
>  <cnnaffinity>  (1) 
-5.05048

>  <filename>  (1) 
CCCCNc1ccc(=O)n(-c2cccnc2)c1

$$$$
