
     RDKit          3D

 37 38  0  0  0  0  0  0  0  0999 V2000
    4.9447    1.7733   17.0047 H   0  0  0  0  0  0  0  0  0  0  0  0
    5.4197    1.2775   17.8519 C   0  0  0  0  0  0  0  0  0  0  0  0
    6.5820    0.6538   17.6045 N   0  0  0  0  0  0  0  0  0  0  0  0
    7.2079    0.0624   18.6254 C   0  0  0  0  0  0  0  0  0  0  0  0
    8.1490   -0.4200   18.3841 H   0  0  0  0  0  0  0  0  0  0  0  0
    6.6855    0.0197   19.9327 C   0  0  0  0  0  0  0  0  0  0  0  0
    7.3778   -0.6600   20.9807 N   0  0  0  0  0  0  0  0  0  0  0  0
    8.7685   -0.4827   20.9808 N   0  0  0  0  0  0  0  0  0  0  0  0
    9.4257   -0.8435   22.0272 C   0  0  0  0  0  0  0  0  0  0  0  0
   10.9118   -0.6114   22.0859 C   0  0  0  0  0  0  0  0  0  0  0  0
   11.2654   -0.4432   21.0647 H   0  0  0  0  0  0  0  0  0  0  0  0
   11.3948   -1.5291   22.4450 H   0  0  0  0  0  0  0  0  0  0  0  0
   11.2921    0.5642   23.0028 C   0  0  0  0  0  0  0  0  0  0  0  0
   10.9032    0.3862   24.0158 H   0  0  0  0  0  0  0  0  0  0  0  0
   12.3822    0.5975   23.1190 H   0  0  0  0  0  0  0  0  0  0  0  0
   10.7691    1.9070   22.4894 C   0  0  0  0  0  0  0  0  0  0  0  0
    9.6848    1.8433   22.3305 H   0  0  0  0  0  0  0  0  0  0  0  0
   11.1898    2.0881   21.4912 H   0  0  0  0  0  0  0  0  0  0  0  0
   11.0969    3.0972   23.3961 C   0  0  0  0  0  0  0  0  0  0  0  0
   10.5214    3.9699   23.0626 H   0  0  0  0  0  0  0  0  0  0  0  0
   10.7370    2.8833   24.4115 H   0  0  0  0  0  0  0  0  0  0  0  0
   12.5856    3.4535   23.4351 C   0  0  0  0  0  0  0  0  0  0  0  0
   13.1910    2.6473   23.8640 H   0  0  0  0  0  0  0  0  0  0  0  0
   12.9772    3.6272   22.4264 H   0  0  0  0  0  0  0  0  0  0  0  0
   12.7709    4.3617   24.0194 H   0  0  0  0  0  0  0  0  0  0  0  0
    8.7434   -1.4308   23.2464 C   0  0  0  0  0  0  0  0  0  0  0  0
    8.4158   -0.6008   23.8914 H   0  0  0  0  0  0  0  0  0  0  0  0
    9.4663   -1.9976   23.8462 H   0  0  0  0  0  0  0  0  0  0  0  0
    7.5482   -2.2934   22.8208 C   0  0  0  0  0  0  0  0  0  0  0  0
    6.8903   -2.5548   23.6508 H   0  0  0  0  0  0  0  0  0  0  0  0
    7.8694   -3.2460   22.3806 H   0  0  0  0  0  0  0  0  0  0  0  0
    6.6978   -1.6413   21.7411 C   0  0  0  0  0  0  0  0  0  0  0  0
    5.5622   -1.9995   21.5050 O   0  0  0  0  0  0  0  0  0  0  0  0
    5.4567    0.6407   20.1831 C   0  0  0  0  0  0  0  0  0  0  0  0
    5.0103    0.6017   21.1781 H   0  0  0  0  0  0  0  0  0  0  0  0
    4.8319    1.2996   19.1208 C   0  0  0  0  0  0  0  0  0  0  0  0
    3.8980    1.8249   19.2620 H   0  0  0  0  0  0  0  0  0  0  0  0
  1  2  1  0
  2  3  2  0
  3  4  1  0
  4  5  1  0
  4  6  2  0
  6  7  1  0
  7  8  1  0
  8  9  2  0
  9 10  1  0
 10 11  1  0
 10 12  1  0
 10 13  1  0
 13 14  1  0
 13 15  1  0
 13 16  1  0
 16 17  1  0
 16 18  1  0
 16 19  1  0
 19 20  1  0
 19 21  1  0
 19 22  1  0
 22 23  1  0
 22 24  1  0
 22 25  1  0
  9 26  1  0
 26 27  1  0
 26 28  1  0
 26 29  1  0
 29 30  1  0
 29 31  1  0
 29 32  1  0
 32 33  2  0
  6 34  1  0
 34 35  1  0
 34 36  2  0
 36 37  1  0
 36  2  1  0
 32  7  1  0
M  END
>  <cnnaffinity>  (1) 
-5.55998

>  <filename>  (1) 
CCCCCC1=NN(c2cccnc2)C(=O)CC1

$$$$
