
     RDKit          3D

 40 41  0  0  0  0  0  0  0  0999 V2000
    4.9190    1.7877   16.9885 H   0  0  0  0  0  0  0  0  0  0  0  0
    5.3978    1.2958   17.8327 C   0  0  0  0  0  0  0  0  0  0  0  0
    6.5581    0.6791   17.5732 N   0  0  0  0  0  0  0  0  0  0  0  0
    7.1634    0.0682   18.5957 C   0  0  0  0  0  0  0  0  0  0  0  0
    8.1152   -0.4134   18.3815 H   0  0  0  0  0  0  0  0  0  0  0  0
    6.6443    0.0122   19.8988 C   0  0  0  0  0  0  0  0  0  0  0  0
    7.4145   -0.7093   20.9778 C   0  0  0  0  0  0  0  0  0  0  0  0
    6.8252   -0.7785   21.8966 H   0  0  0  0  0  0  0  0  0  0  0  0
    7.6761   -1.7310   20.6800 H   0  0  0  0  0  0  0  0  0  0  0  0
    8.6664   -0.0461   21.3072 N   0  0  0  0  0  0  0  0  0  0  0  0
    9.8358   -0.4106   20.7554 N   0  0  0  0  0  0  0  0  0  0  0  0
   10.7149    0.4280   21.1644 N   0  0  0  0  0  0  0  0  0  0  0  0
   10.1623    1.3648   21.9545 N   0  0  0  0  0  0  0  0  0  0  0  0
    8.8815    1.0721   22.0278 C   0  0  0  0  0  0  0  0  0  0  0  0
    7.8862    1.8202   22.8511 C   0  0  0  0  0  0  0  0  0  0  0  0
    6.8742    1.6174   22.4885 H   0  0  0  0  0  0  0  0  0  0  0  0
    8.0638    2.8883   22.6981 H   0  0  0  0  0  0  0  0  0  0  0  0
    7.9961    1.4725   24.3429 C   0  0  0  0  0  0  0  0  0  0  0  0
    7.3738    2.1678   24.9222 H   0  0  0  0  0  0  0  0  0  0  0  0
    9.0307    1.6395   24.6694 H   0  0  0  0  0  0  0  0  0  0  0  0
    7.5860    0.0387   24.6600 C   0  0  0  0  0  0  0  0  0  0  0  0
    8.2008   -0.6656   24.0805 H   0  0  0  0  0  0  0  0  0  0  0  0
    6.5523   -0.1262   24.3255 H   0  0  0  0  0  0  0  0  0  0  0  0
    7.6844   -0.2801   26.1495 C   0  0  0  0  0  0  0  0  0  0  0  0
    7.1331    0.4816   26.7178 H   0  0  0  0  0  0  0  0  0  0  0  0
    8.7319   -0.1887   26.4689 H   0  0  0  0  0  0  0  0  0  0  0  0
    7.1643   -1.6654   26.5260 C   0  0  0  0  0  0  0  0  0  0  0  0
    7.0884   -1.7370   27.6185 H   0  0  0  0  0  0  0  0  0  0  0  0
    6.1383   -1.7813   26.1511 H   0  0  0  0  0  0  0  0  0  0  0  0
    8.0224   -2.8182   26.0075 C   0  0  0  0  0  0  0  0  0  0  0  0
    8.0398   -2.8093   24.9109 H   0  0  0  0  0  0  0  0  0  0  0  0
    9.0618   -2.6582   26.3190 H   0  0  0  0  0  0  0  0  0  0  0  0
    7.5390   -4.1760   26.5033 C   0  0  0  0  0  0  0  0  0  0  0  0
    7.5528   -4.2214   27.5985 H   0  0  0  0  0  0  0  0  0  0  0  0
    6.5076   -4.3656   26.1847 H   0  0  0  0  0  0  0  0  0  0  0  0
    8.1624   -4.9932   26.1264 H   0  0  0  0  0  0  0  0  0  0  0  0
    5.4282    0.6509   20.1516 C   0  0  0  0  0  0  0  0  0  0  0  0
    4.9896    0.6343   21.1552 H   0  0  0  0  0  0  0  0  0  0  0  0
    4.7975    1.3142   19.0971 C   0  0  0  0  0  0  0  0  0  0  0  0
    3.8669    1.8488   19.2493 H   0  0  0  0  0  0  0  0  0  0  0  0
  1  2  1  0
  2  3  2  0
  3  4  1  0
  4  5  1  0
  4  6  2  0
  6  7  1  0
  7  8  1  0
  7  9  1  0
  7 10  1  0
 10 11  1  0
 11 12  2  0
 12 13  1  0
 13 14  2  0
 14 15  1  0
 15 16  1  0
 15 17  1  0
 15 18  1  0
 18 19  1  0
 18 20  1  0
 18 21  1  0
 21 22  1  0
 21 23  1  0
 21 24  1  0
 24 25  1  0
 24 26  1  0
 24 27  1  0
 27 28  1  0
 27 29  1  0
 27 30  1  0
 30 31  1  0
 30 32  1  0
 30 33  1  0
 33 34  1  0
 33 35  1  0
 33 36  1  0
  6 37  1  0
 37 38  1  0
 37 39  2  0
 39 40  1  0
 39  2  1  0
 14 10  1  0
M  END
>  <cnnaffinity>  (1) 
-5.39185

>  <filename>  (1) 
CCCCCCCc1nnnn1Cc1cccnc1

$$$$
