
     RDKit          3D

 50 51  0  0  0  0  0  0  0  0999 V2000
    4.9082    1.7869   16.9892 H   0  0  0  0  0  0  0  0  0  0  0  0
    5.3944    1.2975   17.8285 C   0  0  0  0  0  0  0  0  0  0  0  0
    6.5613    0.6850   17.5653 N   0  0  0  0  0  0  0  0  0  0  0  0
    7.1693    0.0607   18.5849 C   0  0  0  0  0  0  0  0  0  0  0  0
    8.1204   -0.4280   18.3686 H   0  0  0  0  0  0  0  0  0  0  0  0
    6.6675    0.0125   19.9111 C   0  0  0  0  0  0  0  0  0  0  0  0
    7.3003   -0.6666   20.9666 N   0  0  0  0  0  0  0  0  0  0  0  0
    7.8884   -1.9718   20.7477 C   0  0  0  0  0  0  0  0  0  0  0  0
    8.9704   -1.9311   20.4964 H   0  0  0  0  0  0  0  0  0  0  0  0
    7.3191   -2.3692   19.9133 H   0  0  0  0  0  0  0  0  0  0  0  0
    7.6708   -2.8878   21.9482 C   0  0  0  0  0  0  0  0  0  0  0  0
    8.1693   -3.8518   21.7805 H   0  0  0  0  0  0  0  0  0  0  0  0
    6.5949   -3.0974   22.0080 H   0  0  0  0  0  0  0  0  0  0  0  0
    8.1666   -2.2158   23.2336 C   0  0  0  0  0  0  0  0  0  0  0  0
    9.2412   -2.0146   23.0832 H   0  0  0  0  0  0  0  0  0  0  0  0
    8.0689   -3.1175   24.4775 C   0  0  0  0  0  0  0  0  0  0  0  0
    8.9379   -3.7877   24.4669 H   0  0  0  0  0  0  0  0  0  0  0  0
    8.1947   -2.4895   25.3702 H   0  0  0  0  0  0  0  0  0  0  0  0
    6.8159   -3.9955   24.6430 C   0  0  0  0  0  0  0  0  0  0  0  0
    6.7260   -4.6529   23.7687 H   0  0  0  0  0  0  0  0  0  0  0  0
    6.9934   -4.6726   25.4892 H   0  0  0  0  0  0  0  0  0  0  0  0
    5.4782   -3.2732   24.8658 C   0  0  0  0  0  0  0  0  0  0  0  0
    4.6893   -4.0296   24.9855 H   0  0  0  0  0  0  0  0  0  0  0  0
    5.1982   -2.7235   23.9594 H   0  0  0  0  0  0  0  0  0  0  0  0
    5.4431   -2.3214   26.0728 C   0  0  0  0  0  0  0  0  0  0  0  0
    4.4517   -1.8508   26.1265 H   0  0  0  0  0  0  0  0  0  0  0  0
    6.1443   -1.4933   25.9074 H   0  0  0  0  0  0  0  0  0  0  0  0
    5.7670   -2.9757   27.4271 C   0  0  0  0  0  0  0  0  0  0  0  0
    6.8107   -3.3196   27.4225 H   0  0  0  0  0  0  0  0  0  0  0  0
    5.7201   -2.2079   28.2108 H   0  0  0  0  0  0  0  0  0  0  0  0
    4.8617   -4.1555   27.8190 C   0  0  0  0  0  0  0  0  0  0  0  0
    5.0204   -4.9873   27.1186 H   0  0  0  0  0  0  0  0  0  0  0  0
    5.1824   -4.5330   28.8000 H   0  0  0  0  0  0  0  0  0  0  0  0
    3.3623   -3.8354   27.8905 C   0  0  0  0  0  0  0  0  0  0  0  0
    2.9963   -3.5206   26.9037 H   0  0  0  0  0  0  0  0  0  0  0  0
    2.8159   -4.7563   28.1291 H   0  0  0  0  0  0  0  0  0  0  0  0
    3.0145   -2.7679   28.9276 C   0  0  0  0  0  0  0  0  0  0  0  0
    1.9314   -2.6594   29.0394 H   0  0  0  0  0  0  0  0  0  0  0  0
    3.4298   -3.0300   29.9079 H   0  0  0  0  0  0  0  0  0  0  0  0
    3.4206   -1.7877   28.6529 H   0  0  0  0  0  0  0  0  0  0  0  0
    7.4994   -0.8348   23.3881 C   0  0  0  0  0  0  0  0  0  0  0  0
    6.4153   -0.9375   23.5243 H   0  0  0  0  0  0  0  0  0  0  0  0
    7.8912   -0.3137   24.2685 H   0  0  0  0  0  0  0  0  0  0  0  0
    7.7434    0.0365   22.1552 C   0  0  0  0  0  0  0  0  0  0  0  0
    8.8163    0.3050   22.0854 H   0  0  0  0  0  0  0  0  0  0  0  0
    7.1946    0.9798   22.2295 H   0  0  0  0  0  0  0  0  0  0  0  0
    5.4464    0.6660   20.1550 C   0  0  0  0  0  0  0  0  0  0  0  0
    5.0261    0.6246   21.1604 H   0  0  0  0  0  0  0  0  0  0  0  0
    4.8044    1.3130   19.0980 C   0  0  0  0  0  0  0  0  0  0  0  0
    3.8733    1.8437   19.2596 H   0  0  0  0  0  0  0  0  0  0  0  0
  1  2  1  0
  2  3  2  0
  3  4  1  0
  4  5  1  0
  4  6  2  0
  6  7  1  0
  7  8  1  0
  8  9  1  0
  8 10  1  0
  8 11  1  0
 11 12  1  0
 11 13  1  0
 11 14  1  0
 14 15  1  0
 14 16  1  0
 16 17  1  0
 16 18  1  0
 16 19  1  0
 19 20  1  0
 19 21  1  0
 19 22  1  0
 22 23  1  0
 22 24  1  0
 22 25  1  0
 25 26  1  0
 25 27  1  0
 25 28  1  0
 28 29  1  0
 28 30  1  0
 28 31  1  0
 31 32  1  0
 31 33  1  0
 31 34  1  0
 34 35  1  0
 34 36  1  0
 34 37  1  0
 37 38  1  0
 37 39  1  0
 37 40  1  0
 14 41  1  0
 41 42  1  0
 41 43  1  0
 41 44  1  0
 44 45  1  0
 44 46  1  0
  6 47  1  0
 47 48  1  0
 47 49  2  0
 49 50  1  0
 49  2  1  0
 44  7  1  0
M  END
>  <cnnaffinity>  (1) 
-5.28778

>  <filename>  (1) 
CCCCCCCCC1CCN(c2cccnc2)CC1

$$$$
