
     RDKit          3D

 43 44  0  0  0  0  0  0  0  0999 V2000
   10.4713   -1.2276   21.8943 H   0  0  0  0  0  0  0  0  0  0  0  0
    9.3842   -1.2990   21.8910 C   0  0  0  0  0  0  0  0  0  0  0  0
    8.7659   -0.6898   20.8819 N   0  0  0  0  0  0  0  0  0  0  0  0
    7.4293   -0.7435   20.8999 C   0  0  0  0  0  0  0  0  0  0  0  0
    6.7080    0.0015   19.8583 C   0  0  0  0  0  0  0  0  0  0  0  0
    7.2367    0.0636   18.5627 C   0  0  0  0  0  0  0  0  0  0  0  0
    8.1865   -0.4204   18.3462 H   0  0  0  0  0  0  0  0  0  0  0  0
    6.6319    0.6775   17.5407 N   0  0  0  0  0  0  0  0  0  0  0  0
    5.4643    1.2896   17.7936 C   0  0  0  0  0  0  0  0  0  0  0  0
    4.9834    1.7805   16.9492 H   0  0  0  0  0  0  0  0  0  0  0  0
    4.8630    1.3118   19.0565 C   0  0  0  0  0  0  0  0  0  0  0  0
    3.9244    1.8341   19.1980 H   0  0  0  0  0  0  0  0  0  0  0  0
    5.4955    0.6610   20.1131 C   0  0  0  0  0  0  0  0  0  0  0  0
    5.0764    0.6881   21.1227 H   0  0  0  0  0  0  0  0  0  0  0  0
    6.7423   -1.4683   21.8692 C   0  0  0  0  0  0  0  0  0  0  0  0
    5.6760   -1.6147   21.7946 H   0  0  0  0  0  0  0  0  0  0  0  0
    7.4770   -2.0278   22.9059 C   0  0  0  0  0  0  0  0  0  0  0  0
    6.8119   -2.7317   24.0708 C   0  0  0  0  0  0  0  0  0  0  0  0
    6.0117   -3.3699   23.6779 H   0  0  0  0  0  0  0  0  0  0  0  0
    7.5670   -3.3886   24.5132 H   0  0  0  0  0  0  0  0  0  0  0  0
    6.2241   -1.8521   25.2034 C   0  0  0  0  0  0  0  0  0  0  0  0
    5.8297   -2.5318   25.9688 H   0  0  0  0  0  0  0  0  0  0  0  0
    5.3609   -1.2726   24.8440 H   0  0  0  0  0  0  0  0  0  0  0  0
    7.2460   -0.9050   25.8413 C   0  0  0  0  0  0  0  0  0  0  0  0
    7.0479   -0.7807   26.9156 H   0  0  0  0  0  0  0  0  0  0  0  0
    8.2405   -1.3727   25.7863 H   0  0  0  0  0  0  0  0  0  0  0  0
    7.2768    0.4802   25.1805 C   0  0  0  0  0  0  0  0  0  0  0  0
    6.4102    1.0585   25.5260 H   0  0  0  0  0  0  0  0  0  0  0  0
    7.1566    0.3790   24.0909 H   0  0  0  0  0  0  0  0  0  0  0  0
    8.5666    1.2385   25.4816 C   0  0  0  0  0  0  0  0  0  0  0  0
    8.7840    1.1664   26.5617 H   0  0  0  0  0  0  0  0  0  0  0  0
    8.4473    2.3082   25.2488 H   0  0  0  0  0  0  0  0  0  0  0  0
    9.7630    0.6942   24.6953 C   0  0  0  0  0  0  0  0  0  0  0  0
    9.9467   -0.3563   24.9704 H   0  0  0  0  0  0  0  0  0  0  0  0
    9.5271    0.6898   23.6212 H   0  0  0  0  0  0  0  0  0  0  0  0
   11.0327    1.4970   24.9518 C   0  0  0  0  0  0  0  0  0  0  0  0
   11.0999    1.6238   26.0376 H   0  0  0  0  0  0  0  0  0  0  0  0
   10.9182    2.5049   24.5236 H   0  0  0  0  0  0  0  0  0  0  0  0
   12.3258    0.8377   24.4670 C   0  0  0  0  0  0  0  0  0  0  0  0
   12.4637   -0.1350   24.9631 H   0  0  0  0  0  0  0  0  0  0  0  0
   13.1843    1.4752   24.7089 H   0  0  0  0  0  0  0  0  0  0  0  0
   12.3398    0.6717   23.3808 H   0  0  0  0  0  0  0  0  0  0  0  0
    8.8203   -1.9630   22.8995 N   0  0  0  0  0  0  0  0  0  0  0  0
  1  2  1  0
  2  3  2  0
  3  4  1  0
  4  5  1  0
  5  6  2  0
  6  7  1  0
  6  8  1  0
  8  9  2  0
  9 10  1  0
  9 11  1  0
 11 12  1  0
 11 13  2  0
 13 14  1  0
  4 15  2  0
 15 16  1  0
 15 17  1  0
 17 18  1  0
 18 19  1  0
 18 20  1  0
 18 21  1  0
 21 22  1  0
 21 23  1  0
 21 24  1  0
 24 25  1  0
 24 26  1  0
 24 27  1  0
 27 28  1  0
 27 29  1  0
 27 30  1  0
 30 31  1  0
 30 32  1  0
 30 33  1  0
 33 34  1  0
 33 35  1  0
 33 36  1  0
 36 37  1  0
 36 38  1  0
 36 39  1  0
 39 40  1  0
 39 41  1  0
 39 42  1  0
 17 43  2  0
 43  2  1  0
 13  5  1  0
M  END
>  <cnnaffinity>  (1) 
-5.38525

>  <filename>  (1) 
CCCCCCCCc1cc(-c2cccnc2)ncn1

$$$$
