
     RDKit          3D

 33 34  0  0  0  0  0  0  0  0999 V2000
    6.1611    1.0520   22.8413 H   0  0  0  0  0  0  0  0  0  0  0  0
    6.7204    0.1322   22.7171 C   0  0  0  0  0  0  0  0  0  0  0  0
    7.3176   -0.3785   23.8057 N   0  0  0  0  0  0  0  0  0  0  0  0
    7.9722   -1.0315   24.4593 N   0  0  0  0  0  0  0  0  0  0  0  0
    8.8385   -2.0893   21.9106 C   0  0  0  0  0  0  0  0  0  0  0  0
    8.7065   -2.3306   21.8707 C   0  0  0  0  0  0  0  0  0  0  0  0
    8.8920   -2.8758   22.8794 H   0  0  0  0  0  0  0  0  0  0  0  0
    9.5470   -2.9336   21.3423 H   0  0  0  0  0  0  0  0  0  0  0  0
    8.3348   -4.4944   23.0163 C   0  0  0  0  0  0  0  0  0  0  0  0
    7.7419   -4.5829   23.9483 H   0  0  0  0  0  0  0  0  0  0  0  0
    9.1605   -5.2220   23.0432 H   0  0  0  0  0  0  0  0  0  0  0  0
    7.5096   -4.4903   21.7271 C   0  0  0  0  0  0  0  0  0  0  0  0
    6.9306   -3.5710   21.7580 H   0  0  0  0  0  0  0  0  0  0  0  0
    8.1698   -4.2007   20.9199 H   0  0  0  0  0  0  0  0  0  0  0  0
    6.7082   -5.7774   21.4747 C   0  0  0  0  0  0  0  0  0  0  0  0
    6.1774   -5.7626   20.5028 H   0  0  0  0  0  0  0  0  0  0  0  0
    7.3883   -6.6491   21.4166 H   0  0  0  0  0  0  0  0  0  0  0  0
    5.6808   -6.0430   22.5876 C   0  0  0  0  0  0  0  0  0  0  0  0
    5.0434   -6.9069   22.3695 H   0  0  0  0  0  0  0  0  0  0  0  0
    5.0217   -5.1782   22.7379 H   0  0  0  0  0  0  0  0  0  0  0  0
    6.1915   -6.2332   23.5385 H   0  0  0  0  0  0  0  0  0  0  0  0
    7.6890   -1.6220   21.1850 N   0  0  0  0  0  0  0  0  0  0  0  0
    6.9287   -0.4376   21.4642 C   0  0  0  0  0  0  0  0  0  0  0  0
    6.3532    0.0858   20.2427 C   0  0  0  0  0  0  0  0  0  0  0  0
    6.8834   -0.3302   18.9973 C   0  0  0  0  0  0  0  0  0  0  0  0
    7.6298   -1.1144   18.9795 H   0  0  0  0  0  0  0  0  0  0  0  0
    6.5247    0.1948   17.8209 N   0  0  0  0  0  0  0  0  0  0  0  0
    5.5764    1.1393   17.8277 C   0  0  0  0  0  0  0  0  0  0  0  0
    5.3200    1.5713   16.8603 H   0  0  0  0  0  0  0  0  0  0  0  0
    4.9249    1.5658   18.9891 C   0  0  0  0  0  0  0  0  0  0  0  0
    4.1513    2.3239   18.9206 H   0  0  0  0  0  0  0  0  0  0  0  0
    5.3000    1.0260   20.2153 C   0  0  0  0  0  0  0  0  0  0  0  0
    4.7714    1.3212   21.1207 H   0  0  0  0  0  0  0  0  0  0  0  0
  1  2  1  0
  2  3  2  0
  3  4  1  0
  4  5  2  0
  5  6  1  0
  6  7  1  0
  6  8  1  0
  6  9  1  0
  9 10  1  0
  9 11  1  0
  9 12  1  0
 12 13  1  0
 12 14  1  0
 12 15  1  0
 15 16  1  0
 15 17  1  0
 15 18  1  0
 18 19  1  0
 18 20  1  0
 18 21  1  0
  5 22  1  0
 22 23  2  0
 23 24  1  0
 24 25  2  0
 25 26  1  0
 25 27  1  0
 27 28  2  0
 28 29  1  0
 28 30  1  0
 30 31  1  0
 30 32  2  0
 32 33  1  0
 23  2  1  0
 32 24  1  0
M  END
>  <cnnaffinity>  (1) 
-4.85006

>  <filename>  (1) 
CCCCCc1nncc(-c2cccnc2)n1

$$$$
