
     RDKit          3D

 33 34  0  0  0  0  0  0  0  0999 V2000
    5.0581    1.6607   16.6946 H   0  0  0  0  0  0  0  0  0  0  0  0
    5.4501    1.3012   17.6426 C   0  0  0  0  0  0  0  0  0  0  0  0
    6.6460    0.6934   17.5948 N   0  0  0  0  0  0  0  0  0  0  0  0
    7.1519    0.2492   18.7509 C   0  0  0  0  0  0  0  0  0  0  0  0
    8.1325   -0.2202   18.6818 H   0  0  0  0  0  0  0  0  0  0  0  0
    6.5235    0.3717   20.0035 C   0  0  0  0  0  0  0  0  0  0  0  0
    7.1584   -0.2191   21.2026 C   0  0  0  0  0  0  0  0  0  0  0  0
    6.7378    0.2899   22.8067 S   0  0  0  0  0  0  0  0  0  0  0  0
    7.6773   -0.9714   23.5116 C   0  0  0  0  0  0  0  0  0  0  0  0
    7.7088   -1.1005   24.5847 H   0  0  0  0  0  0  0  0  0  0  0  0
    8.2839   -1.7605   22.5757 C   0  0  0  0  0  0  0  0  0  0  0  0
    9.0329   -3.0357   22.8913 C   0  0  0  0  0  0  0  0  0  0  0  0
    9.2694   -3.0614   23.9633 H   0  0  0  0  0  0  0  0  0  0  0  0
   10.0032   -3.0397   22.3824 H   0  0  0  0  0  0  0  0  0  0  0  0
    8.2587   -4.3161   22.5292 C   0  0  0  0  0  0  0  0  0  0  0  0
    8.9059   -5.1867   22.7124 H   0  0  0  0  0  0  0  0  0  0  0  0
    8.0310   -4.3224   21.4525 H   0  0  0  0  0  0  0  0  0  0  0  0
    6.9523   -4.4841   23.3142 C   0  0  0  0  0  0  0  0  0  0  0  0
    7.1877   -4.5299   24.3915 H   0  0  0  0  0  0  0  0  0  0  0  0
    6.3183   -3.5886   23.1871 H   0  0  0  0  0  0  0  0  0  0  0  0
    6.2137   -5.7633   22.8916 C   0  0  0  0  0  0  0  0  0  0  0  0
    6.0770   -5.7683   21.7980 H   0  0  0  0  0  0  0  0  0  0  0  0
    6.8805   -6.6100   23.1203 H   0  0  0  0  0  0  0  0  0  0  0  0
    4.8537   -5.9762   23.5622 C   0  0  0  0  0  0  0  0  0  0  0  0
    4.1349   -5.1936   23.2936 H   0  0  0  0  0  0  0  0  0  0  0  0
    4.4090   -6.9431   23.2991 H   0  0  0  0  0  0  0  0  0  0  0  0
    4.9303   -5.9491   24.6529 H   0  0  0  0  0  0  0  0  0  0  0  0
    8.0136   -1.2881   21.2455 C   0  0  0  0  0  0  0  0  0  0  0  0
    8.4411   -1.7346   20.3513 H   0  0  0  0  0  0  0  0  0  0  0  0
    5.2696    1.0183   20.0257 C   0  0  0  0  0  0  0  0  0  0  0  0
    4.7334    1.1475   20.9655 H   0  0  0  0  0  0  0  0  0  0  0  0
    4.7283    1.4817   18.8267 C   0  0  0  0  0  0  0  0  0  0  0  0
    3.7688    1.9871   18.7982 H   0  0  0  0  0  0  0  0  0  0  0  0
  1  2  1  0
  2  3  2  0
  3  4  1  0
  4  5  1  0
  4  6  2  0
  6  7  1  0
  7  8  1  0
  8  9  1  0
  9 10  1  0
  9 11  2  0
 11 12  1  0
 12 13  1  0
 12 14  1  0
 12 15  1  0
 15 16  1  0
 15 17  1  0
 15 18  1  0
 18 19  1  0
 18 20  1  0
 18 21  1  0
 21 22  1  0
 21 23  1  0
 21 24  1  0
 24 25  1  0
 24 26  1  0
 24 27  1  0
 11 28  1  0
 28 29  1  0
  6 30  1  0
 30 31  1  0
 30 32  2  0
 32 33  1  0
 32  2  1  0
 28  7  2  0
M  END
>  <cnnaffinity>  (1) 
-4.75708

>  <filename>  (1) 
CCCCCc1csc(-c2cccnc2)c1

$$$$
