
     RDKit          3D

 33 34  0  0  0  0  0  0  0  0999 V2000
    4.9135    1.7902   16.9862 H   0  0  0  0  0  0  0  0  0  0  0  0
    5.3947    1.3002   17.8288 C   0  0  0  0  0  0  0  0  0  0  0  0
    6.5585    0.6851   17.5662 N   0  0  0  0  0  0  0  0  0  0  0  0
    7.1789    0.0764   18.5819 C   0  0  0  0  0  0  0  0  0  0  0  0
    8.1197   -0.4249   18.3558 H   0  0  0  0  0  0  0  0  0  0  0  0
    6.6560    0.0236   19.8879 C   0  0  0  0  0  0  0  0  0  0  0  0
    7.3490   -0.6702   20.9399 N   0  0  0  0  0  0  0  0  0  0  0  0
    8.6466   -0.2846   21.2601 C   0  0  0  0  0  0  0  0  0  0  0  0
    9.0263    0.5585   20.6840 H   0  0  0  0  0  0  0  0  0  0  0  0
    9.3650   -0.8923   22.2252 C   0  0  0  0  0  0  0  0  0  0  0  0
   10.7280   -0.4172   22.6279 C   0  0  0  0  0  0  0  0  0  0  0  0
   11.2616   -0.0130   21.7511 H   0  0  0  0  0  0  0  0  0  0  0  0
   11.3043   -1.2765   22.9911 H   0  0  0  0  0  0  0  0  0  0  0  0
   10.6584    0.6488   23.7339 C   0  0  0  0  0  0  0  0  0  0  0  0
   10.0914    1.5152   23.3628 H   0  0  0  0  0  0  0  0  0  0  0  0
   10.0748    0.2450   24.5712 H   0  0  0  0  0  0  0  0  0  0  0  0
   12.0307    1.1159   24.2241 C   0  0  0  0  0  0  0  0  0  0  0  0
   12.6179    0.2391   24.5335 H   0  0  0  0  0  0  0  0  0  0  0  0
   11.8937    1.7259   25.1249 H   0  0  0  0  0  0  0  0  0  0  0  0
   12.8088    1.9191   23.1791 C   0  0  0  0  0  0  0  0  0  0  0  0
   13.0713    1.3107   22.3054 H   0  0  0  0  0  0  0  0  0  0  0  0
   13.7388    2.3161   23.5968 H   0  0  0  0  0  0  0  0  0  0  0  0
   12.2155    2.7687   22.8174 H   0  0  0  0  0  0  0  0  0  0  0  0
    8.7355   -1.9799   22.9985 C   0  0  0  0  0  0  0  0  0  0  0  0
    9.2098   -2.6041   23.9241 O   0  0  0  0  0  0  0  0  0  0  0  0
    7.4692   -2.3004   22.5940 N   0  0  0  0  0  0  0  0  0  0  0  0
    7.0172   -3.0467   23.0841 H   0  0  0  0  0  0  0  0  0  0  0  0
    6.7235   -1.7404   21.6144 C   0  0  0  0  0  0  0  0  0  0  0  0
    5.6273   -2.1874   21.3703 O   0  0  0  0  0  0  0  0  0  0  0  0
    5.4396    0.6554   20.1528 C   0  0  0  0  0  0  0  0  0  0  0  0
    5.0161    0.6122   21.1575 H   0  0  0  0  0  0  0  0  0  0  0  0
    4.8069    1.3180   19.0983 C   0  0  0  0  0  0  0  0  0  0  0  0
    3.8746    1.8434   19.2527 H   0  0  0  0  0  0  0  0  0  0  0  0
  1  2  1  0
  2  3  2  0
  3  4  1  0
  4  5  1  0
  4  6  2  0
  6  7  1  0
  7  8  1  0
  8  9  1  0
  8 10  2  0
 10 11  1  0
 11 12  1  0
 11 13  1  0
 11 14  1  0
 14 15  1  0
 14 16  1  0
 14 17  1  0
 17 18  1  0
 17 19  1  0
 17 20  1  0
 20 21  1  0
 20 22  1  0
 20 23  1  0
 10 24  1  0
 24 25  2  0
 24 26  1  0
 26 27  1  0
 26 28  1  0
 28 29  2  0
  6 30  1  0
 30 31  1  0
 30 32  2  0
 32 33  1  0
 32  2  1  0
 28  7  1  0
M  END
>  <cnnaffinity>  (1) 
-5.15706

>  <filename>  (1) 
CCCCc1cn(-c2cccnc2)c(=O)[nH]c1=O

$$$$
