
     RDKit          3D

 40 41  0  0  0  0  0  0  0  0999 V2000
    4.9156    1.8651   16.9566 H   0  0  0  0  0  0  0  0  0  0  0  0
    5.3929    1.3364   17.7812 C   0  0  0  0  0  0  0  0  0  0  0  0
    6.5560    0.7282   17.4988 N   0  0  0  0  0  0  0  0  0  0  0  0
    7.1834    0.0925   18.5030 C   0  0  0  0  0  0  0  0  0  0  0  0
    8.1295   -0.3771   18.2323 H   0  0  0  0  0  0  0  0  0  0  0  0
    6.6876   -0.0119   19.8364 C   0  0  0  0  0  0  0  0  0  0  0  0
    7.3680   -0.6848   20.8851 N   0  0  0  0  0  0  0  0  0  0  0  0
    6.6852   -1.6298   21.7619 C   0  0  0  0  0  0  0  0  0  0  0  0
    7.1634   -2.6220   21.7046 H   0  0  0  0  0  0  0  0  0  0  0  0
    5.6619   -1.7753   21.4060 H   0  0  0  0  0  0  0  0  0  0  0  0
    6.6237   -1.2436   23.2550 C   0  0  0  0  0  0  0  0  0  0  0  0
    5.7749   -1.7715   23.6875 H   0  0  0  0  0  0  0  0  0  0  0  0
    6.4081   -0.1719   23.3537 H   0  0  0  0  0  0  0  0  0  0  0  0
    7.7603   -1.6055   24.1096 N   0  0  0  0  0  0  0  0  0  0  0  0
    7.5753   -2.9079   24.7440 C   0  0  0  0  0  0  0  0  0  0  0  0
    6.5232   -2.9755   25.0486 H   0  0  0  0  0  0  0  0  0  0  0  0
    7.7338   -3.7425   24.0310 H   0  0  0  0  0  0  0  0  0  0  0  0
    8.3849   -3.0990   26.0182 C   0  0  0  0  0  0  0  0  0  0  0  0
    8.2554   -2.1910   26.6204 H   0  0  0  0  0  0  0  0  0  0  0  0
    9.4531   -3.1773   25.7794 H   0  0  0  0  0  0  0  0  0  0  0  0
    7.9317   -4.3366   26.8093 C   0  0  0  0  0  0  0  0  0  0  0  0
    8.4688   -4.3699   27.7649 H   0  0  0  0  0  0  0  0  0  0  0  0
    6.8677   -4.2246   27.0666 H   0  0  0  0  0  0  0  0  0  0  0  0
    8.1344   -5.6546   26.0530 C   0  0  0  0  0  0  0  0  0  0  0  0
    9.1720   -5.7556   25.7128 H   0  0  0  0  0  0  0  0  0  0  0  0
    7.9036   -6.5216   26.6804 H   0  0  0  0  0  0  0  0  0  0  0  0
    7.4905   -5.7165   25.1678 H   0  0  0  0  0  0  0  0  0  0  0  0
    9.1014   -1.3951   23.5480 C   0  0  0  0  0  0  0  0  0  0  0  0
    9.4878   -2.2990   23.0257 H   0  0  0  0  0  0  0  0  0  0  0  0
    9.7943   -1.2328   24.3877 H   0  0  0  0  0  0  0  0  0  0  0  0
    9.1979   -0.1993   22.5875 C   0  0  0  0  0  0  0  0  0  0  0  0
   10.2380    0.1495   22.5699 H   0  0  0  0  0  0  0  0  0  0  0  0
    8.6045    0.6327   22.9826 H   0  0  0  0  0  0  0  0  0  0  0  0
    8.7935   -0.4930   21.1271 C   0  0  0  0  0  0  0  0  0  0  0  0
    9.3722   -1.3751   20.7965 H   0  0  0  0  0  0  0  0  0  0  0  0
    9.1243    0.3469   20.5038 H   0  0  0  0  0  0  0  0  0  0  0  0
    5.4496    0.6177   20.0806 C   0  0  0  0  0  0  0  0  0  0  0  0
    5.0386    0.5882   21.0884 H   0  0  0  0  0  0  0  0  0  0  0  0
    4.8056    1.3078   19.0474 C   0  0  0  0  0  0  0  0  0  0  0  0
    3.8667    1.8256   19.2167 H   0  0  0  0  0  0  0  0  0  0  0  0
  1  2  1  0
  2  3  2  0
  3  4  1  0
  4  5  1  0
  4  6  2  0
  6  7  1  0
  7  8  1  0
  8  9  1  0
  8 10  1  0
  8 11  1  0
 11 12  1  0
 11 13  1  0
 11 14  1  0
 14 15  1  0
 15 16  1  0
 15 17  1  0
 15 18  1  0
 18 19  1  0
 18 20  1  0
 18 21  1  0
 21 22  1  0
 21 23  1  0
 21 24  1  0
 24 25  1  0
 24 26  1  0
 24 27  1  0
 14 28  1  0
 28 29  1  0
 28 30  1  0
 28 31  1  0
 31 32  1  0
 31 33  1  0
 31 34  1  0
 34 35  1  0
 34 36  1  0
  6 37  1  0
 37 38  1  0
 37 39  2  0
 39 40  1  0
 39  2  1  0
 34  7  1  0
M  END
>  <cnnaffinity>  (1) 
-4.67144

>  <filename>  (1) 
CCCCN1CCCN(c2cccnc2)CC1

$$$$
