
     RDKit          3D

 44 45  0  0  0  0  0  0  0  0999 V2000
    4.9087    1.7916   16.9908 H   0  0  0  0  0  0  0  0  0  0  0  0
    5.3932    1.3005   17.8317 C   0  0  0  0  0  0  0  0  0  0  0  0
    6.5528    0.6806   17.5597 N   0  0  0  0  0  0  0  0  0  0  0  0
    7.1749    0.0686   18.5777 C   0  0  0  0  0  0  0  0  0  0  0  0
    8.1149   -0.4302   18.3548 H   0  0  0  0  0  0  0  0  0  0  0  0
    6.6866    0.0159   19.9070 C   0  0  0  0  0  0  0  0  0  0  0  0
    7.3772   -0.6769   20.9296 N   0  0  0  0  0  0  0  0  0  0  0  0
    8.6862   -0.5073   21.3926 C   0  0  0  0  0  0  0  0  0  0  0  0
    9.5568    0.6397   20.9638 C   0  0  0  0  0  0  0  0  0  0  0  0
    9.2985    0.9438   19.9498 H   0  0  0  0  0  0  0  0  0  0  0  0
   10.5835    0.2717   20.9488 H   0  0  0  0  0  0  0  0  0  0  0  0
    9.4474    1.8347   21.9241 C   0  0  0  0  0  0  0  0  0  0  0  0
   10.2084    2.5814   21.6594 H   0  0  0  0  0  0  0  0  0  0  0  0
    9.6831    1.4931   22.9403 H   0  0  0  0  0  0  0  0  0  0  0  0
    8.0677    2.4791   21.9102 C   0  0  0  0  0  0  0  0  0  0  0  0
    7.7926    2.7100   20.8776 H   0  0  0  0  0  0  0  0  0  0  0  0
    7.3035    1.7629   22.2434 H   0  0  0  0  0  0  0  0  0  0  0  0
    7.9945    3.7348   22.7683 C   0  0  0  0  0  0  0  0  0  0  0  0
    8.7530    4.4579   22.4345 H   0  0  0  0  0  0  0  0  0  0  0  0
    8.2627    3.4789   23.8041 H   0  0  0  0  0  0  0  0  0  0  0  0
    6.6106    4.3796   22.7509 C   0  0  0  0  0  0  0  0  0  0  0  0
    5.8591    3.6234   23.0141 H   0  0  0  0  0  0  0  0  0  0  0  0
    6.3718    4.6989   21.7247 H   0  0  0  0  0  0  0  0  0  0  0  0
    6.4737    5.5745   23.6943 C   0  0  0  0  0  0  0  0  0  0  0  0
    5.4135    5.8454   23.7815 H   0  0  0  0  0  0  0  0  0  0  0  0
    6.7913    5.2752   24.7043 H   0  0  0  0  0  0  0  0  0  0  0  0
    7.2711    6.8049   23.2595 C   0  0  0  0  0  0  0  0  0  0  0  0
    8.3430    6.5733   23.2411 H   0  0  0  0  0  0  0  0  0  0  0  0
    7.0028    7.0566   22.2250 H   0  0  0  0  0  0  0  0  0  0  0  0
    7.0217    8.0087   24.1622 C   0  0  0  0  0  0  0  0  0  0  0  0
    7.3013    7.7845   25.1987 H   0  0  0  0  0  0  0  0  0  0  0  0
    5.9593    8.2821   24.1623 H   0  0  0  0  0  0  0  0  0  0  0  0
    7.5948    8.8827   23.8379 H   0  0  0  0  0  0  0  0  0  0  0  0
    9.0756   -1.3435   22.2789 N   0  0  0  0  0  0  0  0  0  0  0  0
    7.9601   -2.2435   22.5550 C   0  0  0  0  0  0  0  0  0  0  0  0
    7.7220   -2.2196   23.6230 H   0  0  0  0  0  0  0  0  0  0  0  0
    8.2511   -3.2683   22.3090 H   0  0  0  0  0  0  0  0  0  0  0  0
    6.7680   -1.7641   21.6960 C   0  0  0  0  0  0  0  0  0  0  0  0
    5.9331   -1.4039   22.3056 H   0  0  0  0  0  0  0  0  0  0  0  0
    6.3699   -2.5487   21.0377 H   0  0  0  0  0  0  0  0  0  0  0  0
    5.4527    0.6428   20.1588 C   0  0  0  0  0  0  0  0  0  0  0  0
    5.0343    0.6145   21.1691 H   0  0  0  0  0  0  0  0  0  0  0  0
    4.8117    1.3081   19.1043 C   0  0  0  0  0  0  0  0  0  0  0  0
    3.8808    1.8364   19.2598 H   0  0  0  0  0  0  0  0  0  0  0  0
  1  2  1  0
  2  3  2  0
  3  4  1  0
  4  5  1  0
  4  6  2  0
  6  7  1  0
  7  8  1  0
  8  9  1  0
  9 10  1  0
  9 11  1  0
  9 12  1  0
 12 13  1  0
 12 14  1  0
 12 15  1  0
 15 16  1  0
 15 17  1  0
 15 18  1  0
 18 19  1  0
 18 20  1  0
 18 21  1  0
 21 22  1  0
 21 23  1  0
 21 24  1  0
 24 25  1  0
 24 26  1  0
 24 27  1  0
 27 28  1  0
 27 29  1  0
 27 30  1  0
 30 31  1  0
 30 32  1  0
 30 33  1  0
  8 34  2  0
 34 35  1  0
 35 36  1  0
 35 37  1  0
 35 38  1  0
 38 39  1  0
 38 40  1  0
  6 41  1  0
 41 42  1  0
 41 43  2  0
 43 44  1  0
 43  2  1  0
 38  7  1  0
M  END
>  <cnnaffinity>  (1) 
-5.12234

>  <filename>  (1) 
CCCCCCCCC1=NCCN1c1cccnc1

$$$$
