
     RDKit          3D

 37 38  0  0  0  0  0  0  0  0999 V2000
    4.9411    1.7186   16.7461 H   0  0  0  0  0  0  0  0  0  0  0  0
    5.3671    1.3083   17.6604 C   0  0  0  0  0  0  0  0  0  0  0  0
    6.5412    0.6644   17.5289 N   0  0  0  0  0  0  0  0  0  0  0  0
    7.0925    0.1590   18.6358 C   0  0  0  0  0  0  0  0  0  0  0  0
    8.0398   -0.3662   18.5253 H   0  0  0  0  0  0  0  0  0  0  0  0
    6.5192    0.2732   19.9221 C   0  0  0  0  0  0  0  0  0  0  0  0
    7.1285   -0.3154   21.0471 N   0  0  0  0  0  0  0  0  0  0  0  0
    7.1431    0.0994   22.3960 C   0  0  0  0  0  0  0  0  0  0  0  0
    6.5412    1.0581   22.8573 O   0  0  0  0  0  0  0  0  0  0  0  0
    8.0002   -0.8865   23.0433 C   0  0  0  0  0  0  0  0  0  0  0  0
    8.1593   -0.9419   24.1068 H   0  0  0  0  0  0  0  0  0  0  0  0
    8.4229   -1.7711   22.1181 C   0  0  0  0  0  0  0  0  0  0  0  0
    9.2155   -3.0245   22.2088 C   0  0  0  0  0  0  0  0  0  0  0  0
    9.9063   -3.0185   21.3573 H   0  0  0  0  0  0  0  0  0  0  0  0
    9.8523   -2.9992   23.0988 H   0  0  0  0  0  0  0  0  0  0  0  0
    8.3231   -4.2950   22.2202 C   0  0  0  0  0  0  0  0  0  0  0  0
    7.7391   -4.3238   21.2875 H   0  0  0  0  0  0  0  0  0  0  0  0
    8.9564   -5.1915   22.2214 H   0  0  0  0  0  0  0  0  0  0  0  0
    7.3881   -4.4011   23.4369 C   0  0  0  0  0  0  0  0  0  0  0  0
    7.9990   -4.3027   24.3457 H   0  0  0  0  0  0  0  0  0  0  0  0
    6.6816   -3.5547   23.4595 H   0  0  0  0  0  0  0  0  0  0  0  0
    6.6148   -5.7299   23.5386 C   0  0  0  0  0  0  0  0  0  0  0  0
    7.3051   -6.5598   23.3242 H   0  0  0  0  0  0  0  0  0  0  0  0
    6.3003   -5.8635   24.5858 H   0  0  0  0  0  0  0  0  0  0  0  0
    5.3729   -5.8631   22.6437 C   0  0  0  0  0  0  0  0  0  0  0  0
    4.8330   -4.9067   22.6529 H   0  0  0  0  0  0  0  0  0  0  0  0
    5.6607   -6.0406   21.5966 H   0  0  0  0  0  0  0  0  0  0  0  0
    4.4241   -6.9669   23.1210 C   0  0  0  0  0  0  0  0  0  0  0  0
    3.5987   -7.1168   22.4162 H   0  0  0  0  0  0  0  0  0  0  0  0
    3.9914   -6.7110   24.0958 H   0  0  0  0  0  0  0  0  0  0  0  0
    4.9462   -7.9236   23.2493 H   0  0  0  0  0  0  0  0  0  0  0  0
    7.9514   -1.4361   20.8503 N   0  0  0  0  0  0  0  0  0  0  0  0
    7.4271   -2.2014   20.4133 H   0  0  0  0  0  0  0  0  0  0  0  0
    5.3053    0.9599   20.0520 C   0  0  0  0  0  0  0  0  0  0  0  0
    4.8678    1.0817   21.0405 H   0  0  0  0  0  0  0  0  0  0  0  0
    4.7161    1.4662   18.8884 C   0  0  0  0  0  0  0  0  0  0  0  0
    3.7763    2.0053   18.9300 H   0  0  0  0  0  0  0  0  0  0  0  0
  1  2  1  0
  2  3  2  0
  3  4  1  0
  4  5  1  0
  4  6  2  0
  6  7  1  0
  7  8  1  0
  8  9  2  0
  8 10  1  0
 10 11  1  0
 10 12  2  0
 12 13  1  0
 13 14  1  0
 13 15  1  0
 13 16  1  0
 16 17  1  0
 16 18  1  0
 16 19  1  0
 19 20  1  0
 19 21  1  0
 19 22  1  0
 22 23  1  0
 22 24  1  0
 22 25  1  0
 25 26  1  0
 25 27  1  0
 25 28  1  0
 28 29  1  0
 28 30  1  0
 28 31  1  0
 12 32  1  0
 32 33  1  0
  6 34  1  0
 34 35  1  0
 34 36  2  0
 36 37  1  0
 36  2  1  0
 32  7  1  0
M  END
>  <cnnaffinity>  (1) 
-4.82441

>  <filename>  (1) 
CCCCCCc1cc(=O)n(-c2cccnc2)[nH]1

$$$$
