
     RDKit          3D

 33 34  0  0  0  0  0  0  0  0999 V2000
    5.0014    1.8485   17.0280 H   0  0  0  0  0  0  0  0  0  0  0  0
    5.4464    1.2916   17.8484 C   0  0  0  0  0  0  0  0  0  0  0  0
    6.5916    0.6476   17.5744 N   0  0  0  0  0  0  0  0  0  0  0  0
    7.1599   -0.0352   18.5758 C   0  0  0  0  0  0  0  0  0  0  0  0
    8.0894   -0.5571   18.3579 H   0  0  0  0  0  0  0  0  0  0  0  0
    6.6276   -0.1232   19.8776 C   0  0  0  0  0  0  0  0  0  0  0  0
    7.3126   -0.8544   20.9129 N   0  0  0  0  0  0  0  0  0  0  0  0
    8.4869   -0.4833   21.5629 C   0  0  0  0  0  0  0  0  0  0  0  0
    9.3353    0.6277   21.0294 C   0  0  0  0  0  0  0  0  0  0  0  0
    8.6958    1.5006   20.8671 H   0  0  0  0  0  0  0  0  0  0  0  0
    9.6590    0.3176   20.0278 H   0  0  0  0  0  0  0  0  0  0  0  0
   10.5541    1.0390   21.8576 C   0  0  0  0  0  0  0  0  0  0  0  0
   11.0220    1.8845   21.3375 H   0  0  0  0  0  0  0  0  0  0  0  0
   10.2396    1.4260   22.8383 H   0  0  0  0  0  0  0  0  0  0  0  0
   11.6019   -0.0587   22.0504 C   0  0  0  0  0  0  0  0  0  0  0  0
   11.8865   -0.4894   21.0837 H   0  0  0  0  0  0  0  0  0  0  0  0
   11.1434   -0.8800   22.6129 H   0  0  0  0  0  0  0  0  0  0  0  0
   12.8677    0.4277   22.7615 C   0  0  0  0  0  0  0  0  0  0  0  0
   13.6349   -0.3541   22.6881 H   0  0  0  0  0  0  0  0  0  0  0  0
   13.2712    1.3040   22.2308 H   0  0  0  0  0  0  0  0  0  0  0  0
   12.6329    0.7682   24.2369 C   0  0  0  0  0  0  0  0  0  0  0  0
   13.5708    0.7773   24.7990 H   0  0  0  0  0  0  0  0  0  0  0  0
   11.9736    0.0225   24.6984 H   0  0  0  0  0  0  0  0  0  0  0  0
   12.1542    1.7449   24.3667 H   0  0  0  0  0  0  0  0  0  0  0  0
    8.7297   -1.2579   22.5764 N   0  0  0  0  0  0  0  0  0  0  0  0
    7.6966   -2.1422   22.5670 N   0  0  0  0  0  0  0  0  0  0  0  0
    7.6297   -2.9241   23.2009 H   0  0  0  0  0  0  0  0  0  0  0  0
    6.8111   -1.9693   21.5714 C   0  0  0  0  0  0  0  0  0  0  0  0
    5.4832   -2.9151   21.2489 S   0  0  0  0  0  0  0  0  0  0  0  0
    5.4276    0.5456   20.1508 C   0  0  0  0  0  0  0  0  0  0  0  0
    4.9899    0.5247   21.1525 H   0  0  0  0  0  0  0  0  0  0  0  0
    4.8333    1.2677   19.1077 C   0  0  0  0  0  0  0  0  0  0  0  0
    3.9186    1.8286   19.2650 H   0  0  0  0  0  0  0  0  0  0  0  0
  1  2  1  0
  2  3  2  0
  3  4  1  0
  4  5  1  0
  4  6  2  0
  6  7  1  0
  7  8  1  0
  8  9  1  0
  9 10  1  0
  9 11  1  0
  9 12  1  0
 12 13  1  0
 12 14  1  0
 12 15  1  0
 15 16  1  0
 15 17  1  0
 15 18  1  0
 18 19  1  0
 18 20  1  0
 18 21  1  0
 21 22  1  0
 21 23  1  0
 21 24  1  0
  8 25  2  0
 25 26  1  0
 26 27  1  0
 26 28  1  0
 28 29  2  0
  6 30  1  0
 30 31  1  0
 30 32  2  0
 32 33  1  0
 32  2  1  0
 28  7  1  0
M  END
>  <cnnaffinity>  (1) 
-5.06658

>  <filename>  (1) 
CCCCCc1n[nH]c(=S)n1-c1cccnc1

$$$$
