
     RDKit          3D

 35 36  0  0  0  0  0  0  0  0999 V2000
    4.9217    1.7943   16.9865 H   0  0  0  0  0  0  0  0  0  0  0  0
    5.4001    1.3005   17.8287 C   0  0  0  0  0  0  0  0  0  0  0  0
    6.5649    0.6871   17.5641 N   0  0  0  0  0  0  0  0  0  0  0  0
    7.1863    0.0802   18.5833 C   0  0  0  0  0  0  0  0  0  0  0  0
    8.1254   -0.4227   18.3474 H   0  0  0  0  0  0  0  0  0  0  0  0
    6.6695    0.0250   19.8942 C   0  0  0  0  0  0  0  0  0  0  0  0
    7.3656   -0.6757   20.9479 N   0  0  0  0  0  0  0  0  0  0  0  0
    8.6679   -0.2776   21.2878 C   0  0  0  0  0  0  0  0  0  0  0  0
    9.0532    0.5685   20.7164 H   0  0  0  0  0  0  0  0  0  0  0  0
    9.3970   -0.8764   22.2648 C   0  0  0  0  0  0  0  0  0  0  0  0
   10.7088   -0.5191   22.5689 N   0  0  0  0  0  0  0  0  0  0  0  0
   11.1479   -1.0360   23.3174 H   0  0  0  0  0  0  0  0  0  0  0  0
   11.3653    0.6894   22.1163 C   0  0  0  0  0  0  0  0  0  0  0  0
   12.4292    0.5900   22.3667 H   0  0  0  0  0  0  0  0  0  0  0  0
   11.3095    0.7405   21.0186 H   0  0  0  0  0  0  0  0  0  0  0  0
   10.7850    1.9793   22.7203 C   0  0  0  0  0  0  0  0  0  0  0  0
   10.9686    1.9881   23.8041 H   0  0  0  0  0  0  0  0  0  0  0  0
    9.6926    1.9613   22.5976 H   0  0  0  0  0  0  0  0  0  0  0  0
   11.3522    3.2564   22.0847 C   0  0  0  0  0  0  0  0  0  0  0  0
   10.7472    4.1199   22.4005 H   0  0  0  0  0  0  0  0  0  0  0  0
   11.2395    3.1665   20.9936 H   0  0  0  0  0  0  0  0  0  0  0  0
   12.8224    3.5031   22.4167 C   0  0  0  0  0  0  0  0  0  0  0  0
   12.9949    3.5246   23.4975 H   0  0  0  0  0  0  0  0  0  0  0  0
   13.4397    2.6940   22.0278 H   0  0  0  0  0  0  0  0  0  0  0  0
   13.1810    4.4451   21.9880 H   0  0  0  0  0  0  0  0  0  0  0  0
    8.7304   -2.0180   23.0117 C   0  0  0  0  0  0  0  0  0  0  0  0
    9.1763   -2.6959   23.9208 O   0  0  0  0  0  0  0  0  0  0  0  0
    7.4641   -2.3176   22.5931 N   0  0  0  0  0  0  0  0  0  0  0  0
    7.0170   -3.0739   23.0682 H   0  0  0  0  0  0  0  0  0  0  0  0
    6.7254   -1.7501   21.6087 C   0  0  0  0  0  0  0  0  0  0  0  0
    5.6336   -2.2024   21.3604 O   0  0  0  0  0  0  0  0  0  0  0  0
    5.4480    0.6540   20.1534 C   0  0  0  0  0  0  0  0  0  0  0  0
    5.0165    0.6086   21.1516 H   0  0  0  0  0  0  0  0  0  0  0  0
    4.8124    1.3154   19.0980 C   0  0  0  0  0  0  0  0  0  0  0  0
    3.8763    1.8389   19.2505 H   0  0  0  0  0  0  0  0  0  0  0  0
  1  2  1  0
  2  3  2  0
  3  4  1  0
  4  5  1  0
  4  6  2  0
  6  7  1  0
  7  8  1  0
  8  9  1  0
  8 10  2  0
 10 11  1  0
 11 12  1  0
 11 13  1  0
 13 14  1  0
 13 15  1  0
 13 16  1  0
 16 17  1  0
 16 18  1  0
 16 19  1  0
 19 20  1  0
 19 21  1  0
 19 22  1  0
 22 23  1  0
 22 24  1  0
 22 25  1  0
 10 26  1  0
 26 27  2  0
 26 28  1  0
 28 29  1  0
 28 30  1  0
 30 31  2  0
  6 32  1  0
 32 33  1  0
 32 34  2  0
 34 35  1  0
 34  2  1  0
 30  7  1  0
M  END
>  <cnnaffinity>  (1) 
-4.8464

>  <filename>  (1) 
CCCCNc1cn(-c2cccnc2)c(=O)[nH]c1=O

$$$$
