
     RDKit          3D

 34 35  0  0  0  0  0  0  0  0999 V2000
    6.6626   -2.4136   23.6623 H   0  0  0  0  0  0  0  0  0  0  0  0
    7.2723   -1.9379   22.9004 C   0  0  0  0  0  0  0  0  0  0  0  0
    6.6162   -1.3110   21.9285 N   0  0  0  0  0  0  0  0  0  0  0  0
    7.3633   -0.7174   20.9932 C   0  0  0  0  0  0  0  0  0  0  0  0
    6.6491    0.0007   19.9233 C   0  0  0  0  0  0  0  0  0  0  0  0
    7.1753    0.0539   18.6280 C   0  0  0  0  0  0  0  0  0  0  0  0
    8.1176   -0.4330   18.3799 H   0  0  0  0  0  0  0  0  0  0  0  0
    6.5748    0.6656   17.6020 N   0  0  0  0  0  0  0  0  0  0  0  0
    5.4104    1.2867   17.8455 C   0  0  0  0  0  0  0  0  0  0  0  0
    4.9234    1.7720   17.0012 H   0  0  0  0  0  0  0  0  0  0  0  0
    4.8081    1.3138   19.1079 C   0  0  0  0  0  0  0  0  0  0  0  0
    3.8736    1.8454   19.2593 H   0  0  0  0  0  0  0  0  0  0  0  0
    5.4296    0.6560   20.1611 C   0  0  0  0  0  0  0  0  0  0  0  0
    4.9935    0.6342   21.1620 H   0  0  0  0  0  0  0  0  0  0  0  0
    8.7502   -0.7544   21.0485 C   0  0  0  0  0  0  0  0  0  0  0  0
    9.3536   -0.2279   20.3246 H   0  0  0  0  0  0  0  0  0  0  0  0
    9.3366   -1.4357   22.1060 C   0  0  0  0  0  0  0  0  0  0  0  0
   10.8303   -1.4849   22.2694 C   0  0  0  0  0  0  0  0  0  0  0  0
   11.3127   -1.3107   21.3005 H   0  0  0  0  0  0  0  0  0  0  0  0
   11.1167   -2.4908   22.5862 H   0  0  0  0  0  0  0  0  0  0  0  0
   11.3499   -0.4449   23.2735 C   0  0  0  0  0  0  0  0  0  0  0  0
   10.8433   -0.6025   24.2354 H   0  0  0  0  0  0  0  0  0  0  0  0
   12.4220   -0.6026   23.4405 H   0  0  0  0  0  0  0  0  0  0  0  0
   11.1700    0.9986   22.8252 C   0  0  0  0  0  0  0  0  0  0  0  0
   11.6475    1.1346   21.8441 H   0  0  0  0  0  0  0  0  0  0  0  0
   10.1063    1.2219   22.6780 H   0  0  0  0  0  0  0  0  0  0  0  0
   11.7606    1.9984   23.8140 C   0  0  0  0  0  0  0  0  0  0  0  0
   11.2890    1.8568   24.7952 H   0  0  0  0  0  0  0  0  0  0  0  0
   12.8296    1.7886   23.9534 H   0  0  0  0  0  0  0  0  0  0  0  0
   11.5779    3.4397   23.3623 C   0  0  0  0  0  0  0  0  0  0  0  0
   12.0042    4.1411   24.0848 H   0  0  0  0  0  0  0  0  0  0  0  0
   10.5148    3.6777   23.2434 H   0  0  0  0  0  0  0  0  0  0  0  0
   12.0638    3.6095   22.3948 H   0  0  0  0  0  0  0  0  0  0  0  0
    8.5917   -2.0356   23.0447 N   0  0  0  0  0  0  0  0  0  0  0  0
  1  2  1  0
  2  3  2  0
  3  4  1  0
  4  5  1  0
  5  6  2  0
  6  7  1  0
  6  8  1  0
  8  9  2  0
  9 10  1  0
  9 11  1  0
 11 12  1  0
 11 13  2  0
 13 14  1  0
  4 15  2  0
 15 16  1  0
 15 17  1  0
 17 18  1  0
 18 19  1  0
 18 20  1  0
 18 21  1  0
 21 22  1  0
 21 23  1  0
 21 24  1  0
 24 25  1  0
 24 26  1  0
 24 27  1  0
 27 28  1  0
 27 29  1  0
 27 30  1  0
 30 31  1  0
 30 32  1  0
 30 33  1  0
 17 34  2  0
 34  2  1  0
 13  5  1  0
M  END
>  <cnnaffinity>  (1) 
-5.29868

>  <filename>  (1) 
CCCCCc1cc(-c2cccnc2)ncn1

$$$$
