
     RDKit          3D

 41 43  0  0  0  0  0  0  0  0999 V2000
    4.9223    1.7720   17.0034 H   0  0  0  0  0  0  0  0  0  0  0  0
    5.4095    1.2858   17.8465 C   0  0  0  0  0  0  0  0  0  0  0  0
    6.5744    0.6688   17.5960 N   0  0  0  0  0  0  0  0  0  0  0  0
    7.1811    0.0532   18.6167 C   0  0  0  0  0  0  0  0  0  0  0  0
    8.1268   -0.4333   18.3842 H   0  0  0  0  0  0  0  0  0  0  0  0
    6.6465    0.0141   19.9138 C   0  0  0  0  0  0  0  0  0  0  0  0
    7.3582   -0.6917   20.9767 C   0  0  0  0  0  0  0  0  0  0  0  0
    8.5397   -1.3359   20.7569 N   0  0  0  0  0  0  0  0  0  0  0  0
    8.8028   -1.8161   21.9578 C   0  0  0  0  0  0  0  0  0  0  0  0
   10.0300   -2.7756   22.7362 S   0  0  0  0  0  0  0  0  0  0  0  0
    9.1417   -2.6615   24.2393 C   0  0  0  0  0  0  0  0  0  0  0  0
    9.5230   -3.1640   25.1195 H   0  0  0  0  0  0  0  0  0  0  0  0
    8.0104   -1.9378   24.1458 C   0  0  0  0  0  0  0  0  0  0  0  0
    6.9812   -1.6845   25.2047 C   0  0  0  0  0  0  0  0  0  0  0  0
    6.7195   -0.6214   25.2096 H   0  0  0  0  0  0  0  0  0  0  0  0
    7.4401   -1.8981   26.1788 H   0  0  0  0  0  0  0  0  0  0  0  0
    5.7143   -2.5370   25.0232 C   0  0  0  0  0  0  0  0  0  0  0  0
    4.9888   -2.2715   25.8031 H   0  0  0  0  0  0  0  0  0  0  0  0
    5.2673   -2.2616   24.0743 H   0  0  0  0  0  0  0  0  0  0  0  0
    5.9435   -4.0509   24.9957 C   0  0  0  0  0  0  0  0  0  0  0  0
    4.9783   -4.5430   24.8127 H   0  0  0  0  0  0  0  0  0  0  0  0
    6.5687   -4.3050   24.1279 H   0  0  0  0  0  0  0  0  0  0  0  0
    6.5607   -4.6448   26.2615 C   0  0  0  0  0  0  0  0  0  0  0  0
    7.5579   -4.2163   26.4296 H   0  0  0  0  0  0  0  0  0  0  0  0
    6.7339   -5.7135   26.0908 H   0  0  0  0  0  0  0  0  0  0  0  0
    5.7148   -4.4485   27.5196 C   0  0  0  0  0  0  0  0  0  0  0  0
    5.5930   -3.3771   27.7210 H   0  0  0  0  0  0  0  0  0  0  0  0
    4.7018   -4.8332   27.3345 H   0  0  0  0  0  0  0  0  0  0  0  0
    6.2877   -5.1231   28.7654 C   0  0  0  0  0  0  0  0  0  0  0  0
    7.3394   -4.8327   28.8782 H   0  0  0  0  0  0  0  0  0  0  0  0
    5.7701   -4.7403   29.6523 H   0  0  0  0  0  0  0  0  0  0  0  0
    6.1782   -6.6447   28.7476 C   0  0  0  0  0  0  0  0  0  0  0  0
    6.5079   -7.0747   29.6973 H   0  0  0  0  0  0  0  0  0  0  0  0
    5.1417   -6.9563   28.5797 H   0  0  0  0  0  0  0  0  0  0  0  0
    6.7859   -7.0870   27.9528 H   0  0  0  0  0  0  0  0  0  0  0  0
    7.8433   -1.4819   22.8371 N   0  0  0  0  0  0  0  0  0  0  0  0
    6.8871   -0.7492   22.2179 N   0  0  0  0  0  0  0  0  0  0  0  0
    5.4263    0.6590   20.1650 C   0  0  0  0  0  0  0  0  0  0  0  0
    4.9964    0.6366   21.1706 H   0  0  0  0  0  0  0  0  0  0  0  0
    4.8034    1.3112   19.1083 C   0  0  0  0  0  0  0  0  0  0  0  0
    3.8731    1.8442   19.2598 H   0  0  0  0  0  0  0  0  0  0  0  0
  1  2  1  0
  2  3  2  0
  3  4  1  0
  4  5  1  0
  4  6  2  0
  6  7  1  0
  7  8  1  0
  8  9  2  0
  9 10  1  0
 10 11  1  0
 11 12  1  0
 11 13  2  0
 13 14  1  0
 14 15  1  0
 14 16  1  0
 14 17  1  0
 17 18  1  0
 17 19  1  0
 17 20  1  0
 20 21  1  0
 20 22  1  0
 20 23  1  0
 23 24  1  0
 23 25  1  0
 23 26  1  0
 26 27  1  0
 26 28  1  0
 26 29  1  0
 29 30  1  0
 29 31  1  0
 29 32  1  0
 32 33  1  0
 32 34  1  0
 32 35  1  0
 13 36  1  0
 36 37  1  0
  6 38  1  0
 38 39  1  0
 38 40  2  0
 40 41  1  0
 40  2  1  0
 37  7  2  0
 36  9  1  0
M  END
>  <cnnaffinity>  (1) 
-5.75122

>  <filename>  (1) 
CCCCCCCc1csc2nc(-c3cccnc3)nn12

$$$$
