
     RDKit          3D

 39 40  0  0  0  0  0  0  0  0999 V2000
    9.3551   -2.6075   23.5262 H   0  0  0  0  0  0  0  0  0  0  0  0
    8.7678   -2.0521   22.8050 C   0  0  0  0  0  0  0  0  0  0  0  0
    9.2623   -1.9794   21.5710 N   0  0  0  0  0  0  0  0  0  0  0  0
    8.5618   -1.3133   20.6458 N   0  0  0  0  0  0  0  0  0  0  0  0
    7.3888   -0.7322   20.9728 C   0  0  0  0  0  0  0  0  0  0  0  0
    6.6431   -0.0153   19.9199 C   0  0  0  0  0  0  0  0  0  0  0  0
    7.1870    0.0090   18.6268 C   0  0  0  0  0  0  0  0  0  0  0  0
    8.1218   -0.5094   18.4276 H   0  0  0  0  0  0  0  0  0  0  0  0
    6.6265    0.6355   17.5939 N   0  0  0  0  0  0  0  0  0  0  0  0
    5.4716    1.2777   17.8197 C   0  0  0  0  0  0  0  0  0  0  0  0
    5.0365    1.7847   16.9639 H   0  0  0  0  0  0  0  0  0  0  0  0
    4.8332    1.3063   19.0664 C   0  0  0  0  0  0  0  0  0  0  0  0
    3.8985    1.8507   19.1704 H   0  0  0  0  0  0  0  0  0  0  0  0
    5.4227    0.6539   20.1449 C   0  0  0  0  0  0  0  0  0  0  0  0
    4.9591    0.6648   21.1373 H   0  0  0  0  0  0  0  0  0  0  0  0
    6.8516   -0.7673   22.2057 N   0  0  0  0  0  0  0  0  0  0  0  0
    7.5274   -1.4384   23.1331 C   0  0  0  0  0  0  0  0  0  0  0  0
    6.9375   -1.4579   24.5161 C   0  0  0  0  0  0  0  0  0  0  0  0
    7.1480   -2.4088   25.0189 H   0  0  0  0  0  0  0  0  0  0  0  0
    5.8519   -1.3913   24.3939 H   0  0  0  0  0  0  0  0  0  0  0  0
    7.3960   -0.2863   25.3968 C   0  0  0  0  0  0  0  0  0  0  0  0
    8.4902   -0.2781   25.5036 H   0  0  0  0  0  0  0  0  0  0  0  0
    7.1379    0.6514   24.8859 H   0  0  0  0  0  0  0  0  0  0  0  0
    6.7669   -0.3162   26.7919 C   0  0  0  0  0  0  0  0  0  0  0  0
    5.6728   -0.4080   26.7081 H   0  0  0  0  0  0  0  0  0  0  0  0
    7.1076   -1.2211   27.3160 H   0  0  0  0  0  0  0  0  0  0  0  0
    7.1331    0.9028   27.6451 C   0  0  0  0  0  0  0  0  0  0  0  0
    6.8421    0.7094   28.6870 H   0  0  0  0  0  0  0  0  0  0  0  0
    8.2296    1.0003   27.6454 H   0  0  0  0  0  0  0  0  0  0  0  0
    6.5113    2.2321   27.1873 C   0  0  0  0  0  0  0  0  0  0  0  0
    6.6795    2.3829   26.1111 H   0  0  0  0  0  0  0  0  0  0  0  0
    5.4218    2.1892   27.3160 H   0  0  0  0  0  0  0  0  0  0  0  0
    7.0588    3.4601   27.9234 C   0  0  0  0  0  0  0  0  0  0  0  0
    8.1282    3.5445   27.7038 H   0  0  0  0  0  0  0  0  0  0  0  0
    6.6046    4.3636   27.4941 H   0  0  0  0  0  0  0  0  0  0  0  0
    6.8498    3.4523   29.4390 C   0  0  0  0  0  0  0  0  0  0  0  0
    5.7883    3.5204   29.7105 H   0  0  0  0  0  0  0  0  0  0  0  0
    7.3673    4.3012   29.8984 H   0  0  0  0  0  0  0  0  0  0  0  0
    7.2451    2.5324   29.8871 H   0  0  0  0  0  0  0  0  0  0  0  0
  1  2  1  0
  2  3  2  0
  3  4  1  0
  4  5  2  0
  5  6  1  0
  6  7  2  0
  7  8  1  0
  7  9  1  0
  9 10  2  0
 10 11  1  0
 10 12  1  0
 12 13  1  0
 12 14  2  0
 14 15  1  0
  5 16  1  0
 16 17  2  0
 17 18  1  0
 18 19  1  0
 18 20  1  0
 18 21  1  0
 21 22  1  0
 21 23  1  0
 21 24  1  0
 24 25  1  0
 24 26  1  0
 24 27  1  0
 27 28  1  0
 27 29  1  0
 27 30  1  0
 30 31  1  0
 30 32  1  0
 30 33  1  0
 33 34  1  0
 33 35  1  0
 33 36  1  0
 36 37  1  0
 36 38  1  0
 36 39  1  0
 17  2  1  0
 14  6  1  0
M  END
>  <cnnaffinity>  (1) 
-5.28988

>  <filename>  (1) 
CCCCCCCc1cnnc(-c2cccnc2)n1

$$$$
