
     RDKit          3D

 39 40  0  0  0  0  0  0  0  0999 V2000
    4.9104    1.7817   16.9980 H   0  0  0  0  0  0  0  0  0  0  0  0
    5.4013    1.2945   17.8406 C   0  0  0  0  0  0  0  0  0  0  0  0
    6.5636    0.6773   17.5798 N   0  0  0  0  0  0  0  0  0  0  0  0
    7.1820    0.0646   18.5968 C   0  0  0  0  0  0  0  0  0  0  0  0
    8.1212   -0.4380   18.3783 H   0  0  0  0  0  0  0  0  0  0  0  0
    6.6795    0.0217   19.9101 C   0  0  0  0  0  0  0  0  0  0  0  0
    7.3807   -0.6572   20.9681 N   0  0  0  0  0  0  0  0  0  0  0  0
    8.6354   -0.3596   21.4924 C   0  0  0  0  0  0  0  0  0  0  0  0
    9.4649    0.7882   21.0263 C   0  0  0  0  0  0  0  0  0  0  0  0
    9.6490    0.6826   19.9540 H   0  0  0  0  0  0  0  0  0  0  0  0
   10.4283    0.7117   21.5389 H   0  0  0  0  0  0  0  0  0  0  0  0
    8.8197    2.1510   21.3028 C   0  0  0  0  0  0  0  0  0  0  0  0
    9.5074    2.9255   20.9575 H   0  0  0  0  0  0  0  0  0  0  0  0
    7.9066    2.2562   20.7043 H   0  0  0  0  0  0  0  0  0  0  0  0
    8.5192    2.3801   22.7830 C   0  0  0  0  0  0  0  0  0  0  0  0
    9.4483    2.2645   23.3582 H   0  0  0  0  0  0  0  0  0  0  0  0
    7.8388    1.5961   23.1476 H   0  0  0  0  0  0  0  0  0  0  0  0
    7.9059    3.7488   23.0727 C   0  0  0  0  0  0  0  0  0  0  0  0
    7.9200    3.9217   24.1566 H   0  0  0  0  0  0  0  0  0  0  0  0
    8.5412    4.5315   22.6322 H   0  0  0  0  0  0  0  0  0  0  0  0
    6.4663    3.8927   22.5698 C   0  0  0  0  0  0  0  0  0  0  0  0
    6.4468    3.8667   21.4703 H   0  0  0  0  0  0  0  0  0  0  0  0
    5.8861    3.0207   22.9001 H   0  0  0  0  0  0  0  0  0  0  0  0
    5.7692    5.1660   23.0509 C   0  0  0  0  0  0  0  0  0  0  0  0
    4.7024    5.1072   22.8043 H   0  0  0  0  0  0  0  0  0  0  0  0
    5.8261    5.2167   24.1465 H   0  0  0  0  0  0  0  0  0  0  0  0
    6.3534    6.4418   22.4503 C   0  0  0  0  0  0  0  0  0  0  0  0
    5.7709    7.3194   22.7453 H   0  0  0  0  0  0  0  0  0  0  0  0
    7.3886    6.6023   22.7707 H   0  0  0  0  0  0  0  0  0  0  0  0
    6.3512    6.3883   21.3552 H   0  0  0  0  0  0  0  0  0  0  0  0
    8.9520   -1.1549   22.4631 N   0  0  0  0  0  0  0  0  0  0  0  0
    7.8621   -1.9685   22.5717 N   0  0  0  0  0  0  0  0  0  0  0  0
    7.7951   -2.7007   23.2530 H   0  0  0  0  0  0  0  0  0  0  0  0
    6.8776   -1.7254   21.6894 C   0  0  0  0  0  0  0  0  0  0  0  0
    5.4596   -2.5804   21.5039 S   0  0  0  0  0  0  0  0  0  0  0  0
    5.4536    0.6429   20.1662 C   0  0  0  0  0  0  0  0  0  0  0  0
    5.0194    0.6099   21.1698 H   0  0  0  0  0  0  0  0  0  0  0  0
    4.8139    1.3068   19.1112 C   0  0  0  0  0  0  0  0  0  0  0  0
    3.8793    1.8381   19.2639 H   0  0  0  0  0  0  0  0  0  0  0  0
  1  2  1  0
  2  3  2  0
  3  4  1  0
  4  5  1  0
  4  6  2  0
  6  7  1  0
  7  8  1  0
  8  9  1  0
  9 10  1  0
  9 11  1  0
  9 12  1  0
 12 13  1  0
 12 14  1  0
 12 15  1  0
 15 16  1  0
 15 17  1  0
 15 18  1  0
 18 19  1  0
 18 20  1  0
 18 21  1  0
 21 22  1  0
 21 23  1  0
 21 24  1  0
 24 25  1  0
 24 26  1  0
 24 27  1  0
 27 28  1  0
 27 29  1  0
 27 30  1  0
  8 31  2  0
 31 32  1  0
 32 33  1  0
 32 34  1  0
 34 35  2  0
  6 36  1  0
 36 37  1  0
 36 38  2  0
 38 39  1  0
 38  2  1  0
 34  7  1  0
M  END
>  <cnnaffinity>  (1) 
-5.46437

>  <filename>  (1) 
CCCCCCCc1n[nH]c(=S)n1-c1cccnc1

$$$$
