
     RDKit          3D

 47 49  0  0  0  0  0  0  0  0999 V2000
    4.9848    1.7894   16.9393 H   0  0  0  0  0  0  0  0  0  0  0  0
    5.4223    1.3077   17.8118 C   0  0  0  0  0  0  0  0  0  0  0  0
    6.5717    0.6480   17.6004 N   0  0  0  0  0  0  0  0  0  0  0  0
    7.1369    0.0541   18.6604 C   0  0  0  0  0  0  0  0  0  0  0  0
    8.0645   -0.4883   18.4721 H   0  0  0  0  0  0  0  0  0  0  0  0
    6.6119    0.0836   19.9660 C   0  0  0  0  0  0  0  0  0  0  0  0
    7.3215   -0.5991   21.1126 C   0  0  0  0  0  0  0  0  0  0  0  0
    8.3521    0.2126   21.8589 C   0  0  0  0  0  0  0  0  0  0  0  0
    8.1010    0.7964   22.9958 N   0  0  0  0  0  0  0  0  0  0  0  0
    9.1814    1.4369   23.5254 N   0  0  0  0  0  0  0  0  0  0  0  0
   10.2413    1.3394   22.7822 C   0  0  0  0  0  0  0  0  0  0  0  0
   11.5393    2.0105   23.1153 C   0  0  0  0  0  0  0  0  0  0  0  0
   12.3598    1.3493   22.8179 H   0  0  0  0  0  0  0  0  0  0  0  0
   11.5780    2.1154   24.2068 H   0  0  0  0  0  0  0  0  0  0  0  0
   11.7138    3.3816   22.4289 C   0  0  0  0  0  0  0  0  0  0  0  0
   11.7792    3.2129   21.3451 H   0  0  0  0  0  0  0  0  0  0  0  0
   12.6899    3.7934   22.7126 H   0  0  0  0  0  0  0  0  0  0  0  0
   10.6051    4.4126   22.6994 C   0  0  0  0  0  0  0  0  0  0  0  0
    9.6479    4.0047   22.3435 H   0  0  0  0  0  0  0  0  0  0  0  0
   10.8270    5.2999   22.0904 H   0  0  0  0  0  0  0  0  0  0  0  0
   10.4082    4.9054   24.1362 C   0  0  0  0  0  0  0  0  0  0  0  0
    9.4795    5.4975   24.1363 H   0  0  0  0  0  0  0  0  0  0  0  0
   10.2178    4.0471   24.7991 H   0  0  0  0  0  0  0  0  0  0  0  0
   11.5714    5.7699   24.6365 C   0  0  0  0  0  0  0  0  0  0  0  0
   11.8399    6.4801   23.8372 H   0  0  0  0  0  0  0  0  0  0  0  0
   12.4589    5.1346   24.7899 H   0  0  0  0  0  0  0  0  0  0  0  0
   11.2974    6.5683   25.9163 C   0  0  0  0  0  0  0  0  0  0  0  0
   10.8985    5.9075   26.6979 H   0  0  0  0  0  0  0  0  0  0  0  0
   10.5042    7.3079   25.7281 H   0  0  0  0  0  0  0  0  0  0  0  0
   12.5469    7.2959   26.4306 C   0  0  0  0  0  0  0  0  0  0  0  0
   12.3512    7.7097   27.4270 H   0  0  0  0  0  0  0  0  0  0  0  0
   13.3516    6.5605   26.5676 H   0  0  0  0  0  0  0  0  0  0  0  0
   13.0214    8.4145   25.5002 C   0  0  0  0  0  0  0  0  0  0  0  0
   12.2360    9.1635   25.3504 H   0  0  0  0  0  0  0  0  0  0  0  0
   13.8900    8.9362   25.9060 H   0  0  0  0  0  0  0  0  0  0  0  0
   13.3015    8.0331   24.5126 H   0  0  0  0  0  0  0  0  0  0  0  0
    9.9897    0.4220   21.3288 S   0  0  0  0  0  0  0  0  0  0  0  0
    6.5613   -1.5806   21.9824 C   0  0  0  0  0  0  0  0  0  0  0  0
    6.8449   -1.6008   23.0334 H   0  0  0  0  0  0  0  0  0  0  0  0
    5.5025   -1.7070   21.7915 H   0  0  0  0  0  0  0  0  0  0  0  0
    7.5203   -2.0997   20.9658 C   0  0  0  0  0  0  0  0  0  0  0  0
    7.0589   -2.5480   20.0894 H   0  0  0  0  0  0  0  0  0  0  0  0
    8.4648   -2.5407   21.2675 H   0  0  0  0  0  0  0  0  0  0  0  0
    5.4094    0.7723   20.1567 C   0  0  0  0  0  0  0  0  0  0  0  0
    4.9701    0.7989   21.1556 H   0  0  0  0  0  0  0  0  0  0  0  0
    4.7972    1.3896   19.0622 C   0  0  0  0  0  0  0  0  0  0  0  0
    3.8592    1.9255   19.1608 H   0  0  0  0  0  0  0  0  0  0  0  0
  1  2  1  0
  2  3  2  0
  3  4  1  0
  4  5  1  0
  4  6  2  0
  6  7  1  0
  7  8  1  0
  8  9  2  0
  9 10  1  0
 10 11  2  0
 11 12  1  0
 12 13  1  0
 12 14  1  0
 12 15  1  0
 15 16  1  0
 15 17  1  0
 15 18  1  0
 18 19  1  0
 18 20  1  0
 18 21  1  0
 21 22  1  0
 21 23  1  0
 21 24  1  0
 24 25  1  0
 24 26  1  0
 24 27  1  0
 27 28  1  0
 27 29  1  0
 27 30  1  0
 30 31  1  0
 30 32  1  0
 30 33  1  0
 33 34  1  0
 33 35  1  0
 33 36  1  0
 11 37  1  0
  7 38  1  0
 38 39  1  0
 38 40  1  0
 38 41  1  0
 41 42  1  0
 41 43  1  0
  6 44  1  0
 44 45  1  0
 44 46  2  0
 46 47  1  0
 46  2  1  0
 41  7  1  0
 37  8  1  0
M  END
>  <cnnaffinity>  (1) 
-5.44905

>  <filename>  (1) 
CCCCCCCCc1nnc(C2(c3cccnc3)CC2)s1

$$$$
