
     RDKit          3D

 37 38  0  0  0  0  0  0  0  0999 V2000
    4.9113    1.7705   17.0066 H   0  0  0  0  0  0  0  0  0  0  0  0
    5.4062    1.2875   17.8483 C   0  0  0  0  0  0  0  0  0  0  0  0
    6.5736    0.6736   17.5964 N   0  0  0  0  0  0  0  0  0  0  0  0
    7.1855    0.0537   18.6146 C   0  0  0  0  0  0  0  0  0  0  0  0
    8.1299   -0.4348   18.3812 H   0  0  0  0  0  0  0  0  0  0  0  0
    6.6629    0.0042   19.9162 C   0  0  0  0  0  0  0  0  0  0  0  0
    7.3928   -0.7075   20.9809 C   0  0  0  0  0  0  0  0  0  0  0  0
    8.5463   -1.2808   20.7587 N   0  0  0  0  0  0  0  0  0  0  0  0
    9.0523   -1.9650   22.1872 S   0  0  0  0  0  0  0  0  0  0  0  0
    7.6267   -1.4338   23.0316 C   0  0  0  0  0  0  0  0  0  0  0  0
    7.4203   -1.6451   24.5132 C   0  0  0  0  0  0  0  0  0  0  0  0
    6.3412   -1.6008   24.7218 H   0  0  0  0  0  0  0  0  0  0  0  0
    7.7518   -2.6507   24.8037 H   0  0  0  0  0  0  0  0  0  0  0  0
    8.1723   -0.6024   25.3722 C   0  0  0  0  0  0  0  0  0  0  0  0
    8.0074   -0.8294   26.4364 H   0  0  0  0  0  0  0  0  0  0  0  0
    9.2498   -0.7265   25.2035 H   0  0  0  0  0  0  0  0  0  0  0  0
    7.7872    0.8564   25.0787 C   0  0  0  0  0  0  0  0  0  0  0  0
    8.0727    1.1032   24.0475 H   0  0  0  0  0  0  0  0  0  0  0  0
    8.3917    1.5129   25.7198 H   0  0  0  0  0  0  0  0  0  0  0  0
    6.2978    1.1900   25.2622 C   0  0  0  0  0  0  0  0  0  0  0  0
    5.7045    0.6578   24.5063 H   0  0  0  0  0  0  0  0  0  0  0  0
    6.1528    2.2605   25.0549 H   0  0  0  0  0  0  0  0  0  0  0  0
    5.7299    0.8934   26.6536 C   0  0  0  0  0  0  0  0  0  0  0  0
    4.6563    1.1292   26.6522 H   0  0  0  0  0  0  0  0  0  0  0  0
    5.7959   -0.1841   26.8713 H   0  0  0  0  0  0  0  0  0  0  0  0
    6.4036    1.6799   27.7802 C   0  0  0  0  0  0  0  0  0  0  0  0
    6.3960    2.7502   27.5288 H   0  0  0  0  0  0  0  0  0  0  0  0
    7.4587    1.3863   27.8679 H   0  0  0  0  0  0  0  0  0  0  0  0
    5.7205    1.4733   29.1228 C   0  0  0  0  0  0  0  0  0  0  0  0
    6.2245    2.0421   29.9089 H   0  0  0  0  0  0  0  0  0  0  0  0
    5.7357    0.4137   29.4014 H   0  0  0  0  0  0  0  0  0  0  0  0
    4.6755    1.7995   29.0777 H   0  0  0  0  0  0  0  0  0  0  0  0
    6.8386   -0.7678   22.2436 N   0  0  0  0  0  0  0  0  0  0  0  0
    5.4419    0.6520   20.1628 C   0  0  0  0  0  0  0  0  0  0  0  0
    5.0071    0.6290   21.1608 H   0  0  0  0  0  0  0  0  0  0  0  0
    4.8070    1.3094   19.1133 C   0  0  0  0  0  0  0  0  0  0  0  0
    3.8720    1.8450   19.2666 H   0  0  0  0  0  0  0  0  0  0  0  0
  1  2  1  0
  2  3  2  0
  3  4  1  0
  4  5  1  0
  4  6  2  0
  6  7  1  0
  7  8  2  0
  8  9  1  0
  9 10  1  0
 10 11  1  0
 11 12  1  0
 11 13  1  0
 11 14  1  0
 14 15  1  0
 14 16  1  0
 14 17  1  0
 17 18  1  0
 17 19  1  0
 17 20  1  0
 20 21  1  0
 20 22  1  0
 20 23  1  0
 23 24  1  0
 23 25  1  0
 23 26  1  0
 26 27  1  0
 26 28  1  0
 26 29  1  0
 29 30  1  0
 29 31  1  0
 29 32  1  0
 10 33  2  0
  6 34  1  0
 34 35  1  0
 34 36  2  0
 36 37  1  0
 36  2  1  0
 33  7  1  0
M  END
>  <cnnaffinity>  (1) 
-5.19549

>  <filename>  (1) 
CCCCCCCc1nc(-c2cccnc2)ns1

$$$$
