
     RDKit          3D

 41 42  0  0  0  0  0  0  0  0999 V2000
    4.9068    1.7818   16.9957 H   0  0  0  0  0  0  0  0  0  0  0  0
    5.3984    1.2976   17.8360 C   0  0  0  0  0  0  0  0  0  0  0  0
    6.5625    0.6832   17.5658 N   0  0  0  0  0  0  0  0  0  0  0  0
    7.1777    0.0686   18.5832 C   0  0  0  0  0  0  0  0  0  0  0  0
    8.1203   -0.4334   18.3723 H   0  0  0  0  0  0  0  0  0  0  0  0
    6.6650    0.0152   19.8949 C   0  0  0  0  0  0  0  0  0  0  0  0
    7.3526   -0.6640   20.9514 N   0  0  0  0  0  0  0  0  0  0  0  0
    6.8300   -1.6141   21.7918 C   0  0  0  0  0  0  0  0  0  0  0  0
    5.8241   -1.9998   21.6818 H   0  0  0  0  0  0  0  0  0  0  0  0
    7.7072   -1.9896   22.6799 N   0  0  0  0  0  0  0  0  0  0  0  0
    8.8434   -1.2506   22.4606 N   0  0  0  0  0  0  0  0  0  0  0  0
    8.6246   -0.4587   21.4419 C   0  0  0  0  0  0  0  0  0  0  0  0
    9.5507    0.5984   20.9377 C   0  0  0  0  0  0  0  0  0  0  0  0
   10.5277    0.4012   21.3889 H   0  0  0  0  0  0  0  0  0  0  0  0
    9.6596    0.4972   19.8547 H   0  0  0  0  0  0  0  0  0  0  0  0
    9.1000    2.0288   21.2743 C   0  0  0  0  0  0  0  0  0  0  0  0
    9.8461    2.7139   20.8675 H   0  0  0  0  0  0  0  0  0  0  0  0
    8.1592    2.2453   20.7507 H   0  0  0  0  0  0  0  0  0  0  0  0
    8.9423    2.2820   22.7797 C   0  0  0  0  0  0  0  0  0  0  0  0
    9.2815    3.2974   23.0156 H   0  0  0  0  0  0  0  0  0  0  0  0
    9.6145    1.6141   23.3379 H   0  0  0  0  0  0  0  0  0  0  0  0
    7.5061    2.1305   23.2864 C   0  0  0  0  0  0  0  0  0  0  0  0
    6.8920    2.8958   22.7962 H   0  0  0  0  0  0  0  0  0  0  0  0
    7.0812    1.1671   22.9665 H   0  0  0  0  0  0  0  0  0  0  0  0
    7.3676    2.2656   24.8009 C   0  0  0  0  0  0  0  0  0  0  0  0
    6.3273    2.5149   25.0437 H   0  0  0  0  0  0  0  0  0  0  0  0
    7.9690    3.1171   25.1510 H   0  0  0  0  0  0  0  0  0  0  0  0
    7.7848    1.0070   25.5645 C   0  0  0  0  0  0  0  0  0  0  0  0
    8.8052    0.7188   25.2797 H   0  0  0  0  0  0  0  0  0  0  0  0
    7.1441    0.1721   25.2455 H   0  0  0  0  0  0  0  0  0  0  0  0
    7.7046    1.1472   27.0839 C   0  0  0  0  0  0  0  0  0  0  0  0
    8.2023    0.2904   27.5501 H   0  0  0  0  0  0  0  0  0  0  0  0
    8.2728    2.0330   27.3920 H   0  0  0  0  0  0  0  0  0  0  0  0
    6.2799    1.2467   27.6161 C   0  0  0  0  0  0  0  0  0  0  0  0
    5.6781    0.4003   27.2697 H   0  0  0  0  0  0  0  0  0  0  0  0
    6.2676    1.2400   28.7085 H   0  0  0  0  0  0  0  0  0  0  0  0
    5.7824    2.1622   27.2829 H   0  0  0  0  0  0  0  0  0  0  0  0
    5.4452    0.6470   20.1589 C   0  0  0  0  0  0  0  0  0  0  0  0
    5.0195    0.6225   21.1684 H   0  0  0  0  0  0  0  0  0  0  0  0
    4.8073    1.3111   19.1075 C   0  0  0  0  0  0  0  0  0  0  0  0
    3.8728    1.8438   19.2638 H   0  0  0  0  0  0  0  0  0  0  0  0
  1  2  1  0
  2  3  2  0
  3  4  1  0
  4  5  1  0
  4  6  2  0
  6  7  1  0
  7  8  1  0
  8  9  1  0
  8 10  2  0
 10 11  1  0
 11 12  2  0
 12 13  1  0
 13 14  1  0
 13 15  1  0
 13 16  1  0
 16 17  1  0
 16 18  1  0
 16 19  1  0
 19 20  1  0
 19 21  1  0
 19 22  1  0
 22 23  1  0
 22 24  1  0
 22 25  1  0
 25 26  1  0
 25 27  1  0
 25 28  1  0
 28 29  1  0
 28 30  1  0
 28 31  1  0
 31 32  1  0
 31 33  1  0
 31 34  1  0
 34 35  1  0
 34 36  1  0
 34 37  1  0
  6 38  1  0
 38 39  1  0
 38 40  2  0
 40 41  1  0
 40  2  1  0
 12  7  1  0
M  END
>  <cnnaffinity>  (1) 
-5.06194

>  <filename>  (1) 
CCCCCCCCc1nncn1-c1cccnc1

$$$$
