
     RDKit          3D

 33 34  0  0  0  0  0  0  0  0999 V2000
    4.9106    1.7860   16.9893 H   0  0  0  0  0  0  0  0  0  0  0  0
    5.3967    1.2981   17.8304 C   0  0  0  0  0  0  0  0  0  0  0  0
    6.5602    0.6831   17.5666 N   0  0  0  0  0  0  0  0  0  0  0  0
    7.1845    0.0804   18.5836 C   0  0  0  0  0  0  0  0  0  0  0  0
    8.1201   -0.4302   18.3649 H   0  0  0  0  0  0  0  0  0  0  0  0
    6.6710    0.0362   19.8915 C   0  0  0  0  0  0  0  0  0  0  0  0
    7.3559   -0.6646   20.9408 N   0  0  0  0  0  0  0  0  0  0  0  0
    8.6399   -0.2770   21.2707 C   0  0  0  0  0  0  0  0  0  0  0  0
    9.0286    0.5710   20.7034 H   0  0  0  0  0  0  0  0  0  0  0  0
    9.3583   -0.8932   22.2518 C   0  0  0  0  0  0  0  0  0  0  0  0
   10.7264   -0.3971   22.6452 C   0  0  0  0  0  0  0  0  0  0  0  0
   11.2673   -0.0396   21.7554 H   0  0  0  0  0  0  0  0  0  0  0  0
   11.3066   -1.2383   23.0420 H   0  0  0  0  0  0  0  0  0  0  0  0
   10.6453    0.7107   23.7031 C   0  0  0  0  0  0  0  0  0  0  0  0
   10.0924    1.5625   23.2852 H   0  0  0  0  0  0  0  0  0  0  0  0
   10.0410    0.3512   24.5452 H   0  0  0  0  0  0  0  0  0  0  0  0
   12.0086    1.1823   24.2041 C   0  0  0  0  0  0  0  0  0  0  0  0
   12.5847    0.3130   24.5505 H   0  0  0  0  0  0  0  0  0  0  0  0
   11.8620    1.8232   25.0811 H   0  0  0  0  0  0  0  0  0  0  0  0
   12.8104    1.9413   23.1477 C   0  0  0  0  0  0  0  0  0  0  0  0
   13.0838    1.3003   22.3012 H   0  0  0  0  0  0  0  0  0  0  0  0
   13.7344    2.3470   23.5699 H   0  0  0  0  0  0  0  0  0  0  0  0
   12.2291    2.7806   22.7462 H   0  0  0  0  0  0  0  0  0  0  0  0
    8.7359   -1.9655   22.9721 C   0  0  0  0  0  0  0  0  0  0  0  0
    9.2882   -2.4467   23.7848 H   0  0  0  0  0  0  0  0  0  0  0  0
    7.4786   -2.3720   22.6622 C   0  0  0  0  0  0  0  0  0  0  0  0
    6.9665   -3.1850   23.1590 H   0  0  0  0  0  0  0  0  0  0  0  0
    6.6971   -1.7562   21.6058 C   0  0  0  0  0  0  0  0  0  0  0  0
    5.5874   -2.1435   21.2804 O   0  0  0  0  0  0  0  0  0  0  0  0
    5.4477    0.6590   20.1556 C   0  0  0  0  0  0  0  0  0  0  0  0
    5.0221    0.6092   21.1604 H   0  0  0  0  0  0  0  0  0  0  0  0
    4.8102    1.3159   19.1008 C   0  0  0  0  0  0  0  0  0  0  0  0
    3.8755    1.8416   19.2571 H   0  0  0  0  0  0  0  0  0  0  0  0
  1  2  1  0
  2  3  2  0
  3  4  1  0
  4  5  1  0
  4  6  2  0
  6  7  1  0
  7  8  1  0
  8  9  1  0
  8 10  2  0
 10 11  1  0
 11 12  1  0
 11 13  1  0
 11 14  1  0
 14 15  1  0
 14 16  1  0
 14 17  1  0
 17 18  1  0
 17 19  1  0
 17 20  1  0
 20 21  1  0
 20 22  1  0
 20 23  1  0
 10 24  1  0
 24 25  1  0
 24 26  2  0
 26 27  1  0
 26 28  1  0
 28 29  2  0
  6 30  1  0
 30 31  1  0
 30 32  2  0
 32 33  1  0
 32  2  1  0
 28  7  1  0
M  END
>  <cnnaffinity>  (1) 
-5.11412

>  <filename>  (1) 
CCCCc1ccc(=O)n(-c2cccnc2)c1

$$$$
