
     RDKit          3D

 44 45  0  0  0  0  0  0  0  0999 V2000
    4.9133    1.7867   16.9941 H   0  0  0  0  0  0  0  0  0  0  0  0
    5.3948    1.2972   17.8372 C   0  0  0  0  0  0  0  0  0  0  0  0
    6.5588    0.6811   17.5713 N   0  0  0  0  0  0  0  0  0  0  0  0
    7.1716    0.0599   18.5898 C   0  0  0  0  0  0  0  0  0  0  0  0
    8.1209   -0.4284   18.3748 H   0  0  0  0  0  0  0  0  0  0  0  0
    6.6626   -0.0110   19.9107 C   0  0  0  0  0  0  0  0  0  0  0  0
    7.3289   -0.7079   20.9270 N   0  0  0  0  0  0  0  0  0  0  0  0
    6.7650   -1.1393   21.6471 H   0  0  0  0  0  0  0  0  0  0  0  0
    8.7049   -0.6357   21.1814 C   0  0  0  0  0  0  0  0  0  0  0  0
    9.6603    0.2789   20.6886 C   0  0  0  0  0  0  0  0  0  0  0  0
    9.4729    1.0654   19.9795 H   0  0  0  0  0  0  0  0  0  0  0  0
   10.8727    0.0727   21.1912 N   0  0  0  0  0  0  0  0  0  0  0  0
   10.6938   -0.9817   22.0014 N   0  0  0  0  0  0  0  0  0  0  0  0
   11.4735   -1.3064   22.5479 H   0  0  0  0  0  0  0  0  0  0  0  0
    9.4140   -1.4478   22.0435 C   0  0  0  0  0  0  0  0  0  0  0  0
    8.9778   -2.5443   22.9516 C   0  0  0  0  0  0  0  0  0  0  0  0
    9.6844   -3.3814   22.8894 H   0  0  0  0  0  0  0  0  0  0  0  0
    8.0203   -2.9294   22.5785 H   0  0  0  0  0  0  0  0  0  0  0  0
    8.8126   -2.1089   24.4210 C   0  0  0  0  0  0  0  0  0  0  0  0
    8.6943   -3.0139   25.0256 H   0  0  0  0  0  0  0  0  0  0  0  0
    9.7492   -1.6433   24.7568 H   0  0  0  0  0  0  0  0  0  0  0  0
    7.6385   -1.1540   24.6842 C   0  0  0  0  0  0  0  0  0  0  0  0
    7.2473   -1.3412   25.6935 H   0  0  0  0  0  0  0  0  0  0  0  0
    6.8061   -1.3985   24.0057 H   0  0  0  0  0  0  0  0  0  0  0  0
    7.9718    0.3392   24.5538 C   0  0  0  0  0  0  0  0  0  0  0  0
    8.5581    0.5245   23.6463 H   0  0  0  0  0  0  0  0  0  0  0  0
    8.6274    0.6274   25.3872 H   0  0  0  0  0  0  0  0  0  0  0  0
    6.7363    1.2462   24.5180 C   0  0  0  0  0  0  0  0  0  0  0  0
    7.0600    2.2876   24.3836 H   0  0  0  0  0  0  0  0  0  0  0  0
    6.1535    1.0044   23.6153 H   0  0  0  0  0  0  0  0  0  0  0  0
    5.8149    1.1514   25.7457 C   0  0  0  0  0  0  0  0  0  0  0  0
    5.3775    0.1453   25.7927 H   0  0  0  0  0  0  0  0  0  0  0  0
    4.9672    1.8346   25.5998 H   0  0  0  0  0  0  0  0  0  0  0  0
    6.4767    1.4783   27.0923 C   0  0  0  0  0  0  0  0  0  0  0  0
    5.7372    1.3385   27.8900 H   0  0  0  0  0  0  0  0  0  0  0  0
    7.2779    0.7570   27.3032 H   0  0  0  0  0  0  0  0  0  0  0  0
    7.0355    2.8991   27.1707 C   0  0  0  0  0  0  0  0  0  0  0  0
    7.8829    3.0408   26.4904 H   0  0  0  0  0  0  0  0  0  0  0  0
    7.3790    3.1383   28.1816 H   0  0  0  0  0  0  0  0  0  0  0  0
    6.2700    3.6328   26.8925 H   0  0  0  0  0  0  0  0  0  0  0  0
    5.4413    0.6323   20.1622 C   0  0  0  0  0  0  0  0  0  0  0  0
    5.0217    0.6209   21.1695 H   0  0  0  0  0  0  0  0  0  0  0  0
    4.8101    1.3061   19.1079 C   0  0  0  0  0  0  0  0  0  0  0  0
    3.8804    1.8386   19.2620 H   0  0  0  0  0  0  0  0  0  0  0  0
  1  2  1  0
  2  3  2  0
  3  4  1  0
  4  5  1  0
  4  6  2  0
  6  7  1  0
  7  8  1  0
  7  9  1  0
  9 10  1  0
 10 11  1  0
 10 12  2  0
 12 13  1  0
 13 14  1  0
 13 15  1  0
 15 16  1  0
 16 17  1  0
 16 18  1  0
 16 19  1  0
 19 20  1  0
 19 21  1  0
 19 22  1  0
 22 23  1  0
 22 24  1  0
 22 25  1  0
 25 26  1  0
 25 27  1  0
 25 28  1  0
 28 29  1  0
 28 30  1  0
 28 31  1  0
 31 32  1  0
 31 33  1  0
 31 34  1  0
 34 35  1  0
 34 36  1  0
 34 37  1  0
 37 38  1  0
 37 39  1  0
 37 40  1  0
  6 41  1  0
 41 42  1  0
 41 43  2  0
 43 44  1  0
 43  2  1  0
 15  9  2  0
M  END
>  <cnnaffinity>  (1) 
-5.68886

>  <filename>  (1) 
CCCCCCCCc1[nH]ncc1Nc1cccnc1

$$$$
