
     RDKit          3D

 33 34  0  0  0  0  0  0  0  0999 V2000
    4.9994    1.7941   16.9534 H   0  0  0  0  0  0  0  0  0  0  0  0
    5.4425    1.2809   17.8053 C   0  0  0  0  0  0  0  0  0  0  0  0
    6.5907    0.6236   17.5695 N   0  0  0  0  0  0  0  0  0  0  0  0
    7.1618   -0.0026   18.6028 C   0  0  0  0  0  0  0  0  0  0  0  0
    8.0803   -0.5473   18.3907 H   0  0  0  0  0  0  0  0  0  0  0  0
    6.6499    0.0110   19.9097 C   0  0  0  0  0  0  0  0  0  0  0  0
    7.3964   -0.6595   20.9739 C   0  0  0  0  0  0  0  0  0  0  0  0
    7.9933   -1.8769   20.7713 N   0  0  0  0  0  0  0  0  0  0  0  0
    8.5486   -2.1922   21.9083 C   0  0  0  0  0  0  0  0  0  0  0  0
    9.0885   -3.1068   22.1112 H   0  0  0  0  0  0  0  0  0  0  0  0
    8.3666   -1.2240   22.8432 N   0  0  0  0  0  0  0  0  0  0  0  0
    8.7718   -1.2033   23.7648 H   0  0  0  0  0  0  0  0  0  0  0  0
    7.6424   -0.2080   22.2549 C   0  0  0  0  0  0  0  0  0  0  0  0
    7.5161    1.1651   22.8285 C   0  0  0  0  0  0  0  0  0  0  0  0
    6.4826    1.5093   22.7169 H   0  0  0  0  0  0  0  0  0  0  0  0
    7.7123    1.1418   23.9109 H   0  0  0  0  0  0  0  0  0  0  0  0
    8.4852    2.1493   22.1340 C   0  0  0  0  0  0  0  0  0  0  0  0
    8.3170    2.1053   21.0468 H   0  0  0  0  0  0  0  0  0  0  0  0
    8.2306    3.1725   22.4445 H   0  0  0  0  0  0  0  0  0  0  0  0
    9.9520    1.7996   22.4421 C   0  0  0  0  0  0  0  0  0  0  0  0
   10.1859    0.8393   21.9647 H   0  0  0  0  0  0  0  0  0  0  0  0
   10.0620    1.6679   23.5327 H   0  0  0  0  0  0  0  0  0  0  0  0
   11.0056    2.8026   21.9770 C   0  0  0  0  0  0  0  0  0  0  0  0
   11.9960    2.3502   22.1223 H   0  0  0  0  0  0  0  0  0  0  0  0
   10.9223    2.9655   20.8932 H   0  0  0  0  0  0  0  0  0  0  0  0
   10.9953    4.1186   22.7578 C   0  0  0  0  0  0  0  0  0  0  0  0
   10.0072    4.5896   22.8604 H   0  0  0  0  0  0  0  0  0  0  0  0
   11.6657    4.8510   22.2999 H   0  0  0  0  0  0  0  0  0  0  0  0
   11.3613    3.9373   23.7735 H   0  0  0  0  0  0  0  0  0  0  0  0
    5.4337    0.6786   20.1328 C   0  0  0  0  0  0  0  0  0  0  0  0
    4.9698    0.6763   21.1211 H   0  0  0  0  0  0  0  0  0  0  0  0
    4.8212    1.3177   19.0578 C   0  0  0  0  0  0  0  0  0  0  0  0
    3.8848    1.8506   19.1785 H   0  0  0  0  0  0  0  0  0  0  0  0
  1  2  1  0
  2  3  2  0
  3  4  1  0
  4  5  1  0
  4  6  2  0
  6  7  1  0
  7  8  1  0
  8  9  2  0
  9 10  1  0
  9 11  1  0
 11 12  1  0
 11 13  1  0
 13 14  1  0
 14 15  1  0
 14 16  1  0
 14 17  1  0
 17 18  1  0
 17 19  1  0
 17 20  1  0
 20 21  1  0
 20 22  1  0
 20 23  1  0
 23 24  1  0
 23 25  1  0
 23 26  1  0
 26 27  1  0
 26 28  1  0
 26 29  1  0
  6 30  1  0
 30 31  1  0
 30 32  2  0
 32 33  1  0
 32  2  1  0
 13  7  2  0
M  END
>  <cnnaffinity>  (1) 
-4.78291

>  <filename>  (1) 
CCCCCc1[nH]cnc1-c1cccnc1

$$$$
