
     RDKit          3D

 43 44  0  0  0  0  0  0  0  0999 V2000
    4.9761    1.6823   17.0612 H   0  0  0  0  0  0  0  0  0  0  0  0
    5.4705    1.1858   17.8946 C   0  0  0  0  0  0  0  0  0  0  0  0
    6.6245    0.5580   17.6125 N   0  0  0  0  0  0  0  0  0  0  0  0
    7.2622   -0.0475   18.6219 C   0  0  0  0  0  0  0  0  0  0  0  0
    8.2043   -0.5385   18.3888 H   0  0  0  0  0  0  0  0  0  0  0  0
    6.7842   -0.0734   19.9442 C   0  0  0  0  0  0  0  0  0  0  0  0
    7.6053   -0.6498   20.8920 O   0  0  0  0  0  0  0  0  0  0  0  0
    7.1253   -1.5672   21.7980 C   0  0  0  0  0  0  0  0  0  0  0  0
    6.0916   -2.5305   21.7093 C   0  0  0  0  0  0  0  0  0  0  0  0
    5.4115   -2.7266   20.8906 H   0  0  0  0  0  0  0  0  0  0  0  0
    6.0588   -3.2853   22.8072 N   0  0  0  0  0  0  0  0  0  0  0  0
    7.0617   -2.8232   23.5611 N   0  0  0  0  0  0  0  0  0  0  0  0
    7.2181   -3.2162   24.4807 H   0  0  0  0  0  0  0  0  0  0  0  0
    7.7586   -1.7990   23.0025 C   0  0  0  0  0  0  0  0  0  0  0  0
    9.0200   -1.2136   23.5572 C   0  0  0  0  0  0  0  0  0  0  0  0
    9.7944   -1.3543   22.7924 H   0  0  0  0  0  0  0  0  0  0  0  0
    9.3399   -1.8002   24.4316 H   0  0  0  0  0  0  0  0  0  0  0  0
    8.9386    0.2798   23.9133 C   0  0  0  0  0  0  0  0  0  0  0  0
    9.9528    0.6296   24.1523 H   0  0  0  0  0  0  0  0  0  0  0  0
    8.6168    0.8360   23.0220 H   0  0  0  0  0  0  0  0  0  0  0  0
    8.0005    0.5648   25.0927 C   0  0  0  0  0  0  0  0  0  0  0  0
    8.4040    0.0692   25.9908 H   0  0  0  0  0  0  0  0  0  0  0  0
    7.0331    0.0848   24.9022 H   0  0  0  0  0  0  0  0  0  0  0  0
    7.7523    2.0503   25.4018 C   0  0  0  0  0  0  0  0  0  0  0  0
    7.0506    2.1001   26.2471 H   0  0  0  0  0  0  0  0  0  0  0  0
    7.2359    2.5199   24.5481 H   0  0  0  0  0  0  0  0  0  0  0  0
    9.0242    2.8238   25.7693 C   0  0  0  0  0  0  0  0  0  0  0  0
    9.5690    2.2272   26.5116 H   0  0  0  0  0  0  0  0  0  0  0  0
    9.6789    2.8723   24.8880 H   0  0  0  0  0  0  0  0  0  0  0  0
    8.8087    4.2442   26.3194 C   0  0  0  0  0  0  0  0  0  0  0  0
    8.0134    4.2300   27.0803 H   0  0  0  0  0  0  0  0  0  0  0  0
    9.7168    4.5698   26.8449 H   0  0  0  0  0  0  0  0  0  0  0  0
    8.4690    5.3107   25.2677 C   0  0  0  0  0  0  0  0  0  0  0  0
    7.5252    5.0473   24.7719 H   0  0  0  0  0  0  0  0  0  0  0  0
    8.2936    6.2660   25.7876 H   0  0  0  0  0  0  0  0  0  0  0  0
    9.5545    5.4955   24.1980 C   0  0  0  0  0  0  0  0  0  0  0  0
   10.5395    5.6410   24.6584 H   0  0  0  0  0  0  0  0  0  0  0  0
    9.6272    4.6266   23.5270 H   0  0  0  0  0  0  0  0  0  0  0  0
    9.3522    6.3785   23.5807 H   0  0  0  0  0  0  0  0  0  0  0  0
    5.5748    0.5688   20.2340 C   0  0  0  0  0  0  0  0  0  0  0  0
    5.1726    0.5860   21.2474 H   0  0  0  0  0  0  0  0  0  0  0  0
    4.9135    1.2121   19.1760 C   0  0  0  0  0  0  0  0  0  0  0  0
    3.9857    1.7477   19.3390 H   0  0  0  0  0  0  0  0  0  0  0  0
  1  2  1  0
  2  3  2  0
  3  4  1  0
  4  5  1  0
  4  6  2  0
  6  7  1  0
  7  8  1  0
  8  9  1  0
  9 10  1  0
  9 11  2  0
 11 12  1  0
 12 13  1  0
 12 14  1  0
 14 15  1  0
 15 16  1  0
 15 17  1  0
 15 18  1  0
 18 19  1  0
 18 20  1  0
 18 21  1  0
 21 22  1  0
 21 23  1  0
 21 24  1  0
 24 25  1  0
 24 26  1  0
 24 27  1  0
 27 28  1  0
 27 29  1  0
 27 30  1  0
 30 31  1  0
 30 32  1  0
 30 33  1  0
 33 34  1  0
 33 35  1  0
 33 36  1  0
 36 37  1  0
 36 38  1  0
 36 39  1  0
  6 40  1  0
 40 41  1  0
 40 42  2  0
 42 43  1  0
 42  2  1  0
 14  8  2  0
M  END
>  <cnnaffinity>  (1) 
-5.40984

>  <filename>  (1) 
CCCCCCCCc1[nH]ncc1Oc1cccnc1

$$$$
