
     RDKit          3D

 39 40  0  0  0  0  0  0  0  0999 V2000
    5.7179   -1.4207   22.0522 H   0  0  0  0  0  0  0  0  0  0  0  0
    6.7969   -1.3649   22.0161 C   0  0  0  0  0  0  0  0  0  0  0  0
    7.4721   -2.0011   22.9602 N   0  0  0  0  0  0  0  0  0  0  0  0
    8.8142   -1.9789   22.8885 N   0  0  0  0  0  0  0  0  0  0  0  0
    9.4177   -1.3465   21.8639 C   0  0  0  0  0  0  0  0  0  0  0  0
   10.9255   -1.3294   21.8758 C   0  0  0  0  0  0  0  0  0  0  0  0
   11.2953   -2.3065   22.2019 H   0  0  0  0  0  0  0  0  0  0  0  0
   11.2710   -1.1772   20.8515 H   0  0  0  0  0  0  0  0  0  0  0  0
   11.5048   -0.2269   22.7804 C   0  0  0  0  0  0  0  0  0  0  0  0
   12.5934   -0.3515   22.8632 H   0  0  0  0  0  0  0  0  0  0  0  0
   11.1101   -0.3603   23.7984 H   0  0  0  0  0  0  0  0  0  0  0  0
   11.2066    1.1817   22.2649 C   0  0  0  0  0  0  0  0  0  0  0  0
   11.5575    1.2676   21.2300 H   0  0  0  0  0  0  0  0  0  0  0  0
   10.1221    1.3466   22.2142 H   0  0  0  0  0  0  0  0  0  0  0  0
   11.8522    2.2853   23.0962 C   0  0  0  0  0  0  0  0  0  0  0  0
   12.9455    2.1679   23.0724 H   0  0  0  0  0  0  0  0  0  0  0  0
   11.6547    3.2607   22.6294 H   0  0  0  0  0  0  0  0  0  0  0  0
   11.4089    2.3356   24.5614 C   0  0  0  0  0  0  0  0  0  0  0  0
   11.9294    3.1948   24.9862 H   0  0  0  0  0  0  0  0  0  0  0  0
   11.7786    1.4531   25.1009 H   0  0  0  0  0  0  0  0  0  0  0  0
    9.9004    2.4786   24.8048 C   0  0  0  0  0  0  0  0  0  0  0  0
    9.7048    2.4772   25.8848 H   0  0  0  0  0  0  0  0  0  0  0  0
    9.3772    1.5956   24.4149 H   0  0  0  0  0  0  0  0  0  0  0  0
    9.2972    3.7409   24.1928 C   0  0  0  0  0  0  0  0  0  0  0  0
    9.8399    4.6334   24.5228 H   0  0  0  0  0  0  0  0  0  0  0  0
    9.3415    3.7212   23.0982 H   0  0  0  0  0  0  0  0  0  0  0  0
    8.2477    3.8625   24.4778 H   0  0  0  0  0  0  0  0  0  0  0  0
    8.7787   -0.7004   20.8601 N   0  0  0  0  0  0  0  0  0  0  0  0
    7.4408   -0.6895   20.9539 C   0  0  0  0  0  0  0  0  0  0  0  0
    6.6745    0.0191   19.9064 C   0  0  0  0  0  0  0  0  0  0  0  0
    7.1870    0.0684   18.6016 C   0  0  0  0  0  0  0  0  0  0  0  0
    8.1305   -0.4238   18.3719 H   0  0  0  0  0  0  0  0  0  0  0  0
    6.5671    0.6689   17.5835 N   0  0  0  0  0  0  0  0  0  0  0  0
    5.4060    1.2867   17.8442 C   0  0  0  0  0  0  0  0  0  0  0  0
    4.9217    1.7760   17.0022 H   0  0  0  0  0  0  0  0  0  0  0  0
    4.8121    1.3060   19.1102 C   0  0  0  0  0  0  0  0  0  0  0  0
    3.8791    1.8390   19.2601 H   0  0  0  0  0  0  0  0  0  0  0  0
    5.4432    0.6478   20.1613 C   0  0  0  0  0  0  0  0  0  0  0  0
    4.9967    0.6480   21.1601 H   0  0  0  0  0  0  0  0  0  0  0  0
  1  2  1  0
  2  3  2  0
  3  4  1  0
  4  5  2  0
  5  6  1  0
  6  7  1  0
  6  8  1  0
  6  9  1  0
  9 10  1  0
  9 11  1  0
  9 12  1  0
 12 13  1  0
 12 14  1  0
 12 15  1  0
 15 16  1  0
 15 17  1  0
 15 18  1  0
 18 19  1  0
 18 20  1  0
 18 21  1  0
 21 22  1  0
 21 23  1  0
 21 24  1  0
 24 25  1  0
 24 26  1  0
 24 27  1  0
  5 28  1  0
 28 29  2  0
 29 30  1  0
 30 31  2  0
 31 32  1  0
 31 33  1  0
 33 34  2  0
 34 35  1  0
 34 36  1  0
 36 37  1  0
 36 38  2  0
 38 39  1  0
 29  2  1  0
 38 30  1  0
M  END
>  <cnnaffinity>  (1) 
-5.5412

>  <filename>  (1) 
CCCCCCCc1nncc(-c2cccnc2)n1

$$$$
