
     RDKit          3D

 41 43  0  0  0  0  0  0  0  0999 V2000
    4.9594    1.7929   16.9786 H   0  0  0  0  0  0  0  0  0  0  0  0
    5.3969    1.2846   17.8319 C   0  0  0  0  0  0  0  0  0  0  0  0
    6.5589    0.6541   17.6024 N   0  0  0  0  0  0  0  0  0  0  0  0
    7.1615    0.0737   18.6434 C   0  0  0  0  0  0  0  0  0  0  0  0
    8.1107   -0.4096   18.4006 H   0  0  0  0  0  0  0  0  0  0  0  0
    6.6577    0.0839   19.9644 C   0  0  0  0  0  0  0  0  0  0  0  0
    7.4207   -0.6027   21.0341 C   0  0  0  0  0  0  0  0  0  0  0  0
    8.2388   -1.6614   20.8601 C   0  0  0  0  0  0  0  0  0  0  0  0
    8.5908   -2.0190   19.9155 H   0  0  0  0  0  0  0  0  0  0  0  0
    8.8457   -2.3465   22.3467 S   0  0  0  0  0  0  0  0  0  0  0  0
    8.1063   -1.0350   23.2229 C   0  0  0  0  0  0  0  0  0  0  0  0
    8.1211   -0.5363   24.4477 N   0  0  0  0  0  0  0  0  0  0  0  0
    7.3829    0.6018   24.2886 C   0  0  0  0  0  0  0  0  0  0  0  0
    7.0131    1.5393   25.4009 C   0  0  0  0  0  0  0  0  0  0  0  0
    7.6925    1.3806   26.2494 H   0  0  0  0  0  0  0  0  0  0  0  0
    7.1756    2.5623   25.0457 H   0  0  0  0  0  0  0  0  0  0  0  0
    5.5366    1.3466   25.8292 C   0  0  0  0  0  0  0  0  0  0  0  0
    4.8838    1.6090   24.9870 H   0  0  0  0  0  0  0  0  0  0  0  0
    5.2919    2.0586   26.6297 H   0  0  0  0  0  0  0  0  0  0  0  0
    5.2115   -0.0931   26.2677 C   0  0  0  0  0  0  0  0  0  0  0  0
    5.3236   -0.7731   25.4102 H   0  0  0  0  0  0  0  0  0  0  0  0
    4.1495   -0.1486   26.5427 H   0  0  0  0  0  0  0  0  0  0  0  0
    6.0748   -0.6141   27.4299 C   0  0  0  0  0  0  0  0  0  0  0  0
    5.7411   -1.6294   27.6888 H   0  0  0  0  0  0  0  0  0  0  0  0
    7.1111   -0.7299   27.0776 H   0  0  0  0  0  0  0  0  0  0  0  0
    6.0433    0.2732   28.6838 C   0  0  0  0  0  0  0  0  0  0  0  0
    6.7015   -0.1476   29.4499 H   0  0  0  0  0  0  0  0  0  0  0  0
    6.4727    1.2569   28.4431 H   0  0  0  0  0  0  0  0  0  0  0  0
    4.6560    0.4540   29.3098 C   0  0  0  0  0  0  0  0  0  0  0  0
    4.2140   -0.5380   29.4745 H   0  0  0  0  0  0  0  0  0  0  0  0
    3.9868    0.9691   28.6093 H   0  0  0  0  0  0  0  0  0  0  0  0
    4.6922    1.2174   30.6341 C   0  0  0  0  0  0  0  0  0  0  0  0
    3.6940    1.3359   31.0704 H   0  0  0  0  0  0  0  0  0  0  0  0
    5.1158    2.2210   30.5071 H   0  0  0  0  0  0  0  0  0  0  0  0
    5.3109    0.6906   31.3705 H   0  0  0  0  0  0  0  0  0  0  0  0
    6.9175    0.8213   23.0687 N   0  0  0  0  0  0  0  0  0  0  0  0
    7.3813   -0.2594   22.3902 N   0  0  0  0  0  0  0  0  0  0  0  0
    5.4133    0.7174   20.1680 C   0  0  0  0  0  0  0  0  0  0  0  0
    4.9633    0.7365   21.1601 H   0  0  0  0  0  0  0  0  0  0  0  0
    4.7798    1.3244   19.0833 C   0  0  0  0  0  0  0  0  0  0  0  0
    3.8337    1.8464   19.1895 H   0  0  0  0  0  0  0  0  0  0  0  0
  1  2  1  0
  2  3  2  0
  3  4  1  0
  4  5  1  0
  4  6  2  0
  6  7  1  0
  7  8  2  0
  8  9  1  0
  8 10  1  0
 10 11  1  0
 11 12  2  0
 12 13  1  0
 13 14  1  0
 14 15  1  0
 14 16  1  0
 14 17  1  0
 17 18  1  0
 17 19  1  0
 17 20  1  0
 20 21  1  0
 20 22  1  0
 20 23  1  0
 23 24  1  0
 23 25  1  0
 23 26  1  0
 26 27  1  0
 26 28  1  0
 26 29  1  0
 29 30  1  0
 29 31  1  0
 29 32  1  0
 32 33  1  0
 32 34  1  0
 32 35  1  0
 13 36  2  0
 36 37  1  0
  6 38  1  0
 38 39  1  0
 38 40  2  0
 40 41  1  0
 40  2  1  0
 37  7  1  0
 37 11  1  0
M  END
>  <cnnaffinity>  (1) 
-5.61172

>  <filename>  (1) 
CCCCCCCc1nc2scc(-c3cccnc3)n2n1

$$$$
