
     RDKit          3D

 40 41  0  0  0  0  0  0  0  0999 V2000
    4.9068    1.7743   17.0029 H   0  0  0  0  0  0  0  0  0  0  0  0
    5.4019    1.2929   17.8415 C   0  0  0  0  0  0  0  0  0  0  0  0
    6.5677    0.6821   17.5753 N   0  0  0  0  0  0  0  0  0  0  0  0
    7.1777    0.0674   18.5964 C   0  0  0  0  0  0  0  0  0  0  0  0
    8.1228   -0.4343   18.3814 H   0  0  0  0  0  0  0  0  0  0  0  0
    6.6671    0.0094   19.9087 C   0  0  0  0  0  0  0  0  0  0  0  0
    7.3824   -0.6916   20.9879 C   0  0  0  0  0  0  0  0  0  0  0  0
    6.6433   -1.8440   21.9963 S   0  0  0  0  0  0  0  0  0  0  0  0
    8.0396   -2.0564   22.9082 N   0  0  0  0  0  0  0  0  0  0  0  0
    8.9940   -1.3150   22.4963 N   0  0  0  0  0  0  0  0  0  0  0  0
    8.6879   -0.5287   21.4224 C   0  0  0  0  0  0  0  0  0  0  0  0
    9.6495    0.4937   20.8965 C   0  0  0  0  0  0  0  0  0  0  0  0
   10.6439    0.2769   21.2992 H   0  0  0  0  0  0  0  0  0  0  0  0
    9.7058    0.3807   19.8110 H   0  0  0  0  0  0  0  0  0  0  0  0
    9.2288    1.9380   21.2249 C   0  0  0  0  0  0  0  0  0  0  0  0
    9.9715    2.6260   20.7999 H   0  0  0  0  0  0  0  0  0  0  0  0
    8.2783    2.1522   20.7161 H   0  0  0  0  0  0  0  0  0  0  0  0
    9.0655    2.2161   22.7274 C   0  0  0  0  0  0  0  0  0  0  0  0
    8.2483    1.5927   23.1188 H   0  0  0  0  0  0  0  0  0  0  0  0
    8.7369    3.2569   22.8567 H   0  0  0  0  0  0  0  0  0  0  0  0
   10.3214    1.9681   23.5799 C   0  0  0  0  0  0  0  0  0  0  0  0
   10.5584    0.8951   23.5831 H   0  0  0  0  0  0  0  0  0  0  0  0
   10.0912    2.2264   24.6243 H   0  0  0  0  0  0  0  0  0  0  0  0
   11.5642    2.7576   23.1529 C   0  0  0  0  0  0  0  0  0  0  0  0
   11.8690    2.4543   22.1398 H   0  0  0  0  0  0  0  0  0  0  0  0
   12.3993    2.4785   23.8106 H   0  0  0  0  0  0  0  0  0  0  0  0
   11.3818    4.2781   23.2140 C   0  0  0  0  0  0  0  0  0  0  0  0
   10.9508    4.5447   24.1895 H   0  0  0  0  0  0  0  0  0  0  0  0
   10.6465    4.5980   22.4605 H   0  0  0  0  0  0  0  0  0  0  0  0
   12.6766    5.0657   23.0084 C   0  0  0  0  0  0  0  0  0  0  0  0
   12.4950    6.1215   23.2438 H   0  0  0  0  0  0  0  0  0  0  0  0
   13.4331    4.7122   23.7235 H   0  0  0  0  0  0  0  0  0  0  0  0
   13.2283    4.9627   21.5929 C   0  0  0  0  0  0  0  0  0  0  0  0
   12.4673    5.2527   20.8609 H   0  0  0  0  0  0  0  0  0  0  0  0
   13.5390    3.9408   21.3618 H   0  0  0  0  0  0  0  0  0  0  0  0
   14.0948    5.6159   21.4646 H   0  0  0  0  0  0  0  0  0  0  0  0
    5.4400    0.6505   20.1575 C   0  0  0  0  0  0  0  0  0  0  0  0
    5.0099    0.6301   21.1584 H   0  0  0  0  0  0  0  0  0  0  0  0
    4.8046    1.3124   19.1082 C   0  0  0  0  0  0  0  0  0  0  0  0
    3.8691    1.8470   19.2661 H   0  0  0  0  0  0  0  0  0  0  0  0
  1  2  1  0
  2  3  2  0
  3  4  1  0
  4  5  1  0
  4  6  2  0
  6  7  1  0
  7  8  1  0
  8  9  1  0
  9 10  2  0
 10 11  1  0
 11 12  1  0
 12 13  1  0
 12 14  1  0
 12 15  1  0
 15 16  1  0
 15 17  1  0
 15 18  1  0
 18 19  1  0
 18 20  1  0
 18 21  1  0
 21 22  1  0
 21 23  1  0
 21 24  1  0
 24 25  1  0
 24 26  1  0
 24 27  1  0
 27 28  1  0
 27 29  1  0
 27 30  1  0
 30 31  1  0
 30 32  1  0
 30 33  1  0
 33 34  1  0
 33 35  1  0
 33 36  1  0
  6 37  1  0
 37 38  1  0
 37 39  2  0
 39 40  1  0
 39  2  1  0
 11  7  2  0
M  END
>  <cnnaffinity>  (1) 
-5.14906

>  <filename>  (1) 
CCCCCCCCc1nnsc1-c1cccnc1

$$$$
