
     RDKit          3D

 39 40  0  0  0  0  0  0  0  0999 V2000
    5.2972    2.1108   16.8098 H   0  0  0  0  0  0  0  0  0  0  0  0
    5.5054    1.4620   17.6577 C   0  0  0  0  0  0  0  0  0  0  0  0
    6.5968    0.6887   17.5478 N   0  0  0  0  0  0  0  0  0  0  0  0
    6.8911   -0.1199   18.5731 C   0  0  0  0  0  0  0  0  0  0  0  0
    7.7896   -0.7276   18.4839 H   0  0  0  0  0  0  0  0  0  0  0  0
    6.1076   -0.2157   19.7393 C   0  0  0  0  0  0  0  0  0  0  0  0
    6.5374   -1.0296   20.8556 N   0  0  0  0  0  0  0  0  0  0  0  0
    7.1092   -0.3657   21.9205 C   0  0  0  0  0  0  0  0  0  0  0  0
    6.9305    0.7056   21.9392 H   0  0  0  0  0  0  0  0  0  0  0  0
    7.8604   -0.9845   22.8767 C   0  0  0  0  0  0  0  0  0  0  0  0
    8.5647   -0.1377   23.9178 C   0  0  0  0  0  0  0  0  0  0  0  0
    7.8749    0.6628   24.2334 H   0  0  0  0  0  0  0  0  0  0  0  0
    8.7800   -0.7330   24.8159 H   0  0  0  0  0  0  0  0  0  0  0  0
    9.8566    0.5383   23.4101 C   0  0  0  0  0  0  0  0  0  0  0  0
    9.6617    1.0164   22.4379 H   0  0  0  0  0  0  0  0  0  0  0  0
   10.6313   -0.2195   23.2239 H   0  0  0  0  0  0  0  0  0  0  0  0
   10.4012    1.6053   24.3675 C   0  0  0  0  0  0  0  0  0  0  0  0
   10.6244    1.1576   25.3473 H   0  0  0  0  0  0  0  0  0  0  0  0
    9.6188    2.3546   24.5560 H   0  0  0  0  0  0  0  0  0  0  0  0
   11.6519    2.3215   23.8535 C   0  0  0  0  0  0  0  0  0  0  0  0
   12.3942    1.5705   23.5492 H   0  0  0  0  0  0  0  0  0  0  0  0
   12.1043    2.8725   24.6836 H   0  0  0  0  0  0  0  0  0  0  0  0
   11.4414    3.3138   22.7065 C   0  0  0  0  0  0  0  0  0  0  0  0
   10.7067    4.0719   23.0089 H   0  0  0  0  0  0  0  0  0  0  0  0
   11.0183    2.8112   21.8258 H   0  0  0  0  0  0  0  0  0  0  0  0
   12.7457    4.0168   22.3395 C   0  0  0  0  0  0  0  0  0  0  0  0
   13.4790    3.3051   21.9499 H   0  0  0  0  0  0  0  0  0  0  0  0
   12.5936    4.7923   21.5840 H   0  0  0  0  0  0  0  0  0  0  0  0
   13.1837    4.4907   23.2270 H   0  0  0  0  0  0  0  0  0  0  0  0
    7.9831   -2.4123   22.7955 C   0  0  0  0  0  0  0  0  0  0  0  0
    8.5624   -2.9365   23.5566 H   0  0  0  0  0  0  0  0  0  0  0  0
    7.3689   -3.1104   21.8009 C   0  0  0  0  0  0  0  0  0  0  0  0
    7.4327   -4.1848   21.6873 H   0  0  0  0  0  0  0  0  0  0  0  0
    6.5515   -2.4645   20.7813 C   0  0  0  0  0  0  0  0  0  0  0  0
    5.9400   -3.0761   19.9227 O   0  0  0  0  0  0  0  0  0  0  0  0
    4.9756    0.5980   19.8442 C   0  0  0  0  0  0  0  0  0  0  0  0
    4.3670    0.5553   20.7487 H   0  0  0  0  0  0  0  0  0  0  0  0
    4.6709    1.4591   18.7823 C   0  0  0  0  0  0  0  0  0  0  0  0
    3.8277    2.1391   18.8235 H   0  0  0  0  0  0  0  0  0  0  0  0
  1  2  1  0
  2  3  2  0
  3  4  1  0
  4  5  1  0
  4  6  2  0
  6  7  1  0
  7  8  1  0
  8  9  1  0
  8 10  2  0
 10 11  1  0
 11 12  1  0
 11 13  1  0
 11 14  1  0
 14 15  1  0
 14 16  1  0
 14 17  1  0
 17 18  1  0
 17 19  1  0
 17 20  1  0
 20 21  1  0
 20 22  1  0
 20 23  1  0
 23 24  1  0
 23 25  1  0
 23 26  1  0
 26 27  1  0
 26 28  1  0
 26 29  1  0
 10 30  1  0
 30 31  1  0
 30 32  2  0
 32 33  1  0
 32 34  1  0
 34 35  2  0
  6 36  1  0
 36 37  1  0
 36 38  2  0
 38 39  1  0
 38  2  1  0
 34  7  1  0
M  END
>  <cnnaffinity>  (1) 
-5.47398

>  <filename>  (1) 
CCCCCCc1ccc(=O)n(-c2cccnc2)c1

$$$$
