
     RDKit          3D

 42 43  0  0  0  0  0  0  0  0999 V2000
    5.2711    1.8031   16.8045 H   0  0  0  0  0  0  0  0  0  0  0  0
    5.5695    1.2348   17.6826 C   0  0  0  0  0  0  0  0  0  0  0  0
    6.7044    0.5203   17.5769 N   0  0  0  0  0  0  0  0  0  0  0  0
    7.1063   -0.1603   18.6589 C   0  0  0  0  0  0  0  0  0  0  0  0
    8.0525   -0.6912   18.5587 H   0  0  0  0  0  0  0  0  0  0  0  0
    6.4179   -0.1834   19.8906 C   0  0  0  0  0  0  0  0  0  0  0  0
    7.0191   -0.7842   21.1104 C   0  0  0  0  0  0  0  0  0  0  0  0
    7.6721   -2.3858   21.1467 S   0  0  0  0  0  0  0  0  0  0  0  0
    8.2891   -2.1818   22.7400 C   0  0  0  0  0  0  0  0  0  0  0  0
    8.8842   -2.9552   23.2101 H   0  0  0  0  0  0  0  0  0  0  0  0
    7.9787   -0.9509   23.2311 C   0  0  0  0  0  0  0  0  0  0  0  0
    8.2848   -0.6167   24.2189 H   0  0  0  0  0  0  0  0  0  0  0  0
    7.2389   -0.1367   22.3088 C   0  0  0  0  0  0  0  0  0  0  0  0
    6.8678    1.3124   22.5007 C   0  0  0  0  0  0  0  0  0  0  0  0
    5.8093    1.4609   22.2712 H   0  0  0  0  0  0  0  0  0  0  0  0
    6.9637    1.5871   23.5587 H   0  0  0  0  0  0  0  0  0  0  0  0
    7.7110    2.2761   21.6282 C   0  0  0  0  0  0  0  0  0  0  0  0
    7.4276    2.1530   20.5747 H   0  0  0  0  0  0  0  0  0  0  0  0
    7.4591    3.3112   21.8995 H   0  0  0  0  0  0  0  0  0  0  0  0
    9.2249    2.0450   21.7705 C   0  0  0  0  0  0  0  0  0  0  0  0
    9.7830    2.8109   21.2164 H   0  0  0  0  0  0  0  0  0  0  0  0
    9.4755    1.0773   21.3025 H   0  0  0  0  0  0  0  0  0  0  0  0
    9.7032    2.0431   23.2276 C   0  0  0  0  0  0  0  0  0  0  0  0
    9.6817    3.0741   23.6164 H   0  0  0  0  0  0  0  0  0  0  0  0
    8.9995    1.4873   23.8594 H   0  0  0  0  0  0  0  0  0  0  0  0
   11.0819    1.4064   23.4232 C   0  0  0  0  0  0  0  0  0  0  0  0
   11.0181    0.3383   23.1411 H   0  0  0  0  0  0  0  0  0  0  0  0
   11.3195    1.4410   24.4973 H   0  0  0  0  0  0  0  0  0  0  0  0
   12.2247    2.0846   22.6523 C   0  0  0  0  0  0  0  0  0  0  0  0
   12.1203    1.9224   21.5691 H   0  0  0  0  0  0  0  0  0  0  0  0
   12.1634    3.1732   22.7982 H   0  0  0  0  0  0  0  0  0  0  0  0
   13.6061    1.6187   23.1222 C   0  0  0  0  0  0  0  0  0  0  0  0
   13.6755    1.7982   24.2036 H   0  0  0  0  0  0  0  0  0  0  0  0
   14.3719    2.2516   22.6568 H   0  0  0  0  0  0  0  0  0  0  0  0
   13.9361    0.1491   22.8534 C   0  0  0  0  0  0  0  0  0  0  0  0
   14.2185   -0.0228   21.8072 H   0  0  0  0  0  0  0  0  0  0  0  0
   14.7804   -0.1487   23.4799 H   0  0  0  0  0  0  0  0  0  0  0  0
   13.0996   -0.5115   23.1094 H   0  0  0  0  0  0  0  0  0  0  0  0
    5.1915    0.5035   19.9416 C   0  0  0  0  0  0  0  0  0  0  0  0
    4.5795    0.4658   20.8414 H   0  0  0  0  0  0  0  0  0  0  0  0
    4.7832    1.2521   18.8357 C   0  0  0  0  0  0  0  0  0  0  0  0
    3.8968    1.8742   18.8785 H   0  0  0  0  0  0  0  0  0  0  0  0
  1  2  1  0
  2  3  2  0
  3  4  1  0
  4  5  1  0
  4  6  2  0
  6  7  1  0
  7  8  1  0
  8  9  1  0
  9 10  1  0
  9 11  2  0
 11 12  1  0
 11 13  1  0
 13 14  1  0
 14 15  1  0
 14 16  1  0
 14 17  1  0
 17 18  1  0
 17 19  1  0
 17 20  1  0
 20 21  1  0
 20 22  1  0
 20 23  1  0
 23 24  1  0
 23 25  1  0
 23 26  1  0
 26 27  1  0
 26 28  1  0
 26 29  1  0
 29 30  1  0
 29 31  1  0
 29 32  1  0
 32 33  1  0
 32 34  1  0
 32 35  1  0
 35 36  1  0
 35 37  1  0
 35 38  1  0
  6 39  1  0
 39 40  1  0
 39 41  2  0
 41 42  1  0
 41  2  1  0
 13  7  2  0
M  END
>  <cnnaffinity>  (1) 
-5.88182

>  <filename>  (1) 
CCCCCCCCc1ccsc1-c1cccnc1

$$$$
