
     RDKit          3D

 45 46  0  0  0  0  0  0  0  0999 V2000
    4.9227    1.7994   16.9003 H   0  0  0  0  0  0  0  0  0  0  0  0
    5.3977    1.3341   17.7621 C   0  0  0  0  0  0  0  0  0  0  0  0
    6.5596    0.7027   17.5329 N   0  0  0  0  0  0  0  0  0  0  0  0
    7.1593    0.0980   18.5682 C   0  0  0  0  0  0  0  0  0  0  0  0
    8.0898   -0.4209   18.3413 H   0  0  0  0  0  0  0  0  0  0  0  0
    6.6508    0.1163   19.8877 C   0  0  0  0  0  0  0  0  0  0  0  0
    7.3146   -0.5609   20.9948 N   0  0  0  0  0  0  0  0  0  0  0  0
    7.4348   -1.9562   20.9700 C   0  0  0  0  0  0  0  0  0  0  0  0
    6.9990   -2.4341   20.0919 H   0  0  0  0  0  0  0  0  0  0  0  0
    8.0521   -2.6580   21.9496 C   0  0  0  0  0  0  0  0  0  0  0  0
    8.2812   -4.1431   21.8906 C   0  0  0  0  0  0  0  0  0  0  0  0
    9.1905   -4.3606   22.4581 H   0  0  0  0  0  0  0  0  0  0  0  0
    8.4359   -4.4409   20.8430 H   0  0  0  0  0  0  0  0  0  0  0  0
    7.1705   -5.0249   22.4688 C   0  0  0  0  0  0  0  0  0  0  0  0
    7.5254   -6.0652   22.4376 H   0  0  0  0  0  0  0  0  0  0  0  0
    7.0298   -4.7735   23.5310 H   0  0  0  0  0  0  0  0  0  0  0  0
    5.8431   -4.9569   21.7101 C   0  0  0  0  0  0  0  0  0  0  0  0
    5.4541   -3.9284   21.7406 H   0  0  0  0  0  0  0  0  0  0  0  0
    6.0122   -5.1984   20.6494 H   0  0  0  0  0  0  0  0  0  0  0  0
    4.8003   -5.9091   22.2978 C   0  0  0  0  0  0  0  0  0  0  0  0
    5.1622   -6.9448   22.2178 H   0  0  0  0  0  0  0  0  0  0  0  0
    3.8807   -5.8673   21.7016 H   0  0  0  0  0  0  0  0  0  0  0  0
    4.4754   -5.5949   23.7597 C   0  0  0  0  0  0  0  0  0  0  0  0
    4.1895   -4.5357   23.8400 H   0  0  0  0  0  0  0  0  0  0  0  0
    5.3795   -5.7031   24.3707 H   0  0  0  0  0  0  0  0  0  0  0  0
    3.3808   -6.4754   24.3527 C   0  0  0  0  0  0  0  0  0  0  0  0
    2.4961   -6.4292   23.7057 H   0  0  0  0  0  0  0  0  0  0  0  0
    3.7180   -7.5230   24.3386 H   0  0  0  0  0  0  0  0  0  0  0  0
    2.9655   -6.0961   25.7790 C   0  0  0  0  0  0  0  0  0  0  0  0
    2.0732   -6.6746   26.0500 H   0  0  0  0  0  0  0  0  0  0  0  0
    2.6583   -5.0404   25.8010 H   0  0  0  0  0  0  0  0  0  0  0  0
    4.0412   -6.3275   26.8413 C   0  0  0  0  0  0  0  0  0  0  0  0
    4.3757   -7.3716   26.8484 H   0  0  0  0  0  0  0  0  0  0  0  0
    4.9258   -5.7013   26.6794 H   0  0  0  0  0  0  0  0  0  0  0  0
    3.6573   -6.0954   27.8404 H   0  0  0  0  0  0  0  0  0  0  0  0
    8.5751   -1.9186   23.1174 C   0  0  0  0  0  0  0  0  0  0  0  0
    9.1524   -2.3772   24.0832 O   0  0  0  0  0  0  0  0  0  0  0  0
    8.3909   -0.5626   23.0691 N   0  0  0  0  0  0  0  0  0  0  0  0
    8.6485   -0.0579   23.8938 H   0  0  0  0  0  0  0  0  0  0  0  0
    7.6911    0.1602   22.1567 C   0  0  0  0  0  0  0  0  0  0  0  0
    7.4603    1.3256   22.3812 O   0  0  0  0  0  0  0  0  0  0  0  0
    5.4477    0.7974   20.1111 C   0  0  0  0  0  0  0  0  0  0  0  0
    5.0429    0.8689   21.1192 H   0  0  0  0  0  0  0  0  0  0  0  0
    4.7978    1.3902   19.0231 C   0  0  0  0  0  0  0  0  0  0  0  0
    3.8441    1.8927   19.1433 H   0  0  0  0  0  0  0  0  0  0  0  0
  1  2  1  0
  2  3  2  0
  3  4  1  0
  4  5  1  0
  4  6  2  0
  6  7  1  0
  7  8  1  0
  8  9  1  0
  8 10  2  0
 10 11  1  0
 11 12  1  0
 11 13  1  0
 11 14  1  0
 14 15  1  0
 14 16  1  0
 14 17  1  0
 17 18  1  0
 17 19  1  0
 17 20  1  0
 20 21  1  0
 20 22  1  0
 20 23  1  0
 23 24  1  0
 23 25  1  0
 23 26  1  0
 26 27  1  0
 26 28  1  0
 26 29  1  0
 29 30  1  0
 29 31  1  0
 29 32  1  0
 32 33  1  0
 32 34  1  0
 32 35  1  0
 10 36  1  0
 36 37  2  0
 36 38  1  0
 38 39  1  0
 38 40  1  0
 40 41  2  0
  6 42  1  0
 42 43  1  0
 42 44  2  0
 44 45  1  0
 44  2  1  0
 40  7  1  0
M  END
>  <cnnaffinity>  (1) 
-5.38779

>  <filename>  (1) 
CCCCCCCCc1cn(-c2cccnc2)c(=O)[nH]c1=O

$$$$
