
     RDKit          3D

 33 35  0  0  0  0  0  0  0  0999 V2000
    4.9253    1.7830   16.9949 H   0  0  0  0  0  0  0  0  0  0  0  0
    5.4033    1.2904   17.8377 C   0  0  0  0  0  0  0  0  0  0  0  0
    6.5665    0.6740   17.5752 N   0  0  0  0  0  0  0  0  0  0  0  0
    7.1700    0.0520   18.5897 C   0  0  0  0  0  0  0  0  0  0  0  0
    8.1177   -0.4320   18.3660 H   0  0  0  0  0  0  0  0  0  0  0  0
    6.6442    0.0130   19.8962 C   0  0  0  0  0  0  0  0  0  0  0  0
    7.3981   -0.6826   20.9348 C   0  0  0  0  0  0  0  0  0  0  0  0
    8.3126   -1.5958   20.7188 N   0  0  0  0  0  0  0  0  0  0  0  0
    8.8108   -2.0311   21.9268 N   0  0  0  0  0  0  0  0  0  0  0  0
    8.1862   -1.3370   22.8354 C   0  0  0  0  0  0  0  0  0  0  0  0
    8.2525   -1.1113   24.5597 S   0  0  0  0  0  0  0  0  0  0  0  0
    7.0416    0.1599   24.3520 C   0  0  0  0  0  0  0  0  0  0  0  0
    6.6004    0.8696   25.4112 N   0  0  0  0  0  0  0  0  0  0  0  0
    5.9192    1.5608   25.1472 H   0  0  0  0  0  0  0  0  0  0  0  0
    7.0405    0.6914   26.7823 C   0  0  0  0  0  0  0  0  0  0  0  0
    6.8476   -0.3445   27.1004 H   0  0  0  0  0  0  0  0  0  0  0  0
    8.1301    0.8367   26.8463 H   0  0  0  0  0  0  0  0  0  0  0  0
    6.3541    1.6448   27.7492 C   0  0  0  0  0  0  0  0  0  0  0  0
    6.5478    2.6828   27.4490 H   0  0  0  0  0  0  0  0  0  0  0  0
    5.2664    1.5028   27.7027 H   0  0  0  0  0  0  0  0  0  0  0  0
    6.8293    1.4400   29.1955 C   0  0  0  0  0  0  0  0  0  0  0  0
    6.6444    0.4015   29.5054 H   0  0  0  0  0  0  0  0  0  0  0  0
    7.9192    1.5723   29.2524 H   0  0  0  0  0  0  0  0  0  0  0  0
    6.1549    2.3853   30.1868 C   0  0  0  0  0  0  0  0  0  0  0  0
    6.5049    2.2238   31.2122 H   0  0  0  0  0  0  0  0  0  0  0  0
    5.0674    2.2506   30.1867 H   0  0  0  0  0  0  0  0  0  0  0  0
    6.3507    3.4330   29.9332 H   0  0  0  0  0  0  0  0  0  0  0  0
    6.6071    0.3796   23.1471 N   0  0  0  0  0  0  0  0  0  0  0  0
    7.2688   -0.4883   22.2974 N   0  0  0  0  0  0  0  0  0  0  0  0
    5.4253    0.6531   20.1616 C   0  0  0  0  0  0  0  0  0  0  0  0
    5.0075    0.6440   21.1704 H   0  0  0  0  0  0  0  0  0  0  0  0
    4.8040    1.3066   19.1026 C   0  0  0  0  0  0  0  0  0  0  0  0
    3.8754    1.8424   19.2521 H   0  0  0  0  0  0  0  0  0  0  0  0
  1  2  1  0
  2  3  2  0
  3  4  1  0
  4  5  1  0
  4  6  2  0
  6  7  1  0
  7  8  2  0
  8  9  1  0
  9 10  2  0
 10 11  1  0
 11 12  1  0
 12 13  1  0
 13 14  1  0
 13 15  1  0
 15 16  1  0
 15 17  1  0
 15 18  1  0
 18 19  1  0
 18 20  1  0
 18 21  1  0
 21 22  1  0
 21 23  1  0
 21 24  1  0
 24 25  1  0
 24 26  1  0
 24 27  1  0
 12 28  2  0
 28 29  1  0
  6 30  1  0
 30 31  1  0
 30 32  2  0
 32 33  1  0
 32  2  1  0
 29  7  1  0
 29 10  1  0
M  END
>  <cnnaffinity>  (1) 
-5.01536

>  <filename>  (1) 
CCCCNc1nn2c(-c3cccnc3)nnc2s1

$$$$
