
     RDKit          3D

 40 41  0  0  0  0  0  0  0  0999 V2000
    5.2484    1.6289   16.7509 H   0  0  0  0  0  0  0  0  0  0  0  0
    5.5905    1.2225   17.7003 C   0  0  0  0  0  0  0  0  0  0  0  0
    6.7649    0.5790   17.6744 N   0  0  0  0  0  0  0  0  0  0  0  0
    7.2221    0.0726   18.8295 C   0  0  0  0  0  0  0  0  0  0  0  0
    8.1884   -0.4177   18.7838 H   0  0  0  0  0  0  0  0  0  0  0  0
    6.5294    0.1587   20.0430 C   0  0  0  0  0  0  0  0  0  0  0  0
    7.1303   -0.4589   21.2448 C   0  0  0  0  0  0  0  0  0  0  0  0
    6.5155   -0.3652   22.3942 N   0  0  0  0  0  0  0  0  0  0  0  0
    7.4348   -1.1394   23.5347 S   0  0  0  0  0  0  0  0  0  0  0  0
    8.6636   -1.5386   22.3815 C   0  0  0  0  0  0  0  0  0  0  0  0
    9.8977   -2.3093   22.7983 C   0  0  0  0  0  0  0  0  0  0  0  0
    9.9900   -2.2501   23.8915 H   0  0  0  0  0  0  0  0  0  0  0  0
    9.7200   -3.3724   22.5675 H   0  0  0  0  0  0  0  0  0  0  0  0
   11.2251   -1.8782   22.1405 C   0  0  0  0  0  0  0  0  0  0  0  0
   11.1710   -2.0912   21.0668 H   0  0  0  0  0  0  0  0  0  0  0  0
   12.0204   -2.5253   22.5384 H   0  0  0  0  0  0  0  0  0  0  0  0
   11.6368   -0.4069   22.2970 C   0  0  0  0  0  0  0  0  0  0  0  0
   10.8089    0.2401   21.9659 H   0  0  0  0  0  0  0  0  0  0  0  0
   12.4461   -0.2160   21.5836 H   0  0  0  0  0  0  0  0  0  0  0  0
   12.2127    0.0121   23.6624 C   0  0  0  0  0  0  0  0  0  0  0  0
   13.2293   -0.4069   23.7191 H   0  0  0  0  0  0  0  0  0  0  0  0
   11.6386   -0.4114   24.5062 H   0  0  0  0  0  0  0  0  0  0  0  0
   12.3365    1.5326   23.8507 C   0  0  0  0  0  0  0  0  0  0  0  0
   12.6518    1.9929   22.8984 H   0  0  0  0  0  0  0  0  0  0  0  0
   13.1546    1.7199   24.5587 H   0  0  0  0  0  0  0  0  0  0  0  0
   11.0858    2.2375   24.4073 C   0  0  0  0  0  0  0  0  0  0  0  0
   10.8558    1.8104   25.3938 H   0  0  0  0  0  0  0  0  0  0  0  0
   11.3363    3.2941   24.5819 H   0  0  0  0  0  0  0  0  0  0  0  0
    9.8164    2.1983   23.5456 C   0  0  0  0  0  0  0  0  0  0  0  0
    9.5096    1.1612   23.3555 H   0  0  0  0  0  0  0  0  0  0  0  0
    8.9912    2.6425   24.1208 H   0  0  0  0  0  0  0  0  0  0  0  0
    9.9817    2.9608   22.2329 C   0  0  0  0  0  0  0  0  0  0  0  0
   10.2680    4.0011   22.4398 H   0  0  0  0  0  0  0  0  0  0  0  0
   10.7726    2.5239   21.6096 H   0  0  0  0  0  0  0  0  0  0  0  0
    9.0609    2.9754   21.6389 H   0  0  0  0  0  0  0  0  0  0  0  0
    8.3457   -1.1198   21.1861 N   0  0  0  0  0  0  0  0  0  0  0  0
    5.2999    0.8504   20.0574 C   0  0  0  0  0  0  0  0  0  0  0  0
    4.7341    0.9896   20.9808 H   0  0  0  0  0  0  0  0  0  0  0  0
    4.8258    1.3806   18.8592 C   0  0  0  0  0  0  0  0  0  0  0  0
    3.8898    1.9314   18.8067 H   0  0  0  0  0  0  0  0  0  0  0  0
  1  2  1  0
  2  3  2  0
  3  4  1  0
  4  5  1  0
  4  6  2  0
  6  7  1  0
  7  8  2  0
  8  9  1  0
  9 10  1  0
 10 11  1  0
 11 12  1  0
 11 13  1  0
 11 14  1  0
 14 15  1  0
 14 16  1  0
 14 17  1  0
 17 18  1  0
 17 19  1  0
 17 20  1  0
 20 21  1  0
 20 22  1  0
 20 23  1  0
 23 24  1  0
 23 25  1  0
 23 26  1  0
 26 27  1  0
 26 28  1  0
 26 29  1  0
 29 30  1  0
 29 31  1  0
 29 32  1  0
 32 33  1  0
 32 34  1  0
 32 35  1  0
 10 36  2  0
  6 37  1  0
 37 38  1  0
 37 39  2  0
 39 40  1  0
 39  2  1  0
 36  7  1  0
M  END
>  <cnnaffinity>  (1) 
-5.48098

>  <filename>  (1) 
CCCCCCCCc1nc(-c2cccnc2)ns1

$$$$
