
     RDKit          3D

 32 33  0  0  0  0  0  0  0  0999 V2000
    8.8253   -3.1608   22.1534 H   0  0  0  0  0  0  0  0  0  0  0  0
    8.3816   -2.1999   21.9265 C   0  0  0  0  0  0  0  0  0  0  0  0
    8.4452   -1.1482   22.7857 N   0  0  0  0  0  0  0  0  0  0  0  0
    7.7963   -0.1994   22.1419 C   0  0  0  0  0  0  0  0  0  0  0  0
    7.6902    1.2317   22.5678 C   0  0  0  0  0  0  0  0  0  0  0  0
    7.9625    1.2665   23.6274 H   0  0  0  0  0  0  0  0  0  0  0  0
    6.6494    1.5633   22.5025 H   0  0  0  0  0  0  0  0  0  0  0  0
    8.5894    2.1700   21.7397 C   0  0  0  0  0  0  0  0  0  0  0  0
    8.2176    2.1928   20.7067 H   0  0  0  0  0  0  0  0  0  0  0  0
    8.4759    3.1891   22.1329 H   0  0  0  0  0  0  0  0  0  0  0  0
   10.0765    1.7731   21.7269 C   0  0  0  0  0  0  0  0  0  0  0  0
   10.1878    0.7924   21.2413 H   0  0  0  0  0  0  0  0  0  0  0  0
   10.6169    2.4927   21.0938 H   0  0  0  0  0  0  0  0  0  0  0  0
   10.7562    1.7284   23.1032 C   0  0  0  0  0  0  0  0  0  0  0  0
   10.2773    0.9683   23.7389 H   0  0  0  0  0  0  0  0  0  0  0  0
   11.7962    1.4019   22.9674 H   0  0  0  0  0  0  0  0  0  0  0  0
   10.7600    3.0741   23.8225 C   0  0  0  0  0  0  0  0  0  0  0  0
    9.7476    3.3698   24.1222 H   0  0  0  0  0  0  0  0  0  0  0  0
   11.1694    3.8589   23.1732 H   0  0  0  0  0  0  0  0  0  0  0  0
   11.3775    3.0219   24.7224 H   0  0  0  0  0  0  0  0  0  0  0  0
    7.3650   -0.6782   20.9348 N   0  0  0  0  0  0  0  0  0  0  0  0
    6.6592    0.0063   19.9039 C   0  0  0  0  0  0  0  0  0  0  0  0
    7.1817    0.0503   18.5996 C   0  0  0  0  0  0  0  0  0  0  0  0
    8.1314   -0.4395   18.3827 H   0  0  0  0  0  0  0  0  0  0  0  0
    6.5711    0.6810   17.5908 N   0  0  0  0  0  0  0  0  0  0  0  0
    5.4001    1.2919   17.8450 C   0  0  0  0  0  0  0  0  0  0  0  0
    4.9060    1.7730   17.0046 H   0  0  0  0  0  0  0  0  0  0  0  0
    4.8061    1.3110   19.1098 C   0  0  0  0  0  0  0  0  0  0  0  0
    3.8722    1.8445   19.2686 H   0  0  0  0  0  0  0  0  0  0  0  0
    5.4465    0.6549   20.1641 C   0  0  0  0  0  0  0  0  0  0  0  0
    5.0097    0.6253   21.1601 H   0  0  0  0  0  0  0  0  0  0  0  0
    7.7564   -1.9670   20.7919 N   0  0  0  0  0  0  0  0  0  0  0  0
  1  2  1  0
  2  3  1  0
  3  4  2  0
  4  5  1  0
  5  6  1  0
  5  7  1  0
  5  8  1  0
  8  9  1  0
  8 10  1  0
  8 11  1  0
 11 12  1  0
 11 13  1  0
 11 14  1  0
 14 15  1  0
 14 16  1  0
 14 17  1  0
 17 18  1  0
 17 19  1  0
 17 20  1  0
  4 21  1  0
 21 22  1  0
 22 23  2  0
 23 24  1  0
 23 25  1  0
 25 26  2  0
 26 27  1  0
 26 28  1  0
 28 29  1  0
 28 30  2  0
 30 31  1  0
 21 32  1  0
 32  2  2  0
 30 22  1  0
M  END
>  <cnnaffinity>  (1) 
-5.09388

>  <filename>  (1) 
CCCCCc1ncnn1-c1cccnc1

$$$$
