
     RDKit          3D

 52 53  0  0  0  0  0  0  0  0999 V2000
    4.8612    1.8148   16.9527 H   0  0  0  0  0  0  0  0  0  0  0  0
    5.3656    1.3415   17.7960 C   0  0  0  0  0  0  0  0  0  0  0  0
    6.5297    0.7293   17.5244 N   0  0  0  0  0  0  0  0  0  0  0  0
    7.1710    0.1509   18.5512 C   0  0  0  0  0  0  0  0  0  0  0  0
    8.0921   -0.3702   18.2958 H   0  0  0  0  0  0  0  0  0  0  0  0
    6.7357    0.1683   19.9080 C   0  0  0  0  0  0  0  0  0  0  0  0
    7.4851   -0.5104   20.9204 N   0  0  0  0  0  0  0  0  0  0  0  0
    7.5264   -1.9660   20.7868 C   0  0  0  0  0  0  0  0  0  0  0  0
    8.5476   -2.3513   20.9597 H   0  0  0  0  0  0  0  0  0  0  0  0
    7.2432   -2.1655   19.7551 H   0  0  0  0  0  0  0  0  0  0  0  0
    6.5327   -2.7904   21.6341 C   0  0  0  0  0  0  0  0  0  0  0  0
    5.5613   -2.2753   21.6395 H   0  0  0  0  0  0  0  0  0  0  0  0
    6.3559   -3.7255   21.0886 H   0  0  0  0  0  0  0  0  0  0  0  0
    6.9216   -3.1221   23.0051 N   0  0  0  0  0  0  0  0  0  0  0  0
    7.6590   -4.3796   23.1456 C   0  0  0  0  0  0  0  0  0  0  0  0
    8.7228   -4.2632   22.8486 H   0  0  0  0  0  0  0  0  0  0  0  0
    7.2228   -5.1090   22.4464 H   0  0  0  0  0  0  0  0  0  0  0  0
    7.5834   -4.9829   24.5535 C   0  0  0  0  0  0  0  0  0  0  0  0
    8.0837   -4.3093   25.2646 H   0  0  0  0  0  0  0  0  0  0  0  0
    8.1683   -5.9144   24.5566 H   0  0  0  0  0  0  0  0  0  0  0  0
    6.1483   -5.2641   25.0250 C   0  0  0  0  0  0  0  0  0  0  0  0
    5.6532   -5.9296   24.3025 H   0  0  0  0  0  0  0  0  0  0  0  0
    5.5814   -4.3197   25.0077 H   0  0  0  0  0  0  0  0  0  0  0  0
    6.0559   -5.8971   26.4190 C   0  0  0  0  0  0  0  0  0  0  0  0
    5.0132   -6.1983   26.5968 H   0  0  0  0  0  0  0  0  0  0  0  0
    6.6465   -6.8263   26.4367 H   0  0  0  0  0  0  0  0  0  0  0  0
    6.5046   -4.9756   27.5636 C   0  0  0  0  0  0  0  0  0  0  0  0
    7.5769   -4.7492   27.4566 H   0  0  0  0  0  0  0  0  0  0  0  0
    5.9787   -4.0139   27.4722 H   0  0  0  0  0  0  0  0  0  0  0  0
    6.2505   -5.5463   28.9665 C   0  0  0  0  0  0  0  0  0  0  0  0
    5.1796   -5.7847   29.0721 H   0  0  0  0  0  0  0  0  0  0  0  0
    6.4621   -4.7648   29.7114 H   0  0  0  0  0  0  0  0  0  0  0  0
    7.0782   -6.7941   29.2984 C   0  0  0  0  0  0  0  0  0  0  0  0
    8.1407   -6.5689   29.1259 H   0  0  0  0  0  0  0  0  0  0  0  0
    6.8212   -7.6002   28.5980 H   0  0  0  0  0  0  0  0  0  0  0  0
    6.8697   -7.2959   30.7283 C   0  0  0  0  0  0  0  0  0  0  0  0
    7.1304   -6.5265   31.4663 H   0  0  0  0  0  0  0  0  0  0  0  0
    7.4859   -8.1786   30.9327 H   0  0  0  0  0  0  0  0  0  0  0  0
    5.8212   -7.5756   30.8920 H   0  0  0  0  0  0  0  0  0  0  0  0
    7.5068   -2.0327   23.8044 C   0  0  0  0  0  0  0  0  0  0  0  0
    7.2028   -2.2057   24.8489 H   0  0  0  0  0  0  0  0  0  0  0  0
    8.6175   -2.0890   23.8057 H   0  0  0  0  0  0  0  0  0  0  0  0
    7.0886   -0.6011   23.4342 C   0  0  0  0  0  0  0  0  0  0  0  0
    7.2904    0.0181   24.3173 H   0  0  0  0  0  0  0  0  0  0  0  0
    6.0123   -0.5625   23.2754 H   0  0  0  0  0  0  0  0  0  0  0  0
    7.7841    0.0616   22.2320 C   0  0  0  0  0  0  0  0  0  0  0  0
    7.4878    1.1226   22.2114 H   0  0  0  0  0  0  0  0  0  0  0  0
    8.8785    0.0436   22.4002 H   0  0  0  0  0  0  0  0  0  0  0  0
    5.4920    0.7779   20.1465 C   0  0  0  0  0  0  0  0  0  0  0  0
    5.0665    0.7512   21.1460 H   0  0  0  0  0  0  0  0  0  0  0  0
    4.8011    1.3658   19.0739 C   0  0  0  0  0  0  0  0  0  0  0  0
    3.8376    1.8382   19.2229 H   0  0  0  0  0  0  0  0  0  0  0  0
  1  2  1  0
  2  3  2  0
  3  4  1  0
  4  5  1  0
  4  6  2  0
  6  7  1  0
  7  8  1  0
  8  9  1  0
  8 10  1  0
  8 11  1  0
 11 12  1  0
 11 13  1  0
 11 14  1  0
 14 15  1  0
 15 16  1  0
 15 17  1  0
 15 18  1  0
 18 19  1  0
 18 20  1  0
 18 21  1  0
 21 22  1  0
 21 23  1  0
 21 24  1  0
 24 25  1  0
 24 26  1  0
 24 27  1  0
 27 28  1  0
 27 29  1  0
 27 30  1  0
 30 31  1  0
 30 32  1  0
 30 33  1  0
 33 34  1  0
 33 35  1  0
 33 36  1  0
 36 37  1  0
 36 38  1  0
 36 39  1  0
 14 40  1  0
 40 41  1  0
 40 42  1  0
 40 43  1  0
 43 44  1  0
 43 45  1  0
 43 46  1  0
 46 47  1  0
 46 48  1  0
  6 49  1  0
 49 50  1  0
 49 51  2  0
 51 52  1  0
 51  2  1  0
 46  7  1  0
M  END
>  <cnnaffinity>  (1) 
-5.08044

>  <filename>  (1) 
CCCCCCCCN1CCCN(c2cccnc2)CC1

$$$$
