
     RDKit          3D

 41 42  0  0  0  0  0  0  0  0999 V2000
    4.9513    1.7826   16.9869 H   0  0  0  0  0  0  0  0  0  0  0  0
    5.4103    1.2853   17.8356 C   0  0  0  0  0  0  0  0  0  0  0  0
    6.5713    0.6626   17.5856 N   0  0  0  0  0  0  0  0  0  0  0  0
    7.1768    0.0482   18.6076 C   0  0  0  0  0  0  0  0  0  0  0  0
    8.1262   -0.4260   18.3651 H   0  0  0  0  0  0  0  0  0  0  0  0
    6.6443    0.0147   19.9000 C   0  0  0  0  0  0  0  0  0  0  0  0
    7.3480   -0.6745   20.9724 C   0  0  0  0  0  0  0  0  0  0  0  0
    6.9676   -0.7548   22.2066 N   0  0  0  0  0  0  0  0  0  0  0  0
    7.9510   -1.4931   22.8411 C   0  0  0  0  0  0  0  0  0  0  0  0
    7.8285   -1.9200   24.2664 C   0  0  0  0  0  0  0  0  0  0  0  0
    7.3054   -1.1400   24.8346 H   0  0  0  0  0  0  0  0  0  0  0  0
    8.8334   -2.0090   24.6948 H   0  0  0  0  0  0  0  0  0  0  0  0
    7.0967   -3.2645   24.4146 C   0  0  0  0  0  0  0  0  0  0  0  0
    6.0853   -3.1808   23.9921 H   0  0  0  0  0  0  0  0  0  0  0  0
    7.6026   -4.0329   23.8124 H   0  0  0  0  0  0  0  0  0  0  0  0
    7.0224   -3.7329   25.8617 C   0  0  0  0  0  0  0  0  0  0  0  0
    6.5242   -2.9655   26.4725 H   0  0  0  0  0  0  0  0  0  0  0  0
    8.0403   -3.8171   26.2741 H   0  0  0  0  0  0  0  0  0  0  0  0
    6.3046   -5.0772   25.9931 C   0  0  0  0  0  0  0  0  0  0  0  0
    6.7735   -5.8023   25.3121 H   0  0  0  0  0  0  0  0  0  0  0  0
    5.2682   -4.9633   25.6381 H   0  0  0  0  0  0  0  0  0  0  0  0
    6.3015   -5.6353   27.4174 C   0  0  0  0  0  0  0  0  0  0  0  0
    5.9542   -6.6784   27.4021 H   0  0  0  0  0  0  0  0  0  0  0  0
    7.3367   -5.6687   27.7917 H   0  0  0  0  0  0  0  0  0  0  0  0
    5.4414   -4.8291   28.3925 C   0  0  0  0  0  0  0  0  0  0  0  0
    4.4247   -4.7261   27.9852 H   0  0  0  0  0  0  0  0  0  0  0  0
    5.8132   -3.7981   28.4712 H   0  0  0  0  0  0  0  0  0  0  0  0
    5.3738   -5.4650   29.7802 C   0  0  0  0  0  0  0  0  0  0  0  0
    6.3934   -5.5729   30.1788 H   0  0  0  0  0  0  0  0  0  0  0  0
    4.9901   -6.4912   29.6798 H   0  0  0  0  0  0  0  0  0  0  0  0
    4.5044   -4.6700   30.7567 C   0  0  0  0  0  0  0  0  0  0  0  0
    4.4593   -5.1405   31.7456 H   0  0  0  0  0  0  0  0  0  0  0  0
    4.8895   -3.6507   30.8917 H   0  0  0  0  0  0  0  0  0  0  0  0
    3.4751   -4.5746   30.3862 H   0  0  0  0  0  0  0  0  0  0  0  0
    8.8922   -1.8250   21.9299 C   0  0  0  0  0  0  0  0  0  0  0  0
    9.8025   -2.3998   21.9580 H   0  0  0  0  0  0  0  0  0  0  0  0
    8.5157   -1.3063   20.7142 O   0  0  0  0  0  0  0  0  0  0  0  0
    5.4254    0.6585   20.1566 C   0  0  0  0  0  0  0  0  0  0  0  0
    5.0012    0.6421   21.1697 H   0  0  0  0  0  0  0  0  0  0  0  0
    4.8041    1.3103   19.0976 C   0  0  0  0  0  0  0  0  0  0  0  0
    3.8750    1.8433   19.2359 H   0  0  0  0  0  0  0  0  0  0  0  0
  1  2  1  0
  2  3  2  0
  3  4  1  0
  4  5  1  0
  4  6  2  0
  6  7  1  0
  7  8  2  0
  8  9  1  0
  9 10  1  0
 10 11  1  0
 10 12  1  0
 10 13  1  0
 13 14  1  0
 13 15  1  0
 13 16  1  0
 16 17  1  0
 16 18  1  0
 16 19  1  0
 19 20  1  0
 19 21  1  0
 19 22  1  0
 22 23  1  0
 22 24  1  0
 22 25  1  0
 25 26  1  0
 25 27  1  0
 25 28  1  0
 28 29  1  0
 28 30  1  0
 28 31  1  0
 31 32  1  0
 31 33  1  0
 31 34  1  0
  9 35  2  0
 35 36  1  0
 35 37  1  0
  6 38  1  0
 38 39  1  0
 38 40  2  0
 40 41  1  0
 40  2  1  0
 37  7  1  0
M  END
>  <cnnaffinity>  (1) 
-5.34562

>  <filename>  (1) 
CCCCCCCCc1coc(-c2cccnc2)n1

$$$$
