
     RDKit          3D

 41 42  0  0  0  0  0  0  0  0999 V2000
    4.9327    1.8651   16.8572 H   0  0  0  0  0  0  0  0  0  0  0  0
    5.3766    1.3981   17.7372 C   0  0  0  0  0  0  0  0  0  0  0  0
    6.5494    0.7716   17.5618 N   0  0  0  0  0  0  0  0  0  0  0  0
    7.0997    0.1706   18.6210 C   0  0  0  0  0  0  0  0  0  0  0  0
    8.0430   -0.3332   18.4226 H   0  0  0  0  0  0  0  0  0  0  0  0
    6.5442    0.1832   19.9093 C   0  0  0  0  0  0  0  0  0  0  0  0
    7.2477   -0.5603   20.9864 C   0  0  0  0  0  0  0  0  0  0  0  0
    7.7340   -1.7350   20.6566 N   0  0  0  0  0  0  0  0  0  0  0  0
    8.3223   -2.4807   21.6374 C   0  0  0  0  0  0  0  0  0  0  0  0
    8.5979   -3.6616   21.5832 O   0  0  0  0  0  0  0  0  0  0  0  0
    8.6624   -1.8353   22.8318 N   0  0  0  0  0  0  0  0  0  0  0  0
    8.9270   -2.5545   23.4810 H   0  0  0  0  0  0  0  0  0  0  0  0
    8.0139   -0.7160   23.2603 C   0  0  0  0  0  0  0  0  0  0  0  0
    8.0165   -0.4322   24.7305 C   0  0  0  0  0  0  0  0  0  0  0  0
    8.1596    0.6446   24.8872 H   0  0  0  0  0  0  0  0  0  0  0  0
    8.8749   -0.9363   25.1967 H   0  0  0  0  0  0  0  0  0  0  0  0
    6.6994   -0.8773   25.4152 C   0  0  0  0  0  0  0  0  0  0  0  0
    6.7363   -0.5702   26.4708 H   0  0  0  0  0  0  0  0  0  0  0  0
    5.8684   -0.3247   24.9501 H   0  0  0  0  0  0  0  0  0  0  0  0
    6.3765   -2.3834   25.3350 C   0  0  0  0  0  0  0  0  0  0  0  0
    6.3366   -2.7187   24.2835 H   0  0  0  0  0  0  0  0  0  0  0  0
    5.3618   -2.5323   25.7356 H   0  0  0  0  0  0  0  0  0  0  0  0
    7.3255   -3.2979   26.1227 C   0  0  0  0  0  0  0  0  0  0  0  0
    8.3604   -3.1766   25.7677 H   0  0  0  0  0  0  0  0  0  0  0  0
    7.3363   -2.9686   27.1719 H   0  0  0  0  0  0  0  0  0  0  0  0
    6.9312   -4.7818   26.0356 C   0  0  0  0  0  0  0  0  0  0  0  0
    5.8926   -4.9043   26.3867 H   0  0  0  0  0  0  0  0  0  0  0  0
    6.9118   -5.0789   24.9790 H   0  0  0  0  0  0  0  0  0  0  0  0
    7.8545   -5.7504   26.7918 C   0  0  0  0  0  0  0  0  0  0  0  0
    8.8843   -5.6565   26.4094 H   0  0  0  0  0  0  0  0  0  0  0  0
    7.5427   -6.7758   26.5576 H   0  0  0  0  0  0  0  0  0  0  0  0
    7.8475   -5.5430   28.3065 C   0  0  0  0  0  0  0  0  0  0  0  0
    8.5967   -6.1730   28.7970 H   0  0  0  0  0  0  0  0  0  0  0  0
    8.0775   -4.5026   28.5514 H   0  0  0  0  0  0  0  0  0  0  0  0
    6.8618   -5.7591   28.7379 H   0  0  0  0  0  0  0  0  0  0  0  0
    7.3336   -0.0155   22.3031 C   0  0  0  0  0  0  0  0  0  0  0  0
    6.8579    0.9259   22.5414 H   0  0  0  0  0  0  0  0  0  0  0  0
    5.3256    0.8634   20.0800 C   0  0  0  0  0  0  0  0  0  0  0  0
    4.8498    0.9297   21.0601 H   0  0  0  0  0  0  0  0  0  0  0  0
    4.7199    1.4560   18.9705 C   0  0  0  0  0  0  0  0  0  0  0  0
    3.7709    1.9801   19.0527 H   0  0  0  0  0  0  0  0  0  0  0  0
  1  2  1  0
  2  3  2  0
  3  4  1  0
  4  5  1  0
  4  6  2  0
  6  7  1  0
  7  8  2  0
  8  9  1  0
  9 10  2  0
  9 11  1  0
 11 12  1  0
 11 13  1  0
 13 14  1  0
 14 15  1  0
 14 16  1  0
 14 17  1  0
 17 18  1  0
 17 19  1  0
 17 20  1  0
 20 21  1  0
 20 22  1  0
 20 23  1  0
 23 24  1  0
 23 25  1  0
 23 26  1  0
 26 27  1  0
 26 28  1  0
 26 29  1  0
 29 30  1  0
 29 31  1  0
 29 32  1  0
 32 33  1  0
 32 34  1  0
 32 35  1  0
 13 36  2  0
 36 37  1  0
  6 38  1  0
 38 39  1  0
 38 40  2  0
 40 41  1  0
 40  2  1  0
 36  7  1  0
M  END
>  <cnnaffinity>  (1) 
-5.36855

>  <filename>  (1) 
CCCCCCCc1cc(-c2cccnc2)nc(=O)[nH]1

$$$$
