
     RDKit          3D

 39 40  0  0  0  0  0  0  0  0999 V2000
    4.9043    1.8553   16.9633 H   0  0  0  0  0  0  0  0  0  0  0  0
    5.3701    1.3233   17.7906 C   0  0  0  0  0  0  0  0  0  0  0  0
    6.5237    0.6977   17.5071 N   0  0  0  0  0  0  0  0  0  0  0  0
    7.1455    0.0649   18.5089 C   0  0  0  0  0  0  0  0  0  0  0  0
    8.1033   -0.3983   18.2807 H   0  0  0  0  0  0  0  0  0  0  0  0
    6.6350   -0.0128   19.8224 C   0  0  0  0  0  0  0  0  0  0  0  0
    7.3613   -0.6948   20.8862 N   0  0  0  0  0  0  0  0  0  0  0  0
    8.6186   -0.1900   21.3275 C   0  0  0  0  0  0  0  0  0  0  0  0
    9.0942    0.8001   20.8043 O   0  0  0  0  0  0  0  0  0  0  0  0
    9.2833   -0.9159   22.3892 C   0  0  0  0  0  0  0  0  0  0  0  0
   10.2181   -0.4836   22.7106 H   0  0  0  0  0  0  0  0  0  0  0  0
    8.7699   -2.0326   22.9320 C   0  0  0  0  0  0  0  0  0  0  0  0
    9.3687   -2.7881   24.0806 C   0  0  0  0  0  0  0  0  0  0  0  0
    9.0025   -3.8220   24.0760 H   0  0  0  0  0  0  0  0  0  0  0  0
   10.4540   -2.8512   23.9349 H   0  0  0  0  0  0  0  0  0  0  0  0
    9.0899   -2.1262   25.4481 C   0  0  0  0  0  0  0  0  0  0  0  0
    9.6459   -2.6608   26.2293 H   0  0  0  0  0  0  0  0  0  0  0  0
    9.4868   -1.1004   25.4298 H   0  0  0  0  0  0  0  0  0  0  0  0
    7.6183   -2.1055   25.8687 C   0  0  0  0  0  0  0  0  0  0  0  0
    7.2383   -3.1371   25.8825 H   0  0  0  0  0  0  0  0  0  0  0  0
    7.0040   -1.5724   25.1316 H   0  0  0  0  0  0  0  0  0  0  0  0
    7.4097   -1.4838   27.2548 C   0  0  0  0  0  0  0  0  0  0  0  0
    7.7470   -0.4381   27.2443 H   0  0  0  0  0  0  0  0  0  0  0  0
    8.0848   -2.0014   27.9441 H   0  0  0  0  0  0  0  0  0  0  0  0
    5.9456   -1.5415   27.7186 C   0  0  0  0  0  0  0  0  0  0  0  0
    5.6397   -2.5958   27.8064 H   0  0  0  0  0  0  0  0  0  0  0  0
    5.3375   -1.1014   26.9182 H   0  0  0  0  0  0  0  0  0  0  0  0
    5.5548   -0.7948   29.0046 C   0  0  0  0  0  0  0  0  0  0  0  0
    5.8832   -1.2976   29.9186 H   0  0  0  0  0  0  0  0  0  0  0  0
    4.4607   -0.7257   29.0705 H   0  0  0  0  0  0  0  0  0  0  0  0
    5.9385    0.2339   29.0295 H   0  0  0  0  0  0  0  0  0  0  0  0
    7.5581   -2.4489   22.4371 N   0  0  0  0  0  0  0  0  0  0  0  0
    7.0262   -3.2062   22.8265 H   0  0  0  0  0  0  0  0  0  0  0  0
    6.7939   -1.8129   21.4878 C   0  0  0  0  0  0  0  0  0  0  0  0
    5.7127   -2.2767   21.2106 O   0  0  0  0  0  0  0  0  0  0  0  0
    5.4236    0.6257   20.0987 C   0  0  0  0  0  0  0  0  0  0  0  0
    5.0069    0.5922   21.1039 H   0  0  0  0  0  0  0  0  0  0  0  0
    4.7852    1.3183   19.0599 C   0  0  0  0  0  0  0  0  0  0  0  0
    3.8638    1.8646   19.2219 H   0  0  0  0  0  0  0  0  0  0  0  0
  1  2  1  0
  2  3  2  0
  3  4  1  0
  4  5  1  0
  4  6  2  0
  6  7  1  0
  7  8  1  0
  8  9  2  0
  8 10  1  0
 10 11  1  0
 10 12  2  0
 12 13  1  0
 13 14  1  0
 13 15  1  0
 13 16  1  0
 16 17  1  0
 16 18  1  0
 16 19  1  0
 19 20  1  0
 19 21  1  0
 19 22  1  0
 22 23  1  0
 22 24  1  0
 22 25  1  0
 25 26  1  0
 25 27  1  0
 25 28  1  0
 28 29  1  0
 28 30  1  0
 28 31  1  0
 12 32  1  0
 32 33  1  0
 32 34  1  0
 34 35  2  0
  6 36  1  0
 36 37  1  0
 36 38  2  0
 38 39  1  0
 38  2  1  0
 34  7  1  0
M  END
>  <cnnaffinity>  (1) 
-5.41602

>  <filename>  (1) 
CCCCCCc1cc(=O)n(-c2cccnc2)c(=O)[nH]1

$$$$
