
     RDKit          3D

 34 35  0  0  0  0  0  0  0  0999 V2000
    9.1603   -2.7090   23.6497 H   0  0  0  0  0  0  0  0  0  0  0  0
    8.6514   -2.1288   22.8804 C   0  0  0  0  0  0  0  0  0  0  0  0
    8.1126   -2.8158   21.8762 N   0  0  0  0  0  0  0  0  0  0  0  0
    7.4813   -2.0947   20.9500 C   0  0  0  0  0  0  0  0  0  0  0  0
    7.0136   -2.6500   20.1372 H   0  0  0  0  0  0  0  0  0  0  0  0
    7.3739   -0.7070   20.9815 C   0  0  0  0  0  0  0  0  0  0  0  0
    6.6524    0.0230   19.8801 C   0  0  0  0  0  0  0  0  0  0  0  0
    7.1463    0.0671   18.5576 C   0  0  0  0  0  0  0  0  0  0  0  0
    8.1026   -0.4073   18.3302 H   0  0  0  0  0  0  0  0  0  0  0  0
    6.5371    0.6850   17.5375 N   0  0  0  0  0  0  0  0  0  0  0  0
    5.3775    1.3083   17.8059 C   0  0  0  0  0  0  0  0  0  0  0  0
    4.9100    1.8180   16.9658 H   0  0  0  0  0  0  0  0  0  0  0  0
    4.7895    1.3206   19.0751 C   0  0  0  0  0  0  0  0  0  0  0  0
    3.8597    1.8517   19.2300 H   0  0  0  0  0  0  0  0  0  0  0  0
    5.4358    0.6688   20.1288 C   0  0  0  0  0  0  0  0  0  0  0  0
    5.0274    0.6395   21.1411 H   0  0  0  0  0  0  0  0  0  0  0  0
    7.9724   -0.0921   22.0979 C   0  0  0  0  0  0  0  0  0  0  0  0
    8.0101    1.4098   22.2420 C   0  0  0  0  0  0  0  0  0  0  0  0
    8.2343    1.6461   23.2871 H   0  0  0  0  0  0  0  0  0  0  0  0
    7.0218    1.8219   22.0121 H   0  0  0  0  0  0  0  0  0  0  0  0
    9.0171    2.0700   21.2807 C   0  0  0  0  0  0  0  0  0  0  0  0
    8.6409    1.8733   20.2702 H   0  0  0  0  0  0  0  0  0  0  0  0
    8.9739    3.1591   21.4120 H   0  0  0  0  0  0  0  0  0  0  0  0
   10.4718    1.5890   21.4323 C   0  0  0  0  0  0  0  0  0  0  0  0
   10.5208    0.5161   21.1986 H   0  0  0  0  0  0  0  0  0  0  0  0
   11.1043    2.0945   20.6875 H   0  0  0  0  0  0  0  0  0  0  0  0
   11.0751    1.8149   22.8298 C   0  0  0  0  0  0  0  0  0  0  0  0
   10.4838    1.2499   23.5648 H   0  0  0  0  0  0  0  0  0  0  0  0
   12.0743    1.3594   22.8514 H   0  0  0  0  0  0  0  0  0  0  0  0
   11.1781    3.2931   23.2308 C   0  0  0  0  0  0  0  0  0  0  0  0
   11.6939    3.8757   22.4562 H   0  0  0  0  0  0  0  0  0  0  0  0
   10.1910    3.7516   23.3663 H   0  0  0  0  0  0  0  0  0  0  0  0
   11.7310    3.4262   24.1677 H   0  0  0  0  0  0  0  0  0  0  0  0
    8.6206   -0.8047   23.0317 N   0  0  0  0  0  0  0  0  0  0  0  0
  1  2  1  0
  2  3  2  0
  3  4  1  0
  4  5  1  0
  4  6  2  0
  6  7  1  0
  7  8  2  0
  8  9  1  0
  8 10  1  0
 10 11  2  0
 11 12  1  0
 11 13  1  0
 13 14  1  0
 13 15  2  0
 15 16  1  0
  6 17  1  0
 17 18  1  0
 18 19  1  0
 18 20  1  0
 18 21  1  0
 21 22  1  0
 21 23  1  0
 21 24  1  0
 24 25  1  0
 24 26  1  0
 24 27  1  0
 27 28  1  0
 27 29  1  0
 27 30  1  0
 30 31  1  0
 30 32  1  0
 30 33  1  0
 17 34  2  0
 34  2  1  0
 15  7  1  0
M  END
>  <cnnaffinity>  (1) 
-5.17883

>  <filename>  (1) 
CCCCCc1ncncc1-c1cccnc1

$$$$
