
     RDKit          3D

 40 41  0  0  0  0  0  0  0  0999 V2000
    4.9583    1.7306   16.8048 H   0  0  0  0  0  0  0  0  0  0  0  0
    5.3911    1.3043   17.7073 C   0  0  0  0  0  0  0  0  0  0  0  0
    6.5599    0.6557   17.5461 N   0  0  0  0  0  0  0  0  0  0  0  0
    7.1146    0.1108   18.6320 C   0  0  0  0  0  0  0  0  0  0  0  0
    8.0491   -0.4361   18.5021 H   0  0  0  0  0  0  0  0  0  0  0  0
    6.5554    0.2066   19.9264 C   0  0  0  0  0  0  0  0  0  0  0  0
    7.1863   -0.3663   21.0445 N   0  0  0  0  0  0  0  0  0  0  0  0
    7.1862    0.0441   22.3959 C   0  0  0  0  0  0  0  0  0  0  0  0
    6.6340    1.0352   22.8464 O   0  0  0  0  0  0  0  0  0  0  0  0
    7.9658   -0.9946   23.0509 C   0  0  0  0  0  0  0  0  0  0  0  0
    8.1111   -0.9945   24.1142 H   0  0  0  0  0  0  0  0  0  0  0  0
    8.3725   -1.8994   22.1381 C   0  0  0  0  0  0  0  0  0  0  0  0
    9.1168   -3.1832   22.2332 C   0  0  0  0  0  0  0  0  0  0  0  0
    9.7438   -3.1865   23.1322 H   0  0  0  0  0  0  0  0  0  0  0  0
    9.8048   -3.1377   21.3836 H   0  0  0  0  0  0  0  0  0  0  0  0
    8.2488   -4.4728   22.1855 C   0  0  0  0  0  0  0  0  0  0  0  0
    8.9039   -5.3498   22.2674 H   0  0  0  0  0  0  0  0  0  0  0  0
    7.7697   -4.5552   21.2004 H   0  0  0  0  0  0  0  0  0  0  0  0
    7.1898   -4.6196   23.2882 C   0  0  0  0  0  0  0  0  0  0  0  0
    6.6245   -5.5467   23.1104 H   0  0  0  0  0  0  0  0  0  0  0  0
    6.4551   -3.8061   23.2132 H   0  0  0  0  0  0  0  0  0  0  0  0
    7.7887   -4.6932   24.6988 C   0  0  0  0  0  0  0  0  0  0  0  0
    8.4322   -5.5830   24.7658 H   0  0  0  0  0  0  0  0  0  0  0  0
    8.4498   -3.8308   24.8645 H   0  0  0  0  0  0  0  0  0  0  0  0
    6.7574   -4.7383   25.8296 C   0  0  0  0  0  0  0  0  0  0  0  0
    6.0799   -5.5931   25.6837 H   0  0  0  0  0  0  0  0  0  0  0  0
    7.2809   -4.9312   26.7766 H   0  0  0  0  0  0  0  0  0  0  0  0
    5.9318   -3.4558   25.9790 C   0  0  0  0  0  0  0  0  0  0  0  0
    5.3786   -3.2558   25.0518 H   0  0  0  0  0  0  0  0  0  0  0  0
    6.6115   -2.5993   26.0986 H   0  0  0  0  0  0  0  0  0  0  0  0
    4.9530   -3.5094   27.1520 C   0  0  0  0  0  0  0  0  0  0  0  0
    5.4744   -3.6668   28.1037 H   0  0  0  0  0  0  0  0  0  0  0  0
    4.3787   -2.5812   27.2373 H   0  0  0  0  0  0  0  0  0  0  0  0
    4.2379   -4.3327   27.0369 H   0  0  0  0  0  0  0  0  0  0  0  0
    7.9868   -1.5072   20.8536 N   0  0  0  0  0  0  0  0  0  0  0  0
    7.4512   -2.2429   20.3856 H   0  0  0  0  0  0  0  0  0  0  0  0
    5.3361    0.8829   20.0820 C   0  0  0  0  0  0  0  0  0  0  0  0
    4.9044    0.9669   21.0767 H   0  0  0  0  0  0  0  0  0  0  0  0
    4.7428    1.4277   18.9401 C   0  0  0  0  0  0  0  0  0  0  0  0
    3.7918    1.9499   18.9971 H   0  0  0  0  0  0  0  0  0  0  0  0
  1  2  1  0
  2  3  2  0
  3  4  1  0
  4  5  1  0
  4  6  2  0
  6  7  1  0
  7  8  1  0
  8  9  2  0
  8 10  1  0
 10 11  1  0
 10 12  2  0
 12 13  1  0
 13 14  1  0
 13 15  1  0
 13 16  1  0
 16 17  1  0
 16 18  1  0
 16 19  1  0
 19 20  1  0
 19 21  1  0
 19 22  1  0
 22 23  1  0
 22 24  1  0
 22 25  1  0
 25 26  1  0
 25 27  1  0
 25 28  1  0
 28 29  1  0
 28 30  1  0
 28 31  1  0
 31 32  1  0
 31 33  1  0
 31 34  1  0
 12 35  1  0
 35 36  1  0
  6 37  1  0
 37 38  1  0
 37 39  2  0
 39 40  1  0
 39  2  1  0
 35  7  1  0
M  END
>  <cnnaffinity>  (1) 
-5.37589

>  <filename>  (1) 
CCCCCCCc1cc(=O)n(-c2cccnc2)[nH]1

$$$$
