
     RDKit          3D

 45 45  0  0  0  0  0  0  0  0999 V2000
    4.9702    1.8336   16.9739 H   0  0  0  0  0  0  0  0  0  0  0  0
    5.4140    1.3010   17.8133 C   0  0  0  0  0  0  0  0  0  0  0  0
    6.5690    0.6665   17.5703 N   0  0  0  0  0  0  0  0  0  0  0  0
    7.1358    0.0204   18.5984 C   0  0  0  0  0  0  0  0  0  0  0  0
    8.0844   -0.4711   18.3689 H   0  0  0  0  0  0  0  0  0  0  0  0
    6.6084   -0.0374   19.8930 C   0  0  0  0  0  0  0  0  0  0  0  0
    7.3971   -0.7381   20.9894 C   0  0  2  0  0  0  0  0  0  0  0  0
    8.1956   -1.3084   20.5018 H   0  0  0  0  0  0  0  0  0  0  0  0
    6.6021   -1.6921   21.7475 N   0  0  0  0  0  0  0  0  0  0  0  0
    6.1957   -1.3824   22.6148 H   0  0  0  0  0  0  0  0  0  0  0  0
    5.9857   -2.7485   21.1394 C   0  0  0  0  0  0  0  0  0  0  0  0
    6.1090   -2.9973   19.9573 O   0  0  0  0  0  0  0  0  0  0  0  0
    5.1576   -3.6237   22.0603 C   0  0  0  0  0  0  0  0  0  0  0  0
    4.5118   -2.9908   22.6757 H   0  0  0  0  0  0  0  0  0  0  0  0
    4.5100   -4.1958   21.4084 H   0  0  0  0  0  0  0  0  0  0  0  0
    5.9326   -4.6180   22.9352 C   0  0  0  0  0  0  0  0  0  0  0  0
    6.6539   -4.0987   23.5767 H   0  0  0  0  0  0  0  0  0  0  0  0
    6.5372   -5.2632   22.2809 H   0  0  0  0  0  0  0  0  0  0  0  0
    5.0071   -5.4770   23.8124 C   0  0  0  0  0  0  0  0  0  0  0  0
    5.6428   -6.0623   24.4875 H   0  0  0  0  0  0  0  0  0  0  0  0
    4.4244   -4.8238   24.4794 H   0  0  0  0  0  0  0  0  0  0  0  0
    4.0549   -6.4241   23.0485 C   0  0  0  0  0  0  0  0  0  0  0  0
    4.4691   -6.6420   22.0537 H   0  0  0  0  0  0  0  0  0  0  0  0
    4.0355   -7.3878   23.5680 H   0  0  0  0  0  0  0  0  0  0  0  0
    2.6063   -5.9311   22.8979 C   0  0  0  0  0  0  0  0  0  0  0  0
    2.6072   -4.9209   22.4686 H   0  0  0  0  0  0  0  0  0  0  0  0
    2.1713   -5.8175   23.8999 H   0  0  0  0  0  0  0  0  0  0  0  0
    1.6856   -6.8339   22.0630 C   0  0  0  0  0  0  0  0  0  0  0  0
    2.1031   -6.9607   21.0591 H   0  0  0  0  0  0  0  0  0  0  0  0
    0.7244   -6.3232   21.9156 H   0  0  0  0  0  0  0  0  0  0  0  0
    1.4183   -8.2313   22.6297 C   0  0  0  0  0  0  0  0  0  0  0  0
    1.0158   -8.1492   23.6466 H   0  0  0  0  0  0  0  0  0  0  0  0
    2.3677   -8.7715   22.7206 H   0  0  0  0  0  0  0  0  0  0  0  0
    0.4573   -9.0482   21.7656 C   0  0  0  0  0  0  0  0  0  0  0  0
    0.2799  -10.0461   22.1799 H   0  0  0  0  0  0  0  0  0  0  0  0
   -0.5163   -8.5533   21.6720 H   0  0  0  0  0  0  0  0  0  0  0  0
    0.8568   -9.1776   20.7537 H   0  0  0  0  0  0  0  0  0  0  0  0
    8.0230    0.2560   21.9589 C   0  0  0  0  0  0  0  0  0  0  0  0
    7.2421    0.8650   22.4283 H   0  0  0  0  0  0  0  0  0  0  0  0
    8.5738   -0.2598   22.7515 H   0  0  0  0  0  0  0  0  0  0  0  0
    8.7139    0.9264   21.4380 H   0  0  0  0  0  0  0  0  0  0  0  0
    5.4000    0.6378   20.1243 C   0  0  0  0  0  0  0  0  0  0  0  0
    4.9493    0.6510   21.1183 H   0  0  0  0  0  0  0  0  0  0  0  0
    4.7909    1.3113   19.0647 C   0  0  0  0  0  0  0  0  0  0  0  0
    3.8667    1.8621   19.2021 H   0  0  0  0  0  0  0  0  0  0  0  0
  1  2  1  0
  2  3  2  0
  3  4  1  0
  4  5  1  0
  4  6  2  0
  6  7  1  0
  7  8  1  6
  7  9  1  0
  9 10  1  0
  9 11  1  0
 11 12  2  0
 11 13  1  0
 13 14  1  0
 13 15  1  0
 13 16  1  0
 16 17  1  0
 16 18  1  0
 16 19  1  0
 19 20  1  0
 19 21  1  0
 19 22  1  0
 22 23  1  0
 22 24  1  0
 22 25  1  0
 25 26  1  0
 25 27  1  0
 25 28  1  0
 28 29  1  0
 28 30  1  0
 28 31  1  0
 31 32  1  0
 31 33  1  0
 31 34  1  0
 34 35  1  0
 34 36  1  0
 34 37  1  0
  7 38  1  0
 38 39  1  0
 38 40  1  0
 38 41  1  0
  6 42  1  0
 42 43  1  0
 42 44  2  0
 44 45  1  0
 44  2  1  0
M  END
>  <cnnaffinity>  (1) 
-4.76517

>  <filename>  (1) 
CCCCCCCCC(=O)N[C@H](C)c1cccnc1

$$$$
