
     RDKit          3D

 40 41  0  0  0  0  0  0  0  0999 V2000
   10.3871   -1.5055   22.2347 H   0  0  0  0  0  0  0  0  0  0  0  0
    9.3046   -1.4372   22.1186 C   0  0  0  0  0  0  0  0  0  0  0  0
    8.5731   -2.0418   23.0551 N   0  0  0  0  0  0  0  0  0  0  0  0
    7.2486   -1.9558   22.9152 C   0  0  0  0  0  0  0  0  0  0  0  0
    6.3975   -2.5585   24.0025 C   0  0  0  0  0  0  0  0  0  0  0  0
    5.4867   -2.9557   23.5507 H   0  0  0  0  0  0  0  0  0  0  0  0
    6.9490   -3.3960   24.4322 H   0  0  0  0  0  0  0  0  0  0  0  0
    6.0524   -1.5522   25.1198 C   0  0  0  0  0  0  0  0  0  0  0  0
    5.4651   -0.7228   24.7024 H   0  0  0  0  0  0  0  0  0  0  0  0
    6.9793   -1.1073   25.5016 H   0  0  0  0  0  0  0  0  0  0  0  0
    5.2741   -2.1557   26.2923 C   0  0  0  0  0  0  0  0  0  0  0  0
    5.2531   -1.4276   27.1155 H   0  0  0  0  0  0  0  0  0  0  0  0
    5.8073   -3.0318   26.6908 H   0  0  0  0  0  0  0  0  0  0  0  0
    3.8371   -2.5533   25.9598 C   0  0  0  0  0  0  0  0  0  0  0  0
    3.3164   -1.6954   25.5102 H   0  0  0  0  0  0  0  0  0  0  0  0
    3.8302   -3.3377   25.1908 H   0  0  0  0  0  0  0  0  0  0  0  0
    3.0531   -3.0343   27.1754 C   0  0  0  0  0  0  0  0  0  0  0  0
    3.5737   -3.8869   27.6346 H   0  0  0  0  0  0  0  0  0  0  0  0
    3.0465   -2.2478   27.9440 H   0  0  0  0  0  0  0  0  0  0  0  0
    1.6181   -3.4315   26.8451 C   0  0  0  0  0  0  0  0  0  0  0  0
    1.1027   -2.5758   26.3890 H   0  0  0  0  0  0  0  0  0  0  0  0
    1.6295   -4.2184   26.0797 H   0  0  0  0  0  0  0  0  0  0  0  0
    0.8438   -3.9113   28.0686 C   0  0  0  0  0  0  0  0  0  0  0  0
    0.7994   -3.1282   28.8346 H   0  0  0  0  0  0  0  0  0  0  0  0
    1.3320   -4.7819   28.5223 H   0  0  0  0  0  0  0  0  0  0  0  0
   -0.1820   -4.1933   27.8135 H   0  0  0  0  0  0  0  0  0  0  0  0
    6.6194   -1.3204   21.9285 N   0  0  0  0  0  0  0  0  0  0  0  0
    7.3627   -0.7269   20.9948 C   0  0  0  0  0  0  0  0  0  0  0  0
    6.6417   -0.0025   19.9292 C   0  0  0  0  0  0  0  0  0  0  0  0
    7.1710    0.0490   18.6332 C   0  0  0  0  0  0  0  0  0  0  0  0
    8.1122   -0.4328   18.3781 H   0  0  0  0  0  0  0  0  0  0  0  0
    6.5729    0.6616   17.6048 N   0  0  0  0  0  0  0  0  0  0  0  0
    5.4123    1.2850   17.8478 C   0  0  0  0  0  0  0  0  0  0  0  0
    4.9370    1.7731   16.9990 H   0  0  0  0  0  0  0  0  0  0  0  0
    4.8083    1.3132   19.1093 C   0  0  0  0  0  0  0  0  0  0  0  0
    3.8782    1.8433   19.2532 H   0  0  0  0  0  0  0  0  0  0  0  0
    5.4242    0.6528   20.1675 C   0  0  0  0  0  0  0  0  0  0  0  0
    4.9879    0.6353   21.1694 H   0  0  0  0  0  0  0  0  0  0  0  0
    8.7510   -0.7612   21.0443 C   0  0  0  0  0  0  0  0  0  0  0  0
    9.3637   -0.2546   20.3157 H   0  0  0  0  0  0  0  0  0  0  0  0
  1  2  1  0
  2  3  2  0
  3  4  1  0
  4  5  1  0
  5  6  1  0
  5  7  1  0
  5  8  1  0
  8  9  1  0
  8 10  1  0
  8 11  1  0
 11 12  1  0
 11 13  1  0
 11 14  1  0
 14 15  1  0
 14 16  1  0
 14 17  1  0
 17 18  1  0
 17 19  1  0
 17 20  1  0
 20 21  1  0
 20 22  1  0
 20 23  1  0
 23 24  1  0
 23 25  1  0
 23 26  1  0
  4 27  2  0
 27 28  1  0
 28 29  1  0
 29 30  2  0
 30 31  1  0
 30 32  1  0
 32 33  2  0
 33 34  1  0
 33 35  1  0
 35 36  1  0
 35 37  2  0
 37 38  1  0
 28 39  2  0
 39 40  1  0
 39  2  1  0
 37 29  1  0
M  END
>  <cnnaffinity>  (1) 
-4.90242

>  <filename>  (1) 
CCCCCCCc1nccc(-c2cccnc2)n1

$$$$
