
     RDKit          3D

 49 50  0  0  0  0  0  0  0  0999 V2000
    5.8433   -1.6370   21.1428 H   0  0  0  0  0  0  0  0  0  0  0  0
    6.6299   -1.5126   21.6864 O   0  0  0  0  0  0  0  0  0  0  0  0
    7.4972   -0.7153   20.8795 C   0  0  1  0  0  0  0  0  0  0  0  0
    8.2060   -1.3940   20.3734 H   0  0  0  0  0  0  0  0  0  0  0  0
    6.6556   -0.0525   19.8077 C   0  0  0  0  0  0  0  0  0  0  0  0
    7.1045   -0.0740   18.4830 C   0  0  0  0  0  0  0  0  0  0  0  0
    7.9905   -0.6560   18.2215 H   0  0  0  0  0  0  0  0  0  0  0  0
    6.5195    0.5817   17.4716 N   0  0  0  0  0  0  0  0  0  0  0  0
    5.4121    1.2788   17.7574 C   0  0  0  0  0  0  0  0  0  0  0  0
    4.9611    1.8129   16.9247 H   0  0  0  0  0  0  0  0  0  0  0  0
    4.8329    1.3213   19.0317 C   0  0  0  0  0  0  0  0  0  0  0  0
    3.9140    1.8755   19.1873 H   0  0  0  0  0  0  0  0  0  0  0  0
    5.4535    0.6288   20.0704 C   0  0  0  0  0  0  0  0  0  0  0  0
    5.0062    0.6044   21.0701 H   0  0  0  0  0  0  0  0  0  0  0  0
    8.3448    0.2460   21.7742 C   0  0  0  0  0  0  0  0  0  0  0  0
    9.5178   -0.5180   22.4286 C   0  0  0  0  0  0  0  0  0  0  0  0
   10.0858    0.2013   23.0423 H   0  0  0  0  0  0  0  0  0  0  0  0
   10.2126   -0.8573   21.6434 H   0  0  0  0  0  0  0  0  0  0  0  0
    9.0743   -1.6911   23.2914 C   0  0  0  0  0  0  0  0  0  0  0  0
    8.2996   -1.3039   23.9654 H   0  0  0  0  0  0  0  0  0  0  0  0
    8.5826   -2.4561   22.6765 H   0  0  0  0  0  0  0  0  0  0  0  0
   10.1981   -2.3322   24.1051 C   0  0  0  0  0  0  0  0  0  0  0  0
   10.9597   -2.7459   23.4248 H   0  0  0  0  0  0  0  0  0  0  0  0
   10.7004   -1.5566   24.7063 H   0  0  0  0  0  0  0  0  0  0  0  0
    9.6734   -3.4481   25.0144 C   0  0  0  0  0  0  0  0  0  0  0  0
    9.2954   -4.2706   24.3819 H   0  0  0  0  0  0  0  0  0  0  0  0
   10.5074   -3.8651   25.5943 H   0  0  0  0  0  0  0  0  0  0  0  0
    8.5610   -2.9908   25.9713 C   0  0  0  0  0  0  0  0  0  0  0  0
    8.9887   -2.3221   26.7341 H   0  0  0  0  0  0  0  0  0  0  0  0
    7.8223   -2.3880   25.4326 H   0  0  0  0  0  0  0  0  0  0  0  0
    7.8050   -4.1318   26.6525 C   0  0  0  0  0  0  0  0  0  0  0  0
    7.1701   -4.6489   25.9174 H   0  0  0  0  0  0  0  0  0  0  0  0
    7.1210   -3.6993   27.3977 H   0  0  0  0  0  0  0  0  0  0  0  0
    8.7198   -5.1463   27.3373 C   0  0  0  0  0  0  0  0  0  0  0  0
    9.2740   -5.7161   26.5752 H   0  0  0  0  0  0  0  0  0  0  0  0
    9.4659   -4.5890   27.9245 H   0  0  0  0  0  0  0  0  0  0  0  0
    7.9654   -6.1048   28.2553 C   0  0  0  0  0  0  0  0  0  0  0  0
    7.3912   -6.8476   27.6877 H   0  0  0  0  0  0  0  0  0  0  0  0
    7.2870   -5.5421   28.9093 H   0  0  0  0  0  0  0  0  0  0  0  0
    8.6577   -6.6372   28.9080 H   0  0  0  0  0  0  0  0  0  0  0  0
    7.5381    1.1173   22.7987 C   0  0  0  0  0  0  0  0  0  0  0  0
    6.4517    0.9976   22.7529 H   0  0  0  0  0  0  0  0  0  0  0  0
    7.8236    0.9571   23.8462 H   0  0  0  0  0  0  0  0  0  0  0  0
    8.1024    2.4124   22.1639 C   0  0  0  0  0  0  0  0  0  0  0  0
    7.3589    3.0967   21.7442 H   0  0  0  0  0  0  0  0  0  0  0  0
    8.7431    3.0086   22.8230 H   0  0  0  0  0  0  0  0  0  0  0  0
    8.8610    1.5643   21.1141 C   0  0  0  0  0  0  0  0  0  0  0  0
    8.5185    1.7061   20.0902 H   0  0  0  0  0  0  0  0  0  0  0  0
    9.9518    1.6684   21.1286 H   0  0  0  0  0  0  0  0  0  0  0  0
  1  2  1  0
  2  3  1  0
  3  4  1  6
  3  5  1  0
  5  6  2  0
  6  7  1  0
  6  8  1  0
  8  9  2  0
  9 10  1  0
  9 11  1  0
 11 12  1  0
 11 13  2  0
 13 14  1  0
  3 15  1  0
 15 16  1  0
 16 17  1  0
 16 18  1  0
 16 19  1  0
 19 20  1  0
 19 21  1  0
 19 22  1  0
 22 23  1  0
 22 24  1  0
 22 25  1  0
 25 26  1  0
 25 27  1  0
 25 28  1  0
 28 29  1  0
 28 30  1  0
 28 31  1  0
 31 32  1  0
 31 33  1  0
 31 34  1  0
 34 35  1  0
 34 36  1  0
 34 37  1  0
 37 38  1  0
 37 39  1  0
 37 40  1  0
 15 41  1  0
 41 42  1  0
 41 43  1  0
 41 44  1  0
 44 45  1  0
 44 46  1  0
 44 47  1  0
 47 48  1  0
 47 49  1  0
 13  5  1  0
 47 15  1  0
M  END
>  <cnnaffinity>  (1) 
-5.06263

>  <filename>  (1) 
CCCCCCCCC1([C@@H](O)c2cccnc2)CCC1

$$$$
