
     RDKit          3D

 46 47  0  0  0  0  0  0  0  0999 V2000
    4.9468    1.8196   17.0027 H   0  0  0  0  0  0  0  0  0  0  0  0
    5.4120    1.2957   17.8329 C   0  0  0  0  0  0  0  0  0  0  0  0
    6.5611    0.6553   17.5681 N   0  0  0  0  0  0  0  0  0  0  0  0
    7.1777    0.0249   18.5785 C   0  0  0  0  0  0  0  0  0  0  0  0
    8.1085   -0.4841   18.3221 H   0  0  0  0  0  0  0  0  0  0  0  0
    6.6787   -0.0075   19.8992 C   0  0  0  0  0  0  0  0  0  0  0  0
    7.3615   -0.7014   20.9476 N   0  0  0  0  0  0  0  0  0  0  0  0
    6.7800   -1.7058   21.6926 C   0  0  0  0  0  0  0  0  0  0  0  0
    5.7655   -2.0043   21.4834 H   0  0  0  0  0  0  0  0  0  0  0  0
    7.6804   -2.1600   22.6202 C   0  0  0  0  0  0  0  0  0  0  0  0
    7.5217   -2.9422   23.3497 H   0  0  0  0  0  0  0  0  0  0  0  0
    8.8657   -1.3937   22.4606 C   0  0  0  0  0  0  0  0  0  0  0  0
    9.7766   -1.4841   23.0488 H   0  0  0  0  0  0  0  0  0  0  0  0
    8.6527   -0.4938   21.4425 C   0  0  0  0  0  0  0  0  0  0  0  0
    9.5371    0.6375   21.0256 C   0  0  0  0  0  0  0  0  0  0  0  0
    9.3219    0.9109   19.9886 H   0  0  0  0  0  0  0  0  0  0  0  0
   10.5772    0.2868   21.0454 H   0  0  0  0  0  0  0  0  0  0  0  0
    9.4055    1.8870   21.9263 C   0  0  0  0  0  0  0  0  0  0  0  0
   10.1417    2.6318   21.5923 H   0  0  0  0  0  0  0  0  0  0  0  0
    9.6733    1.6270   22.9612 H   0  0  0  0  0  0  0  0  0  0  0  0
    8.0018    2.4968   21.9036 C   0  0  0  0  0  0  0  0  0  0  0  0
    7.2866    1.7696   22.3175 H   0  0  0  0  0  0  0  0  0  0  0  0
    7.6942    2.6424   20.8619 H   0  0  0  0  0  0  0  0  0  0  0  0
    7.8981    3.8156   22.6736 C   0  0  0  0  0  0  0  0  0  0  0  0
    8.6565    4.5219   22.3036 H   0  0  0  0  0  0  0  0  0  0  0  0
    8.1468    3.6173   23.7267 H   0  0  0  0  0  0  0  0  0  0  0  0
    6.5183    4.4764   22.6044 C   0  0  0  0  0  0  0  0  0  0  0  0
    5.7567    3.7373   22.8908 H   0  0  0  0  0  0  0  0  0  0  0  0
    6.2933    4.7511   21.5626 H   0  0  0  0  0  0  0  0  0  0  0  0
    6.3521    5.7049   23.5114 C   0  0  0  0  0  0  0  0  0  0  0  0
    6.6179    5.4229   24.5422 H   0  0  0  0  0  0  0  0  0  0  0  0
    5.2867    5.9725   23.5428 H   0  0  0  0  0  0  0  0  0  0  0  0
    7.1464    6.9637   23.1356 C   0  0  0  0  0  0  0  0  0  0  0  0
    6.9197    7.2546   22.0993 H   0  0  0  0  0  0  0  0  0  0  0  0
    8.2272    6.7655   23.1689 H   0  0  0  0  0  0  0  0  0  0  0  0
    6.8043    8.1272   24.0732 C   0  0  0  0  0  0  0  0  0  0  0  0
    5.7189    8.2945   24.0331 H   0  0  0  0  0  0  0  0  0  0  0  0
    6.9965    7.8110   25.1081 H   0  0  0  0  0  0  0  0  0  0  0  0
    7.5255    9.4488   23.7921 C   0  0  0  0  0  0  0  0  0  0  0  0
    7.3350    9.8221   22.7777 H   0  0  0  0  0  0  0  0  0  0  0  0
    8.6135    9.3686   23.9032 H   0  0  0  0  0  0  0  0  0  0  0  0
    7.1860   10.2220   24.4870 H   0  0  0  0  0  0  0  0  0  0  0  0
    5.4537    0.6326   20.1471 C   0  0  0  0  0  0  0  0  0  0  0  0
    5.0218    0.6269   21.1502 H   0  0  0  0  0  0  0  0  0  0  0  0
    4.8180    1.3004   19.0987 C   0  0  0  0  0  0  0  0  0  0  0  0
    3.8835    1.8285   19.2489 H   0  0  0  0  0  0  0  0  0  0  0  0
  1  2  1  0
  2  3  2  0
  3  4  1  0
  4  5  1  0
  4  6  2  0
  6  7  1  0
  7  8  1  0
  8  9  1  0
  8 10  2  0
 10 11  1  0
 10 12  1  0
 12 13  1  0
 12 14  2  0
 14 15  1  0
 15 16  1  0
 15 17  1  0
 15 18  1  0
 18 19  1  0
 18 20  1  0
 18 21  1  0
 21 22  1  0
 21 23  1  0
 21 24  1  0
 24 25  1  0
 24 26  1  0
 24 27  1  0
 27 28  1  0
 27 29  1  0
 27 30  1  0
 30 31  1  0
 30 32  1  0
 30 33  1  0
 33 34  1  0
 33 35  1  0
 33 36  1  0
 36 37  1  0
 36 38  1  0
 36 39  1  0
 39 40  1  0
 39 41  1  0
 39 42  1  0
  6 43  1  0
 43 44  1  0
 43 45  2  0
 45 46  1  0
 45  2  1  0
 14  7  1  0
M  END
>  <cnnaffinity>  (1) 
-5.86904

>  <filename>  (1) 
CCCCCCCCCc1cccn1-c1cccnc1

$$$$
