
     RDKit          3D

 37 38  0  0  0  0  0  0  0  0999 V2000
    4.9969    1.8223   16.9534 H   0  0  0  0  0  0  0  0  0  0  0  0
    5.4432    1.3081   17.8016 C   0  0  0  0  0  0  0  0  0  0  0  0
    6.6190    0.7017   17.5712 N   0  0  0  0  0  0  0  0  0  0  0  0
    7.1889    0.0742   18.6055 C   0  0  0  0  0  0  0  0  0  0  0  0
    8.1465   -0.4109   18.4117 H   0  0  0  0  0  0  0  0  0  0  0  0
    6.6336   -0.0030   19.8904 C   0  0  0  0  0  0  0  0  0  0  0  0
    7.4209   -0.7158   20.9672 C   0  0  0  0  0  0  0  0  0  0  0  0
    6.8090   -0.8649   21.8634 H   0  0  0  0  0  0  0  0  0  0  0  0
    7.7432   -1.7015   20.6152 H   0  0  0  0  0  0  0  0  0  0  0  0
    8.6310    0.0103   21.3387 N   0  0  0  0  0  0  0  0  0  0  0  0
    9.8356   -0.3417   20.8559 N   0  0  0  0  0  0  0  0  0  0  0  0
   10.6639    0.5747   21.2167 N   0  0  0  0  0  0  0  0  0  0  0  0
   10.0370    1.5467   21.9045 N   0  0  0  0  0  0  0  0  0  0  0  0
    8.7714    1.1945   21.9733 C   0  0  0  0  0  0  0  0  0  0  0  0
    7.7157    1.8336   22.8150 C   0  0  0  0  0  0  0  0  0  0  0  0
    8.0025    2.8748   22.9835 H   0  0  0  0  0  0  0  0  0  0  0  0
    6.7693    1.8456   22.2649 H   0  0  0  0  0  0  0  0  0  0  0  0
    7.5535    1.0941   24.1544 C   0  0  0  0  0  0  0  0  0  0  0  0
    6.7015    1.5122   24.7074 H   0  0  0  0  0  0  0  0  0  0  0  0
    7.2852    0.0520   23.9359 H   0  0  0  0  0  0  0  0  0  0  0  0
    8.8178    1.1366   25.0220 C   0  0  0  0  0  0  0  0  0  0  0  0
    9.0007    2.1801   25.3074 H   0  0  0  0  0  0  0  0  0  0  0  0
    9.6959    0.8356   24.4324 H   0  0  0  0  0  0  0  0  0  0  0  0
    8.7240    0.2933   26.2902 C   0  0  0  0  0  0  0  0  0  0  0  0
    9.6195    0.4677   26.9041 H   0  0  0  0  0  0  0  0  0  0  0  0
    7.8728    0.6556   26.8849 H   0  0  0  0  0  0  0  0  0  0  0  0
    8.5801   -1.2188   26.0752 C   0  0  0  0  0  0  0  0  0  0  0  0
    7.8325   -1.4487   25.3050 H   0  0  0  0  0  0  0  0  0  0  0  0
    9.5184   -1.6225   25.6893 H   0  0  0  0  0  0  0  0  0  0  0  0
    8.2277   -1.9277   27.3779 C   0  0  0  0  0  0  0  0  0  0  0  0
    7.1910   -1.7248   27.6533 H   0  0  0  0  0  0  0  0  0  0  0  0
    8.8667   -1.5370   28.1782 H   0  0  0  0  0  0  0  0  0  0  0  0
    8.3545   -3.0150   27.3430 H   0  0  0  0  0  0  0  0  0  0  0  0
    5.4007    0.6208   20.1074 C   0  0  0  0  0  0  0  0  0  0  0  0
    4.9173    0.5890   21.0880 H   0  0  0  0  0  0  0  0  0  0  0  0
    4.7969    1.2935   19.0414 C   0  0  0  0  0  0  0  0  0  0  0  0
    3.8523    1.8143   19.1637 H   0  0  0  0  0  0  0  0  0  0  0  0
  1  2  1  0
  2  3  2  0
  3  4  1  0
  4  5  1  0
  4  6  2  0
  6  7  1  0
  7  8  1  0
  7  9  1  0
  7 10  1  0
 10 11  1  0
 11 12  2  0
 12 13  1  0
 13 14  2  0
 14 15  1  0
 15 16  1  0
 15 17  1  0
 15 18  1  0
 18 19  1  0
 18 20  1  0
 18 21  1  0
 21 22  1  0
 21 23  1  0
 21 24  1  0
 24 25  1  0
 24 26  1  0
 24 27  1  0
 27 28  1  0
 27 29  1  0
 27 30  1  0
 30 31  1  0
 30 32  1  0
 30 33  1  0
  6 34  1  0
 34 35  1  0
 34 36  2  0
 36 37  1  0
 36  2  1  0
 14 10  1  0
M  END
>  <cnnaffinity>  (1) 
-5.25901

>  <filename>  (1) 
CCCCCCc1nnnn1Cc1cccnc1

$$$$
