
     RDKit          3D

 41 42  0  0  0  0  0  0  0  0999 V2000
    4.9190    1.7886   16.9847 H   0  0  0  0  0  0  0  0  0  0  0  0
    5.3949    1.2986   17.8282 C   0  0  0  0  0  0  0  0  0  0  0  0
    6.5567    0.6795   17.5644 N   0  0  0  0  0  0  0  0  0  0  0  0
    7.1663    0.0741   18.5913 C   0  0  0  0  0  0  0  0  0  0  0  0
    8.1086   -0.4234   18.3641 H   0  0  0  0  0  0  0  0  0  0  0  0
    6.6522    0.0208   19.8960 C   0  0  0  0  0  0  0  0  0  0  0  0
    7.3801   -0.6974   20.9573 C   0  0  0  0  0  0  0  0  0  0  0  0
    8.7583   -0.5592   21.1201 C   0  0  0  0  0  0  0  0  0  0  0  0
    9.3266    0.0906   20.4681 H   0  0  0  0  0  0  0  0  0  0  0  0
    9.3758   -1.2448   22.1637 C   0  0  0  0  0  0  0  0  0  0  0  0
   10.4468   -1.1423   22.3180 H   0  0  0  0  0  0  0  0  0  0  0  0
    8.7348   -2.0524   23.0191 N   0  0  0  0  0  0  0  0  0  0  0  0
    7.4139   -2.1988   22.8516 C   0  0  0  0  0  0  0  0  0  0  0  0
    6.6715   -3.0527   23.8430 C   0  0  0  0  0  0  0  0  0  0  0  0
    7.3576   -3.8130   24.2245 H   0  0  0  0  0  0  0  0  0  0  0  0
    5.8507   -3.5707   23.3326 H   0  0  0  0  0  0  0  0  0  0  0  0
    6.0981   -2.2306   25.0051 C   0  0  0  0  0  0  0  0  0  0  0  0
    5.4250   -1.4499   24.6301 H   0  0  0  0  0  0  0  0  0  0  0  0
    6.9147   -1.6913   25.5029 H   0  0  0  0  0  0  0  0  0  0  0  0
    5.3477   -3.0847   26.0180 C   0  0  0  0  0  0  0  0  0  0  0  0
    6.0190   -3.8612   26.4157 H   0  0  0  0  0  0  0  0  0  0  0  0
    4.5252   -3.6244   25.5216 H   0  0  0  0  0  0  0  0  0  0  0  0
    4.7857   -2.2598   27.1698 C   0  0  0  0  0  0  0  0  0  0  0  0
    5.6039   -1.7156   27.6672 H   0  0  0  0  0  0  0  0  0  0  0  0
    4.1121   -1.4831   26.7745 H   0  0  0  0  0  0  0  0  0  0  0  0
    4.0408   -3.1043   28.1951 C   0  0  0  0  0  0  0  0  0  0  0  0
    3.2236   -3.6482   27.6975 H   0  0  0  0  0  0  0  0  0  0  0  0
    4.7146   -3.8807   28.5883 H   0  0  0  0  0  0  0  0  0  0  0  0
    3.4794   -2.2813   29.3504 C   0  0  0  0  0  0  0  0  0  0  0  0
    4.3027   -1.7424   29.8403 H   0  0  0  0  0  0  0  0  0  0  0  0
    2.8098   -1.5080   28.9485 H   0  0  0  0  0  0  0  0  0  0  0  0
    2.7351   -3.1372   30.3717 C   0  0  0  0  0  0  0  0  0  0  0  0
    1.8956   -3.6641   29.9011 H   0  0  0  0  0  0  0  0  0  0  0  0
    3.3993   -3.8990   30.7990 H   0  0  0  0  0  0  0  0  0  0  0  0
    2.3393   -2.5326   31.1936 H   0  0  0  0  0  0  0  0  0  0  0  0
    6.7104   -1.5374   21.8420 C   0  0  0  0  0  0  0  0  0  0  0  0
    5.6439   -1.6728   21.7429 H   0  0  0  0  0  0  0  0  0  0  0  0
    5.4274    0.6569   20.1452 C   0  0  0  0  0  0  0  0  0  0  0  0
    5.0109    0.6395   21.1567 H   0  0  0  0  0  0  0  0  0  0  0  0
    4.7990    1.3201   19.0946 C   0  0  0  0  0  0  0  0  0  0  0  0
    3.8696    1.8475   19.2481 H   0  0  0  0  0  0  0  0  0  0  0  0
  1  2  1  0
  2  3  2  0
  3  4  1  0
  4  5  1  0
  4  6  2  0
  6  7  1  0
  7  8  2  0
  8  9  1  0
  8 10  1  0
 10 11  1  0
 10 12  2  0
 12 13  1  0
 13 14  1  0
 14 15  1  0
 14 16  1  0
 14 17  1  0
 17 18  1  0
 17 19  1  0
 17 20  1  0
 20 21  1  0
 20 22  1  0
 20 23  1  0
 23 24  1  0
 23 25  1  0
 23 26  1  0
 26 27  1  0
 26 28  1  0
 26 29  1  0
 29 30  1  0
 29 31  1  0
 29 32  1  0
 32 33  1  0
 32 34  1  0
 32 35  1  0
 13 36  2  0
 36 37  1  0
  6 38  1  0
 38 39  1  0
 38 40  2  0
 40 41  1  0
 40  2  1  0
 36  7  1  0
M  END
>  <cnnaffinity>  (1) 
-5.61555

>  <filename>  (1) 
CCCCCCCc1cc(-c2cccnc2)ccn1

$$$$
