
     RDKit          3D

 38 40  0  0  0  0  0  0  0  0999 V2000
    4.9428    1.8644   16.9261 H   0  0  0  0  0  0  0  0  0  0  0  0
    5.3847    1.3202   17.7588 C   0  0  0  0  0  0  0  0  0  0  0  0
    6.5336    0.6735   17.5012 N   0  0  0  0  0  0  0  0  0  0  0  0
    7.1190    0.0334   18.5180 C   0  0  0  0  0  0  0  0  0  0  0  0
    8.0504   -0.4812   18.2851 H   0  0  0  0  0  0  0  0  0  0  0  0
    6.6097    0.0199   19.8307 C   0  0  0  0  0  0  0  0  0  0  0  0
    7.3741   -0.5885   20.9225 C   0  0  0  0  0  0  0  0  0  0  0  0
    8.1778   -1.6356   20.7196 N   0  0  0  0  0  0  0  0  0  0  0  0
    8.7041   -1.8580   21.9201 N   0  0  0  0  0  0  0  0  0  0  0  0
    8.3229   -1.0239   22.8891 C   0  0  0  0  0  0  0  0  0  0  0  0
    7.4246   -0.1648   22.2952 C   0  0  0  0  0  0  0  0  0  0  0  0
    6.7472    0.8928   22.9428 N   0  0  0  0  0  0  0  0  0  0  0  0
    6.8425    1.8014   22.5195 H   0  0  0  0  0  0  0  0  0  0  0  0
    6.5634    0.9319   24.3108 C   0  0  0  0  0  0  0  0  0  0  0  0
    6.5958   -0.0491   25.0246 O   0  0  0  0  0  0  0  0  0  0  0  0
    6.2575    2.3230   24.8116 C   0  0  0  0  0  0  0  0  0  0  0  0
    6.4068    2.3252   25.8919 H   0  0  0  0  0  0  0  0  0  0  0  0
    6.9919    3.0162   24.3780 H   0  0  0  0  0  0  0  0  0  0  0  0
    4.8288    2.7666   24.4649 C   0  0  0  0  0  0  0  0  0  0  0  0
    4.7133    2.7850   23.3723 H   0  0  0  0  0  0  0  0  0  0  0  0
    4.1127    2.0236   24.8447 H   0  0  0  0  0  0  0  0  0  0  0  0
    4.5023    4.1377   25.0437 C   0  0  0  0  0  0  0  0  0  0  0  0
    3.4784    4.4371   24.7935 H   0  0  0  0  0  0  0  0  0  0  0  0
    4.6020    4.1284   26.1368 H   0  0  0  0  0  0  0  0  0  0  0  0
    5.1846    4.9008   24.6494 H   0  0  0  0  0  0  0  0  0  0  0  0
    9.1114   -1.2610   24.1479 C   0  0  0  0  0  0  0  0  0  0  0  0
    9.5742   -0.3292   24.4865 H   0  0  0  0  0  0  0  0  0  0  0  0
    8.4638   -1.6107   24.9573 H   0  0  0  0  0  0  0  0  0  0  0  0
   10.1690   -2.2952   23.6740 C   0  0  0  0  0  0  0  0  0  0  0  0
   10.3471   -3.0899   24.4005 H   0  0  0  0  0  0  0  0  0  0  0  0
   11.1063   -1.7710   23.4967 H   0  0  0  0  0  0  0  0  0  0  0  0
    9.6966   -2.8287   22.2955 C   0  0  0  0  0  0  0  0  0  0  0  0
    9.2494   -3.8276   22.3249 H   0  0  0  0  0  0  0  0  0  0  0  0
   10.4955   -2.8051   21.5572 H   0  0  0  0  0  0  0  0  0  0  0  0
    5.3790    0.6526   20.0664 C   0  0  0  0  0  0  0  0  0  0  0  0
    4.9324    0.6228   21.0625 H   0  0  0  0  0  0  0  0  0  0  0  0
    4.7624    1.3188   19.0118 C   0  0  0  0  0  0  0  0  0  0  0  0
    3.8321    1.8592   19.1513 H   0  0  0  0  0  0  0  0  0  0  0  0
  1  2  1  0
  2  3  2  0
  3  4  1  0
  4  5  1  0
  4  6  2  0
  6  7  1  0
  7  8  2  0
  8  9  1  0
  9 10  1  0
 10 11  2  0
 11 12  1  0
 12 13  1  0
 12 14  1  0
 14 15  2  0
 14 16  1  0
 16 17  1  0
 16 18  1  0
 16 19  1  0
 19 20  1  0
 19 21  1  0
 19 22  1  0
 22 23  1  0
 22 24  1  0
 22 25  1  0
 10 26  1  0
 26 27  1  0
 26 28  1  0
 26 29  1  0
 29 30  1  0
 29 31  1  0
 29 32  1  0
 32 33  1  0
 32 34  1  0
  6 35  1  0
 35 36  1  0
 35 37  2  0
 37 38  1  0
 37  2  1  0
 11  7  1  0
 32  9  1  0
M  END
>  <cnnaffinity>  (1) 
-5.40416

>  <filename>  (1) 
CCCC(=O)Nc1c(-c2cccnc2)nn2c1CCC2

$$$$
