
     RDKit          3D

 38 39  0  0  0  0  0  0  0  0999 V2000
    8.8248   -3.1596   22.1533 H   0  0  0  0  0  0  0  0  0  0  0  0
    8.3822   -2.1995   21.9271 C   0  0  0  0  0  0  0  0  0  0  0  0
    8.4463   -1.1484   22.7866 N   0  0  0  0  0  0  0  0  0  0  0  0
    7.7971   -0.1991   22.1426 C   0  0  0  0  0  0  0  0  0  0  0  0
    7.6903    1.2327   22.5674 C   0  0  0  0  0  0  0  0  0  0  0  0
    7.9609    1.2660   23.6277 H   0  0  0  0  0  0  0  0  0  0  0  0
    6.6492    1.5640   22.5011 H   0  0  0  0  0  0  0  0  0  0  0  0
    8.5917    2.1689   21.7401 C   0  0  0  0  0  0  0  0  0  0  0  0
    8.4653    3.1915   22.1209 H   0  0  0  0  0  0  0  0  0  0  0  0
    8.2309    2.1794   20.7029 H   0  0  0  0  0  0  0  0  0  0  0  0
   10.0814    1.7822   21.7503 C   0  0  0  0  0  0  0  0  0  0  0  0
   10.2001    0.7939   21.2826 H   0  0  0  0  0  0  0  0  0  0  0  0
   10.6268    2.4858   21.1045 H   0  0  0  0  0  0  0  0  0  0  0  0
   10.7398    1.7495   23.1405 C   0  0  0  0  0  0  0  0  0  0  0  0
   11.7994    1.4754   23.0218 H   0  0  0  0  0  0  0  0  0  0  0  0
   10.2937    0.9367   23.7332 H   0  0  0  0  0  0  0  0  0  0  0  0
   10.6441    3.0608   23.9371 C   0  0  0  0  0  0  0  0  0  0  0  0
    9.5937    3.2628   24.1938 H   0  0  0  0  0  0  0  0  0  0  0  0
   11.1630    2.9105   24.8889 H   0  0  0  0  0  0  0  0  0  0  0  0
   11.2431    4.2953   23.2522 C   0  0  0  0  0  0  0  0  0  0  0  0
   11.0771    5.1724   23.8907 H   0  0  0  0  0  0  0  0  0  0  0  0
   10.7103    4.5016   22.3163 H   0  0  0  0  0  0  0  0  0  0  0  0
   12.7357    4.1717   22.9667 C   0  0  0  0  0  0  0  0  0  0  0  0
   13.2797    3.9051   23.8779 H   0  0  0  0  0  0  0  0  0  0  0  0
   12.9396    3.4012   22.2144 H   0  0  0  0  0  0  0  0  0  0  0  0
   13.1403    5.1186   22.5977 H   0  0  0  0  0  0  0  0  0  0  0  0
    7.3657   -0.6784   20.9354 N   0  0  0  0  0  0  0  0  0  0  0  0
    6.6596    0.0060   19.9044 C   0  0  0  0  0  0  0  0  0  0  0  0
    7.1815    0.0503   18.5995 C   0  0  0  0  0  0  0  0  0  0  0  0
    8.1309   -0.4391   18.3821 H   0  0  0  0  0  0  0  0  0  0  0  0
    6.5710    0.6808   17.5909 N   0  0  0  0  0  0  0  0  0  0  0  0
    5.4004    1.2921   17.8444 C   0  0  0  0  0  0  0  0  0  0  0  0
    4.9065    1.7734   17.0039 H   0  0  0  0  0  0  0  0  0  0  0  0
    4.8060    1.3109   19.1096 C   0  0  0  0  0  0  0  0  0  0  0  0
    3.8717    1.8448   19.2683 H   0  0  0  0  0  0  0  0  0  0  0  0
    5.4468    0.6548   20.1641 C   0  0  0  0  0  0  0  0  0  0  0  0
    5.0099    0.6251   21.1605 H   0  0  0  0  0  0  0  0  0  0  0  0
    7.7566   -1.9666   20.7926 N   0  0  0  0  0  0  0  0  0  0  0  0
  1  2  1  0
  2  3  1  0
  3  4  2  0
  4  5  1  0
  5  6  1  0
  5  7  1  0
  5  8  1  0
  8  9  1  0
  8 10  1  0
  8 11  1  0
 11 12  1  0
 11 13  1  0
 11 14  1  0
 14 15  1  0
 14 16  1  0
 14 17  1  0
 17 18  1  0
 17 19  1  0
 17 20  1  0
 20 21  1  0
 20 22  1  0
 20 23  1  0
 23 24  1  0
 23 25  1  0
 23 26  1  0
  4 27  1  0
 27 28  1  0
 28 29  2  0
 29 30  1  0
 29 31  1  0
 31 32  2  0
 32 33  1  0
 32 34  1  0
 34 35  1  0
 34 36  2  0
 36 37  1  0
 27 38  1  0
 38  2  2  0
 36 28  1  0
M  END
>  <cnnaffinity>  (1) 
-5.30491

>  <filename>  (1) 
CCCCCCCc1ncnn1-c1cccnc1

$$$$
