
     RDKit          3D

 35 36  0  0  0  0  0  0  0  0999 V2000
    4.9390    1.7741   17.0067 H   0  0  0  0  0  0  0  0  0  0  0  0
    5.4109    1.2777   17.8519 C   0  0  0  0  0  0  0  0  0  0  0  0
    6.5684    0.6566   17.5969 N   0  0  0  0  0  0  0  0  0  0  0  0
    7.1907    0.0581   18.6143 C   0  0  0  0  0  0  0  0  0  0  0  0
    8.1378   -0.4205   18.3740 H   0  0  0  0  0  0  0  0  0  0  0  0
    6.6805    0.0150   19.9176 C   0  0  0  0  0  0  0  0  0  0  0  0
    7.4550   -0.6962   20.9506 C   0  0  0  0  0  0  0  0  0  0  0  0
    8.7596   -0.6885   20.8571 N   0  0  0  0  0  0  0  0  0  0  0  0
    9.4743   -1.3227   21.8396 C   0  0  0  0  0  0  0  0  0  0  0  0
   10.6825   -1.3933   21.9206 O   0  0  0  0  0  0  0  0  0  0  0  0
    8.7673   -1.9683   22.8554 N   0  0  0  0  0  0  0  0  0  0  0  0
    9.4179   -2.4075   23.4786 H   0  0  0  0  0  0  0  0  0  0  0  0
    7.4210   -2.0122   22.9679 C   0  0  0  0  0  0  0  0  0  0  0  0
    6.8043   -2.8075   24.0797 C   0  0  0  0  0  0  0  0  0  0  0  0
    7.3228   -2.5983   25.0261 H   0  0  0  0  0  0  0  0  0  0  0  0
    5.7722   -2.4544   24.2002 H   0  0  0  0  0  0  0  0  0  0  0  0
    6.7893   -4.3257   23.7996 C   0  0  0  0  0  0  0  0  0  0  0  0
    6.4401   -4.8499   24.7007 H   0  0  0  0  0  0  0  0  0  0  0  0
    7.8194   -4.6721   23.6284 H   0  0  0  0  0  0  0  0  0  0  0  0
    5.9224   -4.7181   22.5916 C   0  0  0  0  0  0  0  0  0  0  0  0
    6.2598   -4.1783   21.6950 H   0  0  0  0  0  0  0  0  0  0  0  0
    4.8878   -4.3837   22.7681 H   0  0  0  0  0  0  0  0  0  0  0  0
    5.9198   -6.2234   22.3022 C   0  0  0  0  0  0  0  0  0  0  0  0
    6.9599   -6.5744   22.2137 H   0  0  0  0  0  0  0  0  0  0  0  0
    5.4632   -6.4018   21.3186 H   0  0  0  0  0  0  0  0  0  0  0  0
    5.1733   -7.0362   23.3655 C   0  0  0  0  0  0  0  0  0  0  0  0
    4.1387   -6.6882   23.4744 H   0  0  0  0  0  0  0  0  0  0  0  0
    5.6221   -6.9318   24.3581 H   0  0  0  0  0  0  0  0  0  0  0  0
    5.1567   -8.1019   23.1197 H   0  0  0  0  0  0  0  0  0  0  0  0
    6.7399   -1.3708   21.9761 C   0  0  0  0  0  0  0  0  0  0  0  0
    5.6700   -1.4331   21.9282 H   0  0  0  0  0  0  0  0  0  0  0  0
    5.4503    0.6473   20.1695 C   0  0  0  0  0  0  0  0  0  0  0  0
    5.0023    0.6501   21.1667 H   0  0  0  0  0  0  0  0  0  0  0  0
    4.8186    1.3016   19.1171 C   0  0  0  0  0  0  0  0  0  0  0  0
    3.8883    1.8313   19.2587 H   0  0  0  0  0  0  0  0  0  0  0  0
  1  2  1  0
  2  3  2  0
  3  4  1  0
  4  5  1  0
  4  6  2  0
  6  7  1  0
  7  8  2  0
  8  9  1  0
  9 10  2  0
  9 11  1  0
 11 12  1  0
 11 13  1  0
 13 14  1  0
 14 15  1  0
 14 16  1  0
 14 17  1  0
 17 18  1  0
 17 19  1  0
 17 20  1  0
 20 21  1  0
 20 22  1  0
 20 23  1  0
 23 24  1  0
 23 25  1  0
 23 26  1  0
 26 27  1  0
 26 28  1  0
 26 29  1  0
 13 30  2  0
 30 31  1  0
  6 32  1  0
 32 33  1  0
 32 34  2  0
 34 35  1  0
 34  2  1  0
 30  7  1  0
M  END
>  <cnnaffinity>  (1) 
-5.12418

>  <filename>  (1) 
CCCCCc1cc(-c2cccnc2)nc(=O)[nH]1

$$$$
