
     RDKit          3D

 35 36  0  0  0  0  0  0  0  0999 V2000
    5.0344    1.9356   16.7748 H   0  0  0  0  0  0  0  0  0  0  0  0
    5.4299    1.3670   17.6143 C   0  0  0  0  0  0  0  0  0  0  0  0
    6.5426    0.6563   17.3724 N   0  0  0  0  0  0  0  0  0  0  0  0
    7.0589   -0.0323   18.3968 C   0  0  0  0  0  0  0  0  0  0  0  0
    7.9587   -0.6062   18.1780 H   0  0  0  0  0  0  0  0  0  0  0  0
    6.5115   -0.0731   19.6905 C   0  0  0  0  0  0  0  0  0  0  0  0
    7.2127   -0.8368   20.7537 C   0  0  0  0  0  0  0  0  0  0  0  0
    6.5297   -1.6678   21.6501 C   0  0  0  0  0  0  0  0  0  0  0  0
    5.4581   -1.8044   21.5815 H   0  0  0  0  0  0  0  0  0  0  0  0
    7.2584   -2.3467   22.6231 C   0  0  0  0  0  0  0  0  0  0  0  0
    6.7519   -3.0000   23.3297 H   0  0  0  0  0  0  0  0  0  0  0  0
    8.5858   -2.2461   22.7697 N   0  0  0  0  0  0  0  0  0  0  0  0
    9.2484   -1.4402   21.9281 C   0  0  0  0  0  0  0  0  0  0  0  0
   10.7275   -1.2413   22.1623 C   0  0  0  0  0  0  0  0  0  0  0  0
   11.2589   -1.3766   21.2057 H   0  0  0  0  0  0  0  0  0  0  0  0
   11.0803   -2.0201   22.8484 H   0  0  0  0  0  0  0  0  0  0  0  0
   11.0455    0.1634   22.7393 C   0  0  0  0  0  0  0  0  0  0  0  0
   10.5713    0.9010   22.0605 H   0  0  0  0  0  0  0  0  0  0  0  0
   10.4754    0.2333   23.6872 H   0  0  0  0  0  0  0  0  0  0  0  0
   12.5584    0.4319   22.9001 C   0  0  0  0  0  0  0  0  0  0  0  0
   12.9210    0.2634   21.8110 H   0  0  0  0  0  0  0  0  0  0  0  0
   12.9599   -0.5603   23.2872 H   0  0  0  0  0  0  0  0  0  0  0  0
   13.0447    1.8318   23.5533 C   0  0  0  0  0  0  0  0  0  0  0  0
   12.6211    0.7887   24.8629 H   0  0  0  0  0  0  0  0  0  0  0  0
   11.9698    2.1268   24.1372 H   0  0  0  0  0  0  0  0  0  0  0  0
   12.9611    1.5389   23.7158 C   0  0  0  0  0  0  0  0  0  0  0  0
   13.1687    2.6963   22.2761 H   0  0  0  0  0  0  0  0  0  0  0  0
   14.1719    1.4369   24.0436 H   0  0  0  0  0  0  0  0  0  0  0  0
   13.5443    3.2928   23.6358 H   0  0  0  0  0  0  0  0  0  0  0  0
    8.6006   -0.7463   20.8976 C   0  0  0  0  0  0  0  0  0  0  0  0
    9.1770   -0.1046   20.2403 H   0  0  0  0  0  0  0  0  0  0  0  0
    5.3266    0.6499   19.9103 C   0  0  0  0  0  0  0  0  0  0  0  0
    4.8586    0.6550   20.8962 H   0  0  0  0  0  0  0  0  0  0  0  0
    4.7852    1.3879   18.8567 C   0  0  0  0  0  0  0  0  0  0  0  0
    3.8893    1.9857   18.9826 H   0  0  0  0  0  0  0  0  0  0  0  0
  1  2  1  0
  2  3  2  0
  3  4  1  0
  4  5  1  0
  4  6  2  0
  6  7  1  0
  7  8  2  0
  8  9  1  0
  8 10  1  0
 10 11  1  0
 10 12  2  0
 12 13  1  0
 13 14  1  0
 14 15  1  0
 14 16  1  0
 14 17  1  0
 17 18  1  0
 17 19  1  0
 17 20  1  0
 20 21  1  0
 20 22  1  0
 20 23  1  0
 23 24  1  0
 23 25  1  0
 23 26  1  0
 26 27  1  0
 26 28  1  0
 26 29  1  0
 13 30  2  0
 30 31  1  0
  6 32  1  0
 32 33  1  0
 32 34  2  0
 34 35  1  0
 34  2  1  0
 30  7  1  0
M  END
>  <cnnaffinity>  (1) 
-4.72465

>  <filename>  (1) 
CCCCCc1cc(-c2cccnc2)ccn1

$$$$
