
     RDKit          3D

 38 39  0  0  0  0  0  0  0  0999 V2000
    4.9110    1.8042   16.8734 H   0  0  0  0  0  0  0  0  0  0  0  0
    5.4130    1.3236   17.7098 C   0  0  0  0  0  0  0  0  0  0  0  0
    6.5808    0.7217   17.4345 N   0  0  0  0  0  0  0  0  0  0  0  0
    7.2456    0.1536   18.4472 C   0  0  0  0  0  0  0  0  0  0  0  0
    8.1948   -0.3174   18.2011 H   0  0  0  0  0  0  0  0  0  0  0  0
    6.7719    0.1535   19.7716 C   0  0  0  0  0  0  0  0  0  0  0  0
    7.5110   -0.4414   20.8392 N   0  0  0  0  0  0  0  0  0  0  0  0
    6.7722   -1.2506   21.6576 N   0  0  0  0  0  0  0  0  0  0  0  0
    7.3658   -1.8936   22.6238 C   0  0  0  0  0  0  0  0  0  0  0  0
    6.5441   -2.9351   23.3380 C   0  0  0  0  0  0  0  0  0  0  0  0
    5.5056   -2.5963   23.3617 H   0  0  0  0  0  0  0  0  0  0  0  0
    6.8757   -3.0270   24.3787 H   0  0  0  0  0  0  0  0  0  0  0  0
    6.5882   -4.3125   22.6372 C   0  0  0  0  0  0  0  0  0  0  0  0
    6.2819   -4.1782   21.5922 H   0  0  0  0  0  0  0  0  0  0  0  0
    7.6216   -4.6852   22.6082 H   0  0  0  0  0  0  0  0  0  0  0  0
    5.6536   -5.3084   23.3217 C   0  0  0  0  0  0  0  0  0  0  0  0
    5.9174   -5.3605   24.3877 H   0  0  0  0  0  0  0  0  0  0  0  0
    4.6283   -4.9086   23.2750 H   0  0  0  0  0  0  0  0  0  0  0  0
    5.6033   -6.7454   22.8031 C   0  0  0  0  0  0  0  0  0  0  0  0
    5.3491   -6.7739   21.7326 H   0  0  0  0  0  0  0  0  0  0  0  0
    6.5975   -7.2159   22.8591 H   0  0  0  0  0  0  0  0  0  0  0  0
    4.5487   -7.6005   23.5574 C   0  0  0  0  0  0  0  0  0  0  0  0
    4.8894   -8.6301   23.4864 H   0  0  0  0  0  0  0  0  0  0  0  0
    3.5889   -7.5328   23.0250 H   0  0  0  0  0  0  0  0  0  0  0  0
    4.2899   -7.3092   25.0456 C   0  0  0  0  0  0  0  0  0  0  0  0
    3.8160   -6.3308   25.2019 H   0  0  0  0  0  0  0  0  0  0  0  0
    3.6132   -8.0660   25.4690 H   0  0  0  0  0  0  0  0  0  0  0  0
    5.2215   -7.3131   25.6270 H   0  0  0  0  0  0  0  0  0  0  0  0
    8.7687   -1.7079   22.9225 C   0  0  0  0  0  0  0  0  0  0  0  0
    9.2034   -2.2322   23.7719 H   0  0  0  0  0  0  0  0  0  0  0  0
    9.5029   -0.8841   22.1330 C   0  0  0  0  0  0  0  0  0  0  0  0
   10.5656   -0.7119   22.2535 H   0  0  0  0  0  0  0  0  0  0  0  0
    8.9053   -0.1587   21.0211 C   0  0  0  0  0  0  0  0  0  0  0  0
    9.5117    0.6173   20.2977 O   0  0  0  0  0  0  0  0  0  0  0  0
    5.5305    0.7410   20.0414 C   0  0  0  0  0  0  0  0  0  0  0  0
    5.1399    0.6975   21.0567 H   0  0  0  0  0  0  0  0  0  0  0  0
    4.8456    1.3510   18.9893 C   0  0  0  0  0  0  0  0  0  0  0  0
    3.8866    1.8339   19.1475 H   0  0  0  0  0  0  0  0  0  0  0  0
  1  2  1  0
  2  3  2  0
  3  4  1  0
  4  5  1  0
  4  6  2  0
  6  7  1  0
  7  8  1  0
  8  9  2  0
  9 10  1  0
 10 11  1  0
 10 12  1  0
 10 13  1  0
 13 14  1  0
 13 15  1  0
 13 16  1  0
 16 17  1  0
 16 18  1  0
 16 19  1  0
 19 20  1  0
 19 21  1  0
 19 22  1  0
 22 23  1  0
 22 24  1  0
 22 25  1  0
 25 26  1  0
 25 27  1  0
 25 28  1  0
  9 29  1  0
 29 30  1  0
 29 31  2  0
 31 32  1  0
 31 33  1  0
 33 34  2  0
  6 35  1  0
 35 36  1  0
 35 37  2  0
 37 38  1  0
 37  2  1  0
 33  7  1  0
M  END
>  <cnnaffinity>  (1) 
-5.0584

>  <filename>  (1) 
CCCCCCc1ccc(=O)n(-c2cccnc2)n1

$$$$
