
     RDKit          3D

 34 36  0  0  0  0  0  0  0  0999 V2000
    4.8995    1.8113   16.9725 H   0  0  0  0  0  0  0  0  0  0  0  0
    5.3838    1.3145   17.8131 C   0  0  0  0  0  0  0  0  0  0  0  0
    6.5476    0.7002   17.5503 N   0  0  0  0  0  0  0  0  0  0  0  0
    7.1652    0.1084   18.5767 C   0  0  0  0  0  0  0  0  0  0  0  0
    8.1060   -0.3830   18.3402 H   0  0  0  0  0  0  0  0  0  0  0  0
    6.6975    0.0791   19.9109 C   0  0  0  0  0  0  0  0  0  0  0  0
    7.4959   -0.6106   20.9487 C   0  0  0  0  0  0  0  0  0  0  0  0
    8.4694   -1.5935   20.8873 C   0  0  0  0  0  0  0  0  0  0  0  0
    8.9332   -2.0307   20.0161 H   0  0  0  0  0  0  0  0  0  0  0  0
    8.8812   -2.0308   22.1176 N   0  0  0  0  0  0  0  0  0  0  0  0
    8.1741   -1.2997   22.9363 C   0  0  0  0  0  0  0  0  0  0  0  0
    8.0639   -1.1151   24.6590 S   0  0  0  0  0  0  0  0  0  0  0  0
    6.9863    0.2451   24.3295 C   0  0  0  0  0  0  0  0  0  0  0  0
    6.4498    1.0394   25.2876 N   0  0  0  0  0  0  0  0  0  0  0  0
    6.0974    1.8766   24.8378 H   0  0  0  0  0  0  0  0  0  0  0  0
    6.8722    1.0968   26.6781 C   0  0  0  0  0  0  0  0  0  0  0  0
    6.9213    0.0741   27.0794 H   0  0  0  0  0  0  0  0  0  0  0  0
    6.0874    1.5859   27.2688 H   0  0  0  0  0  0  0  0  0  0  0  0
    8.2234    1.7874   26.8984 C   0  0  0  0  0  0  0  0  0  0  0  0
    8.9917    1.1604   26.4335 H   0  0  0  0  0  0  0  0  0  0  0  0
    8.4082    1.7816   27.9827 H   0  0  0  0  0  0  0  0  0  0  0  0
    8.3707    3.2236   26.3804 C   0  0  0  0  0  0  0  0  0  0  0  0
    9.4249    3.5062   26.4692 H   0  0  0  0  0  0  0  0  0  0  0  0
    8.1439    3.2625   25.3032 H   0  0  0  0  0  0  0  0  0  0  0  0
    7.5344    4.2298   27.1702 C   0  0  0  0  0  0  0  0  0  0  0  0
    7.6436    4.0410   28.2459 H   0  0  0  0  0  0  0  0  0  0  0  0
    6.4690    4.1412   26.9342 H   0  0  0  0  0  0  0  0  0  0  0  0
    7.8558    5.2587   26.9705 H   0  0  0  0  0  0  0  0  0  0  0  0
    6.6798    0.4823   23.0856 N   0  0  0  0  0  0  0  0  0  0  0  0
    7.3416   -0.4259   22.3156 N   0  0  0  0  0  0  0  0  0  0  0  0
    5.4583    0.7129   20.1554 C   0  0  0  0  0  0  0  0  0  0  0  0
    5.0315    0.7318   21.1600 H   0  0  0  0  0  0  0  0  0  0  0  0
    4.8014    1.3268   19.0853 C   0  0  0  0  0  0  0  0  0  0  0  0
    3.8493    1.8283   19.2189 H   0  0  0  0  0  0  0  0  0  0  0  0
  1  2  1  0
  2  3  2  0
  3  4  1  0
  4  5  1  0
  4  6  2  0
  6  7  1  0
  7  8  2  0
  8  9  1  0
  8 10  1  0
 10 11  2  0
 11 12  1  0
 12 13  1  0
 13 14  1  0
 14 15  1  0
 14 16  1  0
 16 17  1  0
 16 18  1  0
 16 19  1  0
 19 20  1  0
 19 21  1  0
 19 22  1  0
 22 23  1  0
 22 24  1  0
 22 25  1  0
 25 26  1  0
 25 27  1  0
 25 28  1  0
 13 29  2  0
 29 30  1  0
  6 31  1  0
 31 32  1  0
 31 33  2  0
 33 34  1  0
 33  2  1  0
 30  7  1  0
 30 11  1  0
M  END
>  <cnnaffinity>  (1) 
-4.8968

>  <filename>  (1) 
CCCCNc1nn2c(-c3cccnc3)cnc2s1

$$$$
