
     RDKit          3D

 37 38  0  0  0  0  0  0  0  0999 V2000
    4.9268    1.7815   16.9970 H   0  0  0  0  0  0  0  0  0  0  0  0
    5.4049    1.2904   17.8446 C   0  0  0  0  0  0  0  0  0  0  0  0
    6.5708    0.6706   17.6002 N   0  0  0  0  0  0  0  0  0  0  0  0
    7.1801    0.0575   18.6258 C   0  0  0  0  0  0  0  0  0  0  0  0
    8.1218   -0.4371   18.4012 H   0  0  0  0  0  0  0  0  0  0  0  0
    6.6590    0.0158   19.9346 C   0  0  0  0  0  0  0  0  0  0  0  0
    7.3735   -0.6861   20.8733 O   0  0  0  0  0  0  0  0  0  0  0  0
    7.3198   -0.3383   22.1991 C   0  0  0  0  0  0  0  0  0  0  0  0
    7.2502   -1.2486   23.2713 C   0  0  0  0  0  0  0  0  0  0  0  0
    7.1598   -2.3226   23.2273 H   0  0  0  0  0  0  0  0  0  0  0  0
    7.3282   -0.6199   24.4416 N   0  0  0  0  0  0  0  0  0  0  0  0
    7.4502    0.6691   24.1140 N   0  0  0  0  0  0  0  0  0  0  0  0
    7.5610    1.3449   24.8551 H   0  0  0  0  0  0  0  0  0  0  0  0
    7.4575    0.9096   22.7769 C   0  0  0  0  0  0  0  0  0  0  0  0
    7.7742    2.2221   22.1501 C   0  0  0  0  0  0  0  0  0  0  0  0
    7.0145    2.4491   21.3949 H   0  0  0  0  0  0  0  0  0  0  0  0
    7.7138    3.0346   22.8897 H   0  0  0  0  0  0  0  0  0  0  0  0
    9.1595    2.1962   21.4813 C   0  0  0  0  0  0  0  0  0  0  0  0
    9.2806    3.1373   20.9528 H   0  0  0  0  0  0  0  0  0  0  0  0
    9.1703    1.4207   20.7053 H   0  0  0  0  0  0  0  0  0  0  0  0
   10.3367    1.9589   22.4423 C   0  0  0  0  0  0  0  0  0  0  0  0
   10.2506    0.9544   22.8778 H   0  0  0  0  0  0  0  0  0  0  0  0
   11.2674    1.9359   21.8603 H   0  0  0  0  0  0  0  0  0  0  0  0
   10.4761    2.9827   23.5831 C   0  0  0  0  0  0  0  0  0  0  0  0
    9.6168    2.8961   24.2614 H   0  0  0  0  0  0  0  0  0  0  0  0
   11.3503    2.7086   24.1888 H   0  0  0  0  0  0  0  0  0  0  0  0
   10.6288    4.4457   23.1453 C   0  0  0  0  0  0  0  0  0  0  0  0
   10.6755    5.0786   24.0401 H   0  0  0  0  0  0  0  0  0  0  0  0
    9.7279    4.7727   22.6076 H   0  0  0  0  0  0  0  0  0  0  0  0
   11.8708    4.7006   22.2882 C   0  0  0  0  0  0  0  0  0  0  0  0
   12.7733    4.3295   22.7851 H   0  0  0  0  0  0  0  0  0  0  0  0
   11.8290    4.1822   21.3246 H   0  0  0  0  0  0  0  0  0  0  0  0
   12.0038    5.7670   22.0859 H   0  0  0  0  0  0  0  0  0  0  0  0
    5.4298    0.6382   20.1774 C   0  0  0  0  0  0  0  0  0  0  0  0
    5.0000    0.6238   21.1792 H   0  0  0  0  0  0  0  0  0  0  0  0
    4.8101    1.3029   19.1089 C   0  0  0  0  0  0  0  0  0  0  0  0
    3.8811    1.8377   19.2552 H   0  0  0  0  0  0  0  0  0  0  0  0
  1  2  1  0
  2  3  2  0
  3  4  1  0
  4  5  1  0
  4  6  2  0
  6  7  1  0
  7  8  1  0
  8  9  1  0
  9 10  1  0
  9 11  2  0
 11 12  1  0
 12 13  1  0
 12 14  1  0
 14 15  1  0
 15 16  1  0
 15 17  1  0
 15 18  1  0
 18 19  1  0
 18 20  1  0
 18 21  1  0
 21 22  1  0
 21 23  1  0
 21 24  1  0
 24 25  1  0
 24 26  1  0
 24 27  1  0
 27 28  1  0
 27 29  1  0
 27 30  1  0
 30 31  1  0
 30 32  1  0
 30 33  1  0
  6 34  1  0
 34 35  1  0
 34 36  2  0
 36 37  1  0
 36  2  1  0
 14  8  2  0
M  END
>  <cnnaffinity>  (1) 
-5.25883

>  <filename>  (1) 
CCCCCCc1[nH]ncc1Oc1cccnc1

$$$$
