
     RDKit          3D

 33 34  0  0  0  0  0  0  0  0999 V2000
    5.0023    1.8524   16.7615 H   0  0  0  0  0  0  0  0  0  0  0  0
    5.4330    1.3699   17.6350 C   0  0  0  0  0  0  0  0  0  0  0  0
    6.6147    0.7582   17.4507 N   0  0  0  0  0  0  0  0  0  0  0  0
    7.1654    0.1550   18.5103 C   0  0  0  0  0  0  0  0  0  0  0  0
    8.1411   -0.2936   18.3352 H   0  0  0  0  0  0  0  0  0  0  0  0
    6.5751    0.1127   19.7860 C   0  0  0  0  0  0  0  0  0  0  0  0
    7.1623   -0.6169   20.9012 C   0  0  0  0  0  0  0  0  0  0  0  0
    6.9554   -0.4815   22.2296 C   0  0  0  0  0  0  0  0  0  0  0  0
    6.3185    0.1809   22.7986 H   0  0  0  0  0  0  0  0  0  0  0  0
    7.6298   -1.4910   22.8856 N   0  0  0  0  0  0  0  0  0  0  0  0
    7.6720   -1.5042   24.3065 N   0  0  0  0  0  0  0  0  0  0  0  0
    7.4266   -0.5583   24.6155 H   0  0  0  0  0  0  0  0  0  0  0  0
    9.0033   -1.8483   24.8218 C   0  0  0  0  0  0  0  0  0  0  0  0
    9.1957   -2.8939   24.5477 H   0  0  0  0  0  0  0  0  0  0  0  0
    8.9447   -1.7858   25.9181 H   0  0  0  0  0  0  0  0  0  0  0  0
   10.1525   -0.9900   24.2850 C   0  0  0  0  0  0  0  0  0  0  0  0
   10.3462   -1.2751   23.2417 H   0  0  0  0  0  0  0  0  0  0  0  0
   11.0384   -1.2782   24.8540 H   0  0  0  0  0  0  0  0  0  0  0  0
    9.9995    0.5294   24.4248 C   0  0  0  0  0  0  0  0  0  0  0  0
    9.0992    0.8907   23.9095 H   0  0  0  0  0  0  0  0  0  0  0  0
   10.8325    0.9978   23.8864 H   0  0  0  0  0  0  0  0  0  0  0  0
    9.9753    1.0007   25.8847 C   0  0  0  0  0  0  0  0  0  0  0  0
    9.0066    0.8114   26.3645 H   0  0  0  0  0  0  0  0  0  0  0  0
   10.7276    0.4666   26.4762 H   0  0  0  0  0  0  0  0  0  0  0  0
   10.1906    2.0712   25.9732 H   0  0  0  0  0  0  0  0  0  0  0  0
    8.2620   -2.3310   21.9416 C   0  0  0  0  0  0  0  0  0  0  0  0
    8.9161   -3.3548   22.0604 O   0  0  0  0  0  0  0  0  0  0  0  0
    7.9907   -1.7198   20.7447 N   0  0  0  0  0  0  0  0  0  0  0  0
    8.3460   -2.1653   19.9214 H   0  0  0  0  0  0  0  0  0  0  0  0
    5.3539    0.7829   19.9599 C   0  0  0  0  0  0  0  0  0  0  0  0
    4.8816    0.8020   20.9418 H   0  0  0  0  0  0  0  0  0  0  0  0
    4.7687    1.4129   18.8659 C   0  0  0  0  0  0  0  0  0  0  0  0
    3.8282    1.9423   18.9643 H   0  0  0  0  0  0  0  0  0  0  0  0
  1  2  1  0
  2  3  2  0
  3  4  1  0
  4  5  1  0
  4  6  2  0
  6  7  1  0
  7  8  2  0
  8  9  1  0
  8 10  1  0
 10 11  1  0
 11 12  1  0
 11 13  1  0
 13 14  1  0
 13 15  1  0
 13 16  1  0
 16 17  1  0
 16 18  1  0
 16 19  1  0
 19 20  1  0
 19 21  1  0
 19 22  1  0
 22 23  1  0
 22 24  1  0
 22 25  1  0
 10 26  1  0
 26 27  2  0
 26 28  1  0
 28 29  1  0
  6 30  1  0
 30 31  1  0
 30 32  2  0
 32 33  1  0
 32  2  1  0
 28  7  1  0
M  END
>  <cnnaffinity>  (1) 
-4.96488

>  <filename>  (1) 
CCCCNn1cc(-c2cccnc2)[nH]c1=O

$$$$
