
     RDKit          3D

 41 42  0  0  0  0  0  0  0  0999 V2000
    5.0532    1.8243   16.9630 H   0  0  0  0  0  0  0  0  0  0  0  0
    5.5070    1.3135   17.8065 C   0  0  0  0  0  0  0  0  0  0  0  0
    6.7110    0.7578   17.5837 N   0  0  0  0  0  0  0  0  0  0  0  0
    7.2893    0.1250   18.6057 C   0  0  0  0  0  0  0  0  0  0  0  0
    8.2865   -0.2811   18.4656 H   0  0  0  0  0  0  0  0  0  0  0  0
    6.6789   -0.0334   19.8639 C   0  0  0  0  0  0  0  0  0  0  0  0
    7.3637   -0.7814   20.8614 N   0  0  0  0  0  0  0  0  0  0  0  0
    8.7032   -0.4968   20.9194 N   0  0  0  0  0  0  0  0  0  0  0  0
    9.4199   -1.0134   21.8782 C   0  0  0  0  0  0  0  0  0  0  0  0
   10.8649   -0.5438   21.9097 C   0  0  0  0  0  0  0  0  0  0  0  0
   11.2529   -0.6243   20.8921 H   0  0  0  0  0  0  0  0  0  0  0  0
   11.4651   -1.2116   22.5394 H   0  0  0  0  0  0  0  0  0  0  0  0
   10.9820    0.9117   22.4056 C   0  0  0  0  0  0  0  0  0  0  0  0
   12.0433    1.2016   22.4303 H   0  0  0  0  0  0  0  0  0  0  0  0
   10.4955    1.5781   21.6785 H   0  0  0  0  0  0  0  0  0  0  0  0
   10.3297    1.1101   23.7767 C   0  0  0  0  0  0  0  0  0  0  0  0
    9.2467    0.9623   23.6769 H   0  0  0  0  0  0  0  0  0  0  0  0
   10.4460    2.1576   24.0863 H   0  0  0  0  0  0  0  0  0  0  0  0
   10.8498    0.1710   24.8739 C   0  0  0  0  0  0  0  0  0  0  0  0
   10.5948   -0.8738   24.6518 H   0  0  0  0  0  0  0  0  0  0  0  0
   11.9470    0.2099   24.8870 H   0  0  0  0  0  0  0  0  0  0  0  0
   10.3352    0.5516   26.2605 C   0  0  0  0  0  0  0  0  0  0  0  0
   10.5968    1.6109   26.4056 H   0  0  0  0  0  0  0  0  0  0  0  0
   10.8810   -0.0183   27.0249 H   0  0  0  0  0  0  0  0  0  0  0  0
    8.8292    0.3763   26.5151 C   0  0  0  0  0  0  0  0  0  0  0  0
    8.2640    0.8766   25.7159 H   0  0  0  0  0  0  0  0  0  0  0  0
    8.5848    0.9011   27.4474 H   0  0  0  0  0  0  0  0  0  0  0  0
    8.3205   -1.0628   26.6598 C   0  0  0  0  0  0  0  0  0  0  0  0
    8.3035   -1.6139   25.7142 H   0  0  0  0  0  0  0  0  0  0  0  0
    7.2970   -1.0526   27.0492 H   0  0  0  0  0  0  0  0  0  0  0  0
    8.9165   -1.6504   27.3678 H   0  0  0  0  0  0  0  0  0  0  0  0
    8.8386   -1.9146   22.8386 C   0  0  0  0  0  0  0  0  0  0  0  0
    9.4580   -2.2827   23.6530 H   0  0  0  0  0  0  0  0  0  0  0  0
    7.5336   -2.2982   22.7102 C   0  0  0  0  0  0  0  0  0  0  0  0
    7.0216   -2.9813   23.3801 H   0  0  0  0  0  0  0  0  0  0  0  0
    6.7023   -1.8151   21.6166 C   0  0  0  0  0  0  0  0  0  0  0  0
    5.5854   -2.2247   21.3441 O   0  0  0  0  0  0  0  0  0  0  0  0
    5.4514    0.5849   20.1067 C   0  0  0  0  0  0  0  0  0  0  0  0
    4.9896    0.5231   21.0915 H   0  0  0  0  0  0  0  0  0  0  0  0
    4.8562    1.2781   19.0466 C   0  0  0  0  0  0  0  0  0  0  0  0
    3.9145    1.7991   19.1735 H   0  0  0  0  0  0  0  0  0  0  0  0
  1  2  1  0
  2  3  2  0
  3  4  1  0
  4  5  1  0
  4  6  2  0
  6  7  1  0
  7  8  1  0
  8  9  2  0
  9 10  1  0
 10 11  1  0
 10 12  1  0
 10 13  1  0
 13 14  1  0
 13 15  1  0
 13 16  1  0
 16 17  1  0
 16 18  1  0
 16 19  1  0
 19 20  1  0
 19 21  1  0
 19 22  1  0
 22 23  1  0
 22 24  1  0
 22 25  1  0
 25 26  1  0
 25 27  1  0
 25 28  1  0
 28 29  1  0
 28 30  1  0
 28 31  1  0
  9 32  1  0
 32 33  1  0
 32 34  2  0
 34 35  1  0
 34 36  1  0
 36 37  2  0
  6 38  1  0
 38 39  1  0
 38 40  2  0
 40 41  1  0
 40  2  1  0
 36  7  1  0
M  END
>  <cnnaffinity>  (1) 
-5.48905

>  <filename>  (1) 
CCCCCCCc1ccc(=O)n(-c2cccnc2)n1

$$$$
