
     RDKit          3D

 44 45  0  0  0  0  0  0  0  0999 V2000
    5.2189    1.9720   16.9517 H   0  0  0  0  0  0  0  0  0  0  0  0
    5.5327    1.4066   17.8292 C   0  0  0  0  0  0  0  0  0  0  0  0
    6.6231    0.6385   17.6783 N   0  0  0  0  0  0  0  0  0  0  0  0
    7.0659   -0.0348   18.7494 C   0  0  0  0  0  0  0  0  0  0  0  0
    7.9377   -0.6713   18.6037 H   0  0  0  0  0  0  0  0  0  0  0  0
    6.4573    0.0367   20.0178 C   0  0  0  0  0  0  0  0  0  0  0  0
    7.0028   -0.6560   21.1481 N   0  0  0  0  0  0  0  0  0  0  0  0
    7.3508    0.1506   22.2128 N   0  0  0  0  0  0  0  0  0  0  0  0
    8.0166   -0.3803   23.2063 C   0  0  0  0  0  0  0  0  0  0  0  0
    8.2708    0.4743   24.4397 C   0  0  0  0  0  0  0  0  0  0  0  0
    7.4461    1.1911   24.5109 H   0  0  0  0  0  0  0  0  0  0  0  0
    8.1917   -0.1833   25.3151 H   0  0  0  0  0  0  0  0  0  0  0  0
    9.6158    1.2230   24.5257 C   0  0  0  0  0  0  0  0  0  0  0  0
   10.4443    0.5136   24.3905 H   0  0  0  0  0  0  0  0  0  0  0  0
    9.7336    1.5880   25.5559 H   0  0  0  0  0  0  0  0  0  0  0  0
    9.7584    2.4255   23.5732 C   0  0  0  0  0  0  0  0  0  0  0  0
    9.3429    3.3100   24.0729 H   0  0  0  0  0  0  0  0  0  0  0  0
    9.1364    2.2821   22.6765 H   0  0  0  0  0  0  0  0  0  0  0  0
   11.2057    2.7245   23.1402 C   0  0  0  0  0  0  0  0  0  0  0  0
   11.3114    3.7972   22.9238 H   0  0  0  0  0  0  0  0  0  0  0  0
   11.8991    2.5217   23.9708 H   0  0  0  0  0  0  0  0  0  0  0  0
   11.6576    1.9661   21.8845 C   0  0  0  0  0  0  0  0  0  0  0  0
   12.6439    2.3403   21.5839 H   0  0  0  0  0  0  0  0  0  0  0  0
   10.9760    2.2479   21.0699 H   0  0  0  0  0  0  0  0  0  0  0  0
   11.7116    0.4326   21.9564 C   0  0  0  0  0  0  0  0  0  0  0  0
   10.7322    0.0438   22.2607 H   0  0  0  0  0  0  0  0  0  0  0  0
   11.8237    0.0654   20.9311 H   0  0  0  0  0  0  0  0  0  0  0  0
   12.7809   -0.1935   22.8789 C   0  0  0  0  0  0  0  0  0  0  0  0
   12.9529   -1.2281   22.5525 H   0  0  0  0  0  0  0  0  0  0  0  0
   12.3744   -0.2794   23.8968 H   0  0  0  0  0  0  0  0  0  0  0  0
   14.1268    0.5329   22.9802 C   0  0  0  0  0  0  0  0  0  0  0  0
   14.7835   -0.0003   23.6719 H   0  0  0  0  0  0  0  0  0  0  0  0
   14.0123    1.5408   23.3942 H   0  0  0  0  0  0  0  0  0  0  0  0
   14.6524    0.6232   22.0226 H   0  0  0  0  0  0  0  0  0  0  0  0
    8.4239   -1.7691   23.1779 C   0  0  0  0  0  0  0  0  0  0  0  0
    9.0127   -2.1609   24.0054 H   0  0  0  0  0  0  0  0  0  0  0  0
    7.9924   -2.5847   22.1778 C   0  0  0  0  0  0  0  0  0  0  0  0
    8.2368   -3.6382   22.1056 H   0  0  0  0  0  0  0  0  0  0  0  0
    7.0900   -2.0923   21.1455 C   0  0  0  0  0  0  0  0  0  0  0  0
    6.4805   -2.7916   20.3528 O   0  0  0  0  0  0  0  0  0  0  0  0
    5.3022    0.8093   20.1570 C   0  0  0  0  0  0  0  0  0  0  0  0
    4.8028    0.8648   21.1245 H   0  0  0  0  0  0  0  0  0  0  0  0
    4.8302    1.5067   19.0368 C   0  0  0  0  0  0  0  0  0  0  0  0
    3.9471    2.1331   19.0831 H   0  0  0  0  0  0  0  0  0  0  0  0
  1  2  1  0
  2  3  2  0
  3  4  1  0
  4  5  1  0
  4  6  2  0
  6  7  1  0
  7  8  1  0
  8  9  2  0
  9 10  1  0
 10 11  1  0
 10 12  1  0
 10 13  1  0
 13 14  1  0
 13 15  1  0
 13 16  1  0
 16 17  1  0
 16 18  1  0
 16 19  1  0
 19 20  1  0
 19 21  1  0
 19 22  1  0
 22 23  1  0
 22 24  1  0
 22 25  1  0
 25 26  1  0
 25 27  1  0
 25 28  1  0
 28 29  1  0
 28 30  1  0
 28 31  1  0
 31 32  1  0
 31 33  1  0
 31 34  1  0
  9 35  1  0
 35 36  1  0
 35 37  2  0
 37 38  1  0
 37 39  1  0
 39 40  2  0
  6 41  1  0
 41 42  1  0
 41 43  2  0
 43 44  1  0
 43  2  1  0
 39  7  1  0
M  END
>  <cnnaffinity>  (1) 
-5.87354

>  <filename>  (1) 
CCCCCCCCc1ccc(=O)n(-c2cccnc2)n1

$$$$
