
     RDKit          3D

 28 29  0  0  0  0  0  0  0  0999 V2000
    4.9828    1.7617   16.8826 H   0  0  0  0  0  0  0  0  0  0  0  0
    5.5187    1.3159   17.7175 C   0  0  0  0  0  0  0  0  0  0  0  0
    6.6943    0.7322   17.4262 N   0  0  0  0  0  0  0  0  0  0  0  0
    7.3819    0.1776   18.4279 C   0  0  0  0  0  0  0  0  0  0  0  0
    8.3353   -0.2893   18.1882 H   0  0  0  0  0  0  0  0  0  0  0  0
    6.9175    0.1584   19.7506 C   0  0  0  0  0  0  0  0  0  0  0  0
    7.6719   -0.5312   20.7508 N   0  0  0  0  0  0  0  0  0  0  0  0
    8.9927   -0.3285   20.9448 N   0  0  0  0  0  0  0  0  0  0  0  0
    9.3560   -1.1356   21.8706 N   0  0  0  0  0  0  0  0  0  0  0  0
    8.3228   -1.8999   22.3009 N   0  0  0  0  0  0  0  0  0  0  0  0
    7.2829   -1.5194   21.5938 C   0  0  0  0  0  0  0  0  0  0  0  0
    5.6057   -2.0837   21.6430 S   0  0  0  0  0  0  0  0  0  0  0  0
    5.4478   -3.4733   20.6656 N   0  0  0  0  0  0  0  0  0  0  0  0
    5.8389   -3.3028   19.7351 H   0  0  0  0  0  0  0  0  0  0  0  0
    6.0009   -4.7090   21.3409 C   0  0  0  0  0  0  0  0  0  0  0  0
    7.0253   -4.3968   21.6434 H   0  0  0  0  0  0  0  0  0  0  0  0
    5.4474   -4.7400   22.3157 H   0  0  0  0  0  0  0  0  0  0  0  0
    6.0118   -5.8992   20.4042 C   0  0  0  0  0  0  0  0  0  0  0  0
    6.9402   -5.4129   19.6564 H   0  0  0  0  0  0  0  0  0  0  0  0
    7.1149   -6.5468   20.6809 H   0  0  0  0  0  0  0  0  0  0  0  0
    5.9147   -6.0428   20.4312 C   0  0  0  0  0  0  0  0  0  0  0  0
    5.1513   -5.5875   19.4292 H   0  0  0  0  0  0  0  0  0  0  0  0
    4.5370   -7.1989   20.9682 H   0  0  0  0  0  0  0  0  0  0  0  0
    4.7723   -7.5432   20.3862 H   0  0  0  0  0  0  0  0  0  0  0  0
    5.6967    0.7677   20.0589 C   0  0  0  0  0  0  0  0  0  0  0  0
    5.3078    0.7744   21.0772 H   0  0  0  0  0  0  0  0  0  0  0  0
    4.9853    1.3564   19.0093 C   0  0  0  0  0  0  0  0  0  0  0  0
    4.0320    1.8420   19.1877 H   0  0  0  0  0  0  0  0  0  0  0  0
  1  2  1  0
  2  3  2  0
  3  4  1  0
  4  5  1  0
  4  6  2  0
  6  7  1  0
  7  8  1  0
  8  9  2  0
  9 10  1  0
 10 11  2  0
 11 12  1  0
 12 13  1  0
 13 14  1  0
 13 15  1  0
 15 16  1  0
 15 17  1  0
 15 18  1  0
 18 19  1  0
 18 20  1  0
 18 21  1  0
 21 22  1  0
 21 23  1  0
 21 24  1  0
  6 25  1  0
 25 26  1  0
 25 27  2  0
 27 28  1  0
 27  2  1  0
 11  7  1  0
M  END
>  <cnnaffinity>  (1) 
-4.09043

>  <filename>  (1) 
CCCNSc1nnnn1-c1cccnc1

$$$$
