
     RDKit          3D

 41 43  0  0  0  0  0  0  0  0999 V2000
    5.0691    1.7710   16.9233 H   0  0  0  0  0  0  0  0  0  0  0  0
    5.4782    1.2671   17.7955 C   0  0  0  0  0  0  0  0  0  0  0  0
    6.6062    0.5665   17.5955 N   0  0  0  0  0  0  0  0  0  0  0  0
    7.1338   -0.0700   18.6442 C   0  0  0  0  0  0  0  0  0  0  0  0
    8.0376   -0.6485   18.4445 H   0  0  0  0  0  0  0  0  0  0  0  0
    6.6061    0.0087   19.9426 C   0  0  0  0  0  0  0  0  0  0  0  0
    7.3262   -0.6168   21.0476 C   0  0  0  0  0  0  0  0  0  0  0  0
    7.8351   -1.8909   20.9175 N   0  0  0  0  0  0  0  0  0  0  0  0
    8.4290   -2.1043   22.0611 C   0  0  0  0  0  0  0  0  0  0  0  0
    9.3318   -3.4123   22.7871 S   0  0  0  0  0  0  0  0  0  0  0  0
    9.7055   -2.3926   24.1622 C   0  0  0  0  0  0  0  0  0  0  0  0
   10.2813   -2.8114   24.9755 H   0  0  0  0  0  0  0  0  0  0  0  0
    9.1600   -1.1689   24.0648 C   0  0  0  0  0  0  0  0  0  0  0  0
    9.2403   -0.3295   24.7456 H   0  0  0  0  0  0  0  0  0  0  0  0
    8.4019   -1.0239   22.9042 N   0  0  0  0  0  0  0  0  0  0  0  0
    7.6511   -0.0493   22.2721 C   0  0  0  0  0  0  0  0  0  0  0  0
    7.5223    1.3504   22.7840 C   0  0  0  0  0  0  0  0  0  0  0  0
    7.5573    1.3710   23.8799 H   0  0  0  0  0  0  0  0  0  0  0  0
    6.5440    1.7587   22.5062 H   0  0  0  0  0  0  0  0  0  0  0  0
    8.6316    2.2691   22.2294 C   0  0  0  0  0  0  0  0  0  0  0  0
    9.5990    1.8430   22.5210 H   0  0  0  0  0  0  0  0  0  0  0  0
    8.5798    2.2568   21.1221 H   0  0  0  0  0  0  0  0  0  0  0  0
    8.5373    3.6458   22.7196 N   0  0  0  0  0  0  0  0  0  0  0  0
    7.5908    4.4419   21.9296 C   0  0  0  0  0  0  0  0  0  0  0  0
    6.9191    3.7477   21.4065 H   0  0  0  0  0  0  0  0  0  0  0  0
    8.0989    5.0303   21.1393 H   0  0  0  0  0  0  0  0  0  0  0  0
    6.7184    5.3560   22.7806 C   0  0  0  0  0  0  0  0  0  0  0  0
    5.9785    5.8418   22.1359 H   0  0  0  0  0  0  0  0  0  0  0  0
    7.2837    6.1328   23.3078 H   0  0  0  0  0  0  0  0  0  0  0  0
    6.1706    4.7731   23.5277 H   0  0  0  0  0  0  0  0  0  0  0  0
    9.8498    4.2745   22.9386 C   0  0  0  0  0  0  0  0  0  0  0  0
   10.6174    3.8846   22.2402 H   0  0  0  0  0  0  0  0  0  0  0  0
    9.7879    5.3573   22.7556 H   0  0  0  0  0  0  0  0  0  0  0  0
   10.3301    4.0468   24.3677 C   0  0  0  0  0  0  0  0  0  0  0  0
   10.4739    2.9813   24.5852 H   0  0  0  0  0  0  0  0  0  0  0  0
   11.2781    4.5653   24.5415 H   0  0  0  0  0  0  0  0  0  0  0  0
    9.5998    4.4398   25.0807 H   0  0  0  0  0  0  0  0  0  0  0  0
    5.4035    0.7067   20.1270 C   0  0  0  0  0  0  0  0  0  0  0  0
    4.9299    0.7277   21.1093 H   0  0  0  0  0  0  0  0  0  0  0  0
    4.8270    1.3430   19.0310 C   0  0  0  0  0  0  0  0  0  0  0  0
    3.8973    1.8893   19.1279 H   0  0  0  0  0  0  0  0  0  0  0  0
  1  2  1  0
  2  3  2  0
  3  4  1  0
  4  5  1  0
  4  6  2  0
  6  7  1  0
  7  8  1  0
  8  9  2  0
  9 10  1  0
 10 11  1  0
 11 12  1  0
 11 13  2  0
 13 14  1  0
 13 15  1  0
 15 16  1  0
 16 17  1  0
 17 18  1  0
 17 19  1  0
 17 20  1  0
 20 21  1  0
 20 22  1  0
 20 23  1  0
 23 24  1  0
 24 25  1  0
 24 26  1  0
 24 27  1  0
 27 28  1  0
 27 29  1  0
 27 30  1  0
 23 31  1  0
 31 32  1  0
 31 33  1  0
 31 34  1  0
 34 35  1  0
 34 36  1  0
 34 37  1  0
  6 38  1  0
 38 39  1  0
 38 40  2  0
 40 41  1  0
 40  2  1  0
 16  7  2  0
 15  9  1  0
M  END
>  <cnnaffinity>  (1) 
-5.5567

>  <filename>  (1) 
CCN(CC)CCc1c(-c2cccnc2)nc2sccn12

$$$$
