
     RDKit          3D

 45 47  0  0  0  0  0  0  0  0999 V2000
    5.0000    1.8167   16.8562 H   0  0  0  0  0  0  0  0  0  0  0  0
    5.4055    1.3224   17.7377 C   0  0  0  0  0  0  0  0  0  0  0  0
    6.5335    0.6210   17.5482 N   0  0  0  0  0  0  0  0  0  0  0  0
    7.0599    0.0078   18.6107 C   0  0  0  0  0  0  0  0  0  0  0  0
    7.9503   -0.5914   18.4242 H   0  0  0  0  0  0  0  0  0  0  0  0
    6.5276    0.0881   19.9096 C   0  0  0  0  0  0  0  0  0  0  0  0
    7.2477   -0.5617   21.0139 C   0  0  0  0  0  0  0  0  0  0  0  0
    7.8298   -1.7481   20.8221 N   0  0  0  0  0  0  0  0  0  0  0  0
    8.4494   -1.9804   21.9846 N   0  0  0  0  0  0  0  0  0  0  0  0
    8.3472   -0.9847   22.8756 C   0  0  0  0  0  0  0  0  0  0  0  0
    7.5370   -0.0216   22.3084 C   0  0  0  0  0  0  0  0  0  0  0  0
    7.3626    1.3962   22.8049 C   0  0  0  0  0  0  0  0  0  0  0  0
    7.5022    1.4205   23.8930 H   0  0  0  0  0  0  0  0  0  0  0  0
    6.3416    1.7426   22.6166 H   0  0  0  0  0  0  0  0  0  0  0  0
    8.3575    2.3950   22.1661 C   0  0  0  0  0  0  0  0  0  0  0  0
    8.1552    3.3993   22.5695 H   0  0  0  0  0  0  0  0  0  0  0  0
    8.1304    2.4496   21.0862 H   0  0  0  0  0  0  0  0  0  0  0  0
    9.7527    2.0173   22.3876 N   0  0  0  0  0  0  0  0  0  0  0  0
   10.5550    2.7816   23.3268 C   0  0  0  0  0  0  0  0  0  0  0  0
    9.9800    2.9056   24.2557 H   0  0  0  0  0  0  0  0  0  0  0  0
   11.4129    2.1563   23.6038 H   0  0  0  0  0  0  0  0  0  0  0  0
   11.0568    4.1436   22.8365 C   0  0  0  0  0  0  0  0  0  0  0  0
   10.2143    4.8272   22.6710 H   0  0  0  0  0  0  0  0  0  0  0  0
   11.6056    4.0340   21.8923 H   0  0  0  0  0  0  0  0  0  0  0  0
   11.7174    4.6005   23.5838 H   0  0  0  0  0  0  0  0  0  0  0  0
   10.4228    1.3487   21.2812 C   0  0  0  0  0  0  0  0  0  0  0  0
    9.6558    0.8005   20.7182 H   0  0  0  0  0  0  0  0  0  0  0  0
   10.8654    2.0575   20.5570 H   0  0  0  0  0  0  0  0  0  0  0  0
   11.5206    0.3694   21.7013 C   0  0  0  0  0  0  0  0  0  0  0  0
   11.7519   -0.2999   20.8651 H   0  0  0  0  0  0  0  0  0  0  0  0
   12.4524    0.8799   21.9758 H   0  0  0  0  0  0  0  0  0  0  0  0
   11.1921   -0.2513   22.5352 H   0  0  0  0  0  0  0  0  0  0  0  0
    9.3002   -1.2021   24.0103 C   0  0  0  0  0  0  0  0  0  0  0  0
    9.9087   -0.3027   24.1644 H   0  0  0  0  0  0  0  0  0  0  0  0
    8.7680   -1.3798   24.9473 H   0  0  0  0  0  0  0  0  0  0  0  0
   10.1231   -2.4462   23.5553 C   0  0  0  0  0  0  0  0  0  0  0  0
   10.1251   -3.2325   24.3095 H   0  0  0  0  0  0  0  0  0  0  0  0
   11.1614   -2.1818   23.3607 H   0  0  0  0  0  0  0  0  0  0  0  0
    9.4870   -2.9507   22.2318 C   0  0  0  0  0  0  0  0  0  0  0  0
   10.1841   -2.9101   21.3920 H   0  0  0  0  0  0  0  0  0  0  0  0
    9.0663   -3.9556   22.3058 H   0  0  0  0  0  0  0  0  0  0  0  0
    5.3318    0.7984   20.0842 C   0  0  0  0  0  0  0  0  0  0  0  0
    4.8480    0.8465   21.0617 H   0  0  0  0  0  0  0  0  0  0  0  0
    4.7590    1.4175   18.9727 C   0  0  0  0  0  0  0  0  0  0  0  0
    3.8352    1.9802   19.0520 H   0  0  0  0  0  0  0  0  0  0  0  0
  1  2  1  0
  2  3  2  0
  3  4  1  0
  4  5  1  0
  4  6  2  0
  6  7  1  0
  7  8  2  0
  8  9  1  0
  9 10  1  0
 10 11  2  0
 11 12  1  0
 12 13  1  0
 12 14  1  0
 12 15  1  0
 15 16  1  0
 15 17  1  0
 15 18  1  0
 18 19  1  0
 19 20  1  0
 19 21  1  0
 19 22  1  0
 22 23  1  0
 22 24  1  0
 22 25  1  0
 18 26  1  0
 26 27  1  0
 26 28  1  0
 26 29  1  0
 29 30  1  0
 29 31  1  0
 29 32  1  0
 10 33  1  0
 33 34  1  0
 33 35  1  0
 33 36  1  0
 36 37  1  0
 36 38  1  0
 36 39  1  0
 39 40  1  0
 39 41  1  0
  6 42  1  0
 42 43  1  0
 42 44  2  0
 44 45  1  0
 44  2  1  0
 11  7  1  0
 39  9  1  0
M  END
>  <cnnaffinity>  (1) 
-5.50135

>  <filename>  (1) 
CCN(CC)CCc1c(-c2cccnc2)nn2c1CCC2

$$$$
