
     RDKit          3D

 40 42  0  0  0  0  0  0  0  0999 V2000
    4.9567    1.7933   16.9800 H   0  0  0  0  0  0  0  0  0  0  0  0
    5.3970    1.2855   17.8336 C   0  0  0  0  0  0  0  0  0  0  0  0
    6.5585    0.6549   17.6037 N   0  0  0  0  0  0  0  0  0  0  0  0
    7.1593    0.0731   18.6459 C   0  0  0  0  0  0  0  0  0  0  0  0
    8.1083   -0.4089   18.4033 H   0  0  0  0  0  0  0  0  0  0  0  0
    6.6531    0.0817   19.9663 C   0  0  0  0  0  0  0  0  0  0  0  0
    7.4084   -0.6070   21.0378 C   0  0  0  0  0  0  0  0  0  0  0  0
    8.2454   -1.6517   20.8695 C   0  0  0  0  0  0  0  0  0  0  0  0
    8.6110   -2.0103   19.9303 H   0  0  0  0  0  0  0  0  0  0  0  0
    8.8456   -2.3287   22.3642 S   0  0  0  0  0  0  0  0  0  0  0  0
    8.0843   -1.0299   23.2342 C   0  0  0  0  0  0  0  0  0  0  0  0
    8.1176   -0.5085   24.4499 N   0  0  0  0  0  0  0  0  0  0  0  0
    7.3556    0.6084   24.2925 C   0  0  0  0  0  0  0  0  0  0  0  0
    7.0943    1.6173   25.3635 C   0  0  0  0  0  0  0  0  0  0  0  0
    7.6153    1.3068   26.2753 H   0  0  0  0  0  0  0  0  0  0  0  0
    7.5265    2.5711   25.0504 H   0  0  0  0  0  0  0  0  0  0  0  0
    5.5822    1.7312   25.6235 C   0  0  0  0  0  0  0  0  0  0  0  0
    5.0291    1.7352   24.6737 H   0  0  0  0  0  0  0  0  0  0  0  0
    5.3272    2.6894   26.1001 H   0  0  0  0  0  0  0  0  0  0  0  0
    5.0762    0.6500   26.4512 N   0  0  0  0  0  0  0  0  0  0  0  0
    5.4150    0.7487   27.8678 C   0  0  0  0  0  0  0  0  0  0  0  0
    6.1821    1.5206   28.0301 H   0  0  0  0  0  0  0  0  0  0  0  0
    5.8636   -0.1881   28.2314 H   0  0  0  0  0  0  0  0  0  0  0  0
    4.1970    1.1042   28.7116 C   0  0  0  0  0  0  0  0  0  0  0  0
    3.7698    2.0606   28.3893 H   0  0  0  0  0  0  0  0  0  0  0  0
    3.4187    0.3434   28.6060 H   0  0  0  0  0  0  0  0  0  0  0  0
    4.4733    1.1834   29.7677 H   0  0  0  0  0  0  0  0  0  0  0  0
    5.0888   -0.6961   25.8854 C   0  0  0  0  0  0  0  0  0  0  0  0
    4.9909   -0.6176   24.8021 H   0  0  0  0  0  0  0  0  0  0  0  0
    6.0441   -1.2166   26.0703 H   0  0  0  0  0  0  0  0  0  0  0  0
    3.9586   -1.5610   26.4251 C   0  0  0  0  0  0  0  0  0  0  0  0
    3.9598   -2.5394   25.9291 H   0  0  0  0  0  0  0  0  0  0  0  0
    4.0753   -1.7342   27.4997 H   0  0  0  0  0  0  0  0  0  0  0  0
    2.9899   -1.0802   26.2569 H   0  0  0  0  0  0  0  0  0  0  0  0
    6.8716    0.8082   23.0727 N   0  0  0  0  0  0  0  0  0  0  0  0
    7.3366   -0.2784   22.3995 N   0  0  0  0  0  0  0  0  0  0  0  0
    5.4118    0.7180   20.1717 C   0  0  0  0  0  0  0  0  0  0  0  0
    4.9661    0.7388   21.1663 H   0  0  0  0  0  0  0  0  0  0  0  0
    4.7797    1.3249   19.0857 C   0  0  0  0  0  0  0  0  0  0  0  0
    3.8341    1.8460   19.1937 H   0  0  0  0  0  0  0  0  0  0  0  0
  1  2  1  0
  2  3  2  0
  3  4  1  0
  4  5  1  0
  4  6  2  0
  6  7  1  0
  7  8  2  0
  8  9  1  0
  8 10  1  0
 10 11  1  0
 11 12  2  0
 12 13  1  0
 13 14  1  0
 14 15  1  0
 14 16  1  0
 14 17  1  0
 17 18  1  0
 17 19  1  0
 17 20  1  0
 20 21  1  0
 21 22  1  0
 21 23  1  0
 21 24  1  0
 24 25  1  0
 24 26  1  0
 24 27  1  0
 20 28  1  0
 28 29  1  0
 28 30  1  0
 28 31  1  0
 31 32  1  0
 31 33  1  0
 31 34  1  0
 13 35  2  0
 35 36  1  0
  6 37  1  0
 37 38  1  0
 37 39  2  0
 39 40  1  0
 39  2  1  0
 36  7  1  0
 36 11  1  0
M  END
>  <cnnaffinity>  (1) 
-5.32753

>  <filename>  (1) 
CCN(CC)CCc1nc2scc(-c3cccnc3)n2n1

$$$$
