
     RDKit          3D

 35 37  0  0  0  0  0  0  0  0999 V2000
    4.9509    1.8121   16.9692 H   0  0  0  0  0  0  0  0  0  0  0  0
    5.3997    1.2944   17.8150 C   0  0  0  0  0  0  0  0  0  0  0  0
    6.5538    0.6563   17.5661 N   0  0  0  0  0  0  0  0  0  0  0  0
    7.1552    0.0289   18.5815 C   0  0  0  0  0  0  0  0  0  0  0  0
    8.1018   -0.4544   18.3488 H   0  0  0  0  0  0  0  0  0  0  0  0
    6.6490    0.0073   19.8913 C   0  0  0  0  0  0  0  0  0  0  0  0
    7.4028   -0.6516   20.9547 C   0  0  0  0  0  0  0  0  0  0  0  0
    8.1345   -1.7956   20.7381 N   0  0  0  0  0  0  0  0  0  0  0  0
    8.5198   -2.1348   21.9393 C   0  0  0  0  0  0  0  0  0  0  0  0
    9.5019   -3.3990   22.6023 S   0  0  0  0  0  0  0  0  0  0  0  0
    9.4664   -2.6513   24.1801 C   0  0  0  0  0  0  0  0  0  0  0  0
   10.0497   -3.1184   24.9617 H   0  0  0  0  0  0  0  0  0  0  0  0
    8.6928   -1.5517   24.1966 C   0  0  0  0  0  0  0  0  0  0  0  0
    8.4587   -0.8816   25.0186 H   0  0  0  0  0  0  0  0  0  0  0  0
    8.1326   -1.2940   22.9424 N   0  0  0  0  0  0  0  0  0  0  0  0
    7.4237   -0.2806   22.3099 C   0  0  0  0  0  0  0  0  0  0  0  0
    7.0202    0.8451   22.9817 N   0  0  0  0  0  0  0  0  0  0  0  0
    5.9715    0.7732   23.9942 C   0  0  0  0  0  0  0  0  0  0  0  0
    5.7391   -0.2879   24.1163 H   0  0  0  0  0  0  0  0  0  0  0  0
    5.0528    1.2774   23.6344 H   0  0  0  0  0  0  0  0  0  0  0  0
    6.4022    1.3898   25.3200 C   0  0  0  0  0  0  0  0  0  0  0  0
    5.6281    1.2444   26.0801 H   0  0  0  0  0  0  0  0  0  0  0  0
    7.3245    0.9202   25.6762 H   0  0  0  0  0  0  0  0  0  0  0  0
    6.5874    2.4660   25.2183 H   0  0  0  0  0  0  0  0  0  0  0  0
    7.5101    2.1311   22.5031 C   0  0  0  0  0  0  0  0  0  0  0  0
    7.4172    2.1485   21.4048 H   0  0  0  0  0  0  0  0  0  0  0  0
    6.8591    2.9198   22.9047 H   0  0  0  0  0  0  0  0  0  0  0  0
    8.9742    2.3148   22.9096 C   0  0  0  0  0  0  0  0  0  0  0  0
    9.0805    2.2477   24.0006 H   0  0  0  0  0  0  0  0  0  0  0  0
    9.3654    3.2815   22.5756 H   0  0  0  0  0  0  0  0  0  0  0  0
    9.5846    1.5179   22.4657 H   0  0  0  0  0  0  0  0  0  0  0  0
    5.4246    0.6572   20.1310 C   0  0  0  0  0  0  0  0  0  0  0  0
    4.9848    0.6615   21.1301 H   0  0  0  0  0  0  0  0  0  0  0  0
    4.7933    1.3120   19.0759 C   0  0  0  0  0  0  0  0  0  0  0  0
    3.8618    1.8493   19.2199 H   0  0  0  0  0  0  0  0  0  0  0  0
  1  2  1  0
  2  3  2  0
  3  4  1  0
  4  5  1  0
  4  6  2  0
  6  7  1  0
  7  8  1  0
  8  9  2  0
  9 10  1  0
 10 11  1  0
 11 12  1  0
 11 13  2  0
 13 14  1  0
 13 15  1  0
 15 16  1  0
 16 17  1  0
 17 18  1  0
 18 19  1  0
 18 20  1  0
 18 21  1  0
 21 22  1  0
 21 23  1  0
 21 24  1  0
 17 25  1  0
 25 26  1  0
 25 27  1  0
 25 28  1  0
 28 29  1  0
 28 30  1  0
 28 31  1  0
  6 32  1  0
 32 33  1  0
 32 34  2  0
 34 35  1  0
 34  2  1  0
 16  7  2  0
 15  9  1  0
M  END
>  <cnnaffinity>  (1) 
-5.28774

>  <filename>  (1) 
CCN(CC)c1c(-c2cccnc2)nc2sccn12

$$$$
