
     RDKit          3D

 42 44  0  0  0  0  0  0  0  0999 V2000
    5.1775    1.3464   16.7558 H   0  0  0  0  0  0  0  0  0  0  0  0
    5.5513    0.8603   17.6537 C   0  0  0  0  0  0  0  0  0  0  0  0
    6.6817    0.1528   17.5142 N   0  0  0  0  0  0  0  0  0  0  0  0
    7.1614   -0.4507   18.6073 C   0  0  0  0  0  0  0  0  0  0  0  0
    8.0873   -1.0113   18.4796 H   0  0  0  0  0  0  0  0  0  0  0  0
    6.5630   -0.3825   19.8734 C   0  0  0  0  0  0  0  0  0  0  0  0
    7.2569   -0.9849   21.0162 C   0  0  0  0  0  0  0  0  0  0  0  0
    6.6343   -1.7711   21.8934 N   0  0  0  0  0  0  0  0  0  0  0  0
    7.5780   -2.0101   22.8180 N   0  0  0  0  0  0  0  0  0  0  0  0
    8.7423   -1.4010   22.5911 C   0  0  0  0  0  0  0  0  0  0  0  0
    8.6067   -0.7268   21.4003 C   0  0  0  0  0  0  0  0  0  0  0  0
    9.6103    0.2933   20.9141 C   0  0  0  0  0  0  0  0  0  0  0  0
    9.3023    0.6690   19.9107 H   0  0  0  0  0  0  0  0  0  0  0  0
   10.5735   -0.2114   20.7729 H   0  0  0  0  0  0  0  0  0  0  0  0
    9.8204    1.3953   21.8445 N   0  0  0  0  0  0  0  0  0  0  0  0
   11.0452    2.1260   21.5851 C   0  0  0  0  0  0  0  0  0  0  0  0
   11.8504    1.3837   21.6231 H   0  0  0  0  0  0  0  0  0  0  0  0
   11.0910    2.5513   20.5486 H   0  0  0  0  0  0  0  0  0  0  0  0
   11.3985    3.2435   22.5744 C   0  0  0  0  0  0  0  0  0  0  0  0
   11.0867    3.0031   23.5915 H   0  0  0  0  0  0  0  0  0  0  0  0
   10.9972    4.2298   22.3021 H   0  0  0  0  0  0  0  0  0  0  0  0
   12.4846    3.3644   22.6155 H   0  0  0  0  0  0  0  0  0  0  0  0
    8.5690    2.2412   21.8986 C   0  0  0  0  0  0  0  0  0  0  0  0
    7.9201    1.2437   22.1188 H   0  0  0  0  0  0  0  0  0  0  0  0
    8.7168    2.3136   23.7321 H   0  0  0  0  0  0  0  0  0  0  0  0
    8.6566    2.2235   22.2074 C   0  0  0  0  0  0  0  0  0  0  0  0
    7.5845    2.9575   22.2548 H   0  0  0  0  0  0  0  0  0  0  0  0
    8.1735    2.4661   20.3634 H   0  0  0  0  0  0  0  0  0  0  0  0
    9.0709    3.3490   21.9183 H   0  0  0  0  0  0  0  0  0  0  0  0
    9.6356   -1.4671   23.7837 C   0  0  0  0  0  0  0  0  0  0  0  0
   10.6094   -1.8991   23.5414 H   0  0  0  0  0  0  0  0  0  0  0  0
    9.8157   -0.4523   24.1540 H   0  0  0  0  0  0  0  0  0  0  0  0
    8.8221   -2.3546   24.7723 C   0  0  0  0  0  0  0  0  0  0  0  0
    9.3049   -3.3245   24.8988 H   0  0  0  0  0  0  0  0  0  0  0  0
    8.7480   -1.9024   25.7615 H   0  0  0  0  0  0  0  0  0  0  0  0
    7.4096   -2.5520   24.1485 C   0  0  0  0  0  0  0  0  0  0  0  0
    7.1011   -3.5980   24.0946 H   0  0  0  0  0  0  0  0  0  0  0  0
    6.6288   -1.9919   24.6746 H   0  0  0  0  0  0  0  0  0  0  0  0
    5.3775    0.3588   20.0021 C   0  0  0  0  0  0  0  0  0  0  0  0
    4.8895    0.4594   20.9737 H   0  0  0  0  0  0  0  0  0  0  0  0
    4.8683    0.9890   18.8662 C   0  0  0  0  0  0  0  0  0  0  0  0
    3.9718    1.5995   18.9115 H   0  0  0  0  0  0  0  0  0  0  0  0
  1  2  1  0
  2  3  2  0
  3  4  1  0
  4  5  1  0
  4  6  2  0
  6  7  1  0
  7  8  2  0
  8  9  1  0
  9 10  1  0
 10 11  2  0
 11 12  1  0
 12 13  1  0
 12 14  1  0
 12 15  1  0
 15 16  1  0
 16 17  1  0
 16 18  1  0
 16 19  1  0
 19 20  1  0
 19 21  1  0
 19 22  1  0
 15 23  1  0
 23 24  1  0
 23 25  1  0
 23 26  1  0
 26 27  1  0
 26 28  1  0
 26 29  1  0
 10 30  1  0
 30 31  1  0
 30 32  1  0
 30 33  1  0
 33 34  1  0
 33 35  1  0
 33 36  1  0
 36 37  1  0
 36 38  1  0
  6 39  1  0
 39 40  1  0
 39 41  2  0
 41 42  1  0
 41  2  1  0
 11  7  1  0
 36  9  1  0
M  END
>  <cnnaffinity>  (1) 
-5.43933

>  <filename>  (1) 
CCN(CC)Cc1c(-c2cccnc2)nn2c1CCC2

$$$$
