
     RDKit          3D

 36 38  0  0  0  0  0  0  0  0999 V2000
    5.0365    1.7757   16.9150 H   0  0  0  0  0  0  0  0  0  0  0  0
    5.4355    1.2339   17.7701 C   0  0  0  0  0  0  0  0  0  0  0  0
    6.5749    0.5532   17.5613 N   0  0  0  0  0  0  0  0  0  0  0  0
    7.1258   -0.0763   18.6066 C   0  0  0  0  0  0  0  0  0  0  0  0
    8.0516   -0.6181   18.4161 H   0  0  0  0  0  0  0  0  0  0  0  0
    6.5664   -0.0688   19.9010 C   0  0  0  0  0  0  0  0  0  0  0  0
    7.2548   -0.6476   20.9979 N   0  0  0  0  0  0  0  0  0  0  0  0
    6.7902   -1.6240   21.8781 C   0  0  0  0  0  0  0  0  0  0  0  0
    5.7966   -2.0335   21.7540 H   0  0  0  0  0  0  0  0  0  0  0  0
    7.7549   -1.8909   22.7981 C   0  0  0  0  0  0  0  0  0  0  0  0
    7.8301   -2.5677   23.6258 H   0  0  0  0  0  0  0  0  0  0  0  0
    8.8129   -1.0613   22.4926 N   0  0  0  0  0  0  0  0  0  0  0  0
   10.0366   -0.8293   23.0333 N   0  0  0  0  0  0  0  0  0  0  0  0
   10.5006    0.1601   22.2581 C   0  0  0  0  0  0  0  0  0  0  0  0
   11.7175    0.7516   22.5062 N   0  0  0  0  0  0  0  0  0  0  0  0
   12.7426    0.0177   23.2381 C   0  0  0  0  0  0  0  0  0  0  0  0
   13.5081    0.7374   23.5612 H   0  0  0  0  0  0  0  0  0  0  0  0
   12.2923   -0.3527   24.1620 H   0  0  0  0  0  0  0  0  0  0  0  0
   13.4004   -1.0725   22.3826 C   0  0  0  0  0  0  0  0  0  0  0  0
   14.2695   -1.5093   22.8826 H   0  0  0  0  0  0  0  0  0  0  0  0
   12.6820   -1.8694   22.1605 H   0  0  0  0  0  0  0  0  0  0  0  0
   13.7576   -0.6431   21.4415 H   0  0  0  0  0  0  0  0  0  0  0  0
   12.1150    1.9074   21.7233 C   0  0  0  0  0  0  0  0  0  0  0  0
   13.1632    2.1036   21.9717 H   0  0  0  0  0  0  0  0  0  0  0  0
   12.0631    1.7034   20.6419 H   0  0  0  0  0  0  0  0  0  0  0  0
   11.2951    3.1457   22.0601 C   0  0  0  0  0  0  0  0  0  0  0  0
   11.6769    4.0098   21.5111 H   0  0  0  0  0  0  0  0  0  0  0  0
   10.2342    3.0124   21.8224 H   0  0  0  0  0  0  0  0  0  0  0  0
   11.3816    3.3708   23.1219 H   0  0  0  0  0  0  0  0  0  0  0  0
    9.6154    0.5281   21.2106 C   0  0  0  0  0  0  0  0  0  0  0  0
    9.8185    1.2667   20.4672 H   0  0  0  0  0  0  0  0  0  0  0  0
    8.5271   -0.2952   21.4213 C   0  0  0  0  0  0  0  0  0  0  0  0
    5.3451    0.5921   20.0914 C   0  0  0  0  0  0  0  0  0  0  0  0
    4.8768    0.5978   21.0781 H   0  0  0  0  0  0  0  0  0  0  0  0
    4.7798    1.2687   19.0066 C   0  0  0  0  0  0  0  0  0  0  0  0
    3.8602    1.8374   19.1145 H   0  0  0  0  0  0  0  0  0  0  0  0
  1  2  1  0
  2  3  2  0
  3  4  1  0
  4  5  1  0
  4  6  2  0
  6  7  1  0
  7  8  1  0
  8  9  1  0
  8 10  2  0
 10 11  1  0
 10 12  1  0
 12 13  1  0
 13 14  2  0
 14 15  1  0
 15 16  1  0
 16 17  1  0
 16 18  1  0
 16 19  1  0
 19 20  1  0
 19 21  1  0
 19 22  1  0
 15 23  1  0
 23 24  1  0
 23 25  1  0
 23 26  1  0
 26 27  1  0
 26 28  1  0
 26 29  1  0
 14 30  1  0
 30 31  1  0
 30 32  2  0
  6 33  1  0
 33 34  1  0
 33 35  2  0
 35 36  1  0
 35  2  1  0
 32  7  1  0
 32 12  1  0
M  END
>  <cnnaffinity>  (1) 
-4.57346

>  <filename>  (1) 
CCN(CC)c1cc2n(-c3cccnc3)ccn2n1

$$$$
