
     RDKit          3D

 34 35  0  0  0  0  0  0  0  0999 V2000
    5.1106    2.0158   16.8661 H   0  0  0  0  0  0  0  0  0  0  0  0
    5.4752    1.4284   17.7072 C   0  0  0  0  0  0  0  0  0  0  0  0
    6.6580    0.8204   17.5227 N   0  0  0  0  0  0  0  0  0  0  0  0
    7.1204    0.0736   18.5271 C   0  0  0  0  0  0  0  0  0  0  0  0
    8.0980   -0.3847   18.3796 H   0  0  0  0  0  0  0  0  0  0  0  0
    6.4099   -0.1617   19.7195 C   0  0  0  0  0  0  0  0  0  0  0  0
    7.0384   -0.9930   20.7512 C   0  0  0  0  0  0  0  0  0  0  0  0
    8.3055   -0.7512   20.9773 N   0  0  0  0  0  0  0  0  0  0  0  0
    8.8960   -1.1607   22.1516 C   0  0  0  0  0  0  0  0  0  0  0  0
   10.2084   -0.7670   22.3093 N   0  0  0  0  0  0  0  0  0  0  0  0
   10.9194   -0.1146   21.2148 C   0  0  0  0  0  0  0  0  0  0  0  0
   11.8436   -0.6788   21.0054 H   0  0  0  0  0  0  0  0  0  0  0  0
   10.2776   -0.2106   20.3414 H   0  0  0  0  0  0  0  0  0  0  0  0
   11.2308    1.3513   21.4968 C   0  0  0  0  0  0  0  0  0  0  0  0
   11.6608    1.8315   20.6131 H   0  0  0  0  0  0  0  0  0  0  0  0
   10.3047    1.8839   21.7412 H   0  0  0  0  0  0  0  0  0  0  0  0
   11.9507    1.4771   22.3137 H   0  0  0  0  0  0  0  0  0  0  0  0
   10.9876   -1.0463   23.4981 C   0  0  0  0  0  0  0  0  0  0  0  0
   10.7800   -2.0674   23.8575 H   0  0  0  0  0  0  0  0  0  0  0  0
   12.0340   -1.0234   23.1668 H   0  0  0  0  0  0  0  0  0  0  0  0
   10.8674   -0.0410   24.6422 C   0  0  0  0  0  0  0  0  0  0  0  0
   11.1155    0.9714   24.3097 H   0  0  0  0  0  0  0  0  0  0  0  0
   11.5780   -0.3036   25.4344 H   0  0  0  0  0  0  0  0  0  0  0  0
    9.8693   -0.0151   25.0869 H   0  0  0  0  0  0  0  0  0  0  0  0
    8.1881   -1.9185   23.0650 C   0  0  0  0  0  0  0  0  0  0  0  0
    8.5739   -2.1427   24.0509 H   0  0  0  0  0  0  0  0  0  0  0  0
    6.9260   -2.3737   22.7114 N   0  0  0  0  0  0  0  0  0  0  0  0
    6.4022   -3.1053   23.1834 H   0  0  0  0  0  0  0  0  0  0  0  0
    6.2820   -2.0620   21.5202 C   0  0  0  0  0  0  0  0  0  0  0  0
    5.2549   -2.6668   21.2667 O   0  0  0  0  0  0  0  0  0  0  0  0
    5.1853    0.4926   19.9084 C   0  0  0  0  0  0  0  0  0  0  0  0
    4.6165    0.3776   20.8337 H   0  0  0  0  0  0  0  0  0  0  0  0
    4.7224    1.3159   18.8794 C   0  0  0  0  0  0  0  0  0  0  0  0
    3.7959    1.8694   18.9662 H   0  0  0  0  0  0  0  0  0  0  0  0
  1  2  1  0
  2  3  2  0
  3  4  1  0
  4  5  1  0
  4  6  2  0
  6  7  1  0
  7  8  2  0
  8  9  1  0
  9 10  1  0
 10 11  1  0
 11 12  1  0
 11 13  1  0
 11 14  1  0
 14 15  1  0
 14 16  1  0
 14 17  1  0
 10 18  1  0
 18 19  1  0
 18 20  1  0
 18 21  1  0
 21 22  1  0
 21 23  1  0
 21 24  1  0
  9 25  2  0
 25 26  1  0
 25 27  1  0
 27 28  1  0
 27 29  1  0
 29 30  2  0
  6 31  1  0
 31 32  1  0
 31 33  2  0
 33 34  1  0
 33  2  1  0
 29  7  1  0
M  END
>  <cnnaffinity>  (1) 
-4.88744

>  <filename>  (1) 
CCN(CC)c1c[nH]c(=O)c(-c2cccnc2)n1

$$$$
