
     RDKit          3D

 39 41  0  0  0  0  0  0  0  0999 V2000
    4.9869    1.7932   16.8643 H   0  0  0  0  0  0  0  0  0  0  0  0
    5.4440    1.3124   17.7273 C   0  0  0  0  0  0  0  0  0  0  0  0
    6.6081    0.6824   17.5089 N   0  0  0  0  0  0  0  0  0  0  0  0
    7.2014    0.1006   18.5528 C   0  0  0  0  0  0  0  0  0  0  0  0
    8.1452   -0.3932   18.3210 H   0  0  0  0  0  0  0  0  0  0  0  0
    6.6834    0.0997   19.8602 C   0  0  0  0  0  0  0  0  0  0  0  0
    7.4190   -0.5458   20.9453 C   0  0  0  0  0  0  0  0  0  0  0  0
    6.9105   -0.8013   22.1149 N   0  0  0  0  0  0  0  0  0  0  0  0
    7.8812   -1.4357   22.8457 N   0  0  0  0  0  0  0  0  0  0  0  0
    7.4636   -1.9401   24.0896 N   0  0  0  0  0  0  0  0  0  0  0  0
    8.4740   -1.7551   25.1506 C   0  0  0  0  0  0  0  0  0  0  0  0
    8.5875   -0.6821   25.3249 H   0  0  0  0  0  0  0  0  0  0  0  0
    9.4477   -2.1700   24.8546 H   0  0  0  0  0  0  0  0  0  0  0  0
    8.0270   -2.4067   26.4591 C   0  0  0  0  0  0  0  0  0  0  0  0
    8.8613   -2.3340   27.1675 H   0  0  0  0  0  0  0  0  0  0  0  0
    7.1782   -1.8446   26.8973 H   0  0  0  0  0  0  0  0  0  0  0  0
    7.7042   -3.8235   26.2885 N   0  0  0  0  0  0  0  0  0  0  0  0
    7.4368   -4.4613   27.5729 C   0  0  0  0  0  0  0  0  0  0  0  0
    8.1340   -4.0234   28.2961 H   0  0  0  0  0  0  0  0  0  0  0  0
    6.4114   -4.2444   27.9356 H   0  0  0  0  0  0  0  0  0  0  0  0
    7.6772   -5.9619   27.5764 C   0  0  0  0  0  0  0  0  0  0  0  0
    7.0026   -6.4736   26.8808 H   0  0  0  0  0  0  0  0  0  0  0  0
    7.4858   -6.3498   28.5858 H   0  0  0  0  0  0  0  0  0  0  0  0
    8.7130   -6.1872   27.2971 H   0  0  0  0  0  0  0  0  0  0  0  0
    6.6339   -3.9594   25.2939 C   0  0  0  0  0  0  0  0  0  0  0  0
    6.3929   -5.0201   25.1535 H   0  0  0  0  0  0  0  0  0  0  0  0
    5.6985   -3.4709   25.6279 H   0  0  0  0  0  0  0  0  0  0  0  0
    7.0683   -3.3608   23.9505 C   0  0  0  0  0  0  0  0  0  0  0  0
    6.2423   -3.4080   23.2371 H   0  0  0  0  0  0  0  0  0  0  0  0
    7.9077   -3.9484   23.5492 H   0  0  0  0  0  0  0  0  0  0  0  0
    9.0594   -1.6796   22.1389 C   0  0  0  0  0  0  0  0  0  0  0  0
   10.0429   -2.2997   22.4984 O   0  0  0  0  0  0  0  0  0  0  0  0
    8.8211   -1.0306   20.8029 C   0  0  0  0  0  0  0  0  0  0  0  0
    9.5523   -0.2333   20.6250 H   0  0  0  0  0  0  0  0  0  0  0  0
    8.9569   -1.7695   20.0048 H   0  0  0  0  0  0  0  0  0  0  0  0
    5.4480    0.7410   20.0675 C   0  0  0  0  0  0  0  0  0  0  0  0
    4.9978    0.7528   21.0614 H   0  0  0  0  0  0  0  0  0  0  0  0
    4.8277    1.3570   18.9823 C   0  0  0  0  0  0  0  0  0  0  0  0
    3.8872    1.8839   19.0925 H   0  0  0  0  0  0  0  0  0  0  0  0
  1  2  1  0
  2  3  2  0
  3  4  1  0
  4  5  1  0
  4  6  2  0
  6  7  1  0
  7  8  2  0
  8  9  1  0
  9 10  1  0
 10 11  1  0
 11 12  1  0
 11 13  1  0
 11 14  1  0
 14 15  1  0
 14 16  1  0
 14 17  1  0
 17 18  1  0
 18 19  1  0
 18 20  1  0
 18 21  1  0
 21 22  1  0
 21 23  1  0
 21 24  1  0
 17 25  1  0
 25 26  1  0
 25 27  1  0
 25 28  1  0
 28 29  1  0
 28 30  1  0
  9 31  1  0
 31 32  2  0
 31 33  1  0
 33 34  1  0
 33 35  1  0
  6 36  1  0
 36 37  1  0
 36 38  2  0
 38 39  1  0
 38  2  1  0
 33  7  1  0
 28 10  1  0
M  END
>  <cnnaffinity>  (1) 
-4.88556

>  <filename>  (1) 
CCN1CCN(N2N=C(c3cccnc3)CC2=O)CC1

$$$$
