
     RDKit          3D

 41 43  0  0  0  0  0  0  0  0999 V2000
    4.9204    1.8025   16.9811 H   0  0  0  0  0  0  0  0  0  0  0  0
    5.3854    1.3009   17.8278 C   0  0  0  0  0  0  0  0  0  0  0  0
    6.5409    0.6703   17.5641 N   0  0  0  0  0  0  0  0  0  0  0  0
    7.1534    0.0477   18.5760 C   0  0  0  0  0  0  0  0  0  0  0  0
    8.1148   -0.4148   18.3613 H   0  0  0  0  0  0  0  0  0  0  0  0
    6.6398   -0.0047   19.8829 C   0  0  0  0  0  0  0  0  0  0  0  0
    7.3528   -0.6748   20.9342 N   0  0  0  0  0  0  0  0  0  0  0  0
    6.7272   -1.7326   21.5771 C   0  0  0  0  0  0  0  0  0  0  0  0
    5.7233   -1.9742   21.2503 H   0  0  0  0  0  0  0  0  0  0  0  0
    7.3352   -2.4423   22.5746 C   0  0  0  0  0  0  0  0  0  0  0  0
    6.7566   -3.5526   23.2078 N   0  0  0  0  0  0  0  0  0  0  0  0
    5.8769   -4.4636   22.4782 C   0  0  0  0  0  0  0  0  0  0  0  0
    6.2363   -4.5167   21.4466 H   0  0  0  0  0  0  0  0  0  0  0  0
    4.8251   -4.1169   22.4371 H   0  0  0  0  0  0  0  0  0  0  0  0
    5.9268   -5.8778   23.1100 C   0  0  0  0  0  0  0  0  0  0  0  0
    5.2021   -6.5266   22.6057 H   0  0  0  0  0  0  0  0  0  0  0  0
    6.9265   -6.2978   22.9371 H   0  0  0  0  0  0  0  0  0  0  0  0
    5.6841   -5.9055   24.5634 N   0  0  0  0  0  0  0  0  0  0  0  0
    4.2796   -5.6938   24.9273 C   0  0  0  0  0  0  0  0  0  0  0  0
    4.2480   -5.2742   25.9416 H   0  0  0  0  0  0  0  0  0  0  0  0
    3.7805   -4.9521   24.2753 H   0  0  0  0  0  0  0  0  0  0  0  0
    3.5128   -7.0079   24.8978 C   0  0  0  0  0  0  0  0  0  0  0  0
    4.0130   -7.7396   25.5398 H   0  0  0  0  0  0  0  0  0  0  0  0
    3.4702   -7.4191   23.8820 H   0  0  0  0  0  0  0  0  0  0  0  0
    2.4867   -6.8629   25.2542 H   0  0  0  0  0  0  0  0  0  0  0  0
    6.6119   -4.9632   25.2110 C   0  0  0  0  0  0  0  0  0  0  0  0
    6.4289   -4.9634   26.2930 H   0  0  0  0  0  0  0  0  0  0  0  0
    7.6321   -5.3358   25.0503 H   0  0  0  0  0  0  0  0  0  0  0  0
    6.5203   -3.5293   24.6550 C   0  0  0  0  0  0  0  0  0  0  0  0
    5.5307   -3.1011   24.9123 H   0  0  0  0  0  0  0  0  0  0  0  0
    7.2635   -2.8824   25.1287 H   0  0  0  0  0  0  0  0  0  0  0  0
    8.6607   -2.0503   22.9648 C   0  0  0  0  0  0  0  0  0  0  0  0
    9.1211   -2.6518   23.7500 H   0  0  0  0  0  0  0  0  0  0  0  0
    9.3048   -1.0232   22.3489 C   0  0  0  0  0  0  0  0  0  0  0  0
   10.3067   -0.7054   22.5960 H   0  0  0  0  0  0  0  0  0  0  0  0
    8.6863   -0.2480   21.2790 C   0  0  0  0  0  0  0  0  0  0  0  0
    9.2418    0.6758   20.7096 O   0  0  0  0  0  0  0  0  0  0  0  0
    5.4272    0.6363   20.1455 C   0  0  0  0  0  0  0  0  0  0  0  0
    5.0327    0.6210   21.1642 H   0  0  0  0  0  0  0  0  0  0  0  0
    4.7968    1.3162   19.0971 C   0  0  0  0  0  0  0  0  0  0  0  0
    3.8694    1.8524   19.2476 H   0  0  0  0  0  0  0  0  0  0  0  0
  1  2  1  0
  2  3  2  0
  3  4  1  0
  4  5  1  0
  4  6  2  0
  6  7  1  0
  7  8  1  0
  8  9  1  0
  8 10  2  0
 10 11  1  0
 11 12  1  0
 12 13  1  0
 12 14  1  0
 12 15  1  0
 15 16  1  0
 15 17  1  0
 15 18  1  0
 18 19  1  0
 19 20  1  0
 19 21  1  0
 19 22  1  0
 22 23  1  0
 22 24  1  0
 22 25  1  0
 18 26  1  0
 26 27  1  0
 26 28  1  0
 26 29  1  0
 29 30  1  0
 29 31  1  0
 10 32  1  0
 32 33  1  0
 32 34  2  0
 34 35  1  0
 34 36  1  0
 36 37  2  0
  6 38  1  0
 38 39  1  0
 38 40  2  0
 40 41  1  0
 40  2  1  0
 36  7  1  0
 29 11  1  0
M  END
>  <cnnaffinity>  (1) 
-5.33228

>  <filename>  (1) 
CCN1CCN(c2ccc(=O)n(-c3cccnc3)c2)CC1

$$$$
