
     RDKit          3D

 30 32  0  0  0  0  0  0  0  0999 V2000
    4.9504    1.7993   16.9757 H   0  0  0  0  0  0  0  0  0  0  0  0
    5.3996    1.2901   17.8254 C   0  0  0  0  0  0  0  0  0  0  0  0
    6.5598    0.6589   17.5836 N   0  0  0  0  0  0  0  0  0  0  0  0
    7.1522    0.0394   18.6072 C   0  0  0  0  0  0  0  0  0  0  0  0
    8.1001   -0.4490   18.3786 H   0  0  0  0  0  0  0  0  0  0  0  0
    6.6352    0.0349   19.9114 C   0  0  0  0  0  0  0  0  0  0  0  0
    7.3807   -0.6275   20.9683 C   0  0  0  0  0  0  0  0  0  0  0  0
    7.8872   -1.8783   20.7541 N   0  0  0  0  0  0  0  0  0  0  0  0
    8.3519   -2.2357   21.9168 C   0  0  0  0  0  0  0  0  0  0  0  0
    9.0962   -3.6460   22.6054 S   0  0  0  0  0  0  0  0  0  0  0  0
    9.3504   -2.7977   24.1196 C   0  0  0  0  0  0  0  0  0  0  0  0
    9.8987   -3.2999   24.9059 H   0  0  0  0  0  0  0  0  0  0  0  0
    8.8098   -1.5654   24.1038 C   0  0  0  0  0  0  0  0  0  0  0  0
    8.7255   -0.8141   24.8793 H   0  0  0  0  0  0  0  0  0  0  0  0
    8.2438   -1.2711   22.8731 N   0  0  0  0  0  0  0  0  0  0  0  0
    7.6204   -0.1991   22.2676 C   0  0  0  0  0  0  0  0  0  0  0  0
    7.3715    1.0767   22.9441 C   0  0  0  0  0  0  0  0  0  0  0  0
    7.3881    1.2460   24.1446 O   0  0  0  0  0  0  0  0  0  0  0  0
    7.1239    2.0455   22.0507 O   0  0  0  0  0  0  0  0  0  0  0  0
    6.9114    3.3858   22.5580 C   0  0  0  0  0  0  0  0  0  0  0  0
    6.2014    3.3491   23.3962 H   0  0  0  0  0  0  0  0  0  0  0  0
    6.4390    3.8932   21.7113 H   0  0  0  0  0  0  0  0  0  0  0  0
    8.2199    4.0457   22.9715 C   0  0  0  0  0  0  0  0  0  0  0  0
    8.6848    3.5082   23.8053 H   0  0  0  0  0  0  0  0  0  0  0  0
    8.0229    5.0741   23.2934 H   0  0  0  0  0  0  0  0  0  0  0  0
    8.9195    4.0772   22.1299 H   0  0  0  0  0  0  0  0  0  0  0  0
    5.4016    0.6582   20.1424 C   0  0  0  0  0  0  0  0  0  0  0  0
    4.9548    0.6617   21.1381 H   0  0  0  0  0  0  0  0  0  0  0  0
    4.7825    1.3056   19.0790 C   0  0  0  0  0  0  0  0  0  0  0  0
    3.8579    1.8471   19.2267 H   0  0  0  0  0  0  0  0  0  0  0  0
  1  2  1  0
  2  3  2  0
  3  4  1  0
  4  5  1  0
  4  6  2  0
  6  7  1  0
  7  8  1  0
  8  9  2  0
  9 10  1  0
 10 11  1  0
 11 12  1  0
 11 13  2  0
 13 14  1  0
 13 15  1  0
 15 16  1  0
 16 17  1  0
 17 18  2  0
 17 19  1  0
 19 20  1  0
 20 21  1  0
 20 22  1  0
 20 23  1  0
 23 24  1  0
 23 25  1  0
 23 26  1  0
  6 27  1  0
 27 28  1  0
 27 29  2  0
 29 30  1  0
 29  2  1  0
 16  7  2  0
 15  9  1  0
M  END
>  <cnnaffinity>  (1) 
-4.97961

>  <filename>  (1) 
CCOC(=O)c1c(-c2cccnc2)nc2sccn12

$$$$
