
     RDKit          3D

 33 35  0  0  0  0  0  0  0  0999 V2000
    5.0012    1.8306   16.8813 H   0  0  0  0  0  0  0  0  0  0  0  0
    5.4283    1.2877   17.7205 C   0  0  0  0  0  0  0  0  0  0  0  0
    6.5700    0.6233   17.4831 N   0  0  0  0  0  0  0  0  0  0  0  0
    7.1424   -0.0222   18.5040 C   0  0  0  0  0  0  0  0  0  0  0  0
    8.0677   -0.5480   18.2723 H   0  0  0  0  0  0  0  0  0  0  0  0
    6.6227   -0.0306   19.8126 C   0  0  0  0  0  0  0  0  0  0  0  0
    7.3968   -0.5958   20.9398 C   0  0  0  0  0  0  0  0  0  0  0  0
    8.5601   -1.2474   20.7464 N   0  0  0  0  0  0  0  0  0  0  0  0
    8.9873   -1.4740   22.0053 N   0  0  0  0  0  0  0  0  0  0  0  0
   10.1049   -2.0747   22.5679 C   0  0  0  0  0  0  0  0  0  0  0  0
   10.8354   -2.5529   21.9388 H   0  0  0  0  0  0  0  0  0  0  0  0
    9.9705   -1.9159   23.9114 C   0  0  0  0  0  0  0  0  0  0  0  0
   10.6112   -2.2125   24.7252 H   0  0  0  0  0  0  0  0  0  0  0  0
    8.7812   -1.2451   24.1631 N   0  0  0  0  0  0  0  0  0  0  0  0
    8.3516   -0.8395   25.4180 N   0  0  0  0  0  0  0  0  0  0  0  0
    8.6988    0.0636   25.7136 H   0  0  0  0  0  0  0  0  0  0  0  0
    6.9812   -0.7893   25.6918 C   0  0  0  0  0  0  0  0  0  0  0  0
    6.1006   -1.4369   25.1924 O   0  0  0  0  0  0  0  0  0  0  0  0
    6.8552    0.1663   26.6362 O   0  0  0  0  0  0  0  0  0  0  0  0
    5.5486    0.4351   27.1676 C   0  0  0  0  0  0  0  0  0  0  0  0
    5.0613   -0.5201   27.3967 H   0  0  0  0  0  0  0  0  0  0  0  0
    5.7498    0.9747   28.1002 H   0  0  0  0  0  0  0  0  0  0  0  0
    4.7167    1.2749   26.2147 C   0  0  0  0  0  0  0  0  0  0  0  0
    3.7368    1.4731   26.6553 H   0  0  0  0  0  0  0  0  0  0  0  0
    5.1938    2.2369   26.0050 H   0  0  0  0  0  0  0  0  0  0  0  0
    4.5540    0.7451   25.2735 H   0  0  0  0  0  0  0  0  0  0  0  0
    8.1712   -0.9851   22.9565 C   0  0  0  0  0  0  0  0  0  0  0  0
    7.0766   -0.4327   22.3043 C   0  0  0  0  0  0  0  0  0  0  0  0
    6.1557   -0.0784   22.7369 H   0  0  0  0  0  0  0  0  0  0  0  0
    5.3917    0.6184   20.0208 C   0  0  0  0  0  0  0  0  0  0  0  0
    4.9131    0.5915   20.9984 H   0  0  0  0  0  0  0  0  0  0  0  0
    4.7955    1.3002   18.9648 C   0  0  0  0  0  0  0  0  0  0  0  0
    3.8712    1.8514   19.0994 H   0  0  0  0  0  0  0  0  0  0  0  0
  1  2  1  0
  2  3  2  0
  3  4  1  0
  4  5  1  0
  4  6  2  0
  6  7  1  0
  7  8  2  0
  8  9  1  0
  9 10  1  0
 10 11  1  0
 10 12  2  0
 12 13  1  0
 12 14  1  0
 14 15  1  0
 15 16  1  0
 15 17  1  0
 17 18  2  0
 17 19  1  0
 19 20  1  0
 20 21  1  0
 20 22  1  0
 20 23  1  0
 23 24  1  0
 23 25  1  0
 23 26  1  0
 14 27  1  0
 27 28  2  0
 28 29  1  0
  6 30  1  0
 30 31  1  0
 30 32  2  0
 32 33  1  0
 32  2  1  0
 28  7  1  0
 27  9  1  0
M  END
>  <cnnaffinity>  (1) 
-5.04285

>  <filename>  (1) 
CCOC(=O)Nn1ccn2nc(-c3cccnc3)cc12

$$$$
