
     RDKit          3D

 28 29  0  0  0  0  0  0  0  0999 V2000
    4.9785    1.8362   16.9571 H   0  0  0  0  0  0  0  0  0  0  0  0
    5.4247    1.3079   17.7998 C   0  0  0  0  0  0  0  0  0  0  0  0
    6.5778    0.6684   17.5616 N   0  0  0  0  0  0  0  0  0  0  0  0
    7.1518    0.0307   18.5940 C   0  0  0  0  0  0  0  0  0  0  0  0
    8.0939   -0.4679   18.3612 H   0  0  0  0  0  0  0  0  0  0  0  0
    6.6198   -0.0148   19.8955 C   0  0  0  0  0  0  0  0  0  0  0  0
    7.3617   -0.7014   21.0303 C   0  0  2  0  0  0  0  0  0  0  0  0
    8.2381   -1.2209   20.6274 H   0  0  0  0  0  0  0  0  0  0  0  0
    6.3767   -2.0520   21.7219 Cl  0  0  0  0  0  0  0  0  0  0  0  0
    7.7838    0.2447   22.1791 C   0  0  0  0  0  0  0  0  0  0  0  0
    8.2292   -0.3611   22.9784 H   0  0  0  0  0  0  0  0  0  0  0  0
    6.8859    0.6939   22.6164 H   0  0  0  0  0  0  0  0  0  0  0  0
    8.7745    1.3184   21.7118 C   0  0  2  0  0  0  0  0  0  0  0  0
    8.3070    1.9237   20.9228 H   0  0  0  0  0  0  0  0  0  0  0  0
   10.0449    0.6959   21.1334 C   0  0  0  0  0  0  0  0  0  0  0  0
    9.8935    0.3503   20.1098 H   0  0  0  0  0  0  0  0  0  0  0  0
   10.3805   -0.1590   21.7561 H   0  0  0  0  0  0  0  0  0  0  0  0
   11.0095    1.7198   21.1187 O   0  0  0  0  0  0  0  0  0  0  0  0
   10.7981    2.5538   22.2489 C   0  0  0  0  0  0  0  0  0  0  0  0
   10.9423    3.5886   21.9231 H   0  0  0  0  0  0  0  0  0  0  0  0
   11.5420    2.3237   23.0303 H   0  0  0  0  0  0  0  0  0  0  0  0
    9.3602    2.2848   22.7606 C   0  0  0  0  0  0  0  0  0  0  0  0
    9.4045    1.8336   23.7568 H   0  0  0  0  0  0  0  0  0  0  0  0
    8.7724    3.2068   22.8562 H   0  0  0  0  0  0  0  0  0  0  0  0
    5.4078    0.6584   20.1145 C   0  0  0  0  0  0  0  0  0  0  0  0
    4.9593    0.6689   21.1071 H   0  0  0  0  0  0  0  0  0  0  0  0
    4.7992    1.3204   19.0473 C   0  0  0  0  0  0  0  0  0  0  0  0
    3.8665    1.8653   19.1818 H   0  0  0  0  0  0  0  0  0  0  0  0
  1  2  1  0
  2  3  2  0
  3  4  1  0
  4  5  1  0
  4  6  2  0
  6  7  1  0
  7  8  1  6
  7  9  1  0
  7 10  1  0
 10 11  1  0
 10 12  1  0
 10 13  1  0
 13 14  1  6
 13 15  1  0
 15 16  1  0
 15 17  1  0
 15 18  1  0
 18 19  1  0
 19 20  1  0
 19 21  1  0
 19 22  1  0
 22 23  1  0
 22 24  1  0
  6 25  1  0
 25 26  1  0
 25 27  2  0
 27 28  1  0
 27  2  1  0
 22 13  1  0
M  END
>  <cnnaffinity>  (1) 
-4.6173

>  <filename>  (1) 
Cl[C@H](C[C@H]1CCOC1)c1cccnc1

$$$$
