
     RDKit          3D

 30 32  0  0  0  0  0  0  0  0999 V2000
    7.0236   -2.4147   20.2597 H   0  0  0  0  0  0  0  0  0  0  0  0
    7.5408   -1.8371   21.0189 C   0  0  0  0  0  0  0  0  0  0  0  0
    7.2273   -0.5289   21.0727 C   0  0  0  0  0  0  0  0  0  0  0  0
    7.4899    0.4647   22.4840 Cl  0  0  0  0  0  0  0  0  0  0  0  0
    6.5482    0.1771   19.9556 C   0  0  0  0  0  0  0  0  0  0  0  0
    7.1139    0.1528   18.6701 C   0  0  0  0  0  0  0  0  0  0  0  0
    8.0667   -0.3506   18.5167 H   0  0  0  0  0  0  0  0  0  0  0  0
    6.5677    0.7264   17.5919 N   0  0  0  0  0  0  0  0  0  0  0  0
    5.3923    1.3511   17.7639 C   0  0  0  0  0  0  0  0  0  0  0  0
    4.9391    1.7775   16.8708 H   0  0  0  0  0  0  0  0  0  0  0  0
    4.7386    1.4360   18.9992 C   0  0  0  0  0  0  0  0  0  0  0  0
    3.7795    1.9376   19.0655 H   0  0  0  0  0  0  0  0  0  0  0  0
    5.3383    0.8689   20.1235 C   0  0  0  0  0  0  0  0  0  0  0  0
    4.8973    0.9604   21.1157 H   0  0  0  0  0  0  0  0  0  0  0  0
    8.4149   -2.6328   21.8781 C   0  0  0  0  0  0  0  0  0  0  0  0
    9.4637   -2.0583   22.5829 C   0  0  0  0  0  0  0  0  0  0  0  0
    9.7932   -1.0507   22.3476 H   0  0  0  0  0  0  0  0  0  0  0  0
   10.1095   -2.7570   23.6262 C   0  0  0  0  0  0  0  0  0  0  0  0
   10.8162   -2.2312   24.2574 H   0  0  0  0  0  0  0  0  0  0  0  0
    9.8085   -4.0728   23.8949 C   0  0  0  0  0  0  0  0  0  0  0  0
   10.3250   -4.6109   24.6886 H   0  0  0  0  0  0  0  0  0  0  0  0
    8.8403   -4.7547   23.0985 C   0  0  0  0  0  0  0  0  0  0  0  0
    8.5266   -6.1314   23.2646 C   0  0  0  0  0  0  0  0  0  0  0  0
    9.0217   -6.6926   24.0542 H   0  0  0  0  0  0  0  0  0  0  0  0
    7.6026   -6.7169   22.4340 C   0  0  0  0  0  0  0  0  0  0  0  0
    7.3132   -7.7559   22.5199 H   0  0  0  0  0  0  0  0  0  0  0  0
    6.9844   -5.9274   21.4329 C   0  0  0  0  0  0  0  0  0  0  0  0
    6.2323   -6.3635   20.7781 H   0  0  0  0  0  0  0  0  0  0  0  0
    7.2421   -4.6567   21.2395 N   0  0  0  0  0  0  0  0  0  0  0  0
    8.1475   -4.0446   22.0590 C   0  0  0  0  0  0  0  0  0  0  0  0
  1  2  1  0
  2  3  2  3
  3  4  1  0
  3  5  1  0
  5  6  2  0
  6  7  1  0
  6  8  1  0
  8  9  2  0
  9 10  1  0
  9 11  1  0
 11 12  1  0
 11 13  2  0
 13 14  1  0
  2 15  1  0
 15 16  2  0
 16 17  1  0
 16 18  1  0
 18 19  1  0
 18 20  2  0
 20 21  1  0
 20 22  1  0
 22 23  2  0
 23 24  1  0
 23 25  1  0
 25 26  1  0
 25 27  2  0
 27 28  1  0
 27 29  1  0
 29 30  2  0
 13  5  1  0
 30 15  1  0
 30 22  1  0
M  END
>  <cnnaffinity>  (1) 
-5.56664

>  <filename>  (1) 
ClC(=Cc1cccc2cccnc12)c1cccnc1

$$$$
