
     RDKit          3D

 32 34  0  0  0  0  0  0  0  0999 V2000
   11.3350    2.8909   21.8287 Cl  0  0  0  0  0  0  0  0  0  0  0  0
   11.0969    1.7277   23.1095 C   0  0  0  0  0  0  0  0  0  0  0  0
   10.9994    2.2186   24.4128 C   0  0  0  0  0  0  0  0  0  0  0  0
   10.7835    1.3259   25.4639 C   0  0  0  0  0  0  0  0  0  0  0  0
   10.6912   -0.0434   25.2145 C   0  0  0  0  0  0  0  0  0  0  0  0
   10.8322   -0.5254   23.9134 C   0  0  0  0  0  0  0  0  0  0  0  0
   10.9911    0.3553   22.8253 C   0  0  0  0  0  0  0  0  0  0  0  0
   10.9486   -0.1608   21.4018 C   0  0  0  0  0  0  0  0  0  0  0  0
    9.6278   -0.0733   20.7737 N   0  0  0  0  0  0  0  0  0  0  0  0
    8.6740   -0.9518   21.2277 C   0  0  0  0  0  0  0  0  0  0  0  0
    8.8391   -2.0073   21.9790 N   0  0  0  0  0  0  0  0  0  0  0  0
    7.5783   -2.4929   22.2819 N   0  0  0  0  0  0  0  0  0  0  0  0
    6.7234   -1.7318   21.6667 C   0  0  0  0  0  0  0  0  0  0  0  0
    7.3471   -0.7398   20.9368 N   0  0  0  0  0  0  0  0  0  0  0  0
    6.7673    0.0248   19.8632 C   0  0  0  0  0  0  0  0  0  0  0  0
    5.5710    0.7061   20.0988 C   0  0  0  0  0  0  0  0  0  0  0  0
    4.9581    1.3666   19.0303 C   0  0  0  0  0  0  0  0  0  0  0  0
    5.5552    1.3103   17.7659 C   0  0  0  0  0  0  0  0  0  0  0  0
    6.7194    0.6805   17.5296 N   0  0  0  0  0  0  0  0  0  0  0  0
    7.3228    0.0748   18.5598 C   0  0  0  0  0  0  0  0  0  0  0  0
    8.2769   -0.4156   18.3545 H   0  0  0  0  0  0  0  0  0  0  0  0
    5.0862    1.7923   16.9092 H   0  0  0  0  0  0  0  0  0  0  0  0
    4.0319    1.9147   19.1700 H   0  0  0  0  0  0  0  0  0  0  0  0
    5.1469    0.7012   21.1035 H   0  0  0  0  0  0  0  0  0  0  0  0
    5.6513   -1.8500   21.6815 H   0  0  0  0  0  0  0  0  0  0  0  0
    9.2315    0.8610   20.7895 H   0  0  0  0  0  0  0  0  0  0  0  0
   11.6654    0.3994   20.8048 H   0  0  0  0  0  0  0  0  0  0  0  0
   11.2675   -1.2035   21.3661 H   0  0  0  0  0  0  0  0  0  0  0  0
   10.7455   -1.5895   23.7066 H   0  0  0  0  0  0  0  0  0  0  0  0
   10.4712   -0.7227   26.0317 H   0  0  0  0  0  0  0  0  0  0  0  0
   10.6939    1.6816   26.4811 H   0  0  0  0  0  0  0  0  0  0  0  0
   11.0518    3.2911   24.5686 H   0  0  0  0  0  0  0  0  0  0  0  0
  1  2  1  0
  2  3  2  0
  3  4  1  0
  4  5  2  0
  5  6  1  0
  6  7  2  0
  7  8  1  0
  8  9  1  0
  9 10  1  0
 10 11  2  0
 11 12  1  0
 12 13  2  0
 13 14  1  0
 14 15  1  0
 15 16  2  0
 16 17  1  0
 17 18  2  0
 18 19  1  0
 19 20  2  0
 20 21  1  0
 18 22  1  0
 17 23  1  0
 16 24  1  0
 13 25  1  0
  9 26  1  0
  8 27  1  0
  8 28  1  0
  6 29  1  0
  5 30  1  0
  4 31  1  0
  3 32  1  0
  7  2  1  0
 14 10  1  0
 20 15  1  0
M  END
>  <cnnaffinity>  (1) 
-5.42076

>  <filename>  (1) 
Clc1ccccc1CNc1nncn1-c1cccnc1

$$$$
