
     RDKit          3D

 30 32  0  0  0  0  0  0  0  0999 V2000
    4.9302    1.7790   17.0017 H   0  0  0  0  0  0  0  0  0  0  0  0
    5.4103    1.2872   17.8457 C   0  0  0  0  0  0  0  0  0  0  0  0
    6.5760    0.6716   17.5918 N   0  0  0  0  0  0  0  0  0  0  0  0
    7.1673    0.0332   18.6072 C   0  0  0  0  0  0  0  0  0  0  0  0
    8.1181   -0.4402   18.3699 H   0  0  0  0  0  0  0  0  0  0  0  0
    6.6444   -0.0211   19.9029 C   0  0  0  0  0  0  0  0  0  0  0  0
    7.3964   -0.7382   20.9603 C   0  0  0  0  0  0  0  0  0  0  0  0
    7.7636   -1.9951   20.6637 N   0  0  0  0  0  0  0  0  0  0  0  0
    8.3388   -2.7217   21.6209 C   0  0  0  0  0  0  0  0  0  0  0  0
    8.5927   -3.7426   21.3471 H   0  0  0  0  0  0  0  0  0  0  0  0
    8.6257   -2.2395   22.9002 C   0  0  0  0  0  0  0  0  0  0  0  0
    9.1168   -2.8786   23.6263 H   0  0  0  0  0  0  0  0  0  0  0  0
    8.2858   -0.9276   23.2060 C   0  0  0  0  0  0  0  0  0  0  0  0
    8.5109   -0.4894   24.1835 H   0  0  0  0  0  0  0  0  0  0  0  0
    7.6767   -0.1401   22.2207 C   0  0  0  0  0  0  0  0  0  0  0  0
    7.3939    1.2975   22.5205 C   0  0  0  0  0  0  0  0  0  0  0  0
    7.8738    2.3201   21.6834 C   0  0  0  0  0  0  0  0  0  0  0  0
    8.4379    2.0461   20.7937 H   0  0  0  0  0  0  0  0  0  0  0  0
    7.6124    3.6578   21.9887 C   0  0  0  0  0  0  0  0  0  0  0  0
    7.9882    4.4560   21.3542 H   0  0  0  0  0  0  0  0  0  0  0  0
    6.8592    3.9992   23.1145 C   0  0  0  0  0  0  0  0  0  0  0  0
    6.6420    5.0379   23.3514 H   0  0  0  0  0  0  0  0  0  0  0  0
    6.3868    2.9778   23.9419 C   0  0  0  0  0  0  0  0  0  0  0  0
    5.4702    3.3927   25.3598 Cl  0  0  0  0  0  0  0  0  0  0  0  0
    6.6531    1.6359   23.6636 C   0  0  0  0  0  0  0  0  0  0  0  0
    6.2696    0.8642   24.3267 H   0  0  0  0  0  0  0  0  0  0  0  0
    5.4338    0.6367   20.1647 C   0  0  0  0  0  0  0  0  0  0  0  0
    5.0090    0.6436   21.1732 H   0  0  0  0  0  0  0  0  0  0  0  0
    4.8081    1.2984   19.1092 C   0  0  0  0  0  0  0  0  0  0  0  0
    3.8791    1.8390   19.2546 H   0  0  0  0  0  0  0  0  0  0  0  0
  1  2  1  0
  2  3  2  0
  3  4  1  0
  4  5  1  0
  4  6  2  0
  6  7  1  0
  7  8  2  0
  8  9  1  0
  9 10  1  0
  9 11  2  0
 11 12  1  0
 11 13  1  0
 13 14  1  0
 13 15  2  0
 15 16  1  0
 16 17  2  0
 17 18  1  0
 17 19  1  0
 19 20  1  0
 19 21  2  0
 21 22  1  0
 21 23  1  0
 23 24  1  0
 23 25  2  0
 25 26  1  0
  6 27  1  0
 27 28  1  0
 27 29  2  0
 29 30  1  0
 29  2  1  0
 15  7  1  0
 25 16  1  0
M  END
>  <cnnaffinity>  (1) 
-4.90107

>  <filename>  (1) 
Clc1cccc(-c2cccnc2-c2cccnc2)c1

$$$$
