
     RDKit          3D

 30 32  0  0  0  0  0  0  0  0999 V2000
    4.9305    1.8442   16.9492 H   0  0  0  0  0  0  0  0  0  0  0  0
    5.3887    1.3214   17.7869 C   0  0  0  0  0  0  0  0  0  0  0  0
    6.5469    0.6881   17.5354 N   0  0  0  0  0  0  0  0  0  0  0  0
    7.1404    0.0600   18.5587 C   0  0  0  0  0  0  0  0  0  0  0  0
    8.0843   -0.4345   18.3206 H   0  0  0  0  0  0  0  0  0  0  0  0
    6.6171   -0.0109   19.8718 C   0  0  0  0  0  0  0  0  0  0  0  0
    7.3438   -0.7169   20.9683 C   0  0  0  0  0  0  0  0  0  0  0  0
    6.7092   -1.5807   21.8881 C   0  0  0  0  0  0  0  0  0  0  0  0
    5.6445   -1.7774   21.8087 H   0  0  0  0  0  0  0  0  0  0  0  0
    7.3452   -2.2440   22.8658 N   0  0  0  0  0  0  0  0  0  0  0  0
    8.6656   -2.0409   22.9900 C   0  0  0  0  0  0  0  0  0  0  0  0
    9.1595   -2.5882   23.7936 H   0  0  0  0  0  0  0  0  0  0  0  0
    9.4073   -1.1741   22.1625 C   0  0  0  0  0  0  0  0  0  0  0  0
   10.8888   -1.0008   22.3009 C   0  0  0  0  0  0  0  0  0  0  0  0
   11.7171   -2.1258   22.1536 C   0  0  0  0  0  0  0  0  0  0  0  0
   11.2313   -3.0931   22.0983 H   0  0  0  0  0  0  0  0  0  0  0  0
   13.1063   -2.0148   22.1079 C   0  0  0  0  0  0  0  0  0  0  0  0
   13.7465   -2.8710   21.9100 H   0  0  0  0  0  0  0  0  0  0  0  0
   13.7133   -0.7842   22.3453 C   0  0  0  0  0  0  0  0  0  0  0  0
   14.7959   -0.7253   22.3687 H   0  0  0  0  0  0  0  0  0  0  0  0
   12.9331    0.3432   22.5847 C   0  0  0  0  0  0  0  0  0  0  0  0
   13.3919    1.2984   22.8278 H   0  0  0  0  0  0  0  0  0  0  0  0
   11.5371    0.2427   22.5008 C   0  0  0  0  0  0  0  0  0  0  0  0
   10.6282    1.7164   22.6846 Cl  0  0  0  0  0  0  0  0  0  0  0  0
    8.7220   -0.5314   21.1255 C   0  0  0  0  0  0  0  0  0  0  0  0
    9.2673    0.1276   20.4507 H   0  0  0  0  0  0  0  0  0  0  0  0
    5.4013    0.6520   20.1002 C   0  0  0  0  0  0  0  0  0  0  0  0
    4.9807    0.6713   21.1050 H   0  0  0  0  0  0  0  0  0  0  0  0
    4.7849    1.3275   19.0469 C   0  0  0  0  0  0  0  0  0  0  0  0
    3.8550    1.8605   19.1892 H   0  0  0  0  0  0  0  0  0  0  0  0
  1  2  1  0
  2  3  2  0
  3  4  1  0
  4  5  1  0
  4  6  2  0
  6  7  1  0
  7  8  2  0
  8  9  1  0
  8 10  1  0
 10 11  2  0
 11 12  1  0
 11 13  1  0
 13 14  1  0
 14 15  2  0
 15 16  1  0
 15 17  1  0
 17 18  1  0
 17 19  2  0
 19 20  1  0
 19 21  1  0
 21 22  1  0
 21 23  2  0
 23 24  1  0
 13 25  2  0
 25 26  1  0
  6 27  1  0
 27 28  1  0
 27 29  2  0
 29 30  1  0
 29  2  1  0
 25  7  1  0
 23 14  1  0
M  END
>  <cnnaffinity>  (1) 
-5.69275

>  <filename>  (1) 
Clc1ccccc1-c1cncc(-c2cccnc2)c1

$$$$
