
     RDKit          3D

 32 34  0  0  0  0  0  0  0  0999 V2000
    4.9356    1.8126   16.9745 H   0  0  0  0  0  0  0  0  0  0  0  0
    5.3927    1.3033   17.8234 C   0  0  0  0  0  0  0  0  0  0  0  0
    6.5512    0.6751   17.5702 N   0  0  0  0  0  0  0  0  0  0  0  0
    7.1492    0.0448   18.5848 C   0  0  0  0  0  0  0  0  0  0  0  0
    8.0941   -0.4452   18.3562 H   0  0  0  0  0  0  0  0  0  0  0  0
    6.6388    0.0074   19.8905 C   0  0  0  0  0  0  0  0  0  0  0  0
    7.4091   -0.7206   20.9040 C   0  0  0  0  0  0  0  0  0  0  0  0
    7.9532   -1.9116   20.7770 N   0  0  0  0  0  0  0  0  0  0  0  0
    8.5572   -2.1801   21.9519 N   0  0  0  0  0  0  0  0  0  0  0  0
    8.4289   -1.1961   22.7693 N   0  0  0  0  0  0  0  0  0  0  0  0
    7.6922   -0.2584   22.1410 N   0  0  0  0  0  0  0  0  0  0  0  0
    7.3860    1.0008   22.8070 C   0  0  0  0  0  0  0  0  0  0  0  0
    8.3175    1.3413   23.2727 H   0  0  0  0  0  0  0  0  0  0  0  0
    7.1076    1.7214   22.0317 H   0  0  0  0  0  0  0  0  0  0  0  0
    6.2616    0.9122   23.8633 C   0  0  0  0  0  0  0  0  0  0  0  0
    5.3693    0.4621   23.4200 H   0  0  0  0  0  0  0  0  0  0  0  0
    5.9891    1.9327   24.1463 H   0  0  0  0  0  0  0  0  0  0  0  0
    6.6568    0.1411   25.0987 C   0  0  0  0  0  0  0  0  0  0  0  0
    6.3198   -1.2195   25.2174 C   0  0  0  0  0  0  0  0  0  0  0  0
    5.7738   -1.6882   24.3986 H   0  0  0  0  0  0  0  0  0  0  0  0
    6.7846   -1.9897   26.2867 C   0  0  0  0  0  0  0  0  0  0  0  0
    6.5353   -3.0451   26.3529 H   0  0  0  0  0  0  0  0  0  0  0  0
    7.6135   -1.4111   27.2488 C   0  0  0  0  0  0  0  0  0  0  0  0
    8.0620   -2.0456   28.0031 H   0  0  0  0  0  0  0  0  0  0  0  0
    7.9287   -0.0508   27.1868 C   0  0  0  0  0  0  0  0  0  0  0  0
    8.5453    0.4320   27.9400 H   0  0  0  0  0  0  0  0  0  0  0  0
    7.4565    0.7073   26.1107 C   0  0  0  0  0  0  0  0  0  0  0  0
    7.9522    2.3844   26.0187 Cl  0  0  0  0  0  0  0  0  0  0  0  0
    5.4207    0.6594   20.1408 C   0  0  0  0  0  0  0  0  0  0  0  0
    4.9658    0.6576   21.1306 H   0  0  0  0  0  0  0  0  0  0  0  0
    4.7882    1.3165   19.0842 C   0  0  0  0  0  0  0  0  0  0  0  0
    3.8556    1.8520   19.2272 H   0  0  0  0  0  0  0  0  0  0  0  0
  1  2  1  0
  2  3  2  0
  3  4  1  0
  4  5  1  0
  4  6  2  0
  6  7  1  0
  7  8  2  0
  8  9  1  0
  9 10  2  0
 10 11  1  0
 11 12  1  0
 12 13  1  0
 12 14  1  0
 12 15  1  0
 15 16  1  0
 15 17  1  0
 15 18  1  0
 18 19  2  0
 19 20  1  0
 19 21  1  0
 21 22  1  0
 21 23  2  0
 23 24  1  0
 23 25  1  0
 25 26  1  0
 25 27  2  0
 27 28  1  0
  6 29  1  0
 29 30  1  0
 29 31  2  0
 31 32  1  0
 31  2  1  0
 11  7  1  0
 27 18  1  0
M  END
>  <cnnaffinity>  (1) 
-5.00209

>  <filename>  (1) 
Clc1ccccc1CCn1nnnc1-c1cccnc1

$$$$
