
     RDKit          3D

 32 34  0  0  0  0  0  0  0  0999 V2000
   10.4721   -1.3287   21.8684 H   0  0  0  0  0  0  0  0  0  0  0  0
    9.3876   -1.3155   21.8932 C   0  0  0  0  0  0  0  0  0  0  0  0
    8.7662   -0.7233   20.8699 N   0  0  0  0  0  0  0  0  0  0  0  0
    7.4322   -0.7207   20.9213 C   0  0  0  0  0  0  0  0  0  0  0  0
    6.6865    0.0126   19.8873 C   0  0  0  0  0  0  0  0  0  0  0  0
    7.2036    0.0605   18.5892 C   0  0  0  0  0  0  0  0  0  0  0  0
    8.1541   -0.4227   18.3691 H   0  0  0  0  0  0  0  0  0  0  0  0
    6.5868    0.6658   17.5709 N   0  0  0  0  0  0  0  0  0  0  0  0
    5.4261    1.2874   17.8278 C   0  0  0  0  0  0  0  0  0  0  0  0
    4.9514    1.7859   16.9859 H   0  0  0  0  0  0  0  0  0  0  0  0
    4.8262    1.3108   19.0915 C   0  0  0  0  0  0  0  0  0  0  0  0
    3.8863    1.8323   19.2358 H   0  0  0  0  0  0  0  0  0  0  0  0
    5.4640    0.6574   20.1413 C   0  0  0  0  0  0  0  0  0  0  0  0
    5.0306    0.6705   21.1436 H   0  0  0  0  0  0  0  0  0  0  0  0
    6.7378   -1.3898   21.9171 C   0  0  0  0  0  0  0  0  0  0  0  0
    5.6673   -1.4843   21.8632 H   0  0  0  0  0  0  0  0  0  0  0  0
    7.4775   -1.9497   22.9430 C   0  0  0  0  0  0  0  0  0  0  0  0
    6.8054   -2.7108   24.0557 C   0  0  0  0  0  0  0  0  0  0  0  0
    5.7865   -2.3496   24.2145 H   0  0  0  0  0  0  0  0  0  0  0  0
    7.3502   -2.5106   24.9797 H   0  0  0  0  0  0  0  0  0  0  0  0
    6.8320   -4.2010   23.7437 C   0  0  0  0  0  0  0  0  0  0  0  0
    7.9720   -4.9317   24.1102 C   0  0  0  0  0  0  0  0  0  0  0  0
    8.7024   -4.4589   24.7596 H   0  0  0  0  0  0  0  0  0  0  0  0
    8.2126   -6.2074   23.6008 C   0  0  0  0  0  0  0  0  0  0  0  0
    9.1241   -6.7451   23.8500 H   0  0  0  0  0  0  0  0  0  0  0  0
    7.2607   -6.8014   22.7672 C   0  0  0  0  0  0  0  0  0  0  0  0
    7.4848   -7.7708   22.3406 H   0  0  0  0  0  0  0  0  0  0  0  0
    6.0542   -6.1559   22.4867 C   0  0  0  0  0  0  0  0  0  0  0  0
    5.2553   -6.6391   21.9309 H   0  0  0  0  0  0  0  0  0  0  0  0
    5.8660   -4.8507   22.9583 C   0  0  0  0  0  0  0  0  0  0  0  0
    4.3991   -4.0273   22.5015 Cl  0  0  0  0  0  0  0  0  0  0  0  0
    8.8154   -1.9113   22.9388 N   0  0  0  0  0  0  0  0  0  0  0  0
  1  2  1  0
  2  3  2  0
  3  4  1  0
  4  5  1  0
  5  6  2  0
  6  7  1  0
  6  8  1  0
  8  9  2  0
  9 10  1  0
  9 11  1  0
 11 12  1  0
 11 13  2  0
 13 14  1  0
  4 15  2  0
 15 16  1  0
 15 17  1  0
 17 18  1  0
 18 19  1  0
 18 20  1  0
 18 21  1  0
 21 22  2  0
 22 23  1  0
 22 24  1  0
 24 25  1  0
 24 26  2  0
 26 27  1  0
 26 28  1  0
 28 29  1  0
 28 30  2  0
 30 31  1  0
 17 32  2  0
 32  2  1  0
 13  5  1  0
 30 21  1  0
M  END
>  <cnnaffinity>  (1) 
-5.43958

>  <filename>  (1) 
Clc1ccccc1Cc1cc(-c2cccnc2)ncn1

$$$$
