
     RDKit          3D

 30 32  0  0  0  0  0  0  0  0999 V2000
    4.9192    1.7748   17.0039 H   0  0  0  0  0  0  0  0  0  0  0  0
    5.4076    1.2872   17.8482 C   0  0  0  0  0  0  0  0  0  0  0  0
    6.5746    0.6754   17.5909 N   0  0  0  0  0  0  0  0  0  0  0  0
    7.1752    0.0461   18.6047 C   0  0  0  0  0  0  0  0  0  0  0  0
    8.1226   -0.4344   18.3737 H   0  0  0  0  0  0  0  0  0  0  0  0
    6.6627   -0.0105   19.9073 C   0  0  0  0  0  0  0  0  0  0  0  0
    7.4080   -0.7288   20.9644 C   0  0  0  0  0  0  0  0  0  0  0  0
    8.1031   -1.8136   20.5902 N   0  0  0  0  0  0  0  0  0  0  0  0
    8.7417   -2.4940   21.5498 C   0  0  0  0  0  0  0  0  0  0  0  0
    9.2816   -3.3724   21.2325 H   0  0  0  0  0  0  0  0  0  0  0  0
    8.7715   -2.1186   22.8905 C   0  0  0  0  0  0  0  0  0  0  0  0
    9.3161   -2.7103   23.6122 H   0  0  0  0  0  0  0  0  0  0  0  0
    8.0760   -0.9680   23.2822 C   0  0  0  0  0  0  0  0  0  0  0  0
    8.0696   -0.5098   24.6932 C   0  0  0  0  0  0  0  0  0  0  0  0
    9.2439   -0.5641   25.4622 C   0  0  0  0  0  0  0  0  0  0  0  0
   10.1628   -0.9317   25.0122 H   0  0  0  0  0  0  0  0  0  0  0  0
    9.2362   -0.1304   26.7853 C   0  0  0  0  0  0  0  0  0  0  0  0
   10.1476   -0.1794   27.3704 H   0  0  0  0  0  0  0  0  0  0  0  0
    8.0622    0.3611   27.3662 C   0  0  0  0  0  0  0  0  0  0  0  0
    8.0525    0.7010   28.3953 H   0  0  0  0  0  0  0  0  0  0  0  0
    6.8960    0.4114   26.5966 C   0  0  0  0  0  0  0  0  0  0  0  0
    5.4317    1.0237   27.3049 Cl  0  0  0  0  0  0  0  0  0  0  0  0
    6.8871   -0.0114   25.2701 C   0  0  0  0  0  0  0  0  0  0  0  0
    5.9670    0.0203   24.6906 H   0  0  0  0  0  0  0  0  0  0  0  0
    7.3869   -0.2759   22.2884 C   0  0  0  0  0  0  0  0  0  0  0  0
    6.8632    0.6457   22.5255 H   0  0  0  0  0  0  0  0  0  0  0  0
    5.4474    0.6490   20.1636 C   0  0  0  0  0  0  0  0  0  0  0  0
    5.0011    0.6310   21.1622 H   0  0  0  0  0  0  0  0  0  0  0  0
    4.8090    1.3039   19.1125 C   0  0  0  0  0  0  0  0  0  0  0  0
    3.8767    1.8414   19.2636 H   0  0  0  0  0  0  0  0  0  0  0  0
  1  2  1  0
  2  3  2  0
  3  4  1  0
  4  5  1  0
  4  6  2  0
  6  7  1  0
  7  8  2  0
  8  9  1  0
  9 10  1  0
  9 11  2  0
 11 12  1  0
 11 13  1  0
 13 14  1  0
 14 15  2  0
 15 16  1  0
 15 17  1  0
 17 18  1  0
 17 19  2  0
 19 20  1  0
 19 21  1  0
 21 22  1  0
 21 23  2  0
 23 24  1  0
 13 25  2  0
 25 26  1  0
  6 27  1  0
 27 28  1  0
 27 29  2  0
 29 30  1  0
 29  2  1  0
 25  7  1  0
 23 14  1  0
M  END
>  <cnnaffinity>  (1) 
-4.70259

>  <filename>  (1) 
Clc1cccc(-c2ccnc(-c3cccnc3)c2)c1

$$$$
