
     RDKit          3D

 40 43  0  0  0  0  0  0  0  0999 V2000
    5.8726   -4.9358   29.0420 Cl  0  0  0  0  0  0  0  0  0  0  0  0
    6.6638   -4.0699   27.7646 C   0  0  0  0  0  0  0  0  0  0  0  0
    8.0585   -4.2482   27.5917 C   0  0  0  0  0  0  0  0  0  0  0  0
    8.7404   -3.5263   26.6293 C   0  0  0  0  0  0  0  0  0  0  0  0
    8.0524   -2.6019   25.8037 C   0  0  0  0  0  0  0  0  0  0  0  0
    8.7578   -1.8876   24.8601 N   0  0  0  0  0  0  0  0  0  0  0  0
    8.0485   -1.0712   24.0922 C   0  0  0  0  0  0  0  0  0  0  0  0
    8.7244   -0.3605   23.1292 N   0  0  0  0  0  0  0  0  0  0  0  0
   10.1693   -0.1599   23.2137 C   0  0  0  0  0  0  0  0  0  0  0  0
   10.4419    0.9934   22.2364 C   0  0  0  0  0  0  0  0  0  0  0  0
    9.2657    0.9817   21.2491 C   0  0  0  0  0  0  0  0  0  0  0  0
    8.0964    0.2806   21.9680 C   0  0  0  0  0  0  0  0  0  0  0  0
    7.3694   -0.7178   21.0286 C   0  0  0  0  0  0  0  0  0  0  0  0
    6.6368   -0.0293   19.8865 C   0  0  0  0  0  0  0  0  0  0  0  0
    5.4290    0.6431   20.1252 C   0  0  0  0  0  0  0  0  0  0  0  0
    4.7923    1.3152   19.0786 C   0  0  0  0  0  0  0  0  0  0  0  0
    5.3899    1.3074   17.8135 C   0  0  0  0  0  0  0  0  0  0  0  0
    6.5482    0.6851   17.5576 N   0  0  0  0  0  0  0  0  0  0  0  0
    7.1497    0.0508   18.5739 C   0  0  0  0  0  0  0  0  0  0  0  0
    8.1025   -0.4179   18.3262 H   0  0  0  0  0  0  0  0  0  0  0  0
    4.9222    1.8188   16.9718 H   0  0  0  0  0  0  0  0  0  0  0  0
    3.8631    1.8557   19.2288 H   0  0  0  0  0  0  0  0  0  0  0  0
    5.0057    0.6457   21.1327 H   0  0  0  0  0  0  0  0  0  0  0  0
    6.6680   -1.3094   21.6269 H   0  0  0  0  0  0  0  0  0  0  0  0
    8.1202   -1.4231   20.6506 H   0  0  0  0  0  0  0  0  0  0  0  0
    7.3621    1.0262   22.3164 H   0  0  0  0  0  0  0  0  0  0  0  0
    8.9766    1.9847   20.9215 H   0  0  0  0  0  0  0  0  0  0  0  0
    9.5192    0.4261   20.3354 H   0  0  0  0  0  0  0  0  0  0  0  0
   11.4049    0.8726   21.7298 H   0  0  0  0  0  0  0  0  0  0  0  0
   10.4815    1.9479   22.7746 H   0  0  0  0  0  0  0  0  0  0  0  0
   10.4753    0.0765   24.2430 H   0  0  0  0  0  0  0  0  0  0  0  0
   10.6978   -1.0854   22.9437 H   0  0  0  0  0  0  0  0  0  0  0  0
    6.5925   -0.9136   24.3015 C   0  0  0  0  0  0  0  0  0  0  0  0
    5.9125   -1.5599   25.2249 N   0  0  0  0  0  0  0  0  0  0  0  0
    6.6338   -2.4409   25.9998 C   0  0  0  0  0  0  0  0  0  0  0  0
    5.9533   -3.1768   26.9982 C   0  0  0  0  0  0  0  0  0  0  0  0
    4.8955   -2.9915   27.1419 H   0  0  0  0  0  0  0  0  0  0  0  0
    6.0336   -0.2222   23.6804 H   0  0  0  0  0  0  0  0  0  0  0  0
    9.8090   -3.6281   26.4702 H   0  0  0  0  0  0  0  0  0  0  0  0
    8.5696   -4.9412   28.2489 H   0  0  0  0  0  0  0  0  0  0  0  0
  1  2  1  0
  2  3  2  0
  3  4  1  0
  4  5  2  0
  5  6  1  0
  6  7  2  0
  7  8  1  0
  8  9  1  0
  9 10  1  0
 10 11  1  0
 11 12  1  0
 12 13  1  0
 13 14  1  0
 14 15  2  0
 15 16  1  0
 16 17  2  0
 17 18  1  0
 18 19  2  0
 19 20  1  0
 17 21  1  0
 16 22  1  0
 15 23  1  0
 13 24  1  0
 13 25  1  0
 12 26  1  0
 11 27  1  0
 11 28  1  0
 10 29  1  0
 10 30  1  0
  9 31  1  0
  9 32  1  0
  7 33  1  0
 33 34  2  0
 34 35  1  0
 35 36  2  0
 36 37  1  0
 33 38  1  0
  4 39  1  0
  3 40  1  0
 36  2  1  0
 35  5  1  0
 12  8  1  0
 19 14  1  0
M  END
>  <cnnaffinity>  (1) 
-5.70094

>  <filename>  (1) 
Clc1ccc2nc(N3CCCC3Cc3cccnc3)cnc2c1

$$$$
