
     RDKit          3D

 30 32  0  0  0  0  0  0  0  0999 V2000
    4.9384    1.7760   16.9982 H   0  0  0  0  0  0  0  0  0  0  0  0
    5.4118    1.2874   17.8471 C   0  0  0  0  0  0  0  0  0  0  0  0
    6.5771    0.6643   17.6079 N   0  0  0  0  0  0  0  0  0  0  0  0
    7.1724    0.0537   18.6348 C   0  0  0  0  0  0  0  0  0  0  0  0
    8.1113   -0.4408   18.3957 H   0  0  0  0  0  0  0  0  0  0  0  0
    6.6488    0.0394   19.9311 C   0  0  0  0  0  0  0  0  0  0  0  0
    7.3832   -0.6975   20.9678 C   0  0  0  0  0  0  0  0  0  0  0  0
    8.0108   -1.7778   20.7014 N   0  0  0  0  0  0  0  0  0  0  0  0
    8.5107   -2.3273   21.9579 C   0  0  0  0  0  0  0  0  0  0  0  0
    9.6018   -2.4028   21.9113 H   0  0  0  0  0  0  0  0  0  0  0  0
    8.1404   -3.3479   22.1057 H   0  0  0  0  0  0  0  0  0  0  0  0
    8.0378   -1.3740   23.0749 C   0  0  0  0  0  0  0  0  0  0  0  0
    8.8696   -0.9675   23.6631 H   0  0  0  0  0  0  0  0  0  0  0  0
    7.3506   -1.8604   23.7817 H   0  0  0  0  0  0  0  0  0  0  0  0
    7.3757   -0.3157   22.3066 N   0  0  0  0  0  0  0  0  0  0  0  0
    7.1599    0.9720   22.8458 C   0  0  0  0  0  0  0  0  0  0  0  0
    7.5622    2.1271   22.1528 C   0  0  0  0  0  0  0  0  0  0  0  0
    8.0206    2.0095   21.1764 H   0  0  0  0  0  0  0  0  0  0  0  0
    7.3431    3.3913   22.7043 C   0  0  0  0  0  0  0  0  0  0  0  0
    7.6461    4.2769   22.1522 H   0  0  0  0  0  0  0  0  0  0  0  0
    6.7337    3.5385   23.9540 C   0  0  0  0  0  0  0  0  0  0  0  0
    6.5611    4.5184   24.3944 H   0  0  0  0  0  0  0  0  0  0  0  0
    6.3518    2.3815   24.6374 C   0  0  0  0  0  0  0  0  0  0  0  0
    5.6115    2.5519   26.2008 Cl  0  0  0  0  0  0  0  0  0  0  0  0
    6.5573    1.1065   24.1089 C   0  0  0  0  0  0  0  0  0  0  0  0
    6.2494    0.2278   24.6658 H   0  0  0  0  0  0  0  0  0  0  0  0
    5.4150    0.6623   20.1680 C   0  0  0  0  0  0  0  0  0  0  0  0
    4.9813    0.6543   21.1721 H   0  0  0  0  0  0  0  0  0  0  0  0
    4.7983    1.3073   19.1041 C   0  0  0  0  0  0  0  0  0  0  0  0
    3.8693    1.8433   19.2483 H   0  0  0  0  0  0  0  0  0  0  0  0
  1  2  1  0
  2  3  2  0
  3  4  1  0
  4  5  1  0
  4  6  2  0
  6  7  1  0
  7  8  2  0
  8  9  1  0
  9 10  1  0
  9 11  1  0
  9 12  1  0
 12 13  1  0
 12 14  1  0
 12 15  1  0
 15 16  1  0
 16 17  2  0
 17 18  1  0
 17 19  1  0
 19 20  1  0
 19 21  2  0
 21 22  1  0
 21 23  1  0
 23 24  1  0
 23 25  2  0
 25 26  1  0
  6 27  1  0
 27 28  1  0
 27 29  2  0
 29 30  1  0
 29  2  1  0
 15  7  1  0
 25 16  1  0
M  END
>  <cnnaffinity>  (1) 
-4.95945

>  <filename>  (1) 
Clc1cccc(N2CCN=C2c2cccnc2)c1

$$$$
