
     RDKit          3D

 30 32  0  0  0  0  0  0  0  0999 V2000
    4.9969    1.8015   16.9531 H   0  0  0  0  0  0  0  0  0  0  0  0
    5.4571    1.3034   17.8046 C   0  0  0  0  0  0  0  0  0  0  0  0
    6.6418    0.7181   17.5688 N   0  0  0  0  0  0  0  0  0  0  0  0
    7.2349    0.0902   18.5891 C   0  0  0  0  0  0  0  0  0  0  0  0
    8.2071   -0.3499   18.3737 H   0  0  0  0  0  0  0  0  0  0  0  0
    6.6654   -0.0336   19.8699 C   0  0  0  0  0  0  0  0  0  0  0  0
    7.3723   -0.7873   20.9080 C   0  0  0  0  0  0  0  0  0  0  0  0
    8.7068   -0.5441   21.1451 N   0  0  0  0  0  0  0  0  0  0  0  0
    9.0295   -1.2838   22.1659 C   0  0  0  0  0  0  0  0  0  0  0  0
   10.0077   -1.2960   22.6322 H   0  0  0  0  0  0  0  0  0  0  0  0
    7.9870   -2.0537   22.5891 N   0  0  0  0  0  0  0  0  0  0  0  0
    7.9511   -2.6293   23.4144 H   0  0  0  0  0  0  0  0  0  0  0  0
    6.9064   -1.7607   21.7942 C   0  0  0  0  0  0  0  0  0  0  0  0
    5.6857   -2.4140   21.9531 N   0  0  0  0  0  0  0  0  0  0  0  0
    4.8942   -1.7918   22.0300 H   0  0  0  0  0  0  0  0  0  0  0  0
    5.4258   -3.6513   22.5731 C   0  0  0  0  0  0  0  0  0  0  0  0
    6.2025   -4.7920   22.3353 C   0  0  0  0  0  0  0  0  0  0  0  0
    7.1176   -4.6853   21.7607 H   0  0  0  0  0  0  0  0  0  0  0  0
    5.8363   -6.0313   22.8800 C   0  0  0  0  0  0  0  0  0  0  0  0
    6.4192   -6.9311   22.7107 H   0  0  0  0  0  0  0  0  0  0  0  0
    4.6889   -6.1280   23.6708 C   0  0  0  0  0  0  0  0  0  0  0  0
    4.2226   -7.6788   24.3131 Cl  0  0  0  0  0  0  0  0  0  0  0  0
    3.9394   -4.9890   23.9738 C   0  0  0  0  0  0  0  0  0  0  0  0
    3.0903   -5.0679   24.6445 H   0  0  0  0  0  0  0  0  0  0  0  0
    4.3038   -3.7648   23.4066 C   0  0  0  0  0  0  0  0  0  0  0  0
    3.7382   -2.8735   23.6542 H   0  0  0  0  0  0  0  0  0  0  0  0
    5.4396    0.6119   20.1057 C   0  0  0  0  0  0  0  0  0  0  0  0
    5.0042    0.6171   21.1072 H   0  0  0  0  0  0  0  0  0  0  0  0
    4.8257    1.2907   19.0523 C   0  0  0  0  0  0  0  0  0  0  0  0
    3.8856    1.8149   19.1829 H   0  0  0  0  0  0  0  0  0  0  0  0
  1  2  1  0
  2  3  2  0
  3  4  1  0
  4  5  1  0
  4  6  2  0
  6  7  1  0
  7  8  1  0
  8  9  2  0
  9 10  1  0
  9 11  1  0
 11 12  1  0
 11 13  1  0
 13 14  1  0
 14 15  1  0
 14 16  1  0
 16 17  2  0
 17 18  1  0
 17 19  1  0
 19 20  1  0
 19 21  2  0
 21 22  1  0
 21 23  1  0
 23 24  1  0
 23 25  2  0
 25 26  1  0
  6 27  1  0
 27 28  1  0
 27 29  2  0
 29 30  1  0
 29  2  1  0
 13  7  2  0
 25 16  1  0
M  END
>  <cnnaffinity>  (1) 
-5.31758

>  <filename>  (1) 
Clc1ccc(Nc2[nH]cnc2-c2cccnc2)cc1

$$$$
