
     RDKit          3D

 31 33  0  0  0  0  0  0  0  0999 V2000
    4.9705    1.8839   16.7244 H   0  0  0  0  0  0  0  0  0  0  0  0
    5.3408    1.4137   17.6323 C   0  0  0  0  0  0  0  0  0  0  0  0
    6.5045    0.7553   17.5132 N   0  0  0  0  0  0  0  0  0  0  0  0
    6.9898    0.1781   18.6163 C   0  0  0  0  0  0  0  0  0  0  0  0
    7.9448   -0.3301   18.5026 H   0  0  0  0  0  0  0  0  0  0  0  0
    6.3708    0.2051   19.8826 C   0  0  0  0  0  0  0  0  0  0  0  0
    7.0460   -0.4192   21.0369 C   0  0  0  0  0  0  0  0  0  0  0  0
    6.7841   -0.2653   22.4252 C   0  0  0  0  0  0  0  0  0  0  0  0
    5.9785    0.2605   22.9182 H   0  0  0  0  0  0  0  0  0  0  0  0
    7.6909   -0.8792   23.1641 N   0  0  0  0  0  0  0  0  0  0  0  0
    8.5208   -1.4637   22.2951 N   0  0  0  0  0  0  0  0  0  0  0  0
    9.7174   -2.1159   22.7900 C   0  0  0  0  0  0  0  0  0  0  0  0
    9.4816   -2.4099   23.8162 H   0  0  0  0  0  0  0  0  0  0  0  0
    9.8575   -3.0311   22.2126 H   0  0  0  0  0  0  0  0  0  0  0  0
   10.9705   -1.2527   22.7308 C   0  0  0  0  0  0  0  0  0  0  0  0
   11.1258   -0.0987   23.5113 C   0  0  0  0  0  0  0  0  0  0  0  0
   10.2970    0.2951   24.0976 H   0  0  0  0  0  0  0  0  0  0  0  0
   12.3549    0.5713   23.5255 C   0  0  0  0  0  0  0  0  0  0  0  0
   12.4674    1.4576   24.1397 H   0  0  0  0  0  0  0  0  0  0  0  0
   13.4315    0.1337   22.7475 C   0  0  0  0  0  0  0  0  0  0  0  0
   14.4003    0.6226   22.7853 H   0  0  0  0  0  0  0  0  0  0  0  0
   13.2281   -0.9564   21.9076 C   0  0  0  0  0  0  0  0  0  0  0  0
   14.4771   -1.5034   20.8440 Cl  0  0  0  0  0  0  0  0  0  0  0  0
   12.0121   -1.6303   21.8820 C   0  0  0  0  0  0  0  0  0  0  0  0
   11.8927   -2.4104   21.1497 H   0  0  0  0  0  0  0  0  0  0  0  0
    8.1731   -1.2211   21.0143 C   0  0  0  0  0  0  0  0  0  0  0  0
    8.7130   -1.6864   20.1968 H   0  0  0  0  0  0  0  0  0  0  0  0
    5.1456    0.8895   19.9764 C   0  0  0  0  0  0  0  0  0  0  0  0
    4.6133    0.9564   20.9257 H   0  0  0  0  0  0  0  0  0  0  0  0
    4.6263    1.5005   18.8323 C   0  0  0  0  0  0  0  0  0  0  0  0
    3.6937    2.0540   18.8556 H   0  0  0  0  0  0  0  0  0  0  0  0
  1  2  1  0
  2  3  2  0
  3  4  1  0
  4  5  1  0
  4  6  2  0
  6  7  1  0
  7  8  1  0
  8  9  1  0
  8 10  2  0
 10 11  1  0
 11 12  1  0
 12 13  1  0
 12 14  1  0
 12 15  1  0
 15 16  2  0
 16 17  1  0
 16 18  1  0
 18 19  1  0
 18 20  2  0
 20 21  1  0
 20 22  1  0
 22 23  1  0
 22 24  2  0
 24 25  1  0
 11 26  1  0
 26 27  1  0
  6 28  1  0
 28 29  1  0
 28 30  2  0
 30 31  1  0
 30  2  1  0
 26  7  2  0
 24 15  1  0
M  END
>  <cnnaffinity>  (1) 
-5.23496

>  <filename>  (1) 
Clc1cccc(Cn2cc(-c3cccnc3)cn2)c1

$$$$
