
     RDKit          3D

 31 34  0  0  0  0  0  0  0  0999 V2000
    4.9468    1.7830   16.9930 H   0  0  0  0  0  0  0  0  0  0  0  0
    5.4006    1.2815   17.8414 C   0  0  0  0  0  0  0  0  0  0  0  0
    6.5630    0.6548   17.6006 N   0  0  0  0  0  0  0  0  0  0  0  0
    7.1669    0.0657   18.6377 C   0  0  0  0  0  0  0  0  0  0  0  0
    8.1181   -0.4203   18.4035 H   0  0  0  0  0  0  0  0  0  0  0  0
    6.6594    0.0736   19.9559 C   0  0  0  0  0  0  0  0  0  0  0  0
    7.4059   -0.5987   21.0368 C   0  0  0  0  0  0  0  0  0  0  0  0
    8.2290   -1.6574   20.9072 C   0  0  0  0  0  0  0  0  0  0  0  0
    8.5740   -2.1042   20.0004 H   0  0  0  0  0  0  0  0  0  0  0  0
    8.8399   -2.2759   22.4078 S   0  0  0  0  0  0  0  0  0  0  0  0
    8.0638   -0.9717   23.2367 C   0  0  0  0  0  0  0  0  0  0  0  0
    8.0720   -0.4516   24.4460 N   0  0  0  0  0  0  0  0  0  0  0  0
    7.3103    0.6439   24.2490 C   0  0  0  0  0  0  0  0  0  0  0  0
    7.1045    1.4587   25.2793 O   0  0  0  0  0  0  0  0  0  0  0  0
    6.5738    2.7279   25.0856 C   0  0  0  0  0  0  0  0  0  0  0  0
    5.7788    3.1733   26.1368 C   0  0  0  0  0  0  0  0  0  0  0  0
    5.6284    2.4774   26.9541 H   0  0  0  0  0  0  0  0  0  0  0  0
    5.2157    4.4477   26.0973 C   0  0  0  0  0  0  0  0  0  0  0  0
    4.5918    4.8040   26.9120 H   0  0  0  0  0  0  0  0  0  0  0  0
    5.4715    5.2683   24.9906 C   0  0  0  0  0  0  0  0  0  0  0  0
    4.7702    6.8614   24.9249 Cl  0  0  0  0  0  0  0  0  0  0  0  0
    6.2814    4.8290   23.9384 C   0  0  0  0  0  0  0  0  0  0  0  0
    6.4711    5.4817   23.0869 H   0  0  0  0  0  0  0  0  0  0  0  0
    6.8360    3.5437   23.9780 C   0  0  0  0  0  0  0  0  0  0  0  0
    7.4370    3.1718   23.1531 H   0  0  0  0  0  0  0  0  0  0  0  0
    6.8121    0.8476   23.0306 N   0  0  0  0  0  0  0  0  0  0  0  0
    7.3206   -0.2369   22.3802 N   0  0  0  0  0  0  0  0  0  0  0  0
    5.4251    0.7130   20.1754 C   0  0  0  0  0  0  0  0  0  0  0  0
    4.9980    0.7349   21.1768 H   0  0  0  0  0  0  0  0  0  0  0  0
    4.7881    1.3224   19.0966 C   0  0  0  0  0  0  0  0  0  0  0  0
    3.8449    1.8441   19.2187 H   0  0  0  0  0  0  0  0  0  0  0  0
  1  2  1  0
  2  3  2  0
  3  4  1  0
  4  5  1  0
  4  6  2  0
  6  7  1  0
  7  8  2  0
  8  9  1  0
  8 10  1  0
 10 11  1  0
 11 12  2  0
 12 13  1  0
 13 14  1  0
 14 15  1  0
 15 16  2  0
 16 17  1  0
 16 18  1  0
 18 19  1  0
 18 20  2  0
 20 21  1  0
 20 22  1  0
 22 23  1  0
 22 24  2  0
 24 25  1  0
 13 26  2  0
 26 27  1  0
  6 28  1  0
 28 29  1  0
 28 30  2  0
 30 31  1  0
 30  2  1  0
 27  7  1  0
 27 11  1  0
 24 15  1  0
M  END
>  <cnnaffinity>  (1) 
-5.51414

>  <filename>  (1) 
Clc1ccc(Oc2nc3scc(-c4cccnc4)n3n2)cc1

$$$$
