
     RDKit          3D

 28 30  0  0  0  0  0  0  0  0999 V2000
    4.9087    1.7714   17.0067 H   0  0  0  0  0  0  0  0  0  0  0  0
    5.4040    1.2902   17.8472 C   0  0  0  0  0  0  0  0  0  0  0  0
    6.5730    0.6803   17.5873 N   0  0  0  0  0  0  0  0  0  0  0  0
    7.1794    0.0514   18.6003 C   0  0  0  0  0  0  0  0  0  0  0  0
    8.1289   -0.4380   18.3803 H   0  0  0  0  0  0  0  0  0  0  0  0
    6.6581    0.0013   19.9033 C   0  0  0  0  0  0  0  0  0  0  0  0
    7.3713   -0.7100   20.9592 C   0  0  0  0  0  0  0  0  0  0  0  0
    7.9789   -1.9190   20.7559 N   0  0  0  0  0  0  0  0  0  0  0  0
    8.4294   -2.2894   21.9242 C   0  0  0  0  0  0  0  0  0  0  0  0
    8.9644   -3.2077   22.1215 H   0  0  0  0  0  0  0  0  0  0  0  0
    8.1570   -1.3738   22.8853 N   0  0  0  0  0  0  0  0  0  0  0  0
    8.4440   -1.4105   23.8528 H   0  0  0  0  0  0  0  0  0  0  0  0
    7.4979   -0.3315   22.2828 C   0  0  0  0  0  0  0  0  0  0  0  0
    7.1282    0.9082   22.9591 C   0  0  0  0  0  0  0  0  0  0  0  0
    7.3012    2.1427   22.3085 C   0  0  0  0  0  0  0  0  0  0  0  0
    7.7179    2.1755   21.3051 H   0  0  0  0  0  0  0  0  0  0  0  0
    6.9404    3.3223   22.9540 C   0  0  0  0  0  0  0  0  0  0  0  0
    7.0736    4.2719   22.4471 H   0  0  0  0  0  0  0  0  0  0  0  0
    6.4154    3.2891   24.2490 C   0  0  0  0  0  0  0  0  0  0  0  0
    6.1395    4.2088   24.7508 H   0  0  0  0  0  0  0  0  0  0  0  0
    6.2557    2.0594   24.8932 C   0  0  0  0  0  0  0  0  0  0  0  0
    5.6135    2.0128   26.5101 Cl  0  0  0  0  0  0  0  0  0  0  0  0
    6.6100    0.8704   24.2640 C   0  0  0  0  0  0  0  0  0  0  0  0
    6.4724   -0.0794   24.7697 H   0  0  0  0  0  0  0  0  0  0  0  0
    5.4372    0.6478   20.1545 C   0  0  0  0  0  0  0  0  0  0  0  0
    5.0089    0.6320   21.1557 H   0  0  0  0  0  0  0  0  0  0  0  0
    4.8030    1.3114   19.1112 C   0  0  0  0  0  0  0  0  0  0  0  0
    3.8707    1.8457   19.2669 H   0  0  0  0  0  0  0  0  0  0  0  0
  1  2  1  0
  2  3  2  0
  3  4  1  0
  4  5  1  0
  4  6  2  0
  6  7  1  0
  7  8  1  0
  8  9  2  0
  9 10  1  0
  9 11  1  0
 11 12  1  0
 11 13  1  0
 13 14  1  0
 14 15  2  0
 15 16  1  0
 15 17  1  0
 17 18  1  0
 17 19  2  0
 19 20  1  0
 19 21  1  0
 21 22  1  0
 21 23  2  0
 23 24  1  0
  6 25  1  0
 25 26  1  0
 25 27  2  0
 27 28  1  0
 27  2  1  0
 13  7  2  0
 23 14  1  0
M  END
>  <cnnaffinity>  (1) 
-5.18894

>  <filename>  (1) 
Clc1cccc(-c2[nH]cnc2-c2cccnc2)c1

$$$$
