
     RDKit          3D

 31 33  0  0  0  0  0  0  0  0999 V2000
    4.9161    1.7858   16.9887 H   0  0  0  0  0  0  0  0  0  0  0  0
    5.3993    1.2970   17.8299 C   0  0  0  0  0  0  0  0  0  0  0  0
    6.5592    0.6775   17.5628 N   0  0  0  0  0  0  0  0  0  0  0  0
    7.1669    0.0754   18.5901 C   0  0  0  0  0  0  0  0  0  0  0  0
    8.1080   -0.4232   18.3650 H   0  0  0  0  0  0  0  0  0  0  0  0
    6.6583    0.0175   19.8998 C   0  0  0  0  0  0  0  0  0  0  0  0
    7.3917   -0.6967   20.9733 C   0  0  0  0  0  0  0  0  0  0  0  0
    8.7788   -0.5406   21.1242 C   0  0  0  0  0  0  0  0  0  0  0  0
    9.3066    0.1266   20.4493 H   0  0  0  0  0  0  0  0  0  0  0  0
    9.4528   -1.2081   22.1499 C   0  0  0  0  0  0  0  0  0  0  0  0
   10.5248   -1.0732   22.2678 H   0  0  0  0  0  0  0  0  0  0  0  0
    8.7449   -2.0412   23.0207 C   0  0  0  0  0  0  0  0  0  0  0  0
    9.2592   -2.5685   23.8179 H   0  0  0  0  0  0  0  0  0  0  0  0
    7.3596   -2.2260   22.8677 C   0  0  0  0  0  0  0  0  0  0  0  0
    6.6062   -3.1130   23.7921 C   0  0  0  0  0  0  0  0  0  0  0  0
    6.6467   -2.8435   25.1711 C   0  0  0  0  0  0  0  0  0  0  0  0
    7.2315   -1.9945   25.5123 H   0  0  0  0  0  0  0  0  0  0  0  0
    5.9475   -3.6291   26.0806 C   0  0  0  0  0  0  0  0  0  0  0  0
    5.9946   -3.4036   27.1405 H   0  0  0  0  0  0  0  0  0  0  0  0
    5.1976   -4.7152   25.6301 C   0  0  0  0  0  0  0  0  0  0  0  0
    4.6486   -5.3428   26.3220 H   0  0  0  0  0  0  0  0  0  0  0  0
    5.1504   -5.0141   24.2660 C   0  0  0  0  0  0  0  0  0  0  0  0
    4.2095   -6.3774   23.7589 Cl  0  0  0  0  0  0  0  0  0  0  0  0
    5.8509   -4.2199   23.3447 C   0  0  0  0  0  0  0  0  0  0  0  0
    5.8217   -4.6365   21.6631 Cl  0  0  0  0  0  0  0  0  0  0  0  0
    6.6952   -1.5379   21.8488 C   0  0  0  0  0  0  0  0  0  0  0  0
    5.6275   -1.6786   21.7147 H   0  0  0  0  0  0  0  0  0  0  0  0
    5.4321    0.6506   20.1510 C   0  0  0  0  0  0  0  0  0  0  0  0
    5.0139    0.6356   21.1620 H   0  0  0  0  0  0  0  0  0  0  0  0
    4.8035    1.3165   19.0990 C   0  0  0  0  0  0  0  0  0  0  0  0
    3.8683    1.8473   19.2537 H   0  0  0  0  0  0  0  0  0  0  0  0
  1  2  1  0
  2  3  2  0
  3  4  1  0
  4  5  1  0
  4  6  2  0
  6  7  1  0
  7  8  2  0
  8  9  1  0
  8 10  1  0
 10 11  1  0
 10 12  2  0
 12 13  1  0
 12 14  1  0
 14 15  1  0
 15 16  2  0
 16 17  1  0
 16 18  1  0
 18 19  1  0
 18 20  2  0
 20 21  1  0
 20 22  1  0
 22 23  1  0
 22 24  2  0
 24 25  1  0
 14 26  2  0
 26 27  1  0
  6 28  1  0
 28 29  1  0
 28 30  2  0
 30 31  1  0
 30  2  1  0
 26  7  1  0
 24 15  1  0
M  END
>  <cnnaffinity>  (1) 
-5.64329

>  <filename>  (1) 
Clc1cccc(-c2cccc(-c3cccnc3)c2)c1Cl

$$$$
