
     RDKit          3D

 33 35  0  0  0  0  0  0  0  0999 V2000
    4.9188    1.8116   16.9897 H   0  0  0  0  0  0  0  0  0  0  0  0
    5.3939    1.3036   17.8279 C   0  0  0  0  0  0  0  0  0  0  0  0
    6.5518    0.6800   17.5659 N   0  0  0  0  0  0  0  0  0  0  0  0
    7.1731    0.0571   18.5748 C   0  0  0  0  0  0  0  0  0  0  0  0
    8.1109   -0.4368   18.3256 H   0  0  0  0  0  0  0  0  0  0  0  0
    6.6724    0.0091   19.8953 C   0  0  0  0  0  0  0  0  0  0  0  0
    7.3422   -0.6688   20.9659 N   0  0  0  0  0  0  0  0  0  0  0  0
    6.8175   -1.6270   21.7980 C   0  0  0  0  0  0  0  0  0  0  0  0
    5.8034   -1.9869   21.7124 H   0  0  0  0  0  0  0  0  0  0  0  0
    7.7017   -2.0464   22.6583 N   0  0  0  0  0  0  0  0  0  0  0  0
    8.8547   -1.3389   22.4250 N   0  0  0  0  0  0  0  0  0  0  0  0
    8.6317   -0.5161   21.4379 C   0  0  0  0  0  0  0  0  0  0  0  0
    9.5473    0.5560   20.9286 C   0  0  0  0  0  0  0  0  0  0  0  0
   10.5454    0.3645   21.3310 H   0  0  0  0  0  0  0  0  0  0  0  0
    9.6096    0.4555   19.8435 H   0  0  0  0  0  0  0  0  0  0  0  0
    9.0774    1.9913   21.2809 C   0  0  0  0  0  0  0  0  0  0  0  0
    8.1366    2.2070   20.7606 H   0  0  0  0  0  0  0  0  0  0  0  0
    9.8145    2.6976   20.8952 H   0  0  0  0  0  0  0  0  0  0  0  0
    8.9280    2.1839   22.7716 C   0  0  0  0  0  0  0  0  0  0  0  0
    7.6814    2.0274   23.3998 C   0  0  0  0  0  0  0  0  0  0  0  0
    6.8172    1.7831   22.7802 H   0  0  0  0  0  0  0  0  0  0  0  0
    7.5507    2.1003   24.7883 C   0  0  0  0  0  0  0  0  0  0  0  0
    6.5798    1.9688   25.2483 H   0  0  0  0  0  0  0  0  0  0  0  0
    8.6852    2.2643   25.5915 C   0  0  0  0  0  0  0  0  0  0  0  0
    8.5956    2.3592   26.6724 H   0  0  0  0  0  0  0  0  0  0  0  0
    9.9477    2.3157   24.9917 C   0  0  0  0  0  0  0  0  0  0  0  0
   10.8677    2.2433   25.5570 H   0  0  0  0  0  0  0  0  0  0  0  0
   10.0531    2.3434   23.6006 C   0  0  0  0  0  0  0  0  0  0  0  0
   11.6500    2.5714   22.9229 Cl  0  0  0  0  0  0  0  0  0  0  0  0
    5.4574    0.6538   20.1472 C   0  0  0  0  0  0  0  0  0  0  0  0
    5.0428    0.6289   21.1544 H   0  0  0  0  0  0  0  0  0  0  0  0
    4.8101    1.3147   19.0980 C   0  0  0  0  0  0  0  0  0  0  0  0
    3.8742    1.8406   19.2515 H   0  0  0  0  0  0  0  0  0  0  0  0
  1  2  1  0
  2  3  2  0
  3  4  1  0
  4  5  1  0
  4  6  2  0
  6  7  1  0
  7  8  1  0
  8  9  1  0
  8 10  2  0
 10 11  1  0
 11 12  2  0
 12 13  1  0
 13 14  1  0
 13 15  1  0
 13 16  1  0
 16 17  1  0
 16 18  1  0
 16 19  1  0
 19 20  2  0
 20 21  1  0
 20 22  1  0
 22 23  1  0
 22 24  2  0
 24 25  1  0
 24 26  1  0
 26 27  1  0
 26 28  2  0
 28 29  1  0
  6 30  1  0
 30 31  1  0
 30 32  2  0
 32 33  1  0
 32  2  1  0
 12  7  1  0
 28 19  1  0
M  END
>  <cnnaffinity>  (1) 
-5.38053

>  <filename>  (1) 
Clc1ccccc1CCc1nncn1-c1cccnc1

$$$$
