
     RDKit          3D

 32 34  0  0  0  0  0  0  0  0999 V2000
    4.9347    1.8128   17.0034 H   0  0  0  0  0  0  0  0  0  0  0  0
    5.4031    1.2980   17.8378 C   0  0  0  0  0  0  0  0  0  0  0  0
    6.5553    0.6620   17.5756 N   0  0  0  0  0  0  0  0  0  0  0  0
    7.1724    0.0384   18.5854 C   0  0  0  0  0  0  0  0  0  0  0  0
    8.1055   -0.4699   18.3402 H   0  0  0  0  0  0  0  0  0  0  0  0
    6.6655    0.0109   19.8991 C   0  0  0  0  0  0  0  0  0  0  0  0
    7.3439   -0.6455   20.9702 N   0  0  0  0  0  0  0  0  0  0  0  0
    6.7202   -1.5590   21.7466 N   0  0  0  0  0  0  0  0  0  0  0  0
    7.5928   -1.9884   22.5841 N   0  0  0  0  0  0  0  0  0  0  0  0
    8.7857   -1.3797   22.4047 N   0  0  0  0  0  0  0  0  0  0  0  0
    8.6214   -0.5318   21.4183 C   0  0  0  0  0  0  0  0  0  0  0  0
    9.5727    0.4961   20.8971 C   0  0  0  0  0  0  0  0  0  0  0  0
   10.5664    0.2919   21.3006 H   0  0  0  0  0  0  0  0  0  0  0  0
    9.6323    0.3664   19.8163 H   0  0  0  0  0  0  0  0  0  0  0  0
    9.1420    1.9490   21.2132 C   0  0  0  0  0  0  0  0  0  0  0  0
    8.2103    2.1846   20.6863 H   0  0  0  0  0  0  0  0  0  0  0  0
    9.8982    2.6352   20.8249 H   0  0  0  0  0  0  0  0  0  0  0  0
    8.9981    2.1709   22.6973 C   0  0  0  0  0  0  0  0  0  0  0  0
    7.7459    2.0684   23.3342 C   0  0  0  0  0  0  0  0  0  0  0  0
    6.8701    1.8452   22.7282 H   0  0  0  0  0  0  0  0  0  0  0  0
    7.6200    2.1638   24.7208 C   0  0  0  0  0  0  0  0  0  0  0  0
    6.6434    2.0879   25.1892 H   0  0  0  0  0  0  0  0  0  0  0  0
    8.7602    2.3012   25.5189 C   0  0  0  0  0  0  0  0  0  0  0  0
    8.6715    2.4107   26.5981 H   0  0  0  0  0  0  0  0  0  0  0  0
   10.0242    2.3093   24.9161 C   0  0  0  0  0  0  0  0  0  0  0  0
   10.9280    2.2501   25.5081 H   0  0  0  0  0  0  0  0  0  0  0  0
   10.1283    2.3066   23.5242 C   0  0  0  0  0  0  0  0  0  0  0  0
   11.7261    2.4882   22.8318 Cl  0  0  0  0  0  0  0  0  0  0  0  0
    5.4508    0.6487   20.1549 C   0  0  0  0  0  0  0  0  0  0  0  0
    5.0263    0.5940   21.1574 H   0  0  0  0  0  0  0  0  0  0  0  0
    4.8112    1.3127   19.1068 C   0  0  0  0  0  0  0  0  0  0  0  0
    3.8740    1.8417   19.2596 H   0  0  0  0  0  0  0  0  0  0  0  0
  1  2  1  0
  2  3  2  0
  3  4  1  0
  4  5  1  0
  4  6  2  0
  6  7  1  0
  7  8  1  0
  8  9  2  0
  9 10  1  0
 10 11  2  0
 11 12  1  0
 12 13  1  0
 12 14  1  0
 12 15  1  0
 15 16  1  0
 15 17  1  0
 15 18  1  0
 18 19  2  0
 19 20  1  0
 19 21  1  0
 21 22  1  0
 21 23  2  0
 23 24  1  0
 23 25  1  0
 25 26  1  0
 25 27  2  0
 27 28  1  0
  6 29  1  0
 29 30  1  0
 29 31  2  0
 31 32  1  0
 31  2  1  0
 11  7  1  0
 27 18  1  0
M  END
>  <cnnaffinity>  (1) 
-5.24639

>  <filename>  (1) 
Clc1ccccc1CCc1nnnn1-c1cccnc1

$$$$
