
     RDKit          3D

 33 35  0  0  0  0  0  0  0  0999 V2000
    4.9168    1.7734   17.0043 H   0  0  0  0  0  0  0  0  0  0  0  0
    5.4072    1.2866   17.8478 C   0  0  0  0  0  0  0  0  0  0  0  0
    6.5692    0.6685   17.5891 N   0  0  0  0  0  0  0  0  0  0  0  0
    7.1885    0.0649   18.6083 C   0  0  0  0  0  0  0  0  0  0  0  0
    8.1275   -0.4252   18.3757 H   0  0  0  0  0  0  0  0  0  0  0  0
    6.6778    0.0117   19.9138 C   0  0  0  0  0  0  0  0  0  0  0  0
    7.4326   -0.7089   20.9666 C   0  0  0  0  0  0  0  0  0  0  0  0
    8.7717   -0.6908   20.8929 N   0  0  0  0  0  0  0  0  0  0  0  0
    9.4462   -1.3160   21.8648 C   0  0  0  0  0  0  0  0  0  0  0  0
   10.5279   -1.2815   21.8060 H   0  0  0  0  0  0  0  0  0  0  0  0
    8.8451   -2.0108   22.9158 C   0  0  0  0  0  0  0  0  0  0  0  0
    9.4471   -2.5135   23.6579 H   0  0  0  0  0  0  0  0  0  0  0  0
    7.4556   -2.0498   22.9863 C   0  0  0  0  0  0  0  0  0  0  0  0
    6.7301   -2.8176   24.0655 C   0  0  0  0  0  0  0  0  0  0  0  0
    5.9394   -2.1832   24.4805 H   0  0  0  0  0  0  0  0  0  0  0  0
    7.4170   -3.0374   24.8847 H   0  0  0  0  0  0  0  0  0  0  0  0
    6.1245   -4.0943   23.5235 C   0  0  0  0  0  0  0  0  0  0  0  0
    4.7964   -4.0924   23.0701 C   0  0  0  0  0  0  0  0  0  0  0  0
    4.2089   -3.1865   23.1614 H   0  0  0  0  0  0  0  0  0  0  0  0
    4.2093   -5.2301   22.5260 C   0  0  0  0  0  0  0  0  0  0  0  0
    3.1727   -5.2206   22.2017 H   0  0  0  0  0  0  0  0  0  0  0  0
    4.9697   -6.3911   22.4126 C   0  0  0  0  0  0  0  0  0  0  0  0
    4.5097   -7.2658   21.9951 H   0  0  0  0  0  0  0  0  0  0  0  0
    6.3003   -6.4294   22.8231 C   0  0  0  0  0  0  0  0  0  0  0  0
    6.8901   -7.3375   22.7302 H   0  0  0  0  0  0  0  0  0  0  0  0
    6.8679   -5.2771   23.3696 C   0  0  0  0  0  0  0  0  0  0  0  0
    8.5363   -5.3660   23.8686 Cl  0  0  0  0  0  0  0  0  0  0  0  0
    6.7512   -1.3939   21.9806 C   0  0  0  0  0  0  0  0  0  0  0  0
    5.6720   -1.4287   21.9437 H   0  0  0  0  0  0  0  0  0  0  0  0
    5.4477    0.6444   20.1629 C   0  0  0  0  0  0  0  0  0  0  0  0
    5.0040    0.6386   21.1626 H   0  0  0  0  0  0  0  0  0  0  0  0
    4.8104    1.3080   19.1141 C   0  0  0  0  0  0  0  0  0  0  0  0
    3.8760    1.8412   19.2642 H   0  0  0  0  0  0  0  0  0  0  0  0
  1  2  1  0
  2  3  2  0
  3  4  1  0
  4  5  1  0
  4  6  2  0
  6  7  1  0
  7  8  2  0
  8  9  1  0
  9 10  1  0
  9 11  2  0
 11 12  1  0
 11 13  1  0
 13 14  1  0
 14 15  1  0
 14 16  1  0
 14 17  1  0
 17 18  2  0
 18 19  1  0
 18 20  1  0
 20 21  1  0
 20 22  2  0
 22 23  1  0
 22 24  1  0
 24 25  1  0
 24 26  2  0
 26 27  1  0
 13 28  2  0
 28 29  1  0
  6 30  1  0
 30 31  1  0
 30 32  2  0
 32 33  1  0
 32  2  1  0
 28  7  1  0
 26 17  1  0
M  END
>  <cnnaffinity>  (1) 
-5.60478

>  <filename>  (1) 
Clc1ccccc1Cc1ccnc(-c2cccnc2)c1

$$$$
