
     RDKit          3D

 29 31  0  0  0  0  0  0  0  0999 V2000
    4.9908    1.8156   16.9692 H   0  0  0  0  0  0  0  0  0  0  0  0
    5.4458    1.2905   17.8111 C   0  0  0  0  0  0  0  0  0  0  0  0
    6.6008    0.6516   17.5694 N   0  0  0  0  0  0  0  0  0  0  0  0
    7.1806    0.0224   18.6005 C   0  0  0  0  0  0  0  0  0  0  0  0
    8.1168   -0.4760   18.3726 H   0  0  0  0  0  0  0  0  0  0  0  0
    6.6699   -0.0170   19.9163 C   0  0  0  0  0  0  0  0  0  0  0  0
    7.3950   -0.6764   21.0174 C   0  0  0  0  0  0  0  0  0  0  0  0
    7.2053   -0.5087   22.4159 C   0  0  0  0  0  0  0  0  0  0  0  0
    6.5099    0.1472   22.9217 H   0  0  0  0  0  0  0  0  0  0  0  0
    8.0518   -1.2388   23.1333 N   0  0  0  0  0  0  0  0  0  0  0  0
    8.7303   -1.9063   22.2086 N   0  0  0  0  0  0  0  0  0  0  0  0
    9.8212   -2.6791   22.5065 O   0  0  0  0  0  0  0  0  0  0  0  0
    9.7857   -3.4406   23.6766 C   0  0  0  0  0  0  0  0  0  0  0  0
   11.0587   -3.8950   24.0148 C   0  0  0  0  0  0  0  0  0  0  0  0
   11.8671   -3.6012   23.3548 H   0  0  0  0  0  0  0  0  0  0  0  0
   11.2332   -4.7164   25.1225 C   0  0  0  0  0  0  0  0  0  0  0  0
   12.2206   -5.0988   25.3571 H   0  0  0  0  0  0  0  0  0  0  0  0
   10.1470   -5.0499   25.9354 C   0  0  0  0  0  0  0  0  0  0  0  0
   10.2846   -5.6679   26.8169 H   0  0  0  0  0  0  0  0  0  0  0  0
    8.8904   -4.5479   25.5967 C   0  0  0  0  0  0  0  0  0  0  0  0
    7.5795   -4.7910   26.7093 Cl  0  0  0  0  0  0  0  0  0  0  0  0
    8.6683   -3.7742   24.4485 C   0  0  0  0  0  0  0  0  0  0  0  0
    7.6733   -3.4074   24.2284 H   0  0  0  0  0  0  0  0  0  0  0  0
    8.4450   -1.5742   20.9368 C   0  0  0  0  0  0  0  0  0  0  0  0
    9.0598   -1.9878   20.1511 H   0  0  0  0  0  0  0  0  0  0  0  0
    5.4487    0.6339   20.1323 C   0  0  0  0  0  0  0  0  0  0  0  0
    4.9963    0.6265   21.1246 H   0  0  0  0  0  0  0  0  0  0  0  0
    4.8317    1.2927   19.0694 C   0  0  0  0  0  0  0  0  0  0  0  0
    3.8988    1.8235   19.2048 H   0  0  0  0  0  0  0  0  0  0  0  0
  1  2  1  0
  2  3  2  0
  3  4  1  0
  4  5  1  0
  4  6  2  0
  6  7  1  0
  7  8  1  0
  8  9  1  0
  8 10  2  0
 10 11  1  0
 11 12  1  0
 12 13  1  0
 13 14  2  0
 14 15  1  0
 14 16  1  0
 16 17  1  0
 16 18  2  0
 18 19  1  0
 18 20  1  0
 20 21  1  0
 20 22  2  0
 22 23  1  0
 11 24  1  0
 24 25  1  0
  6 26  1  0
 26 27  1  0
 26 28  2  0
 28 29  1  0
 28  2  1  0
 24  7  2  0
 22 13  1  0
M  END
>  <cnnaffinity>  (1) 
-5.193

>  <filename>  (1) 
Clc1cccc(On2cc(-c3cccnc3)cn2)c1

$$$$
