
     RDKit          3D

 27 28  0  0  0  0  0  0  0  0999 V2000
    5.0443    1.8152   16.9188 H   0  0  0  0  0  0  0  0  0  0  0  0
    5.4622    1.3084   17.7873 C   0  0  0  0  0  0  0  0  0  0  0  0
    6.6165    0.6490   17.5917 N   0  0  0  0  0  0  0  0  0  0  0  0
    7.1588    0.0173   18.6418 C   0  0  0  0  0  0  0  0  0  0  0  0
    8.0624   -0.5591   18.4415 H   0  0  0  0  0  0  0  0  0  0  0  0
    6.5961    0.0193   19.9231 C   0  0  0  0  0  0  0  0  0  0  0  0
    7.3761   -0.8978   21.2519 S   0  0  0  0  0  0  0  0  0  0  0  0
    8.4558    0.1907   21.9540 N   0  0  0  0  0  0  0  0  0  0  0  0
    8.0477    1.0439   22.3088 H   0  0  0  0  0  0  0  0  0  0  0  0
    9.8170    0.3260   21.4414 C   0  0  0  0  0  0  0  0  0  0  0  0
   10.3154   -0.6508   21.4918 H   0  0  0  0  0  0  0  0  0  0  0  0
    9.7851    0.5933   20.3758 H   0  0  0  0  0  0  0  0  0  0  0  0
   10.6179    1.3616   22.2086 C   0  0  0  0  0  0  0  0  0  0  0  0
   10.7830    2.6518   21.6948 C   0  0  0  0  0  0  0  0  0  0  0  0
   10.3179    2.8506   20.7377 H   0  0  0  0  0  0  0  0  0  0  0  0
   11.5298    3.6283   22.3626 C   0  0  0  0  0  0  0  0  0  0  0  0
   11.6177    4.6311   21.9572 H   0  0  0  0  0  0  0  0  0  0  0  0
   12.1758    3.3004   23.5593 C   0  0  0  0  0  0  0  0  0  0  0  0
   12.7957    4.0496   24.0401 H   0  0  0  0  0  0  0  0  0  0  0  0
   12.0364    2.0172   24.0987 C   0  0  0  0  0  0  0  0  0  0  0  0
   12.5463    1.7219   25.0106 H   0  0  0  0  0  0  0  0  0  0  0  0
   11.2334    1.0801   23.4405 C   0  0  0  0  0  0  0  0  0  0  0  0
   10.9952   -0.4760   24.1751 Cl  0  0  0  0  0  0  0  0  0  0  0  0
    5.3648    0.6691   20.1036 C   0  0  0  0  0  0  0  0  0  0  0  0
    4.8701    0.6290   21.0719 H   0  0  0  0  0  0  0  0  0  0  0  0
    4.7958    1.3381   19.0176 C   0  0  0  0  0  0  0  0  0  0  0  0
    3.8531    1.8718   19.1081 H   0  0  0  0  0  0  0  0  0  0  0  0
  1  2  1  0
  2  3  2  0
  3  4  1  0
  4  5  1  0
  4  6  2  0
  6  7  1  0
  7  8  1  0
  8  9  1  0
  8 10  1  0
 10 11  1  0
 10 12  1  0
 10 13  1  0
 13 14  2  0
 14 15  1  0
 14 16  1  0
 16 17  1  0
 16 18  2  0
 18 19  1  0
 18 20  1  0
 20 21  1  0
 20 22  2  0
 22 23  1  0
  6 24  1  0
 24 25  1  0
 24 26  2  0
 26 27  1  0
 26  2  1  0
 22 13  1  0
M  END
>  <cnnaffinity>  (1) 
-4.74709

>  <filename>  (1) 
Clc1ccccc1CNSc1cccnc1

$$$$
