
     RDKit          3D

 30 32  0  0  0  0  0  0  0  0999 V2000
    4.9112    1.8223   16.9553 H   0  0  0  0  0  0  0  0  0  0  0  0
    5.3802    1.3162   17.7997 C   0  0  0  0  0  0  0  0  0  0  0  0
    6.5386    0.6860   17.5434 N   0  0  0  0  0  0  0  0  0  0  0  0
    7.1492    0.0761   18.5679 C   0  0  0  0  0  0  0  0  0  0  0  0
    8.0889   -0.4194   18.3272 H   0  0  0  0  0  0  0  0  0  0  0  0
    6.6476    0.0381   19.8900 C   0  0  0  0  0  0  0  0  0  0  0  0
    7.2886   -0.6903   21.0024 C   0  0  0  0  0  0  0  0  0  0  0  0
    6.7968   -1.6422   21.8660 C   0  0  0  0  0  0  0  0  0  0  0  0
    5.7924   -2.0233   21.9519 H   0  0  0  0  0  0  0  0  0  0  0  0
    7.8145   -2.1273   22.6194 N   0  0  0  0  0  0  0  0  0  0  0  0
    8.9088   -1.5131   22.2959 N   0  0  0  0  0  0  0  0  0  0  0  0
    8.6064   -0.6272   21.3339 N   0  0  0  0  0  0  0  0  0  0  0  0
    9.6674    0.1937   20.7665 C   0  0  0  0  0  0  0  0  0  0  0  0
    9.1982    0.8738   20.0590 H   0  0  0  0  0  0  0  0  0  0  0  0
   10.3459   -0.4915   20.2522 H   0  0  0  0  0  0  0  0  0  0  0  0
   10.4135    0.9774   21.8160 C   0  0  0  0  0  0  0  0  0  0  0  0
   11.6916    0.5584   22.2120 C   0  0  0  0  0  0  0  0  0  0  0  0
   12.1323   -0.3001   21.7035 H   0  0  0  0  0  0  0  0  0  0  0  0
   12.3788    1.2007   23.2468 C   0  0  0  0  0  0  0  0  0  0  0  0
   13.3658    0.8548   23.5443 H   0  0  0  0  0  0  0  0  0  0  0  0
   11.7703    2.2727   23.9045 C   0  0  0  0  0  0  0  0  0  0  0  0
   12.2547    2.7667   24.7334 H   0  0  0  0  0  0  0  0  0  0  0  0
   10.5039    2.7170   23.5210 C   0  0  0  0  0  0  0  0  0  0  0  0
   10.0252    3.5509   24.0236 H   0  0  0  0  0  0  0  0  0  0  0  0
    9.8316    2.0662   22.4833 C   0  0  0  0  0  0  0  0  0  0  0  0
    8.2409    2.6457   22.0546 Cl  0  0  0  0  0  0  0  0  0  0  0  0
    5.4246    0.6773   20.1191 C   0  0  0  0  0  0  0  0  0  0  0  0
    5.0052    0.6552   21.1234 H   0  0  0  0  0  0  0  0  0  0  0  0
    4.7868    1.3367   19.0663 C   0  0  0  0  0  0  0  0  0  0  0  0
    3.8513    1.8655   19.2114 H   0  0  0  0  0  0  0  0  0  0  0  0
  1  2  1  0
  2  3  2  0
  3  4  1  0
  4  5  1  0
  4  6  2  0
  6  7  1  0
  7  8  2  0
  8  9  1  0
  8 10  1  0
 10 11  2  0
 11 12  1  0
 12 13  1  0
 13 14  1  0
 13 15  1  0
 13 16  1  0
 16 17  2  0
 17 18  1  0
 17 19  1  0
 19 20  1  0
 19 21  2  0
 21 22  1  0
 21 23  1  0
 23 24  1  0
 23 25  2  0
 25 26  1  0
  6 27  1  0
 27 28  1  0
 27 29  2  0
 29 30  1  0
 29  2  1  0
 12  7  1  0
 25 16  1  0
M  END
>  <cnnaffinity>  (1) 
-5.56497

>  <filename>  (1) 
Clc1ccccc1Cn1nncc1-c1cccnc1

$$$$
