
     RDKit          3D

 32 35  0  0  0  0  0  0  0  0999 V2000
    4.9450    1.8152   16.9821 H   0  0  0  0  0  0  0  0  0  0  0  0
    5.4025    1.2948   17.8212 C   0  0  0  0  0  0  0  0  0  0  0  0
    6.5629    0.6696   17.5673 N   0  0  0  0  0  0  0  0  0  0  0  0
    7.1529    0.0209   18.5750 C   0  0  0  0  0  0  0  0  0  0  0  0
    8.1060   -0.4531   18.3386 H   0  0  0  0  0  0  0  0  0  0  0  0
    6.6244   -0.0273   19.8758 C   0  0  0  0  0  0  0  0  0  0  0  0
    7.3450   -0.7028   20.9516 C   0  0  0  0  0  0  0  0  0  0  0  0
    7.9813   -1.8493   20.7511 N   0  0  0  0  0  0  0  0  0  0  0  0
    8.4508   -2.1623   21.9610 N   0  0  0  0  0  0  0  0  0  0  0  0
    8.2191   -1.2766   22.9244 C   0  0  0  0  0  0  0  0  0  0  0  0
    7.4962   -0.2654   22.3128 C   0  0  0  0  0  0  0  0  0  0  0  0
    7.2118    1.0120   22.9038 C   0  0  0  0  0  0  0  0  0  0  0  0
    6.9590    1.1421   24.6054 S   0  0  0  0  0  0  0  0  0  0  0  0
    6.8192    2.8550   24.4802 C   0  0  0  0  0  0  0  0  0  0  0  0
    6.5084    3.7952   25.8824 Cl  0  0  0  0  0  0  0  0  0  0  0  0
    6.9830    3.3071   23.2041 C   0  0  0  0  0  0  0  0  0  0  0  0
    6.9275    4.3553   22.9446 H   0  0  0  0  0  0  0  0  0  0  0  0
    7.2198    2.2353   22.2964 C   0  0  0  0  0  0  0  0  0  0  0  0
    7.4036    2.3119   21.2333 H   0  0  0  0  0  0  0  0  0  0  0  0
    9.0736   -1.5496   24.1368 C   0  0  0  0  0  0  0  0  0  0  0  0
    8.4664   -1.6786   25.0379 H   0  0  0  0  0  0  0  0  0  0  0  0
    9.7406   -0.6956   24.3104 H   0  0  0  0  0  0  0  0  0  0  0  0
    9.8511   -2.8370   23.7280 C   0  0  0  0  0  0  0  0  0  0  0  0
    9.6012   -3.6900   24.3625 H   0  0  0  0  0  0  0  0  0  0  0  0
   10.9307   -2.7012   23.7841 H   0  0  0  0  0  0  0  0  0  0  0  0
    9.4604   -3.1382   22.2556 C   0  0  0  0  0  0  0  0  0  0  0  0
    9.0355   -4.1344   22.1208 H   0  0  0  0  0  0  0  0  0  0  0  0
   10.2897   -2.9548   21.5662 H   0  0  0  0  0  0  0  0  0  0  0  0
    5.4104    0.6277   20.1265 C   0  0  0  0  0  0  0  0  0  0  0  0
    5.0003    0.6465   21.1362 H   0  0  0  0  0  0  0  0  0  0  0  0
    4.7897    1.2997   19.0773 C   0  0  0  0  0  0  0  0  0  0  0  0
    3.8671    1.8445   19.2298 H   0  0  0  0  0  0  0  0  0  0  0  0
  1  2  1  0
  2  3  2  0
  3  4  1  0
  4  5  1  0
  4  6  2  0
  6  7  1  0
  7  8  2  0
  8  9  1  0
  9 10  1  0
 10 11  2  0
 11 12  1  0
 12 13  1  0
 13 14  1  0
 14 15  1  0
 14 16  2  0
 16 17  1  0
 16 18  1  0
 18 19  1  0
 10 20  1  0
 20 21  1  0
 20 22  1  0
 20 23  1  0
 23 24  1  0
 23 25  1  0
 23 26  1  0
 26 27  1  0
 26 28  1  0
  6 29  1  0
 29 30  1  0
 29 31  2  0
 31 32  1  0
 31  2  1  0
 11  7  1  0
 18 12  2  0
 26  9  1  0
M  END
>  <cnnaffinity>  (1) 
-5.59523

>  <filename>  (1) 
Clc1ccc(-c2c(-c3cccnc3)nn3c2CCC3)s1

$$$$
