
     RDKit          3D

 31 33  0  0  0  0  0  0  0  0999 V2000
    4.9240    1.8156   16.9582 H   0  0  0  0  0  0  0  0  0  0  0  0
    5.3823    1.3105   17.8108 C   0  0  0  0  0  0  0  0  0  0  0  0
    6.5392    0.6798   17.5570 N   0  0  0  0  0  0  0  0  0  0  0  0
    7.1336    0.0644   18.5891 C   0  0  0  0  0  0  0  0  0  0  0  0
    8.0865   -0.4172   18.3700 H   0  0  0  0  0  0  0  0  0  0  0  0
    6.6162    0.0063   19.8948 C   0  0  0  0  0  0  0  0  0  0  0  0
    7.3457   -0.6963   20.9624 C   0  0  0  0  0  0  0  0  0  0  0  0
    8.6763   -0.6395   21.3257 C   0  0  0  0  0  0  0  0  0  0  0  0
    9.7725    0.2248   20.7739 C   0  0  0  0  0  0  0  0  0  0  0  0
   10.5475   -0.4480   20.3955 H   0  0  0  0  0  0  0  0  0  0  0  0
    9.3985    0.8231   19.9399 H   0  0  0  0  0  0  0  0  0  0  0  0
   10.3793    1.1337   21.8211 C   0  0  0  0  0  0  0  0  0  0  0  0
   11.5740    0.7670   22.4526 C   0  0  0  0  0  0  0  0  0  0  0  0
   12.0668   -0.1460   22.1259 H   0  0  0  0  0  0  0  0  0  0  0  0
   12.1159    1.5318   23.4861 C   0  0  0  0  0  0  0  0  0  0  0  0
   13.0388    1.2195   23.9660 H   0  0  0  0  0  0  0  0  0  0  0  0
   11.4666    2.6971   23.8953 C   0  0  0  0  0  0  0  0  0  0  0  0
   11.8608    3.3342   24.6794 H   0  0  0  0  0  0  0  0  0  0  0  0
   10.2734    3.0863   23.2792 C   0  0  0  0  0  0  0  0  0  0  0  0
    9.5184    4.5428   23.8408 Cl  0  0  0  0  0  0  0  0  0  0  0  0
    9.7252    2.3019   22.2494 C   0  0  0  0  0  0  0  0  0  0  0  0
    8.2127    2.7280   21.5212 Cl  0  0  0  0  0  0  0  0  0  0  0  0
    8.7961   -1.5472   22.4017 C   0  0  0  0  0  0  0  0  0  0  0  0
    9.6836   -1.7887   22.9829 H   0  0  0  0  0  0  0  0  0  0  0  0
    7.6359   -2.1135   22.7019 N   0  0  0  0  0  0  0  0  0  0  0  0
    6.7672   -1.5687   21.8305 N   0  0  0  0  0  0  0  0  0  0  0  0
    5.7961   -1.8425   21.8580 H   0  0  0  0  0  0  0  0  0  0  0  0
    5.3989    0.6618   20.1357 C   0  0  0  0  0  0  0  0  0  0  0  0
    4.9808    0.6624   21.1424 H   0  0  0  0  0  0  0  0  0  0  0  0
    4.7826    1.3296   19.0745 C   0  0  0  0  0  0  0  0  0  0  0  0
    3.8540    1.8676   19.2169 H   0  0  0  0  0  0  0  0  0  0  0  0
  1  2  1  0
  2  3  2  0
  3  4  1  0
  4  5  1  0
  4  6  2  0
  6  7  1  0
  7  8  2  0
  8  9  1  0
  9 10  1  0
  9 11  1  0
  9 12  1  0
 12 13  2  0
 13 14  1  0
 13 15  1  0
 15 16  1  0
 15 17  2  0
 17 18  1  0
 17 19  1  0
 19 20  1  0
 19 21  2  0
 21 22  1  0
  8 23  1  0
 23 24  1  0
 23 25  2  0
 25 26  1  0
 26 27  1  0
  6 28  1  0
 28 29  1  0
 28 30  2  0
 30 31  1  0
 30  2  1  0
 26  7  1  0
 21 12  1  0
M  END
>  <cnnaffinity>  (1) 
-5.68378

>  <filename>  (1) 
Clc1cccc(Cc2cn[nH]c2-c2cccnc2)c1Cl

$$$$
