
     RDKit          3D

 25 26  0  0  0  0  0  0  0  0999 V2000
    6.8107   -6.9637   22.6865 Cl  0  0  0  0  0  0  0  0  0  0  0  0
    7.4019   -5.3387   22.7654 C   0  0  0  0  0  0  0  0  0  0  0  0
    8.3660   -4.9710   23.7188 C   0  0  0  0  0  0  0  0  0  0  0  0
    8.8451   -3.7239   23.7788 N   0  0  0  0  0  0  0  0  0  0  0  0
    8.3773   -2.8168   22.9069 C   0  0  0  0  0  0  0  0  0  0  0  0
    7.3996   -3.0943   21.9060 C   0  0  0  0  0  0  0  0  0  0  0  0
    6.9365   -2.1531   21.0060 N   0  0  0  0  0  0  0  0  0  0  0  0
    7.3674   -0.7710   20.9819 C   0  0  0  0  0  0  0  0  0  0  0  0
    6.6498   -0.0067   19.9045 C   0  0  0  0  0  0  0  0  0  0  0  0
    5.4414    0.6500   20.1569 C   0  0  0  0  0  0  0  0  0  0  0  0
    4.8033    1.3116   19.1062 C   0  0  0  0  0  0  0  0  0  0  0  0
    5.4046    1.2904   17.8404 C   0  0  0  0  0  0  0  0  0  0  0  0
    6.5675    0.6737   17.5780 N   0  0  0  0  0  0  0  0  0  0  0  0
    7.1657    0.0512   18.6034 C   0  0  0  0  0  0  0  0  0  0  0  0
    8.1173   -0.4274   18.3770 H   0  0  0  0  0  0  0  0  0  0  0  0
    4.9147    1.7775   16.9985 H   0  0  0  0  0  0  0  0  0  0  0  0
    3.8696    1.8472   19.2607 H   0  0  0  0  0  0  0  0  0  0  0  0
    5.0061    0.6320   21.1619 H   0  0  0  0  0  0  0  0  0  0  0  0
    8.4515   -0.7169   20.8147 H   0  0  0  0  0  0  0  0  0  0  0  0
    7.1709   -0.2880   21.9507 H   0  0  0  0  0  0  0  0  0  0  0  0
    6.2367   -2.4305   20.3382 H   0  0  0  0  0  0  0  0  0  0  0  0
    6.9075   -4.4098   21.8537 C   0  0  0  0  0  0  0  0  0  0  0  0
    6.1582   -4.7067   21.1243 H   0  0  0  0  0  0  0  0  0  0  0  0
    8.7872   -1.8175   22.9876 H   0  0  0  0  0  0  0  0  0  0  0  0
    8.7528   -5.6945   24.4325 H   0  0  0  0  0  0  0  0  0  0  0  0
  1  2  1  0
  2  3  2  0
  3  4  1  0
  4  5  2  0
  5  6  1  0
  6  7  1  0
  7  8  1  0
  8  9  1  0
  9 10  2  0
 10 11  1  0
 11 12  2  0
 12 13  1  0
 13 14  2  0
 14 15  1  0
 12 16  1  0
 11 17  1  0
 10 18  1  0
  8 19  1  0
  8 20  1  0
  7 21  1  0
  6 22  2  0
 22 23  1  0
  5 24  1  0
  3 25  1  0
 22  2  1  0
 14  9  1  0
M  END
>  <cnnaffinity>  (1) 
-4.83808

>  <filename>  (1) 
Clc1cncc(NCc2cccnc2)c1

$$$$
