
     RDKit          3D

 28 30  0  0  0  0  0  0  0  0999 V2000
    4.9636    1.8092   16.9924 H   0  0  0  0  0  0  0  0  0  0  0  0
    5.4058    1.2875   17.8359 C   0  0  0  0  0  0  0  0  0  0  0  0
    6.5764    0.6744   17.6016 N   0  0  0  0  0  0  0  0  0  0  0  0
    7.1879    0.0740   18.6290 C   0  0  0  0  0  0  0  0  0  0  0  0
    8.1455   -0.3928   18.3946 H   0  0  0  0  0  0  0  0  0  0  0  0
    6.6556    0.0395   19.9362 C   0  0  0  0  0  0  0  0  0  0  0  0
    7.3300   -0.6531   20.9977 N   0  0  0  0  0  0  0  0  0  0  0  0
    7.6827   -1.9758   20.9568 C   0  0  0  0  0  0  0  0  0  0  0  0
    7.3806   -2.5889   20.1271 H   0  0  0  0  0  0  0  0  0  0  0  0
    8.2441   -2.3995   22.0570 N   0  0  0  0  0  0  0  0  0  0  0  0
    8.2107   -1.3198   22.8946 C   0  0  0  0  0  0  0  0  0  0  0  0
    8.5632   -1.3913   23.9135 H   0  0  0  0  0  0  0  0  0  0  0  0
    7.6436   -0.2270   22.2925 C   0  0  0  0  0  0  0  0  0  0  0  0
    7.3303    1.0952   22.8482 C   0  0  0  0  0  0  0  0  0  0  0  0
    7.5551    2.2672   22.1061 C   0  0  0  0  0  0  0  0  0  0  0  0
    7.9171    2.1580   21.0873 H   0  0  0  0  0  0  0  0  0  0  0  0
    7.2806    3.5146   22.6615 C   0  0  0  0  0  0  0  0  0  0  0  0
    7.4687    4.4106   22.0750 H   0  0  0  0  0  0  0  0  0  0  0  0
    6.7698    3.6113   23.9641 C   0  0  0  0  0  0  0  0  0  0  0  0
    6.5552    4.5741   24.4118 H   0  0  0  0  0  0  0  0  0  0  0  0
    6.5344    2.4432   24.6944 C   0  0  0  0  0  0  0  0  0  0  0  0
    5.9030    2.5449   26.3150 Cl  0  0  0  0  0  0  0  0  0  0  0  0
    6.8074    1.1918   24.1511 C   0  0  0  0  0  0  0  0  0  0  0  0
    6.5827    0.2931   24.7161 H   0  0  0  0  0  0  0  0  0  0  0  0
    5.4147    0.6591   20.1536 C   0  0  0  0  0  0  0  0  0  0  0  0
    4.9828    0.6546   21.1531 H   0  0  0  0  0  0  0  0  0  0  0  0
    4.7820    1.2991   19.0856 C   0  0  0  0  0  0  0  0  0  0  0  0
    3.8431    1.8322   19.2196 H   0  0  0  0  0  0  0  0  0  0  0  0
  1  2  1  0
  2  3  2  0
  3  4  1  0
  4  5  1  0
  4  6  2  0
  6  7  1  0
  7  8  1  0
  8  9  1  0
  8 10  2  0
 10 11  1  0
 11 12  1  0
 11 13  2  0
 13 14  1  0
 14 15  2  0
 15 16  1  0
 15 17  1  0
 17 18  1  0
 17 19  2  0
 19 20  1  0
 19 21  1  0
 21 22  1  0
 21 23  2  0
 23 24  1  0
  6 25  1  0
 25 26  1  0
 25 27  2  0
 27 28  1  0
 27  2  1  0
 13  7  1  0
 23 14  1  0
M  END
>  <cnnaffinity>  (1) 
-5.08977

>  <filename>  (1) 
Clc1cccc(-c2cncn2-c2cccnc2)c1

$$$$
