
     RDKit          3D

 34 36  0  0  0  0  0  0  0  0999 V2000
    4.9001    1.7781   16.9981 H   0  0  0  0  0  0  0  0  0  0  0  0
    5.3825    1.3064   17.8335 C   0  0  0  0  0  0  0  0  0  0  0  0
    6.5583    0.7092   17.5206 N   0  0  0  0  0  0  0  0  0  0  0  0
    7.1650    0.1062   18.5366 C   0  0  0  0  0  0  0  0  0  0  0  0
    8.1188   -0.4174   18.3491 H   0  0  0  0  0  0  0  0  0  0  0  0
    6.6070    0.0676   19.8626 C   0  0  0  0  0  0  0  0  0  0  0  0
    7.1805   -0.7609   20.9562 N   0  0  0  0  0  0  0  0  0  0  0  0
    6.8303   -0.4873   21.9599 H   0  0  0  0  0  0  0  0  0  0  0  0
    8.3566   -1.6529   20.7092 C   0  0  0  0  0  0  0  0  0  0  0  0
    8.3566   -1.6528   20.7093 O   0  0  0  0  0  0  0  0  0  0  0  0
    6.6944   -3.4014   19.9775 C   0  0  0  0  0  0  0  0  0  0  0  0
    6.1162   -3.6292   21.1112 C   0  0  0  0  0  0  0  0  0  0  0  0
    6.2704   -2.9591   21.9840 H   0  0  0  0  0  0  0  0  0  0  0  0
    5.1524   -4.6849   21.0537 C   0  0  0  0  0  0  0  0  0  0  0  0
    4.3989   -4.6771   21.8209 H   0  0  0  0  0  0  0  0  0  0  0  0
    5.1248   -5.5111   19.8543 C   0  0  0  0  0  0  0  0  0  0  0  0
    4.5929   -6.3064   19.5653 H   0  0  0  0  0  0  0  0  0  0  0  0
    5.9651   -5.7723   18.8136 C   0  0  0  0  0  0  0  0  0  0  0  0
    5.4949   -7.5876   17.8988 Cl  0  0  0  0  0  0  0  0  0  0  0  0
    6.4555   -4.1480   18.7698 C   0  0  0  0  0  0  0  0  0  0  0  0
    6.8675   -3.6959   17.7377 H   0  0  0  0  0  0  0  0  0  0  0  0
    9.0163   -2.2221   22.1325 C   0  0  0  0  0  0  0  0  0  0  0  0
    9.1557   -3.3651   22.1518 H   0  0  0  0  0  0  0  0  0  0  0  0
    8.5148   -1.8758   23.1424 H   0  0  0  0  0  0  0  0  0  0  0  0
   10.3893   -1.4345   21.9173 C   0  0  0  0  0  0  0  0  0  0  0  0
   10.5481   -0.6735   22.6410 H   0  0  0  0  0  0  0  0  0  0  0  0
   11.1909   -2.1075   21.7050 H   0  0  0  0  0  0  0  0  0  0  0  0
    9.7348   -0.7986   20.6965 C   0  0  0  0  0  0  0  0  0  0  0  0
   10.1133   -0.9845   19.7263 H   0  0  0  0  0  0  0  0  0  0  0  0
    9.6874    0.3030   20.5914 H   0  0  0  0  0  0  0  0  0  0  0  0
    5.4081    0.6792   20.1610 C   0  0  0  0  0  0  0  0  0  0  0  0
    5.0056    0.6278   21.1623 H   0  0  0  0  0  0  0  0  0  0  0  0
    4.7888    1.3252   19.0980 C   0  0  0  0  0  0  0  0  0  0  0  0
    3.8647    1.8496   19.2650 H   0  0  0  0  0  0  0  0  0  0  0  0
  1  2  1  0
  2  3  2  0
  3  4  1  0
  4  5  1  0
  4  6  2  0
  6  7  1  0
  7  8  1  0
  7  9  1  0
  9 10  1  0
 10 11  1  0
 11 12  2  0
 12 13  1  0
 12 14  1  0
 14 15  1  0
 14 16  2  0
 16 17  1  0
 16 18  1  0
 18 19  1  0
 18 20  2  0
 20 21  1  0
  9 22  1  0
 22 23  1  0
 22 24  1  0
 22 25  1  0
 25 26  1  0
 25 27  1  0
 25 28  1  0
 28 29  1  0
 28 30  1  0
  6 31  1  0
 31 32  1  0
 31 33  2  0
 33 34  1  0
 33  2  1  0
 28  9  1  0
 20 11  1  0
M  END
>  <cnnaffinity>  (1) 
-4.74509

>  <filename>  (1) 
Clc1cccc(OC2(Nc3cccnc3)CCC2)c1

$$$$
