
     RDKit          3D

 34 36  0  0  0  0  0  0  0  0999 V2000
    4.9235    1.8125   16.9640 H   0  0  0  0  0  0  0  0  0  0  0  0
    5.3884    1.3107   17.8058 C   0  0  0  0  0  0  0  0  0  0  0  0
    6.5480    0.6815   17.5567 N   0  0  0  0  0  0  0  0  0  0  0  0
    7.1478    0.0695   18.5861 C   0  0  0  0  0  0  0  0  0  0  0  0
    8.0931   -0.4186   18.3492 H   0  0  0  0  0  0  0  0  0  0  0  0
    6.6384    0.0509   19.9023 C   0  0  0  0  0  0  0  0  0  0  0  0
    7.3299   -0.7093   20.9757 C   0  0  0  0  0  0  0  0  0  0  0  0
    7.6666   -2.0440   21.0047 C   0  0  0  0  0  0  0  0  0  0  0  0
    7.3279   -2.7689   20.2837 H   0  0  0  0  0  0  0  0  0  0  0  0
    8.3985   -2.2110   22.1962 C   0  0  0  0  0  0  0  0  0  0  0  0
    8.8901   -3.0873   22.6050 H   0  0  0  0  0  0  0  0  0  0  0  0
    8.4822   -1.0762   22.8724 N   0  0  0  0  0  0  0  0  0  0  0  0
    7.8180   -0.1696   22.1343 N   0  0  0  0  0  0  0  0  0  0  0  0
    7.6168    1.1591   22.6805 C   0  0  0  0  0  0  0  0  0  0  0  0
    7.3033    1.8154   21.8687 H   0  0  0  0  0  0  0  0  0  0  0  0
    8.5816    1.5193   23.0467 H   0  0  0  0  0  0  0  0  0  0  0  0
    6.5898    1.2056   23.8250 C   0  0  0  0  0  0  0  0  0  0  0  0
    5.6095    0.8834   23.4621 H   0  0  0  0  0  0  0  0  0  0  0  0
    6.8838    0.4905   24.6012 H   0  0  0  0  0  0  0  0  0  0  0  0
    6.4962    2.5930   24.4142 C   0  0  0  0  0  0  0  0  0  0  0  0
    7.3530    2.9562   25.4700 C   0  0  0  0  0  0  0  0  0  0  0  0
    8.0330    2.2062   25.8661 H   0  0  0  0  0  0  0  0  0  0  0  0
    7.3562    4.2435   26.0112 C   0  0  0  0  0  0  0  0  0  0  0  0
    8.0264    4.4866   26.8320 H   0  0  0  0  0  0  0  0  0  0  0  0
    6.4926    5.2128   25.4897 C   0  0  0  0  0  0  0  0  0  0  0  0
    6.4819    6.2157   25.9050 H   0  0  0  0  0  0  0  0  0  0  0  0
    5.6427    4.8913   24.4271 C   0  0  0  0  0  0  0  0  0  0  0  0
    4.9729    5.6306   23.9973 H   0  0  0  0  0  0  0  0  0  0  0  0
    5.6518    3.5956   23.9025 C   0  0  0  0  0  0  0  0  0  0  0  0
    4.5668    3.2677   22.5694 Cl  0  0  0  0  0  0  0  0  0  0  0  0
    5.4201    0.7059   20.1276 C   0  0  0  0  0  0  0  0  0  0  0  0
    4.9691    0.6856   21.1203 H   0  0  0  0  0  0  0  0  0  0  0  0
    4.7787    1.3399   19.0633 C   0  0  0  0  0  0  0  0  0  0  0  0
    3.8368    1.8621   19.2009 H   0  0  0  0  0  0  0  0  0  0  0  0
  1  2  1  0
  2  3  2  0
  3  4  1  0
  4  5  1  0
  4  6  2  0
  6  7  1  0
  7  8  2  0
  8  9  1  0
  8 10  1  0
 10 11  1  0
 10 12  2  0
 12 13  1  0
 13 14  1  0
 14 15  1  0
 14 16  1  0
 14 17  1  0
 17 18  1  0
 17 19  1  0
 17 20  1  0
 20 21  2  0
 21 22  1  0
 21 23  1  0
 23 24  1  0
 23 25  2  0
 25 26  1  0
 25 27  1  0
 27 28  1  0
 27 29  2  0
 29 30  1  0
  6 31  1  0
 31 32  1  0
 31 33  2  0
 33 34  1  0
 33  2  1  0
 13  7  1  0
 29 20  1  0
M  END
>  <cnnaffinity>  (1) 
-5.04231

>  <filename>  (1) 
Clc1ccccc1CCn1nccc1-c1cccnc1

$$$$
