
     RDKit          3D

 27 29  0  0  0  0  0  0  0  0999 V2000
    5.0046    1.9151   16.7918 H   0  0  0  0  0  0  0  0  0  0  0  0
    5.4463    1.3642   17.6195 C   0  0  0  0  0  0  0  0  0  0  0  0
    6.5898    0.7125   17.3599 N   0  0  0  0  0  0  0  0  0  0  0  0
    7.1631    0.0450   18.3656 C   0  0  0  0  0  0  0  0  0  0  0  0
    8.1032   -0.4519   18.1344 H   0  0  0  0  0  0  0  0  0  0  0  0
    6.6241   -0.0176   19.6567 C   0  0  0  0  0  0  0  0  0  0  0  0
    7.3496   -0.7318   20.7075 C   0  0  0  0  0  0  0  0  0  0  0  0
    6.8528   -0.7857   21.9683 N   0  0  0  0  0  0  0  0  0  0  0  0
    7.7695   -1.4481   22.6398 C   0  0  0  0  0  0  0  0  0  0  0  0
    7.7109   -1.8398   24.0604 C   0  0  0  0  0  0  0  0  0  0  0  0
    6.5943   -2.5859   24.4860 C   0  0  0  0  0  0  0  0  0  0  0  0
    5.8114   -2.8297   23.7674 H   0  0  0  0  0  0  0  0  0  0  0  0
    6.4803   -2.9955   25.8109 C   0  0  0  0  0  0  0  0  0  0  0  0
    5.6356   -3.5996   26.1384 H   0  0  0  0  0  0  0  0  0  0  0  0
    7.4412   -2.5944   26.7332 C   0  0  0  0  0  0  0  0  0  0  0  0
    7.3597   -2.8705   27.7705 H   0  0  0  0  0  0  0  0  0  0  0  0
    8.5354   -1.8181   26.3425 C   0  0  0  0  0  0  0  0  0  0  0  0
    9.6420   -1.3177   27.5760 Cl  0  0  0  0  0  0  0  0  0  0  0  0
    8.7074   -1.4644   24.9934 C   0  0  0  0  0  0  0  0  0  0  0  0
   10.1346   -0.6067   24.4920 Cl  0  0  0  0  0  0  0  0  0  0  0  0
    8.7717   -1.7786   21.8130 N   0  0  0  0  0  0  0  0  0  0  0  0
    9.6275   -2.2454   22.0724 H   0  0  0  0  0  0  0  0  0  0  0  0
    8.5226   -1.3348   20.5587 N   0  0  0  0  0  0  0  0  0  0  0  0
    5.4282    0.6731   19.9220 C   0  0  0  0  0  0  0  0  0  0  0  0
    5.0010    0.6776   20.9287 H   0  0  0  0  0  0  0  0  0  0  0  0
    4.8304    1.3714   18.8778 C   0  0  0  0  0  0  0  0  0  0  0  0
    3.9229    1.9452   19.0320 H   0  0  0  0  0  0  0  0  0  0  0  0
  1  2  1  0
  2  3  2  0
  3  4  1  0
  4  5  1  0
  4  6  2  0
  6  7  1  0
  7  8  1  0
  8  9  2  0
  9 10  1  0
 10 11  2  0
 11 12  1  0
 11 13  1  0
 13 14  1  0
 13 15  2  0
 15 16  1  0
 15 17  1  0
 17 18  1  0
 17 19  2  0
 19 20  1  0
  9 21  1  0
 21 22  1  0
 21 23  1  0
  6 24  1  0
 24 25  1  0
 24 26  2  0
 26 27  1  0
 26  2  1  0
 23  7  2  0
 19 10  1  0
M  END
>  <cnnaffinity>  (1) 
-5.58207

>  <filename>  (1) 
Clc1cccc(-c2nc(-c3cccnc3)n[nH]2)c1Cl

$$$$
