
     RDKit          3D

 31 33  0  0  0  0  0  0  0  0999 V2000
    4.9211    1.8066   16.9706 H   0  0  0  0  0  0  0  0  0  0  0  0
    5.3912    1.3035   17.8154 C   0  0  0  0  0  0  0  0  0  0  0  0
    6.5526    0.6825   17.5512 N   0  0  0  0  0  0  0  0  0  0  0  0
    7.1579    0.0738   18.5851 C   0  0  0  0  0  0  0  0  0  0  0  0
    8.1006   -0.4163   18.3430 H   0  0  0  0  0  0  0  0  0  0  0  0
    6.6441    0.0135   19.9005 C   0  0  0  0  0  0  0  0  0  0  0  0
    7.3116   -0.7179   20.9895 C   0  0  0  0  0  0  0  0  0  0  0  0
    6.7637   -1.5931   21.9596 C   0  0  0  0  0  0  0  0  0  0  0  0
    5.7299   -1.8940   22.0739 H   0  0  0  0  0  0  0  0  0  0  0  0
    7.6949   -2.1152   22.7470 N   0  0  0  0  0  0  0  0  0  0  0  0
    8.8396   -1.5666   22.3010 N   0  0  0  0  0  0  0  0  0  0  0  0
    9.7143   -1.7736   22.7683 H   0  0  0  0  0  0  0  0  0  0  0  0
    8.6667   -0.7075   21.2701 C   0  0  0  0  0  0  0  0  0  0  0  0
    9.7870    0.0478   20.6297 C   0  0  0  0  0  0  0  0  0  0  0  0
   10.2547   -0.6256   19.9131 H   0  0  0  0  0  0  0  0  0  0  0  0
    9.3628    0.8758   20.0549 H   0  0  0  0  0  0  0  0  0  0  0  0
   10.8161    0.5946   21.5985 C   0  0  0  0  0  0  0  0  0  0  0  0
   10.5318    1.7851   22.2831 C   0  0  0  0  0  0  0  0  0  0  0  0
    9.5873    2.2769   22.0554 H   0  0  0  0  0  0  0  0  0  0  0  0
   11.3957    2.3003   23.2544 C   0  0  0  0  0  0  0  0  0  0  0  0
   11.1334    3.2214   23.7666 H   0  0  0  0  0  0  0  0  0  0  0  0
   12.5845    1.6201   23.5491 C   0  0  0  0  0  0  0  0  0  0  0  0
   13.2787    2.0150   24.2851 H   0  0  0  0  0  0  0  0  0  0  0  0
   12.8950    0.4297   22.8892 C   0  0  0  0  0  0  0  0  0  0  0  0
   13.8098   -0.1245   23.0875 H   0  0  0  0  0  0  0  0  0  0  0  0
   12.0074   -0.0702   21.9299 C   0  0  0  0  0  0  0  0  0  0  0  0
   12.4290   -1.5797   21.1641 Cl  0  0  0  0  0  0  0  0  0  0  0  0
    5.4271    0.6591   20.1384 C   0  0  0  0  0  0  0  0  0  0  0  0
    5.0150    0.6436   21.1491 H   0  0  0  0  0  0  0  0  0  0  0  0
    4.7986    1.3195   19.0823 C   0  0  0  0  0  0  0  0  0  0  0  0
    3.8705    1.8463   19.2326 H   0  0  0  0  0  0  0  0  0  0  0  0
  1  2  1  0
  2  3  2  0
  3  4  1  0
  4  5  1  0
  4  6  2  0
  6  7  1  0
  7  8  1  0
  8  9  1  0
  8 10  2  0
 10 11  1  0
 11 12  1  0
 11 13  1  0
 13 14  1  0
 14 15  1  0
 14 16  1  0
 14 17  1  0
 17 18  2  0
 18 19  1  0
 18 20  1  0
 20 21  1  0
 20 22  2  0
 22 23  1  0
 22 24  1  0
 24 25  1  0
 24 26  2  0
 26 27  1  0
  6 28  1  0
 28 29  1  0
 28 30  2  0
 30 31  1  0
 30  2  1  0
 13  7  2  0
 26 17  1  0
M  END
>  <cnnaffinity>  (1) 
-5.36061

>  <filename>  (1) 
Clc1ccccc1Cc1[nH]ncc1-c1cccnc1

$$$$
