
     RDKit          3D

 30 32  0  0  0  0  0  0  0  0999 V2000
    4.9519    1.8454   16.8928 H   0  0  0  0  0  0  0  0  0  0  0  0
    5.3875    1.3445   17.7563 C   0  0  0  0  0  0  0  0  0  0  0  0
    6.5478    0.7074   17.5417 N   0  0  0  0  0  0  0  0  0  0  0  0
    7.0994    0.0853   18.5829 C   0  0  0  0  0  0  0  0  0  0  0  0
    8.0420   -0.4196   18.3868 H   0  0  0  0  0  0  0  0  0  0  0  0
    6.5472    0.0434   19.8681 C   0  0  0  0  0  0  0  0  0  0  0  0
    7.2700   -0.7103   20.9002 C   0  0  0  0  0  0  0  0  0  0  0  0
    6.7813   -0.8376   22.1083 N   0  0  0  0  0  0  0  0  0  0  0  0
    7.7052   -1.5642   22.8164 O   0  0  0  0  0  0  0  0  0  0  0  0
    8.7340   -1.8840   22.0225 C   0  0  0  0  0  0  0  0  0  0  0  0
    9.8924   -2.5413   22.6905 C   0  0  0  0  0  0  0  0  0  0  0  0
   10.5184   -3.0041   21.9328 H   0  0  0  0  0  0  0  0  0  0  0  0
    9.5471   -3.3229   23.3758 H   0  0  0  0  0  0  0  0  0  0  0  0
   10.7111   -1.4850   23.4019 C   0  0  0  0  0  0  0  0  0  0  0  0
   10.3835   -1.0717   24.7012 C   0  0  0  0  0  0  0  0  0  0  0  0
    9.4817   -1.4737   25.1684 H   0  0  0  0  0  0  0  0  0  0  0  0
   11.1867   -0.1513   25.3802 C   0  0  0  0  0  0  0  0  0  0  0  0
   10.9440    0.1352   26.4039 H   0  0  0  0  0  0  0  0  0  0  0  0
   12.3013    0.4042   24.7337 C   0  0  0  0  0  0  0  0  0  0  0  0
   12.9270    1.1273   25.2539 H   0  0  0  0  0  0  0  0  0  0  0  0
   12.6065    0.0662   23.4120 C   0  0  0  0  0  0  0  0  0  0  0  0
   13.4487    0.5097   22.8835 H   0  0  0  0  0  0  0  0  0  0  0  0
   11.7811   -0.8486   22.7514 C   0  0  0  0  0  0  0  0  0  0  0  0
   12.0881   -1.1554   21.0712 Cl  0  0  0  0  0  0  0  0  0  0  0  0
    8.5258   -1.3781   20.7819 C   0  0  0  0  0  0  0  0  0  0  0  0
    9.1733   -1.4493   19.9238 H   0  0  0  0  0  0  0  0  0  0  0  0
    5.3393    0.7274   20.0891 C   0  0  0  0  0  0  0  0  0  0  0  0
    4.8777    0.7536   21.0794 H   0  0  0  0  0  0  0  0  0  0  0  0
    4.7507    1.3765   19.0037 C   0  0  0  0  0  0  0  0  0  0  0  0
    3.8140    1.9122   19.1033 H   0  0  0  0  0  0  0  0  0  0  0  0
  1  2  1  0
  2  3  2  0
  3  4  1  0
  4  5  1  0
  4  6  2  0
  6  7  1  0
  7  8  2  0
  8  9  1  0
  9 10  1  0
 10 11  1  0
 11 12  1  0
 11 13  1  0
 11 14  1  0
 14 15  2  0
 15 16  1  0
 15 17  1  0
 17 18  1  0
 17 19  2  0
 19 20  1  0
 19 21  1  0
 21 22  1  0
 21 23  2  0
 23 24  1  0
 10 25  2  0
 25 26  1  0
  6 27  1  0
 27 28  1  0
 27 29  2  0
 29 30  1  0
 29  2  1  0
 25  7  1  0
 23 14  1  0
M  END
>  <cnnaffinity>  (1) 
-5.32341

>  <filename>  (1) 
Clc1ccccc1Cc1cc(-c2cccnc2)no1

$$$$
