
     RDKit          3D

 27 29  0  0  0  0  0  0  0  0999 V2000
    8.8485   -3.1474   22.2106 H   0  0  0  0  0  0  0  0  0  0  0  0
    8.3553   -2.2106   21.9922 C   0  0  0  0  0  0  0  0  0  0  0  0
    7.9191   -1.8893   20.7480 N   0  0  0  0  0  0  0  0  0  0  0  0
    7.3756   -0.7080   20.9330 C   0  0  0  0  0  0  0  0  0  0  0  0
    6.6491    0.0246   19.9021 C   0  0  0  0  0  0  0  0  0  0  0  0
    7.1689    0.0517   18.6007 C   0  0  0  0  0  0  0  0  0  0  0  0
    8.1161   -0.4377   18.3824 H   0  0  0  0  0  0  0  0  0  0  0  0
    6.5713    0.6749   17.5831 N   0  0  0  0  0  0  0  0  0  0  0  0
    5.4061    1.2934   17.8403 C   0  0  0  0  0  0  0  0  0  0  0  0
    4.9223    1.7789   16.9984 H   0  0  0  0  0  0  0  0  0  0  0  0
    4.7991    1.3116   19.1019 C   0  0  0  0  0  0  0  0  0  0  0  0
    3.8683    1.8462   19.2561 H   0  0  0  0  0  0  0  0  0  0  0  0
    5.4224    0.6558   20.1547 C   0  0  0  0  0  0  0  0  0  0  0  0
    4.9976    0.6392   21.1640 H   0  0  0  0  0  0  0  0  0  0  0  0
    7.5234   -0.3151   22.2373 N   0  0  0  0  0  0  0  0  0  0  0  0
    7.2025    0.9425   22.8350 C   0  0  0  0  0  0  0  0  0  0  0  0
    7.4420    2.1437   22.1455 C   0  0  0  0  0  0  0  0  0  0  0  0
    7.8646    2.1499   21.1465 H   0  0  0  0  0  0  0  0  0  0  0  0
    7.1039    3.3501   22.7609 C   0  0  0  0  0  0  0  0  0  0  0  0
    7.3900    4.8404   21.9212 Cl  0  0  0  0  0  0  0  0  0  0  0  0
    6.5451    3.4059   24.0372 C   0  0  0  0  0  0  0  0  0  0  0  0
    6.2958    4.3562   24.5034 H   0  0  0  0  0  0  0  0  0  0  0  0
    6.3251    2.1945   24.6957 C   0  0  0  0  0  0  0  0  0  0  0  0
    5.6543    2.2342   26.2936 Cl  0  0  0  0  0  0  0  0  0  0  0  0
    6.6395    0.9658   24.1179 C   0  0  0  0  0  0  0  0  0  0  0  0
    6.4691    0.0418   24.6583 H   0  0  0  0  0  0  0  0  0  0  0  0
    8.1446   -1.3125   22.9266 N   0  0  0  0  0  0  0  0  0  0  0  0
  1  2  1  0
  2  3  1  0
  3  4  2  0
  4  5  1  0
  5  6  2  0
  6  7  1  0
  6  8  1  0
  8  9  2  0
  9 10  1  0
  9 11  1  0
 11 12  1  0
 11 13  2  0
 13 14  1  0
  4 15  1  0
 15 16  1  0
 16 17  2  0
 17 18  1  0
 17 19  1  0
 19 20  1  0
 19 21  2  0
 21 22  1  0
 21 23  1  0
 23 24  1  0
 23 25  2  0
 25 26  1  0
 15 27  1  0
 27  2  2  0
 13  5  1  0
 25 16  1  0
M  END
>  <cnnaffinity>  (1) 
-5.26682

>  <filename>  (1) 
Clc1cc(Cl)cc(-n2ncnc2-c2cccnc2)c1

$$$$
