
     RDKit          3D

 35 38  0  0  0  0  0  0  0  0999 V2000
    4.9482    1.8236   16.9756 H   0  0  0  0  0  0  0  0  0  0  0  0
    5.4022    1.2948   17.8116 C   0  0  0  0  0  0  0  0  0  0  0  0
    6.5624    0.6656   17.5591 N   0  0  0  0  0  0  0  0  0  0  0  0
    7.1507    0.0171   18.5681 C   0  0  0  0  0  0  0  0  0  0  0  0
    8.1044   -0.4566   18.3329 H   0  0  0  0  0  0  0  0  0  0  0  0
    6.6219   -0.0337   19.8693 C   0  0  0  0  0  0  0  0  0  0  0  0
    7.3546   -0.6928   20.9551 C   0  0  0  0  0  0  0  0  0  0  0  0
    8.0798   -1.7886   20.7369 N   0  0  0  0  0  0  0  0  0  0  0  0
    8.5557   -2.0920   21.9421 N   0  0  0  0  0  0  0  0  0  0  0  0
    8.2295   -1.2567   22.9251 C   0  0  0  0  0  0  0  0  0  0  0  0
    7.4454   -0.2875   22.3261 C   0  0  0  0  0  0  0  0  0  0  0  0
    7.0815    0.9615   22.9692 C   0  0  0  0  0  0  0  0  0  0  0  0
    7.2799    2.1909   22.3217 C   0  0  0  0  0  0  0  0  0  0  0  0
    7.6782    2.1902   21.3088 H   0  0  0  0  0  0  0  0  0  0  0  0
    6.9739    3.3758   22.9818 C   0  0  0  0  0  0  0  0  0  0  0  0
    7.1246    4.3230   22.4709 H   0  0  0  0  0  0  0  0  0  0  0  0
    6.4728    3.3385   24.2907 C   0  0  0  0  0  0  0  0  0  0  0  0
    6.2118    4.2436   24.8203 H   0  0  0  0  0  0  0  0  0  0  0  0
    6.2946    2.1091   24.9295 C   0  0  0  0  0  0  0  0  0  0  0  0
    5.6776    2.0610   26.5560 Cl  0  0  0  0  0  0  0  0  0  0  0  0
    6.6064    0.9209   24.2850 C   0  0  0  0  0  0  0  0  0  0  0  0
    6.4736   -0.0339   24.7844 H   0  0  0  0  0  0  0  0  0  0  0  0
    9.0690   -1.5056   24.1549 C   0  0  0  0  0  0  0  0  0  0  0  0
    8.4610   -1.7115   25.0446 H   0  0  0  0  0  0  0  0  0  0  0  0
    9.6692   -0.6117   24.3714 H   0  0  0  0  0  0  0  0  0  0  0  0
    9.9387   -2.7252   23.7279 C   0  0  0  0  0  0  0  0  0  0  0  0
   10.9996   -2.4962   23.7844 H   0  0  0  0  0  0  0  0  0  0  0  0
    9.7533   -3.5969   24.3532 H   0  0  0  0  0  0  0  0  0  0  0  0
    9.5633   -3.0581   22.2581 C   0  0  0  0  0  0  0  0  0  0  0  0
    9.1394   -4.0592   22.1435 H   0  0  0  0  0  0  0  0  0  0  0  0
   10.3993   -2.9063   21.5718 H   0  0  0  0  0  0  0  0  0  0  0  0
    5.4069    0.6238   20.1124 C   0  0  0  0  0  0  0  0  0  0  0  0
    4.9904    0.6461   21.1204 H   0  0  0  0  0  0  0  0  0  0  0  0
    4.7860    1.2973   19.0662 C   0  0  0  0  0  0  0  0  0  0  0  0
    3.8611    1.8467   19.2213 H   0  0  0  0  0  0  0  0  0  0  0  0
  1  2  1  0
  2  3  2  0
  3  4  1  0
  4  5  1  0
  4  6  2  0
  6  7  1  0
  7  8  2  0
  8  9  1  0
  9 10  1  0
 10 11  2  0
 11 12  1  0
 12 13  2  0
 13 14  1  0
 13 15  1  0
 15 16  1  0
 15 17  2  0
 17 18  1  0
 17 19  1  0
 19 20  1  0
 19 21  2  0
 21 22  1  0
 10 23  1  0
 23 24  1  0
 23 25  1  0
 23 26  1  0
 26 27  1  0
 26 28  1  0
 26 29  1  0
 29 30  1  0
 29 31  1  0
  6 32  1  0
 32 33  1  0
 32 34  2  0
 34 35  1  0
 34  2  1  0
 11  7  1  0
 21 12  1  0
 29  9  1  0
M  END
>  <cnnaffinity>  (1) 
-5.58841

>  <filename>  (1) 
Clc1cccc(-c2c(-c3cccnc3)nn3c2CCC3)c1

$$$$
