
     RDKit          3D

 35 38  0  0  0  0  0  0  0  0999 V2000
    4.9941    1.8354   16.9141 H   0  0  0  0  0  0  0  0  0  0  0  0
    5.3886    1.3082   17.7847 C   0  0  0  0  0  0  0  0  0  0  0  0
    6.5414    0.6468   17.6002 N   0  0  0  0  0  0  0  0  0  0  0  0
    7.0662    0.0281   18.6667 C   0  0  0  0  0  0  0  0  0  0  0  0
    8.0060   -0.4918   18.4880 H   0  0  0  0  0  0  0  0  0  0  0  0
    6.4844   -0.0036   19.9505 C   0  0  0  0  0  0  0  0  0  0  0  0
    7.2411   -0.6183   21.0676 C   0  0  0  0  0  0  0  0  0  0  0  0
    8.5942   -0.5545   21.3016 C   0  0  0  0  0  0  0  0  0  0  0  0
    8.8072   -1.1464   22.5393 C   0  0  0  0  0  0  0  0  0  0  0  0
    7.6966   -1.6256   23.0678 N   0  0  0  0  0  0  0  0  0  0  0  0
    6.7475   -1.2878   22.1555 N   0  0  0  0  0  0  0  0  0  0  0  0
    5.7859   -1.5305   22.3605 H   0  0  0  0  0  0  0  0  0  0  0  0
   10.2340   -1.0739   22.9858 C   0  0  0  0  0  0  0  0  0  0  0  0
   10.3389   -0.5964   23.9648 H   0  0  0  0  0  0  0  0  0  0  0  0
   10.6782   -2.0726   23.0671 H   0  0  0  0  0  0  0  0  0  0  0  0
   10.9155   -0.2282   21.8496 C   0  0  2  0  0  0  0  0  0  0  0  0
   11.7431   -0.8178   21.4470 H   0  0  0  0  0  0  0  0  0  0  0  0
   11.5076    1.0847   22.3460 C   0  0  0  0  0  0  0  0  0  0  0  0
   12.9020    1.2636   22.3242 C   0  0  0  0  0  0  0  0  0  0  0  0
   13.5315    0.4562   21.9608 H   0  0  0  0  0  0  0  0  0  0  0  0
   13.4954    2.4523   22.7431 C   0  0  0  0  0  0  0  0  0  0  0  0
   14.5688    2.5747   22.6656 H   0  0  0  0  0  0  0  0  0  0  0  0
   12.7157    3.4993   23.2197 C   0  0  0  0  0  0  0  0  0  0  0  0
   13.1537    4.4419   23.5333 H   0  0  0  0  0  0  0  0  0  0  0  0
   11.3325    3.3377   23.2965 C   0  0  0  0  0  0  0  0  0  0  0  0
   10.4116    4.6449   23.9597 Cl  0  0  0  0  0  0  0  0  0  0  0  0
   10.7245    2.1453   22.8583 C   0  0  0  0  0  0  0  0  0  0  0  0
    9.0022    2.0087   22.9759 Cl  0  0  0  0  0  0  0  0  0  0  0  0
    9.8576   -0.0446   20.7076 C   0  0  0  0  0  0  0  0  0  0  0  0
   10.1329   -0.6442   19.8364 H   0  0  0  0  0  0  0  0  0  0  0  0
    9.7754    0.9930   20.3655 H   0  0  0  0  0  0  0  0  0  0  0  0
    5.2625    0.6734   20.1144 C   0  0  0  0  0  0  0  0  0  0  0  0
    4.7695    0.7141   21.0884 H   0  0  0  0  0  0  0  0  0  0  0  0
    4.7193    1.3394   19.0129 C   0  0  0  0  0  0  0  0  0  0  0  0
    3.8017    1.9091   19.0943 H   0  0  0  0  0  0  0  0  0  0  0  0
  1  2  1  0
  2  3  2  0
  3  4  1  0
  4  5  1  0
  4  6  2  0
  6  7  1  0
  7  8  2  0
  8  9  1  0
  9 10  2  0
 10 11  1  0
 11 12  1  0
  9 13  1  0
 13 14  1  0
 13 15  1  0
 13 16  1  0
 16 17  1  6
 16 18  1  0
 18 19  2  0
 19 20  1  0
 19 21  1  0
 21 22  1  0
 21 23  2  0
 23 24  1  0
 23 25  1  0
 25 26  1  0
 25 27  2  0
 27 28  1  0
 16 29  1  0
 29 30  1  0
 29 31  1  0
  6 32  1  0
 32 33  1  0
 32 34  2  0
 34 35  1  0
 34  2  1  0
 11  7  1  0
 27 18  1  0
 29  8  1  0
M  END
>  <cnnaffinity>  (1) 
-6.07639

>  <filename>  (1) 
Clc1cccc([C@H]2Cc3n[nH]c(-c4cccnc4)c3C2)c1Cl

$$$$
