
     RDKit          3D

 34 37  0  0  0  0  0  0  0  0999 V2000
    4.9117    1.8358   16.9629 H   0  0  0  0  0  0  0  0  0  0  0  0
    5.3899    1.3195   17.7928 C   0  0  0  0  0  0  0  0  0  0  0  0
    6.5471    0.7016   17.5153 N   0  0  0  0  0  0  0  0  0  0  0  0
    7.1695    0.0788   18.5239 C   0  0  0  0  0  0  0  0  0  0  0  0
    8.1128   -0.4068   18.2681 H   0  0  0  0  0  0  0  0  0  0  0  0
    6.6915    0.0193   19.8472 C   0  0  0  0  0  0  0  0  0  0  0  0
    7.4531   -0.7044   20.9446 C   0  0  1  0  0  0  0  0  0  0  0  0
    8.3895   -1.0925   20.5214 H   0  0  0  0  0  0  0  0  0  0  0  0
    7.8412    0.2366   22.1398 C   0  0  0  0  0  0  0  0  0  0  0  0
    7.4206    1.2414   22.0627 H   0  0  0  0  0  0  0  0  0  0  0  0
    8.9268    0.3563   22.2056 H   0  0  0  0  0  0  0  0  0  0  0  0
    7.2839   -0.4618   23.3368 C   0  0  0  0  0  0  0  0  0  0  0  0
    7.2697   -0.1930   24.6311 N   0  0  0  0  0  0  0  0  0  0  0  0
    6.6528   -1.2814   25.1581 N   0  0  0  0  0  0  0  0  0  0  0  0
    6.5604   -1.3448   26.1631 H   0  0  0  0  0  0  0  0  0  0  0  0
    6.2667   -2.2073   24.2286 C   0  0  0  0  0  0  0  0  0  0  0  0
    5.6578   -3.5218   24.5021 C   0  0  0  0  0  0  0  0  0  0  0  0
    4.7627   -4.0646   23.5675 C   0  0  0  0  0  0  0  0  0  0  0  0
    4.4426   -3.4658   22.7174 H   0  0  0  0  0  0  0  0  0  0  0  0
    4.2360   -5.2966   23.6497 N   0  0  0  0  0  0  0  0  0  0  0  0
    4.6037   -6.0389   24.6819 C   0  0  0  0  0  0  0  0  0  0  0  0
    3.9610   -7.6526   24.7593 Cl  0  0  0  0  0  0  0  0  0  0  0  0
    5.4834   -5.6232   25.6935 C   0  0  0  0  0  0  0  0  0  0  0  0
    5.7570   -6.2980   26.4977 H   0  0  0  0  0  0  0  0  0  0  0  0
    6.0073   -4.3369   25.5970 C   0  0  0  0  0  0  0  0  0  0  0  0
    6.7118   -3.9751   26.3431 H   0  0  0  0  0  0  0  0  0  0  0  0
    6.6716   -1.6690   23.0232 C   0  0  0  0  0  0  0  0  0  0  0  0
    6.6588   -1.9207   21.5458 C   0  0  0  0  0  0  0  0  0  0  0  0
    5.6282   -1.9521   21.1697 H   0  0  0  0  0  0  0  0  0  0  0  0
    7.1215   -2.8721   21.2504 H   0  0  0  0  0  0  0  0  0  0  0  0
    5.4679    0.6642   20.1019 C   0  0  0  0  0  0  0  0  0  0  0  0
    5.0375    0.6644   21.1041 H   0  0  0  0  0  0  0  0  0  0  0  0
    4.8060    1.3220   19.0626 C   0  0  0  0  0  0  0  0  0  0  0  0
    3.8679    1.8434   19.2172 H   0  0  0  0  0  0  0  0  0  0  0  0
  1  2  1  0
  2  3  2  0
  3  4  1  0
  4  5  1  0
  4  6  2  0
  6  7  1  0
  7  8  1  6
  7  9  1  0
  9 10  1  0
  9 11  1  0
  9 12  1  0
 12 13  2  0
 13 14  1  0
 14 15  1  0
 14 16  1  0
 16 17  1  0
 17 18  2  0
 18 19  1  0
 18 20  1  0
 20 21  2  0
 21 22  1  0
 21 23  1  0
 23 24  1  0
 23 25  2  0
 25 26  1  0
 16 27  2  0
 27 28  1  0
 28 29  1  0
 28 30  1  0
  6 31  1  0
 31 32  1  0
 31 33  2  0
 33 34  1  0
 33  2  1  0
 28  7  1  0
 27 12  1  0
 25 17  1  0
M  END
>  <cnnaffinity>  (1) 
-5.41993

>  <filename>  (1) 
Clc1ccc(-c2[nH]nc3c2C[C@@H](c2cccnc2)C3)cn1

$$$$
