
     RDKit          3D

 28 30  0  0  0  0  0  0  0  0999 V2000
   10.0499   -4.8861   26.3595 Cl  0  0  0  0  0  0  0  0  0  0  0  0
    8.7325   -3.9033   25.7979 C   0  0  0  0  0  0  0  0  0  0  0  0
    7.5930   -3.7698   26.5967 C   0  0  0  0  0  0  0  0  0  0  0  0
    6.5395   -2.9740   26.1343 C   0  0  0  0  0  0  0  0  0  0  0  0
    6.6279   -2.3278   24.9024 C   0  0  0  0  0  0  0  0  0  0  0  0
    7.7775   -2.4684   24.1038 C   0  0  0  0  0  0  0  0  0  0  0  0
    7.8667   -1.7929   22.7990 C   0  0  0  0  0  0  0  0  0  0  0  0
    6.8567   -1.1917   22.0832 C   0  0  0  0  0  0  0  0  0  0  0  0
    7.3782   -0.6874   20.9385 N   0  0  0  0  0  0  0  0  0  0  0  0
    6.6739    0.0057   19.9153 C   0  0  0  0  0  0  0  0  0  0  0  0
    5.4478    0.6446   20.1712 C   0  0  0  0  0  0  0  0  0  0  0  0
    4.8171    1.3027   19.1115 C   0  0  0  0  0  0  0  0  0  0  0  0
    5.4077    1.2876   17.8435 C   0  0  0  0  0  0  0  0  0  0  0  0
    6.5707    0.6632   17.5930 N   0  0  0  0  0  0  0  0  0  0  0  0
    7.1876    0.0545   18.6088 C   0  0  0  0  0  0  0  0  0  0  0  0
    8.1305   -0.4290   18.3747 H   0  0  0  0  0  0  0  0  0  0  0  0
    4.9249    1.7786   16.9976 H   0  0  0  0  0  0  0  0  0  0  0  0
    3.8819    1.8360   19.2641 H   0  0  0  0  0  0  0  0  0  0  0  0
    5.0041    0.6483   21.1694 H   0  0  0  0  0  0  0  0  0  0  0  0
    8.6976   -0.9432   20.8499 N   0  0  0  0  0  0  0  0  0  0  0  0
    8.9915   -1.5925   21.9611 C   0  0  0  0  0  0  0  0  0  0  0  0
   10.0106   -1.8980   22.1379 H   0  0  0  0  0  0  0  0  0  0  0  0
    5.8052   -1.1048   22.2721 H   0  0  0  0  0  0  0  0  0  0  0  0
    8.8358   -3.2678   24.5647 C   0  0  0  0  0  0  0  0  0  0  0  0
    9.7307   -3.3974   23.9635 H   0  0  0  0  0  0  0  0  0  0  0  0
    5.8068   -1.7053   24.5547 H   0  0  0  0  0  0  0  0  0  0  0  0
    5.6446   -2.8581   26.7380 H   0  0  0  0  0  0  0  0  0  0  0  0
    7.5399   -4.2798   27.5524 H   0  0  0  0  0  0  0  0  0  0  0  0
  1  2  1  0
  2  3  2  0
  3  4  1  0
  4  5  2  0
  5  6  1  0
  6  7  1  0
  7  8  2  0
  8  9  1  0
  9 10  1  0
 10 11  2  0
 11 12  1  0
 12 13  2  0
 13 14  1  0
 14 15  2  0
 15 16  1  0
 13 17  1  0
 12 18  1  0
 11 19  1  0
  9 20  1  0
 20 21  2  0
 21 22  1  0
  8 23  1  0
  6 24  2  0
 24 25  1  0
  5 26  1  0
  4 27  1  0
  3 28  1  0
 24  2  1  0
 21  7  1  0
 15 10  1  0
M  END
>  <cnnaffinity>  (1) 
-5.2309

>  <filename>  (1) 
Clc1cccc(-c2cnn(-c3cccnc3)c2)c1

$$$$
