
     RDKit          3D

 27 29  0  0  0  0  0  0  0  0999 V2000
    4.9366    1.8124   16.9674 H   0  0  0  0  0  0  0  0  0  0  0  0
    5.3967    1.3163   17.8162 C   0  0  0  0  0  0  0  0  0  0  0  0
    6.5622    0.6984   17.5713 N   0  0  0  0  0  0  0  0  0  0  0  0
    7.1577    0.0971   18.6116 C   0  0  0  0  0  0  0  0  0  0  0  0
    8.1082   -0.3871   18.3871 H   0  0  0  0  0  0  0  0  0  0  0  0
    6.6436    0.0665   19.9327 C   0  0  0  0  0  0  0  0  0  0  0  0
    7.3447   -0.6715   21.0259 C   0  0  0  0  0  0  0  0  0  0  0  0
    7.8149   -1.9639   21.0912 C   0  0  0  0  0  0  0  0  0  0  0  0
    7.7681   -2.7545   20.3778 H   0  0  0  0  0  0  0  0  0  0  0  0
    8.3124   -2.2215   22.3230 N   0  0  0  0  0  0  0  0  0  0  0  0
    8.1715   -1.1733   23.0562 N   0  0  0  0  0  0  0  0  0  0  0  0
    7.5779   -0.2202   22.3085 N   0  0  0  0  0  0  0  0  0  0  0  0
    7.2299    1.0080   22.9262 C   0  0  0  0  0  0  0  0  0  0  0  0
    6.6704    0.9969   24.2131 C   0  0  0  0  0  0  0  0  0  0  0  0
    6.5127    0.0500   24.7248 H   0  0  0  0  0  0  0  0  0  0  0  0
    6.3382    2.2145   24.7989 C   0  0  0  0  0  0  0  0  0  0  0  0
    5.6490    2.2199   26.3913 Cl  0  0  0  0  0  0  0  0  0  0  0  0
    6.5468    3.4293   24.1342 C   0  0  0  0  0  0  0  0  0  0  0  0
    6.2775    4.3724   24.5961 H   0  0  0  0  0  0  0  0  0  0  0  0
    7.1004    3.3959   22.8513 C   0  0  0  0  0  0  0  0  0  0  0  0
    7.3683    4.8758   21.9870 Cl  0  0  0  0  0  0  0  0  0  0  0  0
    7.4423    2.1985   22.2300 C   0  0  0  0  0  0  0  0  0  0  0  0
    7.8238    2.1677   21.2142 H   0  0  0  0  0  0  0  0  0  0  0  0
    5.4006    0.6992   20.1394 C   0  0  0  0  0  0  0  0  0  0  0  0
    4.9459    0.7000   21.1316 H   0  0  0  0  0  0  0  0  0  0  0  0
    4.7741    1.3382   19.0663 C   0  0  0  0  0  0  0  0  0  0  0  0
    3.8242    1.8486   19.1860 H   0  0  0  0  0  0  0  0  0  0  0  0
  1  2  1  0
  2  3  2  0
  3  4  1  0
  4  5  1  0
  4  6  2  0
  6  7  1  0
  7  8  2  0
  8  9  1  0
  8 10  1  0
 10 11  2  0
 11 12  1  0
 12 13  1  0
 13 14  2  0
 14 15  1  0
 14 16  1  0
 16 17  1  0
 16 18  2  0
 18 19  1  0
 18 20  1  0
 20 21  1  0
 20 22  2  0
 22 23  1  0
  6 24  1  0
 24 25  1  0
 24 26  2  0
 26 27  1  0
 26  2  1  0
 12  7  1  0
 22 13  1  0
M  END
>  <cnnaffinity>  (1) 
-5.14089

>  <filename>  (1) 
Clc1cc(Cl)cc(-n2nncc2-c2cccnc2)c1

$$$$
