
     RDKit          3D

 28 30  0  0  0  0  0  0  0  0999 V2000
    4.9138    1.7825   16.9923 H   0  0  0  0  0  0  0  0  0  0  0  0
    5.3988    1.2963   17.8317 C   0  0  0  0  0  0  0  0  0  0  0  0
    6.5620    0.6805   17.5634 N   0  0  0  0  0  0  0  0  0  0  0  0
    7.1710    0.0747   18.5891 C   0  0  0  0  0  0  0  0  0  0  0  0
    8.1103   -0.4262   18.3621 H   0  0  0  0  0  0  0  0  0  0  0  0
    6.6628    0.0206   19.8970 C   0  0  0  0  0  0  0  0  0  0  0  0
    7.3877   -0.6974   20.9639 C   0  0  0  0  0  0  0  0  0  0  0  0
    8.7452   -0.7757   21.0690 C   0  0  0  0  0  0  0  0  0  0  0  0
    9.4597   -0.3087   20.4124 H   0  0  0  0  0  0  0  0  0  0  0  0
    9.2337   -1.6748   22.4474 S   0  0  0  0  0  0  0  0  0  0  0  0
    7.5851   -1.9879   22.9131 C   0  0  0  0  0  0  0  0  0  0  0  0
    7.2355   -2.7876   24.1102 C   0  0  0  0  0  0  0  0  0  0  0  0
    8.1962   -3.5764   24.7623 C   0  0  0  0  0  0  0  0  0  0  0  0
    9.2182   -3.6172   24.4034 H   0  0  0  0  0  0  0  0  0  0  0  0
    7.8305   -4.3189   25.8829 C   0  0  0  0  0  0  0  0  0  0  0  0
    9.0255   -5.2837   26.6784 Cl  0  0  0  0  0  0  0  0  0  0  0  0
    6.5301   -4.3138   26.3932 C   0  0  0  0  0  0  0  0  0  0  0  0
    6.2609   -4.8967   27.2651 H   0  0  0  0  0  0  0  0  0  0  0  0
    5.5860   -3.5279   25.7406 C   0  0  0  0  0  0  0  0  0  0  0  0
    3.9581   -3.4859   26.3393 Cl  0  0  0  0  0  0  0  0  0  0  0  0
    5.9254   -2.7771   24.6201 C   0  0  0  0  0  0  0  0  0  0  0  0
    5.1556   -2.1794   24.1777 H   0  0  0  0  0  0  0  0  0  0  0  0
    6.7394   -1.4042   22.0174 C   0  0  0  0  0  0  0  0  0  0  0  0
    5.6615   -1.4968   22.0210 H   0  0  0  0  0  0  0  0  0  0  0  0
    5.4351    0.6546   20.1484 C   0  0  0  0  0  0  0  0  0  0  0  0
    5.0169    0.6356   21.1606 H   0  0  0  0  0  0  0  0  0  0  0  0
    4.8018    1.3155   19.1000 C   0  0  0  0  0  0  0  0  0  0  0  0
    3.8688    1.8464   19.2573 H   0  0  0  0  0  0  0  0  0  0  0  0
  1  2  1  0
  2  3  2  0
  3  4  1  0
  4  5  1  0
  4  6  2  0
  6  7  1  0
  7  8  2  0
  8  9  1  0
  8 10  1  0
 10 11  1  0
 11 12  1  0
 12 13  2  0
 13 14  1  0
 13 15  1  0
 15 16  1  0
 15 17  2  0
 17 18  1  0
 17 19  1  0
 19 20  1  0
 19 21  2  0
 21 22  1  0
 11 23  2  0
 23 24  1  0
  6 25  1  0
 25 26  1  0
 25 27  2  0
 27 28  1  0
 27  2  1  0
 23  7  1  0
 21 12  1  0
M  END
>  <cnnaffinity>  (1) 
-5.32651

>  <filename>  (1) 
Clc1cc(Cl)cc(-c2cc(-c3cccnc3)cs2)c1

$$$$
