
     RDKit          3D

 33 36  0  0  0  0  0  0  0  0999 V2000
    5.1096    1.8768   16.8802 H   0  0  0  0  0  0  0  0  0  0  0  0
    5.4528    1.3338   17.7603 C   0  0  0  0  0  0  0  0  0  0  0  0
    6.5850    0.6305   17.6150 N   0  0  0  0  0  0  0  0  0  0  0  0
    7.0319   -0.0452   18.6805 C   0  0  0  0  0  0  0  0  0  0  0  0
    7.9648   -0.5877   18.5513 H   0  0  0  0  0  0  0  0  0  0  0  0
    6.3666   -0.0960   19.9232 C   0  0  0  0  0  0  0  0  0  0  0  0
    6.8609   -0.9402   21.0306 C   0  0  0  0  0  0  0  0  0  0  0  0
    6.1650   -1.8486   21.7440 C   0  0  0  0  0  0  0  0  0  0  0  0
    5.1281   -2.1079   21.5971 H   0  0  0  0  0  0  0  0  0  0  0  0
    7.1058   -2.6299   22.9874 S   0  0  0  0  0  0  0  0  0  0  0  0
    8.4847   -1.6824   22.5182 C   0  0  0  0  0  0  0  0  0  0  0  0
    9.7544   -1.5621   22.8511 N   0  0  0  0  0  0  0  0  0  0  0  0
   10.2002   -0.6858   21.9091 C   0  0  0  0  0  0  0  0  0  0  0  0
   11.6495   -0.3311   21.7832 C   0  0  0  0  0  0  0  0  0  0  0  0
   11.9105   -0.6178   20.7574 H   0  0  0  0  0  0  0  0  0  0  0  0
   12.1949   -1.0161   22.4348 H   0  0  0  0  0  0  0  0  0  0  0  0
   12.0451    1.1296   22.0044 C   0  0  0  0  0  0  0  0  0  0  0  0
   11.6709    2.0765   21.0344 C   0  0  0  0  0  0  0  0  0  0  0  0
   10.9678    1.7800   20.2712 H   0  0  0  0  0  0  0  0  0  0  0  0
   12.1457    3.3869   21.0582 C   0  0  0  0  0  0  0  0  0  0  0  0
   11.9564    4.0540   20.2226 H   0  0  0  0  0  0  0  0  0  0  0  0
   12.9306    3.8164   22.1297 C   0  0  0  0  0  0  0  0  0  0  0  0
   13.2429    4.8550   22.1949 H   0  0  0  0  0  0  0  0  0  0  0  0
   13.2906    2.9166   23.1294 C   0  0  0  0  0  0  0  0  0  0  0  0
   13.9387    3.2268   23.9389 H   0  0  0  0  0  0  0  0  0  0  0  0
   12.8276    1.5958   23.0785 C   0  0  0  0  0  0  0  0  0  0  0  0
   13.2380    0.5479   24.4100 Cl  0  0  0  0  0  0  0  0  0  0  0  0
    9.2986   -0.2591   21.0343 N   0  0  0  0  0  0  0  0  0  0  0  0
    8.1837   -0.9001   21.4649 N   0  0  0  0  0  0  0  0  0  0  0  0
    5.1919    0.6606   20.0568 C   0  0  0  0  0  0  0  0  0  0  0  0
    4.6649    0.6925   21.0122 H   0  0  0  0  0  0  0  0  0  0  0  0
    4.7337    1.3909   18.9586 C   0  0  0  0  0  0  0  0  0  0  0  0
    3.8460    2.0084   19.0161 H   0  0  0  0  0  0  0  0  0  0  0  0
  1  2  1  0
  2  3  2  0
  3  4  1  0
  4  5  1  0
  4  6  2  0
  6  7  1  0
  7  8  2  0
  8  9  1  0
  8 10  1  0
 10 11  1  0
 11 12  2  0
 12 13  1  0
 13 14  1  0
 14 15  1  0
 14 16  1  0
 14 17  1  0
 17 18  2  0
 18 19  1  0
 18 20  1  0
 20 21  1  0
 20 22  2  0
 22 23  1  0
 22 24  1  0
 24 25  1  0
 24 26  2  0
 26 27  1  0
 13 28  2  0
 28 29  1  0
  6 30  1  0
 30 31  1  0
 30 32  2  0
 32 33  1  0
 32  2  1  0
 29  7  1  0
 29 11  1  0
 26 17  1  0
M  END
>  <cnnaffinity>  (1) 
-5.85737

>  <filename>  (1) 
Clc1ccccc1Cc1nc2scc(-c3cccnc3)n2n1

$$$$
