
     RDKit          3D

 23 24  0  0  0  0  0  0  0  0999 V2000
    5.0397    1.7201   17.0160 H   0  0  0  0  0  0  0  0  0  0  0  0
    5.4997    1.2320   17.8733 C   0  0  0  0  0  0  0  0  0  0  0  0
    6.6647    0.5987   17.6398 N   0  0  0  0  0  0  0  0  0  0  0  0
    7.2536   -0.0113   18.6774 C   0  0  0  0  0  0  0  0  0  0  0  0
    8.1965   -0.5272   18.5047 H   0  0  0  0  0  0  0  0  0  0  0  0
    6.7084   -0.0238   19.9728 C   0  0  0  0  0  0  0  0  0  0  0  0
    7.2452   -0.6768   21.1118 N   0  0  0  0  0  0  0  0  0  0  0  0
    8.4821   -0.8565   21.1098 N   0  0  0  0  0  0  0  0  0  0  0  0
    8.9860   -1.5320   22.2638 C   0  0  0  0  0  0  0  0  0  0  0  0
    8.2100   -1.8997   23.3886 C   0  0  0  0  0  0  0  0  0  0  0  0
    7.1823   -1.5408   23.4055 H   0  0  0  0  0  0  0  0  0  0  0  0
    8.7270   -2.7202   24.3893 C   0  0  0  0  0  0  0  0  0  0  0  0
    8.1339   -2.9760   25.2636 H   0  0  0  0  0  0  0  0  0  0  0  0
   10.0313   -3.2123   24.2508 C   0  0  0  0  0  0  0  0  0  0  0  0
   10.6246   -4.3306   25.4383 Cl  0  0  0  0  0  0  0  0  0  0  0  0
   10.8464   -2.8073   23.1891 C   0  0  0  0  0  0  0  0  0  0  0  0
   11.8606   -3.1867   23.0883 H   0  0  0  0  0  0  0  0  0  0  0  0
   10.3425   -1.9059   22.2512 C   0  0  0  0  0  0  0  0  0  0  0  0
   11.4411   -1.1648   21.1284 Cl  0  0  0  0  0  0  0  0  0  0  0  0
    5.4913    0.6266   20.2033 C   0  0  0  0  0  0  0  0  0  0  0  0
    5.0716    0.6037   21.2117 H   0  0  0  0  0  0  0  0  0  0  0  0
    4.8766    1.2688   19.1309 C   0  0  0  0  0  0  0  0  0  0  0  0
    3.9324    1.7920   19.2566 H   0  0  0  0  0  0  0  0  0  0  0  0
  1  2  1  0
  2  3  2  0
  3  4  1  0
  4  5  1  0
  4  6  2  0
  6  7  1  0
  7  8  2  3
  8  9  1  0
  9 10  2  0
 10 11  1  0
 10 12  1  0
 12 13  1  0
 12 14  2  0
 14 15  1  0
 14 16  1  0
 16 17  1  0
 16 18  2  0
 18 19  1  0
  6 20  1  0
 20 21  1  0
 20 22  2  0
 22 23  1  0
 22  2  1  0
 18  9  1  0
M  END
>  <cnnaffinity>  (1) 
-4.89666

>  <filename>  (1) 
Clc1ccc(N=Nc2cccnc2)c(Cl)c1

$$$$
