
     RDKit          3D

 30 32  0  0  0  0  0  0  0  0999 V2000
    5.0180    1.8315   16.9897 H   0  0  0  0  0  0  0  0  0  0  0  0
    5.4481    1.2817   17.8261 C   0  0  0  0  0  0  0  0  0  0  0  0
    6.5845    0.6165   17.5677 N   0  0  0  0  0  0  0  0  0  0  0  0
    7.1468   -0.0540   18.5782 C   0  0  0  0  0  0  0  0  0  0  0  0
    8.0662   -0.5827   18.3268 H   0  0  0  0  0  0  0  0  0  0  0  0
    6.6197   -0.1177   19.8858 C   0  0  0  0  0  0  0  0  0  0  0  0
    7.3424   -0.8247   20.9666 C   0  0  0  0  0  0  0  0  0  0  0  0
    6.9931   -1.8191   21.8671 C   0  0  0  0  0  0  0  0  0  0  0  0
    5.7138   -2.4085   21.9384 N   0  0  0  0  0  0  0  0  0  0  0  0
    5.0136   -1.7105   22.1397 H   0  0  0  0  0  0  0  0  0  0  0  0
    5.4387   -3.6245   22.5832 C   0  0  0  0  0  0  0  0  0  0  0  0
    4.4701   -3.6908   23.5949 C   0  0  0  0  0  0  0  0  0  0  0  0
    3.9967   -2.7893   23.9702 H   0  0  0  0  0  0  0  0  0  0  0  0
    4.1217   -4.9203   24.1554 C   0  0  0  0  0  0  0  0  0  0  0  0
    3.3697   -4.9613   24.9432 H   0  0  0  0  0  0  0  0  0  0  0  0
    4.7389   -6.0971   23.7138 C   0  0  0  0  0  0  0  0  0  0  0  0
    4.4484   -7.0608   24.1168 H   0  0  0  0  0  0  0  0  0  0  0  0
    5.7383   -6.0039   22.7395 C   0  0  0  0  0  0  0  0  0  0  0  0
    6.5528   -7.4364   22.1895 Cl  0  0  0  0  0  0  0  0  0  0  0  0
    6.0953   -4.7842   22.1650 C   0  0  0  0  0  0  0  0  0  0  0  0
    6.8679   -4.7172   21.4064 H   0  0  0  0  0  0  0  0  0  0  0  0
    8.1557   -2.0048   22.6716 C   0  0  0  0  0  0  0  0  0  0  0  0
    8.2960   -2.6589   23.5191 H   0  0  0  0  0  0  0  0  0  0  0  0
    9.1492   -1.2130   22.2802 N   0  0  0  0  0  0  0  0  0  0  0  0
    8.6370   -0.5315   21.2489 N   0  0  0  0  0  0  0  0  0  0  0  0
    9.1991    0.1700   20.7896 H   0  0  0  0  0  0  0  0  0  0  0  0
    5.4192    0.5661   20.1259 C   0  0  0  0  0  0  0  0  0  0  0  0
    4.9737    0.5384   21.1207 H   0  0  0  0  0  0  0  0  0  0  0  0
    4.8330    1.2861   19.0810 C   0  0  0  0  0  0  0  0  0  0  0  0
    3.9279    1.8617   19.2224 H   0  0  0  0  0  0  0  0  0  0  0  0
  1  2  1  0
  2  3  2  0
  3  4  1  0
  4  5  1  0
  4  6  2  0
  6  7  1  0
  7  8  2  0
  8  9  1  0
  9 10  1  0
  9 11  1  0
 11 12  2  0
 12 13  1  0
 12 14  1  0
 14 15  1  0
 14 16  2  0
 16 17  1  0
 16 18  1  0
 18 19  1  0
 18 20  2  0
 20 21  1  0
  8 22  1  0
 22 23  1  0
 22 24  2  0
 24 25  1  0
 25 26  1  0
  6 27  1  0
 27 28  1  0
 27 29  2  0
 29 30  1  0
 29  2  1  0
 25  7  1  0
 20 11  1  0
M  END
>  <cnnaffinity>  (1) 
-5.4645

>  <filename>  (1) 
Clc1cccc(Nc2cn[nH]c2-c2cccnc2)c1

$$$$
