
     RDKit          3D

 28 30  0  0  0  0  0  0  0  0999 V2000
    4.9572    1.8061   16.9686 H   0  0  0  0  0  0  0  0  0  0  0  0
    5.4101    1.2986   17.8176 C   0  0  0  0  0  0  0  0  0  0  0  0
    6.5688    0.6642   17.5781 N   0  0  0  0  0  0  0  0  0  0  0  0
    7.1536    0.0421   18.6031 C   0  0  0  0  0  0  0  0  0  0  0  0
    8.0972   -0.4598   18.3912 H   0  0  0  0  0  0  0  0  0  0  0  0
    6.6274    0.0156   19.9020 C   0  0  0  0  0  0  0  0  0  0  0  0
    7.3886   -0.7006   20.9155 C   0  0  0  0  0  0  0  0  0  0  0  0
    8.3596   -1.5524   20.6767 N   0  0  0  0  0  0  0  0  0  0  0  0
    8.7887   -1.9863   21.8934 C   0  0  0  0  0  0  0  0  0  0  0  0
    9.5537   -2.7501   21.9737 H   0  0  0  0  0  0  0  0  0  0  0  0
    8.0795   -1.3773   22.9059 C   0  0  0  0  0  0  0  0  0  0  0  0
    8.1572   -1.5247   24.3444 C   0  0  0  0  0  0  0  0  0  0  0  0
    9.3791   -2.0924   24.9090 C   0  0  0  0  0  0  0  0  0  0  0  0
   10.2459   -2.2400   24.2483 H   0  0  0  0  0  0  0  0  0  0  0  0
    9.3413   -2.3738   26.1977 C   0  0  0  0  0  0  0  0  0  0  0  0
    7.9812   -3.1693   27.6287 H   0  0  0  0  0  0  0  0  0  0  0  0
    8.3167   -2.1649   27.2017 C   0  0  0  0  0  0  0  0  0  0  0  0
    8.7511   -1.5653   28.0397 H   0  0  0  0  0  0  0  0  0  0  0  0
    7.1844   -1.3637   26.5586 C   0  0  0  0  0  0  0  0  0  0  0  0
    5.9683   -0.8185   27.6561 Cl  0  0  0  0  0  0  0  0  0  0  0  0
    7.0984   -1.1336   25.2157 C   0  0  0  0  0  0  0  0  0  0  0  0
    6.2092   -0.6409   24.8283 H   0  0  0  0  0  0  0  0  0  0  0  0
    7.1696   -0.5665   22.2455 N   0  0  0  0  0  0  0  0  0  0  0  0
    6.6100    0.1595   22.6507 H   0  0  0  0  0  0  0  0  0  0  0  0
    5.4059    0.6711   20.1388 C   0  0  0  0  0  0  0  0  0  0  0  0
    4.9338    0.6715   21.1245 H   0  0  0  0  0  0  0  0  0  0  0  0
    4.7920    1.3220   19.0741 C   0  0  0  0  0  0  0  0  0  0  0  0
    3.8573    1.8570   19.2064 H   0  0  0  0  0  0  0  0  0  0  0  0
  1  2  1  0
  2  3  2  0
  3  4  1  0
  4  5  1  0
  4  6  2  0
  6  7  1  0
  7  8  2  0
  8  9  1  0
  9 10  1  0
  9 11  2  0
 11 12  1  0
 12 13  2  0
 13 14  1  0
 13 15  1  0
 15 16  1  0
 15 17  2  0
 17 18  1  0
 17 19  1  0
 19 20  1  0
 19 21  2  0
 21 22  1  0
 11 23  1  0
 23 24  1  0
  6 25  1  0
 25 26  1  0
 25 27  2  0
 27 28  1  0
 27  2  1  0
 23  7  1  0
 21 12  1  0
M  END
>  <cnnaffinity>  (1) 
-5.02103

>  <filename>  (1) 
Clc1cccc(-c2cnc(-c3cccnc3)[nH]2)c1

$$$$
