
     RDKit          3D

 28 30  0  0  0  0  0  0  0  0999 V2000
    4.9253    1.7790   16.9980 H   0  0  0  0  0  0  0  0  0  0  0  0
    5.4083    1.2881   17.8430 C   0  0  0  0  0  0  0  0  0  0  0  0
    6.5746    0.6688   17.5932 N   0  0  0  0  0  0  0  0  0  0  0  0
    7.1832    0.0476   18.6064 C   0  0  0  0  0  0  0  0  0  0  0  0
    8.1277   -0.4338   18.3746 H   0  0  0  0  0  0  0  0  0  0  0  0
    6.6628   -0.0030   19.9107 C   0  0  0  0  0  0  0  0  0  0  0  0
    7.3608   -0.6842   20.9396 N   0  0  0  0  0  0  0  0  0  0  0  0
    8.2985   -1.6130   20.6589 N   0  0  0  0  0  0  0  0  0  0  0  0
    8.7394   -2.0190   21.8315 C   0  0  0  0  0  0  0  0  0  0  0  0
    9.5112   -2.7679   21.9011 H   0  0  0  0  0  0  0  0  0  0  0  0
    8.1067   -1.3517   22.9057 C   0  0  0  0  0  0  0  0  0  0  0  0
    8.3518   -1.4674   24.3517 C   0  0  0  0  0  0  0  0  0  0  0  0
    8.4146   -0.2838   25.1058 C   0  0  0  0  0  0  0  0  0  0  0  0
    8.2629    0.6596   24.5926 H   0  0  0  0  0  0  0  0  0  0  0  0
    8.6714   -0.3083   26.4685 C   0  0  0  0  0  0  0  0  0  0  0  0
    8.7159    0.6148   27.0381 H   0  0  0  0  0  0  0  0  0  0  0  0
    8.8701   -1.5266   27.1104 C   0  0  0  0  0  0  0  0  0  0  0  0
    9.0759   -1.5435   28.1681 H   0  0  0  0  0  0  0  0  0  0  0  0
    8.8000   -2.7228   26.3934 C   0  0  0  0  0  0  0  0  0  0  0  0
    9.0486   -4.2083   27.2465 Cl  0  0  0  0  0  0  0  0  0  0  0  0
    8.5272   -2.7008   25.0175 C   0  0  0  0  0  0  0  0  0  0  0  0
    8.3770   -4.1945   24.1536 Cl  0  0  0  0  0  0  0  0  0  0  0  0
    7.2362   -0.4924   22.2790 C   0  0  0  0  0  0  0  0  0  0  0  0
    6.5622    0.2511   22.6895 H   0  0  0  0  0  0  0  0  0  0  0  0
    5.4444    0.6448   20.1707 C   0  0  0  0  0  0  0  0  0  0  0  0
    4.9909    0.6280   21.1630 H   0  0  0  0  0  0  0  0  0  0  0  0
    4.8159    1.3011   19.1100 C   0  0  0  0  0  0  0  0  0  0  0  0
    3.8827    1.8355   19.2647 H   0  0  0  0  0  0  0  0  0  0  0  0
  1  2  1  0
  2  3  2  0
  3  4  1  0
  4  5  1  0
  4  6  2  0
  6  7  1  0
  7  8  1  0
  8  9  2  0
  9 10  1  0
  9 11  1  0
 11 12  1  0
 12 13  2  0
 13 14  1  0
 13 15  1  0
 15 16  1  0
 15 17  2  0
 17 18  1  0
 17 19  1  0
 19 20  1  0
 19 21  2  0
 21 22  1  0
 11 23  2  0
 23 24  1  0
  6 25  1  0
 25 26  1  0
 25 27  2  0
 27 28  1  0
 27  2  1  0
 23  7  1  0
 21 12  1  0
M  END
>  <cnnaffinity>  (1) 
-5.44119

>  <filename>  (1) 
Clc1cccc(-c2cnn(-c3cccnc3)c2)c1Cl

$$$$
