
     RDKit          3D

 32 34  0  0  0  0  0  0  0  0999 V2000
    6.6789   -1.3373   21.6232 H   0  0  0  0  0  0  0  0  0  0  0  0
    7.3268   -0.7225   20.9940 C   0  0  0  0  0  0  0  0  0  0  0  0
    8.6093   -0.5364   21.3392 C   0  0  0  0  0  0  0  0  0  0  0  0
    9.3676   -1.1549   22.4399 C   0  0  0  0  0  0  0  0  0  0  0  0
    8.8514   -2.3296   23.2027 C   0  0  0  0  0  0  0  0  0  0  0  0
    9.0764   -2.3877   24.5870 C   0  0  0  0  0  0  0  0  0  0  0  0
    9.6006   -1.5693   25.0730 H   0  0  0  0  0  0  0  0  0  0  0  0
    8.6550   -3.4935   25.3244 C   0  0  0  0  0  0  0  0  0  0  0  0
    8.8494   -3.5324   26.3924 H   0  0  0  0  0  0  0  0  0  0  0  0
    8.0016   -4.5611   24.6995 C   0  0  0  0  0  0  0  0  0  0  0  0
    7.6723   -5.4258   25.2688 H   0  0  0  0  0  0  0  0  0  0  0  0
    7.7820   -4.5001   23.3208 C   0  0  0  0  0  0  0  0  0  0  0  0
    6.9765   -5.8257   22.5304 Cl  0  0  0  0  0  0  0  0  0  0  0  0
    8.1938   -3.3995   22.5653 C   0  0  0  0  0  0  0  0  0  0  0  0
    8.0124   -3.3960   21.4930 H   0  0  0  0  0  0  0  0  0  0  0  0
   10.4836   -0.5778   22.6990 N   0  0  0  0  0  0  0  0  0  0  0  0
   10.6991    0.5119   21.7461 C   0  0  0  0  0  0  0  0  0  0  0  0
   11.6675    0.3713   21.2637 H   0  0  0  0  0  0  0  0  0  0  0  0
   10.7423    1.4515   22.3044 H   0  0  0  0  0  0  0  0  0  0  0  0
    9.5131    0.5147   20.7509 C   0  0  0  0  0  0  0  0  0  0  0  0
    9.0293    1.4919   20.6574 H   0  0  0  0  0  0  0  0  0  0  0  0
    9.7545    0.1830   19.7422 H   0  0  0  0  0  0  0  0  0  0  0  0
    6.6423   -0.0144   19.8946 C   0  0  0  0  0  0  0  0  0  0  0  0
    7.1645    0.0664   18.5901 C   0  0  0  0  0  0  0  0  0  0  0  0
    8.1084   -0.4272   18.3744 H   0  0  0  0  0  0  0  0  0  0  0  0
    6.5631    0.6863   17.5679 N   0  0  0  0  0  0  0  0  0  0  0  0
    5.3997    1.2992   17.8338 C   0  0  0  0  0  0  0  0  0  0  0  0
    4.9143    1.7847   16.9926 H   0  0  0  0  0  0  0  0  0  0  0  0
    4.8002    1.3135   19.1014 C   0  0  0  0  0  0  0  0  0  0  0  0
    3.8690    1.8486   19.2559 H   0  0  0  0  0  0  0  0  0  0  0  0
    5.4223    0.6347   20.1458 C   0  0  0  0  0  0  0  0  0  0  0  0
    5.0062    0.6239   21.1604 H   0  0  0  0  0  0  0  0  0  0  0  0
  1  2  1  0
  2  3  2  3
  3  4  1  0
  4  5  1  0
  5  6  2  0
  6  7  1  0
  6  8  1  0
  8  9  1  0
  8 10  2  0
 10 11  1  0
 10 12  1  0
 12 13  1  0
 12 14  2  0
 14 15  1  0
  4 16  2  0
 16 17  1  0
 17 18  1  0
 17 19  1  0
 17 20  1  0
 20 21  1  0
 20 22  1  0
  2 23  1  0
 23 24  2  0
 24 25  1  0
 24 26  1  0
 26 27  2  0
 27 28  1  0
 27 29  1  0
 29 30  1  0
 29 31  2  0
 31 32  1  0
 20  3  1  0
 31 23  1  0
 14  5  1  0
M  END
>  <cnnaffinity>  (1) 
-5.46597

>  <filename>  (1) 
Clc1cccc(C2=NCCC2=Cc2cccnc2)c1

$$$$
