
     RDKit          3D

 31 33  0  0  0  0  0  0  0  0999 V2000
    4.9226    1.7985   16.9819 H   0  0  0  0  0  0  0  0  0  0  0  0
    5.3906    1.3004   17.8274 C   0  0  0  0  0  0  0  0  0  0  0  0
    6.5510    0.6821   17.5672 N   0  0  0  0  0  0  0  0  0  0  0  0
    7.1565    0.0629   18.5863 C   0  0  0  0  0  0  0  0  0  0  0  0
    8.1038   -0.4197   18.3672 H   0  0  0  0  0  0  0  0  0  0  0  0
    6.6444    0.0039   19.8917 C   0  0  0  0  0  0  0  0  0  0  0  0
    7.4082   -0.7267   20.9751 C   0  0  0  0  0  0  0  0  0  0  0  0
    6.8974   -0.6128   21.9340 H   0  0  0  0  0  0  0  0  0  0  0  0
    7.4915   -1.7960   20.7580 H   0  0  0  0  0  0  0  0  0  0  0  0
    8.7746   -0.2669   21.1864 N   0  0  0  0  0  0  0  0  0  0  0  0
    9.7917   -0.9269   20.6115 N   0  0  0  0  0  0  0  0  0  0  0  0
   10.8917   -0.2980   21.0008 C   0  0  0  0  0  0  0  0  0  0  0  0
   11.8504   -0.6393   20.6343 H   0  0  0  0  0  0  0  0  0  0  0  0
   10.5883    0.7981   21.8249 C   0  0  0  0  0  0  0  0  0  0  0  0
   11.2407    1.5164   22.2987 H   0  0  0  0  0  0  0  0  0  0  0  0
    9.2155    0.7903   21.9196 C   0  0  0  0  0  0  0  0  0  0  0  0
    8.3397    1.6999   22.6803 C   0  0  0  0  0  0  0  0  0  0  0  0
    8.4770    1.7520   24.0731 C   0  0  0  0  0  0  0  0  0  0  0  0
    9.2119    1.1064   24.5447 H   0  0  0  0  0  0  0  0  0  0  0  0
    7.6789    2.6111   24.8298 C   0  0  0  0  0  0  0  0  0  0  0  0
    7.7932    2.6374   25.9111 H   0  0  0  0  0  0  0  0  0  0  0  0
    6.7431    3.4380   24.1997 C   0  0  0  0  0  0  0  0  0  0  0  0
    6.1086    4.1149   24.7667 H   0  0  0  0  0  0  0  0  0  0  0  0
    6.6283    3.3951   22.8067 C   0  0  0  0  0  0  0  0  0  0  0  0
    5.4671    4.4291   22.0165 Cl  0  0  0  0  0  0  0  0  0  0  0  0
    7.4200    2.5428   22.0396 C   0  0  0  0  0  0  0  0  0  0  0  0
    7.3373    2.5362   20.9588 H   0  0  0  0  0  0  0  0  0  0  0  0
    5.4186    0.6309   20.1396 C   0  0  0  0  0  0  0  0  0  0  0  0
    5.0071    0.6433   21.1537 H   0  0  0  0  0  0  0  0  0  0  0  0
    4.7904    1.3083   19.0908 C   0  0  0  0  0  0  0  0  0  0  0  0
    3.8702    1.8551   19.2453 H   0  0  0  0  0  0  0  0  0  0  0  0
  1  2  1  0
  2  3  2  0
  3  4  1  0
  4  5  1  0
  4  6  2  0
  6  7  1  0
  7  8  1  0
  7  9  1  0
  7 10  1  0
 10 11  1  0
 11 12  2  0
 12 13  1  0
 12 14  1  0
 14 15  1  0
 14 16  2  0
 16 17  1  0
 17 18  2  0
 18 19  1  0
 18 20  1  0
 20 21  1  0
 20 22  2  0
 22 23  1  0
 22 24  1  0
 24 25  1  0
 24 26  2  0
 26 27  1  0
  6 28  1  0
 28 29  1  0
 28 30  2  0
 30 31  1  0
 30  2  1  0
 16 10  1  0
 26 17  1  0
M  END
>  <cnnaffinity>  (1) 
-4.9674

>  <filename>  (1) 
Clc1cccc(-c2ccnn2Cc2cccnc2)c1

$$$$
