
     RDKit          3D

 29 32  0  0  0  0  0  0  0  0999 V2000
    4.9159    1.7754   17.0024 H   0  0  0  0  0  0  0  0  0  0  0  0
    5.4045    1.2898   17.8430 C   0  0  0  0  0  0  0  0  0  0  0  0
    6.5702    0.6779   17.5776 N   0  0  0  0  0  0  0  0  0  0  0  0
    7.1751    0.0566   18.5906 C   0  0  0  0  0  0  0  0  0  0  0  0
    8.1248   -0.4347   18.3744 H   0  0  0  0  0  0  0  0  0  0  0  0
    6.6478    0.0111   19.8915 C   0  0  0  0  0  0  0  0  0  0  0  0
    7.4034   -0.7012   20.9182 C   0  0  0  0  0  0  0  0  0  0  0  0
    8.3306   -1.6005   20.6996 N   0  0  0  0  0  0  0  0  0  0  0  0
    8.8309   -2.0335   21.9063 N   0  0  0  0  0  0  0  0  0  0  0  0
    8.1959   -1.3532   22.8195 C   0  0  0  0  0  0  0  0  0  0  0  0
    8.2629   -1.0947   24.5349 S   0  0  0  0  0  0  0  0  0  0  0  0
    7.0330    0.1737   24.3224 C   0  0  0  0  0  0  0  0  0  0  0  0
    6.5355    0.9654   25.4729 C   0  0  0  0  0  0  0  0  0  0  0  0
    7.0121    0.7440   26.7821 C   0  0  0  0  0  0  0  0  0  0  0  0
    7.7620   -0.0178   26.9907 H   0  0  0  0  0  0  0  0  0  0  0  0
    6.5210    1.5116   27.8400 C   0  0  0  0  0  0  0  0  0  0  0  0
    6.8904    1.3370   28.8456 H   0  0  0  0  0  0  0  0  0  0  0  0
    5.5588    2.5026   27.6235 C   0  0  0  0  0  0  0  0  0  0  0  0
    5.1742    3.1008   28.4443 H   0  0  0  0  0  0  0  0  0  0  0  0
    5.0917    2.7162   26.3246 C   0  0  0  0  0  0  0  0  0  0  0  0
    3.8946    3.9446   26.0392 Cl  0  0  0  0  0  0  0  0  0  0  0  0
    5.5651    1.9642   25.2502 C   0  0  0  0  0  0  0  0  0  0  0  0
    5.1887    2.1497   24.2479 H   0  0  0  0  0  0  0  0  0  0  0  0
    6.6207    0.3552   23.1051 N   0  0  0  0  0  0  0  0  0  0  0  0
    7.2686   -0.5193   22.2796 N   0  0  0  0  0  0  0  0  0  0  0  0
    5.4331    0.6523   20.1619 C   0  0  0  0  0  0  0  0  0  0  0  0
    5.0090    0.6351   21.1688 H   0  0  0  0  0  0  0  0  0  0  0  0
    4.8048    1.3085   19.1088 C   0  0  0  0  0  0  0  0  0  0  0  0
    3.8741    1.8435   19.2620 H   0  0  0  0  0  0  0  0  0  0  0  0
  1  2  1  0
  2  3  2  0
  3  4  1  0
  4  5  1  0
  4  6  2  0
  6  7  1  0
  7  8  2  0
  8  9  1  0
  9 10  2  0
 10 11  1  0
 11 12  1  0
 12 13  1  0
 13 14  2  0
 14 15  1  0
 14 16  1  0
 16 17  1  0
 16 18  2  0
 18 19  1  0
 18 20  1  0
 20 21  1  0
 20 22  2  0
 22 23  1  0
 12 24  2  0
 24 25  1  0
  6 26  1  0
 26 27  1  0
 26 28  2  0
 28 29  1  0
 28  2  1  0
 25  7  1  0
 25 10  1  0
 22 13  1  0
M  END
>  <cnnaffinity>  (1) 
-5.3255

>  <filename>  (1) 
Clc1cccc(-c2nn3c(-c4cccnc4)nnc3s2)c1

$$$$
