
     RDKit          3D

 37 40  0  0  0  0  0  0  0  0999 V2000
    5.0082    1.7901   16.9303 H   0  0  0  0  0  0  0  0  0  0  0  0
    5.4651    1.2866   17.7812 C   0  0  0  0  0  0  0  0  0  0  0  0
    6.6455    0.6909   17.5496 N   0  0  0  0  0  0  0  0  0  0  0  0
    7.2374    0.0662   18.5752 C   0  0  0  0  0  0  0  0  0  0  0  0
    8.2052   -0.3831   18.3596 H   0  0  0  0  0  0  0  0  0  0  0  0
    6.6710   -0.0311   19.8576 C   0  0  0  0  0  0  0  0  0  0  0  0
    7.3686   -0.7264   20.9536 C   0  0  0  0  0  0  0  0  0  0  0  0
    8.6076   -0.3774   21.3001 N   0  0  0  0  0  0  0  0  0  0  0  0
    8.8278   -1.0738   22.4169 N   0  0  0  0  0  0  0  0  0  0  0  0
    7.8233   -1.8641   22.8089 C   0  0  0  0  0  0  0  0  0  0  0  0
    6.8296   -1.7149   21.8573 C   0  0  0  0  0  0  0  0  0  0  0  0
    5.5988   -2.4108   21.7951 N   0  0  0  0  0  0  0  0  0  0  0  0
    4.8143   -1.8084   22.0240 H   0  0  0  0  0  0  0  0  0  0  0  0
    5.4211   -3.6425   22.4692 C   0  0  0  0  0  0  0  0  0  0  0  0
    6.2045   -4.7758   22.1935 C   0  0  0  0  0  0  0  0  0  0  0  0
    7.0947   -4.6771   21.5796 H   0  0  0  0  0  0  0  0  0  0  0  0
    5.8701   -6.0187   22.7512 C   0  0  0  0  0  0  0  0  0  0  0  0
    6.4901   -6.8930   22.5780 H   0  0  0  0  0  0  0  0  0  0  0  0
    4.7287   -6.1348   23.5469 C   0  0  0  0  0  0  0  0  0  0  0  0
    4.2556   -7.6957   24.1588 Cl  0  0  0  0  0  0  0  0  0  0  0  0
    3.9887   -5.0012   23.8943 C   0  0  0  0  0  0  0  0  0  0  0  0
    3.1420   -5.0869   24.5693 H   0  0  0  0  0  0  0  0  0  0  0  0
    4.3443   -3.7653   23.3575 C   0  0  0  0  0  0  0  0  0  0  0  0
    3.7573   -2.8936   23.6346 H   0  0  0  0  0  0  0  0  0  0  0  0
    8.1428   -2.5252   24.1158 C   0  0  0  0  0  0  0  0  0  0  0  0
    8.1868   -3.6101   23.9923 H   0  0  0  0  0  0  0  0  0  0  0  0
    7.3734   -2.3215   24.8659 H   0  0  0  0  0  0  0  0  0  0  0  0
    9.5258   -1.9166   24.4865 C   0  0  0  0  0  0  0  0  0  0  0  0
    9.4611   -1.3402   25.4087 H   0  0  0  0  0  0  0  0  0  0  0  0
   10.2656   -2.7028   24.6327 H   0  0  0  0  0  0  0  0  0  0  0  0
    9.9525   -0.9858   23.3153 C   0  0  0  0  0  0  0  0  0  0  0  0
   10.0868    0.0545   23.6260 H   0  0  0  0  0  0  0  0  0  0  0  0
   10.8591   -1.3235   22.8086 H   0  0  0  0  0  0  0  0  0  0  0  0
    5.4393    0.6063   20.0829 C   0  0  0  0  0  0  0  0  0  0  0  0
    4.9971    0.6014   21.0818 H   0  0  0  0  0  0  0  0  0  0  0  0
    4.8294    1.2807   19.0275 C   0  0  0  0  0  0  0  0  0  0  0  0
    3.8956    1.8168   19.1592 H   0  0  0  0  0  0  0  0  0  0  0  0
  1  2  1  0
  2  3  2  0
  3  4  1  0
  4  5  1  0
  4  6  2  0
  6  7  1  0
  7  8  2  0
  8  9  1  0
  9 10  1  0
 10 11  2  0
 11 12  1  0
 12 13  1  0
 12 14  1  0
 14 15  2  0
 15 16  1  0
 15 17  1  0
 17 18  1  0
 17 19  2  0
 19 20  1  0
 19 21  1  0
 21 22  1  0
 21 23  2  0
 23 24  1  0
 10 25  1  0
 25 26  1  0
 25 27  1  0
 25 28  1  0
 28 29  1  0
 28 30  1  0
 28 31  1  0
 31 32  1  0
 31 33  1  0
  6 34  1  0
 34 35  1  0
 34 36  2  0
 36 37  1  0
 36  2  1  0
 11  7  1  0
 23 14  1  0
 31  9  1  0
M  END
>  <cnnaffinity>  (1) 
-5.90613

>  <filename>  (1) 
Clc1ccc(Nc2c(-c3cccnc3)nn3c2CCC3)cc1

$$$$
