
     RDKit          3D

 29 31  0  0  0  0  0  0  0  0999 V2000
    5.2016    1.7744   16.8002 H   0  0  0  0  0  0  0  0  0  0  0  0
    5.5410    1.2872   17.7118 C   0  0  0  0  0  0  0  0  0  0  0  0
    6.6897    0.5998   17.6162 N   0  0  0  0  0  0  0  0  0  0  0  0
    7.1471    0.0120   18.7259 C   0  0  0  0  0  0  0  0  0  0  0  0
    8.0790   -0.5399   18.6280 H   0  0  0  0  0  0  0  0  0  0  0  0
    6.4856    0.0688   19.9586 C   0  0  0  0  0  0  0  0  0  0  0  0
    7.0783   -0.5906   21.1216 C   0  0  0  0  0  0  0  0  0  0  0  0
    6.4891   -0.9415   22.2102 N   0  0  0  0  0  0  0  0  0  0  0  0
    7.4396   -1.5677   22.9969 N   0  0  0  0  0  0  0  0  0  0  0  0
    8.5392   -1.5431   22.3270 C   0  0  0  0  0  0  0  0  0  0  0  0
    9.8383   -2.1062   22.7880 C   0  0  0  0  0  0  0  0  0  0  0  0
    9.5651   -2.7604   23.6198 H   0  0  0  0  0  0  0  0  0  0  0  0
   10.3213   -2.7169   22.0205 H   0  0  0  0  0  0  0  0  0  0  0  0
   10.8030   -1.0690   23.3231 C   0  0  0  0  0  0  0  0  0  0  0  0
   10.5558   -0.5475   24.6035 C   0  0  0  0  0  0  0  0  0  0  0  0
    9.6499   -0.8284   25.1329 H   0  0  0  0  0  0  0  0  0  0  0  0
   11.4566    0.3045   25.2348 C   0  0  0  0  0  0  0  0  0  0  0  0
   11.2635    0.6440   26.2507 H   0  0  0  0  0  0  0  0  0  0  0  0
   12.6135    0.7014   24.5599 C   0  0  0  0  0  0  0  0  0  0  0  0
   13.3273    1.3560   25.0436 H   0  0  0  0  0  0  0  0  0  0  0  0
   12.8613    0.2506   23.2626 C   0  0  0  0  0  0  0  0  0  0  0  0
   13.7296    0.5955   22.7002 H   0  0  0  0  0  0  0  0  0  0  0  0
   11.9682   -0.6432   22.6620 C   0  0  0  0  0  0  0  0  0  0  0  0
   12.3711   -1.2641   21.0826 Cl  0  0  0  0  0  0  0  0  0  0  0  0
    8.4021   -0.9328   21.1220 O   0  0  0  0  0  0  0  0  0  0  0  0
    5.2552    0.7450   20.0372 C   0  0  0  0  0  0  0  0  0  0  0  0
    4.6893    0.7629   20.9728 H   0  0  0  0  0  0  0  0  0  0  0  0
    4.7902    1.3829   18.8898 C   0  0  0  0  0  0  0  0  0  0  0  0
    3.8716    1.9614   18.8901 H   0  0  0  0  0  0  0  0  0  0  0  0
  1  2  1  0
  2  3  2  0
  3  4  1  0
  4  5  1  0
  4  6  2  0
  6  7  1  0
  7  8  2  0
  8  9  1  0
  9 10  2  0
 10 11  1  0
 11 12  1  0
 11 13  1  0
 11 14  1  0
 14 15  2  0
 15 16  1  0
 15 17  1  0
 17 18  1  0
 17 19  2  0
 19 20  1  0
 19 21  1  0
 21 22  1  0
 21 23  2  0
 23 24  1  0
 10 25  1  0
  6 26  1  0
 26 27  1  0
 26 28  2  0
 28 29  1  0
 28  2  1  0
 25  7  1  0
 23 14  1  0
M  END
>  <cnnaffinity>  (1) 
-5.54301

>  <filename>  (1) 
Clc1ccccc1Cc1nnc(-c2cccnc2)o1

$$$$
