
     RDKit          3D

 30 32  0  0  0  0  0  0  0  0999 V2000
    4.9158    1.7807   16.9958 H   0  0  0  0  0  0  0  0  0  0  0  0
    5.4036    1.2939   17.8384 C   0  0  0  0  0  0  0  0  0  0  0  0
    6.5636    0.6735   17.5747 N   0  0  0  0  0  0  0  0  0  0  0  0
    7.1703    0.0652   18.6013 C   0  0  0  0  0  0  0  0  0  0  0  0
    8.1150   -0.4292   18.3768 H   0  0  0  0  0  0  0  0  0  0  0  0
    6.6573    0.0071   19.9114 C   0  0  0  0  0  0  0  0  0  0  0  0
    7.3560   -0.7315   20.9782 C   0  0  0  0  0  0  0  0  0  0  0  0
    6.5944   -1.8696   22.0215 S   0  0  0  0  0  0  0  0  0  0  0  0
    7.9850   -2.2562   22.8535 N   0  0  0  0  0  0  0  0  0  0  0  0
    8.9651   -1.5370   22.3954 C   0  0  0  0  0  0  0  0  0  0  0  0
    9.9517   -1.6562   22.8471 H   0  0  0  0  0  0  0  0  0  0  0  0
    8.6760   -0.6329   21.3248 C   0  0  0  0  0  0  0  0  0  0  0  0
    9.7151    0.2930   20.7701 C   0  0  0  0  0  0  0  0  0  0  0  0
    9.2869    0.9202   19.9851 H   0  0  0  0  0  0  0  0  0  0  0  0
   10.4826   -0.3544   20.3344 H   0  0  0  0  0  0  0  0  0  0  0  0
   10.3386    1.1752   21.8280 C   0  0  0  0  0  0  0  0  0  0  0  0
   11.5864    0.8492   22.3796 C   0  0  0  0  0  0  0  0  0  0  0  0
   12.1154   -0.0204   22.0006 H   0  0  0  0  0  0  0  0  0  0  0  0
   12.1562    1.6147   23.3981 C   0  0  0  0  0  0  0  0  0  0  0  0
   13.1292    1.3465   23.7965 H   0  0  0  0  0  0  0  0  0  0  0  0
   11.4669    2.7262   23.8883 C   0  0  0  0  0  0  0  0  0  0  0  0
   11.9033    3.3346   24.6693 H   0  0  0  0  0  0  0  0  0  0  0  0
   10.2139    3.0664   23.3757 C   0  0  0  0  0  0  0  0  0  0  0  0
    9.6683    3.9288   23.7493 H   0  0  0  0  0  0  0  0  0  0  0  0
    9.6607    2.2870   22.3570 C   0  0  0  0  0  0  0  0  0  0  0  0
    8.0900    2.7338   21.7559 Cl  0  0  0  0  0  0  0  0  0  0  0  0
    5.4369    0.6478   20.1588 C   0  0  0  0  0  0  0  0  0  0  0  0
    5.0065    0.6233   21.1631 H   0  0  0  0  0  0  0  0  0  0  0  0
    4.8078    1.3118   19.1063 C   0  0  0  0  0  0  0  0  0  0  0  0
    3.8742    1.8442   19.2589 H   0  0  0  0  0  0  0  0  0  0  0  0
  1  2  1  0
  2  3  2  0
  3  4  1  0
  4  5  1  0
  4  6  2  0
  6  7  1  0
  7  8  1  0
  8  9  1  0
  9 10  2  0
 10 11  1  0
 10 12  1  0
 12 13  1  0
 13 14  1  0
 13 15  1  0
 13 16  1  0
 16 17  2  0
 17 18  1  0
 17 19  1  0
 19 20  1  0
 19 21  2  0
 21 22  1  0
 21 23  1  0
 23 24  1  0
 23 25  2  0
 25 26  1  0
  6 27  1  0
 27 28  1  0
 27 29  2  0
 29 30  1  0
 29  2  1  0
 12  7  2  0
 25 16  1  0
M  END
>  <cnnaffinity>  (1) 
-5.55603

>  <filename>  (1) 
Clc1ccccc1Cc1cnsc1-c1cccnc1

$$$$
