
     RDKit          3D

 31 33  0  0  0  0  0  0  0  0999 V2000
    4.9661    1.8893   16.7202 H   0  0  0  0  0  0  0  0  0  0  0  0
    5.3406    1.4184   17.6262 C   0  0  0  0  0  0  0  0  0  0  0  0
    6.5083    0.7633   17.5082 N   0  0  0  0  0  0  0  0  0  0  0  0
    6.9941    0.1872   18.6120 C   0  0  0  0  0  0  0  0  0  0  0  0
    7.9507   -0.3174   18.4923 H   0  0  0  0  0  0  0  0  0  0  0  0
    6.3725    0.2075   19.8770 C   0  0  0  0  0  0  0  0  0  0  0  0
    7.0139   -0.4408   21.0334 C   0  0  0  0  0  0  0  0  0  0  0  0
    6.7280   -0.3158   22.4208 C   0  0  0  0  0  0  0  0  0  0  0  0
    5.9535    0.2520   22.9221 H   0  0  0  0  0  0  0  0  0  0  0  0
    7.5917   -0.9893   23.1590 N   0  0  0  0  0  0  0  0  0  0  0  0
    8.4128   -1.5880   22.2908 N   0  0  0  0  0  0  0  0  0  0  0  0
    9.6164   -2.2284   22.7856 C   0  0  0  0  0  0  0  0  0  0  0  0
    9.3736   -2.5533   23.8003 H   0  0  0  0  0  0  0  0  0  0  0  0
    9.7874   -3.1214   22.1816 H   0  0  0  0  0  0  0  0  0  0  0  0
   10.8260   -1.3118   22.7683 C   0  0  0  0  0  0  0  0  0  0  0  0
   11.8821   -1.5625   21.8867 C   0  0  0  0  0  0  0  0  0  0  0  0
   11.8179   -2.3582   21.1579 H   0  0  0  0  0  0  0  0  0  0  0  0
   13.0312   -0.7698   21.8908 C   0  0  0  0  0  0  0  0  0  0  0  0
   13.8502   -0.9882   21.2168 H   0  0  0  0  0  0  0  0  0  0  0  0
   13.1043    0.3081   22.7671 C   0  0  0  0  0  0  0  0  0  0  0  0
   14.5679    1.2292   22.8698 Cl  0  0  0  0  0  0  0  0  0  0  0  0
   12.0208    0.6408   23.5793 C   0  0  0  0  0  0  0  0  0  0  0  0
   12.0621    1.5279   24.2014 H   0  0  0  0  0  0  0  0  0  0  0  0
   10.8873   -0.1777   23.5895 C   0  0  0  0  0  0  0  0  0  0  0  0
   10.0614    0.0588   24.2584 H   0  0  0  0  0  0  0  0  0  0  0  0
    8.1166   -1.2789   21.0110 C   0  0  0  0  0  0  0  0  0  0  0  0
    8.6840   -1.7166   20.2017 H   0  0  0  0  0  0  0  0  0  0  0  0
    5.1496    0.8961   19.9710 C   0  0  0  0  0  0  0  0  0  0  0  0
    4.6237    0.9626   20.9230 H   0  0  0  0  0  0  0  0  0  0  0  0
    4.6285    1.5049   18.8275 C   0  0  0  0  0  0  0  0  0  0  0  0
    3.6949    2.0580   18.8557 H   0  0  0  0  0  0  0  0  0  0  0  0
  1  2  1  0
  2  3  2  0
  3  4  1  0
  4  5  1  0
  4  6  2  0
  6  7  1  0
  7  8  1  0
  8  9  1  0
  8 10  2  0
 10 11  1  0
 11 12  1  0
 12 13  1  0
 12 14  1  0
 12 15  1  0
 15 16  2  0
 16 17  1  0
 16 18  1  0
 18 19  1  0
 18 20  2  0
 20 21  1  0
 20 22  1  0
 22 23  1  0
 22 24  2  0
 24 25  1  0
 11 26  1  0
 26 27  1  0
  6 28  1  0
 28 29  1  0
 28 30  2  0
 30 31  1  0
 30  2  1  0
 26  7  2  0
 24 15  1  0
M  END
>  <cnnaffinity>  (1) 
-5.13023

>  <filename>  (1) 
Clc1ccc(Cn2cc(-c3cccnc3)cn2)cc1

$$$$
