
     RDKit          3D

 27 29  0  0  0  0  0  0  0  0999 V2000
    4.9247    1.7836   16.9957 H   0  0  0  0  0  0  0  0  0  0  0  0
    5.4077    1.2932   17.8373 C   0  0  0  0  0  0  0  0  0  0  0  0
    6.5714    0.6803   17.5732 N   0  0  0  0  0  0  0  0  0  0  0  0
    7.1694    0.0508   18.5876 C   0  0  0  0  0  0  0  0  0  0  0  0
    8.1163   -0.4315   18.3641 H   0  0  0  0  0  0  0  0  0  0  0  0
    6.6469   -0.0108   19.8873 C   0  0  0  0  0  0  0  0  0  0  0  0
    7.3769   -0.7320   20.9370 C   0  0  0  0  0  0  0  0  0  0  0  0
    7.9563   -1.8837   20.7079 N   0  0  0  0  0  0  0  0  0  0  0  0
    8.4432   -2.3185   21.9145 O   0  0  0  0  0  0  0  0  0  0  0  0
    8.1628   -1.4133   22.8512 C   0  0  0  0  0  0  0  0  0  0  0  0
    8.5246   -1.6291   23.8464 H   0  0  0  0  0  0  0  0  0  0  0  0
    7.5103   -0.3521   22.3168 C   0  0  0  0  0  0  0  0  0  0  0  0
    7.1190    0.8854   23.0008 C   0  0  0  0  0  0  0  0  0  0  0  0
    7.2591    2.1336   22.3717 C   0  0  0  0  0  0  0  0  0  0  0  0
    7.6353    2.1654   21.3534 H   0  0  0  0  0  0  0  0  0  0  0  0
    6.8918    3.2990   23.0423 C   0  0  0  0  0  0  0  0  0  0  0  0
    6.9919    4.2574   22.5428 H   0  0  0  0  0  0  0  0  0  0  0  0
    6.3975    3.2364   24.3492 C   0  0  0  0  0  0  0  0  0  0  0  0
    6.1150    4.1348   24.8883 H   0  0  0  0  0  0  0  0  0  0  0  0
    6.2762    1.9894   24.9679 C   0  0  0  0  0  0  0  0  0  0  0  0
    5.6820    1.9023   26.5971 Cl  0  0  0  0  0  0  0  0  0  0  0  0
    6.6327    0.8144   24.3127 C   0  0  0  0  0  0  0  0  0  0  0  0
    6.5237   -0.1490   24.8037 H   0  0  0  0  0  0  0  0  0  0  0  0
    5.4262    0.6337   20.1495 C   0  0  0  0  0  0  0  0  0  0  0  0
    5.0029    0.6390   21.1579 H   0  0  0  0  0  0  0  0  0  0  0  0
    4.8032    1.3044   19.1009 C   0  0  0  0  0  0  0  0  0  0  0  0
    3.8736    1.8426   19.2551 H   0  0  0  0  0  0  0  0  0  0  0  0
  1  2  1  0
  2  3  2  0
  3  4  1  0
  4  5  1  0
  4  6  2  0
  6  7  1  0
  7  8  2  0
  8  9  1  0
  9 10  1  0
 10 11  1  0
 10 12  2  0
 12 13  1  0
 13 14  2  0
 14 15  1  0
 14 16  1  0
 16 17  1  0
 16 18  2  0
 18 19  1  0
 18 20  1  0
 20 21  1  0
 20 22  2  0
 22 23  1  0
  6 24  1  0
 24 25  1  0
 24 26  2  0
 26 27  1  0
 26  2  1  0
 12  7  1  0
 22 13  1  0
M  END
>  <cnnaffinity>  (1) 
-5.01483

>  <filename>  (1) 
Clc1cccc(-c2conc2-c2cccnc2)c1

$$$$
