
     RDKit          3D

 31 33  0  0  0  0  0  0  0  0999 V2000
    4.9868    1.8688   16.9745 H   0  0  0  0  0  0  0  0  0  0  0  0
    5.4375    1.3128   17.7943 C   0  0  0  0  0  0  0  0  0  0  0  0
    6.5927    0.6761   17.5289 N   0  0  0  0  0  0  0  0  0  0  0  0
    7.1802    0.0156   18.5402 C   0  0  0  0  0  0  0  0  0  0  0  0
    8.1139   -0.4850   18.2881 H   0  0  0  0  0  0  0  0  0  0  0  0
    6.6717   -0.0482   19.8632 C   0  0  0  0  0  0  0  0  0  0  0  0
    7.3196   -0.7261   20.9070 N   0  0  0  0  0  0  0  0  0  0  0  0
    7.7982   -1.5990   20.7252 H   0  0  0  0  0  0  0  0  0  0  0  0
    7.4614   -0.2743   22.2369 C   0  0  0  0  0  0  0  0  0  0  0  0
    7.2897    1.0094   22.8294 C   0  0  0  0  0  0  0  0  0  0  0  0
    6.9336    1.9141   22.3613 H   0  0  0  0  0  0  0  0  0  0  0  0
    7.6381    1.0357   24.1119 N   0  0  0  0  0  0  0  0  0  0  0  0
    8.0437   -0.2333   24.3680 N   0  0  0  0  0  0  0  0  0  0  0  0
    8.3217   -0.4936   25.3047 H   0  0  0  0  0  0  0  0  0  0  0  0
    7.9219   -1.0449   23.2863 C   0  0  0  0  0  0  0  0  0  0  0  0
    8.2514   -2.3671   23.2775 O   0  0  0  0  0  0  0  0  0  0  0  0
    8.1950   -3.1213   24.4453 C   0  0  0  0  0  0  0  0  0  0  0  0
    7.2127   -2.9857   25.4402 C   0  0  0  0  0  0  0  0  0  0  0  0
    6.4445   -2.2243   25.3628 H   0  0  0  0  0  0  0  0  0  0  0  0
    7.2401   -3.8431   26.5498 C   0  0  0  0  0  0  0  0  0  0  0  0
    6.4953   -3.7235   27.3363 H   0  0  0  0  0  0  0  0  0  0  0  0
    8.2206   -4.8293   26.6739 C   0  0  0  0  0  0  0  0  0  0  0  0
    8.2369   -5.4997   27.5288 H   0  0  0  0  0  0  0  0  0  0  0  0
    9.1875   -4.9382   25.6649 C   0  0  0  0  0  0  0  0  0  0  0  0
   10.4434   -6.1215   25.8098 Cl  0  0  0  0  0  0  0  0  0  0  0  0
    9.1777   -4.1020   24.5483 C   0  0  0  0  0  0  0  0  0  0  0  0
    9.9174   -4.1895   23.7601 H   0  0  0  0  0  0  0  0  0  0  0  0
    5.4501    0.5978   20.1014 C   0  0  0  0  0  0  0  0  0  0  0  0
    5.0330    0.5558   21.1078 H   0  0  0  0  0  0  0  0  0  0  0  0
    4.8294    1.2815   19.0519 C   0  0  0  0  0  0  0  0  0  0  0  0
    3.8979    1.8060   19.2138 H   0  0  0  0  0  0  0  0  0  0  0  0
  1  2  1  0
  2  3  2  0
  3  4  1  0
  4  5  1  0
  4  6  2  0
  6  7  1  0
  7  8  1  0
  7  9  1  0
  9 10  1  0
 10 11  1  0
 10 12  2  0
 12 13  1  0
 13 14  1  0
 13 15  1  0
 15 16  1  0
 16 17  1  0
 17 18  2  0
 18 19  1  0
 18 20  1  0
 20 21  1  0
 20 22  2  0
 22 23  1  0
 22 24  1  0
 24 25  1  0
 24 26  2  0
 26 27  1  0
  6 28  1  0
 28 29  1  0
 28 30  2  0
 30 31  1  0
 30  2  1  0
 15  9  2  0
 26 17  1  0
M  END
>  <cnnaffinity>  (1) 
-5.38207

>  <filename>  (1) 
Clc1cccc(Oc2[nH]ncc2Nc2cccnc2)c1

$$$$
