
     RDKit          3D

 30 32  0  0  0  0  0  0  0  0999 V2000
    4.9334    1.7750   17.0000 H   0  0  0  0  0  0  0  0  0  0  0  0
    5.4109    1.2879   17.8477 C   0  0  0  0  0  0  0  0  0  0  0  0
    6.5767    0.6658   17.6070 N   0  0  0  0  0  0  0  0  0  0  0  0
    7.1746    0.0549   18.6327 C   0  0  0  0  0  0  0  0  0  0  0  0
    8.1140   -0.4399   18.3944 H   0  0  0  0  0  0  0  0  0  0  0  0
    6.6520    0.0415   19.9296 C   0  0  0  0  0  0  0  0  0  0  0  0
    7.3858   -0.6907   20.9700 C   0  0  0  0  0  0  0  0  0  0  0  0
    8.0080   -1.7746   20.7061 N   0  0  0  0  0  0  0  0  0  0  0  0
    8.5144   -2.3204   21.9610 C   0  0  0  0  0  0  0  0  0  0  0  0
    8.1439   -3.3410   22.1146 H   0  0  0  0  0  0  0  0  0  0  0  0
    9.6062   -2.3942   21.9115 H   0  0  0  0  0  0  0  0  0  0  0  0
    8.0459   -1.3623   23.0751 C   0  0  0  0  0  0  0  0  0  0  0  0
    7.3593   -1.8498   23.7810 H   0  0  0  0  0  0  0  0  0  0  0  0
    8.8827   -0.9570   23.6558 H   0  0  0  0  0  0  0  0  0  0  0  0
    7.3837   -0.3033   22.3073 N   0  0  0  0  0  0  0  0  0  0  0  0
    7.1581    0.9797   22.8436 C   0  0  0  0  0  0  0  0  0  0  0  0
    7.5536    2.1278   22.1375 C   0  0  0  0  0  0  0  0  0  0  0  0
    8.0136    2.0283   21.1622 H   0  0  0  0  0  0  0  0  0  0  0  0
    7.3228    3.3822   22.6974 C   0  0  0  0  0  0  0  0  0  0  0  0
    7.7975    4.8017   21.8264 Cl  0  0  0  0  0  0  0  0  0  0  0  0
    6.7197    3.5470   23.9446 C   0  0  0  0  0  0  0  0  0  0  0  0
    6.5520    4.5365   24.3607 H   0  0  0  0  0  0  0  0  0  0  0  0
    6.3499    2.3906   24.6319 C   0  0  0  0  0  0  0  0  0  0  0  0
    5.6160    2.5693   26.1920 Cl  0  0  0  0  0  0  0  0  0  0  0  0
    6.5611    1.1157   24.1083 C   0  0  0  0  0  0  0  0  0  0  0  0
    6.2605    0.2394   24.6701 H   0  0  0  0  0  0  0  0  0  0  0  0
    5.4182    0.6619   20.1668 C   0  0  0  0  0  0  0  0  0  0  0  0
    4.9837    0.6501   21.1696 H   0  0  0  0  0  0  0  0  0  0  0  0
    4.7992    1.3082   19.1052 C   0  0  0  0  0  0  0  0  0  0  0  0
    3.8699    1.8437   19.2517 H   0  0  0  0  0  0  0  0  0  0  0  0
  1  2  1  0
  2  3  2  0
  3  4  1  0
  4  5  1  0
  4  6  2  0
  6  7  1  0
  7  8  2  0
  8  9  1  0
  9 10  1  0
  9 11  1  0
  9 12  1  0
 12 13  1  0
 12 14  1  0
 12 15  1  0
 15 16  1  0
 16 17  2  0
 17 18  1  0
 17 19  1  0
 19 20  1  0
 19 21  2  0
 21 22  1  0
 21 23  1  0
 23 24  1  0
 23 25  2  0
 25 26  1  0
  6 27  1  0
 27 28  1  0
 27 29  2  0
 29 30  1  0
 29  2  1  0
 15  7  1  0
 25 16  1  0
M  END
>  <cnnaffinity>  (1) 
-5.19153

>  <filename>  (1) 
Clc1cc(Cl)cc(N2CCN=C2c2cccnc2)c1

$$$$
