
     RDKit          3D

 35 37  0  0  0  0  0  0  0  0999 V2000
    5.1997    1.8148   17.0258 H   0  0  0  0  0  0  0  0  0  0  0  0
    5.6995    1.2527   17.8135 C   0  0  0  0  0  0  0  0  0  0  0  0
    6.8796    0.7051   17.4879 N   0  0  0  0  0  0  0  0  0  0  0  0
    7.5314    0.0260   18.4410 C   0  0  0  0  0  0  0  0  0  0  0  0
    8.4933   -0.3938   18.1468 H   0  0  0  0  0  0  0  0  0  0  0  0
    7.0501   -0.1712   19.7525 C   0  0  0  0  0  0  0  0  0  0  0  0
    7.8529   -0.8501   20.7919 C   0  0  0  0  0  0  0  0  0  0  0  0
    7.4449   -1.8271   21.6330 C   0  0  0  0  0  0  0  0  0  0  0  0
    6.0809   -2.4708   21.7505 C   0  0  0  0  0  0  0  0  0  0  0  0
    5.3755   -2.0314   21.0390 H   0  0  0  0  0  0  0  0  0  0  0  0
    5.7135   -2.2243   22.7549 H   0  0  0  0  0  0  0  0  0  0  0  0
    6.0232   -3.9857   21.6469 C   0  0  0  0  0  0  0  0  0  0  0  0
    6.1679   -4.7508   22.8170 C   0  0  0  0  0  0  0  0  0  0  0  0
    6.3840   -4.2461   23.7566 H   0  0  0  0  0  0  0  0  0  0  0  0
    6.0424   -6.1367   22.8050 C   0  0  0  0  0  0  0  0  0  0  0  0
    6.0612   -6.7017   23.7300 H   0  0  0  0  0  0  0  0  0  0  0  0
    5.8459   -6.7913   21.5908 C   0  0  0  0  0  0  0  0  0  0  0  0
    5.8487   -7.8707   21.5820 H   0  0  0  0  0  0  0  0  0  0  0  0
    5.6924   -6.0752   20.4009 C   0  0  0  0  0  0  0  0  0  0  0  0
    5.5128   -6.5696   19.4471 H   0  0  0  0  0  0  0  0  0  0  0  0
    5.7725   -4.6794   20.4472 C   0  0  0  0  0  0  0  0  0  0  0  0
    5.5245   -3.7998   18.9585 Cl  0  0  0  0  0  0  0  0  0  0  0  0
    8.5468   -2.2140   22.5999 C   0  0  0  0  0  0  0  0  0  0  0  0
    8.9664   -3.1893   22.3101 H   0  0  0  0  0  0  0  0  0  0  0  0
    8.1783   -2.3458   23.6283 H   0  0  0  0  0  0  0  0  0  0  0  0
    9.5735   -1.0580   22.4659 C   0  0  0  0  0  0  0  0  0  0  0  0
    9.4254   -0.3340   23.2782 H   0  0  0  0  0  0  0  0  0  0  0  0
   10.6041   -1.4109   22.5364 H   0  0  0  0  0  0  0  0  0  0  0  0
    9.2562   -0.3726   21.1108 C   0  0  0  0  0  0  0  0  0  0  0  0
    9.9570   -0.6340   20.3038 H   0  0  0  0  0  0  0  0  0  0  0  0
    9.2624    0.7231   21.2000 H   0  0  0  0  0  0  0  0  0  0  0  0
    5.8136    0.4196   20.0643 C   0  0  0  0  0  0  0  0  0  0  0  0
    5.4038    0.3118   21.0688 H   0  0  0  0  0  0  0  0  0  0  0  0
    5.1356    1.1469   19.0878 C   0  0  0  0  0  0  0  0  0  0  0  0
    4.2022    1.6453   19.3086 H   0  0  0  0  0  0  0  0  0  0  0  0
  1  2  1  0
  2  3  2  0
  3  4  1  0
  4  5  1  0
  4  6  2  0
  6  7  1  0
  7  8  2  0
  8  9  1  0
  9 10  1  0
  9 11  1  0
  9 12  1  0
 12 13  2  0
 13 14  1  0
 13 15  1  0
 15 16  1  0
 15 17  2  0
 17 18  1  0
 17 19  1  0
 19 20  1  0
 19 21  2  0
 21 22  1  0
  8 23  1  0
 23 24  1  0
 23 25  1  0
 23 26  1  0
 26 27  1  0
 26 28  1  0
 26 29  1  0
 29 30  1  0
 29 31  1  0
  6 32  1  0
 32 33  1  0
 32 34  2  0
 34 35  1  0
 34  2  1  0
 29  7  1  0
 21 12  1  0
M  END
>  <cnnaffinity>  (1) 
-4.85868

>  <filename>  (1) 
Clc1ccccc1CC1=C(c2cccnc2)CCC1

$$$$
