
     RDKit          3D

 28 30  0  0  0  0  0  0  0  0999 V2000
    4.9258    1.7797   16.9984 H   0  0  0  0  0  0  0  0  0  0  0  0
    5.4093    1.2892   17.8415 C   0  0  0  0  0  0  0  0  0  0  0  0
    6.5720    0.6714   17.5827 N   0  0  0  0  0  0  0  0  0  0  0  0
    7.1698    0.0418   18.5973 C   0  0  0  0  0  0  0  0  0  0  0  0
    8.1175   -0.4359   18.3707 H   0  0  0  0  0  0  0  0  0  0  0  0
    6.6534   -0.0075   19.9023 C   0  0  0  0  0  0  0  0  0  0  0  0
    7.3908   -0.7025   20.9523 C   0  0  0  0  0  0  0  0  0  0  0  0
    8.0867   -1.8629   20.7393 N   0  0  0  0  0  0  0  0  0  0  0  0
    8.5536   -2.2256   21.9021 C   0  0  0  0  0  0  0  0  0  0  0  0
    9.1521   -3.1110   22.1052 H   0  0  0  0  0  0  0  0  0  0  0  0
    8.2122   -1.3385   22.8678 N   0  0  0  0  0  0  0  0  0  0  0  0
    8.4827   -1.3660   23.8336 H   0  0  0  0  0  0  0  0  0  0  0  0
    7.4821   -0.3355   22.2854 C   0  0  0  0  0  0  0  0  0  0  0  0
    7.0416    0.8814   22.9726 C   0  0  0  0  0  0  0  0  0  0  0  0
    7.3705    2.1236   22.3980 C   0  0  0  0  0  0  0  0  0  0  0  0
    7.9278    2.1243   21.4658 H   0  0  0  0  0  0  0  0  0  0  0  0
    6.9740    3.3143   22.9936 C   0  0  0  0  0  0  0  0  0  0  0  0
    7.2372    4.2611   22.5345 H   0  0  0  0  0  0  0  0  0  0  0  0
    6.2357    3.2812   24.1754 C   0  0  0  0  0  0  0  0  0  0  0  0
    5.9225    4.1954   24.6606 H   0  0  0  0  0  0  0  0  0  0  0  0
    5.8865    2.0609   24.7575 C   0  0  0  0  0  0  0  0  0  0  0  0
    4.9738    2.0782   26.2259 Cl  0  0  0  0  0  0  0  0  0  0  0  0
    6.2808    0.8552   24.1623 C   0  0  0  0  0  0  0  0  0  0  0  0
    5.8288   -0.6489   24.8887 Cl  0  0  0  0  0  0  0  0  0  0  0  0
    5.4325    0.6430   20.1590 C   0  0  0  0  0  0  0  0  0  0  0  0
    5.0041    0.6381   21.1675 H   0  0  0  0  0  0  0  0  0  0  0  0
    4.8055    1.3046   19.1057 C   0  0  0  0  0  0  0  0  0  0  0  0
    3.8747    1.8421   19.2557 H   0  0  0  0  0  0  0  0  0  0  0  0
  1  2  1  0
  2  3  2  0
  3  4  1  0
  4  5  1  0
  4  6  2  0
  6  7  1  0
  7  8  1  0
  8  9  2  0
  9 10  1  0
  9 11  1  0
 11 12  1  0
 11 13  1  0
 13 14  1  0
 14 15  2  0
 15 16  1  0
 15 17  1  0
 17 18  1  0
 17 19  2  0
 19 20  1  0
 19 21  1  0
 21 22  1  0
 21 23  2  0
 23 24  1  0
  6 25  1  0
 25 26  1  0
 25 27  2  0
 27 28  1  0
 27  2  1  0
 13  7  2  0
 23 14  1  0
M  END
>  <cnnaffinity>  (1) 
-5.18015

>  <filename>  (1) 
Clc1cccc(-c2[nH]cnc2-c2cccnc2)c1Cl

$$$$
