
     RDKit          3D

 35 38  0  0  0  0  0  0  0  0999 V2000
    4.9701    1.8412   16.9550 H   0  0  0  0  0  0  0  0  0  0  0  0
    5.4066    1.2949   17.7890 C   0  0  0  0  0  0  0  0  0  0  0  0
    6.5554    0.6456   17.5435 N   0  0  0  0  0  0  0  0  0  0  0  0
    7.1396    0.0071   18.5644 C   0  0  0  0  0  0  0  0  0  0  0  0
    8.0743   -0.5029   18.3331 H   0  0  0  0  0  0  0  0  0  0  0  0
    6.6242   -0.0112   19.8764 C   0  0  0  0  0  0  0  0  0  0  0  0
    7.3699   -0.6650   20.9682 C   0  0  0  0  0  0  0  0  0  0  0  0
    8.0771   -1.7738   20.7613 N   0  0  0  0  0  0  0  0  0  0  0  0
    8.5607   -2.0693   21.9655 N   0  0  0  0  0  0  0  0  0  0  0  0
    8.2555   -1.2194   22.9356 C   0  0  0  0  0  0  0  0  0  0  0  0
    7.4663   -0.2544   22.3387 C   0  0  0  0  0  0  0  0  0  0  0  0
    7.0687    0.9905   22.9744 C   0  0  0  0  0  0  0  0  0  0  0  0
    7.2454    2.2227   22.3299 C   0  0  0  0  0  0  0  0  0  0  0  0
    7.6380    2.2361   21.3164 H   0  0  0  0  0  0  0  0  0  0  0  0
    6.9485    3.4138   22.9855 C   0  0  0  0  0  0  0  0  0  0  0  0
    7.1049    4.3727   22.4982 H   0  0  0  0  0  0  0  0  0  0  0  0
    6.4575    3.3588   24.2942 C   0  0  0  0  0  0  0  0  0  0  0  0
    6.0652    4.8349   25.1221 Cl  0  0  0  0  0  0  0  0  0  0  0  0
    6.2703    2.1402   24.9546 C   0  0  0  0  0  0  0  0  0  0  0  0
    5.8934    2.1163   25.9719 H   0  0  0  0  0  0  0  0  0  0  0  0
    6.5890    0.9624   24.2855 C   0  0  0  0  0  0  0  0  0  0  0  0
    6.4632   -0.0012   24.7720 H   0  0  0  0  0  0  0  0  0  0  0  0
    9.0713   -1.5055   24.1668 C   0  0  0  0  0  0  0  0  0  0  0  0
    9.6879   -0.6461   24.4456 H   0  0  0  0  0  0  0  0  0  0  0  0
    8.4426   -1.7178   25.0291 H   0  0  0  0  0  0  0  0  0  0  0  0
    9.9189   -2.7359   23.7440 C   0  0  0  0  0  0  0  0  0  0  0  0
    9.7301   -3.5898   24.3899 H   0  0  0  0  0  0  0  0  0  0  0  0
   10.9757   -2.5004   23.7889 H   0  0  0  0  0  0  0  0  0  0  0  0
    9.5415   -3.0700   22.2792 C   0  0  0  0  0  0  0  0  0  0  0  0
    9.0999   -4.0564   22.1360 H   0  0  0  0  0  0  0  0  0  0  0  0
   10.3810   -2.9436   21.5979 H   0  0  0  0  0  0  0  0  0  0  0  0
    5.3931    0.6320   20.0957 C   0  0  0  0  0  0  0  0  0  0  0  0
    4.9519    0.6433   21.0927 H   0  0  0  0  0  0  0  0  0  0  0  0
    4.7790    1.2999   19.0384 C   0  0  0  0  0  0  0  0  0  0  0  0
    3.8539    1.8463   19.1781 H   0  0  0  0  0  0  0  0  0  0  0  0
  1  2  1  0
  2  3  2  0
  3  4  1  0
  4  5  1  0
  4  6  2  0
  6  7  1  0
  7  8  2  0
  8  9  1  0
  9 10  1  0
 10 11  2  0
 11 12  1  0
 12 13  2  0
 13 14  1  0
 13 15  1  0
 15 16  1  0
 15 17  2  0
 17 18  1  0
 17 19  1  0
 19 20  1  0
 19 21  2  0
 21 22  1  0
 10 23  1  0
 23 24  1  0
 23 25  1  0
 23 26  1  0
 26 27  1  0
 26 28  1  0
 26 29  1  0
 29 30  1  0
 29 31  1  0
  6 32  1  0
 32 33  1  0
 32 34  2  0
 34 35  1  0
 34  2  1  0
 11  7  1  0
 21 12  1  0
 29  9  1  0
M  END
>  <cnnaffinity>  (1) 
-5.5652

>  <filename>  (1) 
Clc1ccc(-c2c(-c3cccnc3)nn3c2CCC3)cc1

$$$$
