
     RDKit          3D

 30 32  0  0  0  0  0  0  0  0999 V2000
    4.9161    1.8825   16.8821 H   0  0  0  0  0  0  0  0  0  0  0  0
    5.3691    1.3724   17.7340 C   0  0  0  0  0  0  0  0  0  0  0  0
    6.5300    0.7415   17.5028 N   0  0  0  0  0  0  0  0  0  0  0  0
    7.0946    0.1052   18.5318 C   0  0  0  0  0  0  0  0  0  0  0  0
    8.0320   -0.4052   18.3232 H   0  0  0  0  0  0  0  0  0  0  0  0
    6.5530    0.0459   19.8218 C   0  0  0  0  0  0  0  0  0  0  0  0
    7.2735   -0.7384   20.8232 C   0  0  0  0  0  0  0  0  0  0  0  0
    6.6923   -0.9515   22.0148 O   0  0  0  0  0  0  0  0  0  0  0  0
    7.5501   -1.6662   22.8237 N   0  0  0  0  0  0  0  0  0  0  0  0
    8.6262   -1.8785   22.1149 C   0  0  0  0  0  0  0  0  0  0  0  0
    9.8336   -2.5133   22.7441 C   0  0  0  0  0  0  0  0  0  0  0  0
    9.5231   -3.2814   23.4656 H   0  0  0  0  0  0  0  0  0  0  0  0
   10.4314   -2.9960   21.9698 H   0  0  0  0  0  0  0  0  0  0  0  0
   10.6871   -1.4498   23.4077 C   0  0  0  0  0  0  0  0  0  0  0  0
   10.3718   -1.0033   24.7023 C   0  0  0  0  0  0  0  0  0  0  0  0
    9.4778   -1.3871   25.2018 H   0  0  0  0  0  0  0  0  0  0  0  0
   11.1939   -0.0701   25.3412 C   0  0  0  0  0  0  0  0  0  0  0  0
   10.9578    0.2838   26.3387 H   0  0  0  0  0  0  0  0  0  0  0  0
   12.3212    0.4441   24.6937 C   0  0  0  0  0  0  0  0  0  0  0  0
   12.9627    1.1549   25.2035 H   0  0  0  0  0  0  0  0  0  0  0  0
   12.6092    0.0719   23.3821 C   0  0  0  0  0  0  0  0  0  0  0  0
   13.4503    0.5047   22.8478 H   0  0  0  0  0  0  0  0  0  0  0  0
   11.7703   -0.8437   22.7420 C   0  0  0  0  0  0  0  0  0  0  0  0
   12.1300   -1.2142   21.0796 Cl  0  0  0  0  0  0  0  0  0  0  0  0
    8.4997   -1.3327   20.8094 C   0  0  0  0  0  0  0  0  0  0  0  0
    9.2240   -1.3925   20.0120 H   0  0  0  0  0  0  0  0  0  0  0  0
    5.3478    0.7307   20.0640 C   0  0  0  0  0  0  0  0  0  0  0  0
    4.8950    0.7536   21.0573 H   0  0  0  0  0  0  0  0  0  0  0  0
    4.7513    1.3871   18.9904 C   0  0  0  0  0  0  0  0  0  0  0  0
    3.8122    1.9107   19.1069 H   0  0  0  0  0  0  0  0  0  0  0  0
  1  2  1  0
  2  3  2  0
  3  4  1  0
  4  5  1  0
  4  6  2  0
  6  7  1  0
  7  8  1  0
  8  9  1  0
  9 10  2  0
 10 11  1  0
 11 12  1  0
 11 13  1  0
 11 14  1  0
 14 15  2  0
 15 16  1  0
 15 17  1  0
 17 18  1  0
 17 19  2  0
 19 20  1  0
 19 21  1  0
 21 22  1  0
 21 23  2  0
 23 24  1  0
 10 25  1  0
 25 26  1  0
  6 27  1  0
 27 28  1  0
 27 29  2  0
 29 30  1  0
 29  2  1  0
 25  7  2  0
 23 14  1  0
M  END
>  <cnnaffinity>  (1) 
-5.07513

>  <filename>  (1) 
Clc1ccccc1Cc1cc(-c2cccnc2)on1

$$$$
