
     RDKit          3D

 31 33  0  0  0  0  0  0  0  0999 V2000
    5.0467    1.7835   16.9683 H   0  0  0  0  0  0  0  0  0  0  0  0
    5.4783    1.2918   17.8389 C   0  0  0  0  0  0  0  0  0  0  0  0
    6.6335    0.6342   17.6392 N   0  0  0  0  0  0  0  0  0  0  0  0
    7.1798    0.0118   18.6838 C   0  0  0  0  0  0  0  0  0  0  0  0
    8.0902   -0.5541   18.5030 H   0  0  0  0  0  0  0  0  0  0  0  0
    6.6351    0.0415   19.9801 C   0  0  0  0  0  0  0  0  0  0  0  0
    7.3156   -0.6540   21.0107 N   0  0  0  0  0  0  0  0  0  0  0  0
    7.7707   -1.8917   20.7294 N   0  0  0  0  0  0  0  0  0  0  0  0
    8.3410   -2.3113   21.8424 C   0  0  0  0  0  0  0  0  0  0  0  0
    8.7754   -3.3001   21.8820 H   0  0  0  0  0  0  0  0  0  0  0  0
    8.2893   -1.3414   22.8541 C   0  0  0  0  0  0  0  0  0  0  0  0
    8.7124   -1.4199   23.8429 H   0  0  0  0  0  0  0  0  0  0  0  0
    7.6224   -0.2708   22.2960 C   0  0  0  0  0  0  0  0  0  0  0  0
    7.3159    1.0612   22.9470 C   0  0  0  0  0  0  0  0  0  0  0  0
    6.6273    0.8730   23.7746 H   0  0  0  0  0  0  0  0  0  0  0  0
    6.8013    1.7379   22.2564 H   0  0  0  0  0  0  0  0  0  0  0  0
    8.5862    1.7187   23.4820 C   0  0  0  0  0  0  0  0  0  0  0  0
    8.9865    1.5722   24.8181 C   0  0  0  0  0  0  0  0  0  0  0  0
    8.2826    1.1457   25.5236 H   0  0  0  0  0  0  0  0  0  0  0  0
   10.2670    1.9417   25.2410 C   0  0  0  0  0  0  0  0  0  0  0  0
   10.5778    1.7560   26.2659 H   0  0  0  0  0  0  0  0  0  0  0  0
   11.1520    2.5279   24.3297 C   0  0  0  0  0  0  0  0  0  0  0  0
   12.1476    2.8024   24.6473 H   0  0  0  0  0  0  0  0  0  0  0  0
   10.7527    2.7647   23.0105 C   0  0  0  0  0  0  0  0  0  0  0  0
   11.4074    3.2388   22.2788 H   0  0  0  0  0  0  0  0  0  0  0  0
    9.4784    2.3569   22.6109 C   0  0  0  0  0  0  0  0  0  0  0  0
    8.9874    2.6179   20.9624 Cl  0  0  0  0  0  0  0  0  0  0  0  0
    5.4139    0.6972   20.1756 C   0  0  0  0  0  0  0  0  0  0  0  0
    4.9327    0.6856   21.1545 H   0  0  0  0  0  0  0  0  0  0  0  0
    4.8268    1.3317   19.0752 C   0  0  0  0  0  0  0  0  0  0  0  0
    3.8772    1.8474   19.1680 H   0  0  0  0  0  0  0  0  0  0  0  0
  1  2  1  0
  2  3  2  0
  3  4  1  0
  4  5  1  0
  4  6  2  0
  6  7  1  0
  7  8  1  0
  8  9  2  0
  9 10  1  0
  9 11  1  0
 11 12  1  0
 11 13  2  0
 13 14  1  0
 14 15  1  0
 14 16  1  0
 14 17  1  0
 17 18  2  0
 18 19  1  0
 18 20  1  0
 20 21  1  0
 20 22  2  0
 22 23  1  0
 22 24  1  0
 24 25  1  0
 24 26  2  0
 26 27  1  0
  6 28  1  0
 28 29  1  0
 28 30  2  0
 30 31  1  0
 30  2  1  0
 13  7  1  0
 26 17  1  0
M  END
>  <cnnaffinity>  (1) 
-5.17304

>  <filename>  (1) 
Clc1ccccc1Cc1ccnn1-c1cccnc1

$$$$
