
     RDKit          3D

 31 33  0  0  0  0  0  0  0  0999 V2000
    4.9154    1.7781   16.9982 H   0  0  0  0  0  0  0  0  0  0  0  0
    5.4018    1.2914   17.8437 C   0  0  0  0  0  0  0  0  0  0  0  0
    6.5702    0.6736   17.5959 N   0  0  0  0  0  0  0  0  0  0  0  0
    7.1792    0.0569   18.6153 C   0  0  0  0  0  0  0  0  0  0  0  0
    8.1248   -0.4390   18.3939 H   0  0  0  0  0  0  0  0  0  0  0  0
    6.6611    0.0138   19.9235 C   0  0  0  0  0  0  0  0  0  0  0  0
    7.3749   -0.7049   20.8607 O   0  0  0  0  0  0  0  0  0  0  0  0
    7.2485   -0.4044   22.2026 C   0  0  0  0  0  0  0  0  0  0  0  0
    7.1112   -1.3624   23.2210 C   0  0  0  0  0  0  0  0  0  0  0  0
    7.0637   -2.4349   23.1089 H   0  0  0  0  0  0  0  0  0  0  0  0
    7.0613   -0.8032   24.4257 N   0  0  0  0  0  0  0  0  0  0  0  0
    7.1833    0.5137   24.1740 N   0  0  0  0  0  0  0  0  0  0  0  0
    7.1425    1.1826   24.9254 H   0  0  0  0  0  0  0  0  0  0  0  0
    7.3216    0.8139   22.8561 C   0  0  0  0  0  0  0  0  0  0  0  0
    7.4961    2.0922   22.3801 N   0  0  0  0  0  0  0  0  0  0  0  0
    7.3594    2.2001   21.3852 H   0  0  0  0  0  0  0  0  0  0  0  0
    7.9124    3.2349   23.0742 C   0  0  0  0  0  0  0  0  0  0  0  0
    7.3645    4.4770   22.7362 C   0  0  0  0  0  0  0  0  0  0  0  0
    6.6317    4.5422   21.9363 H   0  0  0  0  0  0  0  0  0  0  0  0
    7.7337    5.6283   23.4358 C   0  0  0  0  0  0  0  0  0  0  0  0
    7.3096    6.5932   23.1811 H   0  0  0  0  0  0  0  0  0  0  0  0
    8.6726    5.5361   24.4646 C   0  0  0  0  0  0  0  0  0  0  0  0
    9.1570    6.9607   25.3383 Cl  0  0  0  0  0  0  0  0  0  0  0  0
    9.2390    4.3059   24.7927 C   0  0  0  0  0  0  0  0  0  0  0  0
    9.9639    4.2536   25.5875 H   0  0  0  0  0  0  0  0  0  0  0  0
    8.8668    3.1572   24.0976 C   0  0  0  0  0  0  0  0  0  0  0  0
    9.3183    2.1971   24.3267 H   0  0  0  0  0  0  0  0  0  0  0  0
    5.4406    0.6465   20.1749 C   0  0  0  0  0  0  0  0  0  0  0  0
    5.0170    0.6282   21.1827 H   0  0  0  0  0  0  0  0  0  0  0  0
    4.8082    1.3068   19.1097 C   0  0  0  0  0  0  0  0  0  0  0  0
    3.8750    1.8411   19.2600 H   0  0  0  0  0  0  0  0  0  0  0  0
  1  2  1  0
  2  3  2  0
  3  4  1  0
  4  5  1  0
  4  6  2  0
  6  7  1  0
  7  8  1  0
  8  9  1  0
  9 10  1  0
  9 11  2  0
 11 12  1  0
 12 13  1  0
 12 14  1  0
 14 15  1  0
 15 16  1  0
 15 17  1  0
 17 18  2  0
 18 19  1  0
 18 20  1  0
 20 21  1  0
 20 22  2  0
 22 23  1  0
 22 24  1  0
 24 25  1  0
 24 26  2  0
 26 27  1  0
  6 28  1  0
 28 29  1  0
 28 30  2  0
 30 31  1  0
 30  2  1  0
 14  8  2  0
 26 17  1  0
M  END
>  <cnnaffinity>  (1) 
-5.25151

>  <filename>  (1) 
Clc1ccc(Nc2[nH]ncc2Oc2cccnc2)cc1

$$$$
