
     RDKit          3D

 30 32  0  0  0  0  0  0  0  0999 V2000
    4.9882    1.7585   16.9802 H   0  0  0  0  0  0  0  0  0  0  0  0
    5.4162    1.2844   17.8566 C   0  0  0  0  0  0  0  0  0  0  0  0
    6.5909    0.6716   17.6577 N   0  0  0  0  0  0  0  0  0  0  0  0
    7.1673    0.1143   18.7208 C   0  0  0  0  0  0  0  0  0  0  0  0
    8.1232   -0.3712   18.5288 H   0  0  0  0  0  0  0  0  0  0  0  0
    6.6211    0.1326   20.0125 C   0  0  0  0  0  0  0  0  0  0  0  0
    7.3679   -0.5442   21.0946 C   0  0  0  0  0  0  0  0  0  0  0  0
    7.1827   -0.1026   22.3409 N   0  0  0  0  0  0  0  0  0  0  0  0
    7.8293   -0.7284   23.3394 C   0  0  0  0  0  0  0  0  0  0  0  0
    7.6904   -0.1465   24.7065 C   0  0  0  0  0  0  0  0  0  0  0  0
    8.6866   -0.2999   25.6883 C   0  0  0  0  0  0  0  0  0  0  0  0
    9.6132   -0.8259   25.4698 H   0  0  0  0  0  0  0  0  0  0  0  0
    8.5173    0.2584   26.9529 C   0  0  0  0  0  0  0  0  0  0  0  0
    9.2662    0.1182   27.7246 H   0  0  0  0  0  0  0  0  0  0  0  0
    7.3667    0.9977   27.2558 C   0  0  0  0  0  0  0  0  0  0  0  0
    7.2186    1.6939   28.8329 Cl  0  0  0  0  0  0  0  0  0  0  0  0
    6.3668    1.1551   26.2807 C   0  0  0  0  0  0  0  0  0  0  0  0
    4.9095    2.0417   26.5763 Cl  0  0  0  0  0  0  0  0  0  0  0  0
    6.5364    0.5817   25.0227 C   0  0  0  0  0  0  0  0  0  0  0  0
    5.7737    0.7097   24.2614 H   0  0  0  0  0  0  0  0  0  0  0  0
    8.5789   -1.8998   23.1349 C   0  0  0  0  0  0  0  0  0  0  0  0
    9.0155   -2.4188   23.9770 H   0  0  0  0  0  0  0  0  0  0  0  0
    8.7550   -2.3782   21.8384 C   0  0  0  0  0  0  0  0  0  0  0  0
    9.3144   -3.2923   21.6484 H   0  0  0  0  0  0  0  0  0  0  0  0
    8.1953   -1.6380   20.8060 C   0  0  0  0  0  0  0  0  0  0  0  0
    8.3751   -1.8688   19.7794 H   0  0  0  0  0  0  0  0  0  0  0  0
    5.3776    0.7562   20.2020 C   0  0  0  0  0  0  0  0  0  0  0  0
    4.9068    0.7708   21.1892 H   0  0  0  0  0  0  0  0  0  0  0  0
    4.7658    1.3402   19.0945 C   0  0  0  0  0  0  0  0  0  0  0  0
    3.8125    1.8475   19.1773 H   0  0  0  0  0  0  0  0  0  0  0  0
  1  2  1  0
  2  3  2  0
  3  4  1  0
  4  5  1  0
  4  6  2  0
  6  7  1  0
  7  8  2  0
  8  9  1  0
  9 10  1  0
 10 11  2  0
 11 12  1  0
 11 13  1  0
 13 14  1  0
 13 15  2  0
 15 16  1  0
 15 17  1  0
 17 18  1  0
 17 19  2  0
 19 20  1  0
  9 21  2  0
 21 22  1  0
 21 23  1  0
 23 24  1  0
 23 25  2  0
 25 26  1  0
  6 27  1  0
 27 28  1  0
 27 29  2  0
 29 30  1  0
 29  2  1  0
 25  7  1  0
 19 10  1  0
M  END
>  <cnnaffinity>  (1) 
-5.26831

>  <filename>  (1) 
Clc1ccc(-c2cccc(-c3cccnc3)n2)cc1Cl

$$$$
