
     RDKit          3D

 32 34  0  0  0  0  0  0  0  0999 V2000
   10.1564    5.4817   26.5862 Cl  0  0  0  0  0  0  0  0  0  0  0  0
    8.8640    4.5315   25.9126 C   0  0  0  0  0  0  0  0  0  0  0  0
    7.5568    5.0401   26.0004 C   0  0  0  0  0  0  0  0  0  0  0  0
    6.5249    4.4692   25.3710 N   0  0  0  0  0  0  0  0  0  0  0  0
    6.7541    3.3674   24.6409 C   0  0  0  0  0  0  0  0  0  0  0  0
    8.0257    2.7230   24.5573 C   0  0  0  0  0  0  0  0  0  0  0  0
    8.2566    1.5379   23.8846 N   0  0  0  0  0  0  0  0  0  0  0  0
    7.2700    1.0027   22.9761 C   0  0  0  0  0  0  0  0  0  0  0  0
    7.7068   -0.2726   22.3440 C   0  0  0  0  0  0  0  0  0  0  0  0
    8.3551   -1.3518   22.9070 C   0  0  0  0  0  0  0  0  0  0  0  0
    8.4882   -2.2633   21.9180 N   0  0  0  0  0  0  0  0  0  0  0  0
    7.9555   -1.8607   20.7597 N   0  0  0  0  0  0  0  0  0  0  0  0
    7.4354   -0.6619   21.0092 C   0  0  0  0  0  0  0  0  0  0  0  0
    6.6762    0.0419   19.9603 C   0  0  0  0  0  0  0  0  0  0  0  0
    5.4413    0.6815   20.1706 C   0  0  0  0  0  0  0  0  0  0  0  0
    4.8211    1.3103   19.0905 C   0  0  0  0  0  0  0  0  0  0  0  0
    5.4525    1.2887   17.8430 C   0  0  0  0  0  0  0  0  0  0  0  0
    6.6071    0.6434   17.6149 N   0  0  0  0  0  0  0  0  0  0  0  0
    7.1822    0.0247   18.6493 C   0  0  0  0  0  0  0  0  0  0  0  0
    8.0988   -0.5186   18.4278 H   0  0  0  0  0  0  0  0  0  0  0  0
    5.0159    1.8035   16.9884 H   0  0  0  0  0  0  0  0  0  0  0  0
    3.8687    1.8172   19.1962 H   0  0  0  0  0  0  0  0  0  0  0  0
    4.9644    0.6613   21.1529 H   0  0  0  0  0  0  0  0  0  0  0  0
    8.8832   -3.1896   21.9765 H   0  0  0  0  0  0  0  0  0  0  0  0
    8.7145   -1.5463   23.9084 H   0  0  0  0  0  0  0  0  0  0  0  0
    7.0131    1.7415   22.2002 H   0  0  0  0  0  0  0  0  0  0  0  0
    6.3467    0.8519   23.5529 H   0  0  0  0  0  0  0  0  0  0  0  0
    9.2191    1.2605   23.7501 H   0  0  0  0  0  0  0  0  0  0  0  0
    9.1001    3.3359   25.2337 C   0  0  0  0  0  0  0  0  0  0  0  0
   10.0869    2.8794   25.1893 H   0  0  0  0  0  0  0  0  0  0  0  0
    5.9071    2.9771   24.0775 H   0  0  0  0  0  0  0  0  0  0  0  0
    7.3390    5.9280   26.5851 H   0  0  0  0  0  0  0  0  0  0  0  0
  1  2  1  0
  2  3  2  0
  3  4  1  0
  4  5  2  0
  5  6  1  0
  6  7  1  0
  7  8  1  0
  8  9  1  0
  9 10  2  0
 10 11  1  0
 11 12  1  0
 12 13  2  0
 13 14  1  0
 14 15  2  0
 15 16  1  0
 16 17  2  0
 17 18  1  0
 18 19  2  0
 19 20  1  0
 17 21  1  0
 16 22  1  0
 15 23  1  0
 11 24  1  0
 10 25  1  0
  8 26  1  0
  8 27  1  0
  7 28  1  0
  6 29  2  0
 29 30  1  0
  5 31  1  0
  3 32  1  0
 29  2  1  0
 13  9  1  0
 19 14  1  0
M  END
>  <cnnaffinity>  (1) 
-5.2187

>  <filename>  (1) 
Clc1cncc(NCc2c[nH]nc2-c2cccnc2)c1

$$$$
