
     RDKit          3D

 32 35  0  0  0  0  0  0  0  0999 V2000
    5.0757    1.8787   17.0083 H   0  0  0  0  0  0  0  0  0  0  0  0
    5.5517    1.3233   17.8148 C   0  0  0  0  0  0  0  0  0  0  0  0
    6.6894    0.6825   17.5018 N   0  0  0  0  0  0  0  0  0  0  0  0
    7.3053   -0.0117   18.4671 C   0  0  0  0  0  0  0  0  0  0  0  0
    8.2523   -0.4708   18.1832 H   0  0  0  0  0  0  0  0  0  0  0  0
    6.7923   -0.1491   19.7733 C   0  0  0  0  0  0  0  0  0  0  0  0
    7.4394   -0.9612   20.7425 N   0  0  0  0  0  0  0  0  0  0  0  0
    8.7824   -0.8600   21.1016 C   0  0  0  0  0  0  0  0  0  0  0  0
    9.3998   -0.1420   20.5859 H   0  0  0  0  0  0  0  0  0  0  0  0
    9.0377   -1.6997   22.1366 C   0  0  0  0  0  0  0  0  0  0  0  0
    9.9076   -1.9310   22.7263 H   0  0  0  0  0  0  0  0  0  0  0  0
    7.8372   -2.3181   22.4242 N   0  0  0  0  0  0  0  0  0  0  0  0
    7.4575   -3.2666   23.3098 N   0  0  0  0  0  0  0  0  0  0  0  0
    6.1540   -3.4082   23.0389 C   0  0  0  0  0  0  0  0  0  0  0  0
    5.2870   -4.4462   23.6704 C   0  0  0  0  0  0  0  0  0  0  0  0
    5.6441   -5.8070   23.5717 C   0  0  0  0  0  0  0  0  0  0  0  0
    6.6765   -6.0507   23.3314 H   0  0  0  0  0  0  0  0  0  0  0  0
    4.6950   -6.8087   23.7563 C   0  0  0  0  0  0  0  0  0  0  0  0
    4.9661   -7.8490   23.5924 H   0  0  0  0  0  0  0  0  0  0  0  0
    3.3852   -6.4657   24.1111 C   0  0  0  0  0  0  0  0  0  0  0  0
    2.6139   -7.2189   24.2213 H   0  0  0  0  0  0  0  0  0  0  0  0
    3.0537   -5.1322   24.3730 C   0  0  0  0  0  0  0  0  0  0  0  0
    1.4386   -4.7482   24.8731 Cl  0  0  0  0  0  0  0  0  0  0  0  0
    4.0272   -4.1305   24.2352 C   0  0  0  0  0  0  0  0  0  0  0  0
    3.7135   -2.5548   24.8749 Cl  0  0  0  0  0  0  0  0  0  0  0  0
    5.7146   -2.5744   21.9898 C   0  0  0  0  0  0  0  0  0  0  0  0
    4.7044   -2.5378   21.6395 H   0  0  0  0  0  0  0  0  0  0  0  0
    6.8564   -1.8855   21.6000 C   0  0  0  0  0  0  0  0  0  0  0  0
    5.6261    0.5588   20.1011 C   0  0  0  0  0  0  0  0  0  0  0  0
    5.2502    0.5378   21.1255 H   0  0  0  0  0  0  0  0  0  0  0  0
    4.9973    1.3044   19.1005 C   0  0  0  0  0  0  0  0  0  0  0  0
    4.0932    1.8678   19.3065 H   0  0  0  0  0  0  0  0  0  0  0  0
  1  2  1  0
  2  3  2  0
  3  4  1  0
  4  5  1  0
  4  6  2  0
  6  7  1  0
  7  8  1  0
  8  9  1  0
  8 10  2  0
 10 11  1  0
 10 12  1  0
 12 13  1  0
 13 14  2  0
 14 15  1  0
 15 16  2  0
 16 17  1  0
 16 18  1  0
 18 19  1  0
 18 20  2  0
 20 21  1  0
 20 22  1  0
 22 23  1  0
 22 24  2  0
 24 25  1  0
 14 26  1  0
 26 27  1  0
 26 28  2  0
  6 29  1  0
 29 30  1  0
 29 31  2  0
 31 32  1  0
 31  2  1  0
 28  7  1  0
 28 12  1  0
 24 15  1  0
M  END
>  <cnnaffinity>  (1) 
-5.62941

>  <filename>  (1) 
Clc1cccc(-c2cc3n(-c4cccnc4)ccn3n2)c1Cl

$$$$
