
     RDKit          3D

 30 32  0  0  0  0  0  0  0  0999 V2000
    8.9530   -3.1180   22.2533 H   0  0  0  0  0  0  0  0  0  0  0  0
    8.4413   -2.2189   21.9305 C   0  0  0  0  0  0  0  0  0  0  0  0
    7.8925   -1.9772   20.7901 N   0  0  0  0  0  0  0  0  0  0  0  0
    7.3907   -0.6914   20.9319 C   0  0  0  0  0  0  0  0  0  0  0  0
    6.6434   -0.0018   19.8897 C   0  0  0  0  0  0  0  0  0  0  0  0
    7.1602    0.0394   18.5842 C   0  0  0  0  0  0  0  0  0  0  0  0
    8.1141   -0.4349   18.3696 H   0  0  0  0  0  0  0  0  0  0  0  0
    6.5672    0.6722   17.5713 N   0  0  0  0  0  0  0  0  0  0  0  0
    5.4046    1.2923   17.8350 C   0  0  0  0  0  0  0  0  0  0  0  0
    4.9253    1.7833   16.9946 H   0  0  0  0  0  0  0  0  0  0  0  0
    4.8010    1.3095   19.0991 C   0  0  0  0  0  0  0  0  0  0  0  0
    3.8674    1.8441   19.2503 H   0  0  0  0  0  0  0  0  0  0  0  0
    5.4309    0.6569   20.1557 C   0  0  0  0  0  0  0  0  0  0  0  0
    5.0066    0.6366   21.1614 H   0  0  0  0  0  0  0  0  0  0  0  0
    7.7247   -0.2031   22.1633 C   0  0  0  0  0  0  0  0  0  0  0  0
    7.5008    1.1188   22.8146 C   0  0  0  0  0  0  0  0  0  0  0  0
    8.3550    1.3636   23.4596 H   0  0  0  0  0  0  0  0  0  0  0  0
    7.4742    1.8699   22.0228 H   0  0  0  0  0  0  0  0  0  0  0  0
    6.2103    1.1947   23.6283 C   0  0  0  0  0  0  0  0  0  0  0  0
    5.9713    0.2213   24.6077 C   0  0  0  0  0  0  0  0  0  0  0  0
    6.7140   -0.5542   24.7483 H   0  0  0  0  0  0  0  0  0  0  0  0
    4.8180    0.2360   25.3926 C   0  0  0  0  0  0  0  0  0  0  0  0
    4.6685   -0.5357   26.1418 H   0  0  0  0  0  0  0  0  0  0  0  0
    3.8678    1.2435   25.2109 C   0  0  0  0  0  0  0  0  0  0  0  0
    2.9704    1.2641   25.8202 H   0  0  0  0  0  0  0  0  0  0  0  0
    4.0745    2.2371   24.2545 C   0  0  0  0  0  0  0  0  0  0  0  0
    3.3636    3.0444   24.1000 H   0  0  0  0  0  0  0  0  0  0  0  0
    5.2422    2.2030   23.4819 C   0  0  0  0  0  0  0  0  0  0  0  0
    5.4544    3.4859   22.3238 Cl  0  0  0  0  0  0  0  0  0  0  0  0
    8.3892   -1.2018   22.8138 O   0  0  0  0  0  0  0  0  0  0  0  0
  1  2  1  0
  2  3  2  0
  3  4  1  0
  4  5  1  0
  5  6  2  0
  6  7  1  0
  6  8  1  0
  8  9  2  0
  9 10  1  0
  9 11  1  0
 11 12  1  0
 11 13  2  0
 13 14  1  0
  4 15  2  0
 15 16  1  0
 16 17  1  0
 16 18  1  0
 16 19  1  0
 19 20  2  0
 20 21  1  0
 20 22  1  0
 22 23  1  0
 22 24  2  0
 24 25  1  0
 24 26  1  0
 26 27  1  0
 26 28  2  0
 28 29  1  0
 15 30  1  0
 30  2  1  0
 13  5  1  0
 28 19  1  0
M  END
>  <cnnaffinity>  (1) 
-5.17876

>  <filename>  (1) 
Clc1ccccc1Cc1ocnc1-c1cccnc1

$$$$
