
     RDKit          3D

 30 32  0  0  0  0  0  0  0  0999 V2000
    4.9185    1.7746   17.0041 H   0  0  0  0  0  0  0  0  0  0  0  0
    5.4073    1.2873   17.8481 C   0  0  0  0  0  0  0  0  0  0  0  0
    6.5746    0.6757   17.5910 N   0  0  0  0  0  0  0  0  0  0  0  0
    7.1758    0.0463   18.6046 C   0  0  0  0  0  0  0  0  0  0  0  0
    8.1228   -0.4344   18.3741 H   0  0  0  0  0  0  0  0  0  0  0  0
    6.6627   -0.0101   19.9072 C   0  0  0  0  0  0  0  0  0  0  0  0
    7.4082   -0.7294   20.9643 C   0  0  0  0  0  0  0  0  0  0  0  0
    8.1029   -1.8142   20.5907 N   0  0  0  0  0  0  0  0  0  0  0  0
    8.7418   -2.4938   21.5503 C   0  0  0  0  0  0  0  0  0  0  0  0
    9.2828   -3.3734   21.2333 H   0  0  0  0  0  0  0  0  0  0  0  0
    8.7716   -2.1183   22.8908 C   0  0  0  0  0  0  0  0  0  0  0  0
    9.3164   -2.7098   23.6131 H   0  0  0  0  0  0  0  0  0  0  0  0
    8.0756   -0.9679   23.2831 C   0  0  0  0  0  0  0  0  0  0  0  0
    8.0685   -0.5093   24.6942 C   0  0  0  0  0  0  0  0  0  0  0  0
    9.2396   -0.5596   25.4640 C   0  0  0  0  0  0  0  0  0  0  0  0
   10.1588   -0.9245   25.0162 H   0  0  0  0  0  0  0  0  0  0  0  0
    9.2371   -0.1274   26.7856 C   0  0  0  0  0  0  0  0  0  0  0  0
   10.1446   -0.1716   27.3747 H   0  0  0  0  0  0  0  0  0  0  0  0
    8.0599    0.3614   27.3641 C   0  0  0  0  0  0  0  0  0  0  0  0
    8.0914    0.8845   29.0116 Cl  0  0  0  0  0  0  0  0  0  0  0  0
    6.8803    0.4154   26.6030 C   0  0  0  0  0  0  0  0  0  0  0  0
    5.3997    1.0134   27.2670 Cl  0  0  0  0  0  0  0  0  0  0  0  0
    6.8913   -0.0137   25.2752 C   0  0  0  0  0  0  0  0  0  0  0  0
    5.9728    0.0159   24.6976 H   0  0  0  0  0  0  0  0  0  0  0  0
    7.3865   -0.2753   22.2888 C   0  0  0  0  0  0  0  0  0  0  0  0
    6.8630    0.6461   22.5260 H   0  0  0  0  0  0  0  0  0  0  0  0
    5.4475    0.6492   20.1636 C   0  0  0  0  0  0  0  0  0  0  0  0
    5.0013    0.6309   21.1620 H   0  0  0  0  0  0  0  0  0  0  0  0
    4.8087    1.3042   19.1126 C   0  0  0  0  0  0  0  0  0  0  0  0
    3.8764    1.8416   19.2639 H   0  0  0  0  0  0  0  0  0  0  0  0
  1  2  1  0
  2  3  2  0
  3  4  1  0
  4  5  1  0
  4  6  2  0
  6  7  1  0
  7  8  2  0
  8  9  1  0
  9 10  1  0
  9 11  2  0
 11 12  1  0
 11 13  1  0
 13 14  1  0
 14 15  2  0
 15 16  1  0
 15 17  1  0
 17 18  1  0
 17 19  2  0
 19 20  1  0
 19 21  1  0
 21 22  1  0
 21 23  2  0
 23 24  1  0
 13 25  2  0
 25 26  1  0
  6 27  1  0
 27 28  1  0
 27 29  2  0
 29 30  1  0
 29  2  1  0
 25  7  1  0
 23 14  1  0
M  END
>  <cnnaffinity>  (1) 
-5.00903

>  <filename>  (1) 
Clc1ccc(-c2ccnc(-c3cccnc3)c2)cc1Cl

$$$$
