
     RDKit          3D

 30 32  0  0  0  0  0  0  0  0999 V2000
    4.9212    1.7818   16.9947 H   0  0  0  0  0  0  0  0  0  0  0  0
    5.4052    1.2883   17.8403 C   0  0  0  0  0  0  0  0  0  0  0  0
    6.5692    0.6667   17.5951 N   0  0  0  0  0  0  0  0  0  0  0  0
    7.1813    0.0532   18.6169 C   0  0  0  0  0  0  0  0  0  0  0  0
    8.1238   -0.4387   18.3926 H   0  0  0  0  0  0  0  0  0  0  0  0
    6.6640    0.0233   19.9250 C   0  0  0  0  0  0  0  0  0  0  0  0
    7.3760   -0.7069   20.8933 O   0  0  0  0  0  0  0  0  0  0  0  0
    7.3385   -0.3588   22.1930 C   0  0  0  0  0  0  0  0  0  0  0  0
    6.9596    0.7619   22.7574 N   0  0  0  0  0  0  0  0  0  0  0  0
    7.1752    0.5773   24.0833 N   0  0  0  0  0  0  0  0  0  0  0  0
    7.6531   -0.5803   24.3273 N   0  0  0  0  0  0  0  0  0  0  0  0
    7.7940   -1.2045   23.1353 N   0  0  0  0  0  0  0  0  0  0  0  0
    8.2218   -2.5916   23.0254 C   0  0  0  0  0  0  0  0  0  0  0  0
    8.6988   -2.8613   23.9723 H   0  0  0  0  0  0  0  0  0  0  0  0
    8.9810   -2.6542   22.2427 H   0  0  0  0  0  0  0  0  0  0  0  0
    7.0594   -3.5069   22.7100 C   0  0  0  0  0  0  0  0  0  0  0  0
    6.8049   -3.8724   21.3826 C   0  0  0  0  0  0  0  0  0  0  0  0
    7.4728   -3.4992   20.6180 H   0  0  0  0  0  0  0  0  0  0  0  0
    5.7141   -4.6684   21.0351 C   0  0  0  0  0  0  0  0  0  0  0  0
    5.5498   -4.9387   19.9956 H   0  0  0  0  0  0  0  0  0  0  0  0
    4.8464   -5.1154   22.0352 C   0  0  0  0  0  0  0  0  0  0  0  0
    3.9959   -5.7415   21.7853 H   0  0  0  0  0  0  0  0  0  0  0  0
    5.0670   -4.7612   23.3673 C   0  0  0  0  0  0  0  0  0  0  0  0
    4.4038   -5.0967   24.1592 H   0  0  0  0  0  0  0  0  0  0  0  0
    6.1660   -3.9589   23.6933 C   0  0  0  0  0  0  0  0  0  0  0  0
    6.3930   -3.5280   25.3622 Cl  0  0  0  0  0  0  0  0  0  0  0  0
    5.4397    0.6461   20.1785 C   0  0  0  0  0  0  0  0  0  0  0  0
    5.0164    0.6377   21.1858 H   0  0  0  0  0  0  0  0  0  0  0  0
    4.8116    1.2967   19.1068 C   0  0  0  0  0  0  0  0  0  0  0  0
    3.8828    1.8357   19.2582 H   0  0  0  0  0  0  0  0  0  0  0  0
  1  2  1  0
  2  3  2  0
  3  4  1  0
  4  5  1  0
  4  6  2  0
  6  7  1  0
  7  8  1  0
  8  9  2  0
  9 10  1  0
 10 11  2  0
 11 12  1  0
 12 13  1  0
 13 14  1  0
 13 15  1  0
 13 16  1  0
 16 17  2  0
 17 18  1  0
 17 19  1  0
 19 20  1  0
 19 21  2  0
 21 22  1  0
 21 23  1  0
 23 24  1  0
 23 25  2  0
 25 26  1  0
  6 27  1  0
 27 28  1  0
 27 29  2  0
 29 30  1  0
 29  2  1  0
 12  8  1  0
 25 16  1  0
M  END
>  <cnnaffinity>  (1) 
-5.08125

>  <filename>  (1) 
Clc1ccccc1Cn1nnnc1Oc1cccnc1

$$$$
