
     RDKit          3D

 30 33  0  0  0  0  0  0  0  0999 V2000
    4.9093    1.7701   17.0074 H   0  0  0  0  0  0  0  0  0  0  0  0
    5.4052    1.2878   17.8488 C   0  0  0  0  0  0  0  0  0  0  0  0
    6.5744    0.6748   17.5950 N   0  0  0  0  0  0  0  0  0  0  0  0
    7.1849    0.0549   18.6126 C   0  0  0  0  0  0  0  0  0  0  0  0
    8.1322   -0.4371   18.3825 H   0  0  0  0  0  0  0  0  0  0  0  0
    6.6538    0.0117   19.9088 C   0  0  0  0  0  0  0  0  0  0  0  0
    7.3625   -0.6912   20.9681 C   0  0  0  0  0  0  0  0  0  0  0  0
    8.5477   -1.3276   20.7628 N   0  0  0  0  0  0  0  0  0  0  0  0
    8.7911   -1.8070   21.9616 C   0  0  0  0  0  0  0  0  0  0  0  0
    9.9841   -2.8212   22.7162 S   0  0  0  0  0  0  0  0  0  0  0  0
    9.0803   -2.7638   24.2059 C   0  0  0  0  0  0  0  0  0  0  0  0
    9.4531   -3.2873   25.0730 H   0  0  0  0  0  0  0  0  0  0  0  0
    7.9580   -2.0144   24.1266 C   0  0  0  0  0  0  0  0  0  0  0  0
    6.9661   -1.7650   25.1960 C   0  0  0  0  0  0  0  0  0  0  0  0
    6.7605   -2.7524   26.1764 C   0  0  0  0  0  0  0  0  0  0  0  0
    7.3049   -3.6932   26.1301 H   0  0  0  0  0  0  0  0  0  0  0  0
    5.8457   -2.5491   27.2050 C   0  0  0  0  0  0  0  0  0  0  0  0
    5.6941   -3.3199   27.9530 H   0  0  0  0  0  0  0  0  0  0  0  0
    5.1179   -1.3550   27.2823 C   0  0  0  0  0  0  0  0  0  0  0  0
    3.9911   -1.1448   28.5771 Cl  0  0  0  0  0  0  0  0  0  0  0  0
    5.3214   -0.3581   26.3118 C   0  0  0  0  0  0  0  0  0  0  0  0
    4.4531    1.1395   26.3637 Cl  0  0  0  0  0  0  0  0  0  0  0  0
    6.2409   -0.5610   25.2813 C   0  0  0  0  0  0  0  0  0  0  0  0
    6.3990    0.2196   24.5431 H   0  0  0  0  0  0  0  0  0  0  0  0
    7.8256   -1.4739   22.8410 N   0  0  0  0  0  0  0  0  0  0  0  0
    6.8704   -0.7497   22.2035 N   0  0  0  0  0  0  0  0  0  0  0  0
    5.4370    0.6545   20.1631 C   0  0  0  0  0  0  0  0  0  0  0  0
    5.0072    0.6288   21.1633 H   0  0  0  0  0  0  0  0  0  0  0  0
    4.8058    1.3104   19.1138 C   0  0  0  0  0  0  0  0  0  0  0  0
    3.8718    1.8452   19.2676 H   0  0  0  0  0  0  0  0  0  0  0  0
  1  2  1  0
  2  3  2  0
  3  4  1  0
  4  5  1  0
  4  6  2  0
  6  7  1  0
  7  8  1  0
  8  9  2  0
  9 10  1  0
 10 11  1  0
 11 12  1  0
 11 13  2  0
 13 14  1  0
 14 15  2  0
 15 16  1  0
 15 17  1  0
 17 18  1  0
 17 19  2  0
 19 20  1  0
 19 21  1  0
 21 22  1  0
 21 23  2  0
 23 24  1  0
 13 25  1  0
 25 26  1  0
  6 27  1  0
 27 28  1  0
 27 29  2  0
 29 30  1  0
 29  2  1  0
 26  7  2  0
 25  9  1  0
 23 14  1  0
M  END
>  <cnnaffinity>  (1) 
-5.94312

>  <filename>  (1) 
Clc1ccc(-c2csc3nc(-c4cccnc4)nn23)cc1Cl

$$$$
