
     RDKit          3D

 21 23  0  0  0  0  0  0  0  0999 V2000
    4.9822    1.8391   16.9788 H   0  0  0  0  0  0  0  0  0  0  0  0
    5.4642    1.3225   17.8076 C   0  0  0  0  0  0  0  0  0  0  0  0
    6.6435    0.7397   17.5363 N   0  0  0  0  0  0  0  0  0  0  0  0
    7.2555    0.0930   18.5325 C   0  0  0  0  0  0  0  0  0  0  0  0
    8.2222   -0.3429   18.2834 H   0  0  0  0  0  0  0  0  0  0  0  0
    6.7104   -0.0480   19.8175 C   0  0  0  0  0  0  0  0  0  0  0  0
    7.4347   -0.8224   20.8282 C   0  0  0  0  0  0  0  0  0  0  0  0
    8.7878   -0.6398   21.0361 N   0  0  0  0  0  0  0  0  0  0  0  0
    9.0581   -1.4046   22.0604 C   0  0  0  0  0  0  0  0  0  0  0  0
   10.4472   -1.7397   23.0583 S   0  0  0  0  0  0  0  0  0  0  0  0
    9.4940   -2.8479   24.0312 C   0  0  0  0  0  0  0  0  0  0  0  0
    9.9778   -3.3648   24.8513 H   0  0  0  0  0  0  0  0  0  0  0  0
    8.2132   -2.9328   23.6300 C   0  0  0  0  0  0  0  0  0  0  0  0
    7.4013   -3.5012   24.0774 H   0  0  0  0  0  0  0  0  0  0  0  0
    7.9789   -2.1338   22.5106 N   0  0  0  0  0  0  0  0  0  0  0  0
    6.9342   -1.7776   21.6861 C   0  0  0  0  0  0  0  0  0  0  0  0
    5.4470   -2.6104   21.6889 Cl  0  0  0  0  0  0  0  0  0  0  0  0
    5.4734    0.5635   20.0882 C   0  0  0  0  0  0  0  0  0  0  0  0
    5.0338    0.5042   21.0857 H   0  0  0  0  0  0  0  0  0  0  0  0
    4.8448    1.2657   19.0614 C   0  0  0  0  0  0  0  0  0  0  0  0
    3.8967    1.7720   19.2203 H   0  0  0  0  0  0  0  0  0  0  0  0
  1  2  1  0
  2  3  2  0
  3  4  1  0
  4  5  1  0
  4  6  2  0
  6  7  1  0
  7  8  1  0
  8  9  2  0
  9 10  1  0
 10 11  1  0
 11 12  1  0
 11 13  2  0
 13 14  1  0
 13 15  1  0
 15 16  1  0
 16 17  1  0
  6 18  1  0
 18 19  1  0
 18 20  2  0
 20 21  1  0
 20  2  1  0
 16  7  2  0
 15  9  1  0
M  END
>  <cnnaffinity>  (1) 
-4.91968

>  <filename>  (1) 
Clc1c(-c2cccnc2)nc2sccn12

$$$$
