
     RDKit          3D

 30 33  0  0  0  0  0  0  0  0999 V2000
    4.9098    1.7703   17.0071 H   0  0  0  0  0  0  0  0  0  0  0  0
    5.4058    1.2877   17.8485 C   0  0  0  0  0  0  0  0  0  0  0  0
    6.5749    0.6742   17.5947 N   0  0  0  0  0  0  0  0  0  0  0  0
    7.1847    0.0549   18.6130 C   0  0  0  0  0  0  0  0  0  0  0  0
    8.1319   -0.4367   18.3824 H   0  0  0  0  0  0  0  0  0  0  0  0
    6.6533    0.0119   19.9091 C   0  0  0  0  0  0  0  0  0  0  0  0
    7.3619   -0.6909   20.9681 C   0  0  0  0  0  0  0  0  0  0  0  0
    8.5474   -1.3269   20.7622 N   0  0  0  0  0  0  0  0  0  0  0  0
    8.7916   -1.8074   21.9609 C   0  0  0  0  0  0  0  0  0  0  0  0
    9.9855   -2.8215   22.7183 S   0  0  0  0  0  0  0  0  0  0  0  0
    9.0788   -2.7636   24.2078 C   0  0  0  0  0  0  0  0  0  0  0  0
    9.4550   -3.2864   25.0728 H   0  0  0  0  0  0  0  0  0  0  0  0
    7.9558   -2.0143   24.1280 C   0  0  0  0  0  0  0  0  0  0  0  0
    6.9632   -1.7651   25.1997 C   0  0  0  0  0  0  0  0  0  0  0  0
    6.2436   -0.5557   25.2750 C   0  0  0  0  0  0  0  0  0  0  0  0
    6.3994    0.2244   24.5377 H   0  0  0  0  0  0  0  0  0  0  0  0
    5.3327   -0.3727   26.3107 C   0  0  0  0  0  0  0  0  0  0  0  0
    4.4400    1.1163   26.4009 Cl  0  0  0  0  0  0  0  0  0  0  0  0
    5.1206   -1.3551   27.2825 C   0  0  0  0  0  0  0  0  0  0  0  0
    4.4097   -1.1957   28.0826 H   0  0  0  0  0  0  0  0  0  0  0  0
    5.8475   -2.5447   27.2004 C   0  0  0  0  0  0  0  0  0  0  0  0
    5.5869   -3.7832   28.3931 Cl  0  0  0  0  0  0  0  0  0  0  0  0
    6.7658   -2.7597   26.1769 C   0  0  0  0  0  0  0  0  0  0  0  0
    7.3060   -3.7001   26.1318 H   0  0  0  0  0  0  0  0  0  0  0  0
    7.8256   -1.4743   22.8413 N   0  0  0  0  0  0  0  0  0  0  0  0
    6.8704   -0.7495   22.2040 N   0  0  0  0  0  0  0  0  0  0  0  0
    5.4368    0.6545   20.1637 C   0  0  0  0  0  0  0  0  0  0  0  0
    5.0068    0.6290   21.1640 H   0  0  0  0  0  0  0  0  0  0  0  0
    4.8059    1.3101   19.1138 C   0  0  0  0  0  0  0  0  0  0  0  0
    3.8715    1.8453   19.2674 H   0  0  0  0  0  0  0  0  0  0  0  0
  1  2  1  0
  2  3  2  0
  3  4  1  0
  4  5  1  0
  4  6  2  0
  6  7  1  0
  7  8  1  0
  8  9  2  0
  9 10  1  0
 10 11  1  0
 11 12  1  0
 11 13  2  0
 13 14  1  0
 14 15  2  0
 15 16  1  0
 15 17  1  0
 17 18  1  0
 17 19  2  0
 19 20  1  0
 19 21  1  0
 21 22  1  0
 21 23  2  0
 23 24  1  0
 13 25  1  0
 25 26  1  0
  6 27  1  0
 27 28  1  0
 27 29  2  0
 29 30  1  0
 29  2  1  0
 26  7  2  0
 25  9  1  0
 23 14  1  0
M  END
>  <cnnaffinity>  (1) 
-5.91118

>  <filename>  (1) 
Clc1cc(Cl)cc(-c2csc3nc(-c4cccnc4)nn23)c1

$$$$
