
     RDKit          3D

 32 34  0  0  0  0  0  0  0  0999 V2000
    9.4221    0.9002   20.2102 H   0  0  0  0  0  0  0  0  0  0  0  0
    9.6918    0.0653   20.8532 C   0  0  0  0  0  0  0  0  0  0  0  0
    8.7446   -0.7910   21.2716 C   0  0  0  0  0  0  0  0  0  0  0  0
    7.2864   -0.8003   20.9909 C   0  0  0  0  0  0  0  0  0  0  0  0
    6.6157   -0.0219   19.9194 C   0  0  0  0  0  0  0  0  0  0  0  0
    7.1811    0.0293   18.6419 C   0  0  0  0  0  0  0  0  0  0  0  0
    8.1322   -0.4668   18.4486 H   0  0  0  0  0  0  0  0  0  0  0  0
    6.6271    0.6643   17.6001 N   0  0  0  0  0  0  0  0  0  0  0  0
    5.4662    1.2995   17.8147 C   0  0  0  0  0  0  0  0  0  0  0  0
    5.0275    1.8125   16.9583 H   0  0  0  0  0  0  0  0  0  0  0  0
    4.8194    1.3218   19.0550 C   0  0  0  0  0  0  0  0  0  0  0  0
    3.8912    1.8730   19.1631 H   0  0  0  0  0  0  0  0  0  0  0  0
    5.3945    0.6399   20.1279 C   0  0  0  0  0  0  0  0  0  0  0  0
    4.9166    0.6296   21.1082 H   0  0  0  0  0  0  0  0  0  0  0  0
    6.6234   -1.5657   21.7755 N   0  0  0  0  0  0  0  0  0  0  0  0
    7.5252   -2.1678   22.7637 C   0  0  0  0  0  0  0  0  0  0  0  0
    7.2973   -1.7399   23.7458 H   0  0  0  0  0  0  0  0  0  0  0  0
    7.3532   -3.2441   22.8255 H   0  0  0  0  0  0  0  0  0  0  0  0
    8.9676   -1.8312   22.3425 C   0  0  0  0  0  0  0  0  0  0  0  0
    9.4780   -2.7118   21.9379 H   0  0  0  0  0  0  0  0  0  0  0  0
    9.5751   -1.4237   23.1553 H   0  0  0  0  0  0  0  0  0  0  0  0
   11.1078    0.0832   21.3088 C   0  0  0  0  0  0  0  0  0  0  0  0
   11.9230   -1.0637   21.3363 C   0  0  0  0  0  0  0  0  0  0  0  0
   11.5145   -2.0139   21.0153 H   0  0  0  0  0  0  0  0  0  0  0  0
   13.2329   -1.0130   21.8238 C   0  0  0  0  0  0  0  0  0  0  0  0
   13.8667   -1.8988   21.7852 H   0  0  0  0  0  0  0  0  0  0  0  0
   13.7340    0.1705   22.3686 C   0  0  0  0  0  0  0  0  0  0  0  0
   14.7202    0.2041   22.8225 H   0  0  0  0  0  0  0  0  0  0  0  0
   12.9306    1.3181   22.3394 C   0  0  0  0  0  0  0  0  0  0  0  0
   13.5240    2.7747   23.0873 Cl  0  0  0  0  0  0  0  0  0  0  0  0
   11.6531    1.2969   21.7705 C   0  0  0  0  0  0  0  0  0  0  0  0
   11.0495    2.1986   21.7412 H   0  0  0  0  0  0  0  0  0  0  0  0
  1  2  1  0
  2  3  2  3
  3  4  1  0
  4  5  1  0
  5  6  2  0
  6  7  1  0
  6  8  1  0
  8  9  2  0
  9 10  1  0
  9 11  1  0
 11 12  1  0
 11 13  2  0
 13 14  1  0
  4 15  2  0
 15 16  1  0
 16 17  1  0
 16 18  1  0
 16 19  1  0
 19 20  1  0
 19 21  1  0
  2 22  1  0
 22 23  2  0
 23 24  1  0
 23 25  1  0
 25 26  1  0
 25 27  2  0
 27 28  1  0
 27 29  1  0
 29 30  1  0
 29 31  2  0
 31 32  1  0
 19  3  1  0
 31 22  1  0
 13  5  1  0
M  END
>  <cnnaffinity>  (1) 
-6.0192

>  <filename>  (1) 
Clc1cccc(C=C2CCN=C2c2cccnc2)c1

$$$$
