
     RDKit          3D

 34 36  0  0  0  0  0  0  0  0999 V2000
    4.9043    1.8244   16.9665 H   0  0  0  0  0  0  0  0  0  0  0  0
    5.3803    1.3251   17.8074 C   0  0  0  0  0  0  0  0  0  0  0  0
    6.5458    0.7130   17.5453 N   0  0  0  0  0  0  0  0  0  0  0  0
    7.1557    0.1059   18.5731 C   0  0  0  0  0  0  0  0  0  0  0  0
    8.1022   -0.3757   18.3319 H   0  0  0  0  0  0  0  0  0  0  0  0
    6.6614    0.0653   19.9013 C   0  0  0  0  0  0  0  0  0  0  0  0
    7.3786   -0.6820   20.9657 C   0  0  0  0  0  0  0  0  0  0  0  0
    7.7335   -2.0086   21.0537 C   0  0  0  0  0  0  0  0  0  0  0  0
    7.4671   -2.8049   20.3731 H   0  0  0  0  0  0  0  0  0  0  0  0
    8.4393   -2.2681   22.1931 N   0  0  0  0  0  0  0  0  0  0  0  0
    8.5065   -1.1187   22.8210 C   0  0  0  0  0  0  0  0  0  0  0  0
    8.9593   -0.9550   23.7919 H   0  0  0  0  0  0  0  0  0  0  0  0
    7.8695   -0.1129   22.1400 N   0  0  0  0  0  0  0  0  0  0  0  0
    7.5542    1.1940   22.7132 C   0  0  0  0  0  0  0  0  0  0  0  0
    7.3004    1.8596   21.8862 H   0  0  0  0  0  0  0  0  0  0  0  0
    8.4552    1.6186   23.1668 H   0  0  0  0  0  0  0  0  0  0  0  0
    6.4126    1.1858   23.7546 C   0  0  0  0  0  0  0  0  0  0  0  0
    5.5210    0.7381   23.3032 H   0  0  0  0  0  0  0  0  0  0  0  0
    6.1555    2.2269   23.9762 H   0  0  0  0  0  0  0  0  0  0  0  0
    6.7692    0.4597   25.0349 C   0  0  0  0  0  0  0  0  0  0  0  0
    6.3503   -0.8642   25.2519 C   0  0  0  0  0  0  0  0  0  0  0  0
    5.7147   -1.3326   24.5078 H   0  0  0  0  0  0  0  0  0  0  0  0
    6.8075   -1.6218   26.3321 C   0  0  0  0  0  0  0  0  0  0  0  0
    6.4630   -2.6429   26.4650 H   0  0  0  0  0  0  0  0  0  0  0  0
    7.7078   -1.0463   27.2316 C   0  0  0  0  0  0  0  0  0  0  0  0
    8.1701   -1.6430   28.0032 H   0  0  0  0  0  0  0  0  0  0  0  0
    8.0762    0.2919   27.1003 C   0  0  0  0  0  0  0  0  0  0  0  0
    8.7102    0.7743   27.8329 H   0  0  0  0  0  0  0  0  0  0  0  0
    7.6219    1.0233   26.0021 C   0  0  0  0  0  0  0  0  0  0  0  0
    8.2165    2.6531   25.8254 Cl  0  0  0  0  0  0  0  0  0  0  0  0
    5.4256    0.7024   20.1293 C   0  0  0  0  0  0  0  0  0  0  0  0
    4.9783    0.6819   21.1251 H   0  0  0  0  0  0  0  0  0  0  0  0
    4.7787    1.3396   19.0671 C   0  0  0  0  0  0  0  0  0  0  0  0
    3.8308    1.8481   19.2083 H   0  0  0  0  0  0  0  0  0  0  0  0
  1  2  1  0
  2  3  2  0
  3  4  1  0
  4  5  1  0
  4  6  2  0
  6  7  1  0
  7  8  2  0
  8  9  1  0
  8 10  1  0
 10 11  2  0
 11 12  1  0
 11 13  1  0
 13 14  1  0
 14 15  1  0
 14 16  1  0
 14 17  1  0
 17 18  1  0
 17 19  1  0
 17 20  1  0
 20 21  2  0
 21 22  1  0
 21 23  1  0
 23 24  1  0
 23 25  2  0
 25 26  1  0
 25 27  1  0
 27 28  1  0
 27 29  2  0
 29 30  1  0
  6 31  1  0
 31 32  1  0
 31 33  2  0
 33 34  1  0
 33  2  1  0
 13  7  1  0
 29 20  1  0
M  END
>  <cnnaffinity>  (1) 
-5.1977

>  <filename>  (1) 
Clc1ccccc1CCn1cncc1-c1cccnc1

$$$$
