
     RDKit          3D

 33 35  0  0  0  0  0  0  0  0999 V2000
    4.9108    1.8161   16.9652 H   0  0  0  0  0  0  0  0  0  0  0  0
    5.3781    1.3103   17.8096 C   0  0  0  0  0  0  0  0  0  0  0  0
    6.5409    0.6912   17.5460 N   0  0  0  0  0  0  0  0  0  0  0  0
    7.1527    0.0674   18.5605 C   0  0  0  0  0  0  0  0  0  0  0  0
    8.1109   -0.3922   18.3157 H   0  0  0  0  0  0  0  0  0  0  0  0
    6.6499    0.0143   19.8762 C   0  0  0  0  0  0  0  0  0  0  0  0
    7.3711   -0.6582   20.9717 C   0  0  0  0  0  0  0  0  0  0  0  0
    7.6258   -0.2678   22.2823 C   0  0  0  0  0  0  0  0  0  0  0  0
    7.1890    0.9204   22.8678 N   0  0  0  0  0  0  0  0  0  0  0  0
    6.9693    1.6330   22.1816 H   0  0  0  0  0  0  0  0  0  0  0  0
    7.7291    1.3793   24.1341 C   0  0  0  0  0  0  0  0  0  0  0  0
    7.5134    0.6102   24.8872 H   0  0  0  0  0  0  0  0  0  0  0  0
    7.1606    2.2734   24.4064 H   0  0  0  0  0  0  0  0  0  0  0  0
    9.2311    1.6669   24.1854 C   0  0  0  0  0  0  0  0  0  0  0  0
   10.0992    0.8699   24.9603 C   0  0  0  0  0  0  0  0  0  0  0  0
    9.6856    0.0559   25.5558 H   0  0  0  0  0  0  0  0  0  0  0  0
   11.4793    1.0910   24.9806 C   0  0  0  0  0  0  0  0  0  0  0  0
   12.1175    0.4377   25.5690 H   0  0  0  0  0  0  0  0  0  0  0  0
   12.0278    2.1361   24.2311 C   0  0  0  0  0  0  0  0  0  0  0  0
   13.1026    2.2968   24.2109 H   0  0  0  0  0  0  0  0  0  0  0  0
   11.1899    2.9662   23.4829 C   0  0  0  0  0  0  0  0  0  0  0  0
   11.5755    3.7952   22.8970 H   0  0  0  0  0  0  0  0  0  0  0  0
    9.8127    2.7244   23.4675 C   0  0  0  0  0  0  0  0  0  0  0  0
    8.8060    3.7950   22.5223 Cl  0  0  0  0  0  0  0  0  0  0  0  0
    8.3315   -1.3672   22.8513 C   0  0  0  0  0  0  0  0  0  0  0  0
    8.7235   -1.4701   23.8599 H   0  0  0  0  0  0  0  0  0  0  0  0
    8.4977   -2.3517   21.9691 N   0  0  0  0  0  0  0  0  0  0  0  0
    7.9188   -1.8967   20.8462 N   0  0  0  0  0  0  0  0  0  0  0  0
    7.8671   -2.4919   20.0271 H   0  0  0  0  0  0  0  0  0  0  0  0
    5.4281    0.6593   20.1240 C   0  0  0  0  0  0  0  0  0  0  0  0
    5.0169    0.6290   21.1340 H   0  0  0  0  0  0  0  0  0  0  0  0
    4.7839    1.3192   19.0755 C   0  0  0  0  0  0  0  0  0  0  0  0
    3.8563    1.8533   19.2298 H   0  0  0  0  0  0  0  0  0  0  0  0
  1  2  1  0
  2  3  2  0
  3  4  1  0
  4  5  1  0
  4  6  2  0
  6  7  1  0
  7  8  2  0
  8  9  1  0
  9 10  1  0
  9 11  1  0
 11 12  1  0
 11 13  1  0
 11 14  1  0
 14 15  2  0
 15 16  1  0
 15 17  1  0
 17 18  1  0
 17 19  2  0
 19 20  1  0
 19 21  1  0
 21 22  1  0
 21 23  2  0
 23 24  1  0
  8 25  1  0
 25 26  1  0
 25 27  2  0
 27 28  1  0
 28 29  1  0
  6 30  1  0
 30 31  1  0
 30 32  2  0
 32 33  1  0
 32  2  1  0
 28  7  1  0
 23 14  1  0
M  END
>  <cnnaffinity>  (1) 
-5.70483

>  <filename>  (1) 
Clc1ccccc1CNc1cn[nH]c1-c1cccnc1

$$$$
