
     RDKit          3D

 30 32  0  0  0  0  0  0  0  0999 V2000
    4.9092    1.7814   16.9969 H   0  0  0  0  0  0  0  0  0  0  0  0
    5.3973    1.2969   17.8385 C   0  0  0  0  0  0  0  0  0  0  0  0
    6.5628    0.6827   17.5745 N   0  0  0  0  0  0  0  0  0  0  0  0
    7.1740    0.0621   18.5910 C   0  0  0  0  0  0  0  0  0  0  0  0
    8.1216   -0.4311   18.3772 H   0  0  0  0  0  0  0  0  0  0  0  0
    6.6656   -0.0089   19.9136 C   0  0  0  0  0  0  0  0  0  0  0  0
    7.3249   -0.7141   20.9278 N   0  0  0  0  0  0  0  0  0  0  0  0
    6.7646   -1.0694   21.6975 H   0  0  0  0  0  0  0  0  0  0  0  0
    8.7119   -0.7765   21.1018 C   0  0  0  0  0  0  0  0  0  0  0  0
    9.6996    0.1341   20.6661 C   0  0  0  0  0  0  0  0  0  0  0  0
    9.5258    1.0160   20.0734 H   0  0  0  0  0  0  0  0  0  0  0  0
   10.9110   -0.1910   21.1018 N   0  0  0  0  0  0  0  0  0  0  0  0
   10.7069   -1.3090   21.8104 N   0  0  0  0  0  0  0  0  0  0  0  0
   11.4984   -1.7652   22.2376 H   0  0  0  0  0  0  0  0  0  0  0  0
    9.4106   -1.7201   21.8347 C   0  0  0  0  0  0  0  0  0  0  0  0
    8.9307   -2.9132   22.5333 C   0  0  0  0  0  0  0  0  0  0  0  0
    7.8723   -3.6518   21.9773 C   0  0  0  0  0  0  0  0  0  0  0  0
    7.4439   -3.3599   21.0234 H   0  0  0  0  0  0  0  0  0  0  0  0
    7.4046   -4.7751   22.6508 C   0  0  0  0  0  0  0  0  0  0  0  0
    6.1046   -5.6965   21.9656 Cl  0  0  0  0  0  0  0  0  0  0  0  0
    7.9591   -5.1792   23.8678 C   0  0  0  0  0  0  0  0  0  0  0  0
    7.5866   -6.0513   24.3867 H   0  0  0  0  0  0  0  0  0  0  0  0
    9.0109   -4.4291   24.4021 C   0  0  0  0  0  0  0  0  0  0  0  0
    9.7218   -4.9181   25.9084 Cl  0  0  0  0  0  0  0  0  0  0  0  0
    9.5061   -3.3060   23.7530 C   0  0  0  0  0  0  0  0  0  0  0  0
   10.3138   -2.7305   24.1983 H   0  0  0  0  0  0  0  0  0  0  0  0
    5.4448    0.6369   20.1620 C   0  0  0  0  0  0  0  0  0  0  0  0
    5.0175    0.6227   21.1673 H   0  0  0  0  0  0  0  0  0  0  0  0
    4.8111    1.3074   19.1116 C   0  0  0  0  0  0  0  0  0  0  0  0
    3.8772    1.8412   19.2653 H   0  0  0  0  0  0  0  0  0  0  0  0
  1  2  1  0
  2  3  2  0
  3  4  1  0
  4  5  1  0
  4  6  2  0
  6  7  1  0
  7  8  1  0
  7  9  1  0
  9 10  1  0
 10 11  1  0
 10 12  2  0
 12 13  1  0
 13 14  1  0
 13 15  1  0
 15 16  1  0
 16 17  2  0
 17 18  1  0
 17 19  1  0
 19 20  1  0
 19 21  2  0
 21 22  1  0
 21 23  1  0
 23 24  1  0
 23 25  2  0
 25 26  1  0
  6 27  1  0
 27 28  1  0
 27 29  2  0
 29 30  1  0
 29  2  1  0
 15  9  2  0
 25 16  1  0
M  END
>  <cnnaffinity>  (1) 
-6.06161

>  <filename>  (1) 
Clc1cc(Cl)cc(-c2[nH]ncc2Nc2cccnc2)c1

$$$$
