
     RDKit          3D

 30 32  0  0  0  0  0  0  0  0999 V2000
    4.9588    1.8430   16.9184 H   0  0  0  0  0  0  0  0  0  0  0  0
    5.4044    1.3263   17.7669 C   0  0  0  0  0  0  0  0  0  0  0  0
    6.5592    0.6839   17.5308 N   0  0  0  0  0  0  0  0  0  0  0  0
    7.1314    0.0572   18.5675 C   0  0  0  0  0  0  0  0  0  0  0  0
    8.0707   -0.4536   18.3514 H   0  0  0  0  0  0  0  0  0  0  0  0
    6.5968    0.0121   19.8681 C   0  0  0  0  0  0  0  0  0  0  0  0
    7.3271   -0.6976   20.9526 C   0  0  0  0  0  0  0  0  0  0  0  0
    6.6897   -1.5535   21.8575 C   0  0  0  0  0  0  0  0  0  0  0  0
    5.6336   -1.7739   21.7906 H   0  0  0  0  0  0  0  0  0  0  0  0
    7.4497   -2.1755   22.8482 C   0  0  0  0  0  0  0  0  0  0  0  0
    6.9767   -2.8451   23.5622 H   0  0  0  0  0  0  0  0  0  0  0  0
    8.7728   -2.0219   22.9788 N   0  0  0  0  0  0  0  0  0  0  0  0
    9.3858   -1.1831   22.1270 C   0  0  0  0  0  0  0  0  0  0  0  0
   10.8656   -1.0292   22.2645 C   0  0  0  0  0  0  0  0  0  0  0  0
   11.7004   -2.1526   22.1491 C   0  0  0  0  0  0  0  0  0  0  0  0
   11.2396   -3.1324   22.1229 H   0  0  0  0  0  0  0  0  0  0  0  0
   13.0837   -2.0230   22.0914 C   0  0  0  0  0  0  0  0  0  0  0  0
   13.6957   -2.9045   21.9336 H   0  0  0  0  0  0  0  0  0  0  0  0
   13.6867   -0.7791   22.2712 C   0  0  0  0  0  0  0  0  0  0  0  0
   14.7672   -0.6820   22.2436 H   0  0  0  0  0  0  0  0  0  0  0  0
   12.8909    0.3401   22.4971 C   0  0  0  0  0  0  0  0  0  0  0  0
   13.3463    1.3019   22.7165 H   0  0  0  0  0  0  0  0  0  0  0  0
   11.4972    0.2159   22.4610 C   0  0  0  0  0  0  0  0  0  0  0  0
   10.5650    1.6687   22.6477 Cl  0  0  0  0  0  0  0  0  0  0  0  0
    8.7008   -0.5193   21.1022 C   0  0  0  0  0  0  0  0  0  0  0  0
    9.2503    0.1510   20.4529 H   0  0  0  0  0  0  0  0  0  0  0  0
    5.3824    0.6829   20.0858 C   0  0  0  0  0  0  0  0  0  0  0  0
    4.9353    0.7118   21.0809 H   0  0  0  0  0  0  0  0  0  0  0  0
    4.7806    1.3493   19.0174 C   0  0  0  0  0  0  0  0  0  0  0  0
    3.8507    1.8928   19.1402 H   0  0  0  0  0  0  0  0  0  0  0  0
  1  2  1  0
  2  3  2  0
  3  4  1  0
  4  5  1  0
  4  6  2  0
  6  7  1  0
  7  8  2  0
  8  9  1  0
  8 10  1  0
 10 11  1  0
 10 12  2  0
 12 13  1  0
 13 14  1  0
 14 15  2  0
 15 16  1  0
 15 17  1  0
 17 18  1  0
 17 19  2  0
 19 20  1  0
 19 21  1  0
 21 22  1  0
 21 23  2  0
 23 24  1  0
 13 25  2  0
 25 26  1  0
  6 27  1  0
 27 28  1  0
 27 29  2  0
 29 30  1  0
 29  2  1  0
 25  7  1  0
 23 14  1  0
M  END
>  <cnnaffinity>  (1) 
-5.60935

>  <filename>  (1) 
Clc1ccccc1-c1cc(-c2cccnc2)ccn1

$$$$
