
     RDKit          3D

 32 35  0  0  0  0  0  0  0  0999 V2000
    5.0397    1.8940   17.1077 H   0  0  0  0  0  0  0  0  0  0  0  0
    5.5126    1.2720   17.8641 C   0  0  0  0  0  0  0  0  0  0  0  0
    6.6310    0.6320   17.4899 N   0  0  0  0  0  0  0  0  0  0  0  0
    7.2510   -0.1128   18.4147 C   0  0  0  0  0  0  0  0  0  0  0  0
    8.1401   -0.6336   18.0657 H   0  0  0  0  0  0  0  0  0  0  0  0
    6.7983   -0.2641   19.7403 C   0  0  0  0  0  0  0  0  0  0  0  0
    7.6270   -0.9311   20.7649 C   0  0  0  0  0  0  0  0  0  0  0  0
    8.9340   -0.7037   21.0142 C   0  0  0  0  0  0  0  0  0  0  0  0
    9.5681    0.0111   20.5060 H   0  0  0  0  0  0  0  0  0  0  0  0
    9.5380   -1.6223   22.3715 S   0  0  0  0  0  0  0  0  0  0  0  0
    7.9501   -2.2951   22.6234 C   0  0  0  0  0  0  0  0  0  0  0  0
    7.3458   -3.0910   23.4907 N   0  0  0  0  0  0  0  0  0  0  0  0
    6.0686   -3.0105   23.0497 C   0  0  0  0  0  0  0  0  0  0  0  0
    4.9758   -3.5729   23.6308 N   0  0  0  0  0  0  0  0  0  0  0  0
    4.2541   -2.8952   23.4700 H   0  0  0  0  0  0  0  0  0  0  0  0
    4.9367   -4.2979   24.8325 C   0  0  0  0  0  0  0  0  0  0  0  0
    3.9306   -4.0187   25.7674 C   0  0  0  0  0  0  0  0  0  0  0  0
    3.2643   -3.1825   25.5814 H   0  0  0  0  0  0  0  0  0  0  0  0
    3.7821   -4.8021   26.9180 C   0  0  0  0  0  0  0  0  0  0  0  0
    2.9996   -4.5911   27.6469 H   0  0  0  0  0  0  0  0  0  0  0  0
    4.6417   -5.8888   27.1167 C   0  0  0  0  0  0  0  0  0  0  0  0
    4.4217   -6.9114   28.5138 Cl  0  0  0  0  0  0  0  0  0  0  0  0
    5.6688   -6.1676   26.2074 C   0  0  0  0  0  0  0  0  0  0  0  0
    6.3198   -7.0220   26.3919 H   0  0  0  0  0  0  0  0  0  0  0  0
    5.8235   -5.3554   25.0728 C   0  0  0  0  0  0  0  0  0  0  0  0
    6.6210   -5.5265   24.3598 H   0  0  0  0  0  0  0  0  0  0  0  0
    5.8360   -2.2792   21.9656 N   0  0  0  0  0  0  0  0  0  0  0  0
    7.0929   -1.8111   21.7030 N   0  0  0  0  0  0  0  0  0  0  0  0
    5.5673    0.3242   20.0705 C   0  0  0  0  0  0  0  0  0  0  0  0
    5.1347    0.1234   21.0491 H   0  0  0  0  0  0  0  0  0  0  0  0
    4.9374    1.1345   19.1317 C   0  0  0  0  0  0  0  0  0  0  0  0
    4.0212    1.6639   19.3696 H   0  0  0  0  0  0  0  0  0  0  0  0
  1  2  1  0
  2  3  2  0
  3  4  1  0
  4  5  1  0
  4  6  2  0
  6  7  1  0
  7  8  2  0
  8  9  1  0
  8 10  1  0
 10 11  1  0
 11 12  2  0
 12 13  1  0
 13 14  1  0
 14 15  1  0
 14 16  1  0
 16 17  2  0
 17 18  1  0
 17 19  1  0
 19 20  1  0
 19 21  2  0
 21 22  1  0
 21 23  1  0
 23 24  1  0
 23 25  2  0
 25 26  1  0
 13 27  2  0
 27 28  1  0
  6 29  1  0
 29 30  1  0
 29 31  2  0
 31 32  1  0
 31  2  1  0
 28  7  1  0
 28 11  1  0
 25 16  1  0
M  END
>  <cnnaffinity>  (1) 
-5.57482

>  <filename>  (1) 
Clc1ccc(Nc2nc3scc(-c4cccnc4)n3n2)cc1

$$$$
