
     RDKit          3D

 31 33  0  0  0  0  0  0  0  0999 V2000
    4.9318    1.8427   16.8941 H   0  0  0  0  0  0  0  0  0  0  0  0
    5.4118    1.3429   17.7312 C   0  0  0  0  0  0  0  0  0  0  0  0
    6.5694    0.7189   17.4571 N   0  0  0  0  0  0  0  0  0  0  0  0
    7.1690    0.0789   18.4659 C   0  0  0  0  0  0  0  0  0  0  0  0
    8.1015   -0.4388   18.2471 H   0  0  0  0  0  0  0  0  0  0  0  0
    6.6682    0.0183   19.7803 C   0  0  0  0  0  0  0  0  0  0  0  0
    7.3553   -0.7643   20.8140 C   0  0  0  0  0  0  0  0  0  0  0  0
    9.0043   -1.2944   20.6745 S   0  0  0  0  0  0  0  0  0  0  0  0
    8.9602   -2.0276   22.2411 C   0  0  0  0  0  0  0  0  0  0  0  0
   10.2259   -2.4373   22.9254 C   0  0  0  0  0  0  0  0  0  0  0  0
    9.9906   -3.1212   23.7518 H   0  0  0  0  0  0  0  0  0  0  0  0
   10.8754   -2.9931   22.2407 H   0  0  0  0  0  0  0  0  0  0  0  0
   10.9539   -1.2021   23.4443 C   0  0  0  0  0  0  0  0  0  0  0  0
   12.0173   -0.6397   22.7113 C   0  0  0  0  0  0  0  0  0  0  0  0
   12.2254   -1.0178   21.7111 H   0  0  0  0  0  0  0  0  0  0  0  0
   12.8253    0.3674   23.2497 C   0  0  0  0  0  0  0  0  0  0  0  0
   13.6775    0.7454   22.6883 H   0  0  0  0  0  0  0  0  0  0  0  0
   12.5457    0.8604   24.5287 C   0  0  0  0  0  0  0  0  0  0  0  0
   13.1628    1.6321   24.9687 H   0  0  0  0  0  0  0  0  0  0  0  0
   11.4281    0.4052   25.2266 C   0  0  0  0  0  0  0  0  0  0  0  0
   11.1372    0.8226   26.1854 H   0  0  0  0  0  0  0  0  0  0  0  0
   10.6402   -0.6100   24.6818 C   0  0  0  0  0  0  0  0  0  0  0  0
    9.2689   -1.1130   25.6404 Cl  0  0  0  0  0  0  0  0  0  0  0  0
    7.7129   -1.9392   22.7870 C   0  0  0  0  0  0  0  0  0  0  0  0
    7.4351   -2.3503   23.7496 H   0  0  0  0  0  0  0  0  0  0  0  0
    6.8227   -1.1918   21.9899 C   0  0  0  0  0  0  0  0  0  0  0  0
    5.8222   -0.9514   22.2865 H   0  0  0  0  0  0  0  0  0  0  0  0
    5.4700    0.7046   20.0487 C   0  0  0  0  0  0  0  0  0  0  0  0
    5.0592    0.7345   21.0601 H   0  0  0  0  0  0  0  0  0  0  0  0
    4.8250    1.3606   19.0024 C   0  0  0  0  0  0  0  0  0  0  0  0
    3.8809    1.8726   19.1538 H   0  0  0  0  0  0  0  0  0  0  0  0
  1  2  1  0
  2  3  2  0
  3  4  1  0
  4  5  1  0
  4  6  2  0
  6  7  1  0
  7  8  1  0
  8  9  1  0
  9 10  1  0
 10 11  1  0
 10 12  1  0
 10 13  1  0
 13 14  2  0
 14 15  1  0
 14 16  1  0
 16 17  1  0
 16 18  2  0
 18 19  1  0
 18 20  1  0
 20 21  1  0
 20 22  2  0
 22 23  1  0
  9 24  2  0
 24 25  1  0
 24 26  1  0
 26 27  1  0
  6 28  1  0
 28 29  1  0
 28 30  2  0
 30 31  1  0
 30  2  1  0
 26  7  2  0
 22 13  1  0
M  END
>  <cnnaffinity>  (1) 
-5.1894

>  <filename>  (1) 
Clc1ccccc1Cc1ccc(-c2cccnc2)s1

$$$$
