
     RDKit          3D

 29 32  0  0  0  0  0  0  0  0999 V2000
    4.9206    1.7716   17.0046 H   0  0  0  0  0  0  0  0  0  0  0  0
    5.4088    1.2860   17.8476 C   0  0  0  0  0  0  0  0  0  0  0  0
    6.5742    0.6699   17.5954 N   0  0  0  0  0  0  0  0  0  0  0  0
    7.1821    0.0539   18.6143 C   0  0  0  0  0  0  0  0  0  0  0  0
    8.1277   -0.4338   18.3841 H   0  0  0  0  0  0  0  0  0  0  0  0
    6.6488    0.0148   19.9100 C   0  0  0  0  0  0  0  0  0  0  0  0
    7.3628   -0.6891   20.9673 C   0  0  0  0  0  0  0  0  0  0  0  0
    8.5468   -1.3287   20.7585 N   0  0  0  0  0  0  0  0  0  0  0  0
    8.7960   -1.8157   21.9594 C   0  0  0  0  0  0  0  0  0  0  0  0
    9.9873   -2.8198   22.7281 S   0  0  0  0  0  0  0  0  0  0  0  0
    9.0731   -2.7649   24.2092 C   0  0  0  0  0  0  0  0  0  0  0  0
    9.4589   -3.2845   25.0766 H   0  0  0  0  0  0  0  0  0  0  0  0
    7.9549   -2.0168   24.1253 C   0  0  0  0  0  0  0  0  0  0  0  0
    6.9725   -1.7479   25.1971 C   0  0  0  0  0  0  0  0  0  0  0  0
    6.7506   -2.6989   26.2094 C   0  0  0  0  0  0  0  0  0  0  0  0
    7.2889   -3.6441   26.1960 H   0  0  0  0  0  0  0  0  0  0  0  0
    5.8838   -2.5406   27.2203 N   0  0  0  0  0  0  0  0  0  0  0  0
    5.2055   -1.4043   27.2510 C   0  0  0  0  0  0  0  0  0  0  0  0
    4.0823   -1.1863   28.5539 Cl  0  0  0  0  0  0  0  0  0  0  0  0
    5.3348   -0.3742   26.3107 C   0  0  0  0  0  0  0  0  0  0  0  0
    4.7486    0.5321   26.3946 H   0  0  0  0  0  0  0  0  0  0  0  0
    6.2351   -0.5511   25.2703 C   0  0  0  0  0  0  0  0  0  0  0  0
    6.3720    0.2180   24.5127 H   0  0  0  0  0  0  0  0  0  0  0  0
    7.8312   -1.4783   22.8369 N   0  0  0  0  0  0  0  0  0  0  0  0
    6.8801   -0.7473   22.2049 N   0  0  0  0  0  0  0  0  0  0  0  0
    5.4294    0.6575   20.1664 C   0  0  0  0  0  0  0  0  0  0  0  0
    5.0014    0.6325   21.1726 H   0  0  0  0  0  0  0  0  0  0  0  0
    4.8045    1.3104   19.1106 C   0  0  0  0  0  0  0  0  0  0  0  0
    3.8737    1.8436   19.2616 H   0  0  0  0  0  0  0  0  0  0  0  0
  1  2  1  0
  2  3  2  0
  3  4  1  0
  4  5  1  0
  4  6  2  0
  6  7  1  0
  7  8  1  0
  8  9  2  0
  9 10  1  0
 10 11  1  0
 11 12  1  0
 11 13  2  0
 13 14  1  0
 14 15  2  0
 15 16  1  0
 15 17  1  0
 17 18  2  0
 18 19  1  0
 18 20  1  0
 20 21  1  0
 20 22  2  0
 22 23  1  0
 13 24  1  0
 24 25  1  0
  6 26  1  0
 26 27  1  0
 26 28  2  0
 28 29  1  0
 28  2  1  0
 25  7  2  0
 24  9  1  0
 22 14  1  0
M  END
>  <cnnaffinity>  (1) 
-5.6615

>  <filename>  (1) 
Clc1ccc(-c2csc3nc(-c4cccnc4)nn23)cn1

$$$$
