
     RDKit          3D

 29 31  0  0  0  0  0  0  0  0999 V2000
   12.4969   -1.4291   20.9576 Cl  0  0  0  0  0  0  0  0  0  0  0  0
   12.0319   -0.8705   22.5468 C   0  0  0  0  0  0  0  0  0  0  0  0
   12.8521    0.0858   23.1565 C   0  0  0  0  0  0  0  0  0  0  0  0
   12.5433    0.5294   24.4440 C   0  0  0  0  0  0  0  0  0  0  0  0
   11.3778    0.0909   25.0787 C   0  0  0  0  0  0  0  0  0  0  0  0
   10.5329   -0.8172   24.4376 C   0  0  0  0  0  0  0  0  0  0  0  0
   10.8631   -1.3458   23.1730 C   0  0  0  0  0  0  0  0  0  0  0  0
    9.9413   -2.3516   22.4951 C   0  0  0  0  0  0  0  0  0  0  0  0
    8.6896   -1.7127   21.9906 C   0  0  0  0  0  0  0  0  0  0  0  0
    8.4072   -1.3055   20.7911 N   0  0  0  0  0  0  0  0  0  0  0  0
    7.1859   -0.6885   20.9856 C   0  0  0  0  0  0  0  0  0  0  0  0
    6.4983    0.0202   19.9094 C   0  0  0  0  0  0  0  0  0  0  0  0
    5.2955    0.7232   20.0872 C   0  0  0  0  0  0  0  0  0  0  0  0
    4.7547    1.3714   18.9810 C   0  0  0  0  0  0  0  0  0  0  0  0
    5.4333    1.3158   17.7579 C   0  0  0  0  0  0  0  0  0  0  0  0
    6.5921    0.6621   17.5865 N   0  0  0  0  0  0  0  0  0  0  0  0
    7.1078    0.0353   18.6475 C   0  0  0  0  0  0  0  0  0  0  0  0
    8.0535   -0.4802   18.4964 H   0  0  0  0  0  0  0  0  0  0  0  0
    5.0262    1.8103   16.8784 H   0  0  0  0  0  0  0  0  0  0  0  0
    3.8278    1.9288   19.0531 H   0  0  0  0  0  0  0  0  0  0  0  0
    4.8157    0.7705   21.0678 H   0  0  0  0  0  0  0  0  0  0  0  0
    6.7386   -0.7540   22.2094 N   0  0  0  0  0  0  0  0  0  0  0  0
    7.7377   -1.4368   22.8799 O   0  0  0  0  0  0  0  0  0  0  0  0
    9.6713   -3.1610   23.1818 H   0  0  0  0  0  0  0  0  0  0  0  0
   10.4484   -2.7914   21.6403 H   0  0  0  0  0  0  0  0  0  0  0  0
    9.5980   -1.1124   24.9146 H   0  0  0  0  0  0  0  0  0  0  0  0
   11.1505    0.4443   26.0837 H   0  0  0  0  0  0  0  0  0  0  0  0
   13.1924    1.2414   24.9470 H   0  0  0  0  0  0  0  0  0  0  0  0
   13.7067    0.4886   22.6199 H   0  0  0  0  0  0  0  0  0  0  0  0
  1  2  1  0
  2  3  2  0
  3  4  1  0
  4  5  2  0
  5  6  1  0
  6  7  2  0
  7  8  1  0
  8  9  1  0
  9 10  2  0
 10 11  1  0
 11 12  1  0
 12 13  2  0
 13 14  1  0
 14 15  2  0
 15 16  1  0
 16 17  2  0
 17 18  1  0
 15 19  1  0
 14 20  1  0
 13 21  1  0
 11 22  2  0
 22 23  1  0
  8 24  1  0
  8 25  1  0
  6 26  1  0
  5 27  1  0
  4 28  1  0
  3 29  1  0
  7  2  1  0
 23  9  1  0
 17 12  1  0
M  END
>  <cnnaffinity>  (1) 
-5.36519

>  <filename>  (1) 
Clc1ccccc1Cc1nc(-c2cccnc2)no1

$$$$
