
     RDKit          3D

 31 33  0  0  0  0  0  0  0  0999 V2000
    6.6781   -1.3373   21.6250 H   0  0  0  0  0  0  0  0  0  0  0  0
    7.3258   -0.7225   20.9959 C   0  0  0  0  0  0  0  0  0  0  0  0
    8.6074   -0.5382   21.3474 C   0  0  0  0  0  0  0  0  0  0  0  0
    9.3578   -1.1608   22.4545 C   0  0  0  0  0  0  0  0  0  0  0  0
    8.8468   -2.3388   23.1842 C   0  0  0  0  0  0  0  0  0  0  0  0
    9.0762   -2.4340   24.5596 C   0  0  0  0  0  0  0  0  0  0  0  0
    9.5952   -1.6407   25.0884 H   0  0  0  0  0  0  0  0  0  0  0  0
    8.6878   -3.4713   25.3078 N   0  0  0  0  0  0  0  0  0  0  0  0
    8.0663   -4.4618   24.6911 C   0  0  0  0  0  0  0  0  0  0  0  0
    7.5731   -5.8134   25.6598 Cl  0  0  0  0  0  0  0  0  0  0  0  0
    7.7846   -4.4953   23.3194 C   0  0  0  0  0  0  0  0  0  0  0  0
    7.2695   -5.3425   22.8877 H   0  0  0  0  0  0  0  0  0  0  0  0
    8.1820   -3.4062   22.5559 C   0  0  0  0  0  0  0  0  0  0  0  0
    7.9936   -3.3897   21.4829 H   0  0  0  0  0  0  0  0  0  0  0  0
   10.4743   -0.5859   22.7205 N   0  0  0  0  0  0  0  0  0  0  0  0
   10.6957    0.5045   21.7581 C   0  0  0  0  0  0  0  0  0  0  0  0
   11.6642    0.3688   21.2711 H   0  0  0  0  0  0  0  0  0  0  0  0
   10.7380    1.4488   22.3087 H   0  0  0  0  0  0  0  0  0  0  0  0
    9.5134    0.5090   20.7560 C   0  0  0  0  0  0  0  0  0  0  0  0
    9.7589    0.1820   19.7461 H   0  0  0  0  0  0  0  0  0  0  0  0
    9.0295    1.4869   20.6595 H   0  0  0  0  0  0  0  0  0  0  0  0
    6.6437   -0.0154   19.8970 C   0  0  0  0  0  0  0  0  0  0  0  0
    7.1648    0.0653   18.5912 C   0  0  0  0  0  0  0  0  0  0  0  0
    8.1092   -0.4279   18.3737 H   0  0  0  0  0  0  0  0  0  0  0  0
    6.5630    0.6861   17.5687 N   0  0  0  0  0  0  0  0  0  0  0  0
    5.3992    1.2991   17.8346 C   0  0  0  0  0  0  0  0  0  0  0  0
    4.9142    1.7852   16.9924 H   0  0  0  0  0  0  0  0  0  0  0  0
    4.7996    1.3135   19.1013 C   0  0  0  0  0  0  0  0  0  0  0  0
    3.8692    1.8486   19.2556 H   0  0  0  0  0  0  0  0  0  0  0  0
    5.4224    0.6346   20.1470 C   0  0  0  0  0  0  0  0  0  0  0  0
    5.0064    0.6238   21.1585 H   0  0  0  0  0  0  0  0  0  0  0  0
  1  2  1  0
  2  3  2  3
  3  4  1  0
  4  5  1  0
  5  6  2  0
  6  7  1  0
  6  8  1  0
  8  9  2  0
  9 10  1  0
  9 11  1  0
 11 12  1  0
 11 13  2  0
 13 14  1  0
  4 15  2  0
 15 16  1  0
 16 17  1  0
 16 18  1  0
 16 19  1  0
 19 20  1  0
 19 21  1  0
  2 22  1  0
 22 23  2  0
 23 24  1  0
 23 25  1  0
 25 26  2  0
 26 27  1  0
 26 28  1  0
 28 29  1  0
 28 30  2  0
 30 31  1  0
 19  3  1  0
 30 22  1  0
 13  5  1  0
M  END
>  <cnnaffinity>  (1) 
-5.43513

>  <filename>  (1) 
Clc1ccc(C2=NCCC2=Cc2cccnc2)cn1

$$$$
