
     RDKit          3D

 27 29  0  0  0  0  0  0  0  0999 V2000
    4.8679    1.9356   16.8741 H   0  0  0  0  0  0  0  0  0  0  0  0
    5.3645    1.3938   17.6733 C   0  0  0  0  0  0  0  0  0  0  0  0
    6.5128    0.7795   17.3476 N   0  0  0  0  0  0  0  0  0  0  0  0
    7.1529    0.1123   18.3119 C   0  0  0  0  0  0  0  0  0  0  0  0
    8.0742   -0.3887   18.0077 H   0  0  0  0  0  0  0  0  0  0  0  0
    6.6950    0.0340   19.6355 C   0  0  0  0  0  0  0  0  0  0  0  0
    7.4478   -0.6833   20.6662 C   0  0  0  0  0  0  0  0  0  0  0  0
    6.9521   -0.7422   21.9635 N   0  0  0  0  0  0  0  0  0  0  0  0
    7.8271   -1.4217   22.6237 C   0  0  0  0  0  0  0  0  0  0  0  0
    7.8361   -1.7925   24.0512 C   0  0  0  0  0  0  0  0  0  0  0  0
    8.9118   -2.5428   24.5508 C   0  0  0  0  0  0  0  0  0  0  0  0
    9.7063   -2.8475   23.8799 H   0  0  0  0  0  0  0  0  0  0  0  0
    8.9606   -2.8980   25.8932 C   0  0  0  0  0  0  0  0  0  0  0  0
    9.8044   -3.4804   26.2435 H   0  0  0  0  0  0  0  0  0  0  0  0
    7.9417   -2.5145   26.7678 C   0  0  0  0  0  0  0  0  0  0  0  0
    7.9663   -2.7877   27.8124 H   0  0  0  0  0  0  0  0  0  0  0  0
    6.8705   -1.7697   26.2686 C   0  0  0  0  0  0  0  0  0  0  0  0
    5.6043   -1.2905   27.3609 Cl  0  0  0  0  0  0  0  0  0  0  0  0
    6.7975   -1.4068   24.9235 C   0  0  0  0  0  0  0  0  0  0  0  0
    5.9371   -0.8384   24.5806 H   0  0  0  0  0  0  0  0  0  0  0  0
    8.8791   -1.8329   21.8661 O   0  0  0  0  0  0  0  0  0  0  0  0
    8.6250   -1.3498   20.6236 C   0  0  0  0  0  0  0  0  0  0  0  0
    9.3655   -1.5638   19.8650 H   0  0  0  0  0  0  0  0  0  0  0  0
    5.4860    0.6752   19.9544 C   0  0  0  0  0  0  0  0  0  0  0  0
    5.1080    0.6284   20.9738 H   0  0  0  0  0  0  0  0  0  0  0  0
    4.8054    1.3573   18.9533 C   0  0  0  0  0  0  0  0  0  0  0  0
    3.8666    1.8623   19.1549 H   0  0  0  0  0  0  0  0  0  0  0  0
  1  2  1  0
  2  3  2  0
  3  4  1  0
  4  5  1  0
  4  6  2  0
  6  7  1  0
  7  8  1  0
  8  9  2  0
  9 10  1  0
 10 11  2  0
 11 12  1  0
 11 13  1  0
 13 14  1  0
 13 15  2  0
 15 16  1  0
 15 17  1  0
 17 18  1  0
 17 19  2  0
 19 20  1  0
  9 21  1  0
 21 22  1  0
 22 23  1  0
  6 24  1  0
 24 25  1  0
 24 26  2  0
 26 27  1  0
 26  2  1  0
 22  7  2  0
 19 10  1  0
M  END
>  <cnnaffinity>  (1) 
-4.78834

>  <filename>  (1) 
Clc1cccc(-c2nc(-c3cccnc3)co2)c1

$$$$
