
     RDKit          3D

 27 29  0  0  0  0  0  0  0  0999 V2000
    4.9197    1.7793   16.9981 H   0  0  0  0  0  0  0  0  0  0  0  0
    5.4052    1.2943   17.8390 C   0  0  0  0  0  0  0  0  0  0  0  0
    6.5706    0.6783   17.5777 N   0  0  0  0  0  0  0  0  0  0  0  0
    7.1702    0.0592   18.5962 C   0  0  0  0  0  0  0  0  0  0  0  0
    8.1153   -0.4360   18.3798 H   0  0  0  0  0  0  0  0  0  0  0  0
    6.6485    0.0274   19.8980 C   0  0  0  0  0  0  0  0  0  0  0  0
    7.3729   -0.7069   20.9318 C   0  0  0  0  0  0  0  0  0  0  0  0
    7.9403   -1.8694   20.7470 N   0  0  0  0  0  0  0  0  0  0  0  0
    8.4370   -2.2928   21.9517 N   0  0  0  0  0  0  0  0  0  0  0  0
    8.1731   -1.3632   22.8220 C   0  0  0  0  0  0  0  0  0  0  0  0
    8.4655   -1.3854   23.8627 H   0  0  0  0  0  0  0  0  0  0  0  0
    7.5005   -0.3135   22.2489 N   0  0  0  0  0  0  0  0  0  0  0  0
    7.1573    0.9257   22.8641 C   0  0  0  0  0  0  0  0  0  0  0  0
    7.4091    2.1380   22.2067 C   0  0  0  0  0  0  0  0  0  0  0  0
    7.8429    2.1529   21.2132 H   0  0  0  0  0  0  0  0  0  0  0  0
    7.0550    3.3297   22.8389 C   0  0  0  0  0  0  0  0  0  0  0  0
    7.3425    4.8341   22.0282 Cl  0  0  0  0  0  0  0  0  0  0  0  0
    6.4777    3.3558   24.1091 C   0  0  0  0  0  0  0  0  0  0  0  0
    6.2162    4.2950   24.5891 H   0  0  0  0  0  0  0  0  0  0  0  0
    6.2561    2.1317   24.7410 C   0  0  0  0  0  0  0  0  0  0  0  0
    5.5579    2.1324   26.3267 Cl  0  0  0  0  0  0  0  0  0  0  0  0
    6.5853    0.9159   24.1420 C   0  0  0  0  0  0  0  0  0  0  0  0
    6.3920   -0.0195   24.6559 H   0  0  0  0  0  0  0  0  0  0  0  0
    5.4214    0.6544   20.1532 C   0  0  0  0  0  0  0  0  0  0  0  0
    4.9999    0.6365   21.1633 H   0  0  0  0  0  0  0  0  0  0  0  0
    4.7977    1.3115   19.1015 C   0  0  0  0  0  0  0  0  0  0  0  0
    3.8674    1.8464   19.2571 H   0  0  0  0  0  0  0  0  0  0  0  0
  1  2  1  0
  2  3  2  0
  3  4  1  0
  4  5  1  0
  4  6  2  0
  6  7  1  0
  7  8  2  0
  8  9  1  0
  9 10  2  0
 10 11  1  0
 10 12  1  0
 12 13  1  0
 13 14  2  0
 14 15  1  0
 14 16  1  0
 16 17  1  0
 16 18  2  0
 18 19  1  0
 18 20  1  0
 20 21  1  0
 20 22  2  0
 22 23  1  0
  6 24  1  0
 24 25  1  0
 24 26  2  0
 26 27  1  0
 26  2  1  0
 12  7  1  0
 22 13  1  0
M  END
>  <cnnaffinity>  (1) 
-5.30979

>  <filename>  (1) 
Clc1cc(Cl)cc(-n2cnnc2-c2cccnc2)c1

$$$$
