
     RDKit          3D

 30 33  0  0  0  0  0  0  0  0999 V2000
    4.9507    1.7835   16.9798 H   0  0  0  0  0  0  0  0  0  0  0  0
    5.4031    1.2878   17.8333 C   0  0  0  0  0  0  0  0  0  0  0  0
    6.5625    0.6561   17.6006 N   0  0  0  0  0  0  0  0  0  0  0  0
    7.1573    0.0798   18.6477 C   0  0  0  0  0  0  0  0  0  0  0  0
    8.1028   -0.4119   18.4240 H   0  0  0  0  0  0  0  0  0  0  0  0
    6.6537    0.1056   19.9687 C   0  0  0  0  0  0  0  0  0  0  0  0
    7.4285   -0.5838   21.0220 C   0  0  0  0  0  0  0  0  0  0  0  0
    8.2923   -1.6078   20.8514 C   0  0  0  0  0  0  0  0  0  0  0  0
    8.7082   -1.9554   19.9252 H   0  0  0  0  0  0  0  0  0  0  0  0
    8.8660   -2.3072   22.3359 S   0  0  0  0  0  0  0  0  0  0  0  0
    8.0792   -1.0389   23.2180 C   0  0  0  0  0  0  0  0  0  0  0  0
    8.1048   -0.5390   24.4306 N   0  0  0  0  0  0  0  0  0  0  0  0
    7.3438    0.5850   24.2765 C   0  0  0  0  0  0  0  0  0  0  0  0
    7.0793    1.5431   25.3703 C   0  0  0  0  0  0  0  0  0  0  0  0
    7.5973    1.2989   26.6560 C   0  0  0  0  0  0  0  0  0  0  0  0
    8.2253    0.4298   26.8422 H   0  0  0  0  0  0  0  0  0  0  0  0
    7.2954    2.1852   27.6892 C   0  0  0  0  0  0  0  0  0  0  0  0
    7.8535    1.8321   29.2949 Cl  0  0  0  0  0  0  0  0  0  0  0  0
    6.5286    3.3364   27.4736 C   0  0  0  0  0  0  0  0  0  0  0  0
    6.3134    4.0320   28.2809 H   0  0  0  0  0  0  0  0  0  0  0  0
    6.0383    3.5651   26.1837 C   0  0  0  0  0  0  0  0  0  0  0  0
    5.0603    4.9700   25.8910 Cl  0  0  0  0  0  0  0  0  0  0  0  0
    6.2961    2.6895   25.1290 C   0  0  0  0  0  0  0  0  0  0  0  0
    5.8976    2.8799   24.1339 H   0  0  0  0  0  0  0  0  0  0  0  0
    6.8561    0.7875   23.0550 N   0  0  0  0  0  0  0  0  0  0  0  0
    7.3314   -0.2830   22.3832 N   0  0  0  0  0  0  0  0  0  0  0  0
    5.4166    0.7461   20.1847 C   0  0  0  0  0  0  0  0  0  0  0  0
    4.9840    0.7877   21.1880 H   0  0  0  0  0  0  0  0  0  0  0  0
    4.7856    1.3375   19.0891 C   0  0  0  0  0  0  0  0  0  0  0  0
    3.8356    1.8480   19.1936 H   0  0  0  0  0  0  0  0  0  0  0  0
  1  2  1  0
  2  3  2  0
  3  4  1  0
  4  5  1  0
  4  6  2  0
  6  7  1  0
  7  8  2  0
  8  9  1  0
  8 10  1  0
 10 11  1  0
 11 12  2  0
 12 13  1  0
 13 14  1  0
 14 15  2  0
 15 16  1  0
 15 17  1  0
 17 18  1  0
 17 19  2  0
 19 20  1  0
 19 21  1  0
 21 22  1  0
 21 23  2  0
 23 24  1  0
 13 25  2  0
 25 26  1  0
  6 27  1  0
 27 28  1  0
 27 29  2  0
 29 30  1  0
 29  2  1  0
 26  7  1  0
 26 11  1  0
 23 14  1  0
M  END
>  <cnnaffinity>  (1) 
-5.36814

>  <filename>  (1) 
Clc1cc(Cl)cc(-c2nc3scc(-c4cccnc4)n3n2)c1

$$$$
