
     RDKit          3D

 28 30  0  0  0  0  0  0  0  0999 V2000
    4.9272    1.8005   16.9836 H   0  0  0  0  0  0  0  0  0  0  0  0
    5.3942    1.2959   17.8272 C   0  0  0  0  0  0  0  0  0  0  0  0
    6.5535    0.6789   17.5574 N   0  0  0  0  0  0  0  0  0  0  0  0
    7.1737    0.0647   18.5707 C   0  0  0  0  0  0  0  0  0  0  0  0
    8.1176   -0.4166   18.3254 H   0  0  0  0  0  0  0  0  0  0  0  0
    6.6830    0.0116   19.8897 C   0  0  0  0  0  0  0  0  0  0  0  0
    7.4276   -0.6921   20.9523 C   0  0  0  0  0  0  0  0  0  0  0  0
    9.1311   -1.0357   20.8984 S   0  0  0  0  0  0  0  0  0  0  0  0
    9.0813   -1.8042   22.4384 C   0  0  0  0  0  0  0  0  0  0  0  0
    9.9710   -2.2347   22.8780 H   0  0  0  0  0  0  0  0  0  0  0  0
    7.8326   -1.8160   22.9809 C   0  0  0  0  0  0  0  0  0  0  0  0
    7.4641   -2.3911   24.3101 C   0  0  0  0  0  0  0  0  0  0  0  0
    6.7400   -1.5939   25.2192 C   0  0  0  0  0  0  0  0  0  0  0  0
    6.4589   -0.5968   24.8904 H   0  0  0  0  0  0  0  0  0  0  0  0
    6.3962   -2.0516   26.4921 C   0  0  0  0  0  0  0  0  0  0  0  0
    5.8467   -1.4113   27.1806 H   0  0  0  0  0  0  0  0  0  0  0  0
    6.7573   -3.3448   26.8806 C   0  0  0  0  0  0  0  0  0  0  0  0
    6.5085   -3.7528   27.8569 H   0  0  0  0  0  0  0  0  0  0  0  0
    7.4496   -4.1701   25.9900 C   0  0  0  0  0  0  0  0  0  0  0  0
    7.8733   -5.7665   26.5260 Cl  0  0  0  0  0  0  0  0  0  0  0  0
    7.7925   -3.7095   24.7050 C   0  0  0  0  0  0  0  0  0  0  0  0
    8.5728   -4.8058   23.6101 Cl  0  0  0  0  0  0  0  0  0  0  0  0
    6.9026   -1.1687   22.1116 C   0  0  0  0  0  0  0  0  0  0  0  0
    5.8576   -1.0826   22.3331 H   0  0  0  0  0  0  0  0  0  0  0  0
    5.4550    0.6487   20.1449 C   0  0  0  0  0  0  0  0  0  0  0  0
    5.0229    0.6544   21.1472 H   0  0  0  0  0  0  0  0  0  0  0  0
    4.8078    1.3070   19.0971 C   0  0  0  0  0  0  0  0  0  0  0  0
    3.8776    1.8368   19.2463 H   0  0  0  0  0  0  0  0  0  0  0  0
  1  2  1  0
  2  3  2  0
  3  4  1  0
  4  5  1  0
  4  6  2  0
  6  7  1  0
  7  8  1  0
  8  9  1  0
  9 10  1  0
  9 11  2  0
 11 12  1  0
 12 13  2  0
 13 14  1  0
 13 15  1  0
 15 16  1  0
 15 17  2  0
 17 18  1  0
 17 19  1  0
 19 20  1  0
 19 21  2  0
 21 22  1  0
 11 23  1  0
 23 24  1  0
  6 25  1  0
 25 26  1  0
 25 27  2  0
 27 28  1  0
 27  2  1  0
 23  7  2  0
 21 12  1  0
M  END
>  <cnnaffinity>  (1) 
-5.55104

>  <filename>  (1) 
Clc1cccc(-c2csc(-c3cccnc3)c2)c1Cl

$$$$
