
     RDKit          3D

 29 31  0  0  0  0  0  0  0  0999 V2000
    4.9269    1.7784   16.9991 H   0  0  0  0  0  0  0  0  0  0  0  0
    5.4099    1.2864   17.8455 C   0  0  0  0  0  0  0  0  0  0  0  0
    6.5760    0.6658   17.5978 N   0  0  0  0  0  0  0  0  0  0  0  0
    7.1855    0.0445   18.6122 C   0  0  0  0  0  0  0  0  0  0  0  0
    8.1294   -0.4352   18.3749 H   0  0  0  0  0  0  0  0  0  0  0  0
    6.6705   -0.0074   19.9197 C   0  0  0  0  0  0  0  0  0  0  0  0
    7.3703   -0.6813   20.9598 N   0  0  0  0  0  0  0  0  0  0  0  0
    8.2926   -1.6232   20.7004 N   0  0  0  0  0  0  0  0  0  0  0  0
    8.7262   -2.0326   21.8847 C   0  0  0  0  0  0  0  0  0  0  0  0
    9.4913   -2.7921   21.9423 H   0  0  0  0  0  0  0  0  0  0  0  0
    8.0812   -1.3362   22.9306 C   0  0  0  0  0  0  0  0  0  0  0  0
    8.3591   -1.5066   24.2630 O   0  0  0  0  0  0  0  0  0  0  0  0
    7.4847   -1.0860   25.2491 C   0  0  0  0  0  0  0  0  0  0  0  0
    8.0483   -0.6624   26.4588 C   0  0  0  0  0  0  0  0  0  0  0  0
    9.1257   -0.6540   26.5691 H   0  0  0  0  0  0  0  0  0  0  0  0
    7.2265   -0.2616   27.5157 C   0  0  0  0  0  0  0  0  0  0  0  0
    7.6483    0.0855   28.4534 H   0  0  0  0  0  0  0  0  0  0  0  0
    5.8375   -0.2988   27.3679 C   0  0  0  0  0  0  0  0  0  0  0  0
    4.8065    0.2086   28.6732 Cl  0  0  0  0  0  0  0  0  0  0  0  0
    5.2645   -0.7495   26.1793 C   0  0  0  0  0  0  0  0  0  0  0  0
    4.1844   -0.7760   26.0733 H   0  0  0  0  0  0  0  0  0  0  0  0
    6.0935   -1.1555   25.1300 C   0  0  0  0  0  0  0  0  0  0  0  0
    5.6807   -1.5446   24.2116 H   0  0  0  0  0  0  0  0  0  0  0  0
    7.2295   -0.4632   22.2990 C   0  0  0  0  0  0  0  0  0  0  0  0
    6.5659    0.2834   22.7035 H   0  0  0  0  0  0  0  0  0  0  0  0
    5.4491    0.6418   20.1737 C   0  0  0  0  0  0  0  0  0  0  0  0
    4.9948    0.6266   21.1669 H   0  0  0  0  0  0  0  0  0  0  0  0
    4.8186    1.2983   19.1127 C   0  0  0  0  0  0  0  0  0  0  0  0
    3.8852    1.8339   19.2655 H   0  0  0  0  0  0  0  0  0  0  0  0
  1  2  1  0
  2  3  2  0
  3  4  1  0
  4  5  1  0
  4  6  2  0
  6  7  1  0
  7  8  1  0
  8  9  2  0
  9 10  1  0
  9 11  1  0
 11 12  1  0
 12 13  1  0
 13 14  2  0
 14 15  1  0
 14 16  1  0
 16 17  1  0
 16 18  2  0
 18 19  1  0
 18 20  1  0
 20 21  1  0
 20 22  2  0
 22 23  1  0
 11 24  2  0
 24 25  1  0
  6 26  1  0
 26 27  1  0
 26 28  2  0
 28 29  1  0
 28  2  1  0
 24  7  1  0
 22 13  1  0
M  END
>  <cnnaffinity>  (1) 
-5.213

>  <filename>  (1) 
Clc1ccc(Oc2cnn(-c3cccnc3)c2)cc1

$$$$
