
     RDKit          3D

 30 32  0  0  0  0  0  0  0  0999 V2000
    5.0576    1.8197   16.8387 H   0  0  0  0  0  0  0  0  0  0  0  0
    5.4417    1.3224   17.7259 C   0  0  0  0  0  0  0  0  0  0  0  0
    6.5968    0.6579   17.5718 N   0  0  0  0  0  0  0  0  0  0  0  0
    7.0924    0.0260   18.6396 C   0  0  0  0  0  0  0  0  0  0  0  0
    8.0394   -0.4944   18.4983 H   0  0  0  0  0  0  0  0  0  0  0  0
    6.4641    0.0144   19.8911 C   0  0  0  0  0  0  0  0  0  0  0  0
    7.1285   -0.7070   20.9810 C   0  0  0  0  0  0  0  0  0  0  0  0
    8.3523   -1.3039   20.8355 N   0  0  0  0  0  0  0  0  0  0  0  0
    8.6386   -1.7196   22.0529 C   0  0  0  0  0  0  0  0  0  0  0  0
    9.9276   -2.3152   22.5489 C   0  0  0  0  0  0  0  0  0  0  0  0
   10.4219   -2.7510   21.6833 H   0  0  0  0  0  0  0  0  0  0  0  0
    9.6956   -3.1478   23.2224 H   0  0  0  0  0  0  0  0  0  0  0  0
   10.8550   -1.3099   23.2285 C   0  0  0  0  0  0  0  0  0  0  0  0
   10.5455   -0.7937   24.5010 C   0  0  0  0  0  0  0  0  0  0  0  0
    9.6456   -1.1306   25.0051 H   0  0  0  0  0  0  0  0  0  0  0  0
   11.3563    0.1483   25.1358 C   0  0  0  0  0  0  0  0  0  0  0  0
   11.1183    0.4791   26.1468 H   0  0  0  0  0  0  0  0  0  0  0  0
   12.4923    0.6272   24.4762 C   0  0  0  0  0  0  0  0  0  0  0  0
   13.1174    1.3693   24.9548 H   0  0  0  0  0  0  0  0  0  0  0  0
   12.8099    0.1699   23.1906 C   0  0  0  0  0  0  0  0  0  0  0  0
   13.6595    0.5656   22.6409 H   0  0  0  0  0  0  0  0  0  0  0  0
   12.0021   -0.8030   22.5911 C   0  0  0  0  0  0  0  0  0  0  0  0
   12.4665   -1.3954   21.0132 Cl  0  0  0  0  0  0  0  0  0  0  0  0
    7.6076   -1.4445   22.8661 N   0  0  0  0  0  0  0  0  0  0  0  0
    7.5281   -1.6339   23.8548 H   0  0  0  0  0  0  0  0  0  0  0  0
    6.6345   -0.7820   22.2012 N   0  0  0  0  0  0  0  0  0  0  0  0
    5.2614    0.7332   20.0511 C   0  0  0  0  0  0  0  0  0  0  0  0
    4.7624    0.7892   21.0214 H   0  0  0  0  0  0  0  0  0  0  0  0
    4.7444    1.3884   18.9373 C   0  0  0  0  0  0  0  0  0  0  0  0
    3.8235    1.9596   18.9908 H   0  0  0  0  0  0  0  0  0  0  0  0
  1  2  1  0
  2  3  2  0
  3  4  1  0
  4  5  1  0
  4  6  2  0
  6  7  1  0
  7  8  1  0
  8  9  2  0
  9 10  1  0
 10 11  1  0
 10 12  1  0
 10 13  1  0
 13 14  2  0
 14 15  1  0
 14 16  1  0
 16 17  1  0
 16 18  2  0
 18 19  1  0
 18 20  1  0
 20 21  1  0
 20 22  2  0
 22 23  1  0
  9 24  1  0
 24 25  1  0
 24 26  1  0
  6 27  1  0
 27 28  1  0
 27 29  2  0
 29 30  1  0
 29  2  1  0
 26  7  2  0
 22 13  1  0
M  END
>  <cnnaffinity>  (1) 
-5.44169

>  <filename>  (1) 
Clc1ccccc1Cc1nc(-c2cccnc2)n[nH]1

$$$$
