
     RDKit          3D

 27 29  0  0  0  0  0  0  0  0999 V2000
    7.5042    4.9096   21.7677 Cl  0  0  0  0  0  0  0  0  0  0  0  0
    7.2315    3.4323   22.6292 C   0  0  0  0  0  0  0  0  0  0  0  0
    6.7185    3.4623   23.9331 C   0  0  0  0  0  0  0  0  0  0  0  0
    6.4918    2.3578   24.6550 N   0  0  0  0  0  0  0  0  0  0  0  0
    6.7691    1.1843   24.0760 C   0  0  0  0  0  0  0  0  0  0  0  0
    7.2611    1.0446   22.7651 C   0  0  0  0  0  0  0  0  0  0  0  0
    7.5593   -0.2942   22.2399 C   0  0  0  0  0  0  0  0  0  0  0  0
    8.1770   -1.3411   22.8803 C   0  0  0  0  0  0  0  0  0  0  0  0
    8.3397   -2.3175   21.8863 C   0  0  0  0  0  0  0  0  0  0  0  0
    7.8570   -1.9278   20.7168 N   0  0  0  0  0  0  0  0  0  0  0  0
    7.3615   -0.6927   20.9346 N   0  0  0  0  0  0  0  0  0  0  0  0
    6.6534   -0.0084   19.9098 C   0  0  0  0  0  0  0  0  0  0  0  0
    5.4327    0.6353   20.1670 C   0  0  0  0  0  0  0  0  0  0  0  0
    4.8109    1.3007   19.1087 C   0  0  0  0  0  0  0  0  0  0  0  0
    5.4085    1.2904   17.8446 C   0  0  0  0  0  0  0  0  0  0  0  0
    6.5760    0.6714   17.5976 N   0  0  0  0  0  0  0  0  0  0  0  0
    7.1770    0.0412   18.6076 C   0  0  0  0  0  0  0  0  0  0  0  0
    8.1243   -0.4401   18.3801 H   0  0  0  0  0  0  0  0  0  0  0  0
    4.9247    1.7799   16.9988 H   0  0  0  0  0  0  0  0  0  0  0  0
    3.8803    1.8382   19.2604 H   0  0  0  0  0  0  0  0  0  0  0  0
    5.0091    0.6365   21.1729 H   0  0  0  0  0  0  0  0  0  0  0  0
    8.7955   -3.2945   21.9831 H   0  0  0  0  0  0  0  0  0  0  0  0
    8.5158   -1.3544   23.9083 H   0  0  0  0  0  0  0  0  0  0  0  0
    7.5186    2.2137   22.0277 C   0  0  0  0  0  0  0  0  0  0  0  0
    7.9186    2.1551   21.0173 H   0  0  0  0  0  0  0  0  0  0  0  0
    6.5790    0.2970   24.6700 H   0  0  0  0  0  0  0  0  0  0  0  0
    6.4933    4.4104   24.4065 H   0  0  0  0  0  0  0  0  0  0  0  0
  1  2  1  0
  2  3  2  0
  3  4  1  0
  4  5  2  0
  5  6  1  0
  6  7  1  0
  7  8  2  0
  8  9  1  0
  9 10  2  0
 10 11  1  0
 11 12  1  0
 12 13  2  0
 13 14  1  0
 14 15  2  0
 15 16  1  0
 16 17  2  0
 17 18  1  0
 15 19  1  0
 14 20  1  0
 13 21  1  0
  9 22  1  0
  8 23  1  0
  6 24  2  0
 24 25  1  0
  5 26  1  0
  3 27  1  0
 24  2  1  0
 11  7  1  0
 17 12  1  0
M  END
>  <cnnaffinity>  (1) 
-5.17589

>  <filename>  (1) 
Clc1cncc(-c2ccnn2-c2cccnc2)c1

$$$$
