
     RDKit          3D

 27 29  0  0  0  0  0  0  0  0999 V2000
    8.7590   -3.2329   22.1208 H   0  0  0  0  0  0  0  0  0  0  0  0
    8.2957   -2.2729   21.9189 C   0  0  0  0  0  0  0  0  0  0  0  0
    8.1385   -1.3271   22.8814 N   0  0  0  0  0  0  0  0  0  0  0  0
    7.5576   -0.3385   22.2355 C   0  0  0  0  0  0  0  0  0  0  0  0
    7.2432    0.9808   22.8113 C   0  0  0  0  0  0  0  0  0  0  0  0
    7.4788    2.1724   22.1020 C   0  0  0  0  0  0  0  0  0  0  0  0
    7.8859    2.1444   21.0947 H   0  0  0  0  0  0  0  0  0  0  0  0
    7.1967    3.3987   22.6971 C   0  0  0  0  0  0  0  0  0  0  0  0
    7.3733    4.3170   22.1442 H   0  0  0  0  0  0  0  0  0  0  0  0
    6.6955    3.4596   24.0016 C   0  0  0  0  0  0  0  0  0  0  0  0
    6.4812    4.4176   24.4587 H   0  0  0  0  0  0  0  0  0  0  0  0
    6.4837    2.2734   24.7099 C   0  0  0  0  0  0  0  0  0  0  0  0
    5.8730    2.3427   26.3420 Cl  0  0  0  0  0  0  0  0  0  0  0  0
    6.7577    1.0383   24.1277 C   0  0  0  0  0  0  0  0  0  0  0  0
    6.5927    0.1232   24.6898 H   0  0  0  0  0  0  0  0  0  0  0  0
    7.3526   -0.6982   20.9292 N   0  0  0  0  0  0  0  0  0  0  0  0
    6.6582    0.0039   19.9016 C   0  0  0  0  0  0  0  0  0  0  0  0
    7.1850    0.0525   18.5991 C   0  0  0  0  0  0  0  0  0  0  0  0
    8.1344   -0.4414   18.3838 H   0  0  0  0  0  0  0  0  0  0  0  0
    6.5715    0.6828   17.5925 N   0  0  0  0  0  0  0  0  0  0  0  0
    5.3985    1.2916   17.8487 C   0  0  0  0  0  0  0  0  0  0  0  0
    4.9043    1.7708   17.0072 H   0  0  0  0  0  0  0  0  0  0  0  0
    4.8056    1.3119   19.1124 C   0  0  0  0  0  0  0  0  0  0  0  0
    3.8735    1.8444   19.2689 H   0  0  0  0  0  0  0  0  0  0  0  0
    5.4414    0.6469   20.1592 C   0  0  0  0  0  0  0  0  0  0  0  0
    5.0129    0.6283   21.1578 H   0  0  0  0  0  0  0  0  0  0  0  0
    7.8427   -1.9468   20.7245 N   0  0  0  0  0  0  0  0  0  0  0  0
  1  2  1  0
  2  3  1  0
  3  4  2  0
  4  5  1  0
  5  6  2  0
  6  7  1  0
  6  8  1  0
  8  9  1  0
  8 10  2  0
 10 11  1  0
 10 12  1  0
 12 13  1  0
 12 14  2  0
 14 15  1  0
  4 16  1  0
 16 17  1  0
 17 18  2  0
 18 19  1  0
 18 20  1  0
 20 21  2  0
 21 22  1  0
 21 23  1  0
 23 24  1  0
 23 25  2  0
 25 26  1  0
 16 27  1  0
 27  2  2  0
 14  5  1  0
 25 17  1  0
M  END
>  <cnnaffinity>  (1) 
-5.04932

>  <filename>  (1) 
Clc1cccc(-c2ncnn2-c2cccnc2)c1

$$$$
