
     RDKit          3D

 35 38  0  0  0  0  0  0  0  0999 V2000
    4.9792    1.8386   16.9330 H   0  0  0  0  0  0  0  0  0  0  0  0
    5.3892    1.3054   17.7896 C   0  0  0  0  0  0  0  0  0  0  0  0
    6.5456    0.6553   17.5862 N   0  0  0  0  0  0  0  0  0  0  0  0
    7.0878    0.0325   18.6445 C   0  0  0  0  0  0  0  0  0  0  0  0
    8.0322   -0.4775   18.4445 H   0  0  0  0  0  0  0  0  0  0  0  0
    6.5141   -0.0075   19.9339 C   0  0  0  0  0  0  0  0  0  0  0  0
    7.2658   -0.6306   21.0453 C   0  0  0  0  0  0  0  0  0  0  0  0
    8.6223   -0.5940   21.2778 C   0  0  0  0  0  0  0  0  0  0  0  0
    8.8266   -1.1946   22.5094 C   0  0  0  0  0  0  0  0  0  0  0  0
    7.7099   -1.6318   23.0573 N   0  0  0  0  0  0  0  0  0  0  0  0
    6.7614   -1.2660   22.1506 N   0  0  0  0  0  0  0  0  0  0  0  0
    5.7966   -1.4769   22.3728 H   0  0  0  0  0  0  0  0  0  0  0  0
   10.2574   -1.1283   22.9578 C   0  0  0  0  0  0  0  0  0  0  0  0
   10.6938   -2.1254   23.0451 H   0  0  0  0  0  0  0  0  0  0  0  0
   10.3619   -0.6506   23.9371 H   0  0  0  0  0  0  0  0  0  0  0  0
   10.9520   -0.2811   21.8322 C   0  0  2  0  0  0  0  0  0  0  0  0
   11.7738   -0.8648   21.4179 H   0  0  0  0  0  0  0  0  0  0  0  0
   11.4910    1.0216   22.3861 C   0  0  0  0  0  0  0  0  0  0  0  0
   10.5728    1.9841   22.8530 C   0  0  0  0  0  0  0  0  0  0  0  0
    9.5090    1.7516   22.8398 H   0  0  0  0  0  0  0  0  0  0  0  0
   10.9889    3.2332   23.3094 C   0  0  0  0  0  0  0  0  0  0  0  0
   10.2567    3.9524   23.6634 H   0  0  0  0  0  0  0  0  0  0  0  0
   12.3477    3.5609   23.2774 C   0  0  0  0  0  0  0  0  0  0  0  0
   12.6701    4.5577   23.5604 H   0  0  0  0  0  0  0  0  0  0  0  0
   13.2859    2.6097   22.8712 C   0  0  0  0  0  0  0  0  0  0  0  0
   14.3399    2.8597   22.8238 H   0  0  0  0  0  0  0  0  0  0  0  0
   12.8590    1.3337   22.4872 C   0  0  0  0  0  0  0  0  0  0  0  0
   14.0869    0.1384   22.1383 Cl  0  0  0  0  0  0  0  0  0  0  0  0
    9.8859   -0.0573   20.7022 C   0  0  0  0  0  0  0  0  0  0  0  0
    9.7926    0.9923   20.4005 H   0  0  0  0  0  0  0  0  0  0  0  0
   10.1642   -0.6072   19.8039 H   0  0  0  0  0  0  0  0  0  0  0  0
    5.2885    0.6614   20.1103 C   0  0  0  0  0  0  0  0  0  0  0  0
    4.8065    0.7020   21.0897 H   0  0  0  0  0  0  0  0  0  0  0  0
    4.7290    1.3324   19.0224 C   0  0  0  0  0  0  0  0  0  0  0  0
    3.8115    1.9025   19.1228 H   0  0  0  0  0  0  0  0  0  0  0  0
  1  2  1  0
  2  3  2  0
  3  4  1  0
  4  5  1  0
  4  6  2  0
  6  7  1  0
  7  8  2  0
  8  9  1  0
  9 10  2  0
 10 11  1  0
 11 12  1  0
  9 13  1  0
 13 14  1  0
 13 15  1  0
 13 16  1  0
 16 17  1  6
 16 18  1  0
 18 19  2  0
 19 20  1  0
 19 21  1  0
 21 22  1  0
 21 23  2  0
 23 24  1  0
 23 25  1  0
 25 26  1  0
 25 27  2  0
 27 28  1  0
 16 29  1  0
 29 30  1  0
 29 31  1  0
  6 32  1  0
 32 33  1  0
 32 34  2  0
 34 35  1  0
 34  2  1  0
 11  7  1  0
 27 18  1  0
 29  8  1  0
M  END
>  <cnnaffinity>  (1) 
-5.86741

>  <filename>  (1) 
Clc1ccccc1[C@H]1Cc2n[nH]c(-c3cccnc3)c2C1

$$$$
