
     RDKit          3D

 34 37  0  0  0  0  0  0  0  0999 V2000
    5.0172    1.7646   16.9241 H   0  0  0  0  0  0  0  0  0  0  0  0
    5.4479    1.2762   17.7965 C   0  0  0  0  0  0  0  0  0  0  0  0
    6.5888    0.6016   17.5885 N   0  0  0  0  0  0  0  0  0  0  0  0
    7.1439   -0.0141   18.6379 C   0  0  0  0  0  0  0  0  0  0  0  0
    8.0473   -0.5854   18.4322 H   0  0  0  0  0  0  0  0  0  0  0  0
    6.6317    0.0610   19.9424 C   0  0  0  0  0  0  0  0  0  0  0  0
    7.3767   -0.5625   21.0318 C   0  0  0  0  0  0  0  0  0  0  0  0
    7.7980   -1.8623   20.8915 N   0  0  0  0  0  0  0  0  0  0  0  0
    8.3613   -2.1313   22.0349 C   0  0  0  0  0  0  0  0  0  0  0  0
    9.1273   -3.5216   22.7441 S   0  0  0  0  0  0  0  0  0  0  0  0
    9.4936   -2.5849   24.1752 C   0  0  0  0  0  0  0  0  0  0  0  0
   10.0019   -3.0784   24.9907 H   0  0  0  0  0  0  0  0  0  0  0  0
    9.0400   -1.3210   24.0965 C   0  0  0  0  0  0  0  0  0  0  0  0
    9.1000   -0.5268   24.8257 H   0  0  0  0  0  0  0  0  0  0  0  0
    8.3940   -1.0660   22.8945 N   0  0  0  0  0  0  0  0  0  0  0  0
    7.7591   -0.0163   22.2552 C   0  0  0  0  0  0  0  0  0  0  0  0
    7.6190    1.3357   22.8966 C   0  0  0  0  0  0  0  0  0  0  0  0
    8.6172    1.7688   23.0324 H   0  0  0  0  0  0  0  0  0  0  0  0
    7.1007    1.9873   22.1834 H   0  0  0  0  0  0  0  0  0  0  0  0
    6.9005    1.2976   24.2451 C   0  0  0  0  0  0  0  0  0  0  0  0
    7.5301    1.6604   25.4432 C   0  0  0  0  0  0  0  0  0  0  0  0
    8.5351    2.0696   25.4095 H   0  0  0  0  0  0  0  0  0  0  0  0
    6.8865    1.4714   26.6750 C   0  0  0  0  0  0  0  0  0  0  0  0
    7.3992    1.7612   27.5880 H   0  0  0  0  0  0  0  0  0  0  0  0
    5.6075    0.9109   26.7237 C   0  0  0  0  0  0  0  0  0  0  0  0
    5.1204    0.7226   27.6751 H   0  0  0  0  0  0  0  0  0  0  0  0
    4.9668    0.5921   25.5255 C   0  0  0  0  0  0  0  0  0  0  0  0
    3.3868   -0.1274   25.5677 Cl  0  0  0  0  0  0  0  0  0  0  0  0
    5.5920    0.8136   24.2984 C   0  0  0  0  0  0  0  0  0  0  0  0
    5.0705    0.6135   23.3747 H   0  0  0  0  0  0  0  0  0  0  0  0
    5.4172    0.7340   20.1320 C   0  0  0  0  0  0  0  0  0  0  0  0
    4.9467    0.7483   21.1156 H   0  0  0  0  0  0  0  0  0  0  0  0
    4.8092    1.3468   19.0379 C   0  0  0  0  0  0  0  0  0  0  0  0
    3.8664    1.8708   19.1376 H   0  0  0  0  0  0  0  0  0  0  0  0
  1  2  1  0
  2  3  2  0
  3  4  1  0
  4  5  1  0
  4  6  2  0
  6  7  1  0
  7  8  1  0
  8  9  2  0
  9 10  1  0
 10 11  1  0
 11 12  1  0
 11 13  2  0
 13 14  1  0
 13 15  1  0
 15 16  1  0
 16 17  1  0
 17 18  1  0
 17 19  1  0
 17 20  1  0
 20 21  2  0
 21 22  1  0
 21 23  1  0
 23 24  1  0
 23 25  2  0
 25 26  1  0
 25 27  1  0
 27 28  1  0
 27 29  2  0
 29 30  1  0
  6 31  1  0
 31 32  1  0
 31 33  2  0
 33 34  1  0
 33  2  1  0
 16  7  2  0
 29 20  1  0
 15  9  1  0
M  END
>  <cnnaffinity>  (1) 
-5.67481

>  <filename>  (1) 
Clc1cccc(Cc2c(-c3cccnc3)nc3sccn23)c1

$$$$
