
     RDKit          3D

 28 30  0  0  0  0  0  0  0  0999 V2000
    4.9121    1.7896   16.9869 H   0  0  0  0  0  0  0  0  0  0  0  0
    5.3927    1.2998   17.8273 C   0  0  0  0  0  0  0  0  0  0  0  0
    6.5562    0.6849   17.5605 N   0  0  0  0  0  0  0  0  0  0  0  0
    7.1618    0.0722   18.5816 C   0  0  0  0  0  0  0  0  0  0  0  0
    8.1053   -0.4209   18.3588 H   0  0  0  0  0  0  0  0  0  0  0  0
    6.6614    0.0113   19.8980 C   0  0  0  0  0  0  0  0  0  0  0  0
    7.3756   -0.7038   20.9699 C   0  0  0  0  0  0  0  0  0  0  0  0
    8.7403   -1.0847   21.0544 C   0  0  0  0  0  0  0  0  0  0  0  0
    9.5036   -0.8856   20.3140 H   0  0  0  0  0  0  0  0  0  0  0  0
    9.0236   -1.7202   22.1729 N   0  0  0  0  0  0  0  0  0  0  0  0
    7.8556   -1.7657   22.8609 N   0  0  0  0  0  0  0  0  0  0  0  0
    7.7531   -2.3930   24.1404 C   0  0  0  0  0  0  0  0  0  0  0  0
    6.6313   -2.1696   24.9601 C   0  0  0  0  0  0  0  0  0  0  0  0
    5.8174   -1.5111   24.6758 H   0  0  0  0  0  0  0  0  0  0  0  0
    6.5688   -2.8028   26.2023 C   0  0  0  0  0  0  0  0  0  0  0  0
    5.1929   -2.5331   27.2221 Cl  0  0  0  0  0  0  0  0  0  0  0  0
    7.5769   -3.6486   26.6609 C   0  0  0  0  0  0  0  0  0  0  0  0
    7.5116   -4.1340   27.6303 H   0  0  0  0  0  0  0  0  0  0  0  0
    8.6755   -3.8499   25.8239 C   0  0  0  0  0  0  0  0  0  0  0  0
    9.9510   -4.8874   26.3703 Cl  0  0  0  0  0  0  0  0  0  0  0  0
    8.7811   -3.2426   24.5754 C   0  0  0  0  0  0  0  0  0  0  0  0
    9.6531   -3.4149   23.9550 H   0  0  0  0  0  0  0  0  0  0  0  0
    6.8661   -1.1711   22.1519 C   0  0  0  0  0  0  0  0  0  0  0  0
    5.8567   -1.1358   22.5025 H   0  0  0  0  0  0  0  0  0  0  0  0
    5.4365    0.6558   20.1476 C   0  0  0  0  0  0  0  0  0  0  0  0
    5.0088    0.6435   21.1533 H   0  0  0  0  0  0  0  0  0  0  0  0
    4.8017    1.3157   19.0953 C   0  0  0  0  0  0  0  0  0  0  0  0
    3.8709    1.8453   19.2531 H   0  0  0  0  0  0  0  0  0  0  0  0
  1  2  1  0
  2  3  2  0
  3  4  1  0
  4  5  1  0
  4  6  2  0
  6  7  1  0
  7  8  1  0
  8  9  1  0
  8 10  2  0
 10 11  1  0
 11 12  1  0
 12 13  2  0
 13 14  1  0
 13 15  1  0
 15 16  1  0
 15 17  2  0
 17 18  1  0
 17 19  1  0
 19 20  1  0
 19 21  2  0
 21 22  1  0
 11 23  1  0
 23 24  1  0
  6 25  1  0
 25 26  1  0
 25 27  2  0
 27 28  1  0
 27  2  1  0
 23  7  2  0
 21 12  1  0
M  END
>  <cnnaffinity>  (1) 
-5.46606

>  <filename>  (1) 
Clc1cc(Cl)cc(-n2cc(-c3cccnc3)cn2)c1

$$$$
