
     RDKit          3D

 31 34  0  0  0  0  0  0  0  0999 V2000
    4.9638    1.8112   16.9731 H   0  0  0  0  0  0  0  0  0  0  0  0
    5.4047    1.2874   17.8214 C   0  0  0  0  0  0  0  0  0  0  0  0
    6.5593    0.6490   17.5786 N   0  0  0  0  0  0  0  0  0  0  0  0
    7.1508    0.0219   18.5985 C   0  0  0  0  0  0  0  0  0  0  0  0
    8.0950   -0.4644   18.3656 H   0  0  0  0  0  0  0  0  0  0  0  0
    6.6411    0.0012   19.9062 C   0  0  0  0  0  0  0  0  0  0  0  0
    7.3973   -0.6652   20.9665 C   0  0  0  0  0  0  0  0  0  0  0  0
    8.0630   -1.8468   20.7468 N   0  0  0  0  0  0  0  0  0  0  0  0
    8.4654   -2.2014   21.9364 C   0  0  0  0  0  0  0  0  0  0  0  0
    9.3298   -3.5418   22.6275 S   0  0  0  0  0  0  0  0  0  0  0  0
    9.4278   -2.7225   24.1687 C   0  0  0  0  0  0  0  0  0  0  0  0
   10.0137   -3.1857   24.9529 H   0  0  0  0  0  0  0  0  0  0  0  0
    8.7484   -1.5603   24.1655 C   0  0  0  0  0  0  0  0  0  0  0  0
    8.6007   -0.8247   24.9489 H   0  0  0  0  0  0  0  0  0  0  0  0
    8.1696   -1.3027   22.9227 N   0  0  0  0  0  0  0  0  0  0  0  0
    7.4958   -0.2733   22.3003 C   0  0  0  0  0  0  0  0  0  0  0  0
    7.0933    0.9494   22.9797 C   0  0  0  0  0  0  0  0  0  0  0  0
    7.3044    2.1860   22.3496 C   0  0  0  0  0  0  0  0  0  0  0  0
    7.7396    2.2300   21.3581 H   0  0  0  0  0  0  0  0  0  0  0  0
    6.8994    3.3542   22.9841 C   0  0  0  0  0  0  0  0  0  0  0  0
    7.1578    4.8808   22.1978 Cl  0  0  0  0  0  0  0  0  0  0  0  0
    6.2792    3.3220   24.2341 C   0  0  0  0  0  0  0  0  0  0  0  0
    5.9654    4.2379   24.7167 H   0  0  0  0  0  0  0  0  0  0  0  0
    6.0658    2.0825   24.8435 C   0  0  0  0  0  0  0  0  0  0  0  0
    5.3035    2.0290   26.4040 Cl  0  0  0  0  0  0  0  0  0  0  0  0
    6.4615    0.8975   24.2327 C   0  0  0  0  0  0  0  0  0  0  0  0
    6.2539   -0.0601   24.6964 H   0  0  0  0  0  0  0  0  0  0  0  0
    5.4130    0.6512   20.1392 C   0  0  0  0  0  0  0  0  0  0  0  0
    4.9727    0.6731   21.1391 H   0  0  0  0  0  0  0  0  0  0  0  0
    4.7894    1.3041   19.0786 C   0  0  0  0  0  0  0  0  0  0  0  0
    3.8591    1.8487   19.2105 H   0  0  0  0  0  0  0  0  0  0  0  0
  1  2  1  0
  2  3  2  0
  3  4  1  0
  4  5  1  0
  4  6  2  0
  6  7  1  0
  7  8  1  0
  8  9  2  0
  9 10  1  0
 10 11  1  0
 11 12  1  0
 11 13  2  0
 13 14  1  0
 13 15  1  0
 15 16  1  0
 16 17  1  0
 17 18  2  0
 18 19  1  0
 18 20  1  0
 20 21  1  0
 20 22  2  0
 22 23  1  0
 22 24  1  0
 24 25  1  0
 24 26  2  0
 26 27  1  0
  6 28  1  0
 28 29  1  0
 28 30  2  0
 30 31  1  0
 30  2  1  0
 16  7  2  0
 26 17  1  0
 15  9  1  0
M  END
>  <cnnaffinity>  (1) 
-5.94643

>  <filename>  (1) 
Clc1cc(Cl)cc(-c2c(-c3cccnc3)nc3sccn23)c1

$$$$
