
     RDKit          3D

 30 32  0  0  0  0  0  0  0  0999 V2000
    4.9809    1.8301   16.7211 H   0  0  0  0  0  0  0  0  0  0  0  0
    5.3942    1.3524   17.6063 C   0  0  0  0  0  0  0  0  0  0  0  0
    6.5624    0.7112   17.4414 N   0  0  0  0  0  0  0  0  0  0  0  0
    7.1153    0.1479   18.5262 C   0  0  0  0  0  0  0  0  0  0  0  0
    8.0666   -0.3552   18.3530 H   0  0  0  0  0  0  0  0  0  0  0  0
    6.5577    0.1866   19.8226 C   0  0  0  0  0  0  0  0  0  0  0  0
    7.2764   -0.3788   20.9962 C   0  0  0  0  0  0  0  0  0  0  0  0
    6.7269   -0.0481   22.6192 S   0  0  0  0  0  0  0  0  0  0  0  0
    7.9888   -0.9764   23.3109 C   0  0  0  0  0  0  0  0  0  0  0  0
    8.1228   -1.0786   24.3756 H   0  0  0  0  0  0  0  0  0  0  0  0
    8.7883   -1.5329   22.3648 C   0  0  0  0  0  0  0  0  0  0  0  0
    9.8603   -2.3662   22.6940 N   0  0  0  0  0  0  0  0  0  0  0  0
   10.5133   -2.5033   21.9362 H   0  0  0  0  0  0  0  0  0  0  0  0
    9.7427   -3.4775   23.5518 C   0  0  0  0  0  0  0  0  0  0  0  0
   10.9066   -4.0139   24.1146 C   0  0  0  0  0  0  0  0  0  0  0  0
   11.8468   -3.5423   23.8726 H   0  0  0  0  0  0  0  0  0  0  0  0
   10.8618   -5.1762   24.8824 C   0  0  0  0  0  0  0  0  0  0  0  0
   11.7626   -5.6152   25.3013 H   0  0  0  0  0  0  0  0  0  0  0  0
    9.6397   -5.8141   25.0736 C   0  0  0  0  0  0  0  0  0  0  0  0
    9.6036   -7.3062   25.9437 Cl  0  0  0  0  0  0  0  0  0  0  0  0
    8.4635   -5.2928   24.5380 C   0  0  0  0  0  0  0  0  0  0  0  0
    7.5210   -5.8060   24.6926 H   0  0  0  0  0  0  0  0  0  0  0  0
    8.5195   -4.1092   23.8011 C   0  0  0  0  0  0  0  0  0  0  0  0
    7.6194   -3.6610   23.3961 H   0  0  0  0  0  0  0  0  0  0  0  0
    8.4069   -1.1543   21.0401 C   0  0  0  0  0  0  0  0  0  0  0  0
    8.9962   -1.4360   20.1743 H   0  0  0  0  0  0  0  0  0  0  0  0
    5.3040    0.8255   19.9522 C   0  0  0  0  0  0  0  0  0  0  0  0
    4.7995    0.8644   20.9195 H   0  0  0  0  0  0  0  0  0  0  0  0
    4.7240    1.4202   18.8324 C   0  0  0  0  0  0  0  0  0  0  0  0
    3.7808    1.9505   18.9052 H   0  0  0  0  0  0  0  0  0  0  0  0
  1  2  1  0
  2  3  2  0
  3  4  1  0
  4  5  1  0
  4  6  2  0
  6  7  1  0
  7  8  1  0
  8  9  1  0
  9 10  1  0
  9 11  2  0
 11 12  1  0
 12 13  1  0
 12 14  1  0
 14 15  2  0
 15 16  1  0
 15 17  1  0
 17 18  1  0
 17 19  2  0
 19 20  1  0
 19 21  1  0
 21 22  1  0
 21 23  2  0
 23 24  1  0
 11 25  1  0
 25 26  1  0
  6 27  1  0
 27 28  1  0
 27 29  2  0
 29 30  1  0
 29  2  1  0
 25  7  2  0
 23 14  1  0
M  END
>  <cnnaffinity>  (1) 
-5.43788

>  <filename>  (1) 
Clc1ccc(Nc2csc(-c3cccnc3)c2)cc1

$$$$
