
     RDKit          3D

 31 33  0  0  0  0  0  0  0  0999 V2000
    5.1258    1.8858   16.7928 H   0  0  0  0  0  0  0  0  0  0  0  0
    5.5173    1.3383   17.6485 C   0  0  0  0  0  0  0  0  0  0  0  0
    6.6532    0.6536   17.4439 N   0  0  0  0  0  0  0  0  0  0  0  0
    7.1523   -0.0181   18.4892 C   0  0  0  0  0  0  0  0  0  0  0  0
    8.0737   -0.5631   18.2988 H   0  0  0  0  0  0  0  0  0  0  0  0
    6.5696   -0.0755   19.7691 C   0  0  0  0  0  0  0  0  0  0  0  0
    7.2104   -0.8873   20.8307 C   0  0  0  0  0  0  0  0  0  0  0  0
    6.2943   -1.6060   22.1066 S   0  0  0  0  0  0  0  0  0  0  0  0
    7.7061   -2.1725   22.8959 C   0  0  0  0  0  0  0  0  0  0  0  0
    7.6293   -2.6982   23.8371 H   0  0  0  0  0  0  0  0  0  0  0  0
    8.8445   -1.8622   22.2141 C   0  0  0  0  0  0  0  0  0  0  0  0
   10.2557   -2.1186   22.7097 C   0  0  0  0  0  0  0  0  0  0  0  0
   10.8229   -2.6512   21.9354 H   0  0  0  0  0  0  0  0  0  0  0  0
   10.2331   -2.7681   23.5945 H   0  0  0  0  0  0  0  0  0  0  0  0
   10.9699   -0.8235   23.0676 C   0  0  0  0  0  0  0  0  0  0  0  0
   11.6971   -0.1023   22.1020 C   0  0  0  0  0  0  0  0  0  0  0  0
   11.7126   -0.4609   21.0730 H   0  0  0  0  0  0  0  0  0  0  0  0
   12.3962    1.0575   22.4413 C   0  0  0  0  0  0  0  0  0  0  0  0
   12.9752    1.5907   21.6900 H   0  0  0  0  0  0  0  0  0  0  0  0
   12.3162    1.5638   23.7415 C   0  0  0  0  0  0  0  0  0  0  0  0
   12.8483    2.4748   23.9956 H   0  0  0  0  0  0  0  0  0  0  0  0
   11.5294    0.9208   24.7021 C   0  0  0  0  0  0  0  0  0  0  0  0
   11.3793    1.3186   25.7030 H   0  0  0  0  0  0  0  0  0  0  0  0
   10.8692   -0.2588   24.3524 C   0  0  0  0  0  0  0  0  0  0  0  0
    9.8399   -0.9827   25.5595 Cl  0  0  0  0  0  0  0  0  0  0  0  0
    8.5376   -1.1602   21.0009 C   0  0  0  0  0  0  0  0  0  0  0  0
    9.2933   -0.8918   20.2689 H   0  0  0  0  0  0  0  0  0  0  0  0
    5.3899    0.6726   19.9640 C   0  0  0  0  0  0  0  0  0  0  0  0
    4.9115    0.7108   20.9436 H   0  0  0  0  0  0  0  0  0  0  0  0
    4.8591    1.3776   18.8828 C   0  0  0  0  0  0  0  0  0  0  0  0
    3.9534    1.9655   18.9874 H   0  0  0  0  0  0  0  0  0  0  0  0
  1  2  1  0
  2  3  2  0
  3  4  1  0
  4  5  1  0
  4  6  2  0
  6  7  1  0
  7  8  1  0
  8  9  1  0
  9 10  1  0
  9 11  2  0
 11 12  1  0
 12 13  1  0
 12 14  1  0
 12 15  1  0
 15 16  2  0
 16 17  1  0
 16 18  1  0
 18 19  1  0
 18 20  2  0
 20 21  1  0
 20 22  1  0
 22 23  1  0
 22 24  2  0
 24 25  1  0
 11 26  1  0
 26 27  1  0
  6 28  1  0
 28 29  1  0
 28 30  2  0
 30 31  1  0
 30  2  1  0
 26  7  2  0
 24 15  1  0
M  END
>  <cnnaffinity>  (1) 
-5.09607

>  <filename>  (1) 
Clc1ccccc1Cc1csc(-c2cccnc2)c1

$$$$
