
     RDKit          3D

 30 32  0  0  0  0  0  0  0  0999 V2000
    4.9813    1.7718   17.0694 H   0  0  0  0  0  0  0  0  0  0  0  0
    5.4483    1.3138   17.9398 C   0  0  0  0  0  0  0  0  0  0  0  0
    6.6325    0.7221   17.7184 N   0  0  0  0  0  0  0  0  0  0  0  0
    7.2298    0.1420   18.7671 C   0  0  0  0  0  0  0  0  0  0  0  0
    8.1986   -0.3221   18.5730 H   0  0  0  0  0  0  0  0  0  0  0  0
    6.7001    0.1147   20.0760 C   0  0  0  0  0  0  0  0  0  0  0  0
    7.4155   -0.5694   21.1715 C   0  0  0  0  0  0  0  0  0  0  0  0
    8.1181   -1.7496   21.2276 C   0  0  0  0  0  0  0  0  0  0  0  0
    8.2502   -2.4730   20.4352 H   0  0  0  0  0  0  0  0  0  0  0  0
    8.6809   -1.9640   22.4552 N   0  0  0  0  0  0  0  0  0  0  0  0
    8.3345   -0.9227   23.1699 C   0  0  0  0  0  0  0  0  0  0  0  0
    8.5782   -0.7172   24.2106 H   0  0  0  0  0  0  0  0  0  0  0  0
    7.5399   -0.0605   22.4651 N   0  0  0  0  0  0  0  0  0  0  0  0
    7.1374    1.1748   22.9492 N   0  0  0  0  0  0  0  0  0  0  0  0
    6.8650    1.8293   22.2319 H   0  0  0  0  0  0  0  0  0  0  0  0
    6.5746    1.3005   24.2328 C   0  0  0  0  0  0  0  0  0  0  0  0
    6.7032    2.5238   24.8975 C   0  0  0  0  0  0  0  0  0  0  0  0
    7.1518    3.3611   24.3744 H   0  0  0  0  0  0  0  0  0  0  0  0
    6.3132    2.6557   26.2332 C   0  0  0  0  0  0  0  0  0  0  0  0
    6.4257    3.5968   26.7591 H   0  0  0  0  0  0  0  0  0  0  0  0
    5.7666    1.5622   26.9083 C   0  0  0  0  0  0  0  0  0  0  0  0
    5.3312    1.7031   28.5865 Cl  0  0  0  0  0  0  0  0  0  0  0  0
    5.5770    0.3516   26.2411 C   0  0  0  0  0  0  0  0  0  0  0  0
    5.1339   -0.4844   26.7692 H   0  0  0  0  0  0  0  0  0  0  0  0
    5.9691    0.2281   24.9071 C   0  0  0  0  0  0  0  0  0  0  0  0
    5.8466   -0.7048   24.3736 H   0  0  0  0  0  0  0  0  0  0  0  0
    5.4754    0.7763   20.2858 C   0  0  0  0  0  0  0  0  0  0  0  0
    5.0475    0.8109   21.2885 H   0  0  0  0  0  0  0  0  0  0  0  0
    4.8272    1.3608   19.1934 C   0  0  0  0  0  0  0  0  0  0  0  0
    3.8725    1.8654   19.3048 H   0  0  0  0  0  0  0  0  0  0  0  0
  1  2  1  0
  2  3  2  0
  3  4  1  0
  4  5  1  0
  4  6  2  0
  6  7  1  0
  7  8  2  0
  8  9  1  0
  8 10  1  0
 10 11  2  0
 11 12  1  0
 11 13  1  0
 13 14  1  0
 14 15  1  0
 14 16  1  0
 16 17  2  0
 17 18  1  0
 17 19  1  0
 19 20  1  0
 19 21  2  0
 21 22  1  0
 21 23  1  0
 23 24  1  0
 23 25  2  0
 25 26  1  0
  6 27  1  0
 27 28  1  0
 27 29  2  0
 29 30  1  0
 29  2  1  0
 13  7  1  0
 25 16  1  0
M  END
>  <cnnaffinity>  (1) 
-5.11737

>  <filename>  (1) 
Clc1ccc(Nn2cncc2-c2cccnc2)cc1

$$$$
