
     RDKit          3D

 25 26  0  0  0  0  0  0  0  0999 V2000
    4.9488    1.8537   16.9937 H   0  0  0  0  0  0  0  0  0  0  0  0
    5.3923    1.2845   17.8079 C   0  0  0  0  0  0  0  0  0  0  0  0
    6.5434    0.6526   17.5274 N   0  0  0  0  0  0  0  0  0  0  0  0
    7.1485    0.0005   18.5295 C   0  0  0  0  0  0  0  0  0  0  0  0
    8.0939   -0.4826   18.2811 H   0  0  0  0  0  0  0  0  0  0  0  0
    6.6496   -0.0643   19.8475 C   0  0  0  0  0  0  0  0  0  0  0  0
    7.5686   -0.9074   21.1286 S   0  0  0  0  0  0  0  0  0  0  0  0
    8.6302    0.4568   21.7663 C   0  0  0  0  0  0  0  0  0  0  0  0
    9.3652   -0.0215   22.4180 H   0  0  0  0  0  0  0  0  0  0  0  0
    9.1833    0.8825   20.9201 H   0  0  0  0  0  0  0  0  0  0  0  0
    7.8724    1.5692   22.4539 C   0  0  0  0  0  0  0  0  0  0  0  0
    7.6139    2.7151   21.6907 C   0  0  0  0  0  0  0  0  0  0  0  0
    8.0320    2.7359   20.6966 H   0  0  0  0  0  0  0  0  0  0  0  0
    6.8424    3.7779   22.1579 C   0  0  0  0  0  0  0  0  0  0  0  0
    6.6379    4.6307   21.5131 H   0  0  0  0  0  0  0  0  0  0  0  0
    6.3190    3.7213   23.4512 C   0  0  0  0  0  0  0  0  0  0  0  0
    5.7011    4.5357   23.8183 H   0  0  0  0  0  0  0  0  0  0  0  0
    6.5747    2.6029   24.2536 C   0  0  0  0  0  0  0  0  0  0  0  0
    6.1572    2.5248   25.2513 H   0  0  0  0  0  0  0  0  0  0  0  0
    7.3470    1.5403   23.7607 C   0  0  0  0  0  0  0  0  0  0  0  0
    7.6212    0.1633   24.7929 Cl  0  0  0  0  0  0  0  0  0  0  0  0
    5.4258    0.5762   20.1081 C   0  0  0  0  0  0  0  0  0  0  0  0
    5.0187    0.5694   21.1214 H   0  0  0  0  0  0  0  0  0  0  0  0
    4.7864    1.2631   19.0682 C   0  0  0  0  0  0  0  0  0  0  0  0
    3.8578    1.8076   19.2239 H   0  0  0  0  0  0  0  0  0  0  0  0
  1  2  1  0
  2  3  2  0
  3  4  1  0
  4  5  1  0
  4  6  2  0
  6  7  1  0
  7  8  1  0
  8  9  1  0
  8 10  1  0
  8 11  1  0
 11 12  2  0
 12 13  1  0
 12 14  1  0
 14 15  1  0
 14 16  2  0
 16 17  1  0
 16 18  1  0
 18 19  1  0
 18 20  2  0
 20 21  1  0
  6 22  1  0
 22 23  1  0
 22 24  2  0
 24 25  1  0
 24  2  1  0
 20 11  1  0
M  END
>  <cnnaffinity>  (1) 
-4.72708

>  <filename>  (1) 
Clc1ccccc1CSc1cccnc1

$$$$
