
     RDKit          3D

 27 29  0  0  0  0  0  0  0  0999 V2000
    4.9389    1.8475   16.9843 H   0  0  0  0  0  0  0  0  0  0  0  0
    5.4019    1.3018   17.8037 C   0  0  0  0  0  0  0  0  0  0  0  0
    6.5486    0.6628   17.5218 N   0  0  0  0  0  0  0  0  0  0  0  0
    7.1603    0.0066   18.5180 C   0  0  0  0  0  0  0  0  0  0  0  0
    8.1048   -0.4751   18.2661 H   0  0  0  0  0  0  0  0  0  0  0  0
    6.6548   -0.0553   19.8395 C   0  0  0  0  0  0  0  0  0  0  0  0
    7.3360   -0.7751   20.9049 N   0  0  0  0  0  0  0  0  0  0  0  0
    7.1343   -2.1032   21.2142 C   0  0  0  0  0  0  0  0  0  0  0  0
    6.4218   -2.7498   20.7224 H   0  0  0  0  0  0  0  0  0  0  0  0
    7.9002   -2.4912   22.1893 N   0  0  0  0  0  0  0  0  0  0  0  0
    8.6271   -1.4108   22.5891 N   0  0  0  0  0  0  0  0  0  0  0  0
    8.2868   -0.3800   21.8540 C   0  0  0  0  0  0  0  0  0  0  0  0
    8.8233    0.9804   22.1110 C   0  0  0  0  0  0  0  0  0  0  0  0
    8.2936    2.1221   21.4977 C   0  0  0  0  0  0  0  0  0  0  0  0
    7.5517    2.0298   20.7152 H   0  0  0  0  0  0  0  0  0  0  0  0
    8.7395    3.3892   21.8690 C   0  0  0  0  0  0  0  0  0  0  0  0
    8.2302    4.2450   21.4494 H   0  0  0  0  0  0  0  0  0  0  0  0
    9.8252    3.5583   22.7307 C   0  0  0  0  0  0  0  0  0  0  0  0
   10.2522    4.5406   22.9363 H   0  0  0  0  0  0  0  0  0  0  0  0
   10.3884    2.4108   23.2949 C   0  0  0  0  0  0  0  0  0  0  0  0
   11.7890    2.5760   24.3106 Cl  0  0  0  0  0  0  0  0  0  0  0  0
    9.8723    1.1380   23.0463 C   0  0  0  0  0  0  0  0  0  0  0  0
   10.3064    0.2744   23.5472 H   0  0  0  0  0  0  0  0  0  0  0  0
    5.4460    0.5986   20.1098 C   0  0  0  0  0  0  0  0  0  0  0  0
    5.0439    0.6006   21.1255 H   0  0  0  0  0  0  0  0  0  0  0  0
    4.8124    1.2924   19.0704 C   0  0  0  0  0  0  0  0  0  0  0  0
    3.8890    1.8362   19.2374 H   0  0  0  0  0  0  0  0  0  0  0  0
  1  2  1  0
  2  3  2  0
  3  4  1  0
  4  5  1  0
  4  6  2  0
  6  7  1  0
  7  8  1  0
  8  9  1  0
  8 10  2  0
 10 11  1  0
 11 12  2  0
 12 13  1  0
 13 14  2  0
 14 15  1  0
 14 16  1  0
 16 17  1  0
 16 18  2  0
 18 19  1  0
 18 20  1  0
 20 21  1  0
 20 22  2  0
 22 23  1  0
  6 24  1  0
 24 25  1  0
 24 26  2  0
 26 27  1  0
 26  2  1  0
 12  7  1  0
 22 13  1  0
M  END
>  <cnnaffinity>  (1) 
-5.07267

>  <filename>  (1) 
Clc1cccc(-c2nncn2-c2cccnc2)c1

$$$$
