
     RDKit          3D

 33 36  0  0  0  0  0  0  0  0999 V2000
    4.9276    1.7745   17.0005 H   0  0  0  0  0  0  0  0  0  0  0  0
    5.4090    1.2866   17.8462 C   0  0  0  0  0  0  0  0  0  0  0  0
    6.5724    0.6663   17.5959 N   0  0  0  0  0  0  0  0  0  0  0  0
    7.1758    0.0545   18.6184 C   0  0  0  0  0  0  0  0  0  0  0  0
    8.1214   -0.4264   18.3733 H   0  0  0  0  0  0  0  0  0  0  0  0
    6.6506    0.0075   19.9228 C   0  0  0  0  0  0  0  0  0  0  0  0
    7.3513   -0.6928   21.0057 C   0  0  0  0  0  0  0  0  0  0  0  0
    6.8567   -0.7981   22.1999 N   0  0  0  0  0  0  0  0  0  0  0  0
    7.7267   -1.4723   22.9837 N   0  0  0  0  0  0  0  0  0  0  0  0
    7.7439   -1.8308   24.3142 C   0  0  0  0  0  0  0  0  0  0  0  0
    6.6906   -1.4786   25.3134 C   0  0  0  0  0  0  0  0  0  0  0  0
    5.7203   -1.8717   24.9832 H   0  0  0  0  0  0  0  0  0  0  0  0
    6.9353   -1.9780   26.2579 H   0  0  0  0  0  0  0  0  0  0  0  0
    6.6035    0.0212   25.5292 C   0  0  0  0  0  0  0  0  0  0  0  0
    5.6175    0.7633   24.8703 C   0  0  0  0  0  0  0  0  0  0  0  0
    4.9272    0.2340   24.2348 H   0  0  0  0  0  0  0  0  0  0  0  0
    5.5274    2.1478   24.9847 C   0  0  0  0  0  0  0  0  0  0  0  0
    4.7473    2.6857   24.4522 H   0  0  0  0  0  0  0  0  0  0  0  0
    6.4486    2.8216   25.7862 C   0  0  0  0  0  0  0  0  0  0  0  0
    6.3847    3.8978   25.8915 H   0  0  0  0  0  0  0  0  0  0  0  0
    7.4558    2.1173   26.4509 C   0  0  0  0  0  0  0  0  0  0  0  0
    8.1797    2.6284   27.0779 H   0  0  0  0  0  0  0  0  0  0  0  0
    7.5303    0.7289   26.3086 C   0  0  0  0  0  0  0  0  0  0  0  0
    8.8047   -0.1057   27.1483 Cl  0  0  0  0  0  0  0  0  0  0  0  0
    8.9538   -2.4588   24.4554 C   0  0  0  0  0  0  0  0  0  0  0  0
    9.3611   -2.8634   25.3725 H   0  0  0  0  0  0  0  0  0  0  0  0
    9.6671   -2.5194   23.2817 N   0  0  0  0  0  0  0  0  0  0  0  0
    8.8943   -1.9055   22.4300 C   0  0  0  0  0  0  0  0  0  0  0  0
    8.9362   -1.4533   20.7545 S   0  0  0  0  0  0  0  0  0  0  0  0
    5.4281    0.6567   20.1659 C   0  0  0  0  0  0  0  0  0  0  0  0
    4.9972    0.6369   21.1703 H   0  0  0  0  0  0  0  0  0  0  0  0
    4.8036    1.3106   19.1077 C   0  0  0  0  0  0  0  0  0  0  0  0
    3.8718    1.8450   19.2570 H   0  0  0  0  0  0  0  0  0  0  0  0
  1  2  1  0
  2  3  2  0
  3  4  1  0
  4  5  1  0
  4  6  2  0
  6  7  1  0
  7  8  2  0
  8  9  1  0
  9 10  1  0
 10 11  1  0
 11 12  1  0
 11 13  1  0
 11 14  1  0
 14 15  2  0
 15 16  1  0
 15 17  1  0
 17 18  1  0
 17 19  2  0
 19 20  1  0
 19 21  1  0
 21 22  1  0
 21 23  2  0
 23 24  1  0
 10 25  2  0
 25 26  1  0
 25 27  1  0
 27 28  2  0
 28 29  1  0
  6 30  1  0
 30 31  1  0
 30 32  2  0
 32 33  1  0
 32  2  1  0
 29  7  1  0
 28  9  1  0
 23 14  1  0
M  END
>  <cnnaffinity>  (1) 
-5.69299

>  <filename>  (1) 
Clc1ccccc1Cc1cnc2sc(-c3cccnc3)nn12

$$$$
