
     RDKit          3D

 30 32  0  0  0  0  0  0  0  0999 V2000
    4.9223    1.8332   17.0007 H   0  0  0  0  0  0  0  0  0  0  0  0
    5.3934    1.3088   17.8277 C   0  0  0  0  0  0  0  0  0  0  0  0
    6.5512    0.6858   17.5517 N   0  0  0  0  0  0  0  0  0  0  0  0
    7.1659    0.0392   18.5529 C   0  0  0  0  0  0  0  0  0  0  0  0
    8.1121   -0.4510   18.3183 H   0  0  0  0  0  0  0  0  0  0  0  0
    6.6651   -0.0358   19.8772 C   0  0  0  0  0  0  0  0  0  0  0  0
    7.3318   -0.7376   20.8945 N   0  0  0  0  0  0  0  0  0  0  0  0
    6.7830   -1.0026   21.7061 H   0  0  0  0  0  0  0  0  0  0  0  0
    8.7270   -0.7481   21.0811 C   0  0  0  0  0  0  0  0  0  0  0  0
    9.7044    0.1965   20.6803 C   0  0  0  0  0  0  0  0  0  0  0  0
    9.5460    1.0869   20.0958 H   0  0  0  0  0  0  0  0  0  0  0  0
   10.9195   -0.1205   21.1112 N   0  0  0  0  0  0  0  0  0  0  0  0
   10.7338   -1.2612   21.7900 N   0  0  0  0  0  0  0  0  0  0  0  0
   11.5365   -1.7704   22.1363 H   0  0  0  0  0  0  0  0  0  0  0  0
    9.4440   -1.6983   21.7933 C   0  0  0  0  0  0  0  0  0  0  0  0
    8.9945   -2.8939   22.5114 C   0  0  0  0  0  0  0  0  0  0  0  0
    9.6050   -3.2668   23.7262 C   0  0  0  0  0  0  0  0  0  0  0  0
   10.4552   -2.7000   24.1036 H   0  0  0  0  0  0  0  0  0  0  0  0
    9.0774   -4.3093   24.4840 C   0  0  0  0  0  0  0  0  0  0  0  0
    9.5452   -4.6123   25.4216 H   0  0  0  0  0  0  0  0  0  0  0  0
    7.9139   -4.9613   24.0516 C   0  0  0  0  0  0  0  0  0  0  0  0
    7.0565   -5.9566   25.1739 Cl  0  0  0  0  0  0  0  0  0  0  0  0
    7.4007   -4.7078   22.7679 C   0  0  0  0  0  0  0  0  0  0  0  0
    6.1348   -5.6813   22.0878 Cl  0  0  0  0  0  0  0  0  0  0  0  0
    7.9232   -3.6558   22.0106 C   0  0  0  0  0  0  0  0  0  0  0  0
    7.4874   -3.4356   21.0372 H   0  0  0  0  0  0  0  0  0  0  0  0
    5.4460    0.6118   20.1333 C   0  0  0  0  0  0  0  0  0  0  0  0
    5.0308    0.5983   21.1394 H   0  0  0  0  0  0  0  0  0  0  0  0
    4.8036    1.2989   19.0968 C   0  0  0  0  0  0  0  0  0  0  0  0
    3.8717    1.8362   19.2590 H   0  0  0  0  0  0  0  0  0  0  0  0
  1  2  1  0
  2  3  2  0
  3  4  1  0
  4  5  1  0
  4  6  2  0
  6  7  1  0
  7  8  1  0
  7  9  1  0
  9 10  1  0
 10 11  1  0
 10 12  2  0
 12 13  1  0
 13 14  1  0
 13 15  1  0
 15 16  1  0
 16 17  2  0
 17 18  1  0
 17 19  1  0
 19 20  1  0
 19 21  2  0
 21 22  1  0
 21 23  1  0
 23 24  1  0
 23 25  2  0
 25 26  1  0
  6 27  1  0
 27 28  1  0
 27 29  2  0
 29 30  1  0
 29  2  1  0
 15  9  2  0
 25 16  1  0
M  END
>  <cnnaffinity>  (1) 
-5.85773

>  <filename>  (1) 
Clc1ccc(-c2[nH]ncc2Nc2cccnc2)cc1Cl

$$$$
