
     RDKit          3D

 34 37  0  0  0  0  0  0  0  0999 V2000
    5.1322    1.6800   16.7427 H   0  0  0  0  0  0  0  0  0  0  0  0
    5.5593    1.2299   17.6391 C   0  0  0  0  0  0  0  0  0  0  0  0
    6.6953    0.5356   17.4708 N   0  0  0  0  0  0  0  0  0  0  0  0
    7.2337   -0.0490   18.5496 C   0  0  0  0  0  0  0  0  0  0  0  0
    8.1688   -0.5820   18.3863 H   0  0  0  0  0  0  0  0  0  0  0  0
    6.6710    0.0323   19.8381 C   0  0  0  0  0  0  0  0  0  0  0  0
    7.2674   -0.6709   20.9749 C   0  0  0  0  0  0  0  0  0  0  0  0
    8.0123   -1.8329   20.8318 N   0  0  0  0  0  0  0  0  0  0  0  0
    8.2645   -2.1980   22.0500 C   0  0  0  0  0  0  0  0  0  0  0  0
    7.7207   -1.3877   23.0116 N   0  0  0  0  0  0  0  0  0  0  0  0
    7.1277   -0.3726   22.3196 C   0  0  0  0  0  0  0  0  0  0  0  0
    6.4663    0.6628   22.8761 O   0  0  0  0  0  0  0  0  0  0  0  0
    6.7501    1.1902   24.1255 C   0  0  0  0  0  0  0  0  0  0  0  0
    5.6433    1.5109   24.9146 C   0  0  0  0  0  0  0  0  0  0  0  0
    4.6553    1.3109   24.5133 H   0  0  0  0  0  0  0  0  0  0  0  0
    5.8350    2.0677   26.1819 C   0  0  0  0  0  0  0  0  0  0  0  0
    4.9836    2.3090   26.8162 H   0  0  0  0  0  0  0  0  0  0  0  0
    7.1361    2.3135   26.6343 C   0  0  0  0  0  0  0  0  0  0  0  0
    7.3496    3.0265   28.2103 Cl  0  0  0  0  0  0  0  0  0  0  0  0
    8.2460    2.0010   25.8393 C   0  0  0  0  0  0  0  0  0  0  0  0
    9.2453    2.1811   26.2228 H   0  0  0  0  0  0  0  0  0  0  0  0
    8.0501    1.4529   24.5633 C   0  0  0  0  0  0  0  0  0  0  0  0
    8.8911    1.2242   23.9114 H   0  0  0  0  0  0  0  0  0  0  0  0
    8.0072   -1.7242   24.3971 C   0  0  0  0  0  0  0  0  0  0  0  0
    8.8874   -1.1747   24.7456 H   0  0  0  0  0  0  0  0  0  0  0  0
    7.1671   -1.4560   25.0396 H   0  0  0  0  0  0  0  0  0  0  0  0
    8.3015   -3.2302   24.3611 C   0  0  0  0  0  0  0  0  0  0  0  0
    8.9445   -3.5484   25.1837 H   0  0  0  0  0  0  0  0  0  0  0  0
    7.3861   -3.8293   24.3779 H   0  0  0  0  0  0  0  0  0  0  0  0
    9.1551   -3.5228   22.7644 S   0  0  0  0  0  0  0  0  0  0  0  0
    5.5017    0.8007   20.0003 C   0  0  0  0  0  0  0  0  0  0  0  0
    5.0744    0.9410   20.9940 H   0  0  0  0  0  0  0  0  0  0  0  0
    4.9309    1.3862   18.8775 C   0  0  0  0  0  0  0  0  0  0  0  0
    4.0225    1.9740   18.9558 H   0  0  0  0  0  0  0  0  0  0  0  0
  1  2  1  0
  2  3  2  0
  3  4  1  0
  4  5  1  0
  4  6  2  0
  6  7  1  0
  7  8  1  0
  8  9  2  0
  9 10  1  0
 10 11  1  0
 11 12  1  0
 12 13  1  0
 13 14  2  0
 14 15  1  0
 14 16  1  0
 16 17  1  0
 16 18  2  0
 18 19  1  0
 18 20  1  0
 20 21  1  0
 20 22  2  0
 22 23  1  0
 10 24  1  0
 24 25  1  0
 24 26  1  0
 24 27  1  0
 27 28  1  0
 27 29  1  0
 27 30  1  0
  6 31  1  0
 31 32  1  0
 31 33  2  0
 33 34  1  0
 33  2  1  0
 11  7  2  0
 22 13  1  0
 30  9  1  0
M  END
>  <cnnaffinity>  (1) 
-5.09932

>  <filename>  (1) 
Clc1ccc(Oc2c(-c3cccnc3)nc3n2CCS3)cc1

$$$$
