
     RDKit          3D

 29 31  0  0  0  0  0  0  0  0999 V2000
    4.9116    1.7919   16.9856 H   0  0  0  0  0  0  0  0  0  0  0  0
    5.3912    1.3020   17.8267 C   0  0  0  0  0  0  0  0  0  0  0  0
    6.5568    0.6899   17.5580 N   0  0  0  0  0  0  0  0  0  0  0  0
    7.1616    0.0632   18.5712 C   0  0  0  0  0  0  0  0  0  0  0  0
    8.1192   -0.4064   18.3424 H   0  0  0  0  0  0  0  0  0  0  0  0
    6.6499    0.0089   19.8825 C   0  0  0  0  0  0  0  0  0  0  0  0
    7.3645   -0.6629   20.9671 C   0  0  0  0  0  0  0  0  0  0  0  0
    7.5075   -0.3197   22.3056 C   0  0  0  0  0  0  0  0  0  0  0  0
    7.0352    0.8505   22.9148 N   0  0  0  0  0  0  0  0  0  0  0  0
    6.9900    1.6640   22.3148 H   0  0  0  0  0  0  0  0  0  0  0  0
    6.8176    1.0433   24.2825 C   0  0  0  0  0  0  0  0  0  0  0  0
    6.3630    0.0139   25.1390 C   0  0  0  0  0  0  0  0  0  0  0  0
    6.1730   -0.9723   24.7235 H   0  0  0  0  0  0  0  0  0  0  0  0
    6.1405    0.1610   26.4523 N   0  0  0  0  0  0  0  0  0  0  0  0
    6.3599    1.3576   26.9694 C   0  0  0  0  0  0  0  0  0  0  0  0
    6.0581    1.5382   28.6690 Cl  0  0  0  0  0  0  0  0  0  0  0  0
    6.7992    2.4656   26.2337 C   0  0  0  0  0  0  0  0  0  0  0  0
    6.9424    3.4118   26.7344 H   0  0  0  0  0  0  0  0  0  0  0  0
    7.0254    2.3067   24.8663 C   0  0  0  0  0  0  0  0  0  0  0  0
    7.3741    3.1391   24.2571 H   0  0  0  0  0  0  0  0  0  0  0  0
    8.2809   -1.3718   22.8566 C   0  0  0  0  0  0  0  0  0  0  0  0
    8.6168   -1.4511   23.8790 H   0  0  0  0  0  0  0  0  0  0  0  0
    8.6024   -2.2877   21.9493 N   0  0  0  0  0  0  0  0  0  0  0  0
    8.0486   -1.8273   20.8183 N   0  0  0  0  0  0  0  0  0  0  0  0
    8.1366   -2.3613   19.9674 H   0  0  0  0  0  0  0  0  0  0  0  0
    5.4335    0.6608   20.1442 C   0  0  0  0  0  0  0  0  0  0  0  0
    5.0160    0.6258   21.1546 H   0  0  0  0  0  0  0  0  0  0  0  0
    4.7961    1.3179   19.0929 C   0  0  0  0  0  0  0  0  0  0  0  0
    3.8661    1.8484   19.2498 H   0  0  0  0  0  0  0  0  0  0  0  0
  1  2  1  0
  2  3  2  0
  3  4  1  0
  4  5  1  0
  4  6  2  0
  6  7  1  0
  7  8  2  0
  8  9  1  0
  9 10  1  0
  9 11  1  0
 11 12  2  0
 12 13  1  0
 12 14  1  0
 14 15  2  0
 15 16  1  0
 15 17  1  0
 17 18  1  0
 17 19  2  0
 19 20  1  0
  8 21  1  0
 21 22  1  0
 21 23  2  0
 23 24  1  0
 24 25  1  0
  6 26  1  0
 26 27  1  0
 26 28  2  0
 28 29  1  0
 28  2  1  0
 24  7  1  0
 19 11  1  0
M  END
>  <cnnaffinity>  (1) 
-5.57403

>  <filename>  (1) 
Clc1ccc(Nc2cn[nH]c2-c2cccnc2)cn1

$$$$
