
     RDKit          3D

 30 33  0  0  0  0  0  0  0  0999 V2000
    4.9093    1.7701   17.0074 H   0  0  0  0  0  0  0  0  0  0  0  0
    5.4052    1.2877   17.8488 C   0  0  0  0  0  0  0  0  0  0  0  0
    6.5745    0.6749   17.5950 N   0  0  0  0  0  0  0  0  0  0  0  0
    7.1849    0.0549   18.6127 C   0  0  0  0  0  0  0  0  0  0  0  0
    8.1323   -0.4371   18.3825 H   0  0  0  0  0  0  0  0  0  0  0  0
    6.6538    0.0117   19.9089 C   0  0  0  0  0  0  0  0  0  0  0  0
    7.3624   -0.6912   20.9677 C   0  0  0  0  0  0  0  0  0  0  0  0
    8.5470   -1.3286   20.7618 N   0  0  0  0  0  0  0  0  0  0  0  0
    8.7908   -1.8082   21.9607 C   0  0  0  0  0  0  0  0  0  0  0  0
    9.9836   -2.8236   22.7148 S   0  0  0  0  0  0  0  0  0  0  0  0
    9.0810   -2.7654   24.2050 C   0  0  0  0  0  0  0  0  0  0  0  0
    9.4532   -3.2887   25.0722 H   0  0  0  0  0  0  0  0  0  0  0  0
    7.9601   -2.0157   24.1255 C   0  0  0  0  0  0  0  0  0  0  0  0
    6.9705   -1.7652   25.1950 C   0  0  0  0  0  0  0  0  0  0  0  0
    6.7648   -2.7495   26.1803 C   0  0  0  0  0  0  0  0  0  0  0  0
    7.3091   -3.6902   26.1357 H   0  0  0  0  0  0  0  0  0  0  0  0
    5.8526   -2.5507   27.2151 C   0  0  0  0  0  0  0  0  0  0  0  0
    5.7014   -3.3172   27.9656 H   0  0  0  0  0  0  0  0  0  0  0  0
    5.1349   -1.3543   27.2772 C   0  0  0  0  0  0  0  0  0  0  0  0
    3.9955   -1.0968   28.5646 Cl  0  0  0  0  0  0  0  0  0  0  0  0
    5.3279   -0.3599   26.3140 C   0  0  0  0  0  0  0  0  0  0  0  0
    4.7717    0.5689   26.3682 H   0  0  0  0  0  0  0  0  0  0  0  0
    6.2424   -0.5622   25.2824 C   0  0  0  0  0  0  0  0  0  0  0  0
    6.3967    0.2174   24.5420 H   0  0  0  0  0  0  0  0  0  0  0  0
    7.8265   -1.4741   22.8400 N   0  0  0  0  0  0  0  0  0  0  0  0
    6.8711   -0.7487   22.2033 N   0  0  0  0  0  0  0  0  0  0  0  0
    5.4371    0.6545   20.1630 C   0  0  0  0  0  0  0  0  0  0  0  0
    5.0071    0.6288   21.1631 H   0  0  0  0  0  0  0  0  0  0  0  0
    4.8058    1.3104   19.1138 C   0  0  0  0  0  0  0  0  0  0  0  0
    3.8718    1.8452   19.2676 H   0  0  0  0  0  0  0  0  0  0  0  0
  1  2  1  0
  2  3  2  0
  3  4  1  0
  4  5  1  0
  4  6  2  0
  6  7  1  0
  7  8  1  0
  8  9  2  0
  9 10  1  0
 10 11  1  0
 11 12  1  0
 11 13  2  0
 13 14  1  0
 14 15  2  0
 15 16  1  0
 15 17  1  0
 17 18  1  0
 17 19  2  0
 19 20  1  0
 19 21  1  0
 21 22  1  0
 21 23  2  0
 23 24  1  0
 13 25  1  0
 25 26  1  0
  6 27  1  0
 27 28  1  0
 27 29  2  0
 29 30  1  0
 29  2  1  0
 26  7  2  0
 25  9  1  0
 23 14  1  0
M  END
>  <cnnaffinity>  (1) 
-5.58647

>  <filename>  (1) 
Clc1ccc(-c2csc3nc(-c4cccnc4)nn23)cc1

$$$$
