
     RDKit          3D

 32 34  0  0  0  0  0  0  0  0999 V2000
    6.8485    0.5674   22.6038 H   0  0  0  0  0  0  0  0  0  0  0  0
    7.3948   -0.3211   22.3179 C   0  0  0  0  0  0  0  0  0  0  0  0
    8.0687   -0.9573   23.2865 N   0  0  0  0  0  0  0  0  0  0  0  0
    8.7545   -2.0573   22.9018 C   0  0  0  0  0  0  0  0  0  0  0  0
    9.4849   -2.8234   23.9711 C   0  0  0  0  0  0  0  0  0  0  0  0
   10.0342   -2.1098   24.5904 H   0  0  0  0  0  0  0  0  0  0  0  0
   10.2211   -3.5002   23.5292 H   0  0  0  0  0  0  0  0  0  0  0  0
    8.5210   -3.6003   24.8480 C   0  0  0  0  0  0  0  0  0  0  0  0
    7.9717   -2.9877   25.9854 C   0  0  0  0  0  0  0  0  0  0  0  0
    8.2792   -1.9729   26.2133 H   0  0  0  0  0  0  0  0  0  0  0  0
    7.0267   -3.6224   26.7916 C   0  0  0  0  0  0  0  0  0  0  0  0
    6.6063   -3.1291   27.6584 H   0  0  0  0  0  0  0  0  0  0  0  0
    6.6056   -4.9083   26.4609 C   0  0  0  0  0  0  0  0  0  0  0  0
    5.8780   -5.4491   27.0612 H   0  0  0  0  0  0  0  0  0  0  0  0
    7.1152   -5.5228   25.3264 C   0  0  0  0  0  0  0  0  0  0  0  0
    6.7286   -6.4832   25.0687 H   0  0  0  0  0  0  0  0  0  0  0  0
    8.0637   -4.8867   24.5267 C   0  0  0  0  0  0  0  0  0  0  0  0
    8.6252   -5.7329   23.1073 Cl  0  0  0  0  0  0  0  0  0  0  0  0
    8.7612   -2.4599   21.5478 C   0  0  0  0  0  0  0  0  0  0  0  0
    9.3177   -3.3397   21.2524 H   0  0  0  0  0  0  0  0  0  0  0  0
    8.1264   -1.7974   20.5741 N   0  0  0  0  0  0  0  0  0  0  0  0
    7.4038   -0.7257   20.9569 C   0  0  0  0  0  0  0  0  0  0  0  0
    6.6607   -0.0067   19.9046 C   0  0  0  0  0  0  0  0  0  0  0  0
    7.1718    0.0431   18.5934 C   0  0  0  0  0  0  0  0  0  0  0  0
    8.1194   -0.4340   18.3604 H   0  0  0  0  0  0  0  0  0  0  0  0
    6.5691    0.6758   17.5836 N   0  0  0  0  0  0  0  0  0  0  0  0
    5.4045    1.2893   17.8453 C   0  0  0  0  0  0  0  0  0  0  0  0
    4.9245    1.7808   17.0023 H   0  0  0  0  0  0  0  0  0  0  0  0
    4.8131    1.3036   19.1110 C   0  0  0  0  0  0  0  0  0  0  0  0
    3.8844    1.8358   19.2597 H   0  0  0  0  0  0  0  0  0  0  0  0
    5.4464    0.6485   20.1642 C   0  0  0  0  0  0  0  0  0  0  0  0
    4.9953    0.6342   21.1590 H   0  0  0  0  0  0  0  0  0  0  0  0
  1  2  1  0
  2  3  2  0
  3  4  1  0
  4  5  1  0
  5  6  1  0
  5  7  1  0
  5  8  1  0
  8  9  2  0
  9 10  1  0
  9 11  1  0
 11 12  1  0
 11 13  2  0
 13 14  1  0
 13 15  1  0
 15 16  1  0
 15 17  2  0
 17 18  1  0
  4 19  2  0
 19 20  1  0
 19 21  1  0
 21 22  2  0
 22 23  1  0
 23 24  2  0
 24 25  1  0
 24 26  1  0
 26 27  2  0
 27 28  1  0
 27 29  1  0
 29 30  1  0
 29 31  2  0
 31 32  1  0
 22  2  1  0
 31 23  1  0
 17  8  1  0
M  END
>  <cnnaffinity>  (1) 
-5.6708

>  <filename>  (1) 
Clc1ccccc1Cc1cnc(-c2cccnc2)cn1

$$$$
