
     RDKit          3D

 32 34  0  0  0  0  0  0  0  0999 V2000
    5.8113   -3.1025   23.6347 Cl  0  0  0  0  0  0  0  0  0  0  0  0
    6.8186   -1.9713   24.5063 C   0  0  0  0  0  0  0  0  0  0  0  0
    6.2352   -1.3014   25.5868 C   0  0  0  0  0  0  0  0  0  0  0  0
    6.9977   -0.3920   26.3194 C   0  0  0  0  0  0  0  0  0  0  0  0
    8.3336   -0.1608   25.9757 C   0  0  0  0  0  0  0  0  0  0  0  0
    8.8966   -0.8386   24.8950 C   0  0  0  0  0  0  0  0  0  0  0  0
    8.1515   -1.7517   24.1276 C   0  0  0  0  0  0  0  0  0  0  0  0
    8.8164   -2.4451   22.9550 C   0  0  0  0  0  0  0  0  0  0  0  0
    9.3662   -1.5012   21.9952 N   0  0  0  0  0  0  0  0  0  0  0  0
   10.6764   -1.1141   21.8671 C   0  0  0  0  0  0  0  0  0  0  0  0
   10.8066   -0.1735   20.9855 N   0  0  0  0  0  0  0  0  0  0  0  0
    9.5505    0.0968   20.4864 N   0  0  0  0  0  0  0  0  0  0  0  0
    8.7099   -0.6723   21.1240 C   0  0  0  0  0  0  0  0  0  0  0  0
    7.3516   -0.7218   20.9331 N   0  0  0  0  0  0  0  0  0  0  0  0
    6.6720   -0.0138   19.9072 C   0  0  0  0  0  0  0  0  0  0  0  0
    5.4521    0.6234   20.1669 C   0  0  0  0  0  0  0  0  0  0  0  0
    4.8162    1.2999   19.1130 C   0  0  0  0  0  0  0  0  0  0  0  0
    5.3925    1.2964   17.8378 C   0  0  0  0  0  0  0  0  0  0  0  0
    6.5513    0.6766   17.5631 N   0  0  0  0  0  0  0  0  0  0  0  0
    7.1732    0.0622   18.5773 C   0  0  0  0  0  0  0  0  0  0  0  0
    8.1294   -0.4109   18.3700 H   0  0  0  0  0  0  0  0  0  0  0  0
    4.9131    1.7916   16.9955 H   0  0  0  0  0  0  0  0  0  0  0  0
    3.8865    1.8331   19.2674 H   0  0  0  0  0  0  0  0  0  0  0  0
    5.0299    0.6151   21.1739 H   0  0  0  0  0  0  0  0  0  0  0  0
    6.8224   -1.0864   21.7136 H   0  0  0  0  0  0  0  0  0  0  0  0
   11.4885   -1.5379   22.4414 H   0  0  0  0  0  0  0  0  0  0  0  0
    9.6496   -3.0574   23.3154 H   0  0  0  0  0  0  0  0  0  0  0  0
    8.1285   -3.1230   22.4463 H   0  0  0  0  0  0  0  0  0  0  0  0
    9.9350   -0.6554   24.6301 H   0  0  0  0  0  0  0  0  0  0  0  0
    8.9367    0.5407   26.5455 H   0  0  0  0  0  0  0  0  0  0  0  0
    6.5510    0.1312   27.1596 H   0  0  0  0  0  0  0  0  0  0  0  0
    5.1969   -1.5080   25.8292 H   0  0  0  0  0  0  0  0  0  0  0  0
  1  2  1  0
  2  3  2  0
  3  4  1  0
  4  5  2  0
  5  6  1  0
  6  7  2  0
  7  8  1  0
  8  9  1  0
  9 10  1  0
 10 11  2  0
 11 12  1  0
 12 13  2  0
 13 14  1  0
 14 15  1  0
 15 16  2  0
 16 17  1  0
 17 18  2  0
 18 19  1  0
 19 20  2  0
 20 21  1  0
 18 22  1  0
 17 23  1  0
 16 24  1  0
 14 25  1  0
 10 26  1  0
  8 27  1  0
  8 28  1  0
  6 29  1  0
  5 30  1  0
  4 31  1  0
  3 32  1  0
  7  2  1  0
 13  9  1  0
 20 15  1  0
M  END
>  <cnnaffinity>  (1) 
-5.42521

>  <filename>  (1) 
Clc1ccccc1Cn1cnnc1Nc1cccnc1

$$$$
