
     RDKit          3D

 31 33  0  0  0  0  0  0  0  0999 V2000
    5.0061    1.8432   16.9587 H   0  0  0  0  0  0  0  0  0  0  0  0
    5.4349    1.2960   17.7960 C   0  0  0  0  0  0  0  0  0  0  0  0
    6.5844    0.6446   17.5603 N   0  0  0  0  0  0  0  0  0  0  0  0
    7.1527   -0.0076   18.5802 C   0  0  0  0  0  0  0  0  0  0  0  0
    8.0936   -0.5145   18.3654 H   0  0  0  0  0  0  0  0  0  0  0  0
    6.6206   -0.0272   19.8811 C   0  0  0  0  0  0  0  0  0  0  0  0
    7.3513   -0.7022   20.9533 C   0  0  0  0  0  0  0  0  0  0  0  0
    7.9672   -1.9144   20.7620 N   0  0  0  0  0  0  0  0  0  0  0  0
    8.4662   -2.2525   21.9165 C   0  0  0  0  0  0  0  0  0  0  0  0
    8.9702   -3.1906   22.1409 H   0  0  0  0  0  0  0  0  0  0  0  0
    8.2306   -1.3042   22.8609 N   0  0  0  0  0  0  0  0  0  0  0  0
    8.6799   -1.2573   23.7637 H   0  0  0  0  0  0  0  0  0  0  0  0
    7.5421   -0.2748   22.2582 C   0  0  0  0  0  0  0  0  0  0  0  0
    7.2858    1.0185   22.9731 C   0  0  0  0  0  0  0  0  0  0  0  0
    6.5827    0.8636   23.8018 H   0  0  0  0  0  0  0  0  0  0  0  0
    6.8242    1.7168   22.2706 H   0  0  0  0  0  0  0  0  0  0  0  0
    8.5630    1.6539   23.4940 C   0  0  0  0  0  0  0  0  0  0  0  0
    8.9535    1.5462   24.8366 C   0  0  0  0  0  0  0  0  0  0  0  0
    8.2815    1.1058   25.5658 H   0  0  0  0  0  0  0  0  0  0  0  0
   10.1816    2.0377   25.2770 C   0  0  0  0  0  0  0  0  0  0  0  0
   10.4786    1.8962   26.3085 H   0  0  0  0  0  0  0  0  0  0  0  0
   11.0209    2.6923   24.3785 C   0  0  0  0  0  0  0  0  0  0  0  0
   11.9646    3.0991   24.7107 H   0  0  0  0  0  0  0  0  0  0  0  0
   10.6552    2.8377   23.0429 C   0  0  0  0  0  0  0  0  0  0  0  0
   11.3120    3.3264   22.3332 H   0  0  0  0  0  0  0  0  0  0  0  0
    9.4303    2.3228   22.6162 C   0  0  0  0  0  0  0  0  0  0  0  0
    8.9811    2.5548   20.9538 Cl  0  0  0  0  0  0  0  0  0  0  0  0
    5.4009    0.6356   20.1007 C   0  0  0  0  0  0  0  0  0  0  0  0
    4.9510    0.6415   21.0946 H   0  0  0  0  0  0  0  0  0  0  0  0
    4.7948    1.3014   19.0389 C   0  0  0  0  0  0  0  0  0  0  0  0
    3.8695    1.8447   19.1759 H   0  0  0  0  0  0  0  0  0  0  0  0
  1  2  1  0
  2  3  2  0
  3  4  1  0
  4  5  1  0
  4  6  2  0
  6  7  1  0
  7  8  1  0
  8  9  2  0
  9 10  1  0
  9 11  1  0
 11 12  1  0
 11 13  1  0
 13 14  1  0
 14 15  1  0
 14 16  1  0
 14 17  1  0
 17 18  2  0
 18 19  1  0
 18 20  1  0
 20 21  1  0
 20 22  2  0
 22 23  1  0
 22 24  1  0
 24 25  1  0
 24 26  2  0
 26 27  1  0
  6 28  1  0
 28 29  1  0
 28 30  2  0
 30 31  1  0
 30  2  1  0
 13  7  2  0
 26 17  1  0
M  END
>  <cnnaffinity>  (1) 
-5.6967

>  <filename>  (1) 
Clc1ccccc1Cc1[nH]cnc1-c1cccnc1

$$$$
