
     RDKit          3D

 35 38  0  0  0  0  0  0  0  0999 V2000
    5.0695    1.6865   16.8689 H   0  0  0  0  0  0  0  0  0  0  0  0
    5.4238    1.2120   17.7789 C   0  0  0  0  0  0  0  0  0  0  0  0
    6.5955    0.5614   17.6813 N   0  0  0  0  0  0  0  0  0  0  0  0
    7.0752    0.0205   18.8037 C   0  0  0  0  0  0  0  0  0  0  0  0
    8.0078   -0.5375   18.7076 H   0  0  0  0  0  0  0  0  0  0  0  0
    6.4417    0.0856   20.0597 C   0  0  0  0  0  0  0  0  0  0  0  0
    7.1912   -0.4299   21.2138 C   0  0  0  0  0  0  0  0  0  0  0  0
    8.5543   -0.4201   21.4078 C   0  0  0  0  0  0  0  0  0  0  0  0
    8.7701   -1.0606   22.6206 C   0  0  0  0  0  0  0  0  0  0  0  0
    7.6529   -1.4709   23.1921 N   0  0  0  0  0  0  0  0  0  0  0  0
    6.6936   -1.0520   22.3200 N   0  0  0  0  0  0  0  0  0  0  0  0
    5.7290   -1.3116   22.4828 H   0  0  0  0  0  0  0  0  0  0  0  0
   10.2268   -1.1236   22.9735 C   0  0  0  0  0  0  0  0  0  0  0  0
   10.6105   -2.1440   22.8517 H   0  0  0  0  0  0  0  0  0  0  0  0
   10.4236   -0.8230   24.0054 H   0  0  0  0  0  0  0  0  0  0  0  0
   10.8796   -0.1348   21.9454 C   0  0  2  0  0  0  0  0  0  0  0  0
   11.8182   -0.5573   21.5612 H   0  0  0  0  0  0  0  0  0  0  0  0
   11.1819    1.2219   22.5668 C   0  0  0  0  0  0  0  0  0  0  0  0
   10.1672    1.9641   23.2024 C   0  0  0  0  0  0  0  0  0  0  0  0
    9.1815    1.5385   23.3799 H   0  0  0  0  0  0  0  0  0  0  0  0
   10.4195    3.2789   23.5868 C   0  0  0  0  0  0  0  0  0  0  0  0
    9.1669    4.2270   24.3256 Cl  0  0  0  0  0  0  0  0  0  0  0  0
   11.6623    3.8789   23.3652 C   0  0  0  0  0  0  0  0  0  0  0  0
   11.8279    4.9172   23.6210 H   0  0  0  0  0  0  0  0  0  0  0  0
   12.6755    3.1149   22.7822 C   0  0  0  0  0  0  0  0  0  0  0  0
   14.2344    3.8453   22.5093 Cl  0  0  0  0  0  0  0  0  0  0  0  0
   12.4565    1.7901   22.4036 C   0  0  0  0  0  0  0  0  0  0  0  0
   13.2679    1.2043   21.9755 H   0  0  0  0  0  0  0  0  0  0  0  0
    9.8404    0.0083   20.7776 C   0  0  0  0  0  0  0  0  0  0  0  0
    9.8086    1.0214   20.3541 H   0  0  0  0  0  0  0  0  0  0  0  0
   10.0963   -0.6808   19.9643 H   0  0  0  0  0  0  0  0  0  0  0  0
    5.1793    0.7008   20.1220 C   0  0  0  0  0  0  0  0  0  0  0  0
    4.6201    0.7339   21.0596 H   0  0  0  0  0  0  0  0  0  0  0  0
    4.6730    1.2849   18.9602 C   0  0  0  0  0  0  0  0  0  0  0  0
    3.7227    1.8120   18.9584 H   0  0  0  0  0  0  0  0  0  0  0  0
  1  2  1  0
  2  3  2  0
  3  4  1  0
  4  5  1  0
  4  6  2  0
  6  7  1  0
  7  8  2  0
  8  9  1  0
  9 10  2  0
 10 11  1  0
 11 12  1  0
  9 13  1  0
 13 14  1  0
 13 15  1  0
 13 16  1  0
 16 17  1  6
 16 18  1  0
 18 19  2  0
 19 20  1  0
 19 21  1  0
 21 22  1  0
 21 23  2  0
 23 24  1  0
 23 25  1  0
 25 26  1  0
 25 27  2  0
 27 28  1  0
 16 29  1  0
 29 30  1  0
 29 31  1  0
  6 32  1  0
 32 33  1  0
 32 34  2  0
 34 35  1  0
 34  2  1  0
 11  7  1  0
 27 18  1  0
 29  8  1  0
M  END
>  <cnnaffinity>  (1) 
-5.61876

>  <filename>  (1) 
Clc1cc(Cl)cc([C@H]2Cc3n[nH]c(-c4cccnc4)c3C2)c1

$$$$
