
     RDKit          3D

 33 35  0  0  0  0  0  0  0  0999 V2000
    5.0361    1.7966   16.9750 H   0  0  0  0  0  0  0  0  0  0  0  0
    5.4663    1.2985   17.8414 C   0  0  0  0  0  0  0  0  0  0  0  0
    6.6318    0.6654   17.6352 N   0  0  0  0  0  0  0  0  0  0  0  0
    7.1837    0.0491   18.6833 C   0  0  0  0  0  0  0  0  0  0  0  0
    8.1067   -0.4976   18.4928 H   0  0  0  0  0  0  0  0  0  0  0  0
    6.6379    0.0643   19.9717 C   0  0  0  0  0  0  0  0  0  0  0  0
    7.3938   -0.6857   20.9880 C   0  0  0  0  0  0  0  0  0  0  0  0
    7.9650   -1.7951   20.7114 N   0  0  0  0  0  0  0  0  0  0  0  0
    8.4425   -2.3682   21.9680 C   0  0  0  0  0  0  0  0  0  0  0  0
    7.8422   -3.2534   22.2317 H   0  0  0  0  0  0  0  0  0  0  0  0
    9.4863   -2.6989   21.8765 H   0  0  0  0  0  0  0  0  0  0  0  0
    8.2915   -1.2541   23.0223 C   0  0  0  0  0  0  0  0  0  0  0  0
    7.7971   -1.5927   23.9414 H   0  0  0  0  0  0  0  0  0  0  0  0
    9.2738   -0.8584   23.3082 H   0  0  0  0  0  0  0  0  0  0  0  0
    7.4966   -0.2429   22.3051 N   0  0  0  0  0  0  0  0  0  0  0  0
    7.6997    1.1679   22.6615 C   0  0  0  0  0  0  0  0  0  0  0  0
    7.0553    1.7924   22.0323 H   0  0  0  0  0  0  0  0  0  0  0  0
    7.3688    1.3182   23.6926 H   0  0  0  0  0  0  0  0  0  0  0  0
    9.1335    1.6637   22.5179 C   0  0  0  0  0  0  0  0  0  0  0  0
    9.6141    1.9723   21.2369 C   0  0  0  0  0  0  0  0  0  0  0  0
    8.8836    1.8969   20.4315 H   0  0  0  0  0  0  0  0  0  0  0  0
   10.9344    2.3838   21.0322 C   0  0  0  0  0  0  0  0  0  0  0  0
   11.3013    2.5944   20.0356 H   0  0  0  0  0  0  0  0  0  0  0  0
   11.7900    2.5527   22.1258 C   0  0  0  0  0  0  0  0  0  0  0  0
   12.8117    2.9054   21.9887 H   0  0  0  0  0  0  0  0  0  0  0  0
   11.3246    2.3055   23.4144 C   0  0  0  0  0  0  0  0  0  0  0  0
   11.9605    2.4688   24.2802 H   0  0  0  0  0  0  0  0  0  0  0  0
   10.0203    1.8342   23.6000 C   0  0  0  0  0  0  0  0  0  0  0  0
    9.5527    1.4186   25.2329 Cl  0  0  0  0  0  0  0  0  0  0  0  0
    5.4138    0.7145   20.1789 C   0  0  0  0  0  0  0  0  0  0  0  0
    4.9372    0.7339   21.1627 H   0  0  0  0  0  0  0  0  0  0  0  0
    4.8176    1.3347   19.0811 C   0  0  0  0  0  0  0  0  0  0  0  0
    3.8774    1.8638   19.1699 H   0  0  0  0  0  0  0  0  0  0  0  0
  1  2  1  0
  2  3  2  0
  3  4  1  0
  4  5  1  0
  4  6  2  0
  6  7  1  0
  7  8  2  0
  8  9  1  0
  9 10  1  0
  9 11  1  0
  9 12  1  0
 12 13  1  0
 12 14  1  0
 12 15  1  0
 15 16  1  0
 16 17  1  0
 16 18  1  0
 16 19  1  0
 19 20  2  0
 20 21  1  0
 20 22  1  0
 22 23  1  0
 22 24  2  0
 24 25  1  0
 24 26  1  0
 26 27  1  0
 26 28  2  0
 28 29  1  0
  6 30  1  0
 30 31  1  0
 30 32  2  0
 32 33  1  0
 32  2  1  0
 15  7  1  0
 28 19  1  0
M  END
>  <cnnaffinity>  (1) 
-5.29036

>  <filename>  (1) 
Clc1ccccc1CN1CCN=C1c1cccnc1

$$$$
