
     RDKit          3D

 31 33  0  0  0  0  0  0  0  0999 V2000
    4.9768    1.7778   16.9964 H   0  0  0  0  0  0  0  0  0  0  0  0
    5.4466    1.2760   17.8423 C   0  0  0  0  0  0  0  0  0  0  0  0
    6.6084    0.6511   17.5998 N   0  0  0  0  0  0  0  0  0  0  0  0
    7.2055    0.0340   18.6228 C   0  0  0  0  0  0  0  0  0  0  0  0
    8.1622   -0.4414   18.4128 H   0  0  0  0  0  0  0  0  0  0  0  0
    6.6693   -0.0289   19.9205 C   0  0  0  0  0  0  0  0  0  0  0  0
    7.3982   -0.7654   20.9917 C   0  0  0  0  0  0  0  0  0  0  0  0
    8.7419   -0.7584   20.9159 N   0  0  0  0  0  0  0  0  0  0  0  0
    9.4670   -1.3623   21.8634 N   0  0  0  0  0  0  0  0  0  0  0  0
    8.8674   -1.9873   22.8749 C   0  0  0  0  0  0  0  0  0  0  0  0
    9.5158   -2.4635   23.6020 H   0  0  0  0  0  0  0  0  0  0  0  0
    7.4602   -2.0426   23.0283 C   0  0  0  0  0  0  0  0  0  0  0  0
    6.8850   -2.6722   24.1382 N   0  0  0  0  0  0  0  0  0  0  0  0
    7.2496   -3.5761   24.4030 H   0  0  0  0  0  0  0  0  0  0  0  0
    5.6834   -2.3360   24.7901 C   0  0  0  0  0  0  0  0  0  0  0  0
    5.3144   -1.0096   25.0688 C   0  0  0  0  0  0  0  0  0  0  0  0
    6.0193   -0.2171   24.8552 H   0  0  0  0  0  0  0  0  0  0  0  0
    4.0456   -0.7224   25.5935 C   0  0  0  0  0  0  0  0  0  0  0  0
    3.7215    0.3043   25.7341 H   0  0  0  0  0  0  0  0  0  0  0  0
    3.1749   -1.7701   25.8953 C   0  0  0  0  0  0  0  0  0  0  0  0
    1.5563   -1.4170   26.4274 Cl  0  0  0  0  0  0  0  0  0  0  0  0
    3.5728   -3.0975   25.7329 C   0  0  0  0  0  0  0  0  0  0  0  0
    2.8927   -3.8972   26.0137 H   0  0  0  0  0  0  0  0  0  0  0  0
    4.8312   -3.3741   25.1938 C   0  0  0  0  0  0  0  0  0  0  0  0
    5.1399   -4.4014   25.0335 H   0  0  0  0  0  0  0  0  0  0  0  0
    6.7198   -1.4396   22.0168 C   0  0  0  0  0  0  0  0  0  0  0  0
    5.6438   -1.5504   21.9709 H   0  0  0  0  0  0  0  0  0  0  0  0
    5.4595    0.6375   20.1593 C   0  0  0  0  0  0  0  0  0  0  0  0
    5.0318    0.6674   21.1628 H   0  0  0  0  0  0  0  0  0  0  0  0
    4.8369    1.3003   19.1011 C   0  0  0  0  0  0  0  0  0  0  0  0
    3.9011    1.8307   19.2378 H   0  0  0  0  0  0  0  0  0  0  0  0
  1  2  1  0
  2  3  2  0
  3  4  1  0
  4  5  1  0
  4  6  2  0
  6  7  1  0
  7  8  2  0
  8  9  1  0
  9 10  2  0
 10 11  1  0
 10 12  1  0
 12 13  1  0
 13 14  1  0
 13 15  1  0
 15 16  2  0
 16 17  1  0
 16 18  1  0
 18 19  1  0
 18 20  2  0
 20 21  1  0
 20 22  1  0
 22 23  1  0
 22 24  2  0
 24 25  1  0
 12 26  2  0
 26 27  1  0
  6 28  1  0
 28 29  1  0
 28 30  2  0
 30 31  1  0
 30  2  1  0
 26  7  1  0
 24 15  1  0
M  END
>  <cnnaffinity>  (1) 
-5.50114

>  <filename>  (1) 
Clc1ccc(Nc2cnnc(-c3cccnc3)c2)cc1

$$$$
