
     RDKit          3D

 41 43  0  0  0  0  0  0  0  0999 V2000
    4.8752    1.5246   17.0280 H   0  0  0  0  0  0  0  0  0  0  0  0
    5.5017    1.1815   17.8486 C   0  0  0  0  0  0  0  0  0  0  0  0
    6.6392    0.5561   17.5024 N   0  0  0  0  0  0  0  0  0  0  0  0
    7.4247    0.1231   18.4997 C   0  0  0  0  0  0  0  0  0  0  0  0
    8.3578   -0.3652   18.2134 H   0  0  0  0  0  0  0  0  0  0  0  0
    7.1380    0.2667   19.8878 C   0  0  0  0  0  0  0  0  0  0  0  0
    7.9720   -0.3262   20.8619 N   0  0  0  0  0  0  0  0  0  0  0  0
    7.9428    0.1361   22.2512 C   0  0  0  0  0  0  0  0  0  0  0  0
    7.8621    1.2260   22.2379 H   0  0  0  0  0  0  0  0  0  0  0  0
    8.9083   -0.0984   22.7190 H   0  0  0  0  0  0  0  0  0  0  0  0
    6.8268   -0.4583   23.1314 C   0  0  0  0  0  0  0  0  0  0  0  0
    6.6585    0.2457   23.9546 H   0  0  0  0  0  0  0  0  0  0  0  0
    5.9041   -0.4748   22.5334 H   0  0  0  0  0  0  0  0  0  0  0  0
    7.1470   -1.7591   23.7161 N   0  0  0  0  0  0  0  0  0  0  0  0
    6.2765   -2.1766   24.8240 C   0  0  0  0  0  0  0  0  0  0  0  0
    6.0097   -1.2965   25.4251 H   0  0  0  0  0  0  0  0  0  0  0  0
    5.3165   -2.5981   24.4882 H   0  0  0  0  0  0  0  0  0  0  0  0
    7.0128   -3.1639   25.7135 C   0  0  0  0  0  0  0  0  0  0  0  0
    8.2846   -2.8047   26.2027 C   0  0  0  0  0  0  0  0  0  0  0  0
    8.6792   -1.8192   25.9636 H   0  0  0  0  0  0  0  0  0  0  0  0
    9.0503   -3.6988   26.9452 C   0  0  0  0  0  0  0  0  0  0  0  0
   10.0215   -3.4001   27.3138 H   0  0  0  0  0  0  0  0  0  0  0  0
    8.5745   -4.9835   27.2032 C   0  0  0  0  0  0  0  0  0  0  0  0
    9.1763   -5.6869   27.7736 H   0  0  0  0  0  0  0  0  0  0  0  0
    7.3308   -5.3756   26.7156 C   0  0  0  0  0  0  0  0  0  0  0  0
    6.9406   -6.3742   26.8886 H   0  0  0  0  0  0  0  0  0  0  0  0
    6.5513   -4.4599   26.0004 C   0  0  0  0  0  0  0  0  0  0  0  0
    4.9566   -4.9806   25.5137 Cl  0  0  0  0  0  0  0  0  0  0  0  0
    7.3683   -2.8400   22.7533 C   0  0  0  0  0  0  0  0  0  0  0  0
    7.5736   -3.7502   23.3295 H   0  0  0  0  0  0  0  0  0  0  0  0
    6.4637   -3.0557   22.1433 H   0  0  0  0  0  0  0  0  0  0  0  0
    8.5603   -2.6247   21.8217 C   0  0  0  0  0  0  0  0  0  0  0  0
    9.4325   -2.2759   22.3814 H   0  0  0  0  0  0  0  0  0  0  0  0
    8.8298   -3.6012   21.4068 H   0  0  0  0  0  0  0  0  0  0  0  0
    8.2963   -1.7308   20.6150 C   0  0  0  0  0  0  0  0  0  0  0  0
    9.1649   -1.7813   19.9387 H   0  0  0  0  0  0  0  0  0  0  0  0
    7.4465   -2.1773   20.0754 H   0  0  0  0  0  0  0  0  0  0  0  0
    5.9732    0.9889   20.2097 C   0  0  0  0  0  0  0  0  0  0  0  0
    5.7321    1.2052   21.2448 H   0  0  0  0  0  0  0  0  0  0  0  0
    5.1333    1.4185   19.1736 C   0  0  0  0  0  0  0  0  0  0  0  0
    4.2050    1.9310   19.3991 H   0  0  0  0  0  0  0  0  0  0  0  0
  1  2  1  0
  2  3  2  0
  3  4  1  0
  4  5  1  0
  4  6  2  0
  6  7  1  0
  7  8  1  0
  8  9  1  0
  8 10  1  0
  8 11  1  0
 11 12  1  0
 11 13  1  0
 11 14  1  0
 14 15  1  0
 15 16  1  0
 15 17  1  0
 15 18  1  0
 18 19  2  0
 19 20  1  0
 19 21  1  0
 21 22  1  0
 21 23  2  0
 23 24  1  0
 23 25  1  0
 25 26  1  0
 25 27  2  0
 27 28  1  0
 14 29  1  0
 29 30  1  0
 29 31  1  0
 29 32  1  0
 32 33  1  0
 32 34  1  0
 32 35  1  0
 35 36  1  0
 35 37  1  0
  6 38  1  0
 38 39  1  0
 38 40  2  0
 40 41  1  0
 40  2  1  0
 35  7  1  0
 27 18  1  0
M  END
>  <cnnaffinity>  (1) 
-5.40241

>  <filename>  (1) 
Clc1ccccc1CN1CCCN(c2cccnc2)CC1

$$$$
