
     RDKit          3D

 32 34  0  0  0  0  0  0  0  0999 V2000
    4.9830    1.7598   17.0050 H   0  0  0  0  0  0  0  0  0  0  0  0
    5.4163    1.2666   17.8697 C   0  0  0  0  0  0  0  0  0  0  0  0
    6.5830    0.6458   17.6483 N   0  0  0  0  0  0  0  0  0  0  0  0
    7.1725    0.0679   18.6954 C   0  0  0  0  0  0  0  0  0  0  0  0
    8.1238   -0.4110   18.4567 H   0  0  0  0  0  0  0  0  0  0  0  0
    6.6444    0.0723   19.9969 C   0  0  0  0  0  0  0  0  0  0  0  0
    7.3810   -0.5955   21.0934 C   0  0  0  0  0  0  0  0  0  0  0  0
    7.2244   -0.0987   22.3171 N   0  0  0  0  0  0  0  0  0  0  0  0
    7.8181   -0.7260   23.3241 C   0  0  0  0  0  0  0  0  0  0  0  0
    7.6769   -0.1997   24.5741 N   0  0  0  0  0  0  0  0  0  0  0  0
    7.8992   -0.8291   25.3185 H   0  0  0  0  0  0  0  0  0  0  0  0
    7.1299    1.0451   24.8906 C   0  0  0  0  0  0  0  0  0  0  0  0
    6.3582    1.1744   26.0506 C   0  0  0  0  0  0  0  0  0  0  0  0
    6.2122    0.2926   26.6686 H   0  0  0  0  0  0  0  0  0  0  0  0
    5.7872    2.4079   26.3817 C   0  0  0  0  0  0  0  0  0  0  0  0
    5.1684    2.5188   27.2687 H   0  0  0  0  0  0  0  0  0  0  0  0
    6.0187    3.5139   25.5545 C   0  0  0  0  0  0  0  0  0  0  0  0
    5.2910    5.0458   25.9399 Cl  0  0  0  0  0  0  0  0  0  0  0  0
    6.8152    3.4047   24.4106 C   0  0  0  0  0  0  0  0  0  0  0  0
    6.9695    4.2753   23.7742 H   0  0  0  0  0  0  0  0  0  0  0  0
    7.3668    2.1660   24.0799 C   0  0  0  0  0  0  0  0  0  0  0  0
    7.9639    2.0317   23.1839 H   0  0  0  0  0  0  0  0  0  0  0  0
    8.5814   -1.8956   23.1771 C   0  0  0  0  0  0  0  0  0  0  0  0
    9.0496   -2.3105   24.0617 H   0  0  0  0  0  0  0  0  0  0  0  0
    8.7601   -2.3960   21.8968 C   0  0  0  0  0  0  0  0  0  0  0  0
    9.3524   -3.2890   21.7323 H   0  0  0  0  0  0  0  0  0  0  0  0
    8.1722   -1.7042   20.8336 C   0  0  0  0  0  0  0  0  0  0  0  0
    8.2868   -1.9234   19.7962 H   0  0  0  0  0  0  0  0  0  0  0  0
    5.4083    0.7025   20.2077 C   0  0  0  0  0  0  0  0  0  0  0  0
    4.9616    0.7091   21.2061 H   0  0  0  0  0  0  0  0  0  0  0  0
    4.7869    1.3087   19.1187 C   0  0  0  0  0  0  0  0  0  0  0  0
    3.8490    1.8412   19.2272 H   0  0  0  0  0  0  0  0  0  0  0  0
  1  2  1  0
  2  3  2  0
  3  4  1  0
  4  5  1  0
  4  6  2  0
  6  7  1  0
  7  8  2  0
  8  9  1  0
  9 10  1  0
 10 11  1  0
 10 12  1  0
 12 13  2  0
 13 14  1  0
 13 15  1  0
 15 16  1  0
 15 17  2  0
 17 18  1  0
 17 19  1  0
 19 20  1  0
 19 21  2  0
 21 22  1  0
  9 23  2  0
 23 24  1  0
 23 25  1  0
 25 26  1  0
 25 27  2  0
 27 28  1  0
  6 29  1  0
 29 30  1  0
 29 31  2  0
 31 32  1  0
 31  2  1  0
 27  7  1  0
 21 12  1  0
M  END
>  <cnnaffinity>  (1) 
-5.14578

>  <filename>  (1) 
Clc1ccc(Nc2cccc(-c3cccnc3)n2)cc1

$$$$
