
     RDKit          3D

 29 31  0  0  0  0  0  0  0  0999 V2000
    4.9215    1.7787   17.0013 H   0  0  0  0  0  0  0  0  0  0  0  0
    5.4064    1.2889   17.8435 C   0  0  0  0  0  0  0  0  0  0  0  0
    6.5715    0.6782   17.5822 N   0  0  0  0  0  0  0  0  0  0  0  0
    7.1742    0.0510   18.5951 C   0  0  0  0  0  0  0  0  0  0  0  0
    8.1226   -0.4333   18.3714 H   0  0  0  0  0  0  0  0  0  0  0  0
    6.6597   -0.0050   19.8985 C   0  0  0  0  0  0  0  0  0  0  0  0
    7.4035   -0.7214   20.9657 C   0  0  0  0  0  0  0  0  0  0  0  0
    8.1094   -1.8148   20.6203 N   0  0  0  0  0  0  0  0  0  0  0  0
    8.7606   -2.5293   21.5459 N   0  0  0  0  0  0  0  0  0  0  0  0
    8.7569   -2.1272   22.8178 C   0  0  0  0  0  0  0  0  0  0  0  0
    9.3123   -2.7383   23.5129 H   0  0  0  0  0  0  0  0  0  0  0  0
    8.0670   -0.9772   23.2547 C   0  0  0  0  0  0  0  0  0  0  0  0
    8.0561   -0.5540   24.6718 C   0  0  0  0  0  0  0  0  0  0  0  0
    6.8227   -0.3951   25.3282 C   0  0  0  0  0  0  0  0  0  0  0  0
    5.9164   -0.5908   24.7599 H   0  0  0  0  0  0  0  0  0  0  0  0
    6.7568   -0.0088   26.6643 C   0  0  0  0  0  0  0  0  0  0  0  0
    5.7915    0.1085   27.1482 H   0  0  0  0  0  0  0  0  0  0  0  0
    7.9398    0.2365   27.3699 C   0  0  0  0  0  0  0  0  0  0  0  0
    7.9067    0.5429   28.4088 H   0  0  0  0  0  0  0  0  0  0  0  0
    9.1745    0.0887   26.7346 C   0  0  0  0  0  0  0  0  0  0  0  0
   10.1170    0.2311   27.2432 H   0  0  0  0  0  0  0  0  0  0  0  0
    9.2295   -0.2874   25.3968 C   0  0  0  0  0  0  0  0  0  0  0  0
   10.8050   -0.3806   24.6600 Cl  0  0  0  0  0  0  0  0  0  0  0  0
    7.3633   -0.2690   22.2941 C   0  0  0  0  0  0  0  0  0  0  0  0
    6.8250    0.6408   22.5517 H   0  0  0  0  0  0  0  0  0  0  0  0
    5.4443    0.6477   20.1609 C   0  0  0  0  0  0  0  0  0  0  0  0
    4.9975    0.6307   21.1588 H   0  0  0  0  0  0  0  0  0  0  0  0
    4.8088    1.3028   19.1088 C   0  0  0  0  0  0  0  0  0  0  0  0
    3.8768    1.8406   19.2606 H   0  0  0  0  0  0  0  0  0  0  0  0
  1  2  1  0
  2  3  2  0
  3  4  1  0
  4  5  1  0
  4  6  2  0
  6  7  1  0
  7  8  2  0
  8  9  1  0
  9 10  2  0
 10 11  1  0
 10 12  1  0
 12 13  1  0
 13 14  2  0
 14 15  1  0
 14 16  1  0
 16 17  1  0
 16 18  2  0
 18 19  1  0
 18 20  1  0
 20 21  1  0
 20 22  2  0
 22 23  1  0
 12 24  2  0
 24 25  1  0
  6 26  1  0
 26 27  1  0
 26 28  2  0
 28 29  1  0
 28  2  1  0
 24  7  1  0
 22 13  1  0
M  END
>  <cnnaffinity>  (1) 
-5.36374

>  <filename>  (1) 
Clc1ccccc1-c1cnnc(-c2cccnc2)c1

$$$$
