
     RDKit          3D

 30 32  0  0  0  0  0  0  0  0999 V2000
    5.0574    1.8196   16.6642 H   0  0  0  0  0  0  0  0  0  0  0  0
    5.4270    1.2851   17.5365 C   0  0  0  0  0  0  0  0  0  0  0  0
    6.5502    0.5734   17.3587 N   0  0  0  0  0  0  0  0  0  0  0  0
    7.0697   -0.0251   18.4335 C   0  0  0  0  0  0  0  0  0  0  0  0
    7.9759   -0.6012   18.2703 H   0  0  0  0  0  0  0  0  0  0  0  0
    6.5208    0.0556   19.7285 C   0  0  0  0  0  0  0  0  0  0  0  0
    7.3133   -0.4434   20.8544 C   0  0  0  0  0  0  0  0  0  0  0  0
    8.6382   -0.7703   20.6533 N   0  0  0  0  0  0  0  0  0  0  0  0
    9.1068   -1.0850   21.8325 C   0  0  0  0  0  0  0  0  0  0  0  0
   10.1211   -1.3748   22.0771 H   0  0  0  0  0  0  0  0  0  0  0  0
    8.1361   -1.0175   22.7968 N   0  0  0  0  0  0  0  0  0  0  0  0
    8.2604   -1.2948   24.1585 N   0  0  0  0  0  0  0  0  0  0  0  0
    7.4624   -0.9115   24.6613 H   0  0  0  0  0  0  0  0  0  0  0  0
    8.5472   -2.6364   24.5533 C   0  0  0  0  0  0  0  0  0  0  0  0
    8.3109   -3.7265   23.7116 C   0  0  0  0  0  0  0  0  0  0  0  0
    7.8290   -3.5166   22.7615 H   0  0  0  0  0  0  0  0  0  0  0  0
    8.7054   -5.0072   24.0999 C   0  0  0  0  0  0  0  0  0  0  0  0
    8.6155   -5.8456   23.4200 H   0  0  0  0  0  0  0  0  0  0  0  0
    9.2703   -5.2069   25.3624 C   0  0  0  0  0  0  0  0  0  0  0  0
    9.7671   -6.8149   25.8024 Cl  0  0  0  0  0  0  0  0  0  0  0  0
    9.4474   -4.1352   26.2451 C   0  0  0  0  0  0  0  0  0  0  0  0
    9.8556   -4.3149   27.2361 H   0  0  0  0  0  0  0  0  0  0  0  0
    9.0829   -2.8493   25.8294 C   0  0  0  0  0  0  0  0  0  0  0  0
    9.2625   -1.9862   26.4623 H   0  0  0  0  0  0  0  0  0  0  0  0
    6.9868   -0.5854   22.1773 C   0  0  0  0  0  0  0  0  0  0  0  0
    6.0871   -0.3976   22.7399 H   0  0  0  0  0  0  0  0  0  0  0  0
    5.2867    0.7110   19.8687 C   0  0  0  0  0  0  0  0  0  0  0  0
    4.7584    0.7296   20.8216 H   0  0  0  0  0  0  0  0  0  0  0  0
    4.7476    1.3563   18.7564 C   0  0  0  0  0  0  0  0  0  0  0  0
    3.8361    1.9394   18.8246 H   0  0  0  0  0  0  0  0  0  0  0  0
  1  2  1  0
  2  3  2  0
  3  4  1  0
  4  5  1  0
  4  6  2  0
  6  7  1  0
  7  8  1  0
  8  9  2  0
  9 10  1  0
  9 11  1  0
 11 12  1  0
 12 13  1  0
 12 14  1  0
 14 15  2  0
 15 16  1  0
 15 17  1  0
 17 18  1  0
 17 19  2  0
 19 20  1  0
 19 21  1  0
 21 22  1  0
 21 23  2  0
 23 24  1  0
 11 25  1  0
 25 26  1  0
  6 27  1  0
 27 28  1  0
 27 29  2  0
 29 30  1  0
 29  2  1  0
 25  7  2  0
 23 14  1  0
M  END
>  <cnnaffinity>  (1) 
-4.72556

>  <filename>  (1) 
Clc1ccc(Nn2cnc(-c3cccnc3)c2)cc1

$$$$
