
     RDKit          3D

 35 38  0  0  0  0  0  0  0  0999 V2000
    4.9686    1.8634   16.9343 H   0  0  0  0  0  0  0  0  0  0  0  0
    5.4126    1.3109   17.7617 C   0  0  0  0  0  0  0  0  0  0  0  0
    6.5577    0.6675   17.5048 N   0  0  0  0  0  0  0  0  0  0  0  0
    7.1413    0.0187   18.5222 C   0  0  0  0  0  0  0  0  0  0  0  0
    8.0732   -0.4822   18.2702 H   0  0  0  0  0  0  0  0  0  0  0  0
    6.6403   -0.0507   19.8387 C   0  0  0  0  0  0  0  0  0  0  0  0
    7.3720   -0.8161   20.9430 C   0  0  1  0  0  0  0  0  0  0  0  0
    7.0131   -1.8548   20.9278 H   0  0  0  0  0  0  0  0  0  0  0  0
    8.9360   -0.8718   20.7989 C   0  0  0  0  0  0  0  0  0  0  0  0
    9.3159   -0.0332   20.2051 H   0  0  0  0  0  0  0  0  0  0  0  0
    9.2755   -1.8045   20.3344 H   0  0  0  0  0  0  0  0  0  0  0  0
    9.4126   -0.7314   22.2160 C   0  0  0  0  0  0  0  0  0  0  0  0
   10.5930   -0.8083   22.8023 N   0  0  0  0  0  0  0  0  0  0  0  0
   10.3158   -0.5344   24.1021 N   0  0  0  0  0  0  0  0  0  0  0  0
   11.0923   -0.4139   24.7394 H   0  0  0  0  0  0  0  0  0  0  0  0
    8.9977   -0.2507   24.3441 C   0  0  0  0  0  0  0  0  0  0  0  0
    8.4051    0.1195   25.6515 C   0  0  0  0  0  0  0  0  0  0  0  0
    7.1306    0.7252   25.6435 C   0  0  0  0  0  0  0  0  0  0  0  0
    6.6090    0.8692   24.7036 H   0  0  0  0  0  0  0  0  0  0  0  0
    6.5181    1.1685   26.8115 C   0  0  0  0  0  0  0  0  0  0  0  0
    5.5559    1.6704   26.7826 H   0  0  0  0  0  0  0  0  0  0  0  0
    7.1726    0.9862   28.0271 C   0  0  0  0  0  0  0  0  0  0  0  0
    6.4371    1.6031   29.4762 Cl  0  0  0  0  0  0  0  0  0  0  0  0
    8.4150    0.3481   28.0813 C   0  0  0  0  0  0  0  0  0  0  0  0
    8.8968    0.2192   29.0466 H   0  0  0  0  0  0  0  0  0  0  0  0
    9.0382   -0.0711   26.8994 C   0  0  0  0  0  0  0  0  0  0  0  0
   10.0262   -0.5250   26.9698 H   0  0  0  0  0  0  0  0  0  0  0  0
    8.3988   -0.3828   23.0994 C   0  0  0  0  0  0  0  0  0  0  0  0
    7.0895   -0.2599   22.3838 C   0  0  0  0  0  0  0  0  0  0  0  0
    6.7804    0.7927   22.3297 H   0  0  0  0  0  0  0  0  0  0  0  0
    6.2811   -0.8185   22.8731 H   0  0  0  0  0  0  0  0  0  0  0  0
    5.4169    0.6073   20.0641 C   0  0  0  0  0  0  0  0  0  0  0  0
    4.9506    0.5989   21.0524 H   0  0  0  0  0  0  0  0  0  0  0  0
    4.8022    1.2973   19.0176 C   0  0  0  0  0  0  0  0  0  0  0  0
    3.8868    1.8530   19.1757 H   0  0  0  0  0  0  0  0  0  0  0  0
  1  2  1  0
  2  3  2  0
  3  4  1  0
  4  5  1  0
  4  6  2  0
  6  7  1  0
  7  8  1  1
  7  9  1  0
  9 10  1  0
  9 11  1  0
  9 12  1  0
 12 13  2  0
 13 14  1  0
 14 15  1  0
 14 16  1  0
 16 17  1  0
 17 18  2  0
 18 19  1  0
 18 20  1  0
 20 21  1  0
 20 22  2  0
 22 23  1  0
 22 24  1  0
 24 25  1  0
 24 26  2  0
 26 27  1  0
 16 28  2  0
 28 29  1  0
 29 30  1  0
 29 31  1  0
  6 32  1  0
 32 33  1  0
 32 34  2  0
 34 35  1  0
 34  2  1  0
 29  7  1  0
 28 12  1  0
 26 17  1  0
M  END
>  <cnnaffinity>  (1) 
-5.3494

>  <filename>  (1) 
Clc1ccc(-c2[nH]nc3c2C[C@@H](c2cccnc2)C3)cc1

$$$$
