
     RDKit          3D

 27 29  0  0  0  0  0  0  0  0999 V2000
    4.9176    1.7849   16.9944 H   0  0  0  0  0  0  0  0  0  0  0  0
    5.4014    1.2956   17.8376 C   0  0  0  0  0  0  0  0  0  0  0  0
    6.5655    0.6791   17.5752 N   0  0  0  0  0  0  0  0  0  0  0  0
    7.1693    0.0615   18.5942 C   0  0  0  0  0  0  0  0  0  0  0  0
    8.1139   -0.4270   18.3718 H   0  0  0  0  0  0  0  0  0  0  0  0
    6.6644    0.0049   19.9092 C   0  0  0  0  0  0  0  0  0  0  0  0
    7.3769   -0.7054   20.9923 C   0  0  0  0  0  0  0  0  0  0  0  0
    8.1219   -2.2358   20.8043 S   0  0  0  0  0  0  0  0  0  0  0  0
    8.5715   -2.4284   22.3802 N   0  0  0  0  0  0  0  0  0  0  0  0
    8.1917   -1.3752   23.0444 C   0  0  0  0  0  0  0  0  0  0  0  0
    8.4433   -1.3275   24.1013 H   0  0  0  0  0  0  0  0  0  0  0  0
    7.5168   -0.3449   22.3188 C   0  0  0  0  0  0  0  0  0  0  0  0
    7.1162    0.9312   22.9203 C   0  0  0  0  0  0  0  0  0  0  0  0
    7.3899    2.1465   22.2764 C   0  0  0  0  0  0  0  0  0  0  0  0
    7.8854    2.1248   21.3108 H   0  0  0  0  0  0  0  0  0  0  0  0
    7.0044    3.3490   22.8539 C   0  0  0  0  0  0  0  0  0  0  0  0
    7.1987    4.2892   22.3508 H   0  0  0  0  0  0  0  0  0  0  0  0
    6.3524    3.3535   24.0911 C   0  0  0  0  0  0  0  0  0  0  0  0
    5.8959    4.8725   24.7752 Cl  0  0  0  0  0  0  0  0  0  0  0  0
    6.0893    2.1413   24.7509 C   0  0  0  0  0  0  0  0  0  0  0  0
    5.3017    2.0920   26.2882 Cl  0  0  0  0  0  0  0  0  0  0  0  0
    6.4772    0.9400   24.1648 C   0  0  0  0  0  0  0  0  0  0  0  0
    6.2653    0.0014   24.6685 H   0  0  0  0  0  0  0  0  0  0  0  0
    5.4368    0.6423   20.1550 C   0  0  0  0  0  0  0  0  0  0  0  0
    5.0156    0.6323   21.1641 H   0  0  0  0  0  0  0  0  0  0  0  0
    4.8032    1.3060   19.1029 C   0  0  0  0  0  0  0  0  0  0  0  0
    3.8724    1.8432   19.2559 H   0  0  0  0  0  0  0  0  0  0  0  0
  1  2  1  0
  2  3  2  0
  3  4  1  0
  4  5  1  0
  4  6  2  0
  6  7  1  0
  7  8  1  0
  8  9  1  0
  9 10  2  0
 10 11  1  0
 10 12  1  0
 12 13  1  0
 13 14  2  0
 14 15  1  0
 14 16  1  0
 16 17  1  0
 16 18  2  0
 18 19  1  0
 18 20  1  0
 20 21  1  0
 20 22  2  0
 22 23  1  0
  6 24  1  0
 24 25  1  0
 24 26  2  0
 26 27  1  0
 26  2  1  0
 12  7  2  0
 22 13  1  0
M  END
>  <cnnaffinity>  (1) 
-5.32299

>  <filename>  (1) 
Clc1ccc(-c2cnsc2-c2cccnc2)cc1Cl

$$$$
