
     RDKit          3D

 34 36  0  0  0  0  0  0  0  0999 V2000
    4.9159    1.9190   16.8348 H   0  0  0  0  0  0  0  0  0  0  0  0
    5.3244    1.4337   17.7181 C   0  0  0  0  0  0  0  0  0  0  0  0
    6.4989    0.8070   17.5510 N   0  0  0  0  0  0  0  0  0  0  0  0
    7.0240    0.2167   18.6303 C   0  0  0  0  0  0  0  0  0  0  0  0
    7.9651   -0.3093   18.4738 H   0  0  0  0  0  0  0  0  0  0  0  0
    6.4453    0.2043   19.9160 C   0  0  0  0  0  0  0  0  0  0  0  0
    7.2159   -0.4468   21.0664 C   0  0  0  0  0  0  0  0  0  0  0  0
    8.1150    0.6266   21.7266 C   0  0  0  0  0  0  0  0  0  0  0  0
    8.6342    1.1647   20.9233 H   0  0  0  0  0  0  0  0  0  0  0  0
    7.4314    1.3657   22.1626 H   0  0  0  0  0  0  0  0  0  0  0  0
    9.1481    0.2166   22.7638 C   0  0  0  0  0  0  0  0  0  0  0  0
   10.4881   -0.0157   22.3833 C   0  0  0  0  0  0  0  0  0  0  0  0
   10.7686   -0.0158   21.3277 H   0  0  0  0  0  0  0  0  0  0  0  0
   11.4768   -0.2117   23.3551 C   0  0  0  0  0  0  0  0  0  0  0  0
   12.5170   -0.3741   23.0769 H   0  0  0  0  0  0  0  0  0  0  0  0
   11.1403   -0.2117   24.7137 C   0  0  0  0  0  0  0  0  0  0  0  0
   11.8903   -0.3416   25.4829 H   0  0  0  0  0  0  0  0  0  0  0  0
    9.8037   -0.0595   25.0876 C   0  0  0  0  0  0  0  0  0  0  0  0
    9.3635   -0.1450   26.7747 Cl  0  0  0  0  0  0  0  0  0  0  0  0
    8.8124    0.1742   24.1311 C   0  0  0  0  0  0  0  0  0  0  0  0
    7.7951    0.3547   24.4782 H   0  0  0  0  0  0  0  0  0  0  0  0
    6.3915   -1.3117   22.0633 C   0  0  0  0  0  0  0  0  0  0  0  0
    6.2522   -0.9076   23.0708 H   0  0  0  0  0  0  0  0  0  0  0  0
    5.4279   -1.5678   21.6074 H   0  0  0  0  0  0  0  0  0  0  0  0
    7.3771   -2.4924   21.8957 C   0  0  0  0  0  0  0  0  0  0  0  0
    8.1100   -2.6027   22.7013 H   0  0  0  0  0  0  0  0  0  0  0  0
    6.9152   -3.4659   21.7005 H   0  0  0  0  0  0  0  0  0  0  0  0
    7.9209   -1.7670   20.6553 C   0  0  0  0  0  0  0  0  0  0  0  0
    7.3706   -2.1304   19.7859 H   0  0  0  0  0  0  0  0  0  0  0  0
    9.0018   -1.7489   20.4685 H   0  0  0  0  0  0  0  0  0  0  0  0
    5.2120    0.8576   20.0581 C   0  0  0  0  0  0  0  0  0  0  0  0
    4.7085    0.8869   21.0264 H   0  0  0  0  0  0  0  0  0  0  0  0
    4.6414    1.4741   18.9383 C   0  0  0  0  0  0  0  0  0  0  0  0
    3.6955    2.0001   18.9989 H   0  0  0  0  0  0  0  0  0  0  0  0
  1  2  1  0
  2  3  2  0
  3  4  1  0
  4  5  1  0
  4  6  2  0
  6  7  1  0
  7  8  1  0
  8  9  1  0
  8 10  1  0
  8 11  1  0
 11 12  2  0
 12 13  1  0
 12 14  1  0
 14 15  1  0
 14 16  2  0
 16 17  1  0
 16 18  1  0
 18 19  1  0
 18 20  2  0
 20 21  1  0
  7 22  1  0
 22 23  1  0
 22 24  1  0
 22 25  1  0
 25 26  1  0
 25 27  1  0
 25 28  1  0
 28 29  1  0
 28 30  1  0
  6 31  1  0
 31 32  1  0
 31 33  2  0
 33 34  1  0
 33  2  1  0
 28  7  1  0
 20 11  1  0
M  END
>  <cnnaffinity>  (1) 
-5.00516

>  <filename>  (1) 
Clc1cccc(CC2(c3cccnc3)CCC2)c1

$$$$
