
     RDKit          3D

 38 41  0  0  0  0  0  0  0  0999 V2000
    4.9502    1.8498   16.9548 H   0  0  0  0  0  0  0  0  0  0  0  0
    5.3808    1.3146   17.7953 C   0  0  0  0  0  0  0  0  0  0  0  0
    6.5327    0.6644   17.5726 N   0  0  0  0  0  0  0  0  0  0  0  0
    7.0979    0.0370   18.6139 C   0  0  0  0  0  0  0  0  0  0  0  0
    8.0399   -0.4651   18.3861 H   0  0  0  0  0  0  0  0  0  0  0  0
    6.5384   -0.0051   19.9119 C   0  0  0  0  0  0  0  0  0  0  0  0
    7.2847   -0.6158   21.0292 C   0  0  0  0  0  0  0  0  0  0  0  0
    8.6364   -0.5713   21.2566 C   0  0  0  0  0  0  0  0  0  0  0  0
    8.8341   -1.0766   22.5448 C   0  0  0  0  0  0  0  0  0  0  0  0
    7.7262   -1.5324   23.0891 N   0  0  0  0  0  0  0  0  0  0  0  0
    6.7773   -1.2118   22.1578 N   0  0  0  0  0  0  0  0  0  0  0  0
    5.8110   -1.3553   22.4110 H   0  0  0  0  0  0  0  0  0  0  0  0
   10.2497   -0.8420   22.9977 C   0  0  0  0  0  0  0  0  0  0  0  0
   10.3593   -0.5486   24.0460 H   0  0  0  0  0  0  0  0  0  0  0  0
   10.8221   -1.7634   22.8590 H   0  0  0  0  0  0  0  0  0  0  0  0
   10.7135    0.2712   22.0073 C   0  0  2  0  0  0  0  0  0  0  0  0
   11.7824    0.1709   21.8000 H   0  0  0  0  0  0  0  0  0  0  0  0
   10.4791    1.7077   22.5562 C   0  0  0  0  0  0  0  0  0  0  0  0
   11.0139    1.8078   23.5112 H   0  0  0  0  0  0  0  0  0  0  0  0
   10.9526    2.4103   21.8564 H   0  0  0  0  0  0  0  0  0  0  0  0
    9.0255    2.1022   22.7396 C   0  0  0  0  0  0  0  0  0  0  0  0
    8.3300    2.7925   21.7349 C   0  0  0  0  0  0  0  0  0  0  0  0
    8.8533    3.0880   20.8276 H   0  0  0  0  0  0  0  0  0  0  0  0
    6.9810    3.1287   21.8720 C   0  0  0  0  0  0  0  0  0  0  0  0
    6.4474    3.6800   21.1019 H   0  0  0  0  0  0  0  0  0  0  0  0
    6.3066    2.7506   23.0340 C   0  0  0  0  0  0  0  0  0  0  0  0
    4.6150    3.1385   23.2079 Cl  0  0  0  0  0  0  0  0  0  0  0  0
    6.9671    2.0706   24.0569 C   0  0  0  0  0  0  0  0  0  0  0  0
    6.4270    1.8012   24.9600 H   0  0  0  0  0  0  0  0  0  0  0  0
    8.3213    1.7613   23.9026 C   0  0  0  0  0  0  0  0  0  0  0  0
    8.8284    1.2183   24.6976 H   0  0  0  0  0  0  0  0  0  0  0  0
    9.8934    0.0134   20.7186 C   0  0  0  0  0  0  0  0  0  0  0  0
    9.7598    0.9143   20.1076 H   0  0  0  0  0  0  0  0  0  0  0  0
   10.4148   -0.7193   20.1030 H   0  0  0  0  0  0  0  0  0  0  0  0
    5.3153    0.6606   20.1013 C   0  0  0  0  0  0  0  0  0  0  0  0
    4.8598    0.6839   21.0925 H   0  0  0  0  0  0  0  0  0  0  0  0
    4.7308    1.3378   19.0363 C   0  0  0  0  0  0  0  0  0  0  0  0
    3.8157    1.9078   19.1679 H   0  0  0  0  0  0  0  0  0  0  0  0
  1  2  1  0
  2  3  2  0
  3  4  1  0
  4  5  1  0
  4  6  2  0
  6  7  1  0
  7  8  2  0
  8  9  1  0
  9 10  2  0
 10 11  1  0
 11 12  1  0
  9 13  1  0
 13 14  1  0
 13 15  1  0
 13 16  1  0
 16 17  1  6
 16 18  1  0
 18 19  1  0
 18 20  1  0
 18 21  1  0
 21 22  2  0
 22 23  1  0
 22 24  1  0
 24 25  1  0
 24 26  2  0
 26 27  1  0
 26 28  1  0
 28 29  1  0
 28 30  2  0
 30 31  1  0
 16 32  1  0
 32 33  1  0
 32 34  1  0
  6 35  1  0
 35 36  1  0
 35 37  2  0
 37 38  1  0
 37  2  1  0
 11  7  1  0
 30 21  1  0
 32  8  1  0
M  END
>  <cnnaffinity>  (1) 
-5.84535

>  <filename>  (1) 
Clc1ccc(C[C@H]2Cc3n[nH]c(-c4cccnc4)c3C2)cc1

$$$$
