
     RDKit          3D

 31 33  0  0  0  0  0  0  0  0999 V2000
    6.4363    0.4362   25.3782 Cl  0  0  0  0  0  0  0  0  0  0  0  0
    8.1510    0.1095   25.4418 C   0  0  0  0  0  0  0  0  0  0  0  0
    8.9673    1.1087   25.9847 C   0  0  0  0  0  0  0  0  0  0  0  0
   10.3494    0.9777   25.9074 C   0  0  0  0  0  0  0  0  0  0  0  0
   10.9144   -0.1705   25.3561 C   0  0  0  0  0  0  0  0  0  0  0  0
   10.0897   -1.1928   24.8772 C   0  0  0  0  0  0  0  0  0  0  0  0
    8.6911   -1.0756   24.9111 C   0  0  0  0  0  0  0  0  0  0  0  0
    7.8615   -2.1180   24.1813 C   0  0  0  0  0  0  0  0  0  0  0  0
    7.8106   -1.7769   22.7588 N   0  0  0  0  0  0  0  0  0  0  0  0
    8.8017   -1.9209   21.8277 C   0  0  0  0  0  0  0  0  0  0  0  0
    8.5201   -1.3179   20.7030 N   0  0  0  0  0  0  0  0  0  0  0  0
    7.3053   -0.7080   20.9095 C   0  0  0  0  0  0  0  0  0  0  0  0
    6.6264    0.0419   19.8588 C   0  0  0  0  0  0  0  0  0  0  0  0
    5.4100    0.7049   20.0853 C   0  0  0  0  0  0  0  0  0  0  0  0
    4.8096    1.3461   19.0077 C   0  0  0  0  0  0  0  0  0  0  0  0
    5.4353    1.3148   17.7552 C   0  0  0  0  0  0  0  0  0  0  0  0
    6.6022    0.6886   17.5262 N   0  0  0  0  0  0  0  0  0  0  0  0
    7.1741    0.0728   18.5653 C   0  0  0  0  0  0  0  0  0  0  0  0
    8.1123   -0.4480   18.3867 H   0  0  0  0  0  0  0  0  0  0  0  0
    4.9766    1.8034   16.8979 H   0  0  0  0  0  0  0  0  0  0  0  0
    3.8685    1.8684   19.1207 H   0  0  0  0  0  0  0  0  0  0  0  0
    4.9537    0.7113   21.0793 H   0  0  0  0  0  0  0  0  0  0  0  0
    6.8726   -0.9509   22.1800 C   0  0  0  0  0  0  0  0  0  0  0  0
    6.0312   -0.5638   22.7308 H   0  0  0  0  0  0  0  0  0  0  0  0
    9.7123   -2.4755   22.0332 H   0  0  0  0  0  0  0  0  0  0  0  0
    8.2810   -3.1248   24.3082 H   0  0  0  0  0  0  0  0  0  0  0  0
    6.8353   -2.1477   24.5560 H   0  0  0  0  0  0  0  0  0  0  0  0
   10.5386   -2.0847   24.4389 H   0  0  0  0  0  0  0  0  0  0  0  0
   11.9935   -0.2511   25.2974 H   0  0  0  0  0  0  0  0  0  0  0  0
   10.9903    1.7849   26.2352 H   0  0  0  0  0  0  0  0  0  0  0  0
    8.5170    1.9827   26.4431 H   0  0  0  0  0  0  0  0  0  0  0  0
  1  2  1  0
  2  3  2  0
  3  4  1  0
  4  5  2  0
  5  6  1  0
  6  7  2  0
  7  8  1  0
  8  9  1  0
  9 10  1  0
 10 11  2  0
 11 12  1  0
 12 13  1  0
 13 14  2  0
 14 15  1  0
 15 16  2  0
 16 17  1  0
 17 18  2  0
 18 19  1  0
 16 20  1  0
 15 21  1  0
 14 22  1  0
 12 23  2  0
 23 24  1  0
 10 25  1  0
  8 26  1  0
  8 27  1  0
  6 28  1  0
  5 29  1  0
  4 30  1  0
  3 31  1  0
  7  2  1  0
 23  9  1  0
 18 13  1  0
M  END
>  <cnnaffinity>  (1) 
-5.50865

>  <filename>  (1) 
Clc1ccccc1Cn1cnc(-c2cccnc2)c1

$$$$
