
     RDKit          3D

 33 35  0  0  0  0  0  0  0  0999 V2000
    4.9069    1.7681   17.0045 H   0  0  0  0  0  0  0  0  0  0  0  0
    5.4151    1.2722   17.8271 C   0  0  0  0  0  0  0  0  0  0  0  0
    6.5738    0.6601   17.5307 N   0  0  0  0  0  0  0  0  0  0  0  0
    7.2326    0.0819   18.5443 C   0  0  0  0  0  0  0  0  0  0  0  0
    8.1608   -0.4275   18.2898 H   0  0  0  0  0  0  0  0  0  0  0  0
    6.8047    0.0670   19.8980 C   0  0  0  0  0  0  0  0  0  0  0  0
    7.6305   -0.5139   20.8807 N   0  0  0  0  0  0  0  0  0  0  0  0
    8.1490   -1.3070   20.5138 H   0  0  0  0  0  0  0  0  0  0  0  0
    7.1347   -0.8279   22.1905 C   0  0  0  0  0  0  0  0  0  0  0  0
    6.1524   -1.9855   22.2618 C   0  0  0  0  0  0  0  0  0  0  0  0
    5.8338   -2.0775   23.3115 H   0  0  0  0  0  0  0  0  0  0  0  0
    5.2954   -1.7235   21.6313 H   0  0  0  0  0  0  0  0  0  0  0  0
    6.6427   -3.3486   21.8261 C   0  0  0  0  0  0  0  0  0  0  0  0
    7.3365   -4.1458   22.7535 C   0  0  0  0  0  0  0  0  0  0  0  0
    7.5562   -3.7432   23.7442 H   0  0  0  0  0  0  0  0  0  0  0  0
    7.6570   -5.4709   22.4698 C   0  0  0  0  0  0  0  0  0  0  0  0
    8.1958   -6.0727   23.1944 H   0  0  0  0  0  0  0  0  0  0  0  0
    7.2369   -6.0451   21.2693 C   0  0  0  0  0  0  0  0  0  0  0  0
    7.3581   -7.1120   21.1420 H   0  0  0  0  0  0  0  0  0  0  0  0
    6.5870   -5.2754   20.3035 C   0  0  0  0  0  0  0  0  0  0  0  0
    6.2552   -5.7020   19.3577 H   0  0  0  0  0  0  0  0  0  0  0  0
    6.3168   -3.9304   20.5794 C   0  0  0  0  0  0  0  0  0  0  0  0
    5.4757   -3.0236   19.3375 Cl  0  0  0  0  0  0  0  0  0  0  0  0
    8.1005   -0.5981   23.3131 C   0  0  0  0  0  0  0  0  0  0  0  0
    9.0926   -0.2383   23.0623 H   0  0  0  0  0  0  0  0  0  0  0  0
    8.0379   -1.2730   24.1631 H   0  0  0  0  0  0  0  0  0  0  0  0
    6.9527    0.3507   23.1046 C   0  0  0  0  0  0  0  0  0  0  0  0
    6.1309    0.3322   23.8199 H   0  0  0  0  0  0  0  0  0  0  0  0
    7.1860    1.3171   22.6674 H   0  0  0  0  0  0  0  0  0  0  0  0
    5.5680    0.6760   20.1683 C   0  0  0  0  0  0  0  0  0  0  0  0
    5.1444    0.6465   21.1722 H   0  0  0  0  0  0  0  0  0  0  0  0
    4.8699    1.2882   19.1169 C   0  0  0  0  0  0  0  0  0  0  0  0
    3.9174    1.7779   19.2899 H   0  0  0  0  0  0  0  0  0  0  0  0
  1  2  1  0
  2  3  2  0
  3  4  1  0
  4  5  1  0
  4  6  2  0
  6  7  1  0
  7  8  1  0
  7  9  1  0
  9 10  1  0
 10 11  1  0
 10 12  1  0
 10 13  1  0
 13 14  2  0
 14 15  1  0
 14 16  1  0
 16 17  1  0
 16 18  2  0
 18 19  1  0
 18 20  1  0
 20 21  1  0
 20 22  2  0
 22 23  1  0
  9 24  1  0
 24 25  1  0
 24 26  1  0
 24 27  1  0
 27 28  1  0
 27 29  1  0
  6 30  1  0
 30 31  1  0
 30 32  2  0
 32 33  1  0
 32  2  1  0
 27  9  1  0
 22 13  1  0
M  END
>  <cnnaffinity>  (1) 
-4.39776

>  <filename>  (1) 
Clc1ccccc1CC1(Nc2cccnc2)CC1

$$$$
