
     RDKit          3D

 28 30  0  0  0  0  0  0  0  0999 V2000
    4.9244    1.7932   16.9564 H   0  0  0  0  0  0  0  0  0  0  0  0
    5.4261    1.3256   17.8019 C   0  0  0  0  0  0  0  0  0  0  0  0
    6.5979    0.7247   17.5464 N   0  0  0  0  0  0  0  0  0  0  0  0
    7.2248    0.1198   18.5611 C   0  0  0  0  0  0  0  0  0  0  0  0
    8.1766   -0.3578   18.3349 H   0  0  0  0  0  0  0  0  0  0  0  0
    6.7185    0.0535   19.8682 C   0  0  0  0  0  0  0  0  0  0  0  0
    7.4596   -0.7272   20.8797 C   0  0  0  0  0  0  0  0  0  0  0  0
    8.7739   -0.6043   21.0781 N   0  0  0  0  0  0  0  0  0  0  0  0
    9.0295   -1.4772   22.0666 N   0  0  0  0  0  0  0  0  0  0  0  0
    7.9602   -2.1773   22.4666 C   0  0  0  0  0  0  0  0  0  0  0  0
    6.9042   -1.7405   21.7099 C   0  0  0  0  0  0  0  0  0  0  0  0
    5.5854   -2.3878   21.5695 C   0  0  0  0  0  0  0  0  0  0  0  0
    5.2181   -2.8423   22.4896 H   0  0  0  0  0  0  0  0  0  0  0  0
    4.8969   -1.6220   21.2385 H   0  0  0  0  0  0  0  0  0  0  0  0
    5.6556   -3.7237   20.3634 Cl  0  0  0  0  0  0  0  0  0  0  0  0
    8.3474   -3.2808   23.3907 C   0  0  0  0  0  0  0  0  0  0  0  0
    7.8372   -3.1735   24.3505 H   0  0  0  0  0  0  0  0  0  0  0  0
    8.0632   -4.2434   22.9482 H   0  0  0  0  0  0  0  0  0  0  0  0
    9.8884   -3.1111   23.5201 C   0  0  0  0  0  0  0  0  0  0  0  0
   10.1768   -2.7777   24.5181 H   0  0  0  0  0  0  0  0  0  0  0  0
   10.4098   -4.0476   23.3464 H   0  0  0  0  0  0  0  0  0  0  0  0
   10.3002   -2.0351   22.4753 C   0  0  0  0  0  0  0  0  0  0  0  0
   10.9268   -1.2462   22.8896 H   0  0  0  0  0  0  0  0  0  0  0  0
   10.8007   -2.4757   21.6083 H   0  0  0  0  0  0  0  0  0  0  0  0
    5.4973    0.7099   20.1215 C   0  0  0  0  0  0  0  0  0  0  0  0
    5.0702    0.7380   21.1233 H   0  0  0  0  0  0  0  0  0  0  0  0
    4.8419    1.3522   19.0698 C   0  0  0  0  0  0  0  0  0  0  0  0
    3.8873    1.8449   19.2097 H   0  0  0  0  0  0  0  0  0  0  0  0
  1  2  1  0
  2  3  2  0
  3  4  1  0
  4  5  1  0
  4  6  2  0
  6  7  1  0
  7  8  2  0
  8  9  1  0
  9 10  1  0
 10 11  2  0
 11 12  1  0
 12 13  1  0
 12 14  1  0
 12 15  1  0
 10 16  1  0
 16 17  1  0
 16 18  1  0
 16 19  1  0
 19 20  1  0
 19 21  1  0
 19 22  1  0
 22 23  1  0
 22 24  1  0
  6 25  1  0
 25 26  1  0
 25 27  2  0
 27 28  1  0
 27  2  1  0
 11  7  1  0
 22  9  1  0
M  END
>  <cnnaffinity>  (1) 
-4.75991

>  <filename>  (1) 
ClCc1c(-c2cccnc2)nn2c1CCC2

$$$$
