
     RDKit          3D

 29 30  0  0  0  0  0  0  0  0999 V2000
    4.9334    1.8146   16.9668 H   0  0  0  0  0  0  0  0  0  0  0  0
    5.3881    1.2991   17.8090 C   0  0  0  0  0  0  0  0  0  0  0  0
    6.5450    0.6722   17.5574 N   0  0  0  0  0  0  0  0  0  0  0  0
    7.1505    0.0561   18.5834 C   0  0  0  0  0  0  0  0  0  0  0  0
    8.1021   -0.4112   18.3303 H   0  0  0  0  0  0  0  0  0  0  0  0
    6.6462    0.0077   19.9021 C   0  0  0  0  0  0  0  0  0  0  0  0
    7.3478   -0.8061   20.9986 C   0  0  2  0  0  0  0  0  0  0  0  0
    6.7941   -2.2544   20.8852 C   0  0  0  0  0  0  0  0  0  0  0  0
    6.9205   -2.5643   19.8432 H   0  0  0  0  0  0  0  0  0  0  0  0
    5.7054   -2.2209   21.0417 H   0  0  0  0  0  0  0  0  0  0  0  0
    7.4016   -3.2754   21.8436 C   0  0  0  0  0  0  0  0  0  0  0  0
    7.1908   -3.0398   22.8909 H   0  0  0  0  0  0  0  0  0  0  0  0
    8.4861   -3.3711   21.7363 H   0  0  0  0  0  0  0  0  0  0  0  0
    6.7208   -4.9046   21.5166 Cl  0  0  0  0  0  0  0  0  0  0  0  0
    7.1248   -0.2171   22.4165 C   0  0  0  0  0  0  0  0  0  0  0  0
    6.2049   -0.6099   22.8732 H   0  0  0  0  0  0  0  0  0  0  0  0
    7.0043    0.8788   22.3296 H   0  0  0  0  0  0  0  0  0  0  0  0
    8.2870   -0.6192   23.2030 N   0  0  0  0  0  0  0  0  0  0  0  0
    8.4376   -0.0084   23.9978 H   0  0  0  0  0  0  0  0  0  0  0  0
    9.4610   -0.7231   22.3371 C   0  0  0  0  0  0  0  0  0  0  0  0
   10.1656    0.1121   22.4830 H   0  0  0  0  0  0  0  0  0  0  0  0
   10.0429   -1.6301   22.5732 H   0  0  0  0  0  0  0  0  0  0  0  0
    8.9010   -0.7253   20.8968 C   0  0  0  0  0  0  0  0  0  0  0  0
    9.1689    0.2209   20.4094 H   0  0  0  0  0  0  0  0  0  0  0  0
    9.3265   -1.5323   20.2870 H   0  0  0  0  0  0  0  0  0  0  0  0
    5.4213    0.6586   20.1290 C   0  0  0  0  0  0  0  0  0  0  0  0
    4.9715    0.6690   21.1222 H   0  0  0  0  0  0  0  0  0  0  0  0
    4.7869    1.3159   19.0715 C   0  0  0  0  0  0  0  0  0  0  0  0
    3.8577    1.8559   19.2229 H   0  0  0  0  0  0  0  0  0  0  0  0
  1  2  1  0
  2  3  2  0
  3  4  1  0
  4  5  1  0
  4  6  2  0
  6  7  1  0
  7  8  1  1
  8  9  1  0
  8 10  1  0
  8 11  1  0
 11 12  1  0
 11 13  1  0
 11 14  1  0
  7 15  1  0
 15 16  1  0
 15 17  1  0
 15 18  1  0
 18 19  1  0
 18 20  1  0
 20 21  1  0
 20 22  1  0
 20 23  1  0
 23 24  1  0
 23 25  1  0
  6 26  1  0
 26 27  1  0
 26 28  2  0
 28 29  1  0
 28  2  1  0
 23  7  1  0
M  END
>  <cnnaffinity>  (1) 
-4.4183

>  <filename>  (1) 
ClCC[C@]1(c2cccnc2)CCNC1

$$$$
