
     RDKit          3D

 38 39  0  0  0  0  0  0  0  0999 V2000
    4.9997    1.8469   17.0469 H   0  0  0  0  0  0  0  0  0  0  0  0
    5.5055    1.2987   17.8362 C   0  0  0  0  0  0  0  0  0  0  0  0
    6.6877    0.7510   17.5118 N   0  0  0  0  0  0  0  0  0  0  0  0
    7.3302    0.0664   18.4649 C   0  0  0  0  0  0  0  0  0  0  0  0
    8.2957   -0.3574   18.2032 H   0  0  0  0  0  0  0  0  0  0  0  0
    6.8237   -0.1494   19.7654 C   0  0  0  0  0  0  0  0  0  0  0  0
    7.5554   -0.8996   20.7108 N   0  0  0  0  0  0  0  0  0  0  0  0
    6.9550   -1.6887   21.6911 C   0  0  0  0  0  0  0  0  0  0  0  0
    5.8278   -2.1455   21.6532 O   0  0  0  0  0  0  0  0  0  0  0  0
    7.8925   -1.8751   22.6692 N   0  0  0  0  0  0  0  0  0  0  0  0
    7.5526   -2.4365   23.9533 C   0  0  0  0  0  0  0  0  0  0  0  0
    8.4371   -2.3464   24.6004 H   0  0  0  0  0  0  0  0  0  0  0  0
    6.7551   -1.8495   24.4433 H   0  0  0  0  0  0  0  0  0  0  0  0
    7.0926   -3.8856   23.7907 C   0  0  0  0  0  0  0  0  0  0  0  0
    7.7963   -4.4318   23.1469 H   0  0  0  0  0  0  0  0  0  0  0  0
    6.1344   -3.8663   23.2608 H   0  0  0  0  0  0  0  0  0  0  0  0
    6.9623   -4.6256   25.1193 C   0  0  0  0  0  0  0  0  0  0  0  0
    6.6843   -3.9163   25.9324 H   0  0  0  0  0  0  0  0  0  0  0  0
    6.1263   -5.3336   25.0400 H   0  0  0  0  0  0  0  0  0  0  0  0
    8.1444   -5.4129   25.4523 N   0  0  0  0  0  0  0  0  0  0  0  0
    9.3836   -4.6709   25.5995 C   0  0  0  0  0  0  0  0  0  0  0  0
    9.4198   -4.0168   26.4945 H   0  0  0  0  0  0  0  0  0  0  0  0
    9.5522   -4.0400   24.7236 H   0  0  0  0  0  0  0  0  0  0  0  0
   10.2290   -5.3683   25.6348 H   0  0  0  0  0  0  0  0  0  0  0  0
    7.8791   -6.2963   26.5715 C   0  0  0  0  0  0  0  0  0  0  0  0
    7.7104   -5.7593   27.5245 H   0  0  0  0  0  0  0  0  0  0  0  0
    6.9802   -6.8875   26.3518 H   0  0  0  0  0  0  0  0  0  0  0  0
    8.7119   -6.9895   26.7230 H   0  0  0  0  0  0  0  0  0  0  0  0
    9.1710   -1.2570   22.3854 C   0  0  0  0  0  0  0  0  0  0  0  0
    9.4078   -0.5000   23.1459 H   0  0  0  0  0  0  0  0  0  0  0  0
    9.9715   -2.0089   22.3898 H   0  0  0  0  0  0  0  0  0  0  0  0
    8.9613   -0.6330   20.9966 C   0  0  0  0  0  0  0  0  0  0  0  0
    9.6098   -1.0878   20.2396 H   0  0  0  0  0  0  0  0  0  0  0  0
    9.1469    0.4454   21.0058 H   0  0  0  0  0  0  0  0  0  0  0  0
    5.5832    0.4285   20.0860 C   0  0  0  0  0  0  0  0  0  0  0  0
    5.1554    0.2936   21.0791 H   0  0  0  0  0  0  0  0  0  0  0  0
    4.9195    1.1708   19.1036 C   0  0  0  0  0  0  0  0  0  0  0  0
    3.9667    1.6519   19.3070 H   0  0  0  0  0  0  0  0  0  0  0  0
  1  2  1  0
  2  3  2  0
  3  4  1  0
  4  5  1  0
  4  6  2  0
  6  7  1  0
  7  8  1  0
  8  9  2  0
  8 10  1  0
 10 11  1  0
 11 12  1  0
 11 13  1  0
 11 14  1  0
 14 15  1  0
 14 16  1  0
 14 17  1  0
 17 18  1  0
 17 19  1  0
 17 20  1  0
 20 21  1  0
 21 22  1  0
 21 23  1  0
 21 24  1  0
 20 25  1  0
 25 26  1  0
 25 27  1  0
 25 28  1  0
 10 29  1  0
 29 30  1  0
 29 31  1  0
 29 32  1  0
 32 33  1  0
 32 34  1  0
  6 35  1  0
 35 36  1  0
 35 37  2  0
 37 38  1  0
 37  2  1  0
 32  7  1  0
M  END
>  <cnnaffinity>  (1) 
-4.57644

>  <filename>  (1) 
CN(C)CCCN1CCN(c2cccnc2)C1=O

$$$$
