
     RDKit          3D

 39 40  0  0  0  0  0  0  0  0999 V2000
    4.9378    1.7986   16.9993 H   0  0  0  0  0  0  0  0  0  0  0  0
    5.4083    1.2873   17.8372 C   0  0  0  0  0  0  0  0  0  0  0  0
    6.5723    0.6687   17.5776 N   0  0  0  0  0  0  0  0  0  0  0  0
    7.1917    0.0405   18.5897 C   0  0  0  0  0  0  0  0  0  0  0  0
    8.1389   -0.4288   18.3335 H   0  0  0  0  0  0  0  0  0  0  0  0
    6.7036   -0.0416   19.9267 C   0  0  0  0  0  0  0  0  0  0  0  0
    7.3436   -0.7575   20.9453 N   0  0  0  0  0  0  0  0  0  0  0  0
    8.2963   -1.0786   20.9393 H   0  0  0  0  0  0  0  0  0  0  0  0
    6.8637   -0.8555   22.2831 C   0  0  0  0  0  0  0  0  0  0  0  0
    6.8162    0.1411   22.7611 H   0  0  0  0  0  0  0  0  0  0  0  0
    5.8392   -1.2780   22.2975 H   0  0  0  0  0  0  0  0  0  0  0  0
    7.8086   -1.6903   23.0176 N   0  0  0  0  0  0  0  0  0  0  0  0
    7.6916   -3.1124   22.6592 C   0  0  0  0  0  0  0  0  0  0  0  0
    6.6704   -3.4902   22.8917 H   0  0  0  0  0  0  0  0  0  0  0  0
    7.8169   -3.2257   21.5750 H   0  0  0  0  0  0  0  0  0  0  0  0
    8.7261   -3.9589   23.4092 C   0  0  0  0  0  0  0  0  0  0  0  0
    9.7449   -3.6657   23.1186 H   0  0  0  0  0  0  0  0  0  0  0  0
    8.5785   -5.0092   23.1351 H   0  0  0  0  0  0  0  0  0  0  0  0
    8.5940   -3.8075   24.9378 C   0  0  0  0  0  0  0  0  0  0  0  0
    7.6013   -4.2187   25.2417 H   0  0  0  0  0  0  0  0  0  0  0  0
    9.6504   -4.5403   25.6501 N   0  0  0  0  0  0  0  0  0  0  0  0
    9.5894   -4.3736   27.1031 C   0  0  0  0  0  0  0  0  0  0  0  0
    8.6045   -4.6426   27.5370 H   0  0  0  0  0  0  0  0  0  0  0  0
   10.3431   -5.0215   27.5668 H   0  0  0  0  0  0  0  0  0  0  0  0
    9.8269   -3.3433   27.3826 H   0  0  0  0  0  0  0  0  0  0  0  0
    9.6835   -5.9674   25.3320 C   0  0  0  0  0  0  0  0  0  0  0  0
    9.9967   -6.1280   24.3043 H   0  0  0  0  0  0  0  0  0  0  0  0
   10.4252   -6.4590   25.9720 H   0  0  0  0  0  0  0  0  0  0  0  0
    8.7110   -6.4783   25.4773 H   0  0  0  0  0  0  0  0  0  0  0  0
    8.6120   -2.3082   25.2910 C   0  0  0  0  0  0  0  0  0  0  0  0
    9.6268   -1.9164   25.1308 H   0  0  0  0  0  0  0  0  0  0  0  0
    8.3605   -2.1821   26.3517 H   0  0  0  0  0  0  0  0  0  0  0  0
    7.5969   -1.5209   24.4595 C   0  0  0  0  0  0  0  0  0  0  0  0
    7.6751   -0.4518   24.7081 H   0  0  0  0  0  0  0  0  0  0  0  0
    6.5707   -1.8432   24.7593 H   0  0  0  0  0  0  0  0  0  0  0  0
    5.4768    0.6258   20.1606 C   0  0  0  0  0  0  0  0  0  0  0  0
    5.0495    0.6203   21.1615 H   0  0  0  0  0  0  0  0  0  0  0  0
    4.8289    1.2920   19.1100 C   0  0  0  0  0  0  0  0  0  0  0  0
    3.8925    1.8204   19.2667 H   0  0  0  0  0  0  0  0  0  0  0  0
  1  2  1  0
  2  3  2  0
  3  4  1  0
  4  5  1  0
  4  6  2  0
  6  7  1  0
  7  8  1  0
  7  9  1  0
  9 10  1  0
  9 11  1  0
  9 12  1  0
 12 13  1  0
 13 14  1  0
 13 15  1  0
 13 16  1  0
 16 17  1  0
 16 18  1  0
 16 19  1  0
 19 20  1  0
 19 21  1  0
 21 22  1  0
 22 23  1  0
 22 24  1  0
 22 25  1  0
 21 26  1  0
 26 27  1  0
 26 28  1  0
 26 29  1  0
 19 30  1  0
 30 31  1  0
 30 32  1  0
 30 33  1  0
 33 34  1  0
 33 35  1  0
  6 36  1  0
 36 37  1  0
 36 38  2  0
 38 39  1  0
 38  2  1  0
 33 12  1  0
M  END
>  <cnnaffinity>  (1) 
-4.58338

>  <filename>  (1) 
CN(C)C1CCN(CNc2cccnc2)CC1

$$$$
