
     RDKit          3D

 40 42  0  0  0  0  0  0  0  0999 V2000
    4.9448    1.8039   16.9596 H   0  0  0  0  0  0  0  0  0  0  0  0
    5.4179    1.3002   17.7963 C   0  0  0  0  0  0  0  0  0  0  0  0
    6.5799    0.6797   17.5405 N   0  0  0  0  0  0  0  0  0  0  0  0
    7.1948    0.0651   18.5543 C   0  0  0  0  0  0  0  0  0  0  0  0
    8.1420   -0.4183   18.3118 H   0  0  0  0  0  0  0  0  0  0  0  0
    6.6838    0.0221   19.8652 C   0  0  0  0  0  0  0  0  0  0  0  0
    7.3918   -0.6889   20.9465 C   0  0  0  0  0  0  0  0  0  0  0  0
    8.6105   -1.2316   20.7903 N   0  0  0  0  0  0  0  0  0  0  0  0
    8.8491   -1.7860   22.0049 N   0  0  0  0  0  0  0  0  0  0  0  0
    9.8994   -2.5044   22.5571 C   0  0  0  0  0  0  0  0  0  0  0  0
   10.7933   -2.6878   21.9832 H   0  0  0  0  0  0  0  0  0  0  0  0
    9.5083   -2.8187   23.8223 C   0  0  0  0  0  0  0  0  0  0  0  0
    9.9647   -3.3870   24.6185 H   0  0  0  0  0  0  0  0  0  0  0  0
    8.2580   -2.2855   24.0400 N   0  0  0  0  0  0  0  0  0  0  0  0
    7.6344   -2.4728   25.2492 O   0  0  0  0  0  0  0  0  0  0  0  0
    6.3170   -1.8796   25.3422 C   0  0  0  0  0  0  0  0  0  0  0  0
    5.8506   -2.4094   26.1719 H   0  0  0  0  0  0  0  0  0  0  0  0
    5.7497   -2.1001   24.4275 H   0  0  0  0  0  0  0  0  0  0  0  0
    6.4154   -0.3831   25.6214 C   0  0  0  0  0  0  0  0  0  0  0  0
    6.9844   -0.2336   26.5445 H   0  0  0  0  0  0  0  0  0  0  0  0
    7.0132    0.0919   24.8370 H   0  0  0  0  0  0  0  0  0  0  0  0
    5.0660    0.3370   25.6822 C   0  0  0  0  0  0  0  0  0  0  0  0
    5.2431    1.4260   25.8089 H   0  0  0  0  0  0  0  0  0  0  0  0
    4.5883    0.2271   24.6965 H   0  0  0  0  0  0  0  0  0  0  0  0
    4.1605   -0.1894   26.7054 N   0  0  0  0  0  0  0  0  0  0  0  0
    4.4907    0.2672   28.0482 C   0  0  0  0  0  0  0  0  0  0  0  0
    4.3779    1.3614   28.1823 H   0  0  0  0  0  0  0  0  0  0  0  0
    5.5175    0.0000   28.3118 H   0  0  0  0  0  0  0  0  0  0  0  0
    3.8387   -0.2243   28.7779 H   0  0  0  0  0  0  0  0  0  0  0  0
    2.7574    0.0595   26.4073 C   0  0  0  0  0  0  0  0  0  0  0  0
    2.1259   -0.4057   27.1732 H   0  0  0  0  0  0  0  0  0  0  0  0
    2.4945    1.1345   26.3588 H   0  0  0  0  0  0  0  0  0  0  0  0
    2.4860   -0.3992   25.4507 H   0  0  0  0  0  0  0  0  0  0  0  0
    7.8493   -1.6345   22.8944 C   0  0  0  0  0  0  0  0  0  0  0  0
    6.8661   -0.8882   22.2475 C   0  0  0  0  0  0  0  0  0  0  0  0
    5.9594   -0.4857   22.6448 H   0  0  0  0  0  0  0  0  0  0  0  0
    5.4560    0.6721   20.1047 C   0  0  0  0  0  0  0  0  0  0  0  0
    5.0043    0.6852   21.0970 H   0  0  0  0  0  0  0  0  0  0  0  0
    4.8168    1.3176   19.0561 C   0  0  0  0  0  0  0  0  0  0  0  0
    3.8781    1.8399   19.2074 H   0  0  0  0  0  0  0  0  0  0  0  0
  1  2  1  0
  2  3  2  0
  3  4  1  0
  4  5  1  0
  4  6  2  0
  6  7  1  0
  7  8  2  0
  8  9  1  0
  9 10  1  0
 10 11  1  0
 10 12  2  0
 12 13  1  0
 12 14  1  0
 14 15  1  0
 15 16  1  0
 16 17  1  0
 16 18  1  0
 16 19  1  0
 19 20  1  0
 19 21  1  0
 19 22  1  0
 22 23  1  0
 22 24  1  0
 22 25  1  0
 25 26  1  0
 26 27  1  0
 26 28  1  0
 26 29  1  0
 25 30  1  0
 30 31  1  0
 30 32  1  0
 30 33  1  0
 14 34  1  0
 34 35  2  0
 35 36  1  0
  6 37  1  0
 37 38  1  0
 37 39  2  0
 39 40  1  0
 39  2  1  0
 35  7  1  0
 34  9  1  0
M  END
>  <cnnaffinity>  (1) 
-5.25078

>  <filename>  (1) 
CN(C)CCCOn1ccn2nc(-c3cccnc3)cc12

$$$$
