
     RDKit          3D

 37 39  0  0  0  0  0  0  0  0999 V2000
    8.3940   -1.9753   19.8592 H   0  0  0  0  0  0  0  0  0  0  0  0
    8.2305   -1.6827   20.8758 C   0  0  0  0  0  0  0  0  0  0  0  0
    8.8584   -2.3761   21.8480 N   0  0  0  0  0  0  0  0  0  0  0  0
    8.6587   -1.9073   23.0871 C   0  0  0  0  0  0  0  0  0  0  0  0
    9.1684   -2.4185   23.8959 H   0  0  0  0  0  0  0  0  0  0  0  0
    7.8248   -0.7629   23.3719 C   0  0  0  0  0  0  0  0  0  0  0  0
    7.6466   -0.2552   24.6340 N   0  0  0  0  0  0  0  0  0  0  0  0
    8.4434   -0.7769   25.7343 C   0  0  0  0  0  0  0  0  0  0  0  0
    8.1828   -1.8186   25.9536 H   0  0  0  0  0  0  0  0  0  0  0  0
    9.5157   -0.7466   25.5090 H   0  0  0  0  0  0  0  0  0  0  0  0
    8.2613   -0.1890   26.6354 H   0  0  0  0  0  0  0  0  0  0  0  0
    6.8773    0.9848   24.7964 C   0  0  0  0  0  0  0  0  0  0  0  0
    6.6579    1.0907   25.8658 H   0  0  0  0  0  0  0  0  0  0  0  0
    5.9215    0.8473   24.2814 H   0  0  0  0  0  0  0  0  0  0  0  0
    7.5416    2.2480   24.2417 C   0  0  0  0  0  0  0  0  0  0  0  0
    8.7131    2.7631   24.8156 C   0  0  0  0  0  0  0  0  0  0  0  0
    9.1523    2.2691   25.6826 H   0  0  0  0  0  0  0  0  0  0  0  0
    9.3400    3.8920   24.2785 C   0  0  0  0  0  0  0  0  0  0  0  0
   10.2594    4.2590   24.7242 H   0  0  0  0  0  0  0  0  0  0  0  0
    8.7983    4.5368   23.1634 C   0  0  0  0  0  0  0  0  0  0  0  0
    9.3029    5.3963   22.7244 H   0  0  0  0  0  0  0  0  0  0  0  0
    7.6212    4.0483   22.5886 C   0  0  0  0  0  0  0  0  0  0  0  0
    7.1965    4.5414   21.7161 H   0  0  0  0  0  0  0  0  0  0  0  0
    7.0015    2.9139   23.1236 C   0  0  0  0  0  0  0  0  0  0  0  0
    6.1160    2.5103   22.6340 H   0  0  0  0  0  0  0  0  0  0  0  0
    7.1475   -0.1493   22.3766 N   0  0  0  0  0  0  0  0  0  0  0  0
    7.3701   -0.5906   21.1305 C   0  0  0  0  0  0  0  0  0  0  0  0
    6.6419    0.0968   20.0308 C   0  0  0  0  0  0  0  0  0  0  0  0
    7.1774    0.0846   18.7316 C   0  0  0  0  0  0  0  0  0  0  0  0
    8.1300   -0.4027   18.5171 H   0  0  0  0  0  0  0  0  0  0  0  0
    6.5909    0.6504   17.6755 N   0  0  0  0  0  0  0  0  0  0  0  0
    5.4204    1.2693   17.8803 C   0  0  0  0  0  0  0  0  0  0  0  0
    4.9891    1.7518   17.0095 H   0  0  0  0  0  0  0  0  0  0  0  0
    4.7819    1.3215   19.1223 C   0  0  0  0  0  0  0  0  0  0  0  0
    3.8325    1.8348   19.2173 H   0  0  0  0  0  0  0  0  0  0  0  0
    5.3992    0.7247   20.2225 C   0  0  0  0  0  0  0  0  0  0  0  0
    4.9276    0.7270   21.2084 H   0  0  0  0  0  0  0  0  0  0  0  0
  1  2  1  0
  2  3  2  0
  3  4  1  0
  4  5  1  0
  4  6  2  0
  6  7  1  0
  7  8  1  0
  8  9  1  0
  8 10  1  0
  8 11  1  0
  7 12  1  0
 12 13  1  0
 12 14  1  0
 12 15  1  0
 15 16  2  0
 16 17  1  0
 16 18  1  0
 18 19  1  0
 18 20  2  0
 20 21  1  0
 20 22  1  0
 22 23  1  0
 22 24  2  0
 24 25  1  0
  6 26  1  0
 26 27  2  0
 27 28  1  0
 28 29  2  0
 29 30  1  0
 29 31  1  0
 31 32  2  0
 32 33  1  0
 32 34  1  0
 34 35  1  0
 34 36  2  0
 36 37  1  0
 27  2  1  0
 36 28  1  0
 24 15  1  0
M  END
>  <cnnaffinity>  (1) 
-5.11968

>  <filename>  (1) 
CN(Cc1ccccc1)c1cncc(-c2cccnc2)n1

$$$$
