
     RDKit          3D

 38 41  0  0  0  0  0  0  0  0999 V2000
    4.9363    1.7757   16.9987 H   0  0  0  0  0  0  0  0  0  0  0  0
    5.4098    1.2852   17.8440 C   0  0  0  0  0  0  0  0  0  0  0  0
    6.5720    0.6652   17.5918 N   0  0  0  0  0  0  0  0  0  0  0  0
    7.1789    0.0512   18.6123 C   0  0  0  0  0  0  0  0  0  0  0  0
    8.1254   -0.4320   18.3839 H   0  0  0  0  0  0  0  0  0  0  0  0
    6.6464    0.0147   19.9090 C   0  0  0  0  0  0  0  0  0  0  0  0
    7.3625   -0.6904   20.9633 C   0  0  0  0  0  0  0  0  0  0  0  0
    8.5362   -1.3563   20.7781 N   0  0  0  0  0  0  0  0  0  0  0  0
    8.7840   -1.7983   21.9885 C   0  0  0  0  0  0  0  0  0  0  0  0
   10.0035   -2.7668   22.7614 S   0  0  0  0  0  0  0  0  0  0  0  0
    9.1461   -2.6205   24.2727 C   0  0  0  0  0  0  0  0  0  0  0  0
    9.5390   -3.1094   25.1496 H   0  0  0  0  0  0  0  0  0  0  0  0
    8.0090   -1.8795   24.1877 C   0  0  0  0  0  0  0  0  0  0  0  0
    7.1229   -1.6274   25.2077 N   0  0  0  0  0  0  0  0  0  0  0  0
    7.2680   -2.3662   26.4608 C   0  0  0  0  0  0  0  0  0  0  0  0
    7.1563   -3.4433   26.2832 H   0  0  0  0  0  0  0  0  0  0  0  0
    6.4789   -2.0637   27.1533 H   0  0  0  0  0  0  0  0  0  0  0  0
    8.2344   -2.2034   26.9660 H   0  0  0  0  0  0  0  0  0  0  0  0
    6.2164   -0.4729   25.1564 C   0  0  0  0  0  0  0  0  0  0  0  0
    5.5265   -0.6086   24.3321 H   0  0  0  0  0  0  0  0  0  0  0  0
    5.6046   -0.4851   26.0666 H   0  0  0  0  0  0  0  0  0  0  0  0
    6.8652    0.8914   25.0064 C   0  0  0  0  0  0  0  0  0  0  0  0
    6.3754    1.8258   24.0774 C   0  0  0  0  0  0  0  0  0  0  0  0
    5.5290    1.5624   23.4403 H   0  0  0  0  0  0  0  0  0  0  0  0
    7.0006    3.0667   23.9214 C   0  0  0  0  0  0  0  0  0  0  0  0
    6.6355    3.7695   23.1746 H   0  0  0  0  0  0  0  0  0  0  0  0
    8.1059    3.3927   24.7164 C   0  0  0  0  0  0  0  0  0  0  0  0
    8.5986    4.3540   24.5997 H   0  0  0  0  0  0  0  0  0  0  0  0
    8.5735    2.4805   25.6674 C   0  0  0  0  0  0  0  0  0  0  0  0
    9.4221    2.7171   26.3005 H   0  0  0  0  0  0  0  0  0  0  0  0
    7.9517    1.2425   25.8131 C   0  0  0  0  0  0  0  0  0  0  0  0
    8.3131    0.5342   26.5571 H   0  0  0  0  0  0  0  0  0  0  0  0
    7.8318   -1.4194   22.8693 N   0  0  0  0  0  0  0  0  0  0  0  0
    6.8730   -0.7114   22.1954 N   0  0  0  0  0  0  0  0  0  0  0  0
    5.4264    0.6593   20.1655 C   0  0  0  0  0  0  0  0  0  0  0  0
    4.9934    0.6365   21.1705 H   0  0  0  0  0  0  0  0  0  0  0  0
    4.8037    1.3106   19.1067 C   0  0  0  0  0  0  0  0  0  0  0  0
    3.8724    1.8425   19.2529 H   0  0  0  0  0  0  0  0  0  0  0  0
  1  2  1  0
  2  3  2  0
  3  4  1  0
  4  5  1  0
  4  6  2  0
  6  7  1  0
  7  8  1  0
  8  9  2  0
  9 10  1  0
 10 11  1  0
 11 12  1  0
 11 13  2  0
 13 14  1  0
 14 15  1  0
 15 16  1  0
 15 17  1  0
 15 18  1  0
 14 19  1  0
 19 20  1  0
 19 21  1  0
 19 22  1  0
 22 23  2  0
 23 24  1  0
 23 25  1  0
 25 26  1  0
 25 27  2  0
 27 28  1  0
 27 29  1  0
 29 30  1  0
 29 31  2  0
 31 32  1  0
 13 33  1  0
 33 34  1  0
  6 35  1  0
 35 36  1  0
 35 37  2  0
 37 38  1  0
 37  2  1  0
 34  7  2  0
 33  9  1  0
 31 22  1  0
M  END
>  <cnnaffinity>  (1) 
-5.50897

>  <filename>  (1) 
CN(Cc1ccccc1)c1csc2nc(-c3cccnc3)nn12

$$$$
