
     RDKit          3D

 37 39  0  0  0  0  0  0  0  0999 V2000
    4.9129    1.8165   16.9692 H   0  0  0  0  0  0  0  0  0  0  0  0
    5.3758    1.3064   17.8164 C   0  0  0  0  0  0  0  0  0  0  0  0
    6.5385    0.6854   17.5632 N   0  0  0  0  0  0  0  0  0  0  0  0
    7.1523    0.0795   18.5837 C   0  0  0  0  0  0  0  0  0  0  0  0
    8.1017   -0.3878   18.3306 H   0  0  0  0  0  0  0  0  0  0  0  0
    6.6654    0.0304   19.9113 C   0  0  0  0  0  0  0  0  0  0  0  0
    7.4234   -0.6749   20.9681 C   0  0  0  0  0  0  0  0  0  0  0  0
    8.3308   -1.7073   20.9051 C   0  0  0  0  0  0  0  0  0  0  0  0
    8.7486   -2.1124   20.0031 H   0  0  0  0  0  0  0  0  0  0  0  0
    8.7674   -2.1474   22.1245 N   0  0  0  0  0  0  0  0  0  0  0  0
    8.1561   -1.3380   22.9513 C   0  0  0  0  0  0  0  0  0  0  0  0
    8.2281   -0.9978   24.6480 S   0  0  0  0  0  0  0  0  0  0  0  0
    7.1380    0.3533   24.3209 C   0  0  0  0  0  0  0  0  0  0  0  0
    6.6115    1.2167   25.4188 C   0  0  0  0  0  0  0  0  0  0  0  0
    7.2391    1.0515   26.3019 H   0  0  0  0  0  0  0  0  0  0  0  0
    6.7355    2.2606   25.1027 H   0  0  0  0  0  0  0  0  0  0  0  0
    5.1226    0.9251   25.7294 C   0  0  0  0  0  0  0  0  0  0  0  0
    4.5187    1.0770   24.8211 H   0  0  0  0  0  0  0  0  0  0  0  0
    4.7638    1.6465   26.4721 H   0  0  0  0  0  0  0  0  0  0  0  0
    4.8969   -0.4931   26.2720 C   0  0  0  0  0  0  0  0  0  0  0  0
    5.5507   -0.6269   27.1489 H   0  0  0  0  0  0  0  0  0  0  0  0
    5.2242   -1.2432   25.5207 H   0  0  0  0  0  0  0  0  0  0  0  0
    3.5157   -0.7210   26.6923 N   0  0  0  0  0  0  0  0  0  0  0  0
    2.6365   -0.9976   25.5676 C   0  0  0  0  0  0  0  0  0  0  0  0
    2.6712   -0.1650   24.8592 H   0  0  0  0  0  0  0  0  0  0  0  0
    2.9080   -1.9285   25.0289 H   0  0  0  0  0  0  0  0  0  0  0  0
    1.6023   -1.0930   25.9200 H   0  0  0  0  0  0  0  0  0  0  0  0
    3.4136   -1.7573   27.7071 C   0  0  0  0  0  0  0  0  0  0  0  0
    3.9941   -1.4696   28.5923 H   0  0  0  0  0  0  0  0  0  0  0  0
    2.3674   -1.8639   28.0145 H   0  0  0  0  0  0  0  0  0  0  0  0
    3.7735   -2.7467   27.3610 H   0  0  0  0  0  0  0  0  0  0  0  0
    6.7778    0.5309   23.0949 N   0  0  0  0  0  0  0  0  0  0  0  0
    7.3368   -0.4410   22.3334 N   0  0  0  0  0  0  0  0  0  0  0  0
    5.4324    0.6701   20.1438 C   0  0  0  0  0  0  0  0  0  0  0  0
    5.0103    0.6623   21.1455 H   0  0  0  0  0  0  0  0  0  0  0  0
    4.7861    1.3166   19.0845 C   0  0  0  0  0  0  0  0  0  0  0  0
    3.8517    1.8513   19.2244 H   0  0  0  0  0  0  0  0  0  0  0  0
  1  2  1  0
  2  3  2  0
  3  4  1  0
  4  5  1  0
  4  6  2  0
  6  7  1  0
  7  8  2  0
  8  9  1  0
  8 10  1  0
 10 11  2  0
 11 12  1  0
 12 13  1  0
 13 14  1  0
 14 15  1  0
 14 16  1  0
 14 17  1  0
 17 18  1  0
 17 19  1  0
 17 20  1  0
 20 21  1  0
 20 22  1  0
 20 23  1  0
 23 24  1  0
 24 25  1  0
 24 26  1  0
 24 27  1  0
 23 28  1  0
 28 29  1  0
 28 30  1  0
 28 31  1  0
 13 32  2  0
 32 33  1  0
  6 34  1  0
 34 35  1  0
 34 36  2  0
 36 37  1  0
 36  2  1  0
 33  7  1  0
 33 11  1  0
M  END
>  <cnnaffinity>  (1) 
-5.09432

>  <filename>  (1) 
CN(C)CCCc1nn2c(-c3cccnc3)cnc2s1

$$$$
