
     RDKit          3D

 42 44  0  0  0  0  0  0  0  0999 V2000
    8.4296   -1.9221   19.8588 H   0  0  0  0  0  0  0  0  0  0  0  0
    8.2359   -1.6401   20.8752 C   0  0  0  0  0  0  0  0  0  0  0  0
    8.8556   -2.3544   21.8364 N   0  0  0  0  0  0  0  0  0  0  0  0
    8.6467   -1.9190   23.0825 C   0  0  0  0  0  0  0  0  0  0  0  0
    9.1080   -2.4736   23.8934 H   0  0  0  0  0  0  0  0  0  0  0  0
    7.8174   -0.7866   23.3729 C   0  0  0  0  0  0  0  0  0  0  0  0
    7.6692   -0.3365   24.6690 N   0  0  0  0  0  0  0  0  0  0  0  0
    8.8556   -0.0753   25.4885 C   0  0  0  0  0  0  0  0  0  0  0  0
    9.1958    0.9713   25.3704 H   0  0  0  0  0  0  0  0  0  0  0  0
    9.6959   -0.7008   25.1696 H   0  0  0  0  0  0  0  0  0  0  0  0
    8.5326   -0.3297   26.9505 C   0  0  0  0  0  0  0  0  0  0  0  0
    8.2695   -1.3805   27.1092 H   0  0  0  0  0  0  0  0  0  0  0  0
    9.4251   -0.1394   27.5500 H   0  0  0  0  0  0  0  0  0  0  0  0
    7.3507    0.5506   27.3893 C   0  0  0  0  0  0  0  0  0  0  0  0
    7.6203    1.6108   27.1788 H   0  0  0  0  0  0  0  0  0  0  0  0
    7.0570    0.3462   28.8034 N   0  0  0  0  0  0  0  0  0  0  0  0
    5.7702    0.8540   29.2600 C   0  0  0  0  0  0  0  0  0  0  0  0
    5.6419    0.6058   30.3163 H   0  0  0  0  0  0  0  0  0  0  0  0
    4.9488    0.3669   28.7305 H   0  0  0  0  0  0  0  0  0  0  0  0
    5.6466    1.9487   29.1589 H   0  0  0  0  0  0  0  0  0  0  0  0
    8.1228    0.7959   29.6982 C   0  0  0  0  0  0  0  0  0  0  0  0
    8.2967    1.8889   29.6560 H   0  0  0  0  0  0  0  0  0  0  0  0
    9.0647    0.2897   29.4747 H   0  0  0  0  0  0  0  0  0  0  0  0
    7.8713    0.5065   30.7267 H   0  0  0  0  0  0  0  0  0  0  0  0
    6.1568    0.2092   26.4832 C   0  0  0  0  0  0  0  0  0  0  0  0
    5.2719    0.7938   26.7429 H   0  0  0  0  0  0  0  0  0  0  0  0
    5.8973   -0.8469   26.6217 H   0  0  0  0  0  0  0  0  0  0  0  0
    6.4993    0.4597   25.0251 C   0  0  0  0  0  0  0  0  0  0  0  0
    5.6603    0.1921   24.3760 H   0  0  0  0  0  0  0  0  0  0  0  0
    6.6956    1.5346   24.8613 H   0  0  0  0  0  0  0  0  0  0  0  0
    7.1304   -0.1535   22.4047 N   0  0  0  0  0  0  0  0  0  0  0  0
    7.3565   -0.5683   21.1466 C   0  0  0  0  0  0  0  0  0  0  0  0
    6.6236    0.1146   20.0506 C   0  0  0  0  0  0  0  0  0  0  0  0
    7.1690    0.1069   18.7601 C   0  0  0  0  0  0  0  0  0  0  0  0
    8.1260   -0.3767   18.5687 H   0  0  0  0  0  0  0  0  0  0  0  0
    6.6021    0.6662   17.6928 N   0  0  0  0  0  0  0  0  0  0  0  0
    5.4234    1.2813   17.8740 C   0  0  0  0  0  0  0  0  0  0  0  0
    4.9830    1.7424   16.9902 H   0  0  0  0  0  0  0  0  0  0  0  0
    4.7773    1.3347   19.1111 C   0  0  0  0  0  0  0  0  0  0  0  0
    3.8214    1.8397   19.1878 H   0  0  0  0  0  0  0  0  0  0  0  0
    5.3829    0.7514   20.2249 C   0  0  0  0  0  0  0  0  0  0  0  0
    4.9122    0.7823   21.2072 H   0  0  0  0  0  0  0  0  0  0  0  0
  1  2  1  0
  2  3  2  0
  3  4  1  0
  4  5  1  0
  4  6  2  0
  6  7  1  0
  7  8  1  0
  8  9  1  0
  8 10  1  0
  8 11  1  0
 11 12  1  0
 11 13  1  0
 11 14  1  0
 14 15  1  0
 14 16  1  0
 16 17  1  0
 17 18  1  0
 17 19  1  0
 17 20  1  0
 16 21  1  0
 21 22  1  0
 21 23  1  0
 21 24  1  0
 14 25  1  0
 25 26  1  0
 25 27  1  0
 25 28  1  0
 28 29  1  0
 28 30  1  0
  6 31  1  0
 31 32  2  0
 32 33  1  0
 33 34  2  0
 34 35  1  0
 34 36  1  0
 36 37  2  0
 37 38  1  0
 37 39  1  0
 39 40  1  0
 39 41  2  0
 41 42  1  0
 32  2  1  0
 41 33  1  0
 28  7  1  0
M  END
>  <cnnaffinity>  (1) 
-4.7621

>  <filename>  (1) 
CN(C)C1CCN(c2cncc(-c3cccnc3)n2)CC1

$$$$
