
     RDKit          3D

 42 43  0  0  0  0  0  0  0  0999 V2000
    5.0090    1.8296   16.9609 H   0  0  0  0  0  0  0  0  0  0  0  0
    5.4687    1.3012   17.7937 C   0  0  0  0  0  0  0  0  0  0  0  0
    6.6420    0.6979   17.5352 N   0  0  0  0  0  0  0  0  0  0  0  0
    7.2374    0.0463   18.5422 C   0  0  0  0  0  0  0  0  0  0  0  0
    8.1942   -0.4267   18.3247 H   0  0  0  0  0  0  0  0  0  0  0  0
    6.6940   -0.0627   19.8411 C   0  0  0  0  0  0  0  0  0  0  0  0
    7.3905   -0.7618   20.8794 N   0  0  0  0  0  0  0  0  0  0  0  0
    8.1590   -0.2506   21.2909 H   0  0  0  0  0  0  0  0  0  0  0  0
    6.7676   -1.6261   21.7735 C   0  0  0  0  0  0  0  0  0  0  0  0
    5.7345   -2.2046   21.4942 O   0  0  0  0  0  0  0  0  0  0  0  0
    7.5548   -1.8941   23.1146 C   0  0  0  0  0  0  0  0  0  0  0  0
    8.3065   -0.6379   23.5890 C   0  0  0  0  0  0  0  0  0  0  0  0
    7.5770    0.5586   23.7159 C   0  0  0  0  0  0  0  0  0  0  0  0
    6.5022    0.5581   23.5384 H   0  0  0  0  0  0  0  0  0  0  0  0
    8.1957    1.7568   24.0603 C   0  0  0  0  0  0  0  0  0  0  0  0
    7.6175    2.6621   24.1791 H   0  0  0  0  0  0  0  0  0  0  0  0
    9.5913    1.8079   24.2821 C   0  0  0  0  0  0  0  0  0  0  0  0
   10.2561    3.0015   24.5141 N   0  0  0  0  0  0  0  0  0  0  0  0
   11.6799    3.0837   24.2393 C   0  0  0  0  0  0  0  0  0  0  0  0
   11.9489    2.7939   23.2151 H   0  0  0  0  0  0  0  0  0  0  0  0
   12.0336    4.1056   24.3887 H   0  0  0  0  0  0  0  0  0  0  0  0
   12.2537    2.4186   24.8958 H   0  0  0  0  0  0  0  0  0  0  0  0
    9.5135    4.1761   24.9283 C   0  0  0  0  0  0  0  0  0  0  0  0
    8.9050    3.9726   25.8186 H   0  0  0  0  0  0  0  0  0  0  0  0
   10.1846    5.0023   25.1886 H   0  0  0  0  0  0  0  0  0  0  0  0
    8.8306    4.5254   24.1442 H   0  0  0  0  0  0  0  0  0  0  0  0
   10.3013    0.5865   24.2517 C   0  0  0  0  0  0  0  0  0  0  0  0
   11.3521    0.5964   24.5032 H   0  0  0  0  0  0  0  0  0  0  0  0
    9.6648   -0.6100   23.9266 C   0  0  0  0  0  0  0  0  0  0  0  0
   10.2368   -1.5344   23.9384 H   0  0  0  0  0  0  0  0  0  0  0  0
    8.4797   -3.1049   22.8319 C   0  0  0  0  0  0  0  0  0  0  0  0
    9.0156   -3.4215   23.7339 H   0  0  0  0  0  0  0  0  0  0  0  0
    9.2258   -2.8841   22.0608 H   0  0  0  0  0  0  0  0  0  0  0  0
    7.8858   -3.9598   22.4960 H   0  0  0  0  0  0  0  0  0  0  0  0
    6.5848   -2.2653   24.2667 C   0  0  0  0  0  0  0  0  0  0  0  0
    5.9369   -3.1020   23.9961 H   0  0  0  0  0  0  0  0  0  0  0  0
    5.9503   -1.4192   24.5571 H   0  0  0  0  0  0  0  0  0  0  0  0
    7.1584   -2.5426   25.1604 H   0  0  0  0  0  0  0  0  0  0  0  0
    5.4699    0.5699   20.0898 C   0  0  0  0  0  0  0  0  0  0  0  0
    5.0263    0.5021   21.0859 H   0  0  0  0  0  0  0  0  0  0  0  0
    4.8532    1.2739   19.0499 C   0  0  0  0  0  0  0  0  0  0  0  0
    3.9142    1.7996   19.2021 H   0  0  0  0  0  0  0  0  0  0  0  0
  1  2  1  0
  2  3  2  0
  3  4  1  0
  4  5  1  0
  4  6  2  0
  6  7  1  0
  7  8  1  0
  7  9  1  0
  9 10  2  0
  9 11  1  0
 11 12  1  0
 12 13  2  0
 13 14  1  0
 13 15  1  0
 15 16  1  0
 15 17  2  0
 17 18  1  0
 18 19  1  0
 19 20  1  0
 19 21  1  0
 19 22  1  0
 18 23  1  0
 23 24  1  0
 23 25  1  0
 23 26  1  0
 17 27  1  0
 27 28  1  0
 27 29  2  0
 29 30  1  0
 11 31  1  0
 31 32  1  0
 31 33  1  0
 31 34  1  0
 11 35  1  0
 35 36  1  0
 35 37  1  0
 35 38  1  0
  6 39  1  0
 39 40  1  0
 39 41  2  0
 41 42  1  0
 41  2  1  0
 29 12  1  0
M  END
>  <cnnaffinity>  (1) 
-5.34228

>  <filename>  (1) 
CN(C)c1ccc(C(C)(C)C(=O)Nc2cccnc2)cc1

$$$$
