
     RDKit          3D

 37 39  0  0  0  0  0  0  0  0999 V2000
    6.4862   -1.2851   21.7101 H   0  0  0  0  0  0  0  0  0  0  0  0
    7.1432   -0.6719   21.0810 C   0  0  0  0  0  0  0  0  0  0  0  0
    8.4199   -0.4737   21.4646 C   0  0  0  0  0  0  0  0  0  0  0  0
    9.1255   -1.0726   22.6225 C   0  0  0  0  0  0  0  0  0  0  0  0
    8.5728   -2.0961   23.3863 N   0  0  0  0  0  0  0  0  0  0  0  0
    7.9655   -3.2068   22.7299 C   0  0  0  0  0  0  0  0  0  0  0  0
    6.8337   -3.8109   23.2862 C   0  0  0  0  0  0  0  0  0  0  0  0
    6.4065   -3.3409   24.1672 H   0  0  0  0  0  0  0  0  0  0  0  0
    6.2973   -4.9749   22.7171 C   0  0  0  0  0  0  0  0  0  0  0  0
    5.3821   -5.3967   23.1211 H   0  0  0  0  0  0  0  0  0  0  0  0
    6.9396   -5.5900   21.6347 C   0  0  0  0  0  0  0  0  0  0  0  0
    6.5953   -6.5479   21.2497 H   0  0  0  0  0  0  0  0  0  0  0  0
    8.0507   -4.9698   21.0604 C   0  0  0  0  0  0  0  0  0  0  0  0
    8.5802   -5.4195   20.2276 H   0  0  0  0  0  0  0  0  0  0  0  0
    8.5244   -3.7568   21.5684 C   0  0  0  0  0  0  0  0  0  0  0  0
    9.3417   -3.2279   21.0879 H   0  0  0  0  0  0  0  0  0  0  0  0
    8.9899   -2.2220   24.7832 C   0  0  0  0  0  0  0  0  0  0  0  0
    8.2751   -1.7584   25.4790 H   0  0  0  0  0  0  0  0  0  0  0  0
    9.9468   -1.7144   24.9298 H   0  0  0  0  0  0  0  0  0  0  0  0
    9.0999   -3.2811   25.0468 H   0  0  0  0  0  0  0  0  0  0  0  0
   10.3012   -0.6142   22.8505 N   0  0  0  0  0  0  0  0  0  0  0  0
   10.6124    0.3908   21.8429 C   0  0  0  0  0  0  0  0  0  0  0  0
   10.7818    1.3352   22.3712 H   0  0  0  0  0  0  0  0  0  0  0  0
   11.5622    0.1303   21.3640 H   0  0  0  0  0  0  0  0  0  0  0  0
    9.4238    0.4666   20.8443 C   0  0  0  0  0  0  0  0  0  0  0  0
    9.0291    1.4828   20.7464 H   0  0  0  0  0  0  0  0  0  0  0  0
    9.6824    0.1193   19.8376 H   0  0  0  0  0  0  0  0  0  0  0  0
    6.4988   -0.0534   19.9015 C   0  0  0  0  0  0  0  0  0  0  0  0
    7.0786   -0.0102   18.6110 C   0  0  0  0  0  0  0  0  0  0  0  0
    7.9888   -0.5714   18.4029 H   0  0  0  0  0  0  0  0  0  0  0  0
    6.5666    0.6613   17.5703 N   0  0  0  0  0  0  0  0  0  0  0  0
    5.4200    1.3264   17.7760 C   0  0  0  0  0  0  0  0  0  0  0  0
    5.0425    1.8940   16.9307 H   0  0  0  0  0  0  0  0  0  0  0  0
    4.7190    1.3079   18.9872 C   0  0  0  0  0  0  0  0  0  0  0  0
    3.7919    1.8649   19.0832 H   0  0  0  0  0  0  0  0  0  0  0  0
    5.2541    0.5863   20.0539 C   0  0  0  0  0  0  0  0  0  0  0  0
    4.7486    0.5388   21.0183 H   0  0  0  0  0  0  0  0  0  0  0  0
  1  2  1  0
  2  3  2  3
  3  4  1  0
  4  5  1  0
  5  6  1  0
  6  7  2  0
  7  8  1  0
  7  9  1  0
  9 10  1  0
  9 11  2  0
 11 12  1  0
 11 13  1  0
 13 14  1  0
 13 15  2  0
 15 16  1  0
  5 17  1  0
 17 18  1  0
 17 19  1  0
 17 20  1  0
  4 21  2  0
 21 22  1  0
 22 23  1  0
 22 24  1  0
 22 25  1  0
 25 26  1  0
 25 27  1  0
  2 28  1  0
 28 29  2  0
 29 30  1  0
 29 31  1  0
 31 32  2  0
 32 33  1  0
 32 34  1  0
 34 35  1  0
 34 36  2  0
 36 37  1  0
 25  3  1  0
 36 28  1  0
 15  6  1  0
M  END
>  <cnnaffinity>  (1) 
-5.14915

>  <filename>  (1) 
CN(C1=NCCC1=Cc1cccnc1)c1ccccc1

$$$$
