
     RDKit          3D

 39 41  0  0  0  0  0  0  0  0999 V2000
    4.9442    2.1264   16.7422 H   0  0  0  0  0  0  0  0  0  0  0  0
    5.3037    1.5026   17.5605 C   0  0  0  0  0  0  0  0  0  0  0  0
    6.4280    0.8080   17.3204 N   0  0  0  0  0  0  0  0  0  0  0  0
    6.9320    0.0890   18.3297 C   0  0  0  0  0  0  0  0  0  0  0  0
    7.8592   -0.4473   18.1399 H   0  0  0  0  0  0  0  0  0  0  0  0
    6.3564    0.0038   19.6135 C   0  0  0  0  0  0  0  0  0  0  0  0
    7.0838   -0.6537   20.6794 N   0  0  0  0  0  0  0  0  0  0  0  0
    8.3351   -0.1436   20.9886 C   0  0  0  0  0  0  0  0  0  0  0  0
    8.6236    0.7318   20.4227 H   0  0  0  0  0  0  0  0  0  0  0  0
    9.1578   -0.6880   21.9379 C   0  0  0  0  0  0  0  0  0  0  0  0
   10.4574   -0.1984   22.1580 N   0  0  0  0  0  0  0  0  0  0  0  0
   11.3878   -1.0642   22.8636 C   0  0  0  0  0  0  0  0  0  0  0  0
   12.4132   -0.7028   22.7275 H   0  0  0  0  0  0  0  0  0  0  0  0
   11.3550   -2.0790   22.4465 H   0  0  0  0  0  0  0  0  0  0  0  0
   11.1550   -1.1251   23.9424 H   0  0  0  0  0  0  0  0  0  0  0  0
   10.6400    1.2468   22.3751 C   0  0  0  0  0  0  0  0  0  0  0  0
   11.6914    1.4055   22.6551 H   0  0  0  0  0  0  0  0  0  0  0  0
   10.5059    1.7816   21.4240 H   0  0  0  0  0  0  0  0  0  0  0  0
    9.7375    1.9000   23.4230 C   0  0  0  0  0  0  0  0  0  0  0  0
    8.7679    2.8301   23.0174 C   0  0  0  0  0  0  0  0  0  0  0  0
    8.6825    3.0874   21.9618 H   0  0  0  0  0  0  0  0  0  0  0  0
    7.9035    3.4232   23.9428 C   0  0  0  0  0  0  0  0  0  0  0  0
    7.1609    4.1434   23.6055 H   0  0  0  0  0  0  0  0  0  0  0  0
    7.9897    3.0763   25.2936 C   0  0  0  0  0  0  0  0  0  0  0  0
    7.3056    3.5113   26.0184 H   0  0  0  0  0  0  0  0  0  0  0  0
    8.9655    2.1672   25.7163 C   0  0  0  0  0  0  0  0  0  0  0  0
    9.0339    1.8943   26.7659 H   0  0  0  0  0  0  0  0  0  0  0  0
    9.8410    1.5902   24.7902 C   0  0  0  0  0  0  0  0  0  0  0  0
   10.6034    0.8955   25.1426 H   0  0  0  0  0  0  0  0  0  0  0  0
    8.6375   -1.8015   22.6907 C   0  0  0  0  0  0  0  0  0  0  0  0
    9.2665   -2.2070   23.4781 H   0  0  0  0  0  0  0  0  0  0  0  0
    7.3938   -2.2913   22.4523 C   0  0  0  0  0  0  0  0  0  0  0  0
    6.9418   -3.0835   23.0326 H   0  0  0  0  0  0  0  0  0  0  0  0
    6.5428   -1.7833   21.3865 C   0  0  0  0  0  0  0  0  0  0  0  0
    5.4736   -2.2886   21.0995 O   0  0  0  0  0  0  0  0  0  0  0  0
    5.1340    0.6578   19.8223 C   0  0  0  0  0  0  0  0  0  0  0  0
    4.6124    0.5606   20.7746 H   0  0  0  0  0  0  0  0  0  0  0  0
    4.6199    1.4487   18.7815 C   0  0  0  0  0  0  0  0  0  0  0  0
    3.7179    2.0408   18.9034 H   0  0  0  0  0  0  0  0  0  0  0  0
  1  2  1  0
  2  3  2  0
  3  4  1  0
  4  5  1  0
  4  6  2  0
  6  7  1  0
  7  8  1  0
  8  9  1  0
  8 10  2  0
 10 11  1  0
 11 12  1  0
 12 13  1  0
 12 14  1  0
 12 15  1  0
 11 16  1  0
 16 17  1  0
 16 18  1  0
 16 19  1  0
 19 20  2  0
 20 21  1  0
 20 22  1  0
 22 23  1  0
 22 24  2  0
 24 25  1  0
 24 26  1  0
 26 27  1  0
 26 28  2  0
 28 29  1  0
 10 30  1  0
 30 31  1  0
 30 32  2  0
 32 33  1  0
 32 34  1  0
 34 35  2  0
  6 36  1  0
 36 37  1  0
 36 38  2  0
 38 39  1  0
 38  2  1  0
 34  7  1  0
 28 19  1  0
M  END
>  <cnnaffinity>  (1) 
-5.33381

>  <filename>  (1) 
CN(Cc1ccccc1)c1ccc(=O)n(-c2cccnc2)c1

$$$$
