
     RDKit          3D

 41 43  0  0  0  0  0  0  0  0999 V2000
    4.9477    1.8521   16.9541 H   0  0  0  0  0  0  0  0  0  0  0  0
    5.3910    1.3072   17.7822 C   0  0  0  0  0  0  0  0  0  0  0  0
    6.5444    0.6687   17.5218 N   0  0  0  0  0  0  0  0  0  0  0  0
    7.1372    0.0178   18.5266 C   0  0  0  0  0  0  0  0  0  0  0  0
    8.0807   -0.4789   18.2920 H   0  0  0  0  0  0  0  0  0  0  0  0
    6.6236   -0.0170   19.8368 C   0  0  0  0  0  0  0  0  0  0  0  0
    7.3727   -0.6496   20.9280 C   0  0  0  0  0  0  0  0  0  0  0  0
    8.1201   -1.7377   20.7368 N   0  0  0  0  0  0  0  0  0  0  0  0
    8.6371   -1.9705   21.9391 N   0  0  0  0  0  0  0  0  0  0  0  0
    8.3222   -1.0838   22.8937 C   0  0  0  0  0  0  0  0  0  0  0  0
    7.4700   -0.1777   22.2876 C   0  0  0  0  0  0  0  0  0  0  0  0
    6.7988    0.9248   22.8391 N   0  0  0  0  0  0  0  0  0  0  0  0
    6.8679    1.7529   22.2609 H   0  0  0  0  0  0  0  0  0  0  0  0
    6.8027    1.1164   24.2751 C   0  0  0  0  0  0  0  0  0  0  0  0
    6.9143    0.1339   24.7379 H   0  0  0  0  0  0  0  0  0  0  0  0
    5.8152    1.4772   24.5917 H   0  0  0  0  0  0  0  0  0  0  0  0
    7.8718    2.0560   24.8883 C   0  0  0  0  0  0  0  0  0  0  0  0
    8.8844    1.7487   24.5889 H   0  0  0  0  0  0  0  0  0  0  0  0
    7.7390    3.0702   24.4840 H   0  0  0  0  0  0  0  0  0  0  0  0
    7.8379    2.1559   26.3518 N   0  0  0  0  0  0  0  0  0  0  0  0
    6.5830    2.6524   26.8953 C   0  0  0  0  0  0  0  0  0  0  0  0
    6.2621    3.5492   26.3527 H   0  0  0  0  0  0  0  0  0  0  0  0
    6.7311    2.9430   27.9408 H   0  0  0  0  0  0  0  0  0  0  0  0
    5.7464    1.9247   26.8716 H   0  0  0  0  0  0  0  0  0  0  0  0
    8.3049    0.9743   27.0593 C   0  0  0  0  0  0  0  0  0  0  0  0
    9.3085    0.6966   26.7150 H   0  0  0  0  0  0  0  0  0  0  0  0
    7.6501    0.0845   26.9642 H   0  0  0  0  0  0  0  0  0  0  0  0
    8.3843    1.2019   28.1284 H   0  0  0  0  0  0  0  0  0  0  0  0
    9.1636   -1.3578   24.1125 C   0  0  0  0  0  0  0  0  0  0  0  0
    8.5476   -1.5646   24.9889 H   0  0  0  0  0  0  0  0  0  0  0  0
    9.7720   -0.4828   24.3693 H   0  0  0  0  0  0  0  0  0  0  0  0
   10.0346   -2.5810   23.6999 C   0  0  0  0  0  0  0  0  0  0  0  0
   11.0775   -2.3012   23.6570 H   0  0  0  0  0  0  0  0  0  0  0  0
    9.9399   -3.4252   24.3824 H   0  0  0  0  0  0  0  0  0  0  0  0
    9.6098   -2.9748   22.2648 C   0  0  0  0  0  0  0  0  0  0  0  0
   10.4363   -2.8944   21.5565 H   0  0  0  0  0  0  0  0  0  0  0  0
    9.1533   -3.9629   22.1767 H   0  0  0  0  0  0  0  0  0  0  0  0
    5.4034    0.6369   20.0838 C   0  0  0  0  0  0  0  0  0  0  0  0
    4.9891    0.6267   21.0925 H   0  0  0  0  0  0  0  0  0  0  0  0
    4.7793    1.3046   19.0386 C   0  0  0  0  0  0  0  0  0  0  0  0
    3.8586    1.8523   19.1920 H   0  0  0  0  0  0  0  0  0  0  0  0
  1  2  1  0
  2  3  2  0
  3  4  1  0
  4  5  1  0
  4  6  2  0
  6  7  1  0
  7  8  2  0
  8  9  1  0
  9 10  1  0
 10 11  2  0
 11 12  1  0
 12 13  1  0
 12 14  1  0
 14 15  1  0
 14 16  1  0
 14 17  1  0
 17 18  1  0
 17 19  1  0
 17 20  1  0
 20 21  1  0
 21 22  1  0
 21 23  1  0
 21 24  1  0
 20 25  1  0
 25 26  1  0
 25 27  1  0
 25 28  1  0
 10 29  1  0
 29 30  1  0
 29 31  1  0
 29 32  1  0
 32 33  1  0
 32 34  1  0
 32 35  1  0
 35 36  1  0
 35 37  1  0
  6 38  1  0
 38 39  1  0
 38 40  2  0
 40 41  1  0
 40  2  1  0
 11  7  1  0
 35  9  1  0
M  END
>  <cnnaffinity>  (1) 
-5.19387

>  <filename>  (1) 
CN(C)CCNc1c(-c2cccnc2)nn2c1CCC2

$$$$
