
     RDKit          3D

 40 43  0  0  0  0  0  0  0  0999 V2000
    4.9459    1.7651   16.8790 H   0  0  0  0  0  0  0  0  0  0  0  0
    5.4110    1.2633   17.7246 C   0  0  0  0  0  0  0  0  0  0  0  0
    6.5833    0.6527   17.4864 N   0  0  0  0  0  0  0  0  0  0  0  0
    7.1964    0.0523   18.5111 C   0  0  0  0  0  0  0  0  0  0  0  0
    8.1532   -0.4168   18.2855 H   0  0  0  0  0  0  0  0  0  0  0  0
    6.6816    0.0323   19.8206 C   0  0  0  0  0  0  0  0  0  0  0  0
    7.4090   -0.5315   20.8873 N   0  0  0  0  0  0  0  0  0  0  0  0
    8.3478   -1.5615   20.8321 C   0  0  0  0  0  0  0  0  0  0  0  0
    8.6442   -1.9546   19.8846 H   0  0  0  0  0  0  0  0  0  0  0  0
    8.8408   -1.7988   22.0708 C   0  0  0  0  0  0  0  0  0  0  0  0
    9.5443   -2.4942   22.4915 H   0  0  0  0  0  0  0  0  0  0  0  0
    8.2340   -0.8706   22.8942 N   0  0  0  0  0  0  0  0  0  0  0  0
    8.5531   -0.3903   24.1191 N   0  0  0  0  0  0  0  0  0  0  0  0
    7.8577    0.7551   24.1625 C   0  0  0  0  0  0  0  0  0  0  0  0
    8.0139    1.6007   25.2454 N   0  0  0  0  0  0  0  0  0  0  0  0
    7.3422    2.8928   25.1956 C   0  0  0  0  0  0  0  0  0  0  0  0
    7.6423    3.5099   26.0508 H   0  0  0  0  0  0  0  0  0  0  0  0
    6.2535    2.7493   25.2654 H   0  0  0  0  0  0  0  0  0  0  0  0
    7.5577    3.4669   24.2777 H   0  0  0  0  0  0  0  0  0  0  0  0
    9.2898    1.5024   25.9570 C   0  0  0  0  0  0  0  0  0  0  0  0
    9.3276    0.5231   26.4388 H   0  0  0  0  0  0  0  0  0  0  0  0
    9.2861    2.2406   26.7665 H   0  0  0  0  0  0  0  0  0  0  0  0
   10.6308    1.6084   25.1019 C   0  0  0  0  0  0  0  0  0  0  0  0
   11.5421    0.6262   25.2931 C   0  0  0  0  0  0  0  0  0  0  0  0
   11.3903   -0.2445   25.9077 H   0  0  0  0  0  0  0  0  0  0  0  0
   12.7801    0.9043   24.5736 C   0  0  0  0  0  0  0  0  0  0  0  0
   13.5005    0.0888   24.6329 H   0  0  0  0  0  0  0  0  0  0  0  0
   13.2767    1.9128   23.7640 C   0  0  0  0  0  0  0  0  0  0  0  0
   14.1029    1.4605   23.1961 H   0  0  0  0  0  0  0  0  0  0  0  0
   11.0935    2.6091   24.0861 C   0  0  0  0  0  0  0  0  0  0  0  0
   13.3173    3.0241   23.6687 H   0  0  0  0  0  0  0  0  0  0  0  0
   10.9462    2.9365   24.0775 C   0  0  0  0  0  0  0  0  0  0  0  0
   10.3313    3.7040   24.7047 H   0  0  0  0  0  0  0  0  0  0  0  0
    7.0500    0.9805   23.0212 C   0  0  0  0  0  0  0  0  0  0  0  0
    6.3447    1.7790   22.9010 H   0  0  0  0  0  0  0  0  0  0  0  0
    7.3815   -0.0864   22.2021 C   0  0  0  0  0  0  0  0  0  0  0  0
    5.4362    0.6387   20.0506 C   0  0  0  0  0  0  0  0  0  0  0  0
    5.0057    0.6236   21.0520 H   0  0  0  0  0  0  0  0  0  0  0  0
    4.7993    1.2687   18.9826 C   0  0  0  0  0  0  0  0  0  0  0  0
    3.8543    1.7801   19.1236 H   0  0  0  0  0  0  0  0  0  0  0  0
  1  2  1  0
  2  3  2  0
  3  4  1  0
  4  5  1  0
  4  6  2  0
  6  7  1  0
  7  8  1  0
  8  9  1  0
  8 10  2  0
 10 11  1  0
 10 12  1  0
 12 13  1  0
 13 14  2  0
 14 15  1  0
 15 16  1  0
 16 17  1  0
 16 18  1  0
 16 19  1  0
 15 20  1  0
 20 21  1  0
 20 22  1  0
 20 23  1  0
 23 24  2  0
 24 25  1  0
 24 26  1  0
 26 27  1  0
 26 28  2  0
 28 29  1  0
 28 30  1  0
 30 31  1  0
 30 32  2  0
 32 33  1  0
 14 34  1  0
 34 35  1  0
 34 36  2  0
  6 37  1  0
 37 38  1  0
 37 39  2  0
 39 40  1  0
 39  2  1  0
 36  7  1  0
 36 12  1  0
 32 23  1  0
M  END
>  <cnnaffinity>  (1) 
-5.63669

>  <filename>  (1) 
CN(Cc1ccccc1)c1cc2n(-c3cccnc3)ccn2n1

$$$$
