
     RDKit          3D

 34 36  0  0  0  0  0  0  0  0999 V2000
    4.9971    1.7791   16.9760 H   0  0  0  0  0  0  0  0  0  0  0  0
    5.4910    1.2907   17.8147 C   0  0  0  0  0  0  0  0  0  0  0  0
    6.6714    0.7149   17.5457 N   0  0  0  0  0  0  0  0  0  0  0  0
    7.3076    0.1140   18.5563 C   0  0  0  0  0  0  0  0  0  0  0  0
    8.2793   -0.3178   18.3286 H   0  0  0  0  0  0  0  0  0  0  0  0
    6.7860    0.0051   19.8541 C   0  0  0  0  0  0  0  0  0  0  0  0
    7.5463   -0.7628   20.8394 C   0  0  0  0  0  0  0  0  0  0  0  0
    8.9169   -0.6832   20.9342 N   0  0  0  0  0  0  0  0  0  0  0  0
    9.2113   -1.4963   21.9131 C   0  0  0  0  0  0  0  0  0  0  0  0
    8.1349   -2.1331   22.4334 N   0  0  0  0  0  0  0  0  0  0  0  0
    7.0471   -1.6943   21.7254 C   0  0  0  0  0  0  0  0  0  0  0  0
    5.7359   -2.3644   21.8633 C   0  0  0  0  0  0  0  0  0  0  0  0
    4.9791   -1.6995   21.4271 H   0  0  0  0  0  0  0  0  0  0  0  0
    5.5237   -2.4578   22.9367 H   0  0  0  0  0  0  0  0  0  0  0  0
    5.7076   -3.6910   21.2490 N   0  0  0  0  0  0  0  0  0  0  0  0
    5.6315   -3.5768   19.8006 C   0  0  0  0  0  0  0  0  0  0  0  0
    6.3793   -2.8515   19.4609 H   0  0  0  0  0  0  0  0  0  0  0  0
    4.6538   -3.2112   19.4375 H   0  0  0  0  0  0  0  0  0  0  0  0
    5.8396   -4.5481   19.3394 H   0  0  0  0  0  0  0  0  0  0  0  0
    4.7393   -4.5793   21.8703 C   0  0  0  0  0  0  0  0  0  0  0  0
    3.7124   -4.1589   21.9557 H   0  0  0  0  0  0  0  0  0  0  0  0
    5.0744   -4.8402   22.8807 H   0  0  0  0  0  0  0  0  0  0  0  0
    4.7016   -5.5224   21.3105 H   0  0  0  0  0  0  0  0  0  0  0  0
    8.3147   -3.2248   23.3708 C   0  0  0  0  0  0  0  0  0  0  0  0
    7.6672   -3.0945   24.2473 H   0  0  0  0  0  0  0  0  0  0  0  0
    8.0322   -4.1764   22.9010 H   0  0  0  0  0  0  0  0  0  0  0  0
    9.8093   -3.1739   23.7783 C   0  0  0  0  0  0  0  0  0  0  0  0
    9.9231   -2.8191   24.8040 H   0  0  0  0  0  0  0  0  0  0  0  0
   10.2927   -4.1473   23.6952 H   0  0  0  0  0  0  0  0  0  0  0  0
   10.7056   -2.0035   22.6719 S   0  0  0  0  0  0  0  0  0  0  0  0
    5.5471    0.6121   20.1215 C   0  0  0  0  0  0  0  0  0  0  0  0
    5.1106    0.5958   21.1214 H   0  0  0  0  0  0  0  0  0  0  0  0
    4.8949    1.2744   19.0800 C   0  0  0  0  0  0  0  0  0  0  0  0
    3.9460    1.7721   19.2375 H   0  0  0  0  0  0  0  0  0  0  0  0
  1  2  1  0
  2  3  2  0
  3  4  1  0
  4  5  1  0
  4  6  2  0
  6  7  1  0
  7  8  1  0
  8  9  2  0
  9 10  1  0
 10 11  1  0
 11 12  1  0
 12 13  1  0
 12 14  1  0
 12 15  1  0
 15 16  1  0
 16 17  1  0
 16 18  1  0
 16 19  1  0
 15 20  1  0
 20 21  1  0
 20 22  1  0
 20 23  1  0
 10 24  1  0
 24 25  1  0
 24 26  1  0
 24 27  1  0
 27 28  1  0
 27 29  1  0
 27 30  1  0
  6 31  1  0
 31 32  1  0
 31 33  2  0
 33 34  1  0
 33  2  1  0
 11  7  2  0
 30  9  1  0
M  END
>  <cnnaffinity>  (1) 
-5.08246

>  <filename>  (1) 
CN(C)Cc1c(-c2cccnc2)nc2n1CCS2

$$$$
