
     RDKit          3D

 42 44  0  0  0  0  0  0  0  0999 V2000
    5.0526    1.7958   16.8438 H   0  0  0  0  0  0  0  0  0  0  0  0
    5.4349    1.2910   17.7302 C   0  0  0  0  0  0  0  0  0  0  0  0
    6.5731    0.6002   17.5618 N   0  0  0  0  0  0  0  0  0  0  0  0
    7.0822   -0.0065   18.6363 C   0  0  0  0  0  0  0  0  0  0  0  0
    7.9865   -0.5915   18.4836 H   0  0  0  0  0  0  0  0  0  0  0  0
    6.5218    0.0613   19.9217 C   0  0  0  0  0  0  0  0  0  0  0  0
    7.2522   -0.5807   21.0234 C   0  0  0  0  0  0  0  0  0  0  0  0
    7.8000   -1.7834   20.8529 N   0  0  0  0  0  0  0  0  0  0  0  0
    8.4380   -1.9962   22.0042 N   0  0  0  0  0  0  0  0  0  0  0  0
    8.4037   -0.9746   22.8715 C   0  0  0  0  0  0  0  0  0  0  0  0
    7.6016   -0.0099   22.2855 C   0  0  0  0  0  0  0  0  0  0  0  0
    7.3813    1.4148   22.6943 C   0  0  0  0  0  0  0  0  0  0  0  0
    7.4974    1.5047   23.7826 H   0  0  0  0  0  0  0  0  0  0  0  0
    6.3466    1.7093   22.4736 H   0  0  0  0  0  0  0  0  0  0  0  0
    8.3298    2.3766   21.9534 C   0  0  0  0  0  0  0  0  0  0  0  0
    8.1004    2.3557   20.8796 H   0  0  0  0  0  0  0  0  0  0  0  0
    9.3609    2.0064   22.0379 H   0  0  0  0  0  0  0  0  0  0  0  0
    8.2720    3.8169   22.4705 C   0  0  0  0  0  0  0  0  0  0  0  0
    7.3109    4.2645   22.1812 H   0  0  0  0  0  0  0  0  0  0  0  0
    9.0557    4.4321   21.9914 H   0  0  0  0  0  0  0  0  0  0  0  0
    8.3833    3.8853   23.9266 N   0  0  0  0  0  0  0  0  0  0  0  0
    9.7008    3.5133   24.4138 C   0  0  0  0  0  0  0  0  0  0  0  0
   10.0065    2.5523   23.9773 H   0  0  0  0  0  0  0  0  0  0  0  0
    9.6674    3.3580   25.4982 H   0  0  0  0  0  0  0  0  0  0  0  0
   10.4881    4.2627   24.1875 H   0  0  0  0  0  0  0  0  0  0  0  0
    7.8879    5.1399   24.4596 C   0  0  0  0  0  0  0  0  0  0  0  0
    6.8415    5.2688   24.1567 H   0  0  0  0  0  0  0  0  0  0  0  0
    8.4510    6.0275   24.1099 H   0  0  0  0  0  0  0  0  0  0  0  0
    7.9028    5.1265   25.5561 H   0  0  0  0  0  0  0  0  0  0  0  0
    9.3760   -1.2263   23.9958 C   0  0  0  0  0  0  0  0  0  0  0  0
    8.8503   -1.3377   24.9492 H   0  0  0  0  0  0  0  0  0  0  0  0
   10.0671   -0.3803   24.1133 H   0  0  0  0  0  0  0  0  0  0  0  0
   10.0881   -2.5530   23.5658 C   0  0  0  0  0  0  0  0  0  0  0  0
   11.1483   -2.3952   23.3725 H   0  0  0  0  0  0  0  0  0  0  0  0
    9.9933   -3.3260   24.3304 H   0  0  0  0  0  0  0  0  0  0  0  0
    9.4148   -3.0190   22.2464 C   0  0  0  0  0  0  0  0  0  0  0  0
   10.1004   -3.0031   21.3979 H   0  0  0  0  0  0  0  0  0  0  0  0
    8.9280   -3.9958   22.3053 H   0  0  0  0  0  0  0  0  0  0  0  0
    5.3183    0.7645   20.0752 C   0  0  0  0  0  0  0  0  0  0  0  0
    4.8231    0.8186   21.0474 H   0  0  0  0  0  0  0  0  0  0  0  0
    4.7631    1.3794   18.9533 C   0  0  0  0  0  0  0  0  0  0  0  0
    3.8460    1.9558   19.0195 H   0  0  0  0  0  0  0  0  0  0  0  0
  1  2  1  0
  2  3  2  0
  3  4  1  0
  4  5  1  0
  4  6  2  0
  6  7  1  0
  7  8  2  0
  8  9  1  0
  9 10  1  0
 10 11  2  0
 11 12  1  0
 12 13  1  0
 12 14  1  0
 12 15  1  0
 15 16  1  0
 15 17  1  0
 15 18  1  0
 18 19  1  0
 18 20  1  0
 18 21  1  0
 21 22  1  0
 22 23  1  0
 22 24  1  0
 22 25  1  0
 21 26  1  0
 26 27  1  0
 26 28  1  0
 26 29  1  0
 10 30  1  0
 30 31  1  0
 30 32  1  0
 30 33  1  0
 33 34  1  0
 33 35  1  0
 33 36  1  0
 36 37  1  0
 36 38  1  0
  6 39  1  0
 39 40  1  0
 39 41  2  0
 41 42  1  0
 41  2  1  0
 11  7  1  0
 36  9  1  0
M  END
>  <cnnaffinity>  (1) 
-5.38995

>  <filename>  (1) 
CN(C)CCCc1c(-c2cccnc2)nn2c1CCC2

$$$$
