
     RDKit          3D

 40 42  0  0  0  0  0  0  0  0999 V2000
    6.9976    1.7895   22.1688 H   0  0  0  0  0  0  0  0  0  0  0  0
    7.2953    0.9614   22.8256 C   0  0  0  0  0  0  0  0  0  0  0  0
    7.5499   -0.2743   22.3484 C   0  0  0  0  0  0  0  0  0  0  0  0
    7.3880   -0.7259   20.9635 C   0  0  0  0  0  0  0  0  0  0  0  0
    6.6458    0.0228   19.9231 C   0  0  0  0  0  0  0  0  0  0  0  0
    7.1652    0.0495   18.6206 C   0  0  0  0  0  0  0  0  0  0  0  0
    8.1081   -0.4434   18.3864 H   0  0  0  0  0  0  0  0  0  0  0  0
    6.5690    0.6718   17.5993 N   0  0  0  0  0  0  0  0  0  0  0  0
    5.4042    1.2906   17.8444 C   0  0  0  0  0  0  0  0  0  0  0  0
    4.9403    1.7843   16.9927 H   0  0  0  0  0  0  0  0  0  0  0  0
    4.7993    1.3116   19.1037 C   0  0  0  0  0  0  0  0  0  0  0  0
    3.8694    1.8418   19.2417 H   0  0  0  0  0  0  0  0  0  0  0  0
    5.4255    0.6647   20.1650 C   0  0  0  0  0  0  0  0  0  0  0  0
    4.9821    0.6514   21.1619 H   0  0  0  0  0  0  0  0  0  0  0  0
    7.9380   -1.8550   20.7084 N   0  0  0  0  0  0  0  0  0  0  0  0
    8.5416   -2.4046   21.9269 C   0  0  0  0  0  0  0  0  0  0  0  0
    8.1358   -3.4065   22.1120 H   0  0  0  0  0  0  0  0  0  0  0  0
    9.6188   -2.5128   21.7575 H   0  0  0  0  0  0  0  0  0  0  0  0
    8.2351   -1.4178   23.0899 C   0  0  0  0  0  0  0  0  0  0  0  0
    9.1422   -1.0725   23.6045 H   0  0  0  0  0  0  0  0  0  0  0  0
    7.5859   -1.8817   23.8455 H   0  0  0  0  0  0  0  0  0  0  0  0
    7.4797    1.3702   24.1433 N   0  0  0  0  0  0  0  0  0  0  0  0
    7.0354    0.5792   25.2750 C   0  0  0  0  0  0  0  0  0  0  0  0
    6.2477   -0.1071   24.9473 H   0  0  0  0  0  0  0  0  0  0  0  0
    6.6136    1.2541   26.0344 H   0  0  0  0  0  0  0  0  0  0  0  0
    7.8249   -0.0081   25.7827 H   0  0  0  0  0  0  0  0  0  0  0  0
    8.4920    2.4000   24.3752 C   0  0  0  0  0  0  0  0  0  0  0  0
    8.1977    3.3142   23.8343 H   0  0  0  0  0  0  0  0  0  0  0  0
    8.4692    2.6483   25.4449 H   0  0  0  0  0  0  0  0  0  0  0  0
    9.9233    2.0230   23.9631 C   0  0  0  0  0  0  0  0  0  0  0  0
   10.7687    1.3049   24.8270 C   0  0  0  0  0  0  0  0  0  0  0  0
   10.4280    1.0475   25.8303 H   0  0  0  0  0  0  0  0  0  0  0  0
   12.0378    0.8898   24.4080 C   0  0  0  0  0  0  0  0  0  0  0  0
   12.6664    0.3184   25.0873 H   0  0  0  0  0  0  0  0  0  0  0  0
   12.4843    1.1919   23.1162 C   0  0  0  0  0  0  0  0  0  0  0  0
   13.4676    0.8658   22.7855 H   0  0  0  0  0  0  0  0  0  0  0  0
   11.6602    1.9183   22.2496 C   0  0  0  0  0  0  0  0  0  0  0  0
   11.9920    2.1510   21.2400 H   0  0  0  0  0  0  0  0  0  0  0  0
   10.3960    2.3362   22.6752 C   0  0  0  0  0  0  0  0  0  0  0  0
    9.7524    2.8850   21.9870 H   0  0  0  0  0  0  0  0  0  0  0  0
  1  2  1  0
  2  3  2  3
  3  4  1  0
  4  5  1  0
  5  6  2  0
  6  7  1  0
  6  8  1  0
  8  9  2  0
  9 10  1  0
  9 11  1  0
 11 12  1  0
 11 13  2  0
 13 14  1  0
  4 15  2  0
 15 16  1  0
 16 17  1  0
 16 18  1  0
 16 19  1  0
 19 20  1  0
 19 21  1  0
  2 22  1  0
 22 23  1  0
 23 24  1  0
 23 25  1  0
 23 26  1  0
 22 27  1  0
 27 28  1  0
 27 29  1  0
 27 30  1  0
 30 31  2  0
 31 32  1  0
 31 33  1  0
 33 34  1  0
 33 35  2  0
 35 36  1  0
 35 37  1  0
 37 38  1  0
 37 39  2  0
 39 40  1  0
 19  3  1  0
 39 30  1  0
 13  5  1  0
M  END
>  <cnnaffinity>  (1) 
-5.50991

>  <filename>  (1) 
CN(C=C1CCN=C1c1cccnc1)Cc1ccccc1

$$$$
