
     RDKit          3D

 43 45  0  0  0  0  0  0  0  0999 V2000
    4.9122    1.8049   16.9733 H   0  0  0  0  0  0  0  0  0  0  0  0
    5.3854    1.3069   17.8172 C   0  0  0  0  0  0  0  0  0  0  0  0
    6.5485    0.6916   17.5517 N   0  0  0  0  0  0  0  0  0  0  0  0
    7.1563    0.0639   18.5647 C   0  0  0  0  0  0  0  0  0  0  0  0
    8.1142   -0.3972   18.3265 H   0  0  0  0  0  0  0  0  0  0  0  0
    6.6477    0.0088   19.8781 C   0  0  0  0  0  0  0  0  0  0  0  0
    7.3668   -0.6687   20.9677 C   0  0  0  0  0  0  0  0  0  0  0  0
    7.5702   -0.2963   22.2940 C   0  0  0  0  0  0  0  0  0  0  0  0
    7.1402    0.8742   22.8802 N   0  0  0  0  0  0  0  0  0  0  0  0
    6.8825    1.6280   22.2471 H   0  0  0  0  0  0  0  0  0  0  0  0
    7.3542    1.1325   24.2275 N   0  0  0  0  0  0  0  0  0  0  0  0
    6.0716    1.4981   24.8605 C   0  0  0  0  0  0  0  0  0  0  0  0
    5.6482    2.4050   24.3897 H   0  0  0  0  0  0  0  0  0  0  0  0
    5.3743    0.6751   24.6774 H   0  0  0  0  0  0  0  0  0  0  0  0
    6.2620    1.7413   26.3534 C   0  0  0  0  0  0  0  0  0  0  0  0
    5.3024    1.9734   26.8229 H   0  0  0  0  0  0  0  0  0  0  0  0
    6.6282    0.8216   26.8217 H   0  0  0  0  0  0  0  0  0  0  0  0
    7.2945    2.8539   26.6137 C   0  0  0  0  0  0  0  0  0  0  0  0
    7.4743    2.9153   27.7087 H   0  0  0  0  0  0  0  0  0  0  0  0
    6.8348    4.1733   26.1360 N   0  0  0  0  0  0  0  0  0  0  0  0
    7.8418    5.2200   26.3352 C   0  0  0  0  0  0  0  0  0  0  0  0
    7.3970    6.1977   26.1241 H   0  0  0  0  0  0  0  0  0  0  0  0
    8.2412    5.2555   27.3680 H   0  0  0  0  0  0  0  0  0  0  0  0
    8.6855    5.1020   25.6471 H   0  0  0  0  0  0  0  0  0  0  0  0
    5.5599    4.5723   26.7402 C   0  0  0  0  0  0  0  0  0  0  0  0
    5.3479    5.6161   26.4877 H   0  0  0  0  0  0  0  0  0  0  0  0
    4.7274    3.9779   26.3494 H   0  0  0  0  0  0  0  0  0  0  0  0
    5.5519    4.4925   27.8451 H   0  0  0  0  0  0  0  0  0  0  0  0
    8.6004    2.4041   25.9310 C   0  0  0  0  0  0  0  0  0  0  0  0
    8.9303    1.4751   26.4088 H   0  0  0  0  0  0  0  0  0  0  0  0
    9.3933    3.1381   26.0921 H   0  0  0  0  0  0  0  0  0  0  0  0
    8.3983    2.1587   24.4365 C   0  0  0  0  0  0  0  0  0  0  0  0
    8.1251    3.1105   23.9445 H   0  0  0  0  0  0  0  0  0  0  0  0
    9.3236    1.8006   23.9726 H   0  0  0  0  0  0  0  0  0  0  0  0
    8.2871   -1.3722   22.8769 C   0  0  0  0  0  0  0  0  0  0  0  0
    8.6242   -1.4777   23.8982 H   0  0  0  0  0  0  0  0  0  0  0  0
    8.5232   -2.3301   21.9830 N   0  0  0  0  0  0  0  0  0  0  0  0
    7.9731   -1.8762   20.8440 N   0  0  0  0  0  0  0  0  0  0  0  0
    7.9937   -2.4469   20.0106 H   0  0  0  0  0  0  0  0  0  0  0  0
    5.4322    0.6621   20.1354 C   0  0  0  0  0  0  0  0  0  0  0  0
    5.0227    0.6313   21.1488 H   0  0  0  0  0  0  0  0  0  0  0  0
    4.7908    1.3200   19.0853 C   0  0  0  0  0  0  0  0  0  0  0  0
    3.8619    1.8518   19.2388 H   0  0  0  0  0  0  0  0  0  0  0  0
  1  2  1  0
  2  3  2  0
  3  4  1  0
  4  5  1  0
  4  6  2  0
  6  7  1  0
  7  8  2  0
  8  9  1  0
  9 10  1  0
  9 11  1  0
 11 12  1  0
 12 13  1  0
 12 14  1  0
 12 15  1  0
 15 16  1  0
 15 17  1  0
 15 18  1  0
 18 19  1  0
 18 20  1  0
 20 21  1  0
 21 22  1  0
 21 23  1  0
 21 24  1  0
 20 25  1  0
 25 26  1  0
 25 27  1  0
 25 28  1  0
 18 29  1  0
 29 30  1  0
 29 31  1  0
 29 32  1  0
 32 33  1  0
 32 34  1  0
  8 35  1  0
 35 36  1  0
 35 37  2  0
 37 38  1  0
 38 39  1  0
  6 40  1  0
 40 41  1  0
 40 42  2  0
 42 43  1  0
 42  2  1  0
 38  7  1  0
 32 11  1  0
M  END
>  <cnnaffinity>  (1) 
-5.05299

>  <filename>  (1) 
CN(C)C1CCN(Nc2cn[nH]c2-c2cccnc2)CC1

$$$$
