
     RDKit          3D

 46 49  0  0  0  0  0  0  0  0999 V2000
    5.1419    1.7521   16.9431 H   0  0  0  0  0  0  0  0  0  0  0  0
    5.5205    1.2686   17.8405 C   0  0  0  0  0  0  0  0  0  0  0  0
    6.6618    0.5763   17.7005 N   0  0  0  0  0  0  0  0  0  0  0  0
    7.1498   -0.0308   18.7881 C   0  0  0  0  0  0  0  0  0  0  0  0
    8.0653   -0.6095   18.6482 H   0  0  0  0  0  0  0  0  0  0  0  0
    6.5485    0.0358   20.0544 C   0  0  0  0  0  0  0  0  0  0  0  0
    7.1639   -0.6658   21.1841 C   0  0  0  0  0  0  0  0  0  0  0  0
    7.5367   -1.9398   21.0565 N   0  0  0  0  0  0  0  0  0  0  0  0
    7.9565   -2.2648   22.2837 N   0  0  0  0  0  0  0  0  0  0  0  0
    7.9364   -1.2538   23.1626 C   0  0  0  0  0  0  0  0  0  0  0  0
    7.4257   -0.1591   22.4951 C   0  0  0  0  0  0  0  0  0  0  0  0
    7.4583    1.2882   22.9132 C   0  0  0  0  0  0  0  0  0  0  0  0
    6.5653    1.7945   22.5304 H   0  0  0  0  0  0  0  0  0  0  0  0
    7.4085    1.3736   24.0078 H   0  0  0  0  0  0  0  0  0  0  0  0
    8.6042    2.0600   22.4580 N   0  0  0  0  0  0  0  0  0  0  0  0
    8.6821    2.1541   21.0159 C   0  0  0  0  0  0  0  0  0  0  0  0
    9.3854    2.9423   20.7639 H   0  0  0  0  0  0  0  0  0  0  0  0
    7.7040    2.4033   20.5953 H   0  0  0  0  0  0  0  0  0  0  0  0
    9.0235    1.2218   20.5351 H   0  0  0  0  0  0  0  0  0  0  0  0
    9.8838    1.6907   23.0561 C   0  0  0  0  0  0  0  0  0  0  0  0
   10.3311    0.8168   22.5427 H   0  0  0  0  0  0  0  0  0  0  0  0
    9.6822    1.3854   24.0928 H   0  0  0  0  0  0  0  0  0  0  0  0
   10.8929    2.8361   23.0903 C   0  0  0  0  0  0  0  0  0  0  0  0
   10.7042    3.8973   23.9923 C   0  0  0  0  0  0  0  0  0  0  0  0
    9.8311    3.8853   24.6445 H   0  0  0  0  0  0  0  0  0  0  0  0
   11.6139    4.9558   24.0554 C   0  0  0  0  0  0  0  0  0  0  0  0
   11.4483    5.7660   24.7603 H   0  0  0  0  0  0  0  0  0  0  0  0
   12.7295    4.9771   23.2097 C   0  0  0  0  0  0  0  0  0  0  0  0
   13.4359    5.8037   23.2517 H   0  0  0  0  0  0  0  0  0  0  0  0
   12.9305    3.9261   22.3109 C   0  0  0  0  0  0  0  0  0  0  0  0
   13.7921    3.9427   21.6483 H   0  0  0  0  0  0  0  0  0  0  0  0
   12.0242    2.8611   22.2537 C   0  0  0  0  0  0  0  0  0  0  0  0
   12.1964    2.0444   21.5534 H   0  0  0  0  0  0  0  0  0  0  0  0
    8.6982   -1.6441   24.3929 C   0  0  0  0  0  0  0  0  0  0  0  0
    8.1447   -1.4636   25.3191 H   0  0  0  0  0  0  0  0  0  0  0  0
    9.6013   -1.0291   24.4294 H   0  0  0  0  0  0  0  0  0  0  0  0
    9.0322   -3.1484   24.1581 C   0  0  0  0  0  0  0  0  0  0  0  0
    8.4013   -3.7731   24.7912 H   0  0  0  0  0  0  0  0  0  0  0  0
   10.0777   -3.3852   24.3787 H   0  0  0  0  0  0  0  0  0  0  0  0
    8.7124   -3.4341   22.6674 C   0  0  0  0  0  0  0  0  0  0  0  0
    8.1183   -4.3416   22.5188 H   0  0  0  0  0  0  0  0  0  0  0  0
    9.6080   -3.4871   22.0493 H   0  0  0  0  0  0  0  0  0  0  0  0
    5.3557    0.7612   20.1843 C   0  0  0  0  0  0  0  0  0  0  0  0
    4.8464    0.8039   21.1481 H   0  0  0  0  0  0  0  0  0  0  0  0
    4.8274    1.3794   19.0524 C   0  0  0  0  0  0  0  0  0  0  0  0
    3.9040    1.9449   19.0996 H   0  0  0  0  0  0  0  0  0  0  0  0
  1  2  1  0
  2  3  2  0
  3  4  1  0
  4  5  1  0
  4  6  2  0
  6  7  1  0
  7  8  2  0
  8  9  1  0
  9 10  1  0
 10 11  2  0
 11 12  1  0
 12 13  1  0
 12 14  1  0
 12 15  1  0
 15 16  1  0
 16 17  1  0
 16 18  1  0
 16 19  1  0
 15 20  1  0
 20 21  1  0
 20 22  1  0
 20 23  1  0
 23 24  2  0
 24 25  1  0
 24 26  1  0
 26 27  1  0
 26 28  2  0
 28 29  1  0
 28 30  1  0
 30 31  1  0
 30 32  2  0
 32 33  1  0
 10 34  1  0
 34 35  1  0
 34 36  1  0
 34 37  1  0
 37 38  1  0
 37 39  1  0
 37 40  1  0
 40 41  1  0
 40 42  1  0
  6 43  1  0
 43 44  1  0
 43 45  2  0
 45 46  1  0
 45  2  1  0
 11  7  1  0
 32 23  1  0
 40  9  1  0
M  END
>  <cnnaffinity>  (1) 
-5.93442

>  <filename>  (1) 
CN(Cc1ccccc1)Cc1c(-c2cccnc2)nn2c1CCC2

$$$$
