
     RDKit          3D

 40 41  0  0  0  0  0  0  0  0999 V2000
    4.9280    1.8232   16.9594 H   0  0  0  0  0  0  0  0  0  0  0  0
    5.3855    1.3069   17.7971 C   0  0  0  0  0  0  0  0  0  0  0  0
    6.5423    0.6777   17.5470 N   0  0  0  0  0  0  0  0  0  0  0  0
    7.1498    0.0633   18.5711 C   0  0  0  0  0  0  0  0  0  0  0  0
    8.1011   -0.4092   18.3218 H   0  0  0  0  0  0  0  0  0  0  0  0
    6.6467    0.0165   19.8895 C   0  0  0  0  0  0  0  0  0  0  0  0
    7.3413   -0.8083   20.9906 C   0  0  2  0  0  0  0  0  0  0  0  0
    6.7272   -2.2296   20.9157 C   0  0  0  0  0  0  0  0  0  0  0  0
    6.8253   -2.5732   19.8773 H   0  0  0  0  0  0  0  0  0  0  0  0
    5.6434   -2.1242   21.0855 H   0  0  0  0  0  0  0  0  0  0  0  0
    7.2830   -3.2834   21.8729 C   0  0  0  0  0  0  0  0  0  0  0  0
    7.1514   -2.9566   22.9117 H   0  0  0  0  0  0  0  0  0  0  0  0
    8.3626   -3.4175   21.7280 H   0  0  0  0  0  0  0  0  0  0  0  0
    6.5934   -4.6310   21.6810 C   0  0  0  0  0  0  0  0  0  0  0  0
    5.4912   -4.5277   21.7987 H   0  0  0  0  0  0  0  0  0  0  0  0
    6.7620   -4.9447   20.6405 H   0  0  0  0  0  0  0  0  0  0  0  0
    7.1350   -5.6649   22.5539 N   0  0  0  0  0  0  0  0  0  0  0  0
    6.9186   -6.9858   21.9965 C   0  0  0  0  0  0  0  0  0  0  0  0
    5.8529   -7.2843   21.9452 H   0  0  0  0  0  0  0  0  0  0  0  0
    7.3264   -6.9743   20.9835 H   0  0  0  0  0  0  0  0  0  0  0  0
    7.4650   -7.7496   22.5556 H   0  0  0  0  0  0  0  0  0  0  0  0
    6.6663   -5.5415   23.9240 C   0  0  0  0  0  0  0  0  0  0  0  0
    7.2473   -6.1875   24.5926 H   0  0  0  0  0  0  0  0  0  0  0  0
    5.5938   -5.7881   24.0423 H   0  0  0  0  0  0  0  0  0  0  0  0
    6.7989   -4.5119   24.2695 H   0  0  0  0  0  0  0  0  0  0  0  0
    7.1791   -0.1927   22.4154 C   0  0  0  0  0  0  0  0  0  0  0  0
    7.0611    0.8985   22.3252 H   0  0  0  0  0  0  0  0  0  0  0  0
    6.2863   -0.5776   22.9307 H   0  0  0  0  0  0  0  0  0  0  0  0
    8.3854   -0.4760   23.1939 N   0  0  0  0  0  0  0  0  0  0  0  0
    8.2211   -1.1813   23.9030 H   0  0  0  0  0  0  0  0  0  0  0  0
    9.4712   -0.8560   22.2916 C   0  0  0  0  0  0  0  0  0  0  0  0
    9.8744   -1.8505   22.5378 H   0  0  0  0  0  0  0  0  0  0  0  0
   10.3141   -0.1584   22.4043 H   0  0  0  0  0  0  0  0  0  0  0  0
    8.8907   -0.7984   20.8631 C   0  0  0  0  0  0  0  0  0  0  0  0
    9.1941    0.1492   20.4005 H   0  0  0  0  0  0  0  0  0  0  0  0
    9.2677   -1.6146   20.2338 H   0  0  0  0  0  0  0  0  0  0  0  0
    5.4190    0.6675   20.1146 C   0  0  0  0  0  0  0  0  0  0  0  0
    4.9684    0.6742   21.1058 H   0  0  0  0  0  0  0  0  0  0  0  0
    4.7826    1.3232   19.0594 C   0  0  0  0  0  0  0  0  0  0  0  0
    3.8489    1.8645   19.2092 H   0  0  0  0  0  0  0  0  0  0  0  0
  1  2  1  0
  2  3  2  0
  3  4  1  0
  4  5  1  0
  4  6  2  0
  6  7  1  0
  7  8  1  1
  8  9  1  0
  8 10  1  0
  8 11  1  0
 11 12  1  0
 11 13  1  0
 11 14  1  0
 14 15  1  0
 14 16  1  0
 14 17  1  0
 17 18  1  0
 18 19  1  0
 18 20  1  0
 18 21  1  0
 17 22  1  0
 22 23  1  0
 22 24  1  0
 22 25  1  0
  7 26  1  0
 26 27  1  0
 26 28  1  0
 26 29  1  0
 29 30  1  0
 29 31  1  0
 31 32  1  0
 31 33  1  0
 31 34  1  0
 34 35  1  0
 34 36  1  0
  6 37  1  0
 37 38  1  0
 37 39  2  0
 39 40  1  0
 39  2  1  0
 34  7  1  0
M  END
>  <cnnaffinity>  (1) 
-4.25011

>  <filename>  (1) 
CN(C)CCC[C@]1(c2cccnc2)CCNC1

$$$$
