
     RDKit          3D

 41 44  0  0  0  0  0  0  0  0999 V2000
    5.0181    1.7962   16.8558 H   0  0  0  0  0  0  0  0  0  0  0  0
    5.4301    1.2654   17.7095 C   0  0  0  0  0  0  0  0  0  0  0  0
    6.5435    0.5467   17.4836 N   0  0  0  0  0  0  0  0  0  0  0  0
    7.0828   -0.1058   18.5141 C   0  0  0  0  0  0  0  0  0  0  0  0
    7.9679   -0.7039   18.2953 H   0  0  0  0  0  0  0  0  0  0  0  0
    6.5756   -0.0367   19.8231 C   0  0  0  0  0  0  0  0  0  0  0  0
    7.3238   -0.6285   20.9226 C   0  0  0  0  0  0  0  0  0  0  0  0
    8.2130   -1.6623   20.7428 N   0  0  0  0  0  0  0  0  0  0  0  0
    8.6919   -1.8654   21.9347 C   0  0  0  0  0  0  0  0  0  0  0  0
    8.1825   -1.0596   22.9032 N   0  0  0  0  0  0  0  0  0  0  0  0
    7.3035   -0.2110   22.2684 C   0  0  0  0  0  0  0  0  0  0  0  0
    6.8680    0.9752   22.8479 N   0  0  0  0  0  0  0  0  0  0  0  0
    6.2865    0.9169   24.1803 C   0  0  0  0  0  0  0  0  0  0  0  0
    6.8685    0.3175   24.8927 H   0  0  0  0  0  0  0  0  0  0  0  0
    5.2885    0.4649   24.1202 H   0  0  0  0  0  0  0  0  0  0  0  0
    6.1846    1.9288   24.5882 H   0  0  0  0  0  0  0  0  0  0  0  0
    7.6100    2.1801   22.3904 C   0  0  0  0  0  0  0  0  0  0  0  0
    7.1975    3.0693   22.8798 H   0  0  0  0  0  0  0  0  0  0  0  0
    7.4186    2.2792   21.3170 H   0  0  0  0  0  0  0  0  0  0  0  0
    9.1112    2.0838   22.6065 C   0  0  0  0  0  0  0  0  0  0  0  0
    9.9329    1.5909   21.5781 C   0  0  0  0  0  0  0  0  0  0  0  0
    9.4874    1.2803   20.6334 H   0  0  0  0  0  0  0  0  0  0  0  0
   11.3131    1.4711   21.7677 C   0  0  0  0  0  0  0  0  0  0  0  0
   11.9457    1.1582   20.9469 H   0  0  0  0  0  0  0  0  0  0  0  0
   11.8833    1.7845   23.0088 C   0  0  0  0  0  0  0  0  0  0  0  0
   12.9563    1.6863   23.1632 H   0  0  0  0  0  0  0  0  0  0  0  0
   11.0686    2.2387   24.0476 C   0  0  0  0  0  0  0  0  0  0  0  0
   11.5041    2.4846   25.0108 H   0  0  0  0  0  0  0  0  0  0  0  0
    9.6938    2.4080   23.8409 C   0  0  0  0  0  0  0  0  0  0  0  0
    9.0766    2.7951   24.6493 H   0  0  0  0  0  0  0  0  0  0  0  0
    8.8422   -1.0674   24.2040 C   0  0  0  0  0  0  0  0  0  0  0  0
    8.9809   -0.0534   24.5898 H   0  0  0  0  0  0  0  0  0  0  0  0
    8.2459   -1.6502   24.9092 H   0  0  0  0  0  0  0  0  0  0  0  0
   10.1978   -1.7357   23.9515 C   0  0  0  0  0  0  0  0  0  0  0  0
   10.9347   -0.9903   23.6337 H   0  0  0  0  0  0  0  0  0  0  0  0
   10.5639   -2.2729   24.8234 H   0  0  0  0  0  0  0  0  0  0  0  0
    9.9443   -2.9141   22.5812 S   0  0  0  0  0  0  0  0  0  0  0  0
    5.3762    0.6702   20.0329 C   0  0  0  0  0  0  0  0  0  0  0  0
    4.9142    0.6958   21.0198 H   0  0  0  0  0  0  0  0  0  0  0  0
    4.8010    1.3318   18.9557 C   0  0  0  0  0  0  0  0  0  0  0  0
    3.8888    1.9070   19.0709 H   0  0  0  0  0  0  0  0  0  0  0  0
  1  2  1  0
  2  3  2  0
  3  4  1  0
  4  5  1  0
  4  6  2  0
  6  7  1  0
  7  8  1  0
  8  9  2  0
  9 10  1  0
 10 11  1  0
 11 12  1  0
 12 13  1  0
 13 14  1  0
 13 15  1  0
 13 16  1  0
 12 17  1  0
 17 18  1  0
 17 19  1  0
 17 20  1  0
 20 21  2  0
 21 22  1  0
 21 23  1  0
 23 24  1  0
 23 25  2  0
 25 26  1  0
 25 27  1  0
 27 28  1  0
 27 29  2  0
 29 30  1  0
 10 31  1  0
 31 32  1  0
 31 33  1  0
 31 34  1  0
 34 35  1  0
 34 36  1  0
 34 37  1  0
  6 38  1  0
 38 39  1  0
 38 40  2  0
 40 41  1  0
 40  2  1  0
 11  7  2  0
 29 20  1  0
 37  9  1  0
M  END
>  <cnnaffinity>  (1) 
-5.8033

>  <filename>  (1) 
CN(Cc1ccccc1)c1c(-c2cccnc2)nc2n1CCS2

$$$$
