
     RDKit          3D

 36 38  0  0  0  0  0  0  0  0999 V2000
    4.9164    1.7755   17.0021 H   0  0  0  0  0  0  0  0  0  0  0  0
    5.4049    1.2898   17.8427 C   0  0  0  0  0  0  0  0  0  0  0  0
    6.5702    0.6778   17.5770 N   0  0  0  0  0  0  0  0  0  0  0  0
    7.1748    0.0571   18.5906 C   0  0  0  0  0  0  0  0  0  0  0  0
    8.1244   -0.4346   18.3738 H   0  0  0  0  0  0  0  0  0  0  0  0
    6.6482    0.0122   19.8916 C   0  0  0  0  0  0  0  0  0  0  0  0
    7.4032   -0.7033   20.9187 C   0  0  0  0  0  0  0  0  0  0  0  0
    8.3223   -1.6100   20.6954 N   0  0  0  0  0  0  0  0  0  0  0  0
    8.8174   -2.0556   21.9004 N   0  0  0  0  0  0  0  0  0  0  0  0
    8.1843   -1.3752   22.8159 C   0  0  0  0  0  0  0  0  0  0  0  0
    8.2323   -1.1470   24.5401 S   0  0  0  0  0  0  0  0  0  0  0  0
    7.0294    0.1325   24.3255 C   0  0  0  0  0  0  0  0  0  0  0  0
    6.4715    0.8755   25.5003 C   0  0  0  0  0  0  0  0  0  0  0  0
    6.5315    1.9448   25.2724 H   0  0  0  0  0  0  0  0  0  0  0  0
    7.1080    0.6981   26.3726 H   0  0  0  0  0  0  0  0  0  0  0  0
    5.0151    0.4877   25.8191 C   0  0  0  0  0  0  0  0  0  0  0  0
    4.4070    0.6051   24.9156 H   0  0  0  0  0  0  0  0  0  0  0  0
    4.6226    1.1890   26.5622 H   0  0  0  0  0  0  0  0  0  0  0  0
    4.8725   -0.9425   26.3325 C   0  0  0  0  0  0  0  0  0  0  0  0
    5.5071   -1.0835   27.2332 H   0  0  0  0  0  0  0  0  0  0  0  0
    5.2964   -1.6186   25.5775 H   0  0  0  0  0  0  0  0  0  0  0  0
    3.4801   -1.2987   26.5993 N   0  0  0  0  0  0  0  0  0  0  0  0
    3.2586   -2.7294   26.4573 C   0  0  0  0  0  0  0  0  0  0  0  0
    3.8857   -3.3260   27.1473 H   0  0  0  0  0  0  0  0  0  0  0  0
    2.2109   -2.9752   26.6558 H   0  0  0  0  0  0  0  0  0  0  0  0
    3.4747   -3.0506   25.4331 H   0  0  0  0  0  0  0  0  0  0  0  0
    3.0554   -0.8501   27.9184 C   0  0  0  0  0  0  0  0  0  0  0  0
    3.6229   -1.3450   28.7303 H   0  0  0  0  0  0  0  0  0  0  0  0
    1.9937   -1.0666   28.0698 H   0  0  0  0  0  0  0  0  0  0  0  0
    3.1829    0.2298   28.0349 H   0  0  0  0  0  0  0  0  0  0  0  0
    6.6207    0.3387   23.1177 N   0  0  0  0  0  0  0  0  0  0  0  0
    7.2722   -0.5270   22.2790 N   0  0  0  0  0  0  0  0  0  0  0  0
    5.4332    0.6522   20.1620 C   0  0  0  0  0  0  0  0  0  0  0  0
    5.0078    0.6355   21.1689 H   0  0  0  0  0  0  0  0  0  0  0  0
    4.8047    1.3085   19.1086 C   0  0  0  0  0  0  0  0  0  0  0  0
    3.8740    1.8435   19.2617 H   0  0  0  0  0  0  0  0  0  0  0  0
  1  2  1  0
  2  3  2  0
  3  4  1  0
  4  5  1  0
  4  6  2  0
  6  7  1  0
  7  8  2  0
  8  9  1  0
  9 10  2  0
 10 11  1  0
 11 12  1  0
 12 13  1  0
 13 14  1  0
 13 15  1  0
 13 16  1  0
 16 17  1  0
 16 18  1  0
 16 19  1  0
 19 20  1  0
 19 21  1  0
 19 22  1  0
 22 23  1  0
 23 24  1  0
 23 25  1  0
 23 26  1  0
 22 27  1  0
 27 28  1  0
 27 29  1  0
 27 30  1  0
 12 31  2  0
 31 32  1  0
  6 33  1  0
 33 34  1  0
 33 35  2  0
 35 36  1  0
 35  2  1  0
 32  7  1  0
 32 10  1  0
M  END
>  <cnnaffinity>  (1) 
-4.99789

>  <filename>  (1) 
CN(C)CCCc1nn2c(-c3cccnc3)nnc2s1

$$$$
