
     RDKit          3D

 40 42  0  0  0  0  0  0  0  0999 V2000
    4.9135    1.7889   16.9899 H   0  0  0  0  0  0  0  0  0  0  0  0
    5.3978    1.2980   17.8295 C   0  0  0  0  0  0  0  0  0  0  0  0
    6.5644    0.6834   17.5673 N   0  0  0  0  0  0  0  0  0  0  0  0
    7.1705    0.0588   18.5859 C   0  0  0  0  0  0  0  0  0  0  0  0
    8.1207   -0.4247   18.3616 H   0  0  0  0  0  0  0  0  0  0  0  0
    6.6643   -0.0030   19.9035 C   0  0  0  0  0  0  0  0  0  0  0  0
    7.3284   -0.7167   20.9072 N   0  0  0  0  0  0  0  0  0  0  0  0
    8.0225   -1.4011   20.6369 H   0  0  0  0  0  0  0  0  0  0  0  0
    7.3310   -0.3808   22.2720 C   0  0  0  0  0  0  0  0  0  0  0  0
    7.2718    0.9089   22.8536 C   0  0  0  0  0  0  0  0  0  0  0  0
    7.1790    1.8465   22.3202 H   0  0  0  0  0  0  0  0  0  0  0  0
    7.3449    0.8833   24.1734 N   0  0  0  0  0  0  0  0  0  0  0  0
    7.4418   -0.4388   24.4600 N   0  0  0  0  0  0  0  0  0  0  0  0
    7.5357   -0.7265   25.4159 H   0  0  0  0  0  0  0  0  0  0  0  0
    7.4307   -1.2479   23.3613 C   0  0  0  0  0  0  0  0  0  0  0  0
    7.5086   -2.6153   23.4302 N   0  0  0  0  0  0  0  0  0  0  0  0
    7.6573   -3.3652   24.6644 C   0  0  0  0  0  0  0  0  0  0  0  0
    6.8740   -3.1009   25.3908 H   0  0  0  0  0  0  0  0  0  0  0  0
    8.6256   -3.1310   25.1245 H   0  0  0  0  0  0  0  0  0  0  0  0
    7.5741   -4.8390   24.2457 C   0  0  0  0  0  0  0  0  0  0  0  0
    8.5694   -5.2904   24.2516 H   0  0  0  0  0  0  0  0  0  0  0  0
    6.9624   -5.4238   24.9339 H   0  0  0  0  0  0  0  0  0  0  0  0
    6.9907   -4.8807   22.8260 C   0  0  1  0  0  0  0  0  0  0  0  0
    7.5583   -5.6046   22.2325 H   0  0  0  0  0  0  0  0  0  0  0  0
    5.5936   -5.3583   22.7944 N   0  0  0  0  0  0  0  0  0  0  0  0
    4.6314   -4.4589   23.4245 C   0  0  0  0  0  0  0  0  0  0  0  0
    4.9379   -4.2014   24.4423 H   0  0  0  0  0  0  0  0  0  0  0  0
    3.6580   -4.9564   23.4994 H   0  0  0  0  0  0  0  0  0  0  0  0
    4.4810   -3.5125   22.8733 H   0  0  0  0  0  0  0  0  0  0  0  0
    5.1627   -5.7285   21.4555 C   0  0  0  0  0  0  0  0  0  0  0  0
    5.8425   -6.4704   21.0228 H   0  0  0  0  0  0  0  0  0  0  0  0
    5.1159   -4.8733   20.7546 H   0  0  0  0  0  0  0  0  0  0  0  0
    4.1684   -6.1841   21.5066 H   0  0  0  0  0  0  0  0  0  0  0  0
    7.2438   -3.4589   22.2688 C   0  0  0  0  0  0  0  0  0  0  0  0
    8.1032   -3.4670   21.5894 H   0  0  0  0  0  0  0  0  0  0  0  0
    6.3771   -3.1017   21.6983 H   0  0  0  0  0  0  0  0  0  0  0  0
    5.4429    0.6427   20.1556 C   0  0  0  0  0  0  0  0  0  0  0  0
    5.0295    0.6137   21.1650 H   0  0  0  0  0  0  0  0  0  0  0  0
    4.8114    1.3063   19.0991 C   0  0  0  0  0  0  0  0  0  0  0  0
    3.8823    1.8361   19.2602 H   0  0  0  0  0  0  0  0  0  0  0  0
  1  2  1  0
  2  3  2  0
  3  4  1  0
  4  5  1  0
  4  6  2  0
  6  7  1  0
  7  8  1  0
  7  9  1  0
  9 10  1  0
 10 11  1  0
 10 12  2  0
 12 13  1  0
 13 14  1  0
 13 15  1  0
 15 16  1  0
 16 17  1  0
 17 18  1  0
 17 19  1  0
 17 20  1  0
 20 21  1  0
 20 22  1  0
 20 23  1  0
 23 24  1  6
 23 25  1  0
 25 26  1  0
 26 27  1  0
 26 28  1  0
 26 29  1  0
 25 30  1  0
 30 31  1  0
 30 32  1  0
 30 33  1  0
 23 34  1  0
 34 35  1  0
 34 36  1  0
  6 37  1  0
 37 38  1  0
 37 39  2  0
 39 40  1  0
 39  2  1  0
 15  9  2  0
 34 16  1  0
M  END
>  <cnnaffinity>  (1) 
-5.14044

>  <filename>  (1) 
CN(C)[C@@H]1CCN(c2[nH]ncc2Nc2cccnc2)C1

$$$$
