
     RDKit          3D

 40 43  0  0  0  0  0  0  0  0999 V2000
    5.0129    1.8303   16.8733 H   0  0  0  0  0  0  0  0  0  0  0  0
    5.4318    1.2860   17.7154 C   0  0  0  0  0  0  0  0  0  0  0  0
    6.5704    0.6174   17.4825 N   0  0  0  0  0  0  0  0  0  0  0  0
    7.1361   -0.0259   18.5105 C   0  0  0  0  0  0  0  0  0  0  0  0
    8.0559   -0.5622   18.2882 H   0  0  0  0  0  0  0  0  0  0  0  0
    6.6136   -0.0202   19.8208 C   0  0  0  0  0  0  0  0  0  0  0  0
    7.3821   -0.5853   20.9537 C   0  0  0  0  0  0  0  0  0  0  0  0
    8.4997   -1.3014   20.7516 N   0  0  0  0  0  0  0  0  0  0  0  0
    8.9438   -1.5258   22.0032 N   0  0  0  0  0  0  0  0  0  0  0  0
   10.0167   -2.2338   22.5203 C   0  0  0  0  0  0  0  0  0  0  0  0
   10.6898   -2.7562   21.8664 H   0  0  0  0  0  0  0  0  0  0  0  0
    9.9388   -2.0765   23.8626 C   0  0  0  0  0  0  0  0  0  0  0  0
   10.5176   -2.4675   24.6789 H   0  0  0  0  0  0  0  0  0  0  0  0
    8.8540   -1.2714   24.1689 N   0  0  0  0  0  0  0  0  0  0  0  0
    8.5014   -0.9459   25.4525 N   0  0  0  0  0  0  0  0  0  0  0  0
    9.4749   -0.2897   26.3190 C   0  0  0  0  0  0  0  0  0  0  0  0
   10.0896   -1.0019   26.8961 H   0  0  0  0  0  0  0  0  0  0  0  0
    8.9609    0.3524   27.0470 H   0  0  0  0  0  0  0  0  0  0  0  0
   10.1485    0.3467   25.7262 H   0  0  0  0  0  0  0  0  0  0  0  0
    7.1091   -1.1591   25.8244 C   0  0  0  0  0  0  0  0  0  0  0  0
    6.9575   -0.7621   26.8365 H   0  0  0  0  0  0  0  0  0  0  0  0
    6.4638   -0.5486   25.1677 H   0  0  0  0  0  0  0  0  0  0  0  0
    6.6451   -2.6147   25.7574 C   0  0  0  0  0  0  0  0  0  0  0  0
    7.0801   -3.5875   26.6681 C   0  0  0  0  0  0  0  0  0  0  0  0
    7.8050   -3.3151   27.4268 H   0  0  0  0  0  0  0  0  0  0  0  0
    6.5736   -4.8936   26.6195 C   0  0  0  0  0  0  0  0  0  0  0  0
    6.9230   -5.6390   27.3330 H   0  0  0  0  0  0  0  0  0  0  0  0
    5.6018   -5.2323   25.6692 C   0  0  0  0  0  0  0  0  0  0  0  0
    5.1834   -6.2348   25.6505 H   0  0  0  0  0  0  0  0  0  0  0  0
    5.1789   -4.2758   24.7438 C   0  0  0  0  0  0  0  0  0  0  0  0
    4.4123   -4.5023   24.0095 H   0  0  0  0  0  0  0  0  0  0  0  0
    5.7232   -2.9908   24.7758 C   0  0  0  0  0  0  0  0  0  0  0  0
    5.4307   -2.2558   24.0427 H   0  0  0  0  0  0  0  0  0  0  0  0
    8.1980   -0.9690   22.9792 C   0  0  0  0  0  0  0  0  0  0  0  0
    7.1083   -0.3838   22.3310 C   0  0  0  0  0  0  0  0  0  0  0  0
    6.2359    0.0847   22.7509 H   0  0  0  0  0  0  0  0  0  0  0  0
    5.3799    0.6230   20.0197 C   0  0  0  0  0  0  0  0  0  0  0  0
    4.8894    0.5925   20.9930 H   0  0  0  0  0  0  0  0  0  0  0  0
    4.7899    1.3011   18.9570 C   0  0  0  0  0  0  0  0  0  0  0  0
    3.8649    1.8515   19.0817 H   0  0  0  0  0  0  0  0  0  0  0  0
  1  2  1  0
  2  3  2  0
  3  4  1  0
  4  5  1  0
  4  6  2  0
  6  7  1  0
  7  8  2  0
  8  9  1  0
  9 10  1  0
 10 11  1  0
 10 12  2  0
 12 13  1  0
 12 14  1  0
 14 15  1  0
 15 16  1  0
 16 17  1  0
 16 18  1  0
 16 19  1  0
 15 20  1  0
 20 21  1  0
 20 22  1  0
 20 23  1  0
 23 24  2  0
 24 25  1  0
 24 26  1  0
 26 27  1  0
 26 28  2  0
 28 29  1  0
 28 30  1  0
 30 31  1  0
 30 32  2  0
 32 33  1  0
 14 34  1  0
 34 35  2  0
 35 36  1  0
  6 37  1  0
 37 38  1  0
 37 39  2  0
 39 40  1  0
 39  2  1  0
 35  7  1  0
 34  9  1  0
 32 23  1  0
M  END
>  <cnnaffinity>  (1) 
-5.52236

>  <filename>  (1) 
CN(Cc1ccccc1)n1ccn2nc(-c3cccnc3)cc12

$$$$
