
     RDKit          3D

 41 42  0  0  0  0  0  0  0  0999 V2000
    4.9230    1.8072   16.9624 H   0  0  0  0  0  0  0  0  0  0  0  0
    5.3970    1.3119   17.8099 C   0  0  0  0  0  0  0  0  0  0  0  0
    6.5536    0.6774   17.5608 N   0  0  0  0  0  0  0  0  0  0  0  0
    7.1679    0.0805   18.5921 C   0  0  0  0  0  0  0  0  0  0  0  0
    8.0900   -0.4559   18.3522 H   0  0  0  0  0  0  0  0  0  0  0  0
    6.6952    0.1010   19.9372 C   0  0  0  0  0  0  0  0  0  0  0  0
    7.3708   -0.5428   20.9844 N   0  0  0  0  0  0  0  0  0  0  0  0
    7.9223   -1.8636   20.7051 C   0  0  0  0  0  0  0  0  0  0  0  0
    8.8984   -1.7876   20.1929 H   0  0  0  0  0  0  0  0  0  0  0  0
    7.2278   -2.3476   20.0105 H   0  0  0  0  0  0  0  0  0  0  0  0
    8.0162   -2.7421   21.9497 C   0  0  0  0  0  0  0  0  0  0  0  0
    8.5180   -3.6773   21.6800 H   0  0  0  0  0  0  0  0  0  0  0  0
    6.9964   -3.0029   22.2591 H   0  0  0  0  0  0  0  0  0  0  0  0
    8.7057   -2.0616   23.1490 C   0  0  0  0  0  0  0  0  0  0  0  0
    9.7701   -2.3479   23.1869 H   0  0  0  0  0  0  0  0  0  0  0  0
    8.0403   -2.4516   24.3406 O   0  0  0  0  0  0  0  0  0  0  0  0
    8.4084   -3.7215   24.8568 C   0  0  0  0  0  0  0  0  0  0  0  0
    8.4051   -4.5119   24.0857 H   0  0  0  0  0  0  0  0  0  0  0  0
    9.4230   -3.6824   25.2888 H   0  0  0  0  0  0  0  0  0  0  0  0
    7.3892   -4.0877   25.9339 C   0  0  0  0  0  0  0  0  0  0  0  0
    6.4061   -4.1545   25.4493 H   0  0  0  0  0  0  0  0  0  0  0  0
    7.3179   -3.2505   26.6559 H   0  0  0  0  0  0  0  0  0  0  0  0
    7.7195   -5.3689   26.5674 N   0  0  0  0  0  0  0  0  0  0  0  0
    8.8337   -5.2491   27.5011 C   0  0  0  0  0  0  0  0  0  0  0  0
    8.9609   -6.1844   28.0457 H   0  0  0  0  0  0  0  0  0  0  0  0
    9.7765   -5.0597   26.9733 H   0  0  0  0  0  0  0  0  0  0  0  0
    8.6715   -4.4698   28.2678 H   0  0  0  0  0  0  0  0  0  0  0  0
    6.5836   -6.0456   27.1771 C   0  0  0  0  0  0  0  0  0  0  0  0
    5.8227   -6.2890   26.4273 H   0  0  0  0  0  0  0  0  0  0  0  0
    6.9249   -6.9989   27.5953 H   0  0  0  0  0  0  0  0  0  0  0  0
    6.0973   -5.4768   27.9923 H   0  0  0  0  0  0  0  0  0  0  0  0
    8.6491   -0.5321   23.0648 C   0  0  0  0  0  0  0  0  0  0  0  0
    8.7299   -0.1256   24.0754 H   0  0  0  0  0  0  0  0  0  0  0  0
    9.5169   -0.1591   22.5088 H   0  0  0  0  0  0  0  0  0  0  0  0
    7.3814   -0.0404   22.3581 C   0  0  0  0  0  0  0  0  0  0  0  0
    6.4861   -0.3617   22.9156 H   0  0  0  0  0  0  0  0  0  0  0  0
    7.3749    1.0564   22.3581 H   0  0  0  0  0  0  0  0  0  0  0  0
    5.4687    0.7552   20.1567 C   0  0  0  0  0  0  0  0  0  0  0  0
    5.0454    0.7437   21.1589 H   0  0  0  0  0  0  0  0  0  0  0  0
    4.8117    1.3536   19.0774 C   0  0  0  0  0  0  0  0  0  0  0  0
    3.8570    1.8512   19.2177 H   0  0  0  0  0  0  0  0  0  0  0  0
  1  2  1  0
  2  3  2  0
  3  4  1  0
  4  5  1  0
  4  6  2  0
  6  7  1  0
  7  8  1  0
  8  9  1  0
  8 10  1  0
  8 11  1  0
 11 12  1  0
 11 13  1  0
 11 14  1  0
 14 15  1  0
 14 16  1  0
 16 17  1  0
 17 18  1  0
 17 19  1  0
 17 20  1  0
 20 21  1  0
 20 22  1  0
 20 23  1  0
 23 24  1  0
 24 25  1  0
 24 26  1  0
 24 27  1  0
 23 28  1  0
 28 29  1  0
 28 30  1  0
 28 31  1  0
 14 32  1  0
 32 33  1  0
 32 34  1  0
 32 35  1  0
 35 36  1  0
 35 37  1  0
  6 38  1  0
 38 39  1  0
 38 40  2  0
 40 41  1  0
 40  2  1  0
 35  7  1  0
M  END
>  <cnnaffinity>  (1) 
-4.29008

>  <filename>  (1) 
CN(C)CCOC1CCN(c2cccnc2)CC1

$$$$
