
     RDKit          3D

 39 41  0  0  0  0  0  0  0  0999 V2000
    4.9611    1.7998   16.9062 H   0  0  0  0  0  0  0  0  0  0  0  0
    5.4428    1.3207   17.7567 C   0  0  0  0  0  0  0  0  0  0  0  0
    6.6115    0.7106   17.5063 N   0  0  0  0  0  0  0  0  0  0  0  0
    7.2161    0.1008   18.5313 C   0  0  0  0  0  0  0  0  0  0  0  0
    8.1589   -0.3928   18.3110 H   0  0  0  0  0  0  0  0  0  0  0  0
    6.7012    0.0641   19.8404 C   0  0  0  0  0  0  0  0  0  0  0  0
    7.4044   -0.6797   20.9023 C   0  0  0  0  0  0  0  0  0  0  0  0
    8.6037   -1.2490   20.7058 N   0  0  0  0  0  0  0  0  0  0  0  0
    8.8113   -1.9031   21.8747 N   0  0  0  0  0  0  0  0  0  0  0  0
    9.7765   -2.7670   22.3705 C   0  0  0  0  0  0  0  0  0  0  0  0
   10.7304   -2.8734   21.8912 H   0  0  0  0  0  0  0  0  0  0  0  0
    9.2870   -3.2537   23.5373 C   0  0  0  0  0  0  0  0  0  0  0  0
    9.7083   -4.0189   24.1811 H   0  0  0  0  0  0  0  0  0  0  0  0
    8.0490   -2.6649   23.7957 N   0  0  0  0  0  0  0  0  0  0  0  0
    7.0591   -3.0794   24.7830 C   0  0  0  0  0  0  0  0  0  0  0  0
    7.5958   -3.2864   25.7177 H   0  0  0  0  0  0  0  0  0  0  0  0
    6.4050   -2.2146   24.9557 H   0  0  0  0  0  0  0  0  0  0  0  0
    6.2301   -4.3019   24.3644 C   0  0  0  0  0  0  0  0  0  0  0  0
    5.5381   -4.5578   25.1758 H   0  0  0  0  0  0  0  0  0  0  0  0
    6.9028   -5.1605   24.2471 H   0  0  0  0  0  0  0  0  0  0  0  0
    5.4314   -4.1132   23.0632 C   0  0  0  0  0  0  0  0  0  0  0  0
    6.1129   -3.8590   22.2379 H   0  0  0  0  0  0  0  0  0  0  0  0
    4.7320   -3.2669   23.1738 H   0  0  0  0  0  0  0  0  0  0  0  0
    4.6491   -5.2716   22.6542 N   0  0  0  0  0  0  0  0  0  0  0  0
    3.5383   -5.5991   23.5326 C   0  0  0  0  0  0  0  0  0  0  0  0
    2.8712   -6.3130   23.0325 H   0  0  0  0  0  0  0  0  0  0  0  0
    2.9535   -4.6962   23.7530 H   0  0  0  0  0  0  0  0  0  0  0  0
    3.8350   -6.0492   24.5007 H   0  0  0  0  0  0  0  0  0  0  0  0
    5.4298   -6.4357   22.2721 C   0  0  0  0  0  0  0  0  0  0  0  0
    6.2523   -6.1440   21.6054 H   0  0  0  0  0  0  0  0  0  0  0  0
    5.8639   -7.0024   23.1209 H   0  0  0  0  0  0  0  0  0  0  0  0
    4.7868   -7.1162   21.7079 H   0  0  0  0  0  0  0  0  0  0  0  0
    7.7901   -1.8056   22.7503 C   0  0  0  0  0  0  0  0  0  0  0  0
    6.8674   -0.9416   22.1905 C   0  0  0  0  0  0  0  0  0  0  0  0
    6.0238   -0.4563   22.6472 H   0  0  0  0  0  0  0  0  0  0  0  0
    5.4797    0.7163   20.0858 C   0  0  0  0  0  0  0  0  0  0  0  0
    5.0292    0.7397   21.0836 H   0  0  0  0  0  0  0  0  0  0  0  0
    4.8411    1.3464   19.0218 C   0  0  0  0  0  0  0  0  0  0  0  0
    3.8888    1.8491   19.1560 H   0  0  0  0  0  0  0  0  0  0  0  0
  1  2  1  0
  2  3  2  0
  3  4  1  0
  4  5  1  0
  4  6  2  0
  6  7  1  0
  7  8  2  0
  8  9  1  0
  9 10  1  0
 10 11  1  0
 10 12  2  0
 12 13  1  0
 12 14  1  0
 14 15  1  0
 15 16  1  0
 15 17  1  0
 15 18  1  0
 18 19  1  0
 18 20  1  0
 18 21  1  0
 21 22  1  0
 21 23  1  0
 21 24  1  0
 24 25  1  0
 25 26  1  0
 25 27  1  0
 25 28  1  0
 24 29  1  0
 29 30  1  0
 29 31  1  0
 29 32  1  0
 14 33  1  0
 33 34  2  0
 34 35  1  0
  6 36  1  0
 36 37  1  0
 36 38  2  0
 38 39  1  0
 38  2  1  0
 34  7  1  0
 33  9  1  0
M  END
>  <cnnaffinity>  (1) 
-5.34181

>  <filename>  (1) 
CN(C)CCCn1ccn2nc(-c3cccnc3)cc12

$$$$
