
     RDKit          3D

 43 46  0  0  0  0  0  0  0  0999 V2000
    4.9432    1.8160   16.9794 H   0  0  0  0  0  0  0  0  0  0  0  0
    5.4030    1.2933   17.8168 C   0  0  0  0  0  0  0  0  0  0  0  0
    6.5630    0.6684   17.5611 N   0  0  0  0  0  0  0  0  0  0  0  0
    7.1544    0.0209   18.5697 C   0  0  0  0  0  0  0  0  0  0  0  0
    8.1084   -0.4511   18.3343 H   0  0  0  0  0  0  0  0  0  0  0  0
    6.6249   -0.0297   19.8712 C   0  0  0  0  0  0  0  0  0  0  0  0
    7.3563   -0.6897   20.9538 C   0  0  0  0  0  0  0  0  0  0  0  0
    8.0791   -1.7848   20.7319 N   0  0  0  0  0  0  0  0  0  0  0  0
    8.5587   -2.0898   21.9360 N   0  0  0  0  0  0  0  0  0  0  0  0
    8.2287   -1.2569   22.9177 C   0  0  0  0  0  0  0  0  0  0  0  0
    7.4453   -0.2846   22.3258 C   0  0  0  0  0  0  0  0  0  0  0  0
    7.0775    0.9602   22.9763 C   0  0  0  0  0  0  0  0  0  0  0  0
    6.5979    0.9355   24.2932 C   0  0  0  0  0  0  0  0  0  0  0  0
    6.4647   -0.0230   24.7977 H   0  0  0  0  0  0  0  0  0  0  0  0
    6.2785    2.1166   24.9487 C   0  0  0  0  0  0  0  0  0  0  0  0
    5.8961    2.1019   25.9622 H   0  0  0  0  0  0  0  0  0  0  0  0
    6.4419    3.3661   24.3059 C   0  0  0  0  0  0  0  0  0  0  0  0
    6.1130    4.5485   24.9475 N   0  0  0  0  0  0  0  0  0  0  0  0
    6.0055    4.5892   26.3943 C   0  0  0  0  0  0  0  0  0  0  0  0
    6.8813    4.1222   26.8689 H   0  0  0  0  0  0  0  0  0  0  0  0
    5.9597    5.6351   26.7137 H   0  0  0  0  0  0  0  0  0  0  0  0
    5.1083    4.0734   26.7732 H   0  0  0  0  0  0  0  0  0  0  0  0
    5.8769    5.7532   24.1703 C   0  0  0  0  0  0  0  0  0  0  0  0
    5.4216    6.5075   24.8193 H   0  0  0  0  0  0  0  0  0  0  0  0
    5.1884    5.5551   23.3352 H   0  0  0  0  0  0  0  0  0  0  0  0
    6.8003    6.1770   23.7432 H   0  0  0  0  0  0  0  0  0  0  0  0
    6.9480    3.3775   22.9845 C   0  0  0  0  0  0  0  0  0  0  0  0
    7.0828    4.3289   22.4849 H   0  0  0  0  0  0  0  0  0  0  0  0
    7.2679    2.1969   22.3361 C   0  0  0  0  0  0  0  0  0  0  0  0
    7.6710    2.2201   21.3231 H   0  0  0  0  0  0  0  0  0  0  0  0
    9.0698   -1.5003   24.1447 C   0  0  0  0  0  0  0  0  0  0  0  0
    9.6657   -0.6034   24.3500 H   0  0  0  0  0  0  0  0  0  0  0  0
    8.4637   -1.7039   25.0339 H   0  0  0  0  0  0  0  0  0  0  0  0
    9.9471   -2.7139   23.7233 C   0  0  0  0  0  0  0  0  0  0  0  0
    9.7666   -3.5869   24.3492 H   0  0  0  0  0  0  0  0  0  0  0  0
   11.0063   -2.4814   23.7824 H   0  0  0  0  0  0  0  0  0  0  0  0
    9.5778   -3.0489   22.2536 C   0  0  0  0  0  0  0  0  0  0  0  0
   10.4152   -2.8908   21.5695 H   0  0  0  0  0  0  0  0  0  0  0  0
    9.1649   -4.0550   22.1502 H   0  0  0  0  0  0  0  0  0  0  0  0
    5.4130    0.6279   20.1207 C   0  0  0  0  0  0  0  0  0  0  0  0
    5.0013    0.6529   21.1298 H   0  0  0  0  0  0  0  0  0  0  0  0
    4.7906    1.2990   19.0733 C   0  0  0  0  0  0  0  0  0  0  0  0
    3.8667    1.8445   19.2286 H   0  0  0  0  0  0  0  0  0  0  0  0
  1  2  1  0
  2  3  2  0
  3  4  1  0
  4  5  1  0
  4  6  2  0
  6  7  1  0
  7  8  2  0
  8  9  1  0
  9 10  1  0
 10 11  2  0
 11 12  1  0
 12 13  2  0
 13 14  1  0
 13 15  1  0
 15 16  1  0
 15 17  2  0
 17 18  1  0
 18 19  1  0
 19 20  1  0
 19 21  1  0
 19 22  1  0
 18 23  1  0
 23 24  1  0
 23 25  1  0
 23 26  1  0
 17 27  1  0
 27 28  1  0
 27 29  2  0
 29 30  1  0
 10 31  1  0
 31 32  1  0
 31 33  1  0
 31 34  1  0
 34 35  1  0
 34 36  1  0
 34 37  1  0
 37 38  1  0
 37 39  1  0
  6 40  1  0
 40 41  1  0
 40 42  2  0
 42 43  1  0
 42  2  1  0
 11  7  1  0
 29 12  1  0
 37  9  1  0
M  END
>  <cnnaffinity>  (1) 
-5.60395

>  <filename>  (1) 
CN(C)c1ccc(-c2c(-c3cccnc3)nn3c2CCC3)cc1

$$$$
