
     RDKit          3D

 43 46  0  0  0  0  0  0  0  0999 V2000
    4.9763    1.8486   16.8204 H   0  0  0  0  0  0  0  0  0  0  0  0
    5.3922    1.3164   17.6728 C   0  0  0  0  0  0  0  0  0  0  0  0
    6.5181    0.6229   17.4465 N   0  0  0  0  0  0  0  0  0  0  0  0
    7.0687   -0.0293   18.4743 C   0  0  0  0  0  0  0  0  0  0  0  0
    7.9658   -0.6044   18.2543 H   0  0  0  0  0  0  0  0  0  0  0  0
    6.5525    0.0087   19.7846 C   0  0  0  0  0  0  0  0  0  0  0  0
    7.3086   -0.6072   20.8923 C   0  0  0  0  0  0  0  0  0  0  0  0
    8.1510   -1.6280   20.7113 N   0  0  0  0  0  0  0  0  0  0  0  0
    8.6323   -1.8584   21.9353 N   0  0  0  0  0  0  0  0  0  0  0  0
    8.1891   -1.0357   22.8859 C   0  0  0  0  0  0  0  0  0  0  0  0
    7.2811   -0.1837   22.2728 C   0  0  0  0  0  0  0  0  0  0  0  0
    6.7694    1.0220   22.8033 N   0  0  0  0  0  0  0  0  0  0  0  0
    6.3343    0.9377   24.1867 C   0  0  0  0  0  0  0  0  0  0  0  0
    5.3801    0.3981   24.2260 H   0  0  0  0  0  0  0  0  0  0  0  0
    6.1696    1.9452   24.5849 H   0  0  0  0  0  0  0  0  0  0  0  0
    7.0395    0.4218   24.8549 H   0  0  0  0  0  0  0  0  0  0  0  0
    7.5817    2.1982   22.4050 C   0  0  0  0  0  0  0  0  0  0  0  0
    7.1634    3.0916   22.8853 H   0  0  0  0  0  0  0  0  0  0  0  0
    7.4236    2.3247   21.3290 H   0  0  0  0  0  0  0  0  0  0  0  0
    9.0774    2.0835   22.6670 C   0  0  0  0  0  0  0  0  0  0  0  0
    9.6277    2.3583   23.9280 C   0  0  0  0  0  0  0  0  0  0  0  0
    8.9787    2.6799   24.7413 H   0  0  0  0  0  0  0  0  0  0  0  0
   11.0030    2.2164   24.1488 C   0  0  0  0  0  0  0  0  0  0  0  0
   11.4247    2.4265   25.1251 H   0  0  0  0  0  0  0  0  0  0  0  0
   11.8422    1.8066   23.1110 C   0  0  0  0  0  0  0  0  0  0  0  0
   12.9146    1.7334   23.2799 H   0  0  0  0  0  0  0  0  0  0  0  0
   11.2976    1.5041   21.8574 C   0  0  0  0  0  0  0  0  0  0  0  0
   11.9483    1.2147   21.0397 H   0  0  0  0  0  0  0  0  0  0  0  0
    9.9230    1.6143   21.6451 C   0  0  0  0  0  0  0  0  0  0  0  0
    9.4938    1.3226   20.6854 H   0  0  0  0  0  0  0  0  0  0  0  0
    8.9371   -1.2671   24.1623 C   0  0  0  0  0  0  0  0  0  0  0  0
    9.3395   -0.3337   24.5697 H   0  0  0  0  0  0  0  0  0  0  0  0
    8.2671   -1.7001   24.9065 H   0  0  0  0  0  0  0  0  0  0  0  0
   10.0529   -2.2529   23.7328 C   0  0  0  0  0  0  0  0  0  0  0  0
   10.2412   -3.0273   24.4787 H   0  0  0  0  0  0  0  0  0  0  0  0
   10.9804   -1.7066   23.5673 H   0  0  0  0  0  0  0  0  0  0  0  0
    9.5917   -2.8497   22.3805 C   0  0  0  0  0  0  0  0  0  0  0  0
   10.4098   -2.9153   21.6626 H   0  0  0  0  0  0  0  0  0  0  0  0
    9.1059   -3.8254   22.4873 H   0  0  0  0  0  0  0  0  0  0  0  0
    5.3452    0.6986   19.9939 C   0  0  0  0  0  0  0  0  0  0  0  0
    4.8848    0.7183   20.9830 H   0  0  0  0  0  0  0  0  0  0  0  0
    4.7565    1.3610   18.9197 C   0  0  0  0  0  0  0  0  0  0  0  0
    3.8318    1.9176   19.0289 H   0  0  0  0  0  0  0  0  0  0  0  0
  1  2  1  0
  2  3  2  0
  3  4  1  0
  4  5  1  0
  4  6  2  0
  6  7  1  0
  7  8  2  0
  8  9  1  0
  9 10  1  0
 10 11  2  0
 11 12  1  0
 12 13  1  0
 13 14  1  0
 13 15  1  0
 13 16  1  0
 12 17  1  0
 17 18  1  0
 17 19  1  0
 17 20  1  0
 20 21  2  0
 21 22  1  0
 21 23  1  0
 23 24  1  0
 23 25  2  0
 25 26  1  0
 25 27  1  0
 27 28  1  0
 27 29  2  0
 29 30  1  0
 10 31  1  0
 31 32  1  0
 31 33  1  0
 31 34  1  0
 34 35  1  0
 34 36  1  0
 34 37  1  0
 37 38  1  0
 37 39  1  0
  6 40  1  0
 40 41  1  0
 40 42  2  0
 42 43  1  0
 42  2  1  0
 11  7  1  0
 29 20  1  0
 37  9  1  0
M  END
>  <cnnaffinity>  (1) 
-5.97225

>  <filename>  (1) 
CN(Cc1ccccc1)c1c(-c2cccnc2)nn2c1CCC2

$$$$
