
     RDKit          3D

 39 40  0  0  0  0  0  0  0  0999 V2000
    4.9036    1.5180   17.0848 H   0  0  0  0  0  0  0  0  0  0  0  0
    5.5274    1.1653   17.9030 C   0  0  0  0  0  0  0  0  0  0  0  0
    6.6637    0.5414   17.5555 N   0  0  0  0  0  0  0  0  0  0  0  0
    7.4413    0.0838   18.5505 C   0  0  0  0  0  0  0  0  0  0  0  0
    8.3599   -0.4215   18.2557 H   0  0  0  0  0  0  0  0  0  0  0  0
    7.1519    0.2150   19.9400 C   0  0  0  0  0  0  0  0  0  0  0  0
    7.9713   -0.3841   20.9217 N   0  0  0  0  0  0  0  0  0  0  0  0
    7.9535    0.1011   22.3026 C   0  0  0  0  0  0  0  0  0  0  0  0
    7.8905    1.1930   22.2809 H   0  0  0  0  0  0  0  0  0  0  0  0
    8.9129   -0.1434   22.7806 H   0  0  0  0  0  0  0  0  0  0  0  0
    6.8174   -0.4795   23.1775 C   0  0  0  0  0  0  0  0  0  0  0  0
    6.5743    0.2389   23.9629 H   0  0  0  0  0  0  0  0  0  0  0  0
    5.9323   -0.5803   22.5385 H   0  0  0  0  0  0  0  0  0  0  0  0
    7.1650   -1.7769   23.8045 N   0  0  0  0  0  0  0  0  0  0  0  0
    6.1936   -2.2307   25.1136 S   0  0  0  0  0  0  0  0  0  0  0  0
    5.4836   -3.4522   24.7889 O   0  0  0  0  0  0  0  0  0  0  0  0
    5.4950   -1.0632   25.6048 O   0  0  0  0  0  0  0  0  0  0  0  0
    7.3554   -2.6045   26.2363 N   0  0  0  0  0  0  0  0  0  0  0  0
    8.1152   -3.8265   26.0374 C   0  0  0  0  0  0  0  0  0  0  0  0
    8.6564   -4.0440   26.9641 H   0  0  0  0  0  0  0  0  0  0  0  0
    7.4451   -4.6682   25.8576 H   0  0  0  0  0  0  0  0  0  0  0  0
    8.8705   -3.7759   25.2366 H   0  0  0  0  0  0  0  0  0  0  0  0
    8.0883   -1.4758   26.7952 C   0  0  0  0  0  0  0  0  0  0  0  0
    7.3880   -0.7478   27.2071 H   0  0  0  0  0  0  0  0  0  0  0  0
    8.6951   -1.8431   27.6302 H   0  0  0  0  0  0  0  0  0  0  0  0
    8.7667   -0.9826   26.0821 H   0  0  0  0  0  0  0  0  0  0  0  0
    7.3861   -2.8829   22.8525 C   0  0  0  0  0  0  0  0  0  0  0  0
    6.4747   -3.0956   22.2689 H   0  0  0  0  0  0  0  0  0  0  0  0
    7.5882   -3.7929   23.4202 H   0  0  0  0  0  0  0  0  0  0  0  0
    8.5651   -2.6556   21.9109 C   0  0  0  0  0  0  0  0  0  0  0  0
    9.4355   -2.2794   22.4552 H   0  0  0  0  0  0  0  0  0  0  0  0
    8.8499   -3.6327   21.5139 H   0  0  0  0  0  0  0  0  0  0  0  0
    8.2790   -1.7913   20.6893 C   0  0  0  0  0  0  0  0  0  0  0  0
    9.1336   -1.8507   19.9986 H   0  0  0  0  0  0  0  0  0  0  0  0
    7.4243   -2.2441   20.1618 H   0  0  0  0  0  0  0  0  0  0  0  0
    5.9857    0.9297   20.2627 C   0  0  0  0  0  0  0  0  0  0  0  0
    5.7392    1.1231   21.3033 H   0  0  0  0  0  0  0  0  0  0  0  0
    5.1498    1.3784   19.2326 C   0  0  0  0  0  0  0  0  0  0  0  0
    4.2158    1.8763   19.4656 H   0  0  0  0  0  0  0  0  0  0  0  0
  1  2  1  0
  2  3  2  0
  3  4  1  0
  4  5  1  0
  4  6  2  0
  6  7  1  0
  7  8  1  0
  8  9  1  0
  8 10  1  0
  8 11  1  0
 11 12  1  0
 11 13  1  0
 11 14  1  0
 14 15  1  0
 15 16  2  0
 15 17  2  0
 15 18  1  0
 18 19  1  0
 19 20  1  0
 19 21  1  0
 19 22  1  0
 18 23  1  0
 23 24  1  0
 23 25  1  0
 23 26  1  0
 14 27  1  0
 27 28  1  0
 27 29  1  0
 27 30  1  0
 30 31  1  0
 30 32  1  0
 30 33  1  0
 33 34  1  0
 33 35  1  0
  6 36  1  0
 36 37  1  0
 36 38  2  0
 38 39  1  0
 38  2  1  0
 33  7  1  0
M  END
>  <cnnaffinity>  (1) 
-4.69198

>  <filename>  (1) 
CN(C)S(=O)(=O)N1CCCN(c2cccnc2)CC1

$$$$
