
     RDKit          3D

 44 47  0  0  0  0  0  0  0  0999 V2000
    4.9598    1.8059   16.9746 H   0  0  0  0  0  0  0  0  0  0  0  0
    5.4146    1.2958   17.8240 C   0  0  0  0  0  0  0  0  0  0  0  0
    6.5667    0.6535   17.5785 N   0  0  0  0  0  0  0  0  0  0  0  0
    7.1597    0.0326   18.6065 C   0  0  0  0  0  0  0  0  0  0  0  0
    8.0964   -0.4763   18.3809 H   0  0  0  0  0  0  0  0  0  0  0  0
    6.6513    0.0178   19.9130 C   0  0  0  0  0  0  0  0  0  0  0  0
    7.3882   -0.6863   20.9670 C   0  0  0  0  0  0  0  0  0  0  0  0
    7.8587   -1.9652   20.7804 N   0  0  0  0  0  0  0  0  0  0  0  0
    8.3028   -2.3056   21.9621 C   0  0  0  0  0  0  0  0  0  0  0  0
    8.2068   -1.3183   22.8857 N   0  0  0  0  0  0  0  0  0  0  0  0
    7.6271   -0.2470   22.2603 C   0  0  0  0  0  0  0  0  0  0  0  0
    7.5819    1.1391   22.8164 C   0  0  0  0  0  0  0  0  0  0  0  0
    6.6830    1.6264   22.4219 H   0  0  0  0  0  0  0  0  0  0  0  0
    7.4661    1.1139   23.9093 H   0  0  0  0  0  0  0  0  0  0  0  0
    8.7090    1.9938   22.4582 N   0  0  0  0  0  0  0  0  0  0  0  0
    8.7949    2.1699   21.0193 C   0  0  0  0  0  0  0  0  0  0  0  0
    7.8138    2.4373   20.6171 H   0  0  0  0  0  0  0  0  0  0  0  0
    9.4945    2.9755   20.8170 H   0  0  0  0  0  0  0  0  0  0  0  0
    9.1356    1.2630   20.4896 H   0  0  0  0  0  0  0  0  0  0  0  0
    9.9955    1.6068   23.0438 C   0  0  0  0  0  0  0  0  0  0  0  0
    9.8090    1.3060   24.0869 H   0  0  0  0  0  0  0  0  0  0  0  0
   10.4319    0.7311   22.5206 H   0  0  0  0  0  0  0  0  0  0  0  0
   11.0195    2.7466   23.0544 C   0  0  0  0  0  0  0  0  0  0  0  0
   12.1448    2.7534   22.2086 C   0  0  0  0  0  0  0  0  0  0  0  0
   12.3054    1.9240   21.5223 H   0  0  0  0  0  0  0  0  0  0  0  0
   13.0532    3.8216   22.2317 C   0  0  0  0  0  0  0  0  0  0  0  0
   13.9109    3.8482   21.5659 H   0  0  0  0  0  0  0  0  0  0  0  0
   12.8604    4.8909   23.1078 C   0  0  0  0  0  0  0  0  0  0  0  0
   13.5732    5.7132   23.1138 H   0  0  0  0  0  0  0  0  0  0  0  0
   11.7459    4.9004   23.9525 C   0  0  0  0  0  0  0  0  0  0  0  0
   11.5840    5.7375   24.6281 H   0  0  0  0  0  0  0  0  0  0  0  0
   10.8320    3.8404   23.9182 C   0  0  0  0  0  0  0  0  0  0  0  0
    9.9507    3.8596   24.5559 H   0  0  0  0  0  0  0  0  0  0  0  0
    8.7629   -1.5307   24.2055 C   0  0  0  0  0  0  0  0  0  0  0  0
    9.7531   -1.0636   24.2877 H   0  0  0  0  0  0  0  0  0  0  0  0
    8.1091   -1.0702   24.9555 H   0  0  0  0  0  0  0  0  0  0  0  0
    8.8363   -3.0679   24.3591 C   0  0  0  0  0  0  0  0  0  0  0  0
    9.7287   -3.3954   24.8975 H   0  0  0  0  0  0  0  0  0  0  0  0
    7.9582   -3.4336   24.8938 H   0  0  0  0  0  0  0  0  0  0  0  0
    8.8619   -3.8085   22.6704 S   0  0  0  0  0  0  0  0  0  0  0  0
    5.4345    0.6834   20.1482 C   0  0  0  0  0  0  0  0  0  0  0  0
    4.9703    0.6704   21.1349 H   0  0  0  0  0  0  0  0  0  0  0  0
    4.8010    1.3273   19.0822 C   0  0  0  0  0  0  0  0  0  0  0  0
    3.8591    1.8535   19.2142 H   0  0  0  0  0  0  0  0  0  0  0  0
  1  2  1  0
  2  3  2  0
  3  4  1  0
  4  5  1  0
  4  6  2  0
  6  7  1  0
  7  8  1  0
  8  9  2  0
  9 10  1  0
 10 11  1  0
 11 12  1  0
 12 13  1  0
 12 14  1  0
 12 15  1  0
 15 16  1  0
 16 17  1  0
 16 18  1  0
 16 19  1  0
 15 20  1  0
 20 21  1  0
 20 22  1  0
 20 23  1  0
 23 24  2  0
 24 25  1  0
 24 26  1  0
 26 27  1  0
 26 28  2  0
 28 29  1  0
 28 30  1  0
 30 31  1  0
 30 32  2  0
 32 33  1  0
 10 34  1  0
 34 35  1  0
 34 36  1  0
 34 37  1  0
 37 38  1  0
 37 39  1  0
 37 40  1  0
  6 41  1  0
 41 42  1  0
 41 43  2  0
 43 44  1  0
 43  2  1  0
 11  7  2  0
 32 23  1  0
 40  9  1  0
M  END
>  <cnnaffinity>  (1) 
-5.99479

>  <filename>  (1) 
CN(Cc1ccccc1)Cc1c(-c2cccnc2)nc2n1CCS2

$$$$
