
     RDKit          3D

 38 39  0  0  0  0  0  0  0  0999 V2000
    4.6718    2.0048   16.8727 H   0  0  0  0  0  0  0  0  0  0  0  0
    5.1864    1.3975   17.6063 C   0  0  0  0  0  0  0  0  0  0  0  0
    6.2522    0.7101   17.1582 N   0  0  0  0  0  0  0  0  0  0  0  0
    6.9490    0.0006   18.0541 C   0  0  0  0  0  0  0  0  0  0  0  0
    7.8570   -0.4779   17.6941 H   0  0  0  0  0  0  0  0  0  0  0  0
    6.6008   -0.1075   19.4316 C   0  0  0  0  0  0  0  0  0  0  0  0
    7.3014   -0.9230   20.3940 N   0  0  0  0  0  0  0  0  0  0  0  0
    6.5628   -1.9430   21.1423 C   0  0  0  0  0  0  0  0  0  0  0  0
    7.2528   -2.6560   21.6009 H   0  0  0  0  0  0  0  0  0  0  0  0
    5.9354   -1.5058   21.9339 H   0  0  0  0  0  0  0  0  0  0  0  0
    5.9144   -2.5096   20.4643 H   0  0  0  0  0  0  0  0  0  0  0  0
    8.9119   -0.6617   20.7857 S   0  0  0  0  0  0  0  0  0  0  0  0
    9.5008   -1.9838   20.9367 O   0  0  0  0  0  0  0  0  0  0  0  0
    9.4027    0.3339   19.8566 O   0  0  0  0  0  0  0  0  0  0  0  0
    8.8579    0.1163   22.4018 C   0  0  0  0  0  0  0  0  0  0  0  0
    8.0559   -0.4074   22.9273 H   0  0  0  0  0  0  0  0  0  0  0  0
    8.5378    1.1438   22.2017 H   0  0  0  0  0  0  0  0  0  0  0  0
   10.1741    0.0215   23.1890 C   0  0  0  0  0  0  0  0  0  0  0  0
   10.4979   -1.0367   23.1660 H   0  0  0  0  0  0  0  0  0  0  0  0
   11.3138    0.8807   22.6038 C   0  0  0  0  0  0  0  0  0  0  0  0
   11.0536    1.9493   22.7175 H   0  0  0  0  0  0  0  0  0  0  0  0
   11.4300    0.7076   21.5276 H   0  0  0  0  0  0  0  0  0  0  0  0
   12.6210    0.6004   23.3675 C   0  0  0  0  0  0  0  0  0  0  0  0
   12.8888   -0.4631   23.2395 H   0  0  0  0  0  0  0  0  0  0  0  0
   13.4552    1.1690   22.9416 H   0  0  0  0  0  0  0  0  0  0  0  0
   12.4492    0.9240   24.8628 C   0  0  0  0  0  0  0  0  0  0  0  0
   12.2706    2.0058   24.9816 H   0  0  0  0  0  0  0  0  0  0  0  0
   13.3636    0.6753   25.4152 H   0  0  0  0  0  0  0  0  0  0  0  0
   11.2623    0.1527   25.4562 C   0  0  0  0  0  0  0  0  0  0  0  0
   11.4944   -0.9135   25.3833 H   0  0  0  0  0  0  0  0  0  0  0  0
   11.1341    0.3613   26.5244 H   0  0  0  0  0  0  0  0  0  0  0  0
    9.9666    0.4001   24.6705 C   0  0  0  0  0  0  0  0  0  0  0  0
    9.6801    1.4631   24.7489 H   0  0  0  0  0  0  0  0  0  0  0  0
    9.1468   -0.1878   25.1073 H   0  0  0  0  0  0  0  0  0  0  0  0
    5.4888    0.6200   19.8656 C   0  0  0  0  0  0  0  0  0  0  0  0
    5.2545    0.5993   20.9287 H   0  0  0  0  0  0  0  0  0  0  0  0
    4.7688    1.3908   18.9421 C   0  0  0  0  0  0  0  0  0  0  0  0
    3.9156    1.9900   19.2491 H   0  0  0  0  0  0  0  0  0  0  0  0
  1  2  1  0
  2  3  2  0
  3  4  1  0
  4  5  1  0
  4  6  2  0
  6  7  1  0
  7  8  1  0
  8  9  1  0
  8 10  1  0
  8 11  1  0
  7 12  1  0
 12 13  2  0
 12 14  2  0
 12 15  1  0
 15 16  1  0
 15 17  1  0
 15 18  1  0
 18 19  1  0
 18 20  1  0
 20 21  1  0
 20 22  1  0
 20 23  1  0
 23 24  1  0
 23 25  1  0
 23 26  1  0
 26 27  1  0
 26 28  1  0
 26 29  1  0
 29 30  1  0
 29 31  1  0
 29 32  1  0
 32 33  1  0
 32 34  1  0
  6 35  1  0
 35 36  1  0
 35 37  2  0
 37 38  1  0
 37  2  1  0
 32 18  1  0
M  END
>  <cnnaffinity>  (1) 
-5.05859

>  <filename>  (1) 
CN(c1cccnc1)S(=O)(=O)CC1CCCCC1

$$$$
