
     RDKit          3D

 35 37  0  0  0  0  0  0  0  0999 V2000
    4.9508    1.8634   16.9771 H   0  0  0  0  0  0  0  0  0  0  0  0
    5.4034    1.3137   17.7983 C   0  0  0  0  0  0  0  0  0  0  0  0
    6.5573    0.6801   17.5309 N   0  0  0  0  0  0  0  0  0  0  0  0
    7.1519    0.0218   18.5434 C   0  0  0  0  0  0  0  0  0  0  0  0
    8.0728   -0.5021   18.2957 H   0  0  0  0  0  0  0  0  0  0  0  0
    6.6448   -0.0334   19.8719 C   0  0  0  0  0  0  0  0  0  0  0  0
    7.2795   -0.6943   20.9398 N   0  0  0  0  0  0  0  0  0  0  0  0
    6.6786   -0.8841   21.7399 H   0  0  0  0  0  0  0  0  0  0  0  0
    8.6579   -0.6651   21.2562 C   0  0  0  0  0  0  0  0  0  0  0  0
    9.6615    0.1902   20.7288 C   0  0  0  0  0  0  0  0  0  0  0  0
    9.5110    0.9900   20.0197 H   0  0  0  0  0  0  0  0  0  0  0  0
   10.8641   -0.0571   21.2218 N   0  0  0  0  0  0  0  0  0  0  0  0
   10.6563   -1.0888   22.0613 N   0  0  0  0  0  0  0  0  0  0  0  0
   11.3869   -1.3752   22.6918 H   0  0  0  0  0  0  0  0  0  0  0  0
    9.3518   -1.4590   22.1751 C   0  0  0  0  0  0  0  0  0  0  0  0
    8.9733   -2.3825   23.1526 N   0  0  0  0  0  0  0  0  0  0  0  0
    7.7804   -2.1666   23.8777 C   0  0  0  0  0  0  0  0  0  0  0  0
    6.8589   -3.2124   24.0473 C   0  0  0  0  0  0  0  0  0  0  0  0
    7.0492   -4.1620   23.5573 H   0  0  0  0  0  0  0  0  0  0  0  0
    5.7263   -3.0330   24.8376 C   0  0  0  0  0  0  0  0  0  0  0  0
    5.0320   -3.8608   24.9670 H   0  0  0  0  0  0  0  0  0  0  0  0
    5.5083   -1.8045   25.4705 C   0  0  0  0  0  0  0  0  0  0  0  0
    4.6426   -1.6799   26.1100 H   0  0  0  0  0  0  0  0  0  0  0  0
    6.3995   -0.7432   25.2773 C   0  0  0  0  0  0  0  0  0  0  0  0
    6.2200    0.2134   25.7665 H   0  0  0  0  0  0  0  0  0  0  0  0
    7.5242   -0.9097   24.4632 C   0  0  0  0  0  0  0  0  0  0  0  0
    8.2067   -0.0824   24.2762 H   0  0  0  0  0  0  0  0  0  0  0  0
    9.5878   -3.7010   23.1666 C   0  0  0  0  0  0  0  0  0  0  0  0
    9.1283   -4.3600   22.4175 H   0  0  0  0  0  0  0  0  0  0  0  0
   10.6566   -3.6120   22.9447 H   0  0  0  0  0  0  0  0  0  0  0  0
    9.4737   -4.1707   24.1488 H   0  0  0  0  0  0  0  0  0  0  0  0
    5.4144    0.5939   20.1027 C   0  0  0  0  0  0  0  0  0  0  0  0
    4.9675    0.5576   21.1008 H   0  0  0  0  0  0  0  0  0  0  0  0
    4.7900    1.2853   19.0591 C   0  0  0  0  0  0  0  0  0  0  0  0
    3.8552    1.8133   19.2148 H   0  0  0  0  0  0  0  0  0  0  0  0
  1  2  1  0
  2  3  2  0
  3  4  1  0
  4  5  1  0
  4  6  2  0
  6  7  1  0
  7  8  1  0
  7  9  1  0
  9 10  1  0
 10 11  1  0
 10 12  2  0
 12 13  1  0
 13 14  1  0
 13 15  1  0
 15 16  1  0
 16 17  1  0
 17 18  2  0
 18 19  1  0
 18 20  1  0
 20 21  1  0
 20 22  2  0
 22 23  1  0
 22 24  1  0
 24 25  1  0
 24 26  2  0
 26 27  1  0
 16 28  1  0
 28 29  1  0
 28 30  1  0
 28 31  1  0
  6 32  1  0
 32 33  1  0
 32 34  2  0
 34 35  1  0
 34  2  1  0
 15  9  2  0
 26 17  1  0
M  END
>  <cnnaffinity>  (1) 
-5.25233

>  <filename>  (1) 
CN(c1ccccc1)c1[nH]ncc1Nc1cccnc1

$$$$
