
     RDKit          3D

 36 38  0  0  0  0  0  0  0  0999 V2000
    4.9857    1.8085   16.9658 H   0  0  0  0  0  0  0  0  0  0  0  0
    5.4379    1.2896   17.8098 C   0  0  0  0  0  0  0  0  0  0  0  0
    6.5980    0.6581   17.5668 N   0  0  0  0  0  0  0  0  0  0  0  0
    7.1880    0.0370   18.5972 C   0  0  0  0  0  0  0  0  0  0  0  0
    8.1234   -0.4678   18.3677 H   0  0  0  0  0  0  0  0  0  0  0  0
    6.6797    0.0105   19.9158 C   0  0  0  0  0  0  0  0  0  0  0  0
    7.4170   -0.6223   21.0438 C   0  0  0  0  0  0  0  0  0  0  0  0
    8.6440   -1.8249   20.7692 S   0  0  0  0  0  0  0  0  0  0  0  0
    8.9100   -2.0312   22.4519 C   0  0  0  0  0  0  0  0  0  0  0  0
    9.5180   -2.8354   22.8223 H   0  0  0  0  0  0  0  0  0  0  0  0
    8.1766   -1.1571   23.2143 C   0  0  0  0  0  0  0  0  0  0  0  0
    8.3054   -1.0313   24.5973 N   0  0  0  0  0  0  0  0  0  0  0  0
    7.3861   -0.1290   25.2752 C   0  0  0  0  0  0  0  0  0  0  0  0
    7.4991   -0.2090   26.3647 H   0  0  0  0  0  0  0  0  0  0  0  0
    7.6082    0.9068   24.9886 H   0  0  0  0  0  0  0  0  0  0  0  0
    6.3347   -0.3332   25.0128 H   0  0  0  0  0  0  0  0  0  0  0  0
    8.8746   -2.1497   25.3518 C   0  0  0  0  0  0  0  0  0  0  0  0
    9.0214   -1.8203   26.3899 H   0  0  0  0  0  0  0  0  0  0  0  0
    9.8857   -2.3632   24.9711 H   0  0  0  0  0  0  0  0  0  0  0  0
    8.0361   -3.4310   25.3399 C   0  0  0  0  0  0  0  0  0  0  0  0
    8.5634   -4.6232   24.8250 C   0  0  0  0  0  0  0  0  0  0  0  0
    9.5896   -4.6659   24.4643 H   0  0  0  0  0  0  0  0  0  0  0  0
    7.7896   -5.7877   24.7689 C   0  0  0  0  0  0  0  0  0  0  0  0
    8.2096   -6.6787   24.3207 H   0  0  0  0  0  0  0  0  0  0  0  0
    6.4813   -5.7884   25.2605 C   0  0  0  0  0  0  0  0  0  0  0  0
    5.8941   -6.7050   25.2631 H   0  0  0  0  0  0  0  0  0  0  0  0
    5.9351   -4.6081   25.7718 C   0  0  0  0  0  0  0  0  0  0  0  0
    4.9139   -4.5811   26.1448 H   0  0  0  0  0  0  0  0  0  0  0  0
    6.7073   -3.4404   25.8000 C   0  0  0  0  0  0  0  0  0  0  0  0
    6.2579   -2.5273   26.1771 H   0  0  0  0  0  0  0  0  0  0  0  0
    7.2924   -0.3772   22.3818 C   0  0  0  0  0  0  0  0  0  0  0  0
    6.5807    0.3233   22.8047 H   0  0  0  0  0  0  0  0  0  0  0  0
    5.4454    0.6463   20.1312 C   0  0  0  0  0  0  0  0  0  0  0  0
    4.9855    0.6282   21.1176 H   0  0  0  0  0  0  0  0  0  0  0  0
    4.8197    1.2956   19.0629 C   0  0  0  0  0  0  0  0  0  0  0  0
    3.8809    1.8199   19.1947 H   0  0  0  0  0  0  0  0  0  0  0  0
  1  2  1  0
  2  3  2  0
  3  4  1  0
  4  5  1  0
  4  6  2  0
  6  7  1  0
  7  8  1  0
  8  9  1  0
  9 10  1  0
  9 11  2  0
 11 12  1  0
 12 13  1  0
 13 14  1  0
 13 15  1  0
 13 16  1  0
 12 17  1  0
 17 18  1  0
 17 19  1  0
 17 20  1  0
 20 21  2  0
 21 22  1  0
 21 23  1  0
 23 24  1  0
 23 25  2  0
 25 26  1  0
 25 27  1  0
 27 28  1  0
 27 29  2  0
 29 30  1  0
 11 31  1  0
 31 32  1  0
  6 33  1  0
 33 34  1  0
 33 35  2  0
 35 36  1  0
 35  2  1  0
 31  7  2  0
 29 20  1  0
M  END
>  <cnnaffinity>  (1) 
-5.19692

>  <filename>  (1) 
CN(Cc1ccccc1)c1csc(-c2cccnc2)c1

$$$$
