
     RDKit          3D

 34 37  0  0  0  0  0  0  0  0999 V2000
    4.9972    1.7222   16.9081 H   0  0  0  0  0  0  0  0  0  0  0  0
    5.4589    1.2460   17.7709 C   0  0  0  0  0  0  0  0  0  0  0  0
    6.5985    0.5773   17.5351 N   0  0  0  0  0  0  0  0  0  0  0  0
    7.1914   -0.0163   18.5728 C   0  0  0  0  0  0  0  0  0  0  0  0
    8.1164   -0.5524   18.3646 H   0  0  0  0  0  0  0  0  0  0  0  0
    6.6825    0.0323   19.8819 C   0  0  0  0  0  0  0  0  0  0  0  0
    7.4197   -0.6534   20.9425 C   0  0  0  0  0  0  0  0  0  0  0  0
    8.3163   -1.5958   20.7675 N   0  0  0  0  0  0  0  0  0  0  0  0
    8.7813   -2.0074   21.9959 N   0  0  0  0  0  0  0  0  0  0  0  0
    8.1537   -1.2810   22.8783 C   0  0  0  0  0  0  0  0  0  0  0  0
    8.1722   -1.0070   24.5983 S   0  0  0  0  0  0  0  0  0  0  0  0
    6.9860    0.2885   24.3208 C   0  0  0  0  0  0  0  0  0  0  0  0
    6.4770    1.0973   25.3268 N   0  0  0  0  0  0  0  0  0  0  0  0
    6.8388    0.9306   26.6843 C   0  0  0  0  0  0  0  0  0  0  0  0
    6.4611   -0.2385   28.0435 C   0  0  0  0  0  0  0  0  0  0  0  0
    7.2506   -1.4086   27.5508 H   0  0  0  0  0  0  0  0  0  0  0  0
    6.5602   -0.5614   27.9600 C   0  0  0  0  0  0  0  0  0  0  0  0
    5.3632   -0.8707   28.0004 H   0  0  0  0  0  0  0  0  0  0  0  0
    7.2572    0.4765   29.2174 C   0  0  0  0  0  0  0  0  0  0  0  0
    6.8573    0.3242   30.2320 H   0  0  0  0  0  0  0  0  0  0  0  0
    7.7707    1.7097   28.7841 C   0  0  0  0  0  0  0  0  0  0  0  0
    8.2929    2.4170   29.4043 H   0  0  0  0  0  0  0  0  0  0  0  0
    7.4995    1.9171   27.3629 C   0  0  0  0  0  0  0  0  0  0  0  0
    7.8232    2.8174   26.8274 H   0  0  0  0  0  0  0  0  0  0  0  0
    5.8222    2.3557   24.8929 C   0  0  0  0  0  0  0  0  0  0  0  0
    5.4188    2.8819   25.7680 H   0  0  0  0  0  0  0  0  0  0  0  0
    4.9936    2.1636   24.1997 H   0  0  0  0  0  0  0  0  0  0  0  0
    6.5173    3.0297   24.3668 H   0  0  0  0  0  0  0  0  0  0  0  0
    6.6323    0.4870   23.0836 N   0  0  0  0  0  0  0  0  0  0  0  0
    7.2773   -0.4220   22.2939 N   0  0  0  0  0  0  0  0  0  0  0  0
    5.4910    0.7317   20.1204 C   0  0  0  0  0  0  0  0  0  0  0  0
    5.0851    0.7975   21.1305 H   0  0  0  0  0  0  0  0  0  0  0  0
    4.8698    1.3431   19.0362 C   0  0  0  0  0  0  0  0  0  0  0  0
    3.9526    1.9078   19.1594 H   0  0  0  0  0  0  0  0  0  0  0  0
  1  2  1  0
  2  3  2  0
  3  4  1  0
  4  5  1  0
  4  6  2  0
  6  7  1  0
  7  8  2  0
  8  9  1  0
  9 10  2  0
 10 11  1  0
 11 12  1  0
 12 13  1  0
 13 14  1  0
 14 15  2  0
 15 16  1  0
 15 17  1  0
 17 18  1  0
 17 19  2  0
 19 20  1  0
 19 21  1  0
 21 22  1  0
 21 23  2  0
 23 24  1  0
 13 25  1  0
 25 26  1  0
 25 27  1  0
 25 28  1  0
 12 29  2  0
 29 30  1  0
  6 31  1  0
 31 32  1  0
 31 33  2  0
 33 34  1  0
 33  2  1  0
 30  7  1  0
 30 10  1  0
 23 14  1  0
M  END
>  <cnnaffinity>  (1) 
-5.09231

>  <filename>  (1) 
CN(c1ccccc1)c1nn2c(-c3cccnc3)nnc2s1

$$$$
