
     RDKit          3D

 40 42  0  0  0  0  0  0  0  0999 V2000
    4.9563    1.8120   16.9721 H   0  0  0  0  0  0  0  0  0  0  0  0
    5.4045    1.2939   17.8182 C   0  0  0  0  0  0  0  0  0  0  0  0
    6.5578    0.6496   17.5785 N   0  0  0  0  0  0  0  0  0  0  0  0
    7.1473    0.0226   18.6003 C   0  0  0  0  0  0  0  0  0  0  0  0
    8.0846   -0.4834   18.3808 H   0  0  0  0  0  0  0  0  0  0  0  0
    6.6368    0.0127   19.9097 C   0  0  0  0  0  0  0  0  0  0  0  0
    7.4017   -0.6470   20.9680 C   0  0  0  0  0  0  0  0  0  0  0  0
    7.9861   -1.8797   20.7678 N   0  0  0  0  0  0  0  0  0  0  0  0
    8.4855   -2.1674   21.9382 C   0  0  0  0  0  0  0  0  0  0  0  0
    8.3828   -1.1643   22.8439 N   0  0  0  0  0  0  0  0  0  0  0  0
    7.6422   -0.1744   22.2517 C   0  0  0  0  0  0  0  0  0  0  0  0
    7.4261    1.1753   22.8508 C   0  0  0  0  0  0  0  0  0  0  0  0
    6.3501    1.3810   22.9350 H   0  0  0  0  0  0  0  0  0  0  0  0
    7.8173    1.1782   23.8755 H   0  0  0  0  0  0  0  0  0  0  0  0
    8.0993    2.2884   22.0183 C   0  0  0  0  0  0  0  0  0  0  0  0
    7.9390    3.2559   22.5090 H   0  0  0  0  0  0  0  0  0  0  0  0
    7.6074    2.3484   21.0402 H   0  0  0  0  0  0  0  0  0  0  0  0
    9.5910    2.0395   21.7574 C   0  0  0  0  0  0  0  0  0  0  0  0
   10.0080    2.8664   21.1543 H   0  0  0  0  0  0  0  0  0  0  0  0
    9.6636    1.1391   21.1318 H   0  0  0  0  0  0  0  0  0  0  0  0
   10.3744    1.8206   22.9739 N   0  0  0  0  0  0  0  0  0  0  0  0
   11.6168    1.1139   22.7018 C   0  0  0  0  0  0  0  0  0  0  0  0
   11.3934    0.1436   22.2418 H   0  0  0  0  0  0  0  0  0  0  0  0
   12.2988    1.6666   22.0254 H   0  0  0  0  0  0  0  0  0  0  0  0
   12.1472    0.9210   23.6422 H   0  0  0  0  0  0  0  0  0  0  0  0
   10.6183    3.0570   23.7046 C   0  0  0  0  0  0  0  0  0  0  0  0
   11.1519    2.8333   24.6342 H   0  0  0  0  0  0  0  0  0  0  0  0
   11.2157    3.7892   23.1250 H   0  0  0  0  0  0  0  0  0  0  0  0
    9.6720    3.5354   23.9772 H   0  0  0  0  0  0  0  0  0  0  0  0
    9.0410   -1.3108   24.1260 C   0  0  0  0  0  0  0  0  0  0  0  0
    8.2953   -1.4428   24.9150 H   0  0  0  0  0  0  0  0  0  0  0  0
    9.6149   -0.4011   24.3364 H   0  0  0  0  0  0  0  0  0  0  0  0
    9.9378   -2.5519   23.9689 C   0  0  0  0  0  0  0  0  0  0  0  0
   10.0350   -3.1380   24.8844 H   0  0  0  0  0  0  0  0  0  0  0  0
   10.9351   -2.2621   23.6280 H   0  0  0  0  0  0  0  0  0  0  0  0
    9.1834   -3.5973   22.6616 S   0  0  0  0  0  0  0  0  0  0  0  0
    5.4151    0.6704   20.1362 C   0  0  0  0  0  0  0  0  0  0  0  0
    4.9511    0.6691   21.1248 H   0  0  0  0  0  0  0  0  0  0  0  0
    4.7868    1.3213   19.0765 C   0  0  0  0  0  0  0  0  0  0  0  0
    3.8501    1.8581   19.2096 H   0  0  0  0  0  0  0  0  0  0  0  0
  1  2  1  0
  2  3  2  0
  3  4  1  0
  4  5  1  0
  4  6  2  0
  6  7  1  0
  7  8  1  0
  8  9  2  0
  9 10  1  0
 10 11  1  0
 11 12  1  0
 12 13  1  0
 12 14  1  0
 12 15  1  0
 15 16  1  0
 15 17  1  0
 15 18  1  0
 18 19  1  0
 18 20  1  0
 18 21  1  0
 21 22  1  0
 22 23  1  0
 22 24  1  0
 22 25  1  0
 21 26  1  0
 26 27  1  0
 26 28  1  0
 26 29  1  0
 10 30  1  0
 30 31  1  0
 30 32  1  0
 30 33  1  0
 33 34  1  0
 33 35  1  0
 33 36  1  0
  6 37  1  0
 37 38  1  0
 37 39  2  0
 39 40  1  0
 39  2  1  0
 11  7  2  0
 36  9  1  0
M  END
>  <cnnaffinity>  (1) 
-5.34689

>  <filename>  (1) 
CN(C)CCCc1c(-c2cccnc2)nc2n1CCS2

$$$$
