
     RDKit          3D

 36 37  0  0  0  0  0  0  0  0999 V2000
    5.0180    1.6772   16.6454 H   0  0  0  0  0  0  0  0  0  0  0  0
    5.4302    1.3265   17.5917 C   0  0  0  0  0  0  0  0  0  0  0  0
    6.6523    0.7741   17.5415 N   0  0  0  0  0  0  0  0  0  0  0  0
    7.1717    0.3259   18.6912 C   0  0  0  0  0  0  0  0  0  0  0  0
    8.1781   -0.0806   18.6282 H   0  0  0  0  0  0  0  0  0  0  0  0
    6.5125    0.3641   19.9349 C   0  0  0  0  0  0  0  0  0  0  0  0
    7.1310   -0.2398   21.1282 C   0  0  0  0  0  0  0  0  0  0  0  0
    6.9834    0.0507   22.4339 C   0  0  0  0  0  0  0  0  0  0  0  0
    6.3442    0.7788   22.9013 H   0  0  0  0  0  0  0  0  0  0  0  0
    7.8506   -0.8207   23.2144 C   0  0  0  0  0  0  0  0  0  0  0  0
    8.0627   -0.8527   24.4184 O   0  0  0  0  0  0  0  0  0  0  0  0
    8.4046   -1.6750   22.2678 N   0  0  0  0  0  0  0  0  0  0  0  0
    9.4899   -2.6041   22.5202 C   0  0  0  0  0  0  0  0  0  0  0  0
    9.1830   -3.2438   23.3527 H   0  0  0  0  0  0  0  0  0  0  0  0
    9.5666   -3.2371   21.6325 H   0  0  0  0  0  0  0  0  0  0  0  0
   10.8561   -1.9818   22.8414 C   0  0  0  0  0  0  0  0  0  0  0  0
   10.7927   -1.3766   23.7515 H   0  0  0  0  0  0  0  0  0  0  0  0
   11.5457   -2.8082   23.0590 H   0  0  0  0  0  0  0  0  0  0  0  0
   11.4143   -1.1395   21.6877 C   0  0  0  0  0  0  0  0  0  0  0  0
   10.8420   -0.2072   21.6002 H   0  0  0  0  0  0  0  0  0  0  0  0
   11.2373   -1.6792   20.7579 H   0  0  0  0  0  0  0  0  0  0  0  0
   12.8274   -0.8206   21.7153 N   0  0  0  0  0  0  0  0  0  0  0  0
   13.2685    0.0892   22.7467 C   0  0  0  0  0  0  0  0  0  0  0  0
   13.2777   -0.3184   23.7725 H   0  0  0  0  0  0  0  0  0  0  0  0
   12.6271    0.9783   22.7483 H   0  0  0  0  0  0  0  0  0  0  0  0
   14.2883    0.4326   22.5316 H   0  0  0  0  0  0  0  0  0  0  0  0
   13.7414   -1.8908   21.3819 C   0  0  0  0  0  0  0  0  0  0  0  0
   13.8105   -2.7033   22.1243 H   0  0  0  0  0  0  0  0  0  0  0  0
   14.7480   -1.4834   21.2497 H   0  0  0  0  0  0  0  0  0  0  0  0
   13.4606   -2.3421   20.4221 H   0  0  0  0  0  0  0  0  0  0  0  0
    8.0866   -1.2640   20.9504 N   0  0  0  0  0  0  0  0  0  0  0  0
    7.6807   -2.0331   20.4043 H   0  0  0  0  0  0  0  0  0  0  0  0
    5.2585    0.9983   19.9712 C   0  0  0  0  0  0  0  0  0  0  0  0
    4.7201    1.1230   20.9102 H   0  0  0  0  0  0  0  0  0  0  0  0
    4.7059    1.4724   18.7782 C   0  0  0  0  0  0  0  0  0  0  0  0
    3.7414    1.9685   18.7517 H   0  0  0  0  0  0  0  0  0  0  0  0
  1  2  1  0
  2  3  2  0
  3  4  1  0
  4  5  1  0
  4  6  2  0
  6  7  1  0
  7  8  2  0
  8  9  1  0
  8 10  1  0
 10 11  2  0
 10 12  1  0
 12 13  1  0
 13 14  1  0
 13 15  1  0
 13 16  1  0
 16 17  1  0
 16 18  1  0
 16 19  1  0
 19 20  1  0
 19 21  1  0
 19 22  1  0
 22 23  1  0
 23 24  1  0
 23 25  1  0
 23 26  1  0
 22 27  1  0
 27 28  1  0
 27 29  1  0
 27 30  1  0
 12 31  1  0
 31 32  1  0
  6 33  1  0
 33 34  1  0
 33 35  2  0
 35 36  1  0
 35  2  1  0
 31  7  1  0
M  END
>  <cnnaffinity>  (1) 
-4.96977

>  <filename>  (1) 
CN(C)CCCn1[nH]c(-c2cccnc2)cc1=O

$$$$
