
     RDKit          3D

 39 41  0  0  0  0  0  0  0  0999 V2000
    9.5583   -2.9980   21.7897 H   0  0  0  0  0  0  0  0  0  0  0  0
    8.8651   -2.1678   21.9291 C   0  0  0  0  0  0  0  0  0  0  0  0
    8.5889   -1.8535   23.1837 N   0  0  0  0  0  0  0  0  0  0  0  0
    7.7482   -0.8270   23.3398 C   0  0  0  0  0  0  0  0  0  0  0  0
    7.5203   -0.4074   24.6077 N   0  0  0  0  0  0  0  0  0  0  0  0
    8.2202   -0.9313   25.7829 C   0  0  0  0  0  0  0  0  0  0  0  0
    7.7967   -1.8989   26.0846 H   0  0  0  0  0  0  0  0  0  0  0  0
    9.2785   -1.1025   25.5620 H   0  0  0  0  0  0  0  0  0  0  0  0
    8.0320    0.1502   26.8580 C   0  0  0  0  0  0  0  0  0  0  0  0
    8.9203    0.7913   26.9154 H   0  0  0  0  0  0  0  0  0  0  0  0
    7.8634   -0.2769   27.8531 H   0  0  0  0  0  0  0  0  0  0  0  0
    6.8222    1.0026   26.4007 C   0  0  1  0  0  0  0  0  0  0  0  0
    5.9032    0.5411   26.7918 H   0  0  0  0  0  0  0  0  0  0  0  0
    6.8034    2.4051   26.8522 N   0  0  0  0  0  0  0  0  0  0  0  0
    6.4869    2.5298   28.2714 C   0  0  0  0  0  0  0  0  0  0  0  0
    7.2394    2.0854   28.9546 H   0  0  0  0  0  0  0  0  0  0  0  0
    6.3717    3.5872   28.5411 H   0  0  0  0  0  0  0  0  0  0  0  0
    5.5190    2.0498   28.4718 H   0  0  0  0  0  0  0  0  0  0  0  0
    7.9281    3.2396   26.4356 C   0  0  0  0  0  0  0  0  0  0  0  0
    8.8927    3.0170   26.9292 H   0  0  0  0  0  0  0  0  0  0  0  0
    7.6893    4.2936   26.6367 H   0  0  0  0  0  0  0  0  0  0  0  0
    8.0926    3.1406   25.3559 H   0  0  0  0  0  0  0  0  0  0  0  0
    6.7797    0.8203   24.8668 C   0  0  0  0  0  0  0  0  0  0  0  0
    5.7498    0.7335   24.5010 H   0  0  0  0  0  0  0  0  0  0  0  0
    7.2298    1.6751   24.3416 H   0  0  0  0  0  0  0  0  0  0  0  0
    7.1031   -0.1774   22.3664 N   0  0  0  0  0  0  0  0  0  0  0  0
    7.4036   -0.5091   21.1189 C   0  0  0  0  0  0  0  0  0  0  0  0
    6.6792    0.2006   20.0416 C   0  0  0  0  0  0  0  0  0  0  0  0
    7.2382    0.2471   18.7566 C   0  0  0  0  0  0  0  0  0  0  0  0
    8.2419   -0.1288   18.5680 H   0  0  0  0  0  0  0  0  0  0  0  0
    6.6302    0.7634   17.6856 N   0  0  0  0  0  0  0  0  0  0  0  0
    5.4219    1.3131   17.8685 C   0  0  0  0  0  0  0  0  0  0  0  0
    4.9414    1.7272   16.9837 H   0  0  0  0  0  0  0  0  0  0  0  0
    4.7948    1.3765   19.1162 C   0  0  0  0  0  0  0  0  0  0  0  0
    3.8328    1.8661   19.2100 H   0  0  0  0  0  0  0  0  0  0  0  0
    5.4323    0.8249   20.2247 C   0  0  0  0  0  0  0  0  0  0  0  0
    4.9852    0.8791   21.2194 H   0  0  0  0  0  0  0  0  0  0  0  0
    8.3411   -1.5012   20.8371 C   0  0  0  0  0  0  0  0  0  0  0  0
    8.6413   -1.7446   19.8352 H   0  0  0  0  0  0  0  0  0  0  0  0
  1  2  1  0
  2  3  2  0
  3  4  1  0
  4  5  1  0
  5  6  1  0
  6  7  1  0
  6  8  1  0
  6  9  1  0
  9 10  1  0
  9 11  1  0
  9 12  1  0
 12 13  1  1
 12 14  1  0
 14 15  1  0
 15 16  1  0
 15 17  1  0
 15 18  1  0
 14 19  1  0
 19 20  1  0
 19 21  1  0
 19 22  1  0
 12 23  1  0
 23 24  1  0
 23 25  1  0
  4 26  2  0
 26 27  1  0
 27 28  1  0
 28 29  2  0
 29 30  1  0
 29 31  1  0
 31 32  2  0
 32 33  1  0
 32 34  1  0
 34 35  1  0
 34 36  2  0
 36 37  1  0
 27 38  2  0
 38 39  1  0
 38  2  1  0
 23  5  1  0
 36 28  1  0
M  END
>  <cnnaffinity>  (1) 
-4.79924

>  <filename>  (1) 
CN(C)[C@@H]1CCN(c2nccc(-c3cccnc3)n2)C1

$$$$
