
     RDKit          3D

 39 41  0  0  0  0  0  0  0  0999 V2000
    4.9841    1.8440   16.9164 H   0  0  0  0  0  0  0  0  0  0  0  0
    5.3846    1.3097   17.7800 C   0  0  0  0  0  0  0  0  0  0  0  0
    6.5346    0.6466   17.5868 N   0  0  0  0  0  0  0  0  0  0  0  0
    7.0674    0.0249   18.6484 C   0  0  0  0  0  0  0  0  0  0  0  0
    8.0024   -0.5013   18.4560 H   0  0  0  0  0  0  0  0  0  0  0  0
    6.4940   -0.0043   19.9376 C   0  0  0  0  0  0  0  0  0  0  0  0
    7.2470   -0.6176   21.0506 C   0  0  0  0  0  0  0  0  0  0  0  0
    8.6039   -0.5581   21.2776 C   0  0  0  0  0  0  0  0  0  0  0  0
    8.8056   -1.1041   22.5432 C   0  0  0  0  0  0  0  0  0  0  0  0
    7.6983   -1.5577   23.0911 N   0  0  0  0  0  0  0  0  0  0  0  0
    6.7458   -1.2405   22.1667 N   0  0  0  0  0  0  0  0  0  0  0  0
    5.7921   -1.5181   22.3548 H   0  0  0  0  0  0  0  0  0  0  0  0
   10.2328   -0.9512   22.9949 C   0  0  0  0  0  0  0  0  0  0  0  0
   10.7776   -1.8932   22.8492 H   0  0  0  0  0  0  0  0  0  0  0  0
   10.3329   -0.6629   24.0453 H   0  0  0  0  0  0  0  0  0  0  0  0
   10.7568    0.1614   22.0275 C   0  0  2  0  0  0  0  0  0  0  0  0
   11.8107   -0.0244   21.7880 H   0  0  0  0  0  0  0  0  0  0  0  0
   10.6574    1.5834   22.6237 C   0  0  0  0  0  0  0  0  0  0  0  0
   11.3060    1.6597   23.5036 H   0  0  0  0  0  0  0  0  0  0  0  0
   11.0523    2.2953   21.8840 H   0  0  0  0  0  0  0  0  0  0  0  0
    9.2472    2.0208   23.0347 C   0  0  0  0  0  0  0  0  0  0  0  0
    8.5750    2.0267   22.1544 H   0  0  0  0  0  0  0  0  0  0  0  0
    8.8289    1.2749   23.7243 H   0  0  0  0  0  0  0  0  0  0  0  0
    9.2595    3.3212   23.7062 N   0  0  0  0  0  0  0  0  0  0  0  0
    9.4689    4.4355   22.7935 C   0  0  0  0  0  0  0  0  0  0  0  0
    9.4026    5.3795   23.3437 H   0  0  0  0  0  0  0  0  0  0  0  0
   10.4814    4.4003   22.3743 H   0  0  0  0  0  0  0  0  0  0  0  0
    8.7335    4.4732   21.9629 H   0  0  0  0  0  0  0  0  0  0  0  0
    8.1001    3.5144   24.5603 C   0  0  0  0  0  0  0  0  0  0  0  0
    7.1333    3.4844   24.0204 H   0  0  0  0  0  0  0  0  0  0  0  0
    8.1748    4.4837   25.0653 H   0  0  0  0  0  0  0  0  0  0  0  0
    8.0838    2.7437   25.3421 H   0  0  0  0  0  0  0  0  0  0  0  0
    9.8772    0.0096   20.7507 C   0  0  0  0  0  0  0  0  0  0  0  0
    9.7384    0.9508   20.2087 H   0  0  0  0  0  0  0  0  0  0  0  0
   10.3643   -0.7080   20.0859 H   0  0  0  0  0  0  0  0  0  0  0  0
    5.2695    0.6675   20.1054 C   0  0  0  0  0  0  0  0  0  0  0  0
    4.7734    0.6928   21.0781 H   0  0  0  0  0  0  0  0  0  0  0  0
    4.7191    1.3369   19.0112 C   0  0  0  0  0  0  0  0  0  0  0  0
    3.8022    1.9065   19.0986 H   0  0  0  0  0  0  0  0  0  0  0  0
  1  2  1  0
  2  3  2  0
  3  4  1  0
  4  5  1  0
  4  6  2  0
  6  7  1  0
  7  8  2  0
  8  9  1  0
  9 10  2  0
 10 11  1  0
 11 12  1  0
  9 13  1  0
 13 14  1  0
 13 15  1  0
 13 16  1  0
 16 17  1  6
 16 18  1  0
 18 19  1  0
 18 20  1  0
 18 21  1  0
 21 22  1  0
 21 23  1  0
 21 24  1  0
 24 25  1  0
 25 26  1  0
 25 27  1  0
 25 28  1  0
 24 29  1  0
 29 30  1  0
 29 31  1  0
 29 32  1  0
 16 33  1  0
 33 34  1  0
 33 35  1  0
  6 36  1  0
 36 37  1  0
 36 38  2  0
 38 39  1  0
 38  2  1  0
 11  7  1  0
 33  8  1  0
M  END
>  <cnnaffinity>  (1) 
-5.21566

>  <filename>  (1) 
CN(C)CC[C@H]1Cc2n[nH]c(-c3cccnc3)c2C1

$$$$
