
     RDKit          3D

 36 38  0  0  0  0  0  0  0  0999 V2000
    4.9243    1.7750   17.0015 H   0  0  0  0  0  0  0  0  0  0  0  0
    5.4044    1.2886   17.8469 C   0  0  0  0  0  0  0  0  0  0  0  0
    6.5685    0.6708   17.5933 N   0  0  0  0  0  0  0  0  0  0  0  0
    7.1743    0.0571   18.6106 C   0  0  0  0  0  0  0  0  0  0  0  0
    8.1217   -0.4264   18.3723 H   0  0  0  0  0  0  0  0  0  0  0  0
    6.6494    0.0124   19.9118 C   0  0  0  0  0  0  0  0  0  0  0  0
    7.3548   -0.6802   20.9869 C   0  0  0  0  0  0  0  0  0  0  0  0
    6.8840   -0.7299   22.1934 N   0  0  0  0  0  0  0  0  0  0  0  0
    7.7581   -1.4087   22.9842 N   0  0  0  0  0  0  0  0  0  0  0  0
    7.8978   -1.6180   24.3330 C   0  0  0  0  0  0  0  0  0  0  0  0
    6.9770   -1.1384   25.4030 C   0  0  0  0  0  0  0  0  0  0  0  0
    5.9961   -0.9542   24.9591 H   0  0  0  0  0  0  0  0  0  0  0  0
    6.8762   -1.9361   26.1457 H   0  0  0  0  0  0  0  0  0  0  0  0
    7.5022    0.1473   26.0774 C   0  0  0  0  0  0  0  0  0  0  0  0
    6.8491    0.4125   26.9167 H   0  0  0  0  0  0  0  0  0  0  0  0
    8.4875   -0.0579   26.5152 H   0  0  0  0  0  0  0  0  0  0  0  0
    7.6508    1.3382   25.1236 C   0  0  0  0  0  0  0  0  0  0  0  0
    8.0029    2.2228   25.6933 H   0  0  0  0  0  0  0  0  0  0  0  0
    8.4521    1.1074   24.4090 H   0  0  0  0  0  0  0  0  0  0  0  0
    6.4329    1.6496   24.3760 N   0  0  0  0  0  0  0  0  0  0  0  0
    5.4092    2.2390   25.2264 C   0  0  0  0  0  0  0  0  0  0  0  0
    4.5221    2.4826   24.6354 H   0  0  0  0  0  0  0  0  0  0  0  0
    5.0898    1.5453   26.0093 H   0  0  0  0  0  0  0  0  0  0  0  0
    5.7574    3.1687   25.7155 H   0  0  0  0  0  0  0  0  0  0  0  0
    6.7146    2.5148   23.2389 C   0  0  0  0  0  0  0  0  0  0  0  0
    7.1265    3.4963   23.5467 H   0  0  0  0  0  0  0  0  0  0  0  0
    7.4280    2.0322   22.5634 H   0  0  0  0  0  0  0  0  0  0  0  0
    5.7983    2.7028   22.6687 H   0  0  0  0  0  0  0  0  0  0  0  0
    9.0495   -2.2011   24.5487 N   0  0  0  0  0  0  0  0  0  0  0  0
    9.7008   -2.3762   23.3422 N   0  0  0  0  0  0  0  0  0  0  0  0
    8.9169   -1.8694   22.4362 C   0  0  0  0  0  0  0  0  0  0  0  0
    8.9235   -1.4824   20.7396 S   0  0  0  0  0  0  0  0  0  0  0  0
    5.4288    0.6606   20.1667 C   0  0  0  0  0  0  0  0  0  0  0  0
    5.0063    0.6356   21.1758 H   0  0  0  0  0  0  0  0  0  0  0  0
    4.8025    1.3131   19.1095 C   0  0  0  0  0  0  0  0  0  0  0  0
    3.8707    1.8459   19.2570 H   0  0  0  0  0  0  0  0  0  0  0  0
  1  2  1  0
  2  3  2  0
  3  4  1  0
  4  5  1  0
  4  6  2  0
  6  7  1  0
  7  8  2  0
  8  9  1  0
  9 10  1  0
 10 11  1  0
 11 12  1  0
 11 13  1  0
 11 14  1  0
 14 15  1  0
 14 16  1  0
 14 17  1  0
 17 18  1  0
 17 19  1  0
 17 20  1  0
 20 21  1  0
 21 22  1  0
 21 23  1  0
 21 24  1  0
 20 25  1  0
 25 26  1  0
 25 27  1  0
 25 28  1  0
 10 29  2  0
 29 30  1  0
 30 31  2  0
 31 32  1  0
  6 33  1  0
 33 34  1  0
 33 35  2  0
 35 36  1  0
 35  2  1  0
 32  7  1  0
 31  9  1  0
M  END
>  <cnnaffinity>  (1) 
-5.16289

>  <filename>  (1) 
CN(C)CCCc1nnc2sc(-c3cccnc3)nn12

$$$$
