
     RDKit          3D

 35 35  0  0  0  0  0  0  0  0999 V2000
    4.9458    1.8013   16.9886 H   0  0  0  0  0  0  0  0  0  0  0  0
    5.4035    1.2807   17.8279 C   0  0  0  0  0  0  0  0  0  0  0  0
    6.5640    0.6569   17.5681 N   0  0  0  0  0  0  0  0  0  0  0  0
    7.1805    0.0302   18.5821 C   0  0  0  0  0  0  0  0  0  0  0  0
    8.1327   -0.4343   18.3286 H   0  0  0  0  0  0  0  0  0  0  0  0
    6.6803   -0.0134   19.9062 C   0  0  0  0  0  0  0  0  0  0  0  0
    7.3570   -0.6585   20.9846 N   0  0  0  0  0  0  0  0  0  0  0  0
    7.9696   -1.4296   20.7814 H   0  0  0  0  0  0  0  0  0  0  0  0
    7.4768   -0.1737   22.2735 C   0  0  0  0  0  0  0  0  0  0  0  0
    7.1368    0.9597   22.5777 O   0  0  0  0  0  0  0  0  0  0  0  0
    8.0406   -1.1856   23.3222 C   0  0  0  0  0  0  0  0  0  0  0  0
    7.1412   -2.4543   23.4148 C   0  0  0  0  0  0  0  0  0  0  0  0
    7.5258   -3.1469   24.1754 H   0  0  0  0  0  0  0  0  0  0  0  0
    6.1229   -2.1745   23.7017 H   0  0  0  0  0  0  0  0  0  0  0  0
    7.0834   -3.0071   22.4683 H   0  0  0  0  0  0  0  0  0  0  0  0
    8.0464   -0.5210   24.7230 C   0  0  0  0  0  0  0  0  0  0  0  0
    8.6403    0.3996   24.7620 H   0  0  0  0  0  0  0  0  0  0  0  0
    8.4420   -1.2140   25.4742 H   0  0  0  0  0  0  0  0  0  0  0  0
    7.0250   -0.2511   25.0078 H   0  0  0  0  0  0  0  0  0  0  0  0
    9.4756   -1.6276   22.9190 C   0  0  0  0  0  0  0  0  0  0  0  0
   10.0386   -1.9019   23.8397 H   0  0  0  0  0  0  0  0  0  0  0  0
    9.4137   -2.5549   22.3304 H   0  0  0  0  0  0  0  0  0  0  0  0
   10.2316   -0.6674   22.1225 N   0  0  0  0  0  0  0  0  0  0  0  0
   10.6662    0.5042   22.8811 C   0  0  0  0  0  0  0  0  0  0  0  0
   11.3741    1.0775   22.2704 H   0  0  0  0  0  0  0  0  0  0  0  0
    9.8248    1.1683   23.1058 H   0  0  0  0  0  0  0  0  0  0  0  0
   11.1777    0.2377   23.8302 H   0  0  0  0  0  0  0  0  0  0  0  0
   11.3608   -1.3160   21.4632 C   0  0  0  0  0  0  0  0  0  0  0  0
   10.9851   -2.1532   20.8694 H   0  0  0  0  0  0  0  0  0  0  0  0
   12.1322   -1.7108   22.1557 H   0  0  0  0  0  0  0  0  0  0  0  0
   11.8375   -0.6022   20.7846 H   0  0  0  0  0  0  0  0  0  0  0  0
    5.4605    0.6375   20.1500 C   0  0  0  0  0  0  0  0  0  0  0  0
    5.0609    0.6424   21.1628 H   0  0  0  0  0  0  0  0  0  0  0  0
    4.8127    1.2882   19.0940 C   0  0  0  0  0  0  0  0  0  0  0  0
    3.8797    1.8273   19.2461 H   0  0  0  0  0  0  0  0  0  0  0  0
  1  2  1  0
  2  3  2  0
  3  4  1  0
  4  5  1  0
  4  6  2  0
  6  7  1  0
  7  8  1  0
  7  9  1  0
  9 10  2  0
  9 11  1  0
 11 12  1  0
 12 13  1  0
 12 14  1  0
 12 15  1  0
 11 16  1  0
 16 17  1  0
 16 18  1  0
 16 19  1  0
 11 20  1  0
 20 21  1  0
 20 22  1  0
 20 23  1  0
 23 24  1  0
 24 25  1  0
 24 26  1  0
 24 27  1  0
 23 28  1  0
 28 29  1  0
 28 30  1  0
 28 31  1  0
  6 32  1  0
 32 33  1  0
 32 34  2  0
 34 35  1  0
 34  2  1  0
M  END
>  <cnnaffinity>  (1) 
-4.68452

>  <filename>  (1) 
CN(C)CC(C)(C)C(=O)Nc1cccnc1

$$$$
