
     RDKit          3D

 32 33  0  0  0  0  0  0  0  0999 V2000
    4.9073    1.7987   17.0023 H   0  0  0  0  0  0  0  0  0  0  0  0
    5.3858    1.2854   17.8338 C   0  0  0  0  0  0  0  0  0  0  0  0
    6.5379    0.6570   17.5496 N   0  0  0  0  0  0  0  0  0  0  0  0
    7.1777    0.0586   18.5630 C   0  0  0  0  0  0  0  0  0  0  0  0
    8.1260   -0.4241   18.3375 H   0  0  0  0  0  0  0  0  0  0  0  0
    6.7044    0.0367   19.9025 C   0  0  0  0  0  0  0  0  0  0  0  0
    7.3976   -0.6088   20.9931 N   0  0  0  0  0  0  0  0  0  0  0  0
    6.7653   -1.8035   21.5589 C   0  0  0  0  0  0  0  0  0  0  0  0
    6.4824   -2.4961   20.7591 H   0  0  0  0  0  0  0  0  0  0  0  0
    5.8549   -1.5123   22.0895 H   0  0  0  0  0  0  0  0  0  0  0  0
    7.4275   -2.3236   22.2568 H   0  0  0  0  0  0  0  0  0  0  0  0
    9.0039   -0.2695   21.3445 S   0  0  0  0  0  0  0  0  0  0  0  0
    9.6941   -1.5351   21.5111 O   0  0  0  0  0  0  0  0  0  0  0  0
    9.4591    0.7379   20.4045 O   0  0  0  0  0  0  0  0  0  0  0  0
    8.9787    0.5511   22.9282 C   0  0  0  0  0  0  0  0  0  0  0  0
   10.0462    0.7403   23.0858 H   0  0  0  0  0  0  0  0  0  0  0  0
    8.4691    1.4919   22.7214 H   0  0  0  0  0  0  0  0  0  0  0  0
    8.3704   -0.2679   24.0291 C   0  0  0  0  0  0  0  0  0  0  0  0
    9.1168   -1.3268   24.5705 C   0  0  0  0  0  0  0  0  0  0  0  0
   10.1241   -1.4921   24.1953 H   0  0  0  0  0  0  0  0  0  0  0  0
    8.5797   -2.1668   25.5495 C   0  0  0  0  0  0  0  0  0  0  0  0
    9.1814   -2.9754   25.9535 H   0  0  0  0  0  0  0  0  0  0  0  0
    7.2685   -1.9625   25.9983 C   0  0  0  0  0  0  0  0  0  0  0  0
    6.8410   -2.6153   26.7558 H   0  0  0  0  0  0  0  0  0  0  0  0
    6.5049   -0.9187   25.4717 C   0  0  0  0  0  0  0  0  0  0  0  0
    5.4843   -0.7359   25.7927 H   0  0  0  0  0  0  0  0  0  0  0  0
    7.0568   -0.0798   24.4973 C   0  0  0  0  0  0  0  0  0  0  0  0
    6.0465    1.2042   23.8725 Cl  0  0  0  0  0  0  0  0  0  0  0  0
    5.4776    0.6523   20.1621 C   0  0  0  0  0  0  0  0  0  0  0  0
    5.0885    0.6194   21.1818 H   0  0  0  0  0  0  0  0  0  0  0  0
    4.8128    1.3050   19.1099 C   0  0  0  0  0  0  0  0  0  0  0  0
    3.8772    1.8314   19.2684 H   0  0  0  0  0  0  0  0  0  0  0  0
  1  2  1  0
  2  3  2  0
  3  4  1  0
  4  5  1  0
  4  6  2  0
  6  7  1  0
  7  8  1  0
  8  9  1  0
  8 10  1  0
  8 11  1  0
  7 12  1  0
 12 13  2  0
 12 14  2  0
 12 15  1  0
 15 16  1  0
 15 17  1  0
 15 18  1  0
 18 19  2  0
 19 20  1  0
 19 21  1  0
 21 22  1  0
 21 23  2  0
 23 24  1  0
 23 25  1  0
 25 26  1  0
 25 27  2  0
 27 28  1  0
  6 29  1  0
 29 30  1  0
 29 31  2  0
 31 32  1  0
 31  2  1  0
 27 18  1  0
M  END
>  <cnnaffinity>  (1) 
-4.99041

>  <filename>  (1) 
CN(c1cccnc1)S(=O)(=O)Cc1ccccc1Cl

$$$$
