
     RDKit          3D

 32 33  0  0  0  0  0  0  0  0999 V2000
    4.9117    1.7805   16.9975 H   0  0  0  0  0  0  0  0  0  0  0  0
    5.4032    1.2915   17.8401 C   0  0  0  0  0  0  0  0  0  0  0  0
    6.5655    0.6774   17.5853 N   0  0  0  0  0  0  0  0  0  0  0  0
    7.1782    0.0647   18.6059 C   0  0  0  0  0  0  0  0  0  0  0  0
    8.1195   -0.4214   18.3608 H   0  0  0  0  0  0  0  0  0  0  0  0
    6.6904   -0.0174   19.9446 C   0  0  0  0  0  0  0  0  0  0  0  0
    7.3636   -0.7198   20.9421 N   0  0  0  0  0  0  0  0  0  0  0  0
    8.7439   -1.1252   20.7513 C   0  0  0  0  0  0  0  0  0  0  0  0
    8.8217   -1.9141   20.0018 H   0  0  0  0  0  0  0  0  0  0  0  0
    9.1623   -1.5072   21.6833 H   0  0  0  0  0  0  0  0  0  0  0  0
    9.3753   -0.2940   20.4142 H   0  0  0  0  0  0  0  0  0  0  0  0
    6.7472   -0.9995   22.2273 C   0  0  0  0  0  0  0  0  0  0  0  0
    5.7094   -1.2669   22.0307 H   0  0  0  0  0  0  0  0  0  0  0  0
    7.1970   -1.9063   22.6474 H   0  0  0  0  0  0  0  0  0  0  0  0
    6.8665    0.1426   23.2528 C   0  0  0  0  0  0  0  0  0  0  0  0
    6.2758   -0.1062   24.1416 H   0  0  0  0  0  0  0  0  0  0  0  0
    6.4398    1.0565   22.8257 H   0  0  0  0  0  0  0  0  0  0  0  0
    8.3054    0.3939   23.6446 C   0  0  0  0  0  0  0  0  0  0  0  0
    9.0512    1.3857   22.9809 C   0  0  0  0  0  0  0  0  0  0  0  0
    8.5599    1.9843   22.2186 H   0  0  0  0  0  0  0  0  0  0  0  0
   10.3965    1.6152   23.2759 C   0  0  0  0  0  0  0  0  0  0  0  0
   10.9426    2.3988   22.7565 H   0  0  0  0  0  0  0  0  0  0  0  0
   11.0316    0.8357   24.2458 C   0  0  0  0  0  0  0  0  0  0  0  0
   12.0746    1.0062   24.4885 H   0  0  0  0  0  0  0  0  0  0  0  0
   10.3255   -0.1702   24.9081 C   0  0  0  0  0  0  0  0  0  0  0  0
   10.8064   -0.7754   25.6660 H   0  0  0  0  0  0  0  0  0  0  0  0
    8.9806   -0.3880   24.5994 C   0  0  0  0  0  0  0  0  0  0  0  0
    8.1495   -1.6704   25.4459 Cl  0  0  0  0  0  0  0  0  0  0  0  0
    5.4563    0.6387   20.1687 C   0  0  0  0  0  0  0  0  0  0  0  0
    5.0098    0.6278   21.1625 H   0  0  0  0  0  0  0  0  0  0  0  0
    4.8210    1.3022   19.1128 C   0  0  0  0  0  0  0  0  0  0  0  0
    3.8851    1.8338   19.2652 H   0  0  0  0  0  0  0  0  0  0  0  0
  1  2  1  0
  2  3  2  0
  3  4  1  0
  4  5  1  0
  4  6  2  0
  6  7  1  0
  7  8  1  0
  8  9  1  0
  8 10  1  0
  8 11  1  0
  7 12  1  0
 12 13  1  0
 12 14  1  0
 12 15  1  0
 15 16  1  0
 15 17  1  0
 15 18  1  0
 18 19  2  0
 19 20  1  0
 19 21  1  0
 21 22  1  0
 21 23  2  0
 23 24  1  0
 23 25  1  0
 25 26  1  0
 25 27  2  0
 27 28  1  0
  6 29  1  0
 29 30  1  0
 29 31  2  0
 31 32  1  0
 31  2  1  0
 27 18  1  0
M  END
>  <cnnaffinity>  (1) 
-4.83804

>  <filename>  (1) 
CN(CCc1ccccc1Cl)c1cccnc1

$$$$
