
     RDKit          3D

 43 46  0  0  0  0  0  0  0  0999 V2000
    4.9848    1.8464   16.9174 H   0  0  0  0  0  0  0  0  0  0  0  0
    5.3847    1.3138   17.7805 C   0  0  0  0  0  0  0  0  0  0  0  0
    6.5387    0.6559   17.5908 N   0  0  0  0  0  0  0  0  0  0  0  0
    7.0698    0.0249   18.6487 C   0  0  0  0  0  0  0  0  0  0  0  0
    8.0159   -0.4782   18.4509 H   0  0  0  0  0  0  0  0  0  0  0  0
    6.4859   -0.0216   19.9332 C   0  0  0  0  0  0  0  0  0  0  0  0
    7.2302   -0.6423   21.0542 C   0  0  0  0  0  0  0  0  0  0  0  0
    8.5855   -0.5929   21.2913 C   0  0  0  0  0  0  0  0  0  0  0  0
    8.7983   -1.1902   22.5266 C   0  0  0  0  0  0  0  0  0  0  0  0
    7.6804   -1.6402   23.0664 N   0  0  0  0  0  0  0  0  0  0  0  0
    6.7312   -1.2950   22.1536 N   0  0  0  0  0  0  0  0  0  0  0  0
    5.7661   -1.4951   22.3801 H   0  0  0  0  0  0  0  0  0  0  0  0
   10.2375   -1.1476   22.9555 C   0  0  0  0  0  0  0  0  0  0  0  0
   10.6642   -2.1520   23.0453 H   0  0  0  0  0  0  0  0  0  0  0  0
   10.3695   -0.6694   23.9339 H   0  0  0  0  0  0  0  0  0  0  0  0
   10.9267   -0.3137   21.8095 C   0  0  2  0  0  0  0  0  0  0  0  0
   11.7429   -0.9095   21.3862 H   0  0  0  0  0  0  0  0  0  0  0  0
   11.4894    0.9952   22.3297 C   0  0  0  0  0  0  0  0  0  0  0  0
   12.8614    1.2741   22.3108 C   0  0  0  0  0  0  0  0  0  0  0  0
   13.5606    0.5375   21.9206 H   0  0  0  0  0  0  0  0  0  0  0  0
   13.3528    2.4957   22.7689 C   0  0  0  0  0  0  0  0  0  0  0  0
   14.4126    2.7053   22.7170 H   0  0  0  0  0  0  0  0  0  0  0  0
   12.4857    3.4860   23.2821 C   0  0  0  0  0  0  0  0  0  0  0  0
   12.9863    4.7273   23.6604 N   0  0  0  0  0  0  0  0  0  0  0  0
   14.1990    5.2328   23.0396 C   0  0  0  0  0  0  0  0  0  0  0  0
   15.1092    4.9450   23.5879 H   0  0  0  0  0  0  0  0  0  0  0  0
   14.1681    6.3261   22.9772 H   0  0  0  0  0  0  0  0  0  0  0  0
   14.3144    4.8419   22.0202 H   0  0  0  0  0  0  0  0  0  0  0  0
   12.2903    5.5456   24.6362 C   0  0  0  0  0  0  0  0  0  0  0  0
   11.9267    4.9276   25.4666 H   0  0  0  0  0  0  0  0  0  0  0  0
   12.9598    6.3094   25.0515 H   0  0  0  0  0  0  0  0  0  0  0  0
   11.4219    6.0714   24.2124 H   0  0  0  0  0  0  0  0  0  0  0  0
   11.1103    3.1762   23.3630 C   0  0  0  0  0  0  0  0  0  0  0  0
   10.4248    3.8940   23.7939 H   0  0  0  0  0  0  0  0  0  0  0  0
   10.6286    1.9642   22.8687 C   0  0  0  0  0  0  0  0  0  0  0  0
    9.5610    1.7607   22.9017 H   0  0  0  0  0  0  0  0  0  0  0  0
    9.8475   -0.0855   20.6897 C   0  0  0  0  0  0  0  0  0  0  0  0
    9.7805    0.9660   20.3815 H   0  0  0  0  0  0  0  0  0  0  0  0
   10.0841   -0.6454   19.7816 H   0  0  0  0  0  0  0  0  0  0  0  0
    5.2688    0.6644   20.0984 C   0  0  0  0  0  0  0  0  0  0  0  0
    4.7924    0.7103   21.0775 H   0  0  0  0  0  0  0  0  0  0  0  0
    4.7169    1.3396   19.0080 C   0  0  0  0  0  0  0  0  0  0  0  0
    3.8016    1.9128   19.1047 H   0  0  0  0  0  0  0  0  0  0  0  0
  1  2  1  0
  2  3  2  0
  3  4  1  0
  4  5  1  0
  4  6  2  0
  6  7  1  0
  7  8  2  0
  8  9  1  0
  9 10  2  0
 10 11  1  0
 11 12  1  0
  9 13  1  0
 13 14  1  0
 13 15  1  0
 13 16  1  0
 16 17  1  6
 16 18  1  0
 18 19  2  0
 19 20  1  0
 19 21  1  0
 21 22  1  0
 21 23  2  0
 23 24  1  0
 24 25  1  0
 25 26  1  0
 25 27  1  0
 25 28  1  0
 24 29  1  0
 29 30  1  0
 29 31  1  0
 29 32  1  0
 23 33  1  0
 33 34  1  0
 33 35  2  0
 35 36  1  0
 16 37  1  0
 37 38  1  0
 37 39  1  0
  6 40  1  0
 40 41  1  0
 40 42  2  0
 42 43  1  0
 42  2  1  0
 11  7  1  0
 35 18  1  0
 37  8  1  0
M  END
>  <cnnaffinity>  (1) 
-5.83439

>  <filename>  (1) 
CN(C)c1ccc([C@H]2Cc3n[nH]c(-c4cccnc4)c3C2)cc1

$$$$
