
     RDKit          3D

 34 36  0  0  0  0  0  0  0  0999 V2000
    4.9401    1.7747   16.9975 H   0  0  0  0  0  0  0  0  0  0  0  0
    5.4111    1.2843   17.8439 C   0  0  0  0  0  0  0  0  0  0  0  0
    6.5738    0.6621   17.5976 N   0  0  0  0  0  0  0  0  0  0  0  0
    7.1745    0.0506   18.6237 C   0  0  0  0  0  0  0  0  0  0  0  0
    8.1224   -0.4307   18.3889 H   0  0  0  0  0  0  0  0  0  0  0  0
    6.6370    0.0166   19.9208 C   0  0  0  0  0  0  0  0  0  0  0  0
    7.3612   -0.6909   20.9797 C   0  0  0  0  0  0  0  0  0  0  0  0
    8.5501   -1.3194   20.7536 N   0  0  0  0  0  0  0  0  0  0  0  0
    8.8345   -1.7913   21.9469 C   0  0  0  0  0  0  0  0  0  0  0  0
   10.0986   -2.6792   22.7647 S   0  0  0  0  0  0  0  0  0  0  0  0
    9.2017   -2.5712   24.2584 C   0  0  0  0  0  0  0  0  0  0  0  0
    9.6307   -2.9717   25.1638 H   0  0  0  0  0  0  0  0  0  0  0  0
    8.0282   -1.9232   24.1409 C   0  0  0  0  0  0  0  0  0  0  0  0
    7.0822   -1.5377   25.2363 C   0  0  0  0  0  0  0  0  0  0  0  0
    7.2142   -2.2340   26.0729 H   0  0  0  0  0  0  0  0  0  0  0  0
    6.0466   -1.6371   24.8964 H   0  0  0  0  0  0  0  0  0  0  0  0
    7.3017   -0.0997   25.7354 C   0  0  0  0  0  0  0  0  0  0  0  0
    6.5797    0.1359   26.5461 H   0  0  0  0  0  0  0  0  0  0  0  0
    7.0578    0.5727   24.9064 H   0  0  0  0  0  0  0  0  0  0  0  0
    8.6739    0.1562   26.1637 N   0  0  0  0  0  0  0  0  0  0  0  0
    9.0093    1.5696   26.0772 C   0  0  0  0  0  0  0  0  0  0  0  0
    8.9101    1.9173   25.0435 H   0  0  0  0  0  0  0  0  0  0  0  0
    8.3790    2.2117   26.7257 H   0  0  0  0  0  0  0  0  0  0  0  0
   10.0548    1.7234   26.3570 H   0  0  0  0  0  0  0  0  0  0  0  0
    8.9471   -0.3606   27.4966 C   0  0  0  0  0  0  0  0  0  0  0  0
    8.3287    0.1274   28.2752 H   0  0  0  0  0  0  0  0  0  0  0  0
   10.0005   -0.2107   27.7473 H   0  0  0  0  0  0  0  0  0  0  0  0
    8.7624   -1.4364   27.5474 H   0  0  0  0  0  0  0  0  0  0  0  0
    7.8621   -1.4839   22.8293 N   0  0  0  0  0  0  0  0  0  0  0  0
    6.8996   -0.7591   22.2228 N   0  0  0  0  0  0  0  0  0  0  0  0
    5.4147    0.6630   20.1691 C   0  0  0  0  0  0  0  0  0  0  0  0
    4.9841    0.6456   21.1757 H   0  0  0  0  0  0  0  0  0  0  0  0
    4.8020    1.3113   19.1030 C   0  0  0  0  0  0  0  0  0  0  0  0
    3.8726    1.8445   19.2477 H   0  0  0  0  0  0  0  0  0  0  0  0
  1  2  1  0
  2  3  2  0
  3  4  1  0
  4  5  1  0
  4  6  2  0
  6  7  1  0
  7  8  1  0
  8  9  2  0
  9 10  1  0
 10 11  1  0
 11 12  1  0
 11 13  2  0
 13 14  1  0
 14 15  1  0
 14 16  1  0
 14 17  1  0
 17 18  1  0
 17 19  1  0
 17 20  1  0
 20 21  1  0
 21 22  1  0
 21 23  1  0
 21 24  1  0
 20 25  1  0
 25 26  1  0
 25 27  1  0
 25 28  1  0
 13 29  1  0
 29 30  1  0
  6 31  1  0
 31 32  1  0
 31 33  2  0
 33 34  1  0
 33  2  1  0
 30  7  2  0
 29  9  1  0
M  END
>  <cnnaffinity>  (1) 
-5.28476

>  <filename>  (1) 
CN(C)CCc1csc2nc(-c3cccnc3)nn12

$$$$
