
     RDKit          3D

 35 37  0  0  0  0  0  0  0  0999 V2000
    4.9500    1.8139   16.8911 H   0  0  0  0  0  0  0  0  0  0  0  0
    5.4012    1.3361   17.7568 C   0  0  0  0  0  0  0  0  0  0  0  0
    6.5899    0.7490   17.5507 N   0  0  0  0  0  0  0  0  0  0  0  0
    7.1547    0.1322   18.5994 C   0  0  0  0  0  0  0  0  0  0  0  0
    8.1272   -0.3205   18.4141 H   0  0  0  0  0  0  0  0  0  0  0  0
    6.5815    0.0598   19.8947 C   0  0  0  0  0  0  0  0  0  0  0  0
    7.2254   -0.6586   21.0426 C   0  0  0  0  0  0  0  0  0  0  0  0
    7.6835   -2.0192   21.0719 C   0  0  0  0  0  0  0  0  0  0  0  0
    7.4467   -2.7548   20.3153 H   0  0  0  0  0  0  0  0  0  0  0  0
    8.3767   -2.4135   22.1055 N   0  0  0  0  0  0  0  0  0  0  0  0
    8.5062   -1.1606   23.1790 S   0  0  0  0  0  0  0  0  0  0  0  0
    7.5013   -0.0747   22.2580 C   0  0  0  0  0  0  0  0  0  0  0  0
    7.0707    1.1663   22.6912 N   0  0  0  0  0  0  0  0  0  0  0  0
    7.7215    2.3450   22.1314 C   0  0  0  0  0  0  0  0  0  0  0  0
    7.3629    3.2622   22.6175 H   0  0  0  0  0  0  0  0  0  0  0  0
    8.8130    2.2894   22.2529 H   0  0  0  0  0  0  0  0  0  0  0  0
    7.5321    2.4261   21.0527 H   0  0  0  0  0  0  0  0  0  0  0  0
    6.1188    1.2015   23.8110 C   0  0  0  0  0  0  0  0  0  0  0  0
    5.6630    2.1997   23.8350 H   0  0  0  0  0  0  0  0  0  0  0  0
    5.3185    0.4858   23.6063 H   0  0  0  0  0  0  0  0  0  0  0  0
    6.7800    0.9014   25.1409 C   0  0  0  0  0  0  0  0  0  0  0  0
    6.5749   -0.2604   25.9051 C   0  0  0  0  0  0  0  0  0  0  0  0
    5.8298   -1.0096   25.6216 H   0  0  0  0  0  0  0  0  0  0  0  0
    7.3730   -0.4890   27.0371 C   0  0  0  0  0  0  0  0  0  0  0  0
    7.2601   -1.4104   27.5981 H   0  0  0  0  0  0  0  0  0  0  0  0
    8.3299    0.4463   27.4456 C   0  0  0  0  0  0  0  0  0  0  0  0
    8.9423    0.2461   28.3226 H   0  0  0  0  0  0  0  0  0  0  0  0
    8.5114    1.6079   26.6956 C   0  0  0  0  0  0  0  0  0  0  0  0
    9.2474    2.3627   26.9290 H   0  0  0  0  0  0  0  0  0  0  0  0
    7.7429    1.8235   25.5632 C   0  0  0  0  0  0  0  0  0  0  0  0
    7.9196    2.7179   24.9741 H   0  0  0  0  0  0  0  0  0  0  0  0
    5.3642    0.7303   20.0795 C   0  0  0  0  0  0  0  0  0  0  0  0
    4.9171    0.7635   21.0724 H   0  0  0  0  0  0  0  0  0  0  0  0
    4.7511    1.3600   18.9943 C   0  0  0  0  0  0  0  0  0  0  0  0
    3.8052    1.8778   19.1058 H   0  0  0  0  0  0  0  0  0  0  0  0
  1  2  1  0
  2  3  2  0
  3  4  1  0
  4  5  1  0
  4  6  2  0
  6  7  1  0
  7  8  1  0
  8  9  1  0
  8 10  2  0
 10 11  1  0
 11 12  1  0
 12 13  1  0
 13 14  1  0
 14 15  1  0
 14 16  1  0
 14 17  1  0
 13 18  1  0
 18 19  1  0
 18 20  1  0
 18 21  1  0
 21 22  2  0
 22 23  1  0
 22 24  1  0
 24 25  1  0
 24 26  2  0
 26 27  1  0
 26 28  1  0
 28 29  1  0
 28 30  2  0
 30 31  1  0
  6 32  1  0
 32 33  1  0
 32 34  2  0
 34 35  1  0
 34  2  1  0
 12  7  2  0
 30 21  1  0
M  END
>  <cnnaffinity>  (1) 
-4.89687

>  <filename>  (1) 
CN(Cc1ccccc1)c1sncc1-c1cccnc1

$$$$
