
     RDKit          3D

 37 40  0  0  0  0  0  0  0  0999 V2000
    4.9732    1.8001   16.8631 H   0  0  0  0  0  0  0  0  0  0  0  0
    5.4555    1.3372   17.7226 C   0  0  0  0  0  0  0  0  0  0  0  0
    6.6303    0.7317   17.4947 N   0  0  0  0  0  0  0  0  0  0  0  0
    7.2421    0.1419   18.5272 C   0  0  0  0  0  0  0  0  0  0  0  0
    8.1875   -0.3458   18.3015 H   0  0  0  0  0  0  0  0  0  0  0  0
    6.7187    0.1086   19.8336 C   0  0  0  0  0  0  0  0  0  0  0  0
    7.3832   -0.6753   20.8983 C   0  0  0  0  0  0  0  0  0  0  0  0
    8.5939   -1.2279   20.7272 N   0  0  0  0  0  0  0  0  0  0  0  0
    8.7471   -1.9599   21.8535 N   0  0  0  0  0  0  0  0  0  0  0  0
    9.7561   -2.7748   22.3512 C   0  0  0  0  0  0  0  0  0  0  0  0
   10.7205   -2.7968   21.8728 H   0  0  0  0  0  0  0  0  0  0  0  0
    9.2422   -3.3597   23.4623 C   0  0  0  0  0  0  0  0  0  0  0  0
    9.6387   -4.0768   24.1564 H   0  0  0  0  0  0  0  0  0  0  0  0
    7.9466   -2.8969   23.6566 N   0  0  0  0  0  0  0  0  0  0  0  0
    7.1358   -3.3013   24.6973 N   0  0  0  0  0  0  0  0  0  0  0  0
    6.4847   -4.5697   24.6166 C   0  0  0  0  0  0  0  0  0  0  0  0
    5.9779   -5.1653   25.7868 C   0  0  0  0  0  0  0  0  0  0  0  0
    6.1309   -4.6687   26.7409 H   0  0  0  0  0  0  0  0  0  0  0  0
    5.2886   -6.3829   25.7234 C   0  0  0  0  0  0  0  0  0  0  0  0
    4.8860   -6.8256   26.6319 H   0  0  0  0  0  0  0  0  0  0  0  0
    5.0807   -7.0079   24.4908 C   0  0  0  0  0  0  0  0  0  0  0  0
    4.5394   -7.9471   24.4393 H   0  0  0  0  0  0  0  0  0  0  0  0
    5.5823   -6.4212   23.3232 C   0  0  0  0  0  0  0  0  0  0  0  0
    5.4167   -6.8998   22.3613 H   0  0  0  0  0  0  0  0  0  0  0  0
    6.2870   -5.2157   23.3848 C   0  0  0  0  0  0  0  0  0  0  0  0
    6.6961   -4.7453   22.4982 H   0  0  0  0  0  0  0  0  0  0  0  0
    6.4853   -2.2111   25.4390 C   0  0  0  0  0  0  0  0  0  0  0  0
    6.6442   -1.2533   24.9277 H   0  0  0  0  0  0  0  0  0  0  0  0
    5.4017   -2.3714   25.4965 H   0  0  0  0  0  0  0  0  0  0  0  0
    6.8908   -2.1339   26.4548 H   0  0  0  0  0  0  0  0  0  0  0  0
    7.6847   -1.9437   22.6803 C   0  0  0  0  0  0  0  0  0  0  0  0
    6.7997   -1.0126   22.1465 C   0  0  0  0  0  0  0  0  0  0  0  0
    5.9527   -0.5315   22.5894 H   0  0  0  0  0  0  0  0  0  0  0  0
    5.4948    0.7672   20.0516 C   0  0  0  0  0  0  0  0  0  0  0  0
    5.0521    0.8016   21.0463 H   0  0  0  0  0  0  0  0  0  0  0  0
    4.8498    1.3800   18.9811 C   0  0  0  0  0  0  0  0  0  0  0  0
    3.8994    1.8867   19.1093 H   0  0  0  0  0  0  0  0  0  0  0  0
  1  2  1  0
  2  3  2  0
  3  4  1  0
  4  5  1  0
  4  6  2  0
  6  7  1  0
  7  8  2  0
  8  9  1  0
  9 10  1  0
 10 11  1  0
 10 12  2  0
 12 13  1  0
 12 14  1  0
 14 15  1  0
 15 16  1  0
 16 17  2  0
 17 18  1  0
 17 19  1  0
 19 20  1  0
 19 21  2  0
 21 22  1  0
 21 23  1  0
 23 24  1  0
 23 25  2  0
 25 26  1  0
 15 27  1  0
 27 28  1  0
 27 29  1  0
 27 30  1  0
 14 31  1  0
 31 32  2  0
 32 33  1  0
  6 34  1  0
 34 35  1  0
 34 36  2  0
 36 37  1  0
 36  2  1  0
 32  7  1  0
 31  9  1  0
 25 16  1  0
M  END
>  <cnnaffinity>  (1) 
-5.57127

>  <filename>  (1) 
CN(c1ccccc1)n1ccn2nc(-c3cccnc3)cc12

$$$$
