
     RDKit          3D

 40 42  0  0  0  0  0  0  0  0999 V2000
    4.9880    1.8448   17.0404 H   0  0  0  0  0  0  0  0  0  0  0  0
    5.4208    1.2753   17.8617 C   0  0  0  0  0  0  0  0  0  0  0  0
    6.5541    0.6096   17.5924 N   0  0  0  0  0  0  0  0  0  0  0  0
    7.1341   -0.0568   18.5969 C   0  0  0  0  0  0  0  0  0  0  0  0
    8.0881   -0.5256   18.3791 H   0  0  0  0  0  0  0  0  0  0  0  0
    6.5993   -0.1309   19.8964 C   0  0  0  0  0  0  0  0  0  0  0  0
    7.2880   -0.8138   20.9431 N   0  0  0  0  0  0  0  0  0  0  0  0
    6.5081   -1.7013   21.6563 N   0  0  0  0  0  0  0  0  0  0  0  0
    7.0742   -2.3669   22.6412 C   0  0  0  0  0  0  0  0  0  0  0  0
    6.3331   -3.2871   23.3245 N   0  0  0  0  0  0  0  0  0  0  0  0
    5.0272   -3.7397   22.8606 C   0  0  0  0  0  0  0  0  0  0  0  0
    5.0542   -3.9664   21.7869 H   0  0  0  0  0  0  0  0  0  0  0  0
    4.2720   -2.9653   22.9991 H   0  0  0  0  0  0  0  0  0  0  0  0
    4.7220   -4.9415   23.7532 C   0  0  0  0  0  0  0  0  0  0  0  0
    5.0342   -5.8743   23.2767 H   0  0  0  0  0  0  0  0  0  0  0  0
    3.6579   -5.0223   23.9945 H   0  0  0  0  0  0  0  0  0  0  0  0
    5.5690   -4.7454   25.0178 C   0  0  1  0  0  0  0  0  0  0  0  0
    5.0697   -3.9907   25.6608 H   0  0  0  0  0  0  0  0  0  0  0  0
    5.7972   -6.0102   25.7208 N   0  0  0  0  0  0  0  0  0  0  0  0
    6.7436   -5.9126   26.8251 C   0  0  0  0  0  0  0  0  0  0  0  0
    7.7180   -5.5691   26.4610 H   0  0  0  0  0  0  0  0  0  0  0  0
    6.4261   -5.2433   27.6477 H   0  0  0  0  0  0  0  0  0  0  0  0
    6.8988   -6.9053   27.2554 H   0  0  0  0  0  0  0  0  0  0  0  0
    4.5535   -6.6640   26.1150 C   0  0  0  0  0  0  0  0  0  0  0  0
    3.9258   -6.8437   25.2367 H   0  0  0  0  0  0  0  0  0  0  0  0
    3.9526   -6.0971   26.8517 H   0  0  0  0  0  0  0  0  0  0  0  0
    4.7724   -7.6426   26.5490 H   0  0  0  0  0  0  0  0  0  0  0  0
    6.8293   -4.0594   24.4583 C   0  0  0  0  0  0  0  0  0  0  0  0
    7.2897   -3.4127   25.2175 H   0  0  0  0  0  0  0  0  0  0  0  0
    7.5798   -4.8002   24.1398 H   0  0  0  0  0  0  0  0  0  0  0  0
    8.4607   -2.1604   23.0034 C   0  0  0  0  0  0  0  0  0  0  0  0
    8.8653   -2.7570   23.8115 H   0  0  0  0  0  0  0  0  0  0  0  0
    9.2092   -1.2596   22.3293 C   0  0  0  0  0  0  0  0  0  0  0  0
   10.2501   -1.0530   22.5467 H   0  0  0  0  0  0  0  0  0  0  0  0
    8.6611   -0.4819   21.2226 C   0  0  0  0  0  0  0  0  0  0  0  0
    9.2906    0.3476   20.5844 O   0  0  0  0  0  0  0  0  0  0  0  0
    5.3947    0.5256   20.1614 C   0  0  0  0  0  0  0  0  0  0  0  0
    4.9630    0.4582   21.1615 H   0  0  0  0  0  0  0  0  0  0  0  0
    4.8146    1.2638   19.1251 C   0  0  0  0  0  0  0  0  0  0  0  0
    3.9110    1.8360   19.2842 H   0  0  0  0  0  0  0  0  0  0  0  0
  1  2  1  0
  2  3  2  0
  3  4  1  0
  4  5  1  0
  4  6  2  0
  6  7  1  0
  7  8  1  0
  8  9  2  0
  9 10  1  0
 10 11  1  0
 11 12  1  0
 11 13  1  0
 11 14  1  0
 14 15  1  0
 14 16  1  0
 14 17  1  0
 17 18  1  1
 17 19  1  0
 19 20  1  0
 20 21  1  0
 20 22  1  0
 20 23  1  0
 19 24  1  0
 24 25  1  0
 24 26  1  0
 24 27  1  0
 17 28  1  0
 28 29  1  0
 28 30  1  0
  9 31  1  0
 31 32  1  0
 31 33  2  0
 33 34  1  0
 33 35  1  0
 35 36  2  0
  6 37  1  0
 37 38  1  0
 37 39  2  0
 39 40  1  0
 39  2  1  0
 35  7  1  0
 28 10  1  0
M  END
>  <cnnaffinity>  (1) 
-5.19696

>  <filename>  (1) 
CN(C)[C@@H]1CCN(c2ccc(=O)n(-c3cccnc3)n2)C1

$$$$
