
     RDKit          3D

 38 40  0  0  0  0  0  0  0  0999 V2000
    4.9115    1.8002   16.9777 H   0  0  0  0  0  0  0  0  0  0  0  0
    5.3877    1.3061   17.8182 C   0  0  0  0  0  0  0  0  0  0  0  0
    6.5520    0.6909   17.5492 N   0  0  0  0  0  0  0  0  0  0  0  0
    7.1572    0.0657   18.5649 C   0  0  0  0  0  0  0  0  0  0  0  0
    8.1139   -0.3983   18.3320 H   0  0  0  0  0  0  0  0  0  0  0  0
    6.6503    0.0140   19.8821 C   0  0  0  0  0  0  0  0  0  0  0  0
    7.3698   -0.6549   20.9759 C   0  0  0  0  0  0  0  0  0  0  0  0
    7.5157   -0.3214   22.3198 C   0  0  0  0  0  0  0  0  0  0  0  0
    7.0259    0.8360   22.9362 N   0  0  0  0  0  0  0  0  0  0  0  0
    6.9852    1.6408   22.3324 H   0  0  0  0  0  0  0  0  0  0  0  0
    6.8197    1.0351   24.3040 C   0  0  0  0  0  0  0  0  0  0  0  0
    6.3555   -0.0059   25.1181 C   0  0  0  0  0  0  0  0  0  0  0  0
    6.1760   -0.9613   24.6398 H   0  0  0  0  0  0  0  0  0  0  0  0
    6.1389    0.1823   26.4780 C   0  0  0  0  0  0  0  0  0  0  0  0
    5.7906   -0.6470   27.0772 H   0  0  0  0  0  0  0  0  0  0  0  0
    6.3738    1.4317   27.0957 C   0  0  0  0  0  0  0  0  0  0  0  0
    6.1502    1.6190   28.4549 N   0  0  0  0  0  0  0  0  0  0  0  0
    6.7681    2.7305   29.1563 C   0  0  0  0  0  0  0  0  0  0  0  0
    6.3274    3.7076   28.9048 H   0  0  0  0  0  0  0  0  0  0  0  0
    7.8407    2.7883   28.9354 H   0  0  0  0  0  0  0  0  0  0  0  0
    6.6629    2.5938   30.2379 H   0  0  0  0  0  0  0  0  0  0  0  0
    5.3099    0.6961   29.2018 C   0  0  0  0  0  0  0  0  0  0  0  0
    4.3500    0.5311   28.6946 H   0  0  0  0  0  0  0  0  0  0  0  0
    5.0894    1.1158   30.1890 H   0  0  0  0  0  0  0  0  0  0  0  0
    5.7698   -0.2916   29.3624 H   0  0  0  0  0  0  0  0  0  0  0  0
    6.8357    2.4807   26.2619 C   0  0  0  0  0  0  0  0  0  0  0  0
    7.0108    3.4530   26.7026 H   0  0  0  0  0  0  0  0  0  0  0  0
    7.0395    2.2873   24.8947 C   0  0  0  0  0  0  0  0  0  0  0  0
    7.3941    3.1049   24.2740 H   0  0  0  0  0  0  0  0  0  0  0  0
    8.2885   -1.3757   22.8649 C   0  0  0  0  0  0  0  0  0  0  0  0
    8.6238   -1.4691   23.8863 H   0  0  0  0  0  0  0  0  0  0  0  0
    8.6033   -2.2896   21.9538 N   0  0  0  0  0  0  0  0  0  0  0  0
    8.0483   -1.8239   20.8256 N   0  0  0  0  0  0  0  0  0  0  0  0
    8.1328   -2.3629   19.9810 H   0  0  0  0  0  0  0  0  0  0  0  0
    5.4319    0.6622   20.1404 C   0  0  0  0  0  0  0  0  0  0  0  0
    5.0184    0.6256   21.1507 H   0  0  0  0  0  0  0  0  0  0  0  0
    4.7936    1.3192   19.0878 C   0  0  0  0  0  0  0  0  0  0  0  0
    3.8635    1.8493   19.2438 H   0  0  0  0  0  0  0  0  0  0  0  0
  1  2  1  0
  2  3  2  0
  3  4  1  0
  4  5  1  0
  4  6  2  0
  6  7  1  0
  7  8  2  0
  8  9  1  0
  9 10  1  0
  9 11  1  0
 11 12  2  0
 12 13  1  0
 12 14  1  0
 14 15  1  0
 14 16  2  0
 16 17  1  0
 17 18  1  0
 18 19  1  0
 18 20  1  0
 18 21  1  0
 17 22  1  0
 22 23  1  0
 22 24  1  0
 22 25  1  0
 16 26  1  0
 26 27  1  0
 26 28  2  0
 28 29  1  0
  8 30  1  0
 30 31  1  0
 30 32  2  0
 32 33  1  0
 33 34  1  0
  6 35  1  0
 35 36  1  0
 35 37  2  0
 37 38  1  0
 37  2  1  0
 33  7  1  0
 28 11  1  0
M  END
>  <cnnaffinity>  (1) 
-5.39114

>  <filename>  (1) 
CN(C)c1ccc(Nc2cn[nH]c2-c2cccnc2)cc1

$$$$
