
     RDKit          3D

 36 38  0  0  0  0  0  0  0  0999 V2000
    4.9624    1.7943   16.9885 H   0  0  0  0  0  0  0  0  0  0  0  0
    5.4153    1.2869   17.8376 C   0  0  0  0  0  0  0  0  0  0  0  0
    6.5765    0.6554   17.6019 N   0  0  0  0  0  0  0  0  0  0  0  0
    7.1703    0.0405   18.6284 C   0  0  0  0  0  0  0  0  0  0  0  0
    8.1213   -0.4451   18.4024 H   0  0  0  0  0  0  0  0  0  0  0  0
    6.6390    0.0052   19.9276 C   0  0  0  0  0  0  0  0  0  0  0  0
    7.3492   -0.6915   21.0190 C   0  0  0  0  0  0  0  0  0  0  0  0
    6.8808   -0.7421   22.2206 N   0  0  0  0  0  0  0  0  0  0  0  0
    7.7456   -1.4473   23.0061 N   0  0  0  0  0  0  0  0  0  0  0  0
    7.7740   -1.8122   24.3439 C   0  0  0  0  0  0  0  0  0  0  0  0
    6.8288   -1.3988   25.2595 N   0  0  0  0  0  0  0  0  0  0  0  0
    6.0269   -0.9225   24.8594 H   0  0  0  0  0  0  0  0  0  0  0  0
    6.7986   -1.9590   26.6089 C   0  0  0  0  0  0  0  0  0  0  0  0
    6.1587   -1.3271   27.2360 H   0  0  0  0  0  0  0  0  0  0  0  0
    7.8101   -1.8805   27.0284 H   0  0  0  0  0  0  0  0  0  0  0  0
    6.3585   -3.4494   26.6610 C   0  0  0  0  0  0  0  0  0  0  0  0
    7.0310   -3.9787   25.9731 H   0  0  0  0  0  0  0  0  0  0  0  0
    5.3486   -3.5228   26.2170 H   0  0  0  0  0  0  0  0  0  0  0  0
    6.4342   -4.0679   27.9857 N   0  0  0  0  0  0  0  0  0  0  0  0
    5.3973   -3.6762   28.9246 C   0  0  0  0  0  0  0  0  0  0  0  0
    4.3919   -4.0616   28.6927 H   0  0  0  0  0  0  0  0  0  0  0  0
    5.6570   -4.0369   29.9291 H   0  0  0  0  0  0  0  0  0  0  0  0
    5.3298   -2.5822   28.9761 H   0  0  0  0  0  0  0  0  0  0  0  0
    6.7653   -5.4831   28.0398 C   0  0  0  0  0  0  0  0  0  0  0  0
    6.9711   -5.7724   29.0791 H   0  0  0  0  0  0  0  0  0  0  0  0
    7.6807   -5.6880   27.4732 H   0  0  0  0  0  0  0  0  0  0  0  0
    5.9846   -6.1719   27.6686 H   0  0  0  0  0  0  0  0  0  0  0  0
    8.9316   -2.5579   24.4506 C   0  0  0  0  0  0  0  0  0  0  0  0
    9.2971   -3.0269   25.3536 H   0  0  0  0  0  0  0  0  0  0  0  0
    9.6156   -2.6585   23.2484 N   0  0  0  0  0  0  0  0  0  0  0  0
    8.8654   -1.9699   22.4295 C   0  0  0  0  0  0  0  0  0  0  0  0
    8.9035   -1.5148   20.7585 S   0  0  0  0  0  0  0  0  0  0  0  0
    5.4155    0.6655   20.1565 C   0  0  0  0  0  0  0  0  0  0  0  0
    4.9718    0.6711   21.1515 H   0  0  0  0  0  0  0  0  0  0  0  0
    4.7944    1.3142   19.0909 C   0  0  0  0  0  0  0  0  0  0  0  0
    3.8583    1.8532   19.2185 H   0  0  0  0  0  0  0  0  0  0  0  0
  1  2  1  0
  2  3  2  0
  3  4  1  0
  4  5  1  0
  4  6  2  0
  6  7  1  0
  7  8  2  0
  8  9  1  0
  9 10  1  0
 10 11  1  0
 11 12  1  0
 11 13  1  0
 13 14  1  0
 13 15  1  0
 13 16  1  0
 16 17  1  0
 16 18  1  0
 16 19  1  0
 19 20  1  0
 20 21  1  0
 20 22  1  0
 20 23  1  0
 19 24  1  0
 24 25  1  0
 24 26  1  0
 24 27  1  0
 10 28  2  0
 28 29  1  0
 28 30  1  0
 30 31  2  0
 31 32  1  0
  6 33  1  0
 33 34  1  0
 33 35  2  0
 35 36  1  0
 35  2  1  0
 32  7  1  0
 31  9  1  0
M  END
>  <cnnaffinity>  (1) 
-4.72596

>  <filename>  (1) 
CN(C)CCNc1cnc2sc(-c3cccnc3)nn12

$$$$
