
     RDKit          3D

 37 39  0  0  0  0  0  0  0  0999 V2000
    5.0345    1.7158   16.6331 H   0  0  0  0  0  0  0  0  0  0  0  0
    5.3767    1.3175   17.5855 C   0  0  0  0  0  0  0  0  0  0  0  0
    6.5581    0.6841   17.5636 N   0  0  0  0  0  0  0  0  0  0  0  0
    7.0119    0.2071   18.7236 C   0  0  0  0  0  0  0  0  0  0  0  0
    7.9727   -0.3030   18.7052 H   0  0  0  0  0  0  0  0  0  0  0  0
    6.3162    0.3276   19.9343 C   0  0  0  0  0  0  0  0  0  0  0  0
    6.9623   -0.2461   21.1030 C   0  0  0  0  0  0  0  0  0  0  0  0
    6.4634   -0.2244   22.3635 N   0  0  0  0  0  0  0  0  0  0  0  0
    7.4019   -0.8735   23.0322 C   0  0  0  0  0  0  0  0  0  0  0  0
    7.7152   -1.4917   24.6339 S   0  0  0  0  0  0  0  0  0  0  0  0
    9.2314   -2.1993   24.0626 C   0  0  0  0  0  0  0  0  0  0  0  0
    9.8517   -2.7514   24.7573 H   0  0  0  0  0  0  0  0  0  0  0  0
    9.4576   -1.9637   22.7500 C   0  0  0  0  0  0  0  0  0  0  0  0
   10.5892   -2.2462   21.8060 C   0  0  0  0  0  0  0  0  0  0  0  0
   11.2146   -3.0373   22.2262 H   0  0  0  0  0  0  0  0  0  0  0  0
   10.1461   -2.6055   20.8691 H   0  0  0  0  0  0  0  0  0  0  0  0
   11.4224   -0.9959   21.4803 C   0  0  0  0  0  0  0  0  0  0  0  0
   10.7233   -0.2026   21.1945 H   0  0  0  0  0  0  0  0  0  0  0  0
   12.0666   -1.1760   20.6129 H   0  0  0  0  0  0  0  0  0  0  0  0
   12.3220   -0.5859   22.6384 C   0  0  0  0  0  0  0  0  0  0  0  0
   11.7253   -0.4697   23.5669 H   0  0  0  0  0  0  0  0  0  0  0  0
   13.0127   -1.4246   22.7979 H   0  0  0  0  0  0  0  0  0  0  0  0
   13.1258    0.5965   22.3595 N   0  0  0  0  0  0  0  0  0  0  0  0
   12.3168    1.8035   22.2740 C   0  0  0  0  0  0  0  0  0  0  0  0
   11.6925    1.7544   21.3741 H   0  0  0  0  0  0  0  0  0  0  0  0
   12.9550    2.6909   22.1865 H   0  0  0  0  0  0  0  0  0  0  0  0
   11.6485    1.9417   23.1484 H   0  0  0  0  0  0  0  0  0  0  0  0
   14.2393    0.7235   23.2828 C   0  0  0  0  0  0  0  0  0  0  0  0
   13.9457    0.9327   24.3305 H   0  0  0  0  0  0  0  0  0  0  0  0
   14.8066   -0.2117   23.2898 H   0  0  0  0  0  0  0  0  0  0  0  0
   14.9207    1.5072   22.9349 H   0  0  0  0  0  0  0  0  0  0  0  0
    8.4016   -1.2377   22.2139 N   0  0  0  0  0  0  0  0  0  0  0  0
    8.1423   -0.8425   20.9544 N   0  0  0  0  0  0  0  0  0  0  0  0
    5.0779    0.9797   19.9542 C   0  0  0  0  0  0  0  0  0  0  0  0
    4.5208    1.0961   20.8882 H   0  0  0  0  0  0  0  0  0  0  0  0
    4.6032    1.4765   18.7420 C   0  0  0  0  0  0  0  0  0  0  0  0
    3.6551    1.9986   18.6763 H   0  0  0  0  0  0  0  0  0  0  0  0
  1  2  1  0
  2  3  2  0
  3  4  1  0
  4  5  1  0
  4  6  2  0
  6  7  1  0
  7  8  1  0
  8  9  2  0
  9 10  1  0
 10 11  1  0
 11 12  1  0
 11 13  2  0
 13 14  1  0
 14 15  1  0
 14 16  1  0
 14 17  1  0
 17 18  1  0
 17 19  1  0
 17 20  1  0
 20 21  1  0
 20 22  1  0
 20 23  1  0
 23 24  1  0
 24 25  1  0
 24 26  1  0
 24 27  1  0
 23 28  1  0
 28 29  1  0
 28 30  1  0
 28 31  1  0
 13 32  1  0
 32 33  1  0
  6 34  1  0
 34 35  1  0
 34 36  2  0
 36 37  1  0
 36  2  1  0
 33  7  2  0
 32  9  1  0
M  END
>  <cnnaffinity>  (1) 
-5.36501

>  <filename>  (1) 
CN(C)CCCc1csc2nc(-c3cccnc3)nn12

$$$$
