
     RDKit          3D

 40 43  0  0  0  0  0  0  0  0999 V2000
    4.9924    1.8522   16.8771 H   0  0  0  0  0  0  0  0  0  0  0  0
    5.4226    1.3006   17.7128 C   0  0  0  0  0  0  0  0  0  0  0  0
    6.5658    0.6390   17.4760 N   0  0  0  0  0  0  0  0  0  0  0  0
    7.1377   -0.0093   18.4964 C   0  0  0  0  0  0  0  0  0  0  0  0
    8.0640   -0.5305   18.2657 H   0  0  0  0  0  0  0  0  0  0  0  0
    6.6090   -0.0333   19.7990 C   0  0  0  0  0  0  0  0  0  0  0  0
    7.3689   -0.6322   20.9114 C   0  0  0  0  0  0  0  0  0  0  0  0
    8.5041   -1.3152   20.6981 N   0  0  0  0  0  0  0  0  0  0  0  0
    8.9267   -1.5865   21.9470 N   0  0  0  0  0  0  0  0  0  0  0  0
   10.0397   -2.2076   22.4902 C   0  0  0  0  0  0  0  0  0  0  0  0
   10.7869   -2.6689   21.8697 H   0  0  0  0  0  0  0  0  0  0  0  0
    9.9086   -2.0783   23.8323 C   0  0  0  0  0  0  0  0  0  0  0  0
   10.5257   -2.4311   24.6376 H   0  0  0  0  0  0  0  0  0  0  0  0
    8.7359   -1.3875   24.1277 N   0  0  0  0  0  0  0  0  0  0  0  0
    8.2740   -0.9959   25.4047 C   0  0  0  0  0  0  0  0  0  0  0  0
    9.1649   -0.6530   26.4331 C   0  0  0  0  0  0  0  0  0  0  0  0
   10.2399   -0.7032   26.2750 H   0  0  0  0  0  0  0  0  0  0  0  0
    8.6885   -0.1946   27.6586 C   0  0  0  0  0  0  0  0  0  0  0  0
    9.3928   -0.0107   28.4584 H   0  0  0  0  0  0  0  0  0  0  0  0
    7.3085    0.0201   27.8907 C   0  0  0  0  0  0  0  0  0  0  0  0
    6.8450    0.5969   29.0679 N   0  0  0  0  0  0  0  0  0  0  0  0
    5.4918    1.1348   29.1177 C   0  0  0  0  0  0  0  0  0  0  0  0
    5.2521    1.7381   28.2296 H   0  0  0  0  0  0  0  0  0  0  0  0
    4.7298    0.3464   29.1892 H   0  0  0  0  0  0  0  0  0  0  0  0
    5.3748    1.7820   29.9912 H   0  0  0  0  0  0  0  0  0  0  0  0
    7.8067    1.0025   30.0848 C   0  0  0  0  0  0  0  0  0  0  0  0
    8.4744    0.1727   30.3515 H   0  0  0  0  0  0  0  0  0  0  0  0
    8.4362    1.8435   29.7523 H   0  0  0  0  0  0  0  0  0  0  0  0
    7.2830    1.3029   30.9979 H   0  0  0  0  0  0  0  0  0  0  0  0
    6.4256   -0.3820   26.8597 C   0  0  0  0  0  0  0  0  0  0  0  0
    5.3623   -0.2413   26.9994 H   0  0  0  0  0  0  0  0  0  0  0  0
    6.8954   -0.8980   25.6549 C   0  0  0  0  0  0  0  0  0  0  0  0
    6.1990   -1.2061   24.8771 H   0  0  0  0  0  0  0  0  0  0  0  0
    8.1268   -1.0984   22.9160 C   0  0  0  0  0  0  0  0  0  0  0  0
    7.0598   -0.4834   22.2850 C   0  0  0  0  0  0  0  0  0  0  0  0
    6.1886   -0.0201   22.7095 H   0  0  0  0  0  0  0  0  0  0  0  0
    5.3863    0.6238   20.0140 C   0  0  0  0  0  0  0  0  0  0  0  0
    4.9126    0.6046   20.9956 H   0  0  0  0  0  0  0  0  0  0  0  0
    4.7889    1.3078   18.9595 C   0  0  0  0  0  0  0  0  0  0  0  0
    3.8679    1.8638   19.1010 H   0  0  0  0  0  0  0  0  0  0  0  0
  1  2  1  0
  2  3  2  0
  3  4  1  0
  4  5  1  0
  4  6  2  0
  6  7  1  0
  7  8  2  0
  8  9  1  0
  9 10  1  0
 10 11  1  0
 10 12  2  0
 12 13  1  0
 12 14  1  0
 14 15  1  0
 15 16  2  0
 16 17  1  0
 16 18  1  0
 18 19  1  0
 18 20  2  0
 20 21  1  0
 21 22  1  0
 22 23  1  0
 22 24  1  0
 22 25  1  0
 21 26  1  0
 26 27  1  0
 26 28  1  0
 26 29  1  0
 20 30  1  0
 30 31  1  0
 30 32  2  0
 32 33  1  0
 14 34  1  0
 34 35  2  0
 35 36  1  0
  6 37  1  0
 37 38  1  0
 37 39  2  0
 39 40  1  0
 39  2  1  0
 35  7  1  0
 34  9  1  0
 32 15  1  0
M  END
>  <cnnaffinity>  (1) 
-5.37084

>  <filename>  (1) 
CN(C)c1ccc(-n2ccn3nc(-c4cccnc4)cc23)cc1

$$$$
