
     RDKit          3D

 36 37  0  0  0  0  0  0  0  0999 V2000
    5.2202    2.0193   16.8979 H   0  0  0  0  0  0  0  0  0  0  0  0
    5.5558    1.4481   17.7613 C   0  0  0  0  0  0  0  0  0  0  0  0
    6.6489    0.6890   17.5833 N   0  0  0  0  0  0  0  0  0  0  0  0
    7.0962   -0.0112   18.6339 C   0  0  0  0  0  0  0  0  0  0  0  0
    7.9950   -0.6087   18.4843 H   0  0  0  0  0  0  0  0  0  0  0  0
    6.4804   -0.0113   19.9083 C   0  0  0  0  0  0  0  0  0  0  0  0
    7.0402   -0.6945   21.0271 N   0  0  0  0  0  0  0  0  0  0  0  0
    7.0773   -2.1532   21.1548 C   0  0  0  0  0  0  0  0  0  0  0  0
    7.9863   -2.5938   21.8730 O   0  0  0  0  0  0  0  0  0  0  0  0
    6.1869   -2.8491   20.4981 N   0  0  0  0  0  0  0  0  0  0  0  0
    5.6039   -2.1604   20.0472 H   0  0  0  0  0  0  0  0  0  0  0  0
    7.1600   -5.4403   20.9658 C   0  0  0  0  0  0  0  0  0  0  0  0
    7.6258   -6.6163   20.6530 H   0  0  0  0  0  0  0  0  0  0  0  0
    7.6365   -4.7234   20.2114 H   0  0  0  0  0  0  0  0  0  0  0  0
    6.9497   -5.6417   21.2267 C   0  0  0  0  0  0  0  0  0  0  0  0
    7.6377   -5.3259   22.6728 C   0  0  0  0  0  0  0  0  0  0  0  0
    8.2079   -4.4168   22.8839 H   0  0  0  0  0  0  0  0  0  0  0  0
    6.6980   -5.7484   23.5866 C   0  0  0  0  0  0  0  0  0  0  0  0
    6.9528   -5.6866   24.6438 H   0  0  0  0  0  0  0  0  0  0  0  0
    5.3849   -6.2100   23.2624 C   0  0  0  0  0  0  0  0  0  0  0  0
    4.5442   -6.7724   24.3952 C   0  0  0  0  0  0  0  0  0  0  0  0
    5.0399   -6.5171   25.6235 F   0  0  0  0  0  0  0  0  0  0  0  0
    4.4282   -8.1162   24.3102 F   0  0  0  0  0  0  0  0  0  0  0  0
    3.2820   -6.2872   24.3819 F   0  0  0  0  0  0  0  0  0  0  0  0
    4.7652   -6.1478   21.9668 C   0  0  0  0  0  0  0  0  0  0  0  0
    3.7137   -6.4252   21.8655 H   0  0  0  0  0  0  0  0  0  0  0  0
    5.4750   -5.7400   20.8915 C   0  0  0  0  0  0  0  0  0  0  0  0
    5.0611   -5.8308   19.8922 H   0  0  0  0  0  0  0  0  0  0  0  0
    7.7420    0.0905   22.0311 C   0  0  0  0  0  0  0  0  0  0  0  0
    7.9252    1.0940   21.6350 H   0  0  0  0  0  0  0  0  0  0  0  0
    8.6989   -0.3850   22.2688 H   0  0  0  0  0  0  0  0  0  0  0  0
    7.1718    0.1798   22.9666 H   0  0  0  0  0  0  0  0  0  0  0  0
    5.3477    0.7936   20.0711 C   0  0  0  0  0  0  0  0  0  0  0  0
    4.8785    0.8483   21.0536 H   0  0  0  0  0  0  0  0  0  0  0  0
    4.8702    1.5247   18.9775 C   0  0  0  0  0  0  0  0  0  0  0  0
    4.0017    2.1688   19.0609 H   0  0  0  0  0  0  0  0  0  0  0  0
  1  2  1  0
  2  3  2  0
  3  4  1  0
  4  5  1  0
  4  6  2  0
  6  7  1  0
  7  8  1  0
  8  9  2  0
  8 10  1  0
 10 11  1  0
 10 12  1  0
 12 13  1  0
 12 14  1  0
 12 15  1  0
 15 16  2  0
 16 17  1  0
 16 18  1  0
 18 19  1  0
 18 20  2  0
 20 21  1  0
 21 22  1  0
 21 23  1  0
 21 24  1  0
 20 25  1  0
 25 26  1  0
 25 27  2  0
 27 28  1  0
  7 29  1  0
 29 30  1  0
 29 31  1  0
 29 32  1  0
  6 33  1  0
 33 34  1  0
 33 35  2  0
 35 36  1  0
 35  2  1  0
 27 15  1  0
M  END
>  <cnnaffinity>  (1) 
-4.33705

>  <filename>  (1) 
CN(C(=O)NCc1ccc(C(F)(F)F)cc1)c1cccnc1

$$$$
