
     RDKit          3D

 37 38  0  0  0  0  0  0  0  0999 V2000
    4.9086    1.8368   16.9658 H   0  0  0  0  0  0  0  0  0  0  0  0
    5.3690    1.3104   17.8005 C   0  0  0  0  0  0  0  0  0  0  0  0
    6.5242    0.6819   17.5381 N   0  0  0  0  0  0  0  0  0  0  0  0
    7.1347    0.0638   18.5595 C   0  0  0  0  0  0  0  0  0  0  0  0
    8.0916   -0.4021   18.3344 H   0  0  0  0  0  0  0  0  0  0  0  0
    6.6263   -0.0100   19.8845 C   0  0  0  0  0  0  0  0  0  0  0  0
    7.3388   -0.7312   20.9958 C   0  0  0  0  0  0  0  0  0  0  0  0
    6.7105   -1.6320   21.8043 C   0  0  0  0  0  0  0  0  0  0  0  0
    5.6477   -1.8655   21.7092 H   0  0  0  0  0  0  0  0  0  0  0  0
    7.3610   -2.3532   22.8021 N   0  0  0  0  0  0  0  0  0  0  0  0
    6.6485   -3.3885   23.4804 N   0  0  0  0  0  0  0  0  0  0  0  0
    5.7779   -3.5939   22.9978 H   0  0  0  0  0  0  0  0  0  0  0  0
    6.5228   -3.1772   24.9335 C   0  0  0  0  0  0  0  0  0  0  0  0
    7.5004   -3.3998   25.3714 H   0  0  0  0  0  0  0  0  0  0  0  0
    5.8265   -3.9341   25.3080 H   0  0  0  0  0  0  0  0  0  0  0  0
    6.1028   -1.7733   25.4286 C   0  0  0  0  0  0  0  0  0  0  0  0
    6.8577   -1.0584   25.0802 H   0  0  0  0  0  0  0  0  0  0  0  0
    5.1455   -1.4611   24.9680 H   0  0  0  0  0  0  0  0  0  0  0  0
    6.0348   -1.7041   26.9007 N   0  0  0  0  0  0  0  0  0  0  0  0
    6.3356   -0.3739   27.4213 C   0  0  0  0  0  0  0  0  0  0  0  0
    7.3482   -0.0731   27.1298 H   0  0  0  0  0  0  0  0  0  0  0  0
    5.6296    0.4081   27.0773 H   0  0  0  0  0  0  0  0  0  0  0  0
    6.3098   -0.3806   28.5182 H   0  0  0  0  0  0  0  0  0  0  0  0
    4.7758   -2.1951   27.4457 C   0  0  0  0  0  0  0  0  0  0  0  0
    4.5908   -3.2276   27.1335 H   0  0  0  0  0  0  0  0  0  0  0  0
    3.9035   -1.5827   27.1433 H   0  0  0  0  0  0  0  0  0  0  0  0
    4.8193   -2.1974   28.5416 H   0  0  0  0  0  0  0  0  0  0  0  0
    8.7350   -2.1516   23.0654 C   0  0  0  0  0  0  0  0  0  0  0  0
    9.3938   -2.7048   23.9220 O   0  0  0  0  0  0  0  0  0  0  0  0
    9.3264   -1.2236   22.2678 N   0  0  0  0  0  0  0  0  0  0  0  0
   10.2949   -1.0663   22.4693 H   0  0  0  0  0  0  0  0  0  0  0  0
    8.7819   -0.4708   21.2533 C   0  0  0  0  0  0  0  0  0  0  0  0
    9.5123    0.3121   20.6793 O   0  0  0  0  0  0  0  0  0  0  0  0
    5.4023    0.6458   20.1113 C   0  0  0  0  0  0  0  0  0  0  0  0
    4.9756    0.6574   21.1132 H   0  0  0  0  0  0  0  0  0  0  0  0
    4.7684    1.3225   19.0631 C   0  0  0  0  0  0  0  0  0  0  0  0
    3.8449    1.8749   19.2138 H   0  0  0  0  0  0  0  0  0  0  0  0
  1  2  1  0
  2  3  2  0
  3  4  1  0
  4  5  1  0
  4  6  2  0
  6  7  1  0
  7  8  2  0
  8  9  1  0
  8 10  1  0
 10 11  1  0
 11 12  1  0
 11 13  1  0
 13 14  1  0
 13 15  1  0
 13 16  1  0
 16 17  1  0
 16 18  1  0
 16 19  1  0
 19 20  1  0
 20 21  1  0
 20 22  1  0
 20 23  1  0
 19 24  1  0
 24 25  1  0
 24 26  1  0
 24 27  1  0
 10 28  1  0
 28 29  2  0
 28 30  1  0
 30 31  1  0
 30 32  1  0
 32 33  2  0
  6 34  1  0
 34 35  1  0
 34 36  2  0
 36 37  1  0
 36  2  1  0
 32  7  1  0
M  END
>  <cnnaffinity>  (1) 
-4.87697

>  <filename>  (1) 
CN(C)CCNn1cc(-c2cccnc2)c(=O)[nH]c1=O

$$$$
