
     RDKit          3D

 29 30  0  0  0  0  0  0  0  0999 V2000
    4.9596    1.8009   17.0233 H   0  0  0  0  0  0  0  0  0  0  0  0
    5.4009    1.2635   17.8603 C   0  0  0  0  0  0  0  0  0  0  0  0
    6.5533    0.6232   17.6116 N   0  0  0  0  0  0  0  0  0  0  0  0
    7.1379   -0.0133   18.6318 C   0  0  0  0  0  0  0  0  0  0  0  0
    8.0968   -0.4862   18.4212 H   0  0  0  0  0  0  0  0  0  0  0  0
    6.6124   -0.0964   19.9479 C   0  0  0  0  0  0  0  0  0  0  0  0
    7.3651   -0.7652   20.9286 N   0  0  0  0  0  0  0  0  0  0  0  0
    6.7556   -1.4968   21.9751 N   0  0  0  0  0  0  0  0  0  0  0  0
    5.7684   -1.6812   21.8189 H   0  0  0  0  0  0  0  0  0  0  0  0
    7.3472   -2.7054   22.4021 C   0  0  0  0  0  0  0  0  0  0  0  0
    8.4656   -3.0962   22.1380 O   0  0  0  0  0  0  0  0  0  0  0  0
    6.4895   -3.4061   23.2188 N   0  0  0  0  0  0  0  0  0  0  0  0
    5.7087   -2.8808   23.5734 H   0  0  0  0  0  0  0  0  0  0  0  0
    7.0325   -4.4344   24.0626 C   0  0  0  0  0  0  0  0  0  0  0  0
    7.7609   -4.1452   24.8254 H   0  0  0  0  0  0  0  0  0  0  0  0
    6.1557   -5.5871   24.4039 C   0  0  0  0  0  0  0  0  0  0  0  0
    6.2944   -6.0397   25.3821 H   0  0  0  0  0  0  0  0  0  0  0  0
    5.1308   -5.5615   24.0497 H   0  0  0  0  0  0  0  0  0  0  0  0
    7.2513   -5.7550   23.3926 C   0  0  0  0  0  0  0  0  0  0  0  0
    6.9603   -5.7819   22.3479 H   0  0  0  0  0  0  0  0  0  0  0  0
    8.1410   -6.3257   23.6394 H   0  0  0  0  0  0  0  0  0  0  0  0
    8.7718   -0.4206   21.1533 C   0  0  0  0  0  0  0  0  0  0  0  0
    8.9821    0.5823   20.7644 H   0  0  0  0  0  0  0  0  0  0  0  0
    8.9808   -0.4294   22.2265 H   0  0  0  0  0  0  0  0  0  0  0  0
    9.4329   -1.1580   20.6824 H   0  0  0  0  0  0  0  0  0  0  0  0
    5.4048    0.5962   20.1851 C   0  0  0  0  0  0  0  0  0  0  0  0
    4.9932    0.6298   21.1945 H   0  0  0  0  0  0  0  0  0  0  0  0
    4.7951    1.2763   19.1226 C   0  0  0  0  0  0  0  0  0  0  0  0
    3.8772    1.8391   19.2613 H   0  0  0  0  0  0  0  0  0  0  0  0
  1  2  1  0
  2  3  2  0
  3  4  1  0
  4  5  1  0
  4  6  2  0
  6  7  1  0
  7  8  1  0
  8  9  1  0
  8 10  1  0
 10 11  2  0
 10 12  1  0
 12 13  1  0
 12 14  1  0
 14 15  1  0
 14 16  1  0
 16 17  1  0
 16 18  1  0
 16 19  1  0
 19 20  1  0
 19 21  1  0
  7 22  1  0
 22 23  1  0
 22 24  1  0
 22 25  1  0
  6 26  1  0
 26 27  1  0
 26 28  2  0
 28 29  1  0
 28  2  1  0
 19 14  1  0
M  END
>  <cnnaffinity>  (1) 
-4.36352

>  <filename>  (1) 
CN(NC(=O)NC1CC1)c1cccnc1

$$$$
