
     RDKit          3D

 38 39  0  0  0  0  0  0  0  0999 V2000
    5.0142    1.8401   16.9909 H   0  0  0  0  0  0  0  0  0  0  0  0
    5.4344    1.3010   17.8379 C   0  0  0  0  0  0  0  0  0  0  0  0
    6.5819    0.6416   17.6113 N   0  0  0  0  0  0  0  0  0  0  0  0
    7.1370   -0.0087   18.6447 C   0  0  0  0  0  0  0  0  0  0  0  0
    8.0703   -0.5288   18.4350 H   0  0  0  0  0  0  0  0  0  0  0  0
    6.5940   -0.0600   19.9476 C   0  0  0  0  0  0  0  0  0  0  0  0
    7.2654   -0.7152   20.9978 N   0  0  0  0  0  0  0  0  0  0  0  0
    6.5259   -1.5004   21.8680 N   0  0  0  0  0  0  0  0  0  0  0  0
    6.7917   -1.4536   22.8365 H   0  0  0  0  0  0  0  0  0  0  0  0
    5.9477   -2.7280   21.5347 C   0  0  0  0  0  0  0  0  0  0  0  0
    5.9202   -3.2273   20.4335 O   0  0  0  0  0  0  0  0  0  0  0  0
    5.3845   -3.2939   22.6807 N   0  0  0  0  0  0  0  0  0  0  0  0
    5.1497   -2.5392   23.3052 H   0  0  0  0  0  0  0  0  0  0  0  0
    4.2461   -4.2161   22.5191 C   0  0  0  0  0  0  0  0  0  0  0  0
    3.5729   -3.8030   21.7650 H   0  0  0  0  0  0  0  0  0  0  0  0
    3.4278   -4.3220   23.8173 C   0  0  0  0  0  0  0  0  0  0  0  0
    2.4125   -4.6196   23.5186 H   0  0  0  0  0  0  0  0  0  0  0  0
    3.3406   -3.3259   24.2650 H   0  0  0  0  0  0  0  0  0  0  0  0
    3.9295   -5.3254   24.8732 C   0  0  0  0  0  0  0  0  0  0  0  0
    3.1322   -5.4429   25.6223 H   0  0  0  0  0  0  0  0  0  0  0  0
    4.8060   -4.9174   25.3982 H   0  0  0  0  0  0  0  0  0  0  0  0
    4.3001   -6.6820   24.2514 C   0  0  0  0  0  0  0  0  0  0  0  0
    3.3887   -7.1824   23.8874 H   0  0  0  0  0  0  0  0  0  0  0  0
    4.7295   -7.3393   25.0159 H   0  0  0  0  0  0  0  0  0  0  0  0
    5.2785   -6.5035   23.0805 C   0  0  0  0  0  0  0  0  0  0  0  0
    6.2164   -6.0593   23.4439 H   0  0  0  0  0  0  0  0  0  0  0  0
    5.5476   -7.4751   22.6448 H   0  0  0  0  0  0  0  0  0  0  0  0
    4.6558   -5.6034   22.0083 C   0  0  0  0  0  0  0  0  0  0  0  0
    3.7347   -6.0899   21.6491 H   0  0  0  0  0  0  0  0  0  0  0  0
    5.3224   -5.4749   21.1539 H   0  0  0  0  0  0  0  0  0  0  0  0
    8.7107   -0.7222   21.1423 C   0  0  0  0  0  0  0  0  0  0  0  0
    9.1274    0.1988   20.7284 H   0  0  0  0  0  0  0  0  0  0  0  0
    9.1940   -1.5783   20.6531 H   0  0  0  0  0  0  0  0  0  0  0  0
    8.9667   -0.7412   22.2070 H   0  0  0  0  0  0  0  0  0  0  0  0
    5.3721    0.6162   20.1554 C   0  0  0  0  0  0  0  0  0  0  0  0
    4.9157    0.5889   21.1434 H   0  0  0  0  0  0  0  0  0  0  0  0
    4.8022    1.3124   19.0864 C   0  0  0  0  0  0  0  0  0  0  0  0
    3.8841    1.8835   19.2094 H   0  0  0  0  0  0  0  0  0  0  0  0
  1  2  1  0
  2  3  2  0
  3  4  1  0
  4  5  1  0
  4  6  2  0
  6  7  1  0
  7  8  1  0
  8  9  1  0
  8 10  1  0
 10 11  2  0
 10 12  1  0
 12 13  1  0
 12 14  1  0
 14 15  1  0
 14 16  1  0
 16 17  1  0
 16 18  1  0
 16 19  1  0
 19 20  1  0
 19 21  1  0
 19 22  1  0
 22 23  1  0
 22 24  1  0
 22 25  1  0
 25 26  1  0
 25 27  1  0
 25 28  1  0
 28 29  1  0
 28 30  1  0
  7 31  1  0
 31 32  1  0
 31 33  1  0
 31 34  1  0
  6 35  1  0
 35 36  1  0
 35 37  2  0
 37 38  1  0
 37  2  1  0
 28 14  1  0
M  END
>  <cnnaffinity>  (1) 
-4.89073

>  <filename>  (1) 
CN(NC(=O)NC1CCCCC1)c1cccnc1

$$$$
