
     RDKit          3D

 33 34  0  0  0  0  0  0  0  0999 V2000
    5.1226    1.8113   16.9193 H   0  0  0  0  0  0  0  0  0  0  0  0
    5.5486    1.3079   17.7832 C   0  0  0  0  0  0  0  0  0  0  0  0
    6.7114    0.6683   17.5804 N   0  0  0  0  0  0  0  0  0  0  0  0
    7.2682    0.0502   18.6294 C   0  0  0  0  0  0  0  0  0  0  0  0
    8.2137   -0.4503   18.4315 H   0  0  0  0  0  0  0  0  0  0  0  0
    6.6926    0.0011   19.9230 C   0  0  0  0  0  0  0  0  0  0  0  0
    7.2773   -0.6685   21.0133 N   0  0  0  0  0  0  0  0  0  0  0  0
    8.6823   -0.7589   20.9934 N   0  0  0  0  0  0  0  0  0  0  0  0
    9.0796    0.0244   20.4828 H   0  0  0  0  0  0  0  0  0  0  0  0
    9.4007   -0.8802   22.1740 C   0  0  0  0  0  0  0  0  0  0  0  0
    8.9305   -1.2126   23.2416 O   0  0  0  0  0  0  0  0  0  0  0  0
   10.8696   -0.5227   21.9990 C   0  0  0  0  0  0  0  0  0  0  0  0
   11.1698   -0.4794   20.9472 H   0  0  0  0  0  0  0  0  0  0  0  0
   11.4042   -1.3504   22.4777 H   0  0  0  0  0  0  0  0  0  0  0  0
   11.1653    0.7617   22.7550 C   0  0  0  0  0  0  0  0  0  0  0  0
   11.0161    0.7441   24.1527 C   0  0  0  0  0  0  0  0  0  0  0  0
   10.6884   -0.1829   24.6203 H   0  0  0  0  0  0  0  0  0  0  0  0
   11.1871    1.8996   24.9135 C   0  0  0  0  0  0  0  0  0  0  0  0
   11.0531    1.8296   25.9898 H   0  0  0  0  0  0  0  0  0  0  0  0
   11.4864    3.1189   24.2812 C   0  0  0  0  0  0  0  0  0  0  0  0
   11.5764    4.0578   24.8252 H   0  0  0  0  0  0  0  0  0  0  0  0
   11.6512    3.1572   22.9015 C   0  0  0  0  0  0  0  0  0  0  0  0
   11.8910    4.0783   22.3718 H   0  0  0  0  0  0  0  0  0  0  0  0
   11.4858    1.9870   22.1591 C   0  0  0  0  0  0  0  0  0  0  0  0
   11.6135    2.1729   20.4443 Cl  0  0  0  0  0  0  0  0  0  0  0  0
    6.5531   -1.6916   21.7675 C   0  0  0  0  0  0  0  0  0  0  0  0
    5.6070   -1.9138   21.2644 H   0  0  0  0  0  0  0  0  0  0  0  0
    7.1385   -2.6172   21.8422 H   0  0  0  0  0  0  0  0  0  0  0  0
    6.3525   -1.3520   22.7910 H   0  0  0  0  0  0  0  0  0  0  0  0
    5.4701    0.6726   20.1082 C   0  0  0  0  0  0  0  0  0  0  0  0
    5.0208    0.6762   21.1044 H   0  0  0  0  0  0  0  0  0  0  0  0
    4.8961    1.3400   19.0226 C   0  0  0  0  0  0  0  0  0  0  0  0
    3.9585    1.8771   19.1195 H   0  0  0  0  0  0  0  0  0  0  0  0
  1  2  1  0
  2  3  2  0
  3  4  1  0
  4  5  1  0
  4  6  2  0
  6  7  1  0
  7  8  1  0
  8  9  1  0
  8 10  1  0
 10 11  2  0
 10 12  1  0
 12 13  1  0
 12 14  1  0
 12 15  1  0
 15 16  2  0
 16 17  1  0
 16 18  1  0
 18 19  1  0
 18 20  2  0
 20 21  1  0
 20 22  1  0
 22 23  1  0
 22 24  2  0
 24 25  1  0
  7 26  1  0
 26 27  1  0
 26 28  1  0
 26 29  1  0
  6 30  1  0
 30 31  1  0
 30 32  2  0
 32 33  1  0
 32  2  1  0
 24 15  1  0
M  END
>  <cnnaffinity>  (1) 
-5.11498

>  <filename>  (1) 
CN(NC(=O)Cc1ccccc1Cl)c1cccnc1

$$$$
