
     RDKit          3D

 39 40  0  0  0  0  0  0  0  0999 V2000
    4.9946    1.8898   16.9547 H   0  0  0  0  0  0  0  0  0  0  0  0
    5.4257    1.2947   17.7554 C   0  0  0  0  0  0  0  0  0  0  0  0
    6.5550    0.6266   17.4573 N   0  0  0  0  0  0  0  0  0  0  0  0
    7.1196   -0.0902   18.4388 C   0  0  0  0  0  0  0  0  0  0  0  0
    8.0504   -0.5940   18.1890 H   0  0  0  0  0  0  0  0  0  0  0  0
    6.5837   -0.2239   19.7410 C   0  0  0  0  0  0  0  0  0  0  0  0
    7.2970   -1.0038   20.7021 N   0  0  0  0  0  0  0  0  0  0  0  0
    8.5884   -0.5152   20.9361 N   0  0  0  0  0  0  0  0  0  0  0  0
    9.3272   -1.2032   20.9165 H   0  0  0  0  0  0  0  0  0  0  0  0
    8.9923    0.7961   21.0401 C   0  0  0  0  0  0  0  0  0  0  0  0
    8.2563    1.7601   20.9798 O   0  0  0  0  0  0  0  0  0  0  0  0
   10.4945    0.9418   21.1738 C   0  0  0  0  0  0  0  0  0  0  0  0
   11.0090    0.0274   20.8463 H   0  0  0  0  0  0  0  0  0  0  0  0
   10.7608    1.7598   20.4954 H   0  0  0  0  0  0  0  0  0  0  0  0
   11.0482    1.2753   22.5714 C   0  0  0  0  0  0  0  0  0  0  0  0
   10.6306    2.2309   22.9377 H   0  0  0  0  0  0  0  0  0  0  0  0
   10.7256    0.1796   23.6021 C   0  0  0  0  0  0  0  0  0  0  0  0
   11.1150   -0.7791   23.2165 H   0  0  0  0  0  0  0  0  0  0  0  0
    9.6423    0.0457   23.7046 H   0  0  0  0  0  0  0  0  0  0  0  0
   11.3900    0.4599   24.9643 C   0  0  0  0  0  0  0  0  0  0  0  0
   11.1222   -0.3224   25.6893 H   0  0  0  0  0  0  0  0  0  0  0  0
   11.0120    1.4021   25.3906 H   0  0  0  0  0  0  0  0  0  0  0  0
   12.9115    0.5618   24.7648 C   0  0  0  0  0  0  0  0  0  0  0  0
   13.4432    0.6367   25.7210 H   0  0  0  0  0  0  0  0  0  0  0  0
   13.2382   -0.3559   24.2816 H   0  0  0  0  0  0  0  0  0  0  0  0
   13.2994    1.6537   23.7548 C   0  0  0  0  0  0  0  0  0  0  0  0
   13.0451    2.6520   24.1170 H   0  0  0  0  0  0  0  0  0  0  0  0
   14.3774    1.6328   23.5681 H   0  0  0  0  0  0  0  0  0  0  0  0
   12.5726    1.4378   22.4228 C   0  0  0  0  0  0  0  0  0  0  0  0
   12.7788    2.2675   21.7350 H   0  0  0  0  0  0  0  0  0  0  0  0
   12.9726    0.5291   21.9431 H   0  0  0  0  0  0  0  0  0  0  0  0
    6.6321   -1.4611   21.9239 C   0  0  0  0  0  0  0  0  0  0  0  0
    5.6313   -1.8132   21.6712 H   0  0  0  0  0  0  0  0  0  0  0  0
    6.5594   -0.6733   22.6883 H   0  0  0  0  0  0  0  0  0  0  0  0
    7.1857   -2.3161   22.3325 H   0  0  0  0  0  0  0  0  0  0  0  0
    5.4076    0.4804   20.0316 C   0  0  0  0  0  0  0  0  0  0  0  0
    4.9873    0.4481   21.0378 H   0  0  0  0  0  0  0  0  0  0  0  0
    4.8255    1.2566   19.0175 C   0  0  0  0  0  0  0  0  0  0  0  0
    3.9411    1.8527   19.2089 H   0  0  0  0  0  0  0  0  0  0  0  0
  1  2  1  0
  2  3  2  0
  3  4  1  0
  4  5  1  0
  4  6  2  0
  6  7  1  0
  7  8  1  0
  8  9  1  0
  8 10  1  0
 10 11  2  0
 10 12  1  0
 12 13  1  0
 12 14  1  0
 12 15  1  0
 15 16  1  0
 15 17  1  0
 17 18  1  0
 17 19  1  0
 17 20  1  0
 20 21  1  0
 20 22  1  0
 20 23  1  0
 23 24  1  0
 23 25  1  0
 23 26  1  0
 26 27  1  0
 26 28  1  0
 26 29  1  0
 29 30  1  0
 29 31  1  0
  7 32  1  0
 32 33  1  0
 32 34  1  0
 32 35  1  0
  6 36  1  0
 36 37  1  0
 36 38  2  0
 38 39  1  0
 38  2  1  0
 29 15  1  0
M  END
>  <cnnaffinity>  (1) 
-5.15787

>  <filename>  (1) 
CN(NC(=O)CC1CCCCC1)c1cccnc1

$$$$
