
     RDKit          3D

 41 44  0  0  0  0  0  0  0  0999 V2000
    4.9692    1.8193   16.9743 H   0  0  0  0  0  0  0  0  0  0  0  0
    5.4220    1.2969   17.8125 C   0  0  0  0  0  0  0  0  0  0  0  0
    6.5732    0.6487   17.5723 N   0  0  0  0  0  0  0  0  0  0  0  0
    7.1427    0.0036   18.5949 C   0  0  0  0  0  0  0  0  0  0  0  0
    8.0730   -0.5167   18.3738 H   0  0  0  0  0  0  0  0  0  0  0  0
    6.6222    0.0002   19.9014 C   0  0  0  0  0  0  0  0  0  0  0  0
    7.3627   -0.6751   20.9629 C   0  0  0  0  0  0  0  0  0  0  0  0
    7.9155   -1.9224   20.7802 N   0  0  0  0  0  0  0  0  0  0  0  0
    8.4475   -2.2063   21.9446 C   0  0  0  0  0  0  0  0  0  0  0  0
    9.2880   -3.5449   22.6960 S   0  0  0  0  0  0  0  0  0  0  0  0
    9.6467   -2.5559   24.0988 C   0  0  0  0  0  0  0  0  0  0  0  0
   10.3058   -2.9383   24.8657 H   0  0  0  0  0  0  0  0  0  0  0  0
    9.0721   -1.3442   24.0239 C   0  0  0  0  0  0  0  0  0  0  0  0
    9.1396   -0.5148   24.7165 H   0  0  0  0  0  0  0  0  0  0  0  0
    8.3470   -1.1813   22.8474 N   0  0  0  0  0  0  0  0  0  0  0  0
    7.6179   -0.1859   22.2281 C   0  0  0  0  0  0  0  0  0  0  0  0
    7.4845    1.1686   22.8176 C   0  0  0  0  0  0  0  0  0  0  0  0
    6.7422    1.7494   22.2424 H   0  0  0  0  0  0  0  0  0  0  0  0
    7.0780    1.0656   23.8367 H   0  0  0  0  0  0  0  0  0  0  0  0
    8.7917    1.8298   22.8768 N   0  0  0  0  0  0  0  0  0  0  0  0
    8.8078    3.0287   23.7263 C   0  0  0  0  0  0  0  0  0  0  0  0
    8.4958    2.7564   24.7417 H   0  0  0  0  0  0  0  0  0  0  0  0
    8.0966    3.7937   23.3593 H   0  0  0  0  0  0  0  0  0  0  0  0
   10.2121    3.6581   23.8055 C   0  0  0  0  0  0  0  0  0  0  0  0
   10.1338    4.6129   24.3391 H   0  0  0  0  0  0  0  0  0  0  0  0
   10.8643    2.9889   24.4011 H   0  0  0  0  0  0  0  0  0  0  0  0
   10.7487    3.9231   22.4761 N   0  0  0  0  0  0  0  0  0  0  0  0
   11.9314    4.7480   22.3999 C   0  0  0  0  0  0  0  0  0  0  0  0
   12.0933    5.0796   21.3658 H   0  0  0  0  0  0  0  0  0  0  0  0
   12.8703    4.2743   22.7459 H   0  0  0  0  0  0  0  0  0  0  0  0
   11.7565    5.6494   22.9960 H   0  0  0  0  0  0  0  0  0  0  0  0
   10.7613    2.6925   21.6809 C   0  0  0  0  0  0  0  0  0  0  0  0
   11.3665    1.8922   22.1437 H   0  0  0  0  0  0  0  0  0  0  0  0
   11.1998    2.8955   20.6957 H   0  0  0  0  0  0  0  0  0  0  0  0
    9.3227    2.1822   21.5391 C   0  0  0  0  0  0  0  0  0  0  0  0
    9.2898    1.3015   20.8908 H   0  0  0  0  0  0  0  0  0  0  0  0
    8.7258    2.9741   21.0451 H   0  0  0  0  0  0  0  0  0  0  0  0
    5.4030    0.6603   20.1267 C   0  0  0  0  0  0  0  0  0  0  0  0
    4.9356    0.6505   21.1137 H   0  0  0  0  0  0  0  0  0  0  0  0
    4.7927    1.3144   19.0618 C   0  0  0  0  0  0  0  0  0  0  0  0
    3.8619    1.8510   19.1975 H   0  0  0  0  0  0  0  0  0  0  0  0
  1  2  1  0
  2  3  2  0
  3  4  1  0
  4  5  1  0
  4  6  2  0
  6  7  1  0
  7  8  1  0
  8  9  2  0
  9 10  1  0
 10 11  1  0
 11 12  1  0
 11 13  2  0
 13 14  1  0
 13 15  1  0
 15 16  1  0
 16 17  1  0
 17 18  1  0
 17 19  1  0
 17 20  1  0
 20 21  1  0
 21 22  1  0
 21 23  1  0
 21 24  1  0
 24 25  1  0
 24 26  1  0
 24 27  1  0
 27 28  1  0
 28 29  1  0
 28 30  1  0
 28 31  1  0
 27 32  1  0
 32 33  1  0
 32 34  1  0
 32 35  1  0
 35 36  1  0
 35 37  1  0
  6 38  1  0
 38 39  1  0
 38 40  2  0
 40 41  1  0
 40  2  1  0
 16  7  2  0
 35 20  1  0
 15  9  1  0
M  END
>  <cnnaffinity>  (1) 
-5.61173

>  <filename>  (1) 
CN1CCN(Cc2c(-c3cccnc3)nc3sccn23)CC1

$$$$
