
     RDKit          3D

 38 40  0  0  0  0  0  0  0  0999 V2000
   10.3634   -1.5614   22.2762 H   0  0  0  0  0  0  0  0  0  0  0  0
    9.2825   -1.4857   22.1605 C   0  0  0  0  0  0  0  0  0  0  0  0
    8.5483   -2.0775   23.1027 N   0  0  0  0  0  0  0  0  0  0  0  0
    7.2307   -1.9720   22.9537 C   0  0  0  0  0  0  0  0  0  0  0  0
    6.4206   -2.5217   23.8544 O   0  0  0  0  0  0  0  0  0  0  0  0
    6.9599   -3.1840   25.0107 C   0  0  0  0  0  0  0  0  0  0  0  0
    7.8183   -3.7865   24.7023 H   0  0  0  0  0  0  0  0  0  0  0  0
    5.8451   -4.0796   25.5367 C   0  0  0  0  0  0  0  0  0  0  0  0
    6.2764   -4.6918   26.3423 H   0  0  0  0  0  0  0  0  0  0  0  0
    5.4885   -4.7450   24.7467 H   0  0  0  0  0  0  0  0  0  0  0  0
    4.6790   -3.2621   26.1266 C   0  0  0  0  0  0  0  0  0  0  0  0
    4.1300   -2.7118   25.3491 H   0  0  0  0  0  0  0  0  0  0  0  0
    3.9409   -3.9398   26.5781 H   0  0  0  0  0  0  0  0  0  0  0  0
    5.1263   -2.3168   27.1519 N   0  0  0  0  0  0  0  0  0  0  0  0
    5.3457   -2.9446   28.4438 C   0  0  0  0  0  0  0  0  0  0  0  0
    5.6723   -2.1981   29.1766 H   0  0  0  0  0  0  0  0  0  0  0  0
    4.3889   -3.3336   28.8002 H   0  0  0  0  0  0  0  0  0  0  0  0
    6.0639   -3.7904   28.4568 H   0  0  0  0  0  0  0  0  0  0  0  0
    6.1909   -1.4335   26.6707 C   0  0  0  0  0  0  0  0  0  0  0  0
    5.7590   -0.7785   25.9042 H   0  0  0  0  0  0  0  0  0  0  0  0
    6.5064   -0.7768   27.4926 H   0  0  0  0  0  0  0  0  0  0  0  0
    7.3979   -2.1838   26.0834 C   0  0  0  0  0  0  0  0  0  0  0  0
    8.1334   -1.4851   25.6776 H   0  0  0  0  0  0  0  0  0  0  0  0
    7.8962   -2.7538   26.8804 H   0  0  0  0  0  0  0  0  0  0  0  0
    6.5871   -1.3641   21.9659 N   0  0  0  0  0  0  0  0  0  0  0  0
    7.3303   -0.7722   21.0485 C   0  0  0  0  0  0  0  0  0  0  0  0
    6.6087   -0.0466   19.9901 C   0  0  0  0  0  0  0  0  0  0  0  0
    7.1631   -0.0116   18.7091 C   0  0  0  0  0  0  0  0  0  0  0  0
    8.1080   -0.5124   18.4921 H   0  0  0  0  0  0  0  0  0  0  0  0
    6.6026    0.6103   17.6698 N   0  0  0  0  0  0  0  0  0  0  0  0
    5.4494    1.2598   17.8819 C   0  0  0  0  0  0  0  0  0  0  0  0
    5.0173    1.7722   17.0243 H   0  0  0  0  0  0  0  0  0  0  0  0
    4.8062    1.2953   19.1246 C   0  0  0  0  0  0  0  0  0  0  0  0
    3.8808    1.8516   19.2362 H   0  0  0  0  0  0  0  0  0  0  0  0
    5.3892    0.6259   20.1991 C   0  0  0  0  0  0  0  0  0  0  0  0
    4.9210    0.6338   21.1843 H   0  0  0  0  0  0  0  0  0  0  0  0
    8.7282   -0.8108   21.0925 C   0  0  0  0  0  0  0  0  0  0  0  0
    9.3327   -0.3024   20.3617 H   0  0  0  0  0  0  0  0  0  0  0  0
  1  2  1  0
  2  3  2  0
  3  4  1  0
  4  5  1  0
  5  6  1  0
  6  7  1  0
  6  8  1  0
  8  9  1  0
  8 10  1  0
  8 11  1  0
 11 12  1  0
 11 13  1  0
 11 14  1  0
 14 15  1  0
 15 16  1  0
 15 17  1  0
 15 18  1  0
 14 19  1  0
 19 20  1  0
 19 21  1  0
 19 22  1  0
 22 23  1  0
 22 24  1  0
  4 25  2  0
 25 26  1  0
 26 27  1  0
 27 28  2  0
 28 29  1  0
 28 30  1  0
 30 31  2  0
 31 32  1  0
 31 33  1  0
 33 34  1  0
 33 35  2  0
 35 36  1  0
 26 37  2  0
 37 38  1  0
 37  2  1  0
 22  6  1  0
 35 27  1  0
M  END
>  <cnnaffinity>  (1) 
-4.98663

>  <filename>  (1) 
CN1CCC(Oc2nccc(-c3cccnc3)n2)CC1

$$$$
