
     RDKit          3D

 42 45  0  0  0  0  0  0  0  0999 V2000
    5.0218    1.7901   16.8609 H   0  0  0  0  0  0  0  0  0  0  0  0
    5.4919    1.3249   17.7234 C   0  0  0  0  0  0  0  0  0  0  0  0
    6.6687    0.7158   17.5060 N   0  0  0  0  0  0  0  0  0  0  0  0
    7.2621    0.1066   18.5408 C   0  0  0  0  0  0  0  0  0  0  0  0
    8.2121   -0.3737   18.3152 H   0  0  0  0  0  0  0  0  0  0  0  0
    6.7112    0.0562   19.8408 C   0  0  0  0  0  0  0  0  0  0  0  0
    7.3300   -0.7463   20.9275 C   0  0  0  0  0  0  0  0  0  0  0  0
    8.5190   -1.3343   20.7500 N   0  0  0  0  0  0  0  0  0  0  0  0
    8.6914   -2.0289   21.8904 N   0  0  0  0  0  0  0  0  0  0  0  0
    9.7591   -2.7381   22.4197 C   0  0  0  0  0  0  0  0  0  0  0  0
   10.7050   -2.7461   21.9062 H   0  0  0  0  0  0  0  0  0  0  0  0
    9.3301   -3.1929   23.6203 C   0  0  0  0  0  0  0  0  0  0  0  0
    9.8130   -3.7673   24.3918 H   0  0  0  0  0  0  0  0  0  0  0  0
    8.0256   -2.7775   23.8439 N   0  0  0  0  0  0  0  0  0  0  0  0
    7.4021   -3.0017   25.0762 N   0  0  0  0  0  0  0  0  0  0  0  0
    6.3654   -2.0275   25.4522 C   0  0  0  0  0  0  0  0  0  0  0  0
    6.4009   -1.8597   26.5364 H   0  0  0  0  0  0  0  0  0  0  0  0
    6.6461   -1.0800   24.9835 H   0  0  0  0  0  0  0  0  0  0  0  0
    4.9230   -2.3628   25.0174 C   0  0  0  0  0  0  0  0  0  0  0  0
    4.3624   -1.4237   25.0186 H   0  0  0  0  0  0  0  0  0  0  0  0
    4.9685   -2.7211   23.9811 H   0  0  0  0  0  0  0  0  0  0  0  0
    4.1387   -3.3176   25.7944 N   0  0  0  0  0  0  0  0  0  0  0  0
    3.6685   -2.8405   27.0803 C   0  0  0  0  0  0  0  0  0  0  0  0
    3.0604   -1.9439   26.9360 H   0  0  0  0  0  0  0  0  0  0  0  0
    4.4514   -2.5992   27.8229 H   0  0  0  0  0  0  0  0  0  0  0  0
    3.0088   -3.5954   27.5212 H   0  0  0  0  0  0  0  0  0  0  0  0
    4.6786   -4.6656   25.8159 C   0  0  0  0  0  0  0  0  0  0  0  0
    4.6628   -5.0627   24.7920 H   0  0  0  0  0  0  0  0  0  0  0  0
    3.9772   -5.2907   26.3851 H   0  0  0  0  0  0  0  0  0  0  0  0
    6.0984   -4.8113   26.3744 C   0  0  0  0  0  0  0  0  0  0  0  0
    6.2507   -5.8686   26.6240 H   0  0  0  0  0  0  0  0  0  0  0  0
    6.1919   -4.2399   27.3060 H   0  0  0  0  0  0  0  0  0  0  0  0
    7.2150   -4.4320   25.3914 C   0  0  0  0  0  0  0  0  0  0  0  0
    7.0511   -4.9923   24.4561 H   0  0  0  0  0  0  0  0  0  0  0  0
    8.1624   -4.8071   25.8114 H   0  0  0  0  0  0  0  0  0  0  0  0
    7.6660   -1.9604   22.7665 C   0  0  0  0  0  0  0  0  0  0  0  0
    6.7723   -1.0443   22.2040 C   0  0  0  0  0  0  0  0  0  0  0  0
    5.9717   -0.5186   22.6865 H   0  0  0  0  0  0  0  0  0  0  0  0
    5.5030    0.7408   20.0476 C   0  0  0  0  0  0  0  0  0  0  0  0
    5.0663    0.7844   21.0442 H   0  0  0  0  0  0  0  0  0  0  0  0
    4.8758    1.3685   18.9758 C   0  0  0  0  0  0  0  0  0  0  0  0
    3.9303    1.8857   19.0987 H   0  0  0  0  0  0  0  0  0  0  0  0
  1  2  1  0
  2  3  2  0
  3  4  1  0
  4  5  1  0
  4  6  2  0
  6  7  1  0
  7  8  2  0
  8  9  1  0
  9 10  1  0
 10 11  1  0
 10 12  2  0
 12 13  1  0
 12 14  1  0
 14 15  1  0
 15 16  1  0
 16 17  1  0
 16 18  1  0
 16 19  1  0
 19 20  1  0
 19 21  1  0
 19 22  1  0
 22 23  1  0
 23 24  1  0
 23 25  1  0
 23 26  1  0
 22 27  1  0
 27 28  1  0
 27 29  1  0
 27 30  1  0
 30 31  1  0
 30 32  1  0
 30 33  1  0
 33 34  1  0
 33 35  1  0
 14 36  1  0
 36 37  2  0
 37 38  1  0
  6 39  1  0
 39 40  1  0
 39 41  2  0
 41 42  1  0
 41  2  1  0
 37  7  1  0
 36  9  1  0
 33 15  1  0
M  END
>  <cnnaffinity>  (1) 
-5.39994

>  <filename>  (1) 
CN1CCCN(n2ccn3nc(-c4cccnc4)cc23)CC1

$$$$
