
     RDKit          3D

 29 32  0  0  0  0  0  0  0  0999 V2000
    4.9178    1.7766   17.0011 H   0  0  0  0  0  0  0  0  0  0  0  0
    5.4042    1.2903   17.8422 C   0  0  0  0  0  0  0  0  0  0  0  0
    6.5691    0.6771   17.5780 N   0  0  0  0  0  0  0  0  0  0  0  0
    7.1744    0.0561   18.5909 C   0  0  0  0  0  0  0  0  0  0  0  0
    8.1235   -0.4342   18.3732 H   0  0  0  0  0  0  0  0  0  0  0  0
    6.6495    0.0120   19.8932 C   0  0  0  0  0  0  0  0  0  0  0  0
    7.4068   -0.6995   20.9186 C   0  0  0  0  0  0  0  0  0  0  0  0
    8.3400   -1.5940   20.7038 N   0  0  0  0  0  0  0  0  0  0  0  0
    8.8397   -2.0241   21.9121 N   0  0  0  0  0  0  0  0  0  0  0  0
    8.2015   -1.3473   22.8264 C   0  0  0  0  0  0  0  0  0  0  0  0
    8.2539   -1.0765   24.5455 S   0  0  0  0  0  0  0  0  0  0  0  0
    7.0239    0.1730   24.3104 C   0  0  0  0  0  0  0  0  0  0  0  0
    6.5611    0.9268   25.4795 C   0  0  0  0  0  0  0  0  0  0  0  0
    7.0092    0.7541   26.7110 N   0  0  0  0  0  0  0  0  0  0  0  0
    6.3271    1.6478   27.4757 C   0  0  0  0  0  0  0  0  0  0  0  0
    6.4793    1.7449   28.5435 H   0  0  0  0  0  0  0  0  0  0  0  0
    5.4565    2.3681   26.7038 C   0  0  0  0  0  0  0  0  0  0  0  0
    4.7593    3.1536   26.9614 H   0  0  0  0  0  0  0  0  0  0  0  0
    5.6025    1.9111   25.4272 N   0  0  0  0  0  0  0  0  0  0  0  0
    4.8736    2.3908   24.2603 C   0  0  0  0  0  0  0  0  0  0  0  0
    5.5593    2.7961   23.5154 H   0  0  0  0  0  0  0  0  0  0  0  0
    4.1735    3.1685   24.5673 H   0  0  0  0  0  0  0  0  0  0  0  0
    4.3178    1.5740   23.8009 H   0  0  0  0  0  0  0  0  0  0  0  0
    6.6102    0.3481   23.0868 N   0  0  0  0  0  0  0  0  0  0  0  0
    7.2694   -0.5224   22.2773 N   0  0  0  0  0  0  0  0  0  0  0  0
    5.4345    0.6526   20.1595 C   0  0  0  0  0  0  0  0  0  0  0  0
    5.0072    0.6301   21.1639 H   0  0  0  0  0  0  0  0  0  0  0  0
    4.8046    1.3084   19.1078 C   0  0  0  0  0  0  0  0  0  0  0  0
    3.8736    1.8431   19.2605 H   0  0  0  0  0  0  0  0  0  0  0  0
  1  2  1  0
  2  3  2  0
  3  4  1  0
  4  5  1  0
  4  6  2  0
  6  7  1  0
  7  8  2  0
  8  9  1  0
  9 10  2  0
 10 11  1  0
 11 12  1  0
 12 13  1  0
 13 14  2  0
 14 15  1  0
 15 16  1  0
 15 17  2  0
 17 18  1  0
 17 19  1  0
 19 20  1  0
 20 21  1  0
 20 22  1  0
 20 23  1  0
 12 24  2  0
 24 25  1  0
  6 26  1  0
 26 27  1  0
 26 28  2  0
 28 29  1  0
 28  2  1  0
 25  7  1  0
 25 10  1  0
 19 13  1  0
M  END
>  <cnnaffinity>  (1) 
-4.98056

>  <filename>  (1) 
Cn1ccnc1-c1nn2c(-c3cccnc3)nnc2s1

$$$$
