
     RDKit          3D

 30 32  0  0  0  0  0  0  0  0999 V2000
   12.8253   -1.8460   21.8704 C   0  0  0  0  0  0  0  0  0  0  0  0
   11.4747   -2.1318   22.3621 N   0  0  0  0  0  0  0  0  0  0  0  0
   11.2211   -3.1247   23.2970 C   0  0  0  0  0  0  0  0  0  0  0  0
    9.9589   -3.3549   23.7583 C   0  0  0  0  0  0  0  0  0  0  0  0
    8.8695   -2.6688   23.3031 N   0  0  0  0  0  0  0  0  0  0  0  0
    9.0622   -1.7665   22.3571 C   0  0  0  0  0  0  0  0  0  0  0  0
    7.8838   -1.2052   21.7343 C   0  0  0  0  0  0  0  0  0  0  0  0
    7.7836   -0.4015   20.6216 C   0  0  0  0  0  0  0  0  0  0  0  0
    6.4630   -0.2563   20.3694 N   0  0  0  0  0  0  0  0  0  0  0  0
    5.9371    0.4538   19.2679 C   0  0  0  0  0  0  0  0  0  0  0  0
    4.8295    1.2993   19.3675 C   0  0  0  0  0  0  0  0  0  0  0  0
    4.4557    2.0039   18.2196 C   0  0  0  0  0  0  0  0  0  0  0  0
    5.2062    1.8502   17.0472 C   0  0  0  0  0  0  0  0  0  0  0  0
    6.2528    1.0176   16.9456 N   0  0  0  0  0  0  0  0  0  0  0  0
    6.6028    0.3409   18.0383 C   0  0  0  0  0  0  0  0  0  0  0  0
    7.4525   -0.3321   17.9381 H   0  0  0  0  0  0  0  0  0  0  0  0
    4.9561    2.4138   16.1517 H   0  0  0  0  0  0  0  0  0  0  0  0
    3.5991    2.6689   18.2229 H   0  0  0  0  0  0  0  0  0  0  0  0
    4.2995    1.4065   20.3138 H   0  0  0  0  0  0  0  0  0  0  0  0
    5.6944   -0.8940   21.2714 N   0  0  0  0  0  0  0  0  0  0  0  0
    6.5438   -1.4713   22.1007 C   0  0  0  0  0  0  0  0  0  0  0  0
    6.2145   -2.0792   22.9342 H   0  0  0  0  0  0  0  0  0  0  0  0
    8.5465    0.0930   20.0357 H   0  0  0  0  0  0  0  0  0  0  0  0
   10.4265   -1.3670   21.8300 C   0  0  0  0  0  0  0  0  0  0  0  0
   10.6506   -0.4790   21.0127 O   0  0  0  0  0  0  0  0  0  0  0  0
    9.7464   -4.1308   24.4872 H   0  0  0  0  0  0  0  0  0  0  0  0
   12.0763   -3.6971   23.6350 H   0  0  0  0  0  0  0  0  0  0  0  0
   13.5061   -2.6444   22.1547 H   0  0  0  0  0  0  0  0  0  0  0  0
   12.8025   -1.7834   20.7820 H   0  0  0  0  0  0  0  0  0  0  0  0
   13.1839   -0.8926   22.2658 H   0  0  0  0  0  0  0  0  0  0  0  0
  1  2  1  0
  2  3  1  0
  3  4  2  0
  4  5  1  0
  5  6  2  0
  6  7  1  0
  7  8  2  0
  8  9  1  0
  9 10  1  0
 10 11  2  0
 11 12  1  0
 12 13  2  0
 13 14  1  0
 14 15  2  0
 15 16  1  0
 13 17  1  0
 12 18  1  0
 11 19  1  0
  9 20  1  0
 20 21  2  0
 21 22  1  0
  8 23  1  0
  6 24  1  0
 24 25  2  0
  4 26  1  0
  3 27  1  0
  1 28  1  0
  1 29  1  0
  1 30  1  0
 24  2  1  0
 21  7  1  0
 15 10  1  0
M  END
>  <cnnaffinity>  (1) 
-5.17354

>  <filename>  (1) 
Cn1ccnc(-c2cnn(-c3cccnc3)c2)c1=O

$$$$
