
     RDKit          3D

 30 33  0  0  0  0  0  0  0  0999 V2000
    4.9377    1.7744   16.9993 H   0  0  0  0  0  0  0  0  0  0  0  0
    5.4109    1.2845   17.8444 C   0  0  0  0  0  0  0  0  0  0  0  0
    6.5739    0.6639   17.5942 N   0  0  0  0  0  0  0  0  0  0  0  0
    7.1766    0.0518   18.6178 C   0  0  0  0  0  0  0  0  0  0  0  0
    8.1243   -0.4315   18.3873 H   0  0  0  0  0  0  0  0  0  0  0  0
    6.6411    0.0171   19.9130 C   0  0  0  0  0  0  0  0  0  0  0  0
    7.3649   -0.6907   20.9638 C   0  0  0  0  0  0  0  0  0  0  0  0
    8.5495   -1.3279   20.7517 N   0  0  0  0  0  0  0  0  0  0  0  0
    8.8143   -1.8050   21.9477 C   0  0  0  0  0  0  0  0  0  0  0  0
   10.0481   -2.7384   22.7478 S   0  0  0  0  0  0  0  0  0  0  0  0
    9.1611   -2.6390   24.2382 C   0  0  0  0  0  0  0  0  0  0  0  0
    9.5619   -3.1161   25.1194 H   0  0  0  0  0  0  0  0  0  0  0  0
    8.0106   -1.9394   24.1408 C   0  0  0  0  0  0  0  0  0  0  0  0
    7.0500   -1.6634   25.2016 C   0  0  0  0  0  0  0  0  0  0  0  0
    7.1247   -2.0854   26.5589 C   0  0  0  0  0  0  0  0  0  0  0  0
    7.8978   -2.6740   27.0409 H   0  0  0  0  0  0  0  0  0  0  0  0
    6.0901   -1.6607   27.2632 N   0  0  0  0  0  0  0  0  0  0  0  0
    5.3347   -0.9797   26.3975 N   0  0  0  0  0  0  0  0  0  0  0  0
    4.1383   -0.2946   26.8289 C   0  0  0  0  0  0  0  0  0  0  0  0
    4.3379    0.7577   27.0418 H   0  0  0  0  0  0  0  0  0  0  0  0
    3.7517   -0.7779   27.7234 H   0  0  0  0  0  0  0  0  0  0  0  0
    3.3936   -0.3563   26.0375 H   0  0  0  0  0  0  0  0  0  0  0  0
    5.8688   -0.9363   25.1634 C   0  0  0  0  0  0  0  0  0  0  0  0
    5.4103   -0.3854   24.3529 H   0  0  0  0  0  0  0  0  0  0  0  0
    7.8440   -1.4800   22.8278 N   0  0  0  0  0  0  0  0  0  0  0  0
    6.8883   -0.7507   22.2026 N   0  0  0  0  0  0  0  0  0  0  0  0
    5.4197    0.6609   20.1678 C   0  0  0  0  0  0  0  0  0  0  0  0
    4.9912    0.6414   21.1744 H   0  0  0  0  0  0  0  0  0  0  0  0
    4.8037    1.3102   19.1048 C   0  0  0  0  0  0  0  0  0  0  0  0
    3.8740    1.8429   19.2514 H   0  0  0  0  0  0  0  0  0  0  0  0
  1  2  1  0
  2  3  2  0
  3  4  1  0
  4  5  1  0
  4  6  2  0
  6  7  1  0
  7  8  1  0
  8  9  2  0
  9 10  1  0
 10 11  1  0
 11 12  1  0
 11 13  2  0
 13 14  1  0
 14 15  1  0
 15 16  1  0
 15 17  2  0
 17 18  1  0
 18 19  1  0
 19 20  1  0
 19 21  1  0
 19 22  1  0
 18 23  1  0
 23 24  1  0
 13 25  1  0
 25 26  1  0
  6 27  1  0
 27 28  1  0
 27 29  2  0
 29 30  1  0
 29  2  1  0
 26  7  2  0
 25  9  1  0
 23 14  2  0
M  END
>  <cnnaffinity>  (1) 
-5.28238

>  <filename>  (1) 
Cn1cc(-c2csc3nc(-c4cccnc4)nn23)cn1

$$$$
