
     RDKit          3D

 40 42  0  0  0  0  0  0  0  0999 V2000
    4.9124    1.8258   16.9375 H   0  0  0  0  0  0  0  0  0  0  0  0
    5.3910    1.3234   17.7739 C   0  0  0  0  0  0  0  0  0  0  0  0
    6.5335    0.6735   17.4974 N   0  0  0  0  0  0  0  0  0  0  0  0
    7.1522    0.0528   18.5093 C   0  0  0  0  0  0  0  0  0  0  0  0
    8.0665   -0.4887   18.2812 H   0  0  0  0  0  0  0  0  0  0  0  0
    6.6737    0.0560   19.8318 C   0  0  0  0  0  0  0  0  0  0  0  0
    7.3837   -0.5985   20.9015 N   0  0  0  0  0  0  0  0  0  0  0  0
    6.7401   -1.6330   21.5308 C   0  0  0  0  0  0  0  0  0  0  0  0
    5.7236   -1.8222   21.1906 H   0  0  0  0  0  0  0  0  0  0  0  0
    7.3363   -2.3807   22.4981 C   0  0  0  0  0  0  0  0  0  0  0  0
    6.6444   -3.6453   22.9214 C   0  0  0  0  0  0  0  0  0  0  0  0
    5.9078   -4.2676   22.1693 O   0  0  0  0  0  0  0  0  0  0  0  0
    6.9327   -4.0563   24.2008 N   0  0  0  0  0  0  0  0  0  0  0  0
    6.9712   -3.1406   25.3539 C   0  0  0  0  0  0  0  0  0  0  0  0
    5.9937   -3.1750   25.8618 H   0  0  0  0  0  0  0  0  0  0  0  0
    7.1329   -2.1121   25.0204 H   0  0  0  0  0  0  0  0  0  0  0  0
    8.0577   -3.5455   26.3634 C   0  0  0  0  0  0  0  0  0  0  0  0
    7.9066   -2.9321   27.2621 H   0  0  0  0  0  0  0  0  0  0  0  0
    9.0755   -3.3106   25.9793 H   0  0  0  0  0  0  0  0  0  0  0  0
    7.9051   -4.9517   26.7143 N   0  0  0  0  0  0  0  0  0  0  0  0
    8.5894   -5.3337   27.9261 C   0  0  0  0  0  0  0  0  0  0  0  0
    8.3836   -6.3735   28.1942 H   0  0  0  0  0  0  0  0  0  0  0  0
    8.1553   -4.7115   28.7112 H   0  0  0  0  0  0  0  0  0  0  0  0
    9.6868   -5.2122   27.9286 H   0  0  0  0  0  0  0  0  0  0  0  0
    7.9842   -5.8262   25.5436 C   0  0  0  0  0  0  0  0  0  0  0  0
    8.9496   -5.7297   25.0050 H   0  0  0  0  0  0  0  0  0  0  0  0
    7.8879   -6.8714   25.8673 H   0  0  0  0  0  0  0  0  0  0  0  0
    6.8256   -5.4709   24.5845 C   0  0  0  0  0  0  0  0  0  0  0  0
    5.8752   -5.6370   25.1125 H   0  0  0  0  0  0  0  0  0  0  0  0
    6.8253   -6.0942   23.6832 H   0  0  0  0  0  0  0  0  0  0  0  0
    8.6400   -1.9976   22.9426 C   0  0  0  0  0  0  0  0  0  0  0  0
    9.1171   -2.5362   23.7622 H   0  0  0  0  0  0  0  0  0  0  0  0
    9.3077   -0.9819   22.3335 C   0  0  0  0  0  0  0  0  0  0  0  0
   10.3053   -0.6775   22.6106 H   0  0  0  0  0  0  0  0  0  0  0  0
    8.7363   -0.2194   21.2357 C   0  0  0  0  0  0  0  0  0  0  0  0
    9.3234    0.6619   20.6325 O   0  0  0  0  0  0  0  0  0  0  0  0
    5.4487    0.6785   20.0911 C   0  0  0  0  0  0  0  0  0  0  0  0
    5.0272    0.6326   21.0966 H   0  0  0  0  0  0  0  0  0  0  0  0
    4.8031    1.3435   19.0443 C   0  0  0  0  0  0  0  0  0  0  0  0
    3.8616    1.8591   19.2038 H   0  0  0  0  0  0  0  0  0  0  0  0
  1  2  1  0
  2  3  2  0
  3  4  1  0
  4  5  1  0
  4  6  2  0
  6  7  1  0
  7  8  1  0
  8  9  1  0
  8 10  2  0
 10 11  1  0
 11 12  2  0
 11 13  1  0
 13 14  1  0
 14 15  1  0
 14 16  1  0
 14 17  1  0
 17 18  1  0
 17 19  1  0
 17 20  1  0
 20 21  1  0
 21 22  1  0
 21 23  1  0
 21 24  1  0
 20 25  1  0
 25 26  1  0
 25 27  1  0
 25 28  1  0
 28 29  1  0
 28 30  1  0
 10 31  1  0
 31 32  1  0
 31 33  2  0
 33 34  1  0
 33 35  1  0
 35 36  2  0
  6 37  1  0
 37 38  1  0
 37 39  2  0
 39 40  1  0
 39  2  1  0
 35  7  1  0
 28 13  1  0
M  END
>  <cnnaffinity>  (1) 
-5.16648

>  <filename>  (1) 
CN1CCN(C(=O)c2ccc(=O)n(-c3cccnc3)c2)CC1

$$$$
