
     RDKit          3D

 35 37  0  0  0  0  0  0  0  0999 V2000
    4.9468    1.8137   16.9652 H   0  0  0  0  0  0  0  0  0  0  0  0
    5.4141    1.3169   17.8184 C   0  0  0  0  0  0  0  0  0  0  0  0
    6.5820    0.6964   17.5947 N   0  0  0  0  0  0  0  0  0  0  0  0
    7.1660    0.0814   18.6344 C   0  0  0  0  0  0  0  0  0  0  0  0
    8.1163   -0.4039   18.4206 H   0  0  0  0  0  0  0  0  0  0  0  0
    6.6452    0.0315   19.9478 C   0  0  0  0  0  0  0  0  0  0  0  0
    7.3382   -0.6731   21.0612 C   0  0  0  0  0  0  0  0  0  0  0  0
    8.0667   -1.8347   21.1498 C   0  0  0  0  0  0  0  0  0  0  0  0
    8.2249   -2.5958   20.4073 H   0  0  0  0  0  0  0  0  0  0  0  0
    8.5928   -2.0315   22.3961 N   0  0  0  0  0  0  0  0  0  0  0  0
    8.1788   -1.0081   23.0977 C   0  0  0  0  0  0  0  0  0  0  0  0
    8.3851   -0.8216   24.1436 H   0  0  0  0  0  0  0  0  0  0  0  0
    7.3919   -0.1642   22.3590 N   0  0  0  0  0  0  0  0  0  0  0  0
    6.7560    1.0038   22.7833 N   0  0  0  0  0  0  0  0  0  0  0  0
    7.4077    2.2476   22.3093 C   0  0  0  0  0  0  0  0  0  0  0  0
    7.9709    2.0283   21.3908 H   0  0  0  0  0  0  0  0  0  0  0  0
    6.6143    2.9534   22.0378 H   0  0  0  0  0  0  0  0  0  0  0  0
    8.3453    2.9051   23.3406 C   0  0  0  0  0  0  0  0  0  0  0  0
    9.2769    2.3069   23.4046 H   0  0  0  0  0  0  0  0  0  0  0  0
    8.6190    3.9001   22.9624 H   0  0  0  0  0  0  0  0  0  0  0  0
    7.6817    3.0463   24.6428 N   0  0  0  0  0  0  0  0  0  0  0  0
    8.4509    3.8331   25.5885 C   0  0  0  0  0  0  0  0  0  0  0  0
    8.6417    4.8273   25.1670 H   0  0  0  0  0  0  0  0  0  0  0  0
    7.8750    3.9663   26.5116 H   0  0  0  0  0  0  0  0  0  0  0  0
    9.4240    3.3802   25.8544 H   0  0  0  0  0  0  0  0  0  0  0  0
    7.2920    1.7286   25.1588 C   0  0  0  0  0  0  0  0  0  0  0  0
    6.7927    1.8624   26.1280 H   0  0  0  0  0  0  0  0  0  0  0  0
    8.1676    1.0705   25.3411 H   0  0  0  0  0  0  0  0  0  0  0  0
    6.3012    1.0427   24.1911 C   0  0  0  0  0  0  0  0  0  0  0  0
    5.3659    1.6112   24.2064 H   0  0  0  0  0  0  0  0  0  0  0  0
    6.0768    0.0220   24.5361 H   0  0  0  0  0  0  0  0  0  0  0  0
    5.4345    0.7193   20.1560 C   0  0  0  0  0  0  0  0  0  0  0  0
    5.0216    0.7765   21.1613 H   0  0  0  0  0  0  0  0  0  0  0  0
    4.8064    1.3398   19.0770 C   0  0  0  0  0  0  0  0  0  0  0  0
    3.8617    1.8504   19.2012 H   0  0  0  0  0  0  0  0  0  0  0  0
  1  2  1  0
  2  3  2  0
  3  4  1  0
  4  5  1  0
  4  6  2  0
  6  7  1  0
  7  8  2  0
  8  9  1  0
  8 10  1  0
 10 11  2  0
 11 12  1  0
 11 13  1  0
 13 14  1  0
 14 15  1  0
 15 16  1  0
 15 17  1  0
 15 18  1  0
 18 19  1  0
 18 20  1  0
 18 21  1  0
 21 22  1  0
 22 23  1  0
 22 24  1  0
 22 25  1  0
 21 26  1  0
 26 27  1  0
 26 28  1  0
 26 29  1  0
 29 30  1  0
 29 31  1  0
  6 32  1  0
 32 33  1  0
 32 34  2  0
 34 35  1  0
 34  2  1  0
 13  7  1  0
 29 14  1  0
M  END
>  <cnnaffinity>  (1) 
-4.70457

>  <filename>  (1) 
CN1CCN(n2cncc2-c2cccnc2)CC1

$$$$
