
     RDKit          3D

 38 41  0  0  0  0  0  0  0  0999 V2000
    4.9257    1.7827   16.9979 H   0  0  0  0  0  0  0  0  0  0  0  0
    5.4045    1.2945   17.8394 C   0  0  0  0  0  0  0  0  0  0  0  0
    6.5671    0.6774   17.5768 N   0  0  0  0  0  0  0  0  0  0  0  0
    7.1670    0.0442   18.5857 C   0  0  0  0  0  0  0  0  0  0  0  0
    8.1186   -0.4357   18.3674 H   0  0  0  0  0  0  0  0  0  0  0  0
    6.6464    0.0036   19.8880 C   0  0  0  0  0  0  0  0  0  0  0  0
    7.3727   -0.6905   20.9381 C   0  0  0  0  0  0  0  0  0  0  0  0
    8.0607   -1.8608   20.7188 N   0  0  0  0  0  0  0  0  0  0  0  0
    8.4911   -2.1865   21.9044 C   0  0  0  0  0  0  0  0  0  0  0  0
    9.4850   -3.4373   22.5753 S   0  0  0  0  0  0  0  0  0  0  0  0
    9.4909   -2.6674   24.1381 C   0  0  0  0  0  0  0  0  0  0  0  0
   10.0658   -3.1341   24.9284 H   0  0  0  0  0  0  0  0  0  0  0  0
    8.7390   -1.5571   24.1491 C   0  0  0  0  0  0  0  0  0  0  0  0
    8.5751   -0.8804   24.9805 H   0  0  0  0  0  0  0  0  0  0  0  0
    8.1511   -1.3158   22.9061 N   0  0  0  0  0  0  0  0  0  0  0  0
    7.4464   -0.3019   22.2818 C   0  0  0  0  0  0  0  0  0  0  0  0
    7.1300    0.8532   22.9302 N   0  0  0  0  0  0  0  0  0  0  0  0
    7.4302    2.1555   22.3216 C   0  0  0  0  0  0  0  0  0  0  0  0
    6.5534    2.6066   21.8275 H   0  0  0  0  0  0  0  0  0  0  0  0
    8.1738    1.9886   21.5388 H   0  0  0  0  0  0  0  0  0  0  0  0
    7.9727    3.1068   23.4060 C   0  0  0  0  0  0  0  0  0  0  0  0
    8.1338    4.1009   22.9782 H   0  0  0  0  0  0  0  0  0  0  0  0
    8.9509    2.7344   23.7310 H   0  0  0  0  0  0  0  0  0  0  0  0
    7.1085    3.2247   24.5926 N   0  0  0  0  0  0  0  0  0  0  0  0
    5.8932    3.9831   24.3163 C   0  0  0  0  0  0  0  0  0  0  0  0
    5.3168    4.0943   25.2399 H   0  0  0  0  0  0  0  0  0  0  0  0
    6.1613    4.9841   23.9638 H   0  0  0  0  0  0  0  0  0  0  0  0
    5.2216    3.5361   23.5593 H   0  0  0  0  0  0  0  0  0  0  0  0
    6.8260    1.8843   25.1335 C   0  0  0  0  0  0  0  0  0  0  0  0
    7.7593    1.4707   25.5337 H   0  0  0  0  0  0  0  0  0  0  0  0
    6.1333    1.9827   25.9743 H   0  0  0  0  0  0  0  0  0  0  0  0
    6.2607    0.8839   24.1064 C   0  0  0  0  0  0  0  0  0  0  0  0
    5.2284    1.1787   23.8452 H   0  0  0  0  0  0  0  0  0  0  0  0
    6.1876   -0.1202   24.5309 H   0  0  0  0  0  0  0  0  0  0  0  0
    5.4293    0.6558   20.1517 C   0  0  0  0  0  0  0  0  0  0  0  0
    5.0032    0.6372   21.1608 H   0  0  0  0  0  0  0  0  0  0  0  0
    4.8011    1.3133   19.1013 C   0  0  0  0  0  0  0  0  0  0  0  0
    3.8718    1.8436   19.2568 H   0  0  0  0  0  0  0  0  0  0  0  0
  1  2  1  0
  2  3  2  0
  3  4  1  0
  4  5  1  0
  4  6  2  0
  6  7  1  0
  7  8  1  0
  8  9  2  0
  9 10  1  0
 10 11  1  0
 11 12  1  0
 11 13  2  0
 13 14  1  0
 13 15  1  0
 15 16  1  0
 16 17  1  0
 17 18  1  0
 18 19  1  0
 18 20  1  0
 18 21  1  0
 21 22  1  0
 21 23  1  0
 21 24  1  0
 24 25  1  0
 25 26  1  0
 25 27  1  0
 25 28  1  0
 24 29  1  0
 29 30  1  0
 29 31  1  0
 29 32  1  0
 32 33  1  0
 32 34  1  0
  6 35  1  0
 35 36  1  0
 35 37  2  0
 37 38  1  0
 37  2  1  0
 16  7  2  0
 32 17  1  0
 15  9  1  0
M  END
>  <cnnaffinity>  (1) 
-5.43394

>  <filename>  (1) 
CN1CCN(c2c(-c3cccnc3)nc3sccn23)CC1

$$$$
