
     RDKit          3D

 37 39  0  0  0  0  0  0  0  0999 V2000
    4.9428    1.8015   16.9816 H   0  0  0  0  0  0  0  0  0  0  0  0
    5.3907    1.2971   17.8360 C   0  0  0  0  0  0  0  0  0  0  0  0
    6.5432    0.6621   17.5903 N   0  0  0  0  0  0  0  0  0  0  0  0
    7.1283    0.0263   18.6087 C   0  0  0  0  0  0  0  0  0  0  0  0
    8.1052   -0.4071   18.4000 H   0  0  0  0  0  0  0  0  0  0  0  0
    6.5836   -0.0460   19.9081 C   0  0  0  0  0  0  0  0  0  0  0  0
    7.2952   -0.7723   21.0108 C   0  0  0  0  0  0  0  0  0  0  0  0
    6.5726   -1.5656   21.7695 N   0  0  0  0  0  0  0  0  0  0  0  0
    7.1753   -2.1742   22.8221 N   0  0  0  0  0  0  0  0  0  0  0  0
    6.4714   -3.0708   23.5773 N   0  0  0  0  0  0  0  0  0  0  0  0
    6.3192   -2.7915   25.0280 C   0  0  0  0  0  0  0  0  0  0  0  0
    5.5359   -2.0347   25.1890 H   0  0  0  0  0  0  0  0  0  0  0  0
    7.2543   -2.3630   25.4109 H   0  0  0  0  0  0  0  0  0  0  0  0
    5.9889   -4.1066   25.7565 C   0  0  0  0  0  0  0  0  0  0  0  0
    5.8321   -3.9111   26.8253 H   0  0  0  0  0  0  0  0  0  0  0  0
    6.8601   -4.7891   25.6642 H   0  0  0  0  0  0  0  0  0  0  0  0
    4.7718   -4.7270   25.2082 N   0  0  0  0  0  0  0  0  0  0  0  0
    4.4230   -5.9436   25.9368 C   0  0  0  0  0  0  0  0  0  0  0  0
    5.1989   -6.7351   25.8786 H   0  0  0  0  0  0  0  0  0  0  0  0
    4.2634   -5.7146   26.9979 H   0  0  0  0  0  0  0  0  0  0  0  0
    3.4875   -6.3640   25.5481 H   0  0  0  0  0  0  0  0  0  0  0  0
    4.9414   -4.9838   23.7671 C   0  0  0  0  0  0  0  0  0  0  0  0
    4.0092   -5.4183   23.3843 H   0  0  0  0  0  0  0  0  0  0  0  0
    5.7577   -5.7118   23.5832 H   0  0  0  0  0  0  0  0  0  0  0  0
    5.2709   -3.6906   22.9849 C   0  0  0  0  0  0  0  0  0  0  0  0
    4.4095   -3.0119   23.0116 H   0  0  0  0  0  0  0  0  0  0  0  0
    5.5073   -3.8983   21.9369 H   0  0  0  0  0  0  0  0  0  0  0  0
    8.5257   -2.1179   23.0364 C   0  0  0  0  0  0  0  0  0  0  0  0
    8.7880   -2.7786   23.8558 H   0  0  0  0  0  0  0  0  0  0  0  0
    9.3420   -1.3712   22.2924 C   0  0  0  0  0  0  0  0  0  0  0  0
   10.4096   -1.2855   22.4340 H   0  0  0  0  0  0  0  0  0  0  0  0
    8.7688   -0.5943   21.2149 C   0  0  0  0  0  0  0  0  0  0  0  0
    9.4712    0.1451   20.5252 O   0  0  0  0  0  0  0  0  0  0  0  0
    5.3811    0.6323   20.1508 C   0  0  0  0  0  0  0  0  0  0  0  0
    4.9622    0.6394   21.1580 H   0  0  0  0  0  0  0  0  0  0  0  0
    4.7829    1.3237   19.0953 C   0  0  0  0  0  0  0  0  0  0  0  0
    3.8612    1.8735   19.2259 H   0  0  0  0  0  0  0  0  0  0  0  0
  1  2  1  0
  2  3  2  0
  3  4  1  0
  4  5  1  0
  4  6  2  0
  6  7  1  0
  7  8  2  0
  8  9  1  0
  9 10  1  0
 10 11  1  0
 11 12  1  0
 11 13  1  0
 11 14  1  0
 14 15  1  0
 14 16  1  0
 14 17  1  0
 17 18  1  0
 18 19  1  0
 18 20  1  0
 18 21  1  0
 17 22  1  0
 22 23  1  0
 22 24  1  0
 22 25  1  0
 25 26  1  0
 25 27  1  0
  9 28  1  0
 28 29  1  0
 28 30  2  0
 30 31  1  0
 30 32  1  0
 32 33  2  0
  6 34  1  0
 34 35  1  0
 34 36  2  0
 36 37  1  0
 36  2  1  0
 32  7  1  0
 25 10  1  0
M  END
>  <cnnaffinity>  (1) 
-5.02581

>  <filename>  (1) 
CN1CCN(n2ccc(=O)c(-c3cccnc3)n2)CC1

$$$$
