
     RDKit          3D

 32 35  0  0  0  0  0  0  0  0999 V2000
    4.9339    1.8026   16.9470 H   0  0  0  0  0  0  0  0  0  0  0  0
    5.4191    1.3103   17.7815 C   0  0  0  0  0  0  0  0  0  0  0  0
    6.5832    0.7000   17.5159 N   0  0  0  0  0  0  0  0  0  0  0  0
    7.2184    0.1074   18.5318 C   0  0  0  0  0  0  0  0  0  0  0  0
    8.1556   -0.3932   18.2880 H   0  0  0  0  0  0  0  0  0  0  0  0
    6.7208    0.0829   19.8465 C   0  0  0  0  0  0  0  0  0  0  0  0
    7.4194   -0.6733   20.9006 C   0  0  0  0  0  0  0  0  0  0  0  0
    8.6475   -1.1901   20.7398 N   0  0  0  0  0  0  0  0  0  0  0  0
    8.8232   -1.8843   21.8859 N   0  0  0  0  0  0  0  0  0  0  0  0
    9.7886   -2.7656   22.3550 C   0  0  0  0  0  0  0  0  0  0  0  0
   10.7263   -2.8778   21.8419 H   0  0  0  0  0  0  0  0  0  0  0  0
    9.2577   -3.3413   23.4667 C   0  0  0  0  0  0  0  0  0  0  0  0
    9.6365   -4.1391   24.0848 H   0  0  0  0  0  0  0  0  0  0  0  0
    8.0070   -2.7775   23.7275 N   0  0  0  0  0  0  0  0  0  0  0  0
    7.1291   -3.1036   24.7706 C   0  0  0  0  0  0  0  0  0  0  0  0
    6.0594   -2.3198   25.2811 C   0  0  0  0  0  0  0  0  0  0  0  0
    5.7597   -1.3186   25.0051 H   0  0  0  0  0  0  0  0  0  0  0  0
    5.4024   -2.9695   26.2268 N   0  0  0  0  0  0  0  0  0  0  0  0
    6.0080   -4.1547   26.3303 N   0  0  0  0  0  0  0  0  0  0  0  0
    5.5673   -5.1048   27.3250 C   0  0  0  0  0  0  0  0  0  0  0  0
    6.1523   -4.9953   28.2403 H   0  0  0  0  0  0  0  0  0  0  0  0
    4.5183   -4.9092   27.5407 H   0  0  0  0  0  0  0  0  0  0  0  0
    5.6721   -6.1235   26.9476 H   0  0  0  0  0  0  0  0  0  0  0  0
    7.0602   -4.2768   25.4953 C   0  0  0  0  0  0  0  0  0  0  0  0
    7.6344   -5.1903   25.4441 H   0  0  0  0  0  0  0  0  0  0  0  0
    7.7614   -1.8535   22.7202 C   0  0  0  0  0  0  0  0  0  0  0  0
    6.8353   -1.0025   22.1412 C   0  0  0  0  0  0  0  0  0  0  0  0
    5.9134   -0.5860   22.4805 H   0  0  0  0  0  0  0  0  0  0  0  0
    5.4866    0.7129   20.0966 C   0  0  0  0  0  0  0  0  0  0  0  0
    5.0359    0.7095   21.0905 H   0  0  0  0  0  0  0  0  0  0  0  0
    4.8279    1.3344   19.0464 C   0  0  0  0  0  0  0  0  0  0  0  0
    3.8785    1.8317   19.1998 H   0  0  0  0  0  0  0  0  0  0  0  0
  1  2  1  0
  2  3  2  0
  3  4  1  0
  4  5  1  0
  4  6  2  0
  6  7  1  0
  7  8  2  0
  8  9  1  0
  9 10  1  0
 10 11  1  0
 10 12  2  0
 12 13  1  0
 12 14  1  0
 14 15  1  0
 15 16  1  0
 16 17  1  0
 16 18  2  0
 18 19  1  0
 19 20  1  0
 20 21  1  0
 20 22  1  0
 20 23  1  0
 19 24  1  0
 24 25  1  0
 14 26  1  0
 26 27  2  0
 27 28  1  0
  6 29  1  0
 29 30  1  0
 29 31  2  0
 31 32  1  0
 31  2  1  0
 27  7  1  0
 26  9  1  0
 24 15  2  0
M  END
>  <cnnaffinity>  (1) 
-5.55942

>  <filename>  (1) 
Cn1cc(-n2ccn3nc(-c4cccnc4)cc23)cn1

$$$$
