
     RDKit          3D

 32 34  0  0  0  0  0  0  0  0999 V2000
    7.0206    1.7471   22.1015 H   0  0  0  0  0  0  0  0  0  0  0  0
    7.3400    0.9593   22.7873 C   0  0  0  0  0  0  0  0  0  0  0  0
    7.5634   -0.2851   22.3270 C   0  0  0  0  0  0  0  0  0  0  0  0
    7.3843   -0.7490   20.9390 C   0  0  0  0  0  0  0  0  0  0  0  0
    6.6429    0.0109   19.9106 C   0  0  0  0  0  0  0  0  0  0  0  0
    7.1630    0.0478   18.6104 C   0  0  0  0  0  0  0  0  0  0  0  0
    8.1078   -0.4443   18.3811 H   0  0  0  0  0  0  0  0  0  0  0  0
    6.5699    0.6747   17.5906 N   0  0  0  0  0  0  0  0  0  0  0  0
    5.4047    1.2930   17.8404 C   0  0  0  0  0  0  0  0  0  0  0  0
    4.9406    1.7881   16.9901 H   0  0  0  0  0  0  0  0  0  0  0  0
    4.7976    1.3119   19.0992 C   0  0  0  0  0  0  0  0  0  0  0  0
    3.8666    1.8438   19.2397 H   0  0  0  0  0  0  0  0  0  0  0  0
    5.4235    0.6589   20.1582 C   0  0  0  0  0  0  0  0  0  0  0  0
    4.9748    0.6469   21.1538 H   0  0  0  0  0  0  0  0  0  0  0  0
    7.9179   -1.8888   20.6931 N   0  0  0  0  0  0  0  0  0  0  0  0
    8.5101   -2.4279   21.9215 C   0  0  0  0  0  0  0  0  0  0  0  0
    9.5907   -2.5201   21.7669 H   0  0  0  0  0  0  0  0  0  0  0  0
    8.1176   -3.4345   22.1009 H   0  0  0  0  0  0  0  0  0  0  0  0
    8.1759   -1.4466   23.0782 C   0  0  0  0  0  0  0  0  0  0  0  0
    9.0569   -1.1490   23.6564 H   0  0  0  0  0  0  0  0  0  0  0  0
    7.4606   -1.8867   23.7838 H   0  0  0  0  0  0  0  0  0  0  0  0
    7.5297    1.4108   24.1521 C   0  0  0  0  0  0  0  0  0  0  0  0
    7.6043    0.7006   25.3807 C   0  0  0  0  0  0  0  0  0  0  0  0
    7.5227   -0.3651   25.5676 H   0  0  0  0  0  0  0  0  0  0  0  0
    7.7746    1.5223   26.4038 N   0  0  0  0  0  0  0  0  0  0  0  0
    7.8256    2.7447   25.8678 N   0  0  0  0  0  0  0  0  0  0  0  0
    7.9238    3.9116   26.7110 C   0  0  0  0  0  0  0  0  0  0  0  0
    8.5570    4.6489   26.2130 H   0  0  0  0  0  0  0  0  0  0  0  0
    6.9363    4.3366   26.9173 H   0  0  0  0  0  0  0  0  0  0  0  0
    8.3675    3.5881   27.6452 H   0  0  0  0  0  0  0  0  0  0  0  0
    7.6745    2.7342   24.5325 C   0  0  0  0  0  0  0  0  0  0  0  0
    7.7061    3.6534   23.9627 H   0  0  0  0  0  0  0  0  0  0  0  0
  1  2  1  0
  2  3  2  3
  3  4  1  0
  4  5  1  0
  5  6  2  0
  6  7  1  0
  6  8  1  0
  8  9  2  0
  9 10  1  0
  9 11  1  0
 11 12  1  0
 11 13  2  0
 13 14  1  0
  4 15  2  0
 15 16  1  0
 16 17  1  0
 16 18  1  0
 16 19  1  0
 19 20  1  0
 19 21  1  0
  2 22  1  0
 22 23  1  0
 23 24  1  0
 23 25  2  0
 25 26  1  0
 26 27  1  0
 27 28  1  0
 27 29  1  0
 27 30  1  0
 26 31  1  0
 31 32  1  0
 19  3  1  0
 31 22  2  0
 13  5  1  0
M  END
>  <cnnaffinity>  (1) 
-4.85709

>  <filename>  (1) 
Cn1cc(C=C2CCN=C2c2cccnc2)cn1

$$$$
