
     RDKit          3D

 28 29  0  0  0  0  0  0  0  0999 V2000
    5.0013    1.7437   17.0444 H   0  0  0  0  0  0  0  0  0  0  0  0
    5.4751    1.2558   17.8900 C   0  0  0  0  0  0  0  0  0  0  0  0
    6.6344    0.6350   17.6331 N   0  0  0  0  0  0  0  0  0  0  0  0
    7.2393    0.0179   18.6527 C   0  0  0  0  0  0  0  0  0  0  0  0
    8.1773   -0.4770   18.3989 H   0  0  0  0  0  0  0  0  0  0  0  0
    6.7147   -0.0178   19.9494 C   0  0  0  0  0  0  0  0  0  0  0  0
    7.4030   -0.7472   21.0290 C   0  0  0  0  0  0  0  0  0  0  0  0
    6.8482   -1.1636   22.0233 O   0  0  0  0  0  0  0  0  0  0  0  0
    8.7500   -0.9405   20.8639 N   0  0  0  0  0  0  0  0  0  0  0  0
    9.4093   -0.3173   20.4345 H   0  0  0  0  0  0  0  0  0  0  0  0
    9.5364   -1.8065   22.0184 S   0  0  0  0  0  0  0  0  0  0  0  0
    8.8938   -3.1039   22.0652 O   0  0  0  0  0  0  0  0  0  0  0  0
   10.8947   -1.5899   21.5592 O   0  0  0  0  0  0  0  0  0  0  0  0
    9.2899   -0.9946   23.6932 C   0  0  0  0  0  0  0  0  0  0  0  0
    9.7674    0.1711   24.0787 N   0  0  0  0  0  0  0  0  0  0  0  0
    9.3849    0.3230   25.3874 C   0  0  0  0  0  0  0  0  0  0  0  0
    9.6506    1.2027   25.9546 H   0  0  0  0  0  0  0  0  0  0  0  0
    8.6768   -0.7757   25.7872 C   0  0  0  0  0  0  0  0  0  0  0  0
    8.2028   -1.0270   26.7255 H   0  0  0  0  0  0  0  0  0  0  0  0
    8.6200   -1.6176   24.7131 N   0  0  0  0  0  0  0  0  0  0  0  0
    7.9851   -2.9240   24.7231 C   0  0  0  0  0  0  0  0  0  0  0  0
    7.2588   -2.9868   23.9167 H   0  0  0  0  0  0  0  0  0  0  0  0
    7.4801   -3.0512   25.6836 H   0  0  0  0  0  0  0  0  0  0  0  0
    8.7306   -3.7096   24.6039 H   0  0  0  0  0  0  0  0  0  0  0  0
    5.4838    0.6173   20.2049 C   0  0  0  0  0  0  0  0  0  0  0  0
    5.0424    0.6008   21.2057 H   0  0  0  0  0  0  0  0  0  0  0  0
    4.8631    1.2747   19.1498 C   0  0  0  0  0  0  0  0  0  0  0  0
    3.9236    1.7989   19.2860 H   0  0  0  0  0  0  0  0  0  0  0  0
  1  2  1  0
  2  3  2  0
  3  4  1  0
  4  5  1  0
  4  6  2  0
  6  7  1  0
  7  8  2  0
  7  9  1  0
  9 10  1  0
  9 11  1  0
 11 12  2  0
 11 13  2  0
 11 14  1  0
 14 15  2  0
 15 16  1  0
 16 17  1  0
 16 18  2  0
 18 19  1  0
 18 20  1  0
 20 21  1  0
 21 22  1  0
 21 23  1  0
 21 24  1  0
  6 25  1  0
 25 26  1  0
 25 27  2  0
 27 28  1  0
 27  2  1  0
 20 14  1  0
M  END
>  <cnnaffinity>  (1) 
-4.95795

>  <filename>  (1) 
Cn1ccnc1S(=O)(=O)NC(=O)c1cccnc1

$$$$
