
     RDKit          3D

 39 41  0  0  0  0  0  0  0  0999 V2000
    4.9835    1.8094   17.0090 H   0  0  0  0  0  0  0  0  0  0  0  0
    5.4323    1.2908   17.8522 C   0  0  0  0  0  0  0  0  0  0  0  0
    6.5851    0.6507   17.6068 N   0  0  0  0  0  0  0  0  0  0  0  0
    7.1556    0.0158   18.6332 C   0  0  0  0  0  0  0  0  0  0  0  0
    8.0750   -0.5201   18.3978 H   0  0  0  0  0  0  0  0  0  0  0  0
    6.6259   -0.0330   19.9333 C   0  0  0  0  0  0  0  0  0  0  0  0
    7.4177   -0.7272   20.9735 C   0  0  0  0  0  0  0  0  0  0  0  0
    6.6603   -1.3195   21.9474 O   0  0  0  0  0  0  0  0  0  0  0  0
    7.2666   -2.0114   22.9645 C   0  0  0  0  0  0  0  0  0  0  0  0
    6.2501   -2.8062   23.8181 C   0  0  0  0  0  0  0  0  0  0  0  0
    5.2538   -3.3323   23.3476 O   0  0  0  0  0  0  0  0  0  0  0  0
    6.5882   -2.9653   25.1545 N   0  0  0  0  0  0  0  0  0  0  0  0
    6.0787   -4.1017   25.9367 C   0  0  0  0  0  0  0  0  0  0  0  0
    5.5998   -4.8268   25.2770 H   0  0  0  0  0  0  0  0  0  0  0  0
    6.9386   -4.5927   26.4165 H   0  0  0  0  0  0  0  0  0  0  0  0
    5.1296   -3.6285   27.0448 C   0  0  0  0  0  0  0  0  0  0  0  0
    4.2134   -3.1929   26.5964 H   0  0  0  0  0  0  0  0  0  0  0  0
    4.8201   -4.4906   27.6530 H   0  0  0  0  0  0  0  0  0  0  0  0
    5.8175   -2.6721   27.9162 N   0  0  0  0  0  0  0  0  0  0  0  0
    5.0328   -2.3216   29.0858 C   0  0  0  0  0  0  0  0  0  0  0  0
    4.9064   -3.2111   29.7159 H   0  0  0  0  0  0  0  0  0  0  0  0
    5.5512   -1.5716   29.6959 H   0  0  0  0  0  0  0  0  0  0  0  0
    4.0292   -1.9273   28.8356 H   0  0  0  0  0  0  0  0  0  0  0  0
    6.3550   -1.5225   27.1861 C   0  0  0  0  0  0  0  0  0  0  0  0
    5.5584   -0.8548   26.8019 H   0  0  0  0  0  0  0  0  0  0  0  0
    6.9785   -0.9255   27.8686 H   0  0  0  0  0  0  0  0  0  0  0  0
    7.2617   -1.9938   26.0300 C   0  0  0  0  0  0  0  0  0  0  0  0
    8.1360   -2.4896   26.4777 H   0  0  0  0  0  0  0  0  0  0  0  0
    7.6181   -1.1367   25.4551 H   0  0  0  0  0  0  0  0  0  0  0  0
    8.6220   -2.0273   23.0853 C   0  0  0  0  0  0  0  0  0  0  0  0
    9.1312   -2.5377   23.8900 H   0  0  0  0  0  0  0  0  0  0  0  0
    9.4887   -1.4183   22.0629 C   0  0  0  0  0  0  0  0  0  0  0  0
   10.7074   -1.4763   22.1048 O   0  0  0  0  0  0  0  0  0  0  0  0
    8.7663   -0.7649   20.9872 C   0  0  0  0  0  0  0  0  0  0  0  0
    9.3720   -0.2846   20.2322 H   0  0  0  0  0  0  0  0  0  0  0  0
    5.3989    0.6147   20.1657 C   0  0  0  0  0  0  0  0  0  0  0  0
    4.9386    0.5878   21.1528 H   0  0  0  0  0  0  0  0  0  0  0  0
    4.8040    1.2953   19.1027 C   0  0  0  0  0  0  0  0  0  0  0  0
    3.8711    1.8315   19.2312 H   0  0  0  0  0  0  0  0  0  0  0  0
  1  2  1  0
  2  3  2  0
  3  4  1  0
  4  5  1  0
  4  6  2  0
  6  7  1  0
  7  8  1  0
  8  9  1  0
  9 10  1  0
 10 11  2  0
 10 12  1  0
 12 13  1  0
 13 14  1  0
 13 15  1  0
 13 16  1  0
 16 17  1  0
 16 18  1  0
 16 19  1  0
 19 20  1  0
 20 21  1  0
 20 22  1  0
 20 23  1  0
 19 24  1  0
 24 25  1  0
 24 26  1  0
 24 27  1  0
 27 28  1  0
 27 29  1  0
  9 30  2  0
 30 31  1  0
 30 32  1  0
 32 33  2  0
 32 34  1  0
 34 35  1  0
  6 36  1  0
 36 37  1  0
 36 38  2  0
 38 39  1  0
 38  2  1  0
 34  7  2  0
 27 12  1  0
M  END
>  <cnnaffinity>  (1) 
-4.72782

>  <filename>  (1) 
CN1CCN(C(=O)c2cc(=O)cc(-c3cccnc3)o2)CC1

$$$$
