
     RDKit          3D

 37 39  0  0  0  0  0  0  0  0999 V2000
    5.1265    1.6165   16.4639 H   0  0  0  0  0  0  0  0  0  0  0  0
    5.5508    1.3139   17.4178 C   0  0  0  0  0  0  0  0  0  0  0  0
    6.7606    0.7354   17.3795 N   0  0  0  0  0  0  0  0  0  0  0  0
    7.2989    0.3327   18.5456 C   0  0  0  0  0  0  0  0  0  0  0  0
    8.2815   -0.1360   18.4898 H   0  0  0  0  0  0  0  0  0  0  0  0
    6.6553    0.4694   19.8005 C   0  0  0  0  0  0  0  0  0  0  0  0
    7.1666   -0.0634   21.0087 N   0  0  0  0  0  0  0  0  0  0  0  0
    6.5749    0.1471   21.8071 H   0  0  0  0  0  0  0  0  0  0  0  0
    8.5696   -0.0817   21.2813 C   0  0  0  0  0  0  0  0  0  0  0  0
    9.4794    1.0120   21.1867 C   0  0  0  0  0  0  0  0  0  0  0  0
    9.2407    2.0434   20.9729 H   0  0  0  0  0  0  0  0  0  0  0  0
   10.7394    0.6639   21.3892 N   0  0  0  0  0  0  0  0  0  0  0  0
   10.6495   -0.6511   21.6890 N   0  0  0  0  0  0  0  0  0  0  0  0
   11.4570   -1.2483   21.6954 H   0  0  0  0  0  0  0  0  0  0  0  0
    9.3849   -1.1497   21.6529 C   0  0  0  0  0  0  0  0  0  0  0  0
    9.1813   -2.4776   22.0235 N   0  0  0  0  0  0  0  0  0  0  0  0
    7.8421   -3.0434   21.7965 C   0  0  0  0  0  0  0  0  0  0  0  0
    7.4816   -2.7427   20.8095 H   0  0  0  0  0  0  0  0  0  0  0  0
    7.1360   -2.6511   22.5483 H   0  0  0  0  0  0  0  0  0  0  0  0
    7.8470   -4.5943   21.9154 C   0  0  0  0  0  0  0  0  0  0  0  0
    6.8206   -4.9045   22.1952 H   0  0  0  0  0  0  0  0  0  0  0  0
    8.0597   -5.0577   20.9414 H   0  0  0  0  0  0  0  0  0  0  0  0
    8.8350   -5.1187   22.8812 N   0  0  0  0  0  0  0  0  0  0  0  0
    8.4750   -6.4043   23.4433 C   0  0  0  0  0  0  0  0  0  0  0  0
    9.3118   -6.7738   24.0508 H   0  0  0  0  0  0  0  0  0  0  0  0
    8.2882   -7.1461   22.6561 H   0  0  0  0  0  0  0  0  0  0  0  0
    7.5750   -6.3357   24.0852 H   0  0  0  0  0  0  0  0  0  0  0  0
    9.1619   -4.1495   23.9252 C   0  0  0  0  0  0  0  0  0  0  0  0
    8.2732   -3.9073   24.5458 H   0  0  0  0  0  0  0  0  0  0  0  0
    9.9079   -4.5735   24.6108 H   0  0  0  0  0  0  0  0  0  0  0  0
    9.7517   -2.8516   23.3431 C   0  0  0  0  0  0  0  0  0  0  0  0
   10.8369   -2.9610   23.2249 H   0  0  0  0  0  0  0  0  0  0  0  0
    9.5683   -2.0338   24.0552 H   0  0  0  0  0  0  0  0  0  0  0  0
    5.4038    1.1031   19.8094 C   0  0  0  0  0  0  0  0  0  0  0  0
    4.8877    1.2560   20.7558 H   0  0  0  0  0  0  0  0  0  0  0  0
    4.8423    1.5317   18.6026 C   0  0  0  0  0  0  0  0  0  0  0  0
    3.8788    2.0332   18.5726 H   0  0  0  0  0  0  0  0  0  0  0  0
  1  2  1  0
  2  3  2  0
  3  4  1  0
  4  5  1  0
  4  6  2  0
  6  7  1  0
  7  8  1  0
  7  9  1  0
  9 10  1  0
 10 11  1  0
 10 12  2  0
 12 13  1  0
 13 14  1  0
 13 15  1  0
 15 16  1  0
 16 17  1  0
 17 18  1  0
 17 19  1  0
 17 20  1  0
 20 21  1  0
 20 22  1  0
 20 23  1  0
 23 24  1  0
 24 25  1  0
 24 26  1  0
 24 27  1  0
 23 28  1  0
 28 29  1  0
 28 30  1  0
 28 31  1  0
 31 32  1  0
 31 33  1  0
  6 34  1  0
 34 35  1  0
 34 36  2  0
 36 37  1  0
 36  2  1  0
 15  9  2  0
 31 16  1  0
M  END
>  <cnnaffinity>  (1) 
-5.43247

>  <filename>  (1) 
CN1CCN(c2[nH]ncc2Nc2cccnc2)CC1

$$$$
