
     RDKit          3D

 39 42  0  0  0  0  0  0  0  0999 V2000
    4.9405    1.7971   16.8920 H   0  0  0  0  0  0  0  0  0  0  0  0
    5.4373    1.3348   17.7443 C   0  0  0  0  0  0  0  0  0  0  0  0
    6.6111    0.7372   17.4900 N   0  0  0  0  0  0  0  0  0  0  0  0
    7.2241    0.1242   18.5099 C   0  0  0  0  0  0  0  0  0  0  0  0
    8.1693   -0.3664   18.2888 H   0  0  0  0  0  0  0  0  0  0  0  0
    6.7074    0.0796   19.8193 C   0  0  0  0  0  0  0  0  0  0  0  0
    7.3845   -0.6877   20.8783 C   0  0  0  0  0  0  0  0  0  0  0  0
    8.5966   -1.2351   20.6993 N   0  0  0  0  0  0  0  0  0  0  0  0
    8.7697   -1.9369   21.8403 N   0  0  0  0  0  0  0  0  0  0  0  0
    9.7652   -2.7702   22.3268 C   0  0  0  0  0  0  0  0  0  0  0  0
   10.7293   -2.8387   21.8528 H   0  0  0  0  0  0  0  0  0  0  0  0
    9.2717   -3.2915   23.4752 C   0  0  0  0  0  0  0  0  0  0  0  0
    9.6817   -3.9999   24.1739 H   0  0  0  0  0  0  0  0  0  0  0  0
    7.9995   -2.7987   23.7020 N   0  0  0  0  0  0  0  0  0  0  0  0
    7.3182   -3.0954   24.8785 N   0  0  0  0  0  0  0  0  0  0  0  0
    6.6629   -4.4254   24.9093 C   0  0  0  0  0  0  0  0  0  0  0  0
    5.7424   -4.4251   24.3009 H   0  0  0  0  0  0  0  0  0  0  0  0
    7.3223   -5.1985   24.4983 H   0  0  0  0  0  0  0  0  0  0  0  0
    6.3123   -4.7503   26.3658 C   0  0  0  0  0  0  0  0  0  0  0  0
    5.8402   -5.7410   26.4104 H   0  0  0  0  0  0  0  0  0  0  0  0
    7.2525   -4.7969   26.9532 H   0  0  0  0  0  0  0  0  0  0  0  0
    5.3764   -3.7539   26.9175 N   0  0  0  0  0  0  0  0  0  0  0  0
    5.0122   -4.0675   28.2905 C   0  0  0  0  0  0  0  0  0  0  0  0
    4.5411   -5.0561   28.3350 H   0  0  0  0  0  0  0  0  0  0  0  0
    5.8771   -4.0810   28.9804 H   0  0  0  0  0  0  0  0  0  0  0  0
    4.2898   -3.3360   28.6703 H   0  0  0  0  0  0  0  0  0  0  0  0
    5.9391   -2.3960   26.7858 C   0  0  0  0  0  0  0  0  0  0  0  0
    6.8309   -2.2550   27.4309 H   0  0  0  0  0  0  0  0  0  0  0  0
    5.1766   -1.6688   27.0968 H   0  0  0  0  0  0  0  0  0  0  0  0
    6.3281   -2.0902   25.3302 C   0  0  0  0  0  0  0  0  0  0  0  0
    5.4124   -2.1393   24.7078 H   0  0  0  0  0  0  0  0  0  0  0  0
    6.7440   -1.0793   25.2414 H   0  0  0  0  0  0  0  0  0  0  0  0
    7.7136   -1.9059   22.6822 C   0  0  0  0  0  0  0  0  0  0  0  0
    6.8040   -1.0220   22.1243 C   0  0  0  0  0  0  0  0  0  0  0  0
    5.9684   -0.5525   22.6051 H   0  0  0  0  0  0  0  0  0  0  0  0
    5.4907    0.7324   20.0725 C   0  0  0  0  0  0  0  0  0  0  0  0
    5.0524    0.7440   21.0755 H   0  0  0  0  0  0  0  0  0  0  0  0
    4.8438    1.3628   19.0136 C   0  0  0  0  0  0  0  0  0  0  0  0
    3.8880    1.8535   19.1549 H   0  0  0  0  0  0  0  0  0  0  0  0
  1  2  1  0
  2  3  2  0
  3  4  1  0
  4  5  1  0
  4  6  2  0
  6  7  1  0
  7  8  2  0
  8  9  1  0
  9 10  1  0
 10 11  1  0
 10 12  2  0
 12 13  1  0
 12 14  1  0
 14 15  1  0
 15 16  1  0
 16 17  1  0
 16 18  1  0
 16 19  1  0
 19 20  1  0
 19 21  1  0
 19 22  1  0
 22 23  1  0
 23 24  1  0
 23 25  1  0
 23 26  1  0
 22 27  1  0
 27 28  1  0
 27 29  1  0
 27 30  1  0
 30 31  1  0
 30 32  1  0
 14 33  1  0
 33 34  2  0
 34 35  1  0
  6 36  1  0
 36 37  1  0
 36 38  2  0
 38 39  1  0
 38  2  1  0
 34  7  1  0
 33  9  1  0
 30 15  1  0
M  END
>  <cnnaffinity>  (1) 
-5.30253

>  <filename>  (1) 
CN1CCN(n2ccn3nc(-c4cccnc4)cc23)CC1

$$$$
