
     RDKit          3D

 35 38  0  0  0  0  0  0  0  0999 V2000
    4.8756    1.9147   16.6663 H   0  0  0  0  0  0  0  0  0  0  0  0
    5.2386    1.4694   17.5899 C   0  0  0  0  0  0  0  0  0  0  0  0
    6.4070    0.8166   17.4980 N   0  0  0  0  0  0  0  0  0  0  0  0
    6.9064    0.3003   18.6272 C   0  0  0  0  0  0  0  0  0  0  0  0
    7.8559   -0.2278   18.5213 H   0  0  0  0  0  0  0  0  0  0  0  0
    6.3043    0.3968   19.8971 C   0  0  0  0  0  0  0  0  0  0  0  0
    7.0070   -0.1908   21.1104 C   0  0  1  0  0  0  0  0  0  0  0  0
    6.4051    0.0170   22.0011 H   0  0  0  0  0  0  0  0  0  0  0  0
    7.1545   -1.7519   21.0380 C   0  0  0  0  0  0  0  0  0  0  0  0
    6.9968   -2.1187   20.0176 H   0  0  0  0  0  0  0  0  0  0  0  0
    6.4282   -2.2762   21.6647 H   0  0  0  0  0  0  0  0  0  0  0  0
    8.5587   -1.9792   21.4883 C   0  0  0  0  0  0  0  0  0  0  0  0
    9.2479   -3.0640   21.7848 N   0  0  0  0  0  0  0  0  0  0  0  0
   10.4839   -2.5689   22.0443 N   0  0  0  0  0  0  0  0  0  0  0  0
   11.2393   -3.2111   22.2361 H   0  0  0  0  0  0  0  0  0  0  0  0
   10.5969   -1.2155   21.8771 C   0  0  0  0  0  0  0  0  0  0  0  0
   11.8433   -0.4758   22.0147 C   0  0  0  0  0  0  0  0  0  0  0  0
   13.1900   -0.9203   22.1846 C   0  0  0  0  0  0  0  0  0  0  0  0
   13.6154   -1.9178   22.1432 H   0  0  0  0  0  0  0  0  0  0  0  0
   14.0114    0.0915   22.4157 N   0  0  0  0  0  0  0  0  0  0  0  0
   13.2434    1.1894   22.3688 N   0  0  0  0  0  0  0  0  0  0  0  0
   13.7613    2.4729   22.7912 C   0  0  0  0  0  0  0  0  0  0  0  0
   13.7191    2.5562   23.8811 H   0  0  0  0  0  0  0  0  0  0  0  0
   14.7969    2.5622   22.4664 H   0  0  0  0  0  0  0  0  0  0  0  0
   13.1725    3.2654   22.3198 H   0  0  0  0  0  0  0  0  0  0  0  0
   11.9545    0.9008   22.0937 C   0  0  0  0  0  0  0  0  0  0  0  0
   11.2273    1.6911   21.9281 H   0  0  0  0  0  0  0  0  0  0  0  0
    9.3059   -0.8036   21.5777 C   0  0  0  0  0  0  0  0  0  0  0  0
    8.4404    0.4160   21.3893 C   0  0  0  0  0  0  0  0  0  0  0  0
    8.7966    1.0658   20.5749 H   0  0  0  0  0  0  0  0  0  0  0  0
    8.4016    1.0726   22.2744 H   0  0  0  0  0  0  0  0  0  0  0  0
    5.0553    1.0415   19.9515 C   0  0  0  0  0  0  0  0  0  0  0  0
    4.5129    1.1168   20.8957 H   0  0  0  0  0  0  0  0  0  0  0  0
    4.5172    1.5863   18.7809 C   0  0  0  0  0  0  0  0  0  0  0  0
    3.5722    2.1197   18.7814 H   0  0  0  0  0  0  0  0  0  0  0  0
  1  2  1  0
  2  3  2  0
  3  4  1  0
  4  5  1  0
  4  6  2  0
  6  7  1  0
  7  8  1  1
  7  9  1  0
  9 10  1  0
  9 11  1  0
  9 12  1  0
 12 13  2  0
 13 14  1  0
 14 15  1  0
 14 16  1  0
 16 17  1  0
 17 18  1  0
 18 19  1  0
 18 20  2  0
 20 21  1  0
 21 22  1  0
 22 23  1  0
 22 24  1  0
 22 25  1  0
 21 26  1  0
 26 27  1  0
 16 28  2  0
 28 29  1  0
 29 30  1  0
 29 31  1  0
  6 32  1  0
 32 33  1  0
 32 34  2  0
 34 35  1  0
 34  2  1  0
 29  7  1  0
 28 12  1  0
 26 17  2  0
M  END
>  <cnnaffinity>  (1) 
-5.61988

>  <filename>  (1) 
Cn1cc(-c2[nH]nc3c2C[C@@H](c2cccnc2)C3)cn1

$$$$
