
     RDKit          3D

 30 32  0  0  0  0  0  0  0  0999 V2000
    4.9123    1.8153   16.9682 H   0  0  0  0  0  0  0  0  0  0  0  0
    5.3821    1.3103   17.8111 C   0  0  0  0  0  0  0  0  0  0  0  0
    6.5442    0.6901   17.5472 N   0  0  0  0  0  0  0  0  0  0  0  0
    7.1563    0.0696   18.5616 C   0  0  0  0  0  0  0  0  0  0  0  0
    8.1118   -0.3924   18.3149 H   0  0  0  0  0  0  0  0  0  0  0  0
    6.6563    0.0167   19.8796 C   0  0  0  0  0  0  0  0  0  0  0  0
    7.3838   -0.6537   20.9744 C   0  0  0  0  0  0  0  0  0  0  0  0
    7.5391   -0.3172   22.3129 C   0  0  0  0  0  0  0  0  0  0  0  0
    7.1015    0.8622   22.9099 N   0  0  0  0  0  0  0  0  0  0  0  0
    6.9456    1.6557   22.3009 H   0  0  0  0  0  0  0  0  0  0  0  0
    6.7679    0.9731   24.2455 C   0  0  0  0  0  0  0  0  0  0  0  0
    6.4437   -0.0052   25.1626 C   0  0  0  0  0  0  0  0  0  0  0  0
    6.3837   -1.0573   24.9289 H   0  0  0  0  0  0  0  0  0  0  0  0
    6.2063    0.7082   26.3534 C   0  0  0  0  0  0  0  0  0  0  0  0
    5.9207    0.3290   27.3293 H   0  0  0  0  0  0  0  0  0  0  0  0
    6.3579    2.0154   26.1948 N   0  0  0  0  0  0  0  0  0  0  0  0
    6.7014    2.1654   24.8950 N   0  0  0  0  0  0  0  0  0  0  0  0
    6.9121    3.4893   24.3490 C   0  0  0  0  0  0  0  0  0  0  0  0
    7.8810    3.5507   23.8376 H   0  0  0  0  0  0  0  0  0  0  0  0
    6.9026    4.1798   25.1938 H   0  0  0  0  0  0  0  0  0  0  0  0
    6.1131    3.7654   23.6480 H   0  0  0  0  0  0  0  0  0  0  0  0
    8.3043   -1.3711   22.8727 C   0  0  0  0  0  0  0  0  0  0  0  0
    8.6458   -1.4650   23.8944 H   0  0  0  0  0  0  0  0  0  0  0  0
    8.6071   -2.2900   21.9616 N   0  0  0  0  0  0  0  0  0  0  0  0
    8.0515   -1.8319   20.8304 N   0  0  0  0  0  0  0  0  0  0  0  0
    8.1208   -2.3762   19.9838 H   0  0  0  0  0  0  0  0  0  0  0  0
    5.4321    0.6611   20.1269 C   0  0  0  0  0  0  0  0  0  0  0  0
    5.0056    0.6274   21.1280 H   0  0  0  0  0  0  0  0  0  0  0  0
    4.7871    1.3190   19.0780 C   0  0  0  0  0  0  0  0  0  0  0  0
    3.8552    1.8536   19.2298 H   0  0  0  0  0  0  0  0  0  0  0  0
  1  2  1  0
  2  3  2  0
  3  4  1  0
  4  5  1  0
  4  6  2  0
  6  7  1  0
  7  8  2  0
  8  9  1  0
  9 10  1  0
  9 11  1  0
 11 12  2  0
 12 13  1  0
 12 14  1  0
 14 15  1  0
 14 16  2  0
 16 17  1  0
 17 18  1  0
 18 19  1  0
 18 20  1  0
 18 21  1  0
  8 22  1  0
 22 23  1  0
 22 24  2  0
 24 25  1  0
 25 26  1  0
  6 27  1  0
 27 28  1  0
 27 29  2  0
 29 30  1  0
 29  2  1  0
 25  7  1  0
 17 11  1  0
M  END
>  <cnnaffinity>  (1) 
-5.10373

>  <filename>  (1) 
Cn1nccc1Nc1cn[nH]c1-c1cccnc1

$$$$
