
     RDKit          3D

 32 34  0  0  0  0  0  0  0  0999 V2000
    8.2962   -2.0372   20.2721 H   0  0  0  0  0  0  0  0  0  0  0  0
    8.0040   -1.4758   21.1470 C   0  0  0  0  0  0  0  0  0  0  0  0
    7.1055   -0.4881   21.1594 C   0  0  0  0  0  0  0  0  0  0  0  0
    6.4847    0.1145   19.9737 C   0  0  0  0  0  0  0  0  0  0  0  0
    7.0689    0.0135   18.6910 C   0  0  0  0  0  0  0  0  0  0  0  0
    7.9960   -0.5427   18.5444 H   0  0  0  0  0  0  0  0  0  0  0  0
    6.5781    0.5940   17.5879 N   0  0  0  0  0  0  0  0  0  0  0  0
    5.4531    1.3162   17.7231 C   0  0  0  0  0  0  0  0  0  0  0  0
    5.0752    1.7888   16.8195 H   0  0  0  0  0  0  0  0  0  0  0  0
    4.7753    1.4733   18.9363 C   0  0  0  0  0  0  0  0  0  0  0  0
    3.8728    2.0790   18.9838 H   0  0  0  0  0  0  0  0  0  0  0  0
    5.2998    0.8669   20.0754 C   0  0  0  0  0  0  0  0  0  0  0  0
    4.8082    0.9689   21.0433 H   0  0  0  0  0  0  0  0  0  0  0  0
    6.8870    0.0040   22.5782 C   0  0  0  0  0  0  0  0  0  0  0  0
    6.9683    1.0913   22.6395 H   0  0  0  0  0  0  0  0  0  0  0  0
    5.8766   -0.2178   22.9153 H   0  0  0  0  0  0  0  0  0  0  0  0
    7.9222   -0.7521   23.4421 C   0  0  0  0  0  0  0  0  0  0  0  0
    8.5953   -0.0883   23.9933 H   0  0  0  0  0  0  0  0  0  0  0  0
    7.3935   -1.3450   24.1910 H   0  0  0  0  0  0  0  0  0  0  0  0
    8.6656   -1.7232   22.4731 C   0  0  2  0  0  0  0  0  0  0  0  0
    8.4755   -2.7540   22.7989 H   0  0  0  0  0  0  0  0  0  0  0  0
   10.1696   -1.6313   22.3792 C   0  0  0  0  0  0  0  0  0  0  0  0
   11.1214   -2.5905   22.6565 C   0  0  0  0  0  0  0  0  0  0  0  0
   10.9703   -3.5328   23.1666 H   0  0  0  0  0  0  0  0  0  0  0  0
   12.3154   -2.0792   22.1239 C   0  0  0  0  0  0  0  0  0  0  0  0
   13.2910   -2.5527   22.1236 H   0  0  0  0  0  0  0  0  0  0  0  0
   12.1390   -0.8773   21.5940 N   0  0  0  0  0  0  0  0  0  0  0  0
   10.8397   -0.6087   21.7791 N   0  0  0  0  0  0  0  0  0  0  0  0
   10.3062    0.6842   21.4070 C   0  0  0  0  0  0  0  0  0  0  0  0
    9.6996    0.6080   20.5001 H   0  0  0  0  0  0  0  0  0  0  0  0
    9.6875    1.0659   22.2212 H   0  0  0  0  0  0  0  0  0  0  0  0
   11.1458    1.3617   21.2507 H   0  0  0  0  0  0  0  0  0  0  0  0
  1  2  1  0
  2  3  2  0
  3  4  1  0
  4  5  2  0
  5  6  1  0
  5  7  1  0
  7  8  2  0
  8  9  1  0
  8 10  1  0
 10 11  1  0
 10 12  2  0
 12 13  1  0
  3 14  1  0
 14 15  1  0
 14 16  1  0
 14 17  1  0
 17 18  1  0
 17 19  1  0
 17 20  1  0
 20 21  1  1
 20 22  1  0
 22 23  2  0
 23 24  1  0
 23 25  1  0
 25 26  1  0
 25 27  2  0
 27 28  1  0
 28 29  1  0
 29 30  1  0
 29 31  1  0
 29 32  1  0
 20  2  1  0
 28 22  1  0
 12  4  1  0
M  END
>  <cnnaffinity>  (1) 
-5.27382

>  <filename>  (1) 
Cn1nccc1[C@@H]1C=C(c2cccnc2)CC1

$$$$
