
     RDKit          3D

 27 28  0  0  0  0  0  0  0  0999 V2000
    4.9741    1.7633   17.0500 H   0  0  0  0  0  0  0  0  0  0  0  0
    5.4464    1.2532   17.8851 C   0  0  0  0  0  0  0  0  0  0  0  0
    6.6092    0.6318   17.6223 N   0  0  0  0  0  0  0  0  0  0  0  0
    7.2206    0.0084   18.6377 C   0  0  0  0  0  0  0  0  0  0  0  0
    8.1712   -0.4690   18.3976 H   0  0  0  0  0  0  0  0  0  0  0  0
    6.7118   -0.0516   19.9708 C   0  0  0  0  0  0  0  0  0  0  0  0
    7.3603   -0.7050   20.9910 N   0  0  0  0  0  0  0  0  0  0  0  0
    8.6129   -1.4307   21.0369 C   0  0  0  0  0  0  0  0  0  0  0  0
    9.4978   -0.8200   20.8193 H   0  0  0  0  0  0  0  0  0  0  0  0
    8.6382   -2.3231   20.4076 H   0  0  0  0  0  0  0  0  0  0  0  0
    8.3256   -1.7158   22.5275 C   0  0  0  0  0  0  0  0  0  0  0  0
    9.0526   -1.2743   23.2123 H   0  0  0  0  0  0  0  0  0  0  0  0
    8.1917   -3.1907   22.8443 C   0  0  0  0  0  0  0  0  0  0  0  0
    8.6948   -4.0700   22.1734 O   0  0  0  0  0  0  0  0  0  0  0  0
    7.4497   -3.4710   23.9431 N   0  0  0  0  0  0  0  0  0  0  0  0
    7.0779   -2.6968   24.4542 H   0  0  0  0  0  0  0  0  0  0  0  0
    7.2008   -4.8304   24.3851 C   0  0  0  0  0  0  0  0  0  0  0  0
    6.5710   -4.8235   25.2793 H   0  0  0  0  0  0  0  0  0  0  0  0
    8.1386   -5.3489   24.6104 H   0  0  0  0  0  0  0  0  0  0  0  0
    6.6981   -5.4006   23.5980 H   0  0  0  0  0  0  0  0  0  0  0  0
    7.0143   -0.8907   22.3879 C   0  0  0  0  0  0  0  0  0  0  0  0
    6.9760    0.0389   22.9722 H   0  0  0  0  0  0  0  0  0  0  0  0
    6.0714   -1.4302   22.5382 H   0  0  0  0  0  0  0  0  0  0  0  0
    5.4837    0.6076   20.2090 C   0  0  0  0  0  0  0  0  0  0  0  0
    5.0497    0.6083   21.2086 H   0  0  0  0  0  0  0  0  0  0  0  0
    4.8502    1.2643   19.1522 C   0  0  0  0  0  0  0  0  0  0  0  0
    3.9131    1.7971   19.3051 H   0  0  0  0  0  0  0  0  0  0  0  0
  1  2  1  0
  2  3  2  0
  3  4  1  0
  4  5  1  0
  4  6  2  0
  6  7  1  0
  7  8  1  0
  8  9  1  0
  8 10  1  0
  8 11  1  0
 11 12  1  0
 11 13  1  0
 13 14  2  0
 13 15  1  0
 15 16  1  0
 15 17  1  0
 17 18  1  0
 17 19  1  0
 17 20  1  0
 11 21  1  0
 21 22  1  0
 21 23  1  0
  6 24  1  0
 24 25  1  0
 24 26  2  0
 26 27  1  0
 26  2  1  0
 21  7  1  0
M  END
>  <cnnaffinity>  (1) 
-4.30845

>  <filename>  (1) 
CNC(=O)C1CN(c2cccnc2)C1

$$$$
