
     RDKit          3D

 26 27  0  0  0  0  0  0  0  0999 V2000
    4.9706    1.8049   16.9738 H   0  0  0  0  0  0  0  0  0  0  0  0
    5.4476    1.2955   17.8135 C   0  0  0  0  0  0  0  0  0  0  0  0
    6.6080    0.6693   17.5546 N   0  0  0  0  0  0  0  0  0  0  0  0
    7.2100    0.0418   18.5751 C   0  0  0  0  0  0  0  0  0  0  0  0
    8.1391   -0.4692   18.3331 H   0  0  0  0  0  0  0  0  0  0  0  0
    6.7031   -0.0095   19.8875 C   0  0  0  0  0  0  0  0  0  0  0  0
    7.3693   -0.7494   20.9665 C   0  0  0  0  0  0  0  0  0  0  0  0
    6.8292   -1.2775   22.0790 C   0  0  0  0  0  0  0  0  0  0  0  0
    5.8105   -1.3207   22.4009 H   0  0  0  0  0  0  0  0  0  0  0  0
    7.8446   -1.8805   22.8176 N   0  0  0  0  0  0  0  0  0  0  0  0
    7.6498   -2.3999   24.1277 C   0  0  0  0  0  0  0  0  0  0  0  0
    6.8149   -1.9190   24.8602 O   0  0  0  0  0  0  0  0  0  0  0  0
    8.4024   -3.4840   24.3989 N   0  0  0  0  0  0  0  0  0  0  0  0
    9.2221   -3.5553   23.8068 H   0  0  0  0  0  0  0  0  0  0  0  0
    8.4002   -4.0643   25.7339 C   0  0  0  0  0  0  0  0  0  0  0  0
    8.7381   -3.3616   26.5087 H   0  0  0  0  0  0  0  0  0  0  0  0
    7.3964   -4.4137   26.0008 H   0  0  0  0  0  0  0  0  0  0  0  0
    9.0711   -4.9221   25.7288 H   0  0  0  0  0  0  0  0  0  0  0  0
    9.0400   -1.7134   22.1789 C   0  0  0  0  0  0  0  0  0  0  0  0
   10.5718   -2.1742   22.6314 S   0  0  0  0  0  0  0  0  0  0  0  0
    8.7278   -1.0460   21.0460 N   0  0  0  0  0  0  0  0  0  0  0  0
    9.4916   -0.6699   20.5104 H   0  0  0  0  0  0  0  0  0  0  0  0
    5.4839    0.6510   20.1324 C   0  0  0  0  0  0  0  0  0  0  0  0
    5.0500    0.6660   21.1346 H   0  0  0  0  0  0  0  0  0  0  0  0
    4.8469    1.3102   19.0797 C   0  0  0  0  0  0  0  0  0  0  0  0
    3.9058    1.8354   19.2200 H   0  0  0  0  0  0  0  0  0  0  0  0
  1  2  1  0
  2  3  2  0
  3  4  1  0
  4  5  1  0
  4  6  2  0
  6  7  1  0
  7  8  2  0
  8  9  1  0
  8 10  1  0
 10 11  1  0
 11 12  2  0
 11 13  1  0
 13 14  1  0
 13 15  1  0
 15 16  1  0
 15 17  1  0
 15 18  1  0
 10 19  1  0
 19 20  2  0
 19 21  1  0
 21 22  1  0
  6 23  1  0
 23 24  1  0
 23 25  2  0
 25 26  1  0
 25  2  1  0
 21  7  1  0
M  END
>  <cnnaffinity>  (1) 
-4.7343

>  <filename>  (1) 
CNC(=O)n1cc(-c2cccnc2)[nH]c1=S

$$$$
