
     RDKit          3D

 26 27  0  0  0  0  0  0  0  0999 V2000
    4.9277    1.8179   16.9894 H   0  0  0  0  0  0  0  0  0  0  0  0
    5.4076    1.3100   17.8255 C   0  0  0  0  0  0  0  0  0  0  0  0
    6.5721    0.6958   17.5575 N   0  0  0  0  0  0  0  0  0  0  0  0
    7.1789    0.0475   18.5560 C   0  0  0  0  0  0  0  0  0  0  0  0
    8.1292   -0.4401   18.3364 H   0  0  0  0  0  0  0  0  0  0  0  0
    6.6519   -0.0440   19.8557 C   0  0  0  0  0  0  0  0  0  0  0  0
    7.3779   -0.7463   20.8648 N   0  0  0  0  0  0  0  0  0  0  0  0
    8.6870   -0.4464   21.1890 C   0  0  0  0  0  0  0  0  0  0  0  0
    9.1947    0.2909   20.5681 H   0  0  0  0  0  0  0  0  0  0  0  0
    9.0551   -1.2225   22.2452 C   0  0  0  0  0  0  0  0  0  0  0  0
   10.4055   -1.4175   22.9058 C   0  0  0  0  0  0  0  0  0  0  0  0
   10.6023   -2.2260   23.7985 O   0  0  0  0  0  0  0  0  0  0  0  0
   11.3631   -0.6064   22.3750 N   0  0  0  0  0  0  0  0  0  0  0  0
   11.1030   -0.1047   21.5457 H   0  0  0  0  0  0  0  0  0  0  0  0
   12.7774   -0.6422   22.7003 C   0  0  0  0  0  0  0  0  0  0  0  0
   13.2120   -1.6400   22.5543 H   0  0  0  0  0  0  0  0  0  0  0  0
   13.2785    0.0486   22.0219 H   0  0  0  0  0  0  0  0  0  0  0  0
   12.9645   -0.3099   23.7305 H   0  0  0  0  0  0  0  0  0  0  0  0
    7.9204   -1.9999   22.5272 N   0  0  0  0  0  0  0  0  0  0  0  0
    7.7753   -2.6890   23.2534 H   0  0  0  0  0  0  0  0  0  0  0  0
    6.9138   -1.7894   21.6447 C   0  0  0  0  0  0  0  0  0  0  0  0
    5.5321   -2.7003   21.4941 S   0  0  0  0  0  0  0  0  0  0  0  0
    5.4470    0.6073   20.1372 C   0  0  0  0  0  0  0  0  0  0  0  0
    5.0344    0.5842   21.1466 H   0  0  0  0  0  0  0  0  0  0  0  0
    4.8175    1.2995   19.0952 C   0  0  0  0  0  0  0  0  0  0  0  0
    3.8851    1.8312   19.2476 H   0  0  0  0  0  0  0  0  0  0  0  0
  1  2  1  0
  2  3  2  0
  3  4  1  0
  4  5  1  0
  4  6  2  0
  6  7  1  0
  7  8  1  0
  8  9  1  0
  8 10  2  0
 10 11  1  0
 11 12  2  0
 11 13  1  0
 13 14  1  0
 13 15  1  0
 15 16  1  0
 15 17  1  0
 15 18  1  0
 10 19  1  0
 19 20  1  0
 19 21  1  0
 21 22  2  0
  6 23  1  0
 23 24  1  0
 23 25  2  0
 25 26  1  0
 25  2  1  0
 21  7  1  0
M  END
>  <cnnaffinity>  (1) 
-4.61376

>  <filename>  (1) 
CNC(=O)c1cn(-c2cccnc2)c(=S)[nH]1

$$$$
