
     RDKit          3D

 32 33  0  0  0  0  0  0  0  0999 V2000
    4.9845    1.7648   17.0559 H   0  0  0  0  0  0  0  0  0  0  0  0
    5.4522    1.2509   17.8901 C   0  0  0  0  0  0  0  0  0  0  0  0
    6.6143    0.6284   17.6284 N   0  0  0  0  0  0  0  0  0  0  0  0
    7.2259   -0.0009   18.6403 C   0  0  0  0  0  0  0  0  0  0  0  0
    8.1785   -0.4789   18.4017 H   0  0  0  0  0  0  0  0  0  0  0  0
    6.7115   -0.0638   19.9699 C   0  0  0  0  0  0  0  0  0  0  0  0
    7.3488   -0.7331   20.9847 N   0  0  0  0  0  0  0  0  0  0  0  0
    8.6063   -1.4509   21.0246 C   0  0  0  0  0  0  0  0  0  0  0  0
    8.6394   -2.3235   20.3708 H   0  0  0  0  0  0  0  0  0  0  0  0
    9.4820   -0.8185   20.8193 H   0  0  0  0  0  0  0  0  0  0  0  0
    8.3109   -1.7587   22.5136 C   0  0  0  0  0  0  0  0  0  0  0  0
    9.0322   -1.3289   23.2127 H   0  0  0  0  0  0  0  0  0  0  0  0
    8.1328   -3.2113   22.8490 C   0  0  0  0  0  0  0  0  0  0  0  0
    8.5460   -4.1086   22.1461 O   0  0  0  0  0  0  0  0  0  0  0  0
    7.4204   -3.5696   24.1245 C   0  0  0  0  0  0  0  0  0  0  0  0
    8.0713   -4.2201   24.7111 H   0  0  0  0  0  0  0  0  0  0  0  0
    7.1133   -2.7094   24.7140 H   0  0  0  0  0  0  0  0  0  0  0  0
    6.1811   -4.2867   23.6581 C   0  0  0  0  0  0  0  0  0  0  0  0
    5.1546   -3.6910   23.3973 O   0  0  0  0  0  0  0  0  0  0  0  0
    6.3401   -5.6200   23.4994 N   0  0  0  0  0  0  0  0  0  0  0  0
    7.2835   -5.9551   23.5179 H   0  0  0  0  0  0  0  0  0  0  0  0
    5.2533   -6.4872   23.0888 C   0  0  0  0  0  0  0  0  0  0  0  0
    4.4699   -6.4789   23.8512 H   0  0  0  0  0  0  0  0  0  0  0  0
    4.8066   -6.1409   22.1512 H   0  0  0  0  0  0  0  0  0  0  0  0
    5.6143   -7.5114   22.9617 H   0  0  0  0  0  0  0  0  0  0  0  0
    6.9978   -0.9237   22.3808 C   0  0  0  0  0  0  0  0  0  0  0  0
    6.9675    0.0116   22.9637 H   0  0  0  0  0  0  0  0  0  0  0  0
    6.0594   -1.4784   22.5339 H   0  0  0  0  0  0  0  0  0  0  0  0
    5.4885    0.5993   20.2117 C   0  0  0  0  0  0  0  0  0  0  0  0
    5.0614    0.5973   21.2145 H   0  0  0  0  0  0  0  0  0  0  0  0
    4.8580    1.2585   19.1563 C   0  0  0  0  0  0  0  0  0  0  0  0
    3.9233    1.7874   19.3109 H   0  0  0  0  0  0  0  0  0  0  0  0
  1  2  1  0
  2  3  2  0
  3  4  1  0
  4  5  1  0
  4  6  2  0
  6  7  1  0
  7  8  1  0
  8  9  1  0
  8 10  1  0
  8 11  1  0
 11 12  1  0
 11 13  1  0
 13 14  2  0
 13 15  1  0
 15 16  1  0
 15 17  1  0
 15 18  1  0
 18 19  2  0
 18 20  1  0
 20 21  1  0
 20 22  1  0
 22 23  1  0
 22 24  1  0
 22 25  1  0
 11 26  1  0
 26 27  1  0
 26 28  1  0
  6 29  1  0
 29 30  1  0
 29 31  2  0
 31 32  1  0
 31  2  1  0
 26  7  1  0
M  END
>  <cnnaffinity>  (1) 
-4.74194

>  <filename>  (1) 
CNC(=O)CC(=O)C1CN(c2cccnc2)C1

$$$$
