
     RDKit          3D

 29 30  0  0  0  0  0  0  0  0999 V2000
    4.9435    1.7715   17.0254 H   0  0  0  0  0  0  0  0  0  0  0  0
    5.4220    1.2713   17.8643 C   0  0  0  0  0  0  0  0  0  0  0  0
    6.5864    0.6551   17.6030 N   0  0  0  0  0  0  0  0  0  0  0  0
    7.1998    0.0345   18.6206 C   0  0  0  0  0  0  0  0  0  0  0  0
    8.1476   -0.4397   18.3710 H   0  0  0  0  0  0  0  0  0  0  0  0
    6.7023   -0.0332   19.9597 C   0  0  0  0  0  0  0  0  0  0  0  0
    7.3672   -0.6981   20.9688 N   0  0  0  0  0  0  0  0  0  0  0  0
    8.6260   -1.4131   20.9911 C   0  0  0  0  0  0  0  0  0  0  0  0
    8.6628   -2.2967   20.3545 H   0  0  0  0  0  0  0  0  0  0  0  0
    9.5077   -0.8016   20.7610 H   0  0  0  0  0  0  0  0  0  0  0  0
    8.3743   -1.7218   22.5006 C   0  0  0  0  0  0  0  0  0  0  0  0
    9.1206   -1.3136   23.1833 H   0  0  0  0  0  0  0  0  0  0  0  0
    8.1473   -3.1942   22.7942 C   0  0  0  0  0  0  0  0  0  0  0  0
    7.3577   -3.8364   22.1266 O   0  0  0  0  0  0  0  0  0  0  0  0
    8.9816   -3.8711   23.9920 C   0  0  0  0  0  0  0  0  0  0  0  0
    9.7843   -3.2191   24.6463 O   0  0  0  0  0  0  0  0  0  0  0  0
    8.7539   -5.1925   24.2349 N   0  0  0  0  0  0  0  0  0  0  0  0
    8.0664   -5.6818   23.6806 H   0  0  0  0  0  0  0  0  0  0  0  0
    9.4555   -5.8889   25.3109 C   0  0  0  0  0  0  0  0  0  0  0  0
    9.2578   -5.4240   26.2840 H   0  0  0  0  0  0  0  0  0  0  0  0
   10.5397   -5.8719   25.1503 H   0  0  0  0  0  0  0  0  0  0  0  0
    9.1179   -6.9247   25.3486 H   0  0  0  0  0  0  0  0  0  0  0  0
    7.0541   -0.8920   22.3698 C   0  0  0  0  0  0  0  0  0  0  0  0
    6.1321   -1.4503   22.5607 H   0  0  0  0  0  0  0  0  0  0  0  0
    7.0221    0.0340   22.9575 H   0  0  0  0  0  0  0  0  0  0  0  0
    5.4720    0.6232   20.1951 C   0  0  0  0  0  0  0  0  0  0  0  0
    5.0299    0.6196   21.1907 H   0  0  0  0  0  0  0  0  0  0  0  0
    4.8380    1.2813   19.1352 C   0  0  0  0  0  0  0  0  0  0  0  0
    3.9035    1.8138   19.2836 H   0  0  0  0  0  0  0  0  0  0  0  0
  1  2  1  0
  2  3  2  0
  3  4  1  0
  4  5  1  0
  4  6  2  0
  6  7  1  0
  7  8  1  0
  8  9  1  0
  8 10  1  0
  8 11  1  0
 11 12  1  0
 11 13  1  0
 13 14  2  0
 13 15  1  0
 15 16  2  0
 15 17  1  0
 17 18  1  0
 17 19  1  0
 19 20  1  0
 19 21  1  0
 19 22  1  0
 11 23  1  0
 23 24  1  0
 23 25  1  0
  6 26  1  0
 26 27  1  0
 26 28  2  0
 28 29  1  0
 28  2  1  0
 23  7  1  0
M  END
>  <cnnaffinity>  (1) 
-4.42413

>  <filename>  (1) 
CNC(=O)C(=O)C1CN(c2cccnc2)C1

$$$$
