
     RDKit          3D

 23 24  0  0  0  0  0  0  0  0999 V2000
    4.9374    1.8222   17.0010 H   0  0  0  0  0  0  0  0  0  0  0  0
    5.4081    1.3033   17.8308 C   0  0  0  0  0  0  0  0  0  0  0  0
    6.5681    0.6805   17.5541 N   0  0  0  0  0  0  0  0  0  0  0  0
    7.1756    0.0331   18.5568 C   0  0  0  0  0  0  0  0  0  0  0  0
    8.1299   -0.4554   18.3502 H   0  0  0  0  0  0  0  0  0  0  0  0
    6.6498   -0.0234   19.8629 C   0  0  0  0  0  0  0  0  0  0  0  0
    7.3362   -0.7189   20.9234 N   0  0  0  0  0  0  0  0  0  0  0  0
    8.5765   -0.4187   21.4530 C   0  0  0  0  0  0  0  0  0  0  0  0
    9.3373    0.6722   21.1290 N   0  0  0  0  0  0  0  0  0  0  0  0
   10.0859    0.6136   21.8053 H   0  0  0  0  0  0  0  0  0  0  0  0
    8.6979    1.9797   20.9713 C   0  0  0  0  0  0  0  0  0  0  0  0
    8.2782    2.0472   19.9653 H   0  0  0  0  0  0  0  0  0  0  0  0
    9.4499    2.7699   21.0614 H   0  0  0  0  0  0  0  0  0  0  0  0
    7.8888    2.1552   21.6959 H   0  0  0  0  0  0  0  0  0  0  0  0
    9.0016   -1.3148   22.2929 N   0  0  0  0  0  0  0  0  0  0  0  0
    7.9848   -2.2455   22.2767 N   0  0  0  0  0  0  0  0  0  0  0  0
    7.9877   -3.1034   22.8038 H   0  0  0  0  0  0  0  0  0  0  0  0
    6.9625   -1.9465   21.4618 C   0  0  0  0  0  0  0  0  0  0  0  0
    5.6190   -2.8796   21.1563 S   0  0  0  0  0  0  0  0  0  0  0  0
    5.4469    0.6269   20.1405 C   0  0  0  0  0  0  0  0  0  0  0  0
    5.0471    0.5792   21.1535 H   0  0  0  0  0  0  0  0  0  0  0  0
    4.8083    1.3100   19.0966 C   0  0  0  0  0  0  0  0  0  0  0  0
    3.8660    1.8350   19.2528 H   0  0  0  0  0  0  0  0  0  0  0  0
  1  2  1  0
  2  3  2  0
  3  4  1  0
  4  5  1  0
  4  6  2  0
  6  7  1  0
  7  8  1  0
  8  9  1  0
  9 10  1  0
  9 11  1  0
 11 12  1  0
 11 13  1  0
 11 14  1  0
  8 15  2  0
 15 16  1  0
 16 17  1  0
 16 18  1  0
 18 19  2  0
  6 20  1  0
 20 21  1  0
 20 22  2  0
 22 23  1  0
 22  2  1  0
 18  7  1  0
M  END
>  <cnnaffinity>  (1) 
-4.15379

>  <filename>  (1) 
CNc1n[nH]c(=S)n1-c1cccnc1

$$$$
