
     RDKit          3D

 24 25  0  0  0  0  0  0  0  0999 V2000
    5.0165    1.8167   16.9868 H   0  0  0  0  0  0  0  0  0  0  0  0
    5.4614    1.2821   17.8243 C   0  0  0  0  0  0  0  0  0  0  0  0
    6.6063    0.6277   17.5772 N   0  0  0  0  0  0  0  0  0  0  0  0
    7.1884   -0.0199   18.5959 C   0  0  0  0  0  0  0  0  0  0  0  0
    8.1189   -0.5451   18.3842 H   0  0  0  0  0  0  0  0  0  0  0  0
    6.6630   -0.0360   19.8977 C   0  0  0  0  0  0  0  0  0  0  0  0
    7.2162   -0.7290   20.9419 O   0  0  0  0  0  0  0  0  0  0  0  0
    8.5807   -0.7507   21.1238 C   0  0  0  0  0  0  0  0  0  0  0  0
    9.6196    0.0991   20.6793 C   0  0  0  0  0  0  0  0  0  0  0  0
    9.5514    0.9820   20.0581 H   0  0  0  0  0  0  0  0  0  0  0  0
   10.8041   -0.3002   21.1311 N   0  0  0  0  0  0  0  0  0  0  0  0
   10.5168   -1.3989   21.8704 N   0  0  0  0  0  0  0  0  0  0  0  0
   11.2368   -1.9403   22.3209 H   0  0  0  0  0  0  0  0  0  0  0  0
    9.2015   -1.6962   21.9161 C   0  0  0  0  0  0  0  0  0  0  0  0
    8.6651   -2.7876   22.5798 N   0  0  0  0  0  0  0  0  0  0  0  0
    7.6805   -2.6206   22.7448 H   0  0  0  0  0  0  0  0  0  0  0  0
    9.3790   -3.4147   23.6732 C   0  0  0  0  0  0  0  0  0  0  0  0
    8.7614   -4.2340   24.0416 H   0  0  0  0  0  0  0  0  0  0  0  0
    9.6405   -2.7367   24.5021 H   0  0  0  0  0  0  0  0  0  0  0  0
   10.3024   -3.8497   23.2868 H   0  0  0  0  0  0  0  0  0  0  0  0
    5.4629    0.6276   20.1488 C   0  0  0  0  0  0  0  0  0  0  0  0
    5.0588    0.6293   21.1610 H   0  0  0  0  0  0  0  0  0  0  0  0
    4.8554    1.2960   19.0864 C   0  0  0  0  0  0  0  0  0  0  0  0
    3.9295    1.8341   19.2320 H   0  0  0  0  0  0  0  0  0  0  0  0
  1  2  1  0
  2  3  2  0
  3  4  1  0
  4  5  1  0
  4  6  2  0
  6  7  1  0
  7  8  1  0
  8  9  1  0
  9 10  1  0
  9 11  2  0
 11 12  1  0
 12 13  1  0
 12 14  1  0
 14 15  1  0
 15 16  1  0
 15 17  1  0
 17 18  1  0
 17 19  1  0
 17 20  1  0
  6 21  1  0
 21 22  1  0
 21 23  2  0
 23 24  1  0
 23  2  1  0
 14  8  2  0
M  END
>  <cnnaffinity>  (1) 
-4.32741

>  <filename>  (1) 
CNc1[nH]ncc1Oc1cccnc1

$$$$
