
     RDKit          3D

 33 34  0  0  0  0  0  0  0  0999 V2000
    4.9452    1.7706   17.0265 H   0  0  0  0  0  0  0  0  0  0  0  0
    5.4241    1.2694   17.8664 C   0  0  0  0  0  0  0  0  0  0  0  0
    6.5869    0.6537   17.6062 N   0  0  0  0  0  0  0  0  0  0  0  0
    7.2013    0.0321   18.6238 C   0  0  0  0  0  0  0  0  0  0  0  0
    8.1479   -0.4401   18.3708 H   0  0  0  0  0  0  0  0  0  0  0  0
    6.7045   -0.0368   19.9654 C   0  0  0  0  0  0  0  0  0  0  0  0
    7.3690   -0.6986   20.9754 N   0  0  0  0  0  0  0  0  0  0  0  0
    7.0550   -0.8908   22.3796 C   0  0  0  0  0  0  0  0  0  0  0  0
    7.0090    0.0366   22.9656 H   0  0  0  0  0  0  0  0  0  0  0  0
    6.1370   -1.4591   22.5643 H   0  0  0  0  0  0  0  0  0  0  0  0
    8.3801   -1.7051   22.5188 C   0  0  0  0  0  0  0  0  0  0  0  0
    9.1270   -1.2484   23.1745 H   0  0  0  0  0  0  0  0  0  0  0  0
    8.1722   -3.1648   22.8679 C   0  0  0  0  0  0  0  0  0  0  0  0
    7.4167   -3.8459   22.2041 O   0  0  0  0  0  0  0  0  0  0  0  0
    8.9290   -3.7965   24.0230 C   0  0  0  0  0  0  0  0  0  0  0  0
    9.7243   -3.1431   24.4043 H   0  0  0  0  0  0  0  0  0  0  0  0
    9.3998   -4.7078   23.6417 H   0  0  0  0  0  0  0  0  0  0  0  0
    7.9770   -4.1828   25.1484 C   0  0  0  0  0  0  0  0  0  0  0  0
    8.5282   -4.7455   25.9286 H   0  0  0  0  0  0  0  0  0  0  0  0
    7.2090   -4.8642   24.7543 H   0  0  0  0  0  0  0  0  0  0  0  0
    7.3281   -2.9942   25.6654 N   0  0  0  0  0  0  0  0  0  0  0  0
    8.0434   -2.3819   26.0564 H   0  0  0  0  0  0  0  0  0  0  0  0
    6.3416   -3.3076   26.6961 C   0  0  0  0  0  0  0  0  0  0  0  0
    5.8932   -2.3873   27.0866 H   0  0  0  0  0  0  0  0  0  0  0  0
    5.5327   -3.9027   26.2496 H   0  0  0  0  0  0  0  0  0  0  0  0
    6.7454   -3.8875   27.5479 H   0  0  0  0  0  0  0  0  0  0  0  0
    8.6264   -1.4212   21.0040 C   0  0  0  0  0  0  0  0  0  0  0  0
    8.6593   -2.3106   20.3739 H   0  0  0  0  0  0  0  0  0  0  0  0
    9.5093   -0.8137   20.7589 H   0  0  0  0  0  0  0  0  0  0  0  0
    5.4734    0.6211   20.1977 C   0  0  0  0  0  0  0  0  0  0  0  0
    5.0294    0.6186   21.1925 H   0  0  0  0  0  0  0  0  0  0  0  0
    4.8397    1.2797   19.1370 C   0  0  0  0  0  0  0  0  0  0  0  0
    3.9067    1.8113   19.2846 H   0  0  0  0  0  0  0  0  0  0  0  0
  1  2  1  0
  2  3  2  0
  3  4  1  0
  4  5  1  0
  4  6  2  0
  6  7  1  0
  7  8  1  0
  8  9  1  0
  8 10  1  0
  8 11  1  0
 11 12  1  0
 11 13  1  0
 13 14  2  0
 13 15  1  0
 15 16  1  0
 15 17  1  0
 15 18  1  0
 18 19  1  0
 18 20  1  0
 18 21  1  0
 21 22  1  0
 21 23  1  0
 23 24  1  0
 23 25  1  0
 23 26  1  0
 11 27  1  0
 27 28  1  0
 27 29  1  0
  6 30  1  0
 30 31  1  0
 30 32  2  0
 32 33  1  0
 32  2  1  0
 27  7  1  0
M  END
>  <cnnaffinity>  (1) 
-4.5485

>  <filename>  (1) 
CNCCC(=O)C1CN(c2cccnc2)C1

$$$$
