
     RDKit          3D

 33 35  0  0  0  0  0  0  0  0999 V2000
    4.9561    1.8469   16.9680 H   0  0  0  0  0  0  0  0  0  0  0  0
    5.3926    1.3057   17.8067 C   0  0  0  0  0  0  0  0  0  0  0  0
    6.5321    0.6439   17.5524 N   0  0  0  0  0  0  0  0  0  0  0  0
    7.1154    0.0152   18.5778 C   0  0  0  0  0  0  0  0  0  0  0  0
    8.0258   -0.5298   18.3382 H   0  0  0  0  0  0  0  0  0  0  0  0
    6.6227    0.0417   19.8970 C   0  0  0  0  0  0  0  0  0  0  0  0
    7.3869   -0.5705   20.9827 C   0  0  0  0  0  0  0  0  0  0  0  0
    8.0202   -1.7245   20.7777 N   0  0  0  0  0  0  0  0  0  0  0  0
    8.6109   -1.9590   21.9452 N   0  0  0  0  0  0  0  0  0  0  0  0
    8.4560   -1.0043   22.8692 C   0  0  0  0  0  0  0  0  0  0  0  0
    7.6235   -0.0561   22.2994 C   0  0  0  0  0  0  0  0  0  0  0  0
    7.1226    1.2282   22.9195 C   0  0  0  0  0  0  0  0  0  0  0  0
    6.9805    1.9585   22.1124 H   0  0  0  0  0  0  0  0  0  0  0  0
    7.9213    1.6491   23.5675 H   0  0  0  0  0  0  0  0  0  0  0  0
    5.8467    1.0820   23.6258 N   0  0  0  0  0  0  0  0  0  0  0  0
    5.5176    2.0086   23.8844 H   0  0  0  0  0  0  0  0  0  0  0  0
    5.9151    0.2557   24.8252 C   0  0  0  0  0  0  0  0  0  0  0  0
    6.6763    0.5756   25.5620 H   0  0  0  0  0  0  0  0  0  0  0  0
    4.9376    0.2445   25.3178 H   0  0  0  0  0  0  0  0  0  0  0  0
    6.1435   -0.7746   24.5367 H   0  0  0  0  0  0  0  0  0  0  0  0
    9.2948   -1.3273   24.0769 C   0  0  0  0  0  0  0  0  0  0  0  0
    9.9902   -0.5155   24.3074 H   0  0  0  0  0  0  0  0  0  0  0  0
    8.6703   -1.4845   24.9624 H   0  0  0  0  0  0  0  0  0  0  0  0
   10.0622   -2.6178   23.6550 C   0  0  0  0  0  0  0  0  0  0  0  0
    9.9517   -3.4202   24.3870 H   0  0  0  0  0  0  0  0  0  0  0  0
   11.1228   -2.4113   23.5466 H   0  0  0  0  0  0  0  0  0  0  0  0
    9.5296   -3.0138   22.2539 C   0  0  0  0  0  0  0  0  0  0  0  0
    9.0174   -3.9790   22.2164 H   0  0  0  0  0  0  0  0  0  0  0  0
   10.3194   -2.9665   21.5056 H   0  0  0  0  0  0  0  0  0  0  0  0
    5.3980    0.6772   20.1315 C   0  0  0  0  0  0  0  0  0  0  0  0
    4.9529    0.6622   21.1296 H   0  0  0  0  0  0  0  0  0  0  0  0
    4.7759    1.3217   19.0619 C   0  0  0  0  0  0  0  0  0  0  0  0
    3.8443    1.8529   19.1940 H   0  0  0  0  0  0  0  0  0  0  0  0
  1  2  1  0
  2  3  2  0
  3  4  1  0
  4  5  1  0
  4  6  2  0
  6  7  1  0
  7  8  2  0
  8  9  1  0
  9 10  1  0
 10 11  2  0
 11 12  1  0
 12 13  1  0
 12 14  1  0
 12 15  1  0
 15 16  1  0
 15 17  1  0
 17 18  1  0
 17 19  1  0
 17 20  1  0
 10 21  1  0
 21 22  1  0
 21 23  1  0
 21 24  1  0
 24 25  1  0
 24 26  1  0
 24 27  1  0
 27 28  1  0
 27 29  1  0
  6 30  1  0
 30 31  1  0
 30 32  2  0
 32 33  1  0
 32  2  1  0
 11  7  1  0
 27  9  1  0
M  END
>  <cnnaffinity>  (1) 
-4.76968

>  <filename>  (1) 
CNCc1c(-c2cccnc2)nn2c1CCC2

$$$$
