
     RDKit          3D

 31 32  0  0  0  0  0  0  0  0999 V2000
    5.0864    1.8453   17.0417 H   0  0  0  0  0  0  0  0  0  0  0  0
    5.5737    1.3010   17.8519 C   0  0  0  0  0  0  0  0  0  0  0  0
    6.7569    0.7321   17.5722 N   0  0  0  0  0  0  0  0  0  0  0  0
    7.3782    0.0609   18.5548 C   0  0  0  0  0  0  0  0  0  0  0  0
    8.3284   -0.3914   18.2830 H   0  0  0  0  0  0  0  0  0  0  0  0
    6.8509   -0.1119   19.8576 C   0  0  0  0  0  0  0  0  0  0  0  0
    7.4766   -0.8678   20.8893 N   0  0  0  0  0  0  0  0  0  0  0  0
    6.7707   -1.7839   21.6614 C   0  0  0  0  0  0  0  0  0  0  0  0
    5.6405   -2.1820   21.5350 O   0  0  0  0  0  0  0  0  0  0  0  0
    7.6365   -2.2702   22.6095 N   0  0  0  0  0  0  0  0  0  0  0  0
    7.3870   -3.0881   23.1292 H   0  0  0  0  0  0  0  0  0  0  0  0
    8.9240   -1.9066   22.3853 C   0  0  0  0  0  0  0  0  0  0  0  0
    9.8757   -2.3939   22.9433 O   0  0  0  0  0  0  0  0  0  0  0  0
    8.8954   -0.8475   21.2737 C   0  0  2  0  0  0  0  0  0  0  0  0
    9.5169   -1.2527   20.4667 H   0  0  0  0  0  0  0  0  0  0  0  0
    9.4357    0.5430   21.6350 C   0  0  0  0  0  0  0  0  0  0  0  0
    8.7553    1.0532   22.3193 H   0  0  0  0  0  0  0  0  0  0  0  0
    9.4289    1.1255   20.7097 H   0  0  0  0  0  0  0  0  0  0  0  0
   10.8730    0.4861   22.1897 C   0  0  0  0  0  0  0  0  0  0  0  0
   10.8605    0.0173   23.1770 H   0  0  0  0  0  0  0  0  0  0  0  0
   11.4596   -0.1895   21.5519 H   0  0  0  0  0  0  0  0  0  0  0  0
   11.6046    1.7368   22.3089 N   0  0  0  0  0  0  0  0  0  0  0  0
   11.2945    2.2634   23.1205 H   0  0  0  0  0  0  0  0  0  0  0  0
   11.5772    2.5882   21.1328 C   0  0  0  0  0  0  0  0  0  0  0  0
   10.5562    2.8217   20.7876 H   0  0  0  0  0  0  0  0  0  0  0  0
   12.1060    3.5236   21.3466 H   0  0  0  0  0  0  0  0  0  0  0  0
   12.0924    2.1004   20.2990 H   0  0  0  0  0  0  0  0  0  0  0  0
    5.6050    0.4819   20.1211 C   0  0  0  0  0  0  0  0  0  0  0  0
    5.1524    0.3565   21.1033 H   0  0  0  0  0  0  0  0  0  0  0  0
    4.9660    1.2046   19.1096 C   0  0  0  0  0  0  0  0  0  0  0  0
    4.0076    1.6868   19.2865 H   0  0  0  0  0  0  0  0  0  0  0  0
  1  2  1  0
  2  3  2  0
  3  4  1  0
  4  5  1  0
  4  6  2  0
  6  7  1  0
  7  8  1  0
  8  9  2  0
  8 10  1  0
 10 11  1  0
 10 12  1  0
 12 13  2  0
 12 14  1  0
 14 15  1  6
 14 16  1  0
 16 17  1  0
 16 18  1  0
 16 19  1  0
 19 20  1  0
 19 21  1  0
 19 22  1  0
 22 23  1  0
 22 24  1  0
 24 25  1  0
 24 26  1  0
 24 27  1  0
  6 28  1  0
 28 29  1  0
 28 30  2  0
 30 31  1  0
 30  2  1  0
 14  7  1  0
M  END
>  <cnnaffinity>  (1) 
-4.47185

>  <filename>  (1) 
CNCC[C@H]1C(=O)NC(=O)N1c1cccnc1

$$$$
