
     RDKit          3D

 41 43  0  0  0  0  0  0  0  0999 V2000
    2.4984   -6.0583   22.5504 C   0  0  0  0  0  0  0  0  0  0  0  0
    3.1281   -4.9398   23.1243 O   0  0  0  0  0  0  0  0  0  0  0  0
    4.5465   -4.9769   23.1062 C   0  0  2  0  0  0  0  0  0  0  0  0
    5.1182   -5.7213   24.3295 C   0  0  0  0  0  0  0  0  0  0  0  0
    6.6473   -5.5793   24.3968 C   0  0  0  0  0  0  0  0  0  0  0  0
    7.0746   -4.1170   24.3701 C   0  0  0  0  0  0  0  0  0  0  0  0
    6.5060   -3.4799   23.1754 N   0  0  0  0  0  0  0  0  0  0  0  0
    7.1871   -2.4703   22.5783 C   0  0  0  0  0  0  0  0  0  0  0  0
    8.4472   -2.2649   22.9811 N   0  0  0  0  0  0  0  0  0  0  0  0
    9.0893   -1.2739   22.3992 C   0  0  0  0  0  0  0  0  0  0  0  0
    8.5607   -0.4873   21.3835 C   0  0  0  0  0  0  0  0  0  0  0  0
    9.3409    0.6437   20.7747 C   0  0  0  0  0  0  0  0  0  0  0  0
   10.2575    0.8437   21.3371 H   0  0  0  0  0  0  0  0  0  0  0  0
    9.6081    0.4189   19.7408 H   0  0  0  0  0  0  0  0  0  0  0  0
    8.7277    1.5497   20.7437 H   0  0  0  0  0  0  0  0  0  0  0  0
    7.2356   -0.8278   21.0368 C   0  0  0  0  0  0  0  0  0  0  0  0
    6.5228   -0.1003   19.9856 C   0  0  0  0  0  0  0  0  0  0  0  0
    5.3149    0.5763   20.1867 C   0  0  0  0  0  0  0  0  0  0  0  0
    4.7883    1.2897   19.1123 C   0  0  0  0  0  0  0  0  0  0  0  0
    5.4569    1.2650   17.8795 C   0  0  0  0  0  0  0  0  0  0  0  0
    6.5866    0.5748   17.6670 N   0  0  0  0  0  0  0  0  0  0  0  0
    7.0919   -0.0888   18.7094 C   0  0  0  0  0  0  0  0  0  0  0  0
    8.0179   -0.6309   18.5290 H   0  0  0  0  0  0  0  0  0  0  0  0
    5.0689    1.8144   17.0251 H   0  0  0  0  0  0  0  0  0  0  0  0
    3.8779    1.8708   19.2089 H   0  0  0  0  0  0  0  0  0  0  0  0
    4.8112    0.5469   21.1590 H   0  0  0  0  0  0  0  0  0  0  0  0
    6.5556   -1.7999   21.6166 N   0  0  0  0  0  0  0  0  0  0  0  0
   10.0975   -1.0787   22.7766 H   0  0  0  0  0  0  0  0  0  0  0  0
    5.0369   -3.5283   23.0887 C   0  0  0  0  0  0  0  0  0  0  0  0
    4.6807   -3.0446   22.1730 H   0  0  0  0  0  0  0  0  0  0  0  0
    4.5889   -2.9890   23.9389 H   0  0  0  0  0  0  0  0  0  0  0  0
    8.1657   -4.0382   24.3429 H   0  0  0  0  0  0  0  0  0  0  0  0
    6.7252   -3.5693   25.2645 H   0  0  0  0  0  0  0  0  0  0  0  0
    7.1215   -6.0842   23.5419 H   0  0  0  0  0  0  0  0  0  0  0  0
    7.0449   -6.0484   25.3038 H   0  0  0  0  0  0  0  0  0  0  0  0
    4.6589   -5.2991   25.2375 H   0  0  0  0  0  0  0  0  0  0  0  0
    4.8407   -6.7814   24.2933 H   0  0  0  0  0  0  0  0  0  0  0  0
    4.9224   -5.4460   22.1797 H   0  0  0  0  0  0  0  0  0  0  0  0
    1.4361   -5.9849   22.7846 H   0  0  0  0  0  0  0  0  0  0  0  0
    2.6094   -6.0809   21.4621 H   0  0  0  0  0  0  0  0  0  0  0  0
    2.8807   -7.0110   22.9412 H   0  0  0  0  0  0  0  0  0  0  0  0
  1  2  1  0
  2  3  1  0
  3  4  1  0
  4  5  1  0
  5  6  1  0
  6  7  1  0
  7  8  1  0
  8  9  2  0
  9 10  1  0
 10 11  2  0
 11 12  1  0
 12 13  1  0
 12 14  1  0
 12 15  1  0
 11 16  1  0
 16 17  1  0
 17 18  2  0
 18 19  1  0
 19 20  2  0
 20 21  1  0
 21 22  2  0
 22 23  1  0
 20 24  1  0
 19 25  1  0
 18 26  1  0
 16 27  2  0
 10 28  1  0
  7 29  1  0
 29 30  1  0
 29 31  1  0
  6 32  1  0
  6 33  1  0
  5 34  1  0
  5 35  1  0
  4 36  1  0
  4 37  1  0
  3 38  1  6
  1 39  1  0
  1 40  1  0
  1 41  1  0
 29  3  1  0
 27  8  1  0
 22 17  1  0
M  END
>  <cnnaffinity>  (1) 
-5.33405

>  <filename>  (1) 
CO[C@@H]1CCCN(c2ncc(C)c(-c3cccnc3)n2)C1

$$$$
