
     RDKit          3D

 27 29  0  0  0  0  0  0  0  0999 V2000
    4.9504    1.7993   16.9739 H   0  0  0  0  0  0  0  0  0  0  0  0
    5.3993    1.2894   17.8233 C   0  0  0  0  0  0  0  0  0  0  0  0
    6.5598    0.6587   17.5824 N   0  0  0  0  0  0  0  0  0  0  0  0
    7.1521    0.0394   18.6063 C   0  0  0  0  0  0  0  0  0  0  0  0
    8.1004   -0.4483   18.3785 H   0  0  0  0  0  0  0  0  0  0  0  0
    6.6344    0.0336   19.9103 C   0  0  0  0  0  0  0  0  0  0  0  0
    7.3822   -0.6291   20.9672 C   0  0  0  0  0  0  0  0  0  0  0  0
    7.8890   -1.8795   20.7511 N   0  0  0  0  0  0  0  0  0  0  0  0
    8.3505   -2.2412   21.9145 C   0  0  0  0  0  0  0  0  0  0  0  0
    9.0934   -3.6525   22.6025 S   0  0  0  0  0  0  0  0  0  0  0  0
    9.3390   -2.8088   24.1206 C   0  0  0  0  0  0  0  0  0  0  0  0
    9.8837   -3.3123   24.9082 H   0  0  0  0  0  0  0  0  0  0  0  0
    8.7975   -1.5771   24.1069 C   0  0  0  0  0  0  0  0  0  0  0  0
    8.7093   -0.8294   24.8857 H   0  0  0  0  0  0  0  0  0  0  0  0
    8.2379   -1.2803   22.8735 N   0  0  0  0  0  0  0  0  0  0  0  0
    7.6210   -0.2054   22.2676 C   0  0  0  0  0  0  0  0  0  0  0  0
    7.3585    1.0578   22.9561 C   0  0  0  0  0  0  0  0  0  0  0  0
    7.3496    1.2158   24.1583 O   0  0  0  0  0  0  0  0  0  0  0  0
    7.1296    2.0410   22.0718 O   0  0  0  0  0  0  0  0  0  0  0  0
    6.8468    3.3470   22.5993 C   0  0  0  0  0  0  0  0  0  0  0  0
    5.9459    3.3313   23.2249 H   0  0  0  0  0  0  0  0  0  0  0  0
    7.6833    3.7114   23.2065 H   0  0  0  0  0  0  0  0  0  0  0  0
    6.7002    3.9673   21.7143 H   0  0  0  0  0  0  0  0  0  0  0  0
    5.3991    0.6547   20.1394 C   0  0  0  0  0  0  0  0  0  0  0  0
    4.9479    0.6564   21.1332 H   0  0  0  0  0  0  0  0  0  0  0  0
    4.7810    1.3040   19.0763 C   0  0  0  0  0  0  0  0  0  0  0  0
    3.8565    1.8461   19.2246 H   0  0  0  0  0  0  0  0  0  0  0  0
  1  2  1  0
  2  3  2  0
  3  4  1  0
  4  5  1  0
  4  6  2  0
  6  7  1  0
  7  8  1  0
  8  9  2  0
  9 10  1  0
 10 11  1  0
 11 12  1  0
 11 13  2  0
 13 14  1  0
 13 15  1  0
 15 16  1  0
 16 17  1  0
 17 18  2  0
 17 19  1  0
 19 20  1  0
 20 21  1  0
 20 22  1  0
 20 23  1  0
  6 24  1  0
 24 25  1  0
 24 26  2  0
 26 27  1  0
 26  2  1  0
 16  7  2  0
 15  9  1  0
M  END
>  <cnnaffinity>  (1) 
-4.73863

>  <filename>  (1) 
COC(=O)c1c(-c2cccnc2)nc2sccn12

$$$$
