
     RDKit          3D

 38 41  0  0  0  0  0  0  0  0999 V2000
    4.9901    1.8430   16.8873 H   0  0  0  0  0  0  0  0  0  0  0  0
    5.4231    1.2981   17.7245 C   0  0  0  0  0  0  0  0  0  0  0  0
    6.5680    0.6397   17.4861 N   0  0  0  0  0  0  0  0  0  0  0  0
    7.1412   -0.0056   18.5066 C   0  0  0  0  0  0  0  0  0  0  0  0
    8.0688   -0.5269   18.2782 H   0  0  0  0  0  0  0  0  0  0  0  0
    6.6128   -0.0270   19.8092 C   0  0  0  0  0  0  0  0  0  0  0  0
    7.3682   -0.6305   20.9205 C   0  0  0  0  0  0  0  0  0  0  0  0
    8.4977   -1.3228   20.7020 N   0  0  0  0  0  0  0  0  0  0  0  0
    8.9254   -1.5952   21.9509 N   0  0  0  0  0  0  0  0  0  0  0  0
   10.0476   -2.2088   22.4941 C   0  0  0  0  0  0  0  0  0  0  0  0
   10.7967   -2.6642   21.8752 H   0  0  0  0  0  0  0  0  0  0  0  0
    9.9197   -2.0721   23.8382 C   0  0  0  0  0  0  0  0  0  0  0  0
   10.5440   -2.4088   24.6460 H   0  0  0  0  0  0  0  0  0  0  0  0
    8.7402   -1.3905   24.1305 N   0  0  0  0  0  0  0  0  0  0  0  0
    8.2672   -0.9973   25.4015 C   0  0  0  0  0  0  0  0  0  0  0  0
    9.1616   -0.6361   26.4254 C   0  0  0  0  0  0  0  0  0  0  0  0
   10.2350   -0.6799   26.2758 H   0  0  0  0  0  0  0  0  0  0  0  0
    8.6724   -0.1662   27.6352 C   0  0  0  0  0  0  0  0  0  0  0  0
    9.3470    0.0576   28.4546 H   0  0  0  0  0  0  0  0  0  0  0  0
    7.2937    0.0093   27.8352 C   0  0  0  0  0  0  0  0  0  0  0  0
    6.7543    0.6889   29.0557 C   0  0  0  0  0  0  0  0  0  0  0  0
    5.5764    0.8152   29.3082 O   0  0  0  0  0  0  0  0  0  0  0  0
    7.7394    1.1835   29.8366 O   0  0  0  0  0  0  0  0  0  0  0  0
    7.3880    1.8306   31.0595 C   0  0  0  0  0  0  0  0  0  0  0  0
    6.7336    2.6902   30.8802 H   0  0  0  0  0  0  0  0  0  0  0  0
    8.3433    2.1511   31.4820 H   0  0  0  0  0  0  0  0  0  0  0  0
    6.8782    1.1320   31.7306 H   0  0  0  0  0  0  0  0  0  0  0  0
    6.3994   -0.4158   26.8347 C   0  0  0  0  0  0  0  0  0  0  0  0
    5.3289   -0.2994   26.9892 H   0  0  0  0  0  0  0  0  0  0  0  0
    6.8820   -0.9238   25.6355 C   0  0  0  0  0  0  0  0  0  0  0  0
    6.2067   -1.2339   24.8418 H   0  0  0  0  0  0  0  0  0  0  0  0
    8.1287   -1.1062   22.9201 C   0  0  0  0  0  0  0  0  0  0  0  0
    7.0618   -0.4826   22.2948 C   0  0  0  0  0  0  0  0  0  0  0  0
    6.1962   -0.0075   22.7233 H   0  0  0  0  0  0  0  0  0  0  0  0
    5.3890    0.6274   20.0268 C   0  0  0  0  0  0  0  0  0  0  0  0
    4.9161    0.6048   21.0091 H   0  0  0  0  0  0  0  0  0  0  0  0
    4.7917    1.3079   18.9717 C   0  0  0  0  0  0  0  0  0  0  0  0
    3.8697    1.8607   19.1125 H   0  0  0  0  0  0  0  0  0  0  0  0
  1  2  1  0
  2  3  2  0
  3  4  1  0
  4  5  1  0
  4  6  2  0
  6  7  1  0
  7  8  2  0
  8  9  1  0
  9 10  1  0
 10 11  1  0
 10 12  2  0
 12 13  1  0
 12 14  1  0
 14 15  1  0
 15 16  2  0
 16 17  1  0
 16 18  1  0
 18 19  1  0
 18 20  2  0
 20 21  1  0
 21 22  2  0
 21 23  1  0
 23 24  1  0
 24 25  1  0
 24 26  1  0
 24 27  1  0
 20 28  1  0
 28 29  1  0
 28 30  2  0
 30 31  1  0
 14 32  1  0
 32 33  2  0
 33 34  1  0
  6 35  1  0
 35 36  1  0
 35 37  2  0
 37 38  1  0
 37  2  1  0
 33  7  1  0
 32  9  1  0
 30 15  1  0
M  END
>  <cnnaffinity>  (1) 
-5.33118

>  <filename>  (1) 
COC(=O)c1ccc(-n2ccn3nc(-c4cccnc4)cc23)cc1

$$$$
