
     RDKit          3D

 33 35  0  0  0  0  0  0  0  0999 V2000
    4.9279    1.8101   17.0006 H   0  0  0  0  0  0  0  0  0  0  0  0
    5.4158    1.2967   17.8269 C   0  0  0  0  0  0  0  0  0  0  0  0
    6.5689    0.6735   17.5401 N   0  0  0  0  0  0  0  0  0  0  0  0
    7.2175    0.0549   18.5337 C   0  0  0  0  0  0  0  0  0  0  0  0
    8.1688   -0.4119   18.2830 H   0  0  0  0  0  0  0  0  0  0  0  0
    6.7240    0.0049   19.8527 C   0  0  0  0  0  0  0  0  0  0  0  0
    7.3037   -0.7201   20.9067 O   0  0  0  0  0  0  0  0  0  0  0  0
    8.6318   -0.7905   21.0777 C   0  0  0  0  0  0  0  0  0  0  0  0
    9.5529   -0.0747   20.4848 N   0  0  0  0  0  0  0  0  0  0  0  0
   10.7251   -0.5071   21.0084 N   0  0  0  0  0  0  0  0  0  0  0  0
   10.5481   -1.4354   21.8655 N   0  0  0  0  0  0  0  0  0  0  0  0
    9.2047   -1.6520   21.9453 N   0  0  0  0  0  0  0  0  0  0  0  0
    8.6557   -2.6278   22.8303 C   0  0  0  0  0  0  0  0  0  0  0  0
    9.3489   -2.9819   24.0024 C   0  0  0  0  0  0  0  0  0  0  0  0
   10.3271   -2.5467   24.1932 H   0  0  0  0  0  0  0  0  0  0  0  0
    8.7866   -3.8920   24.8966 C   0  0  0  0  0  0  0  0  0  0  0  0
    9.3363   -4.1584   25.7984 H   0  0  0  0  0  0  0  0  0  0  0  0
    7.5258   -4.4665   24.6236 C   0  0  0  0  0  0  0  0  0  0  0  0
    6.8058   -5.4249   25.5312 C   0  0  0  0  0  0  0  0  0  0  0  0
    5.8318   -6.0581   25.1853 O   0  0  0  0  0  0  0  0  0  0  0  0
    7.3521   -5.5158   26.7606 O   0  0  0  0  0  0  0  0  0  0  0  0
    6.8092   -6.4514   27.7017 C   0  0  0  0  0  0  0  0  0  0  0  0
    6.0319   -7.0714   27.2454 H   0  0  0  0  0  0  0  0  0  0  0  0
    6.4519   -5.8835   28.5611 H   0  0  0  0  0  0  0  0  0  0  0  0
    7.6268   -7.0795   28.0484 H   0  0  0  0  0  0  0  0  0  0  0  0
    6.8848   -4.1467   23.4119 C   0  0  0  0  0  0  0  0  0  0  0  0
    5.9381   -4.6371   23.1943 H   0  0  0  0  0  0  0  0  0  0  0  0
    7.4287   -3.2311   22.5179 C   0  0  0  0  0  0  0  0  0  0  0  0
    6.8990   -2.9825   21.6060 H   0  0  0  0  0  0  0  0  0  0  0  0
    5.5123    0.6338   20.1423 C   0  0  0  0  0  0  0  0  0  0  0  0
    5.1175    0.5816   21.1564 H   0  0  0  0  0  0  0  0  0  0  0  0
    4.8522    1.3016   19.1075 C   0  0  0  0  0  0  0  0  0  0  0  0
    3.9149    1.8227   19.2776 H   0  0  0  0  0  0  0  0  0  0  0  0
  1  2  1  0
  2  3  2  0
  3  4  1  0
  4  5  1  0
  4  6  2  0
  6  7  1  0
  7  8  1  0
  8  9  2  0
  9 10  1  0
 10 11  2  0
 11 12  1  0
 12 13  1  0
 13 14  2  0
 14 15  1  0
 14 16  1  0
 16 17  1  0
 16 18  2  0
 18 19  1  0
 19 20  2  0
 19 21  1  0
 21 22  1  0
 22 23  1  0
 22 24  1  0
 22 25  1  0
 18 26  1  0
 26 27  1  0
 26 28  2  0
 28 29  1  0
  6 30  1  0
 30 31  1  0
 30 32  2  0
 32 33  1  0
 32  2  1  0
 12  8  1  0
 28 13  1  0
M  END
>  <cnnaffinity>  (1) 
-5.30528

>  <filename>  (1) 
COC(=O)c1ccc(-n2nnnc2Oc2cccnc2)cc1

$$$$
