
     RDKit          3D

 41 44  0  0  0  0  0  0  0  0999 V2000
    5.0015    1.8362   16.9129 H   0  0  0  0  0  0  0  0  0  0  0  0
    5.3926    1.3077   17.7842 C   0  0  0  0  0  0  0  0  0  0  0  0
    6.5436    0.6426   17.6054 N   0  0  0  0  0  0  0  0  0  0  0  0
    7.0651    0.0234   18.6746 C   0  0  0  0  0  0  0  0  0  0  0  0
    7.9981   -0.5069   18.4984 H   0  0  0  0  0  0  0  0  0  0  0  0
    6.4792   -0.0007   19.9580 C   0  0  0  0  0  0  0  0  0  0  0  0
    7.2341   -0.6030   21.0726 C   0  0  0  0  0  0  0  0  0  0  0  0
    8.5900   -0.5538   21.2979 C   0  0  0  0  0  0  0  0  0  0  0  0
    8.8021   -1.1530   22.5325 C   0  0  0  0  0  0  0  0  0  0  0  0
    7.6880   -1.6035   23.0772 N   0  0  0  0  0  0  0  0  0  0  0  0
    6.7392   -1.2537   22.1695 N   0  0  0  0  0  0  0  0  0  0  0  0
    5.7809   -1.5251   22.3555 H   0  0  0  0  0  0  0  0  0  0  0  0
   10.2357   -1.1309   22.9617 C   0  0  0  0  0  0  0  0  0  0  0  0
   10.3600   -0.6667   23.9489 H   0  0  0  0  0  0  0  0  0  0  0  0
   10.6577   -2.1413   23.0178 H   0  0  0  0  0  0  0  0  0  0  0  0
   10.9278   -0.2878   21.8278 C   0  0  2  0  0  0  0  0  0  0  0  0
   11.7549   -0.8761   21.4174 H   0  0  0  0  0  0  0  0  0  0  0  0
   11.4813    1.0203   22.3374 C   0  0  0  0  0  0  0  0  0  0  0  0
   12.8567    1.2893   22.3046 C   0  0  0  0  0  0  0  0  0  0  0  0
   13.5451    0.5376   21.9235 H   0  0  0  0  0  0  0  0  0  0  0  0
   13.3444    2.5114   22.7504 C   0  0  0  0  0  0  0  0  0  0  0  0
   14.4071    2.7261   22.6849 H   0  0  0  0  0  0  0  0  0  0  0  0
   12.4722    3.4883   23.2661 C   0  0  0  0  0  0  0  0  0  0  0  0
   13.0870    4.7651   23.7479 C   0  0  0  0  0  0  0  0  0  0  0  0
   14.2775    4.9823   23.7088 O   0  0  0  0  0  0  0  0  0  0  0  0
   12.1915    5.6384   24.2535 O   0  0  0  0  0  0  0  0  0  0  0  0
   12.7103    6.8810   24.7428 C   0  0  0  0  0  0  0  0  0  0  0  0
   13.4346    6.7116   25.5464 H   0  0  0  0  0  0  0  0  0  0  0  0
   13.1944    7.4436   23.9376 H   0  0  0  0  0  0  0  0  0  0  0  0
   11.8410    7.4181   25.1182 H   0  0  0  0  0  0  0  0  0  0  0  0
   11.0917    3.2168   23.3180 C   0  0  0  0  0  0  0  0  0  0  0  0
   10.3976    3.9529   23.7119 H   0  0  0  0  0  0  0  0  0  0  0  0
   10.6109    1.9962   22.8554 C   0  0  0  0  0  0  0  0  0  0  0  0
    9.5427    1.7884   22.8911 H   0  0  0  0  0  0  0  0  0  0  0  0
    9.8594   -0.0608   20.6990 C   0  0  0  0  0  0  0  0  0  0  0  0
    9.7876    0.9898   20.3810 H   0  0  0  0  0  0  0  0  0  0  0  0
   10.1172   -0.6501   19.8179 H   0  0  0  0  0  0  0  0  0  0  0  0
    5.2543    0.6714   20.1118 C   0  0  0  0  0  0  0  0  0  0  0  0
    4.7465    0.6963   21.0781 H   0  0  0  0  0  0  0  0  0  0  0  0
    4.7156    1.3372   19.0091 C   0  0  0  0  0  0  0  0  0  0  0  0
    3.7982    1.9060   19.0848 H   0  0  0  0  0  0  0  0  0  0  0  0
  1  2  1  0
  2  3  2  0
  3  4  1  0
  4  5  1  0
  4  6  2  0
  6  7  1  0
  7  8  2  0
  8  9  1  0
  9 10  2  0
 10 11  1  0
 11 12  1  0
  9 13  1  0
 13 14  1  0
 13 15  1  0
 13 16  1  0
 16 17  1  6
 16 18  1  0
 18 19  2  0
 19 20  1  0
 19 21  1  0
 21 22  1  0
 21 23  2  0
 23 24  1  0
 24 25  2  0
 24 26  1  0
 26 27  1  0
 27 28  1  0
 27 29  1  0
 27 30  1  0
 23 31  1  0
 31 32  1  0
 31 33  2  0
 33 34  1  0
 16 35  1  0
 35 36  1  0
 35 37  1  0
  6 38  1  0
 38 39  1  0
 38 40  2  0
 40 41  1  0
 40  2  1  0
 11  7  1  0
 33 18  1  0
 35  8  1  0
M  END
>  <cnnaffinity>  (1) 
-5.93087

>  <filename>  (1) 
COC(=O)c1ccc([C@H]2Cc3n[nH]c(-c4cccnc4)c3C2)cc1

$$$$
