
     RDKit          3D

 37 39  0  0  0  0  0  0  0  0999 V2000
    4.9180    1.8325   16.9841 H   0  0  0  0  0  0  0  0  0  0  0  0
    5.3783    1.2972   17.8107 C   0  0  0  0  0  0  0  0  0  0  0  0
    6.5289    0.6606   17.5388 N   0  0  0  0  0  0  0  0  0  0  0  0
    7.1583    0.0457   18.5481 C   0  0  0  0  0  0  0  0  0  0  0  0
    8.1069   -0.4358   18.3152 H   0  0  0  0  0  0  0  0  0  0  0  0
    6.6561    0.0076   19.8652 C   0  0  0  0  0  0  0  0  0  0  0  0
    7.3633   -0.6718   20.9268 N   0  0  0  0  0  0  0  0  0  0  0  0
    6.7404   -1.7180   21.5810 C   0  0  0  0  0  0  0  0  0  0  0  0
    5.7182   -1.9253   21.2683 H   0  0  0  0  0  0  0  0  0  0  0  0
    7.3476   -2.4444   22.5674 C   0  0  0  0  0  0  0  0  0  0  0  0
    6.6617   -3.5809   23.2303 C   0  0  0  0  0  0  0  0  0  0  0  0
    5.8896   -4.5100   22.5026 C   0  0  0  0  0  0  0  0  0  0  0  0
    5.8074   -4.4076   21.4248 H   0  0  0  0  0  0  0  0  0  0  0  0
    5.2424   -5.5597   23.1497 C   0  0  0  0  0  0  0  0  0  0  0  0
    4.6604   -6.2878   22.5920 H   0  0  0  0  0  0  0  0  0  0  0  0
    5.3305   -5.6798   24.5439 C   0  0  0  0  0  0  0  0  0  0  0  0
    4.6022   -6.7791   25.2436 C   0  0  0  0  0  0  0  0  0  0  0  0
    4.0951   -7.7382   24.7091 O   0  0  0  0  0  0  0  0  0  0  0  0
    4.5864   -6.5567   26.5759 O   0  0  0  0  0  0  0  0  0  0  0  0
    4.0829   -7.5725   27.4317 C   0  0  0  0  0  0  0  0  0  0  0  0
    4.2433   -7.1959   28.4441 H   0  0  0  0  0  0  0  0  0  0  0  0
    3.0125   -7.7346   27.2645 H   0  0  0  0  0  0  0  0  0  0  0  0
    4.6446   -8.4923   27.2555 H   0  0  0  0  0  0  0  0  0  0  0  0
    6.1239   -4.7754   25.2692 C   0  0  0  0  0  0  0  0  0  0  0  0
    6.2153   -4.8995   26.3416 H   0  0  0  0  0  0  0  0  0  0  0  0
    6.7751   -3.7403   24.6245 C   0  0  0  0  0  0  0  0  0  0  0  0
    7.3353   -3.0280   25.2255 H   0  0  0  0  0  0  0  0  0  0  0  0
    8.6746   -2.0643   22.9649 C   0  0  0  0  0  0  0  0  0  0  0  0
    9.1843   -2.6295   23.7491 H   0  0  0  0  0  0  0  0  0  0  0  0
    9.3092   -1.0324   22.3530 C   0  0  0  0  0  0  0  0  0  0  0  0
   10.3053   -0.7039   22.6136 H   0  0  0  0  0  0  0  0  0  0  0  0
    8.7003   -0.2616   21.2797 C   0  0  0  0  0  0  0  0  0  0  0  0
    9.2700    0.6537   20.7089 O   0  0  0  0  0  0  0  0  0  0  0  0
    5.4373    0.6465   20.1233 C   0  0  0  0  0  0  0  0  0  0  0  0
    5.0294    0.6318   21.1338 H   0  0  0  0  0  0  0  0  0  0  0  0
    4.7891    1.3158   19.0792 C   0  0  0  0  0  0  0  0  0  0  0  0
    3.8622    1.8604   19.2362 H   0  0  0  0  0  0  0  0  0  0  0  0
  1  2  1  0
  2  3  2  0
  3  4  1  0
  4  5  1  0
  4  6  2  0
  6  7  1  0
  7  8  1  0
  8  9  1  0
  8 10  2  0
 10 11  1  0
 11 12  2  0
 12 13  1  0
 12 14  1  0
 14 15  1  0
 14 16  2  0
 16 17  1  0
 17 18  2  0
 17 19  1  0
 19 20  1  0
 20 21  1  0
 20 22  1  0
 20 23  1  0
 16 24  1  0
 24 25  1  0
 24 26  2  0
 26 27  1  0
 10 28  1  0
 28 29  1  0
 28 30  2  0
 30 31  1  0
 30 32  1  0
 32 33  2  0
  6 34  1  0
 34 35  1  0
 34 36  2  0
 36 37  1  0
 36  2  1  0
 32  7  1  0
 26 11  1  0
M  END
>  <cnnaffinity>  (1) 
-5.40378

>  <filename>  (1) 
COC(=O)c1ccc(-c2ccc(=O)n(-c3cccnc3)c2)cc1

$$$$
