
     RDKit          3D

 38 40  0  0  0  0  0  0  0  0999 V2000
    4.9353    1.8103   16.9772 H   0  0  0  0  0  0  0  0  0  0  0  0
    5.3995    1.2965   17.8173 C   0  0  0  0  0  0  0  0  0  0  0  0
    6.5473    0.6533   17.5529 N   0  0  0  0  0  0  0  0  0  0  0  0
    7.1486    0.0364   18.5809 C   0  0  0  0  0  0  0  0  0  0  0  0
    8.0821   -0.4709   18.3349 H   0  0  0  0  0  0  0  0  0  0  0  0
    6.6638    0.0203   19.9068 C   0  0  0  0  0  0  0  0  0  0  0  0
    7.4168   -0.6566   21.0597 C   0  0  2  0  0  0  0  0  0  0  0  0
    6.9848   -0.2637   21.9873 H   0  0  0  0  0  0  0  0  0  0  0  0
    8.9110   -0.3006   21.1217 C   0  0  0  0  0  0  0  0  0  0  0  0
    9.4098    0.8037   21.0719 O   0  0  0  0  0  0  0  0  0  0  0  0
    9.6129   -1.4554   21.2010 N   0  0  0  0  0  0  0  0  0  0  0  0
   10.6140   -1.3895   21.2529 H   0  0  0  0  0  0  0  0  0  0  0  0
    8.8437   -2.6563   21.3719 C   0  0  0  0  0  0  0  0  0  0  0  0
    8.9421   -3.0365   22.3995 H   0  0  0  0  0  0  0  0  0  0  0  0
    9.1799   -3.4440   20.7002 H   0  0  0  0  0  0  0  0  0  0  0  0
    7.4018   -2.2092   21.0422 C   0  0  1  0  0  0  0  0  0  0  0  0
    7.1708   -2.4718   20.0098 H   0  0  0  0  0  0  0  0  0  0  0  0
    6.3963   -2.8960   21.9256 C   0  0  0  0  0  0  0  0  0  0  0  0
    5.3908   -3.6857   21.3502 C   0  0  0  0  0  0  0  0  0  0  0  0
    5.3703   -3.7573   20.2616 H   0  0  0  0  0  0  0  0  0  0  0  0
    4.4864   -4.3696   22.1570 C   0  0  0  0  0  0  0  0  0  0  0  0
    3.7149   -5.0097   21.7386 H   0  0  0  0  0  0  0  0  0  0  0  0
    4.5682   -4.2595   23.5591 C   0  0  0  0  0  0  0  0  0  0  0  0
    3.5182   -4.9522   24.3729 C   0  0  0  0  0  0  0  0  0  0  0  0
    2.5646   -5.5275   23.8921 O   0  0  0  0  0  0  0  0  0  0  0  0
    3.7357   -4.8676   25.7024 O   0  0  0  0  0  0  0  0  0  0  0  0
    2.7873   -5.5180   26.5558 C   0  0  0  0  0  0  0  0  0  0  0  0
    2.7517   -6.5915   26.3472 H   0  0  0  0  0  0  0  0  0  0  0  0
    3.1387   -5.3395   27.5709 H   0  0  0  0  0  0  0  0  0  0  0  0
    1.7870   -5.0963   26.4182 H   0  0  0  0  0  0  0  0  0  0  0  0
    5.6036   -3.5021   24.1383 C   0  0  0  0  0  0  0  0  0  0  0  0
    5.6981   -3.4642   25.2200 H   0  0  0  0  0  0  0  0  0  0  0  0
    6.5102   -2.8313   23.3272 C   0  0  0  0  0  0  0  0  0  0  0  0
    7.3302   -2.2792   23.7906 H   0  0  0  0  0  0  0  0  0  0  0  0
    5.4455    0.6724   20.1412 C   0  0  0  0  0  0  0  0  0  0  0  0
    5.0137    0.6680   21.1440 H   0  0  0  0  0  0  0  0  0  0  0  0
    4.8021    1.3188   19.0819 C   0  0  0  0  0  0  0  0  0  0  0  0
    3.8692    1.8515   19.2310 H   0  0  0  0  0  0  0  0  0  0  0  0
  1  2  1  0
  2  3  2  0
  3  4  1  0
  4  5  1  0
  4  6  2  0
  6  7  1  0
  7  8  1  1
  7  9  1  0
  9 10  2  0
  9 11  1  0
 11 12  1  0
 11 13  1  0
 13 14  1  0
 13 15  1  0
 13 16  1  0
 16 17  1  6
 16 18  1  0
 18 19  2  0
 19 20  1  0
 19 21  1  0
 21 22  1  0
 21 23  2  0
 23 24  1  0
 24 25  2  0
 24 26  1  0
 26 27  1  0
 27 28  1  0
 27 29  1  0
 27 30  1  0
 23 31  1  0
 31 32  1  0
 31 33  2  0
 33 34  1  0
  6 35  1  0
 35 36  1  0
 35 37  2  0
 37 38  1  0
 37  2  1  0
 16  7  1  0
 33 18  1  0
M  END
>  <cnnaffinity>  (1) 
-4.36449

>  <filename>  (1) 
COC(=O)c1ccc([C@@H]2CNC(=O)[C@H]2c2cccnc2)cc1

$$$$
