
     RDKit          3D

 43 46  0  0  0  0  0  0  0  0999 V2000
    4.9630    1.8302   16.9612 H   0  0  0  0  0  0  0  0  0  0  0  0
    5.4042    1.2935   17.8003 C   0  0  0  0  0  0  0  0  0  0  0  0
    6.5561    0.6492   17.5536 N   0  0  0  0  0  0  0  0  0  0  0  0
    7.1430    0.0159   18.5753 C   0  0  0  0  0  0  0  0  0  0  0  0
    8.0813   -0.4900   18.3443 H   0  0  0  0  0  0  0  0  0  0  0  0
    6.6258   -0.0027   19.8866 C   0  0  0  0  0  0  0  0  0  0  0  0
    7.3643   -0.6605   20.9775 C   0  0  0  0  0  0  0  0  0  0  0  0
    8.0749   -1.7662   20.7635 N   0  0  0  0  0  0  0  0  0  0  0  0
    8.5541   -2.0704   21.9656 N   0  0  0  0  0  0  0  0  0  0  0  0
    8.2426   -1.2290   22.9438 C   0  0  0  0  0  0  0  0  0  0  0  0
    7.4527   -0.2596   22.3521 C   0  0  0  0  0  0  0  0  0  0  0  0
    7.0635    0.9828   22.9940 C   0  0  0  0  0  0  0  0  0  0  0  0
    7.2437    2.2073   22.3442 C   0  0  0  0  0  0  0  0  0  0  0  0
    7.6388    2.2323   21.3270 H   0  0  0  0  0  0  0  0  0  0  0  0
    6.9374    3.3905   23.0115 C   0  0  0  0  0  0  0  0  0  0  0  0
    7.0933    4.3414   22.5109 H   0  0  0  0  0  0  0  0  0  0  0  0
    6.4421    3.3697   24.3230 C   0  0  0  0  0  0  0  0  0  0  0  0
    6.1110    4.4796   25.0338 O   0  0  0  0  0  0  0  0  0  0  0  0
    6.2615    5.7382   24.4193 C   0  0  0  0  0  0  0  0  0  0  0  0
    5.9302    6.4729   25.1506 H   0  0  0  0  0  0  0  0  0  0  0  0
    7.3104    5.9317   24.1590 H   0  0  0  0  0  0  0  0  0  0  0  0
    5.6427    5.8213   23.5158 H   0  0  0  0  0  0  0  0  0  0  0  0
    6.2613    2.1178   24.9882 C   0  0  0  0  0  0  0  0  0  0  0  0
    5.7773    2.1680   26.2591 O   0  0  0  0  0  0  0  0  0  0  0  0
    5.5917    0.9657   26.9722 C   0  0  0  0  0  0  0  0  0  0  0  0
    6.5373    0.4241   27.1069 H   0  0  0  0  0  0  0  0  0  0  0  0
    4.8620    0.3096   26.4799 H   0  0  0  0  0  0  0  0  0  0  0  0
    5.2064    1.2548   27.9496 H   0  0  0  0  0  0  0  0  0  0  0  0
    6.5890    0.9447   24.3140 C   0  0  0  0  0  0  0  0  0  0  0  0
    6.4764   -0.0173   24.8128 H   0  0  0  0  0  0  0  0  0  0  0  0
    9.0674   -1.5061   24.1693 C   0  0  0  0  0  0  0  0  0  0  0  0
    9.6811   -0.6389   24.4339 H   0  0  0  0  0  0  0  0  0  0  0  0
    8.4418   -1.7128   25.0384 H   0  0  0  0  0  0  0  0  0  0  0  0
    9.9180   -2.7327   23.7438 C   0  0  0  0  0  0  0  0  0  0  0  0
    9.7273   -3.5933   24.3799 H   0  0  0  0  0  0  0  0  0  0  0  0
   10.9755   -2.5005   23.7935 H   0  0  0  0  0  0  0  0  0  0  0  0
    9.5448   -3.0590   22.2773 C   0  0  0  0  0  0  0  0  0  0  0  0
   10.3822   -2.9214   21.5918 H   0  0  0  0  0  0  0  0  0  0  0  0
    9.1086   -4.0488   22.1344 H   0  0  0  0  0  0  0  0  0  0  0  0
    5.3989    0.6445   20.1094 C   0  0  0  0  0  0  0  0  0  0  0  0
    4.9663    0.6636   21.1101 H   0  0  0  0  0  0  0  0  0  0  0  0
    4.7809    1.3048   19.0500 C   0  0  0  0  0  0  0  0  0  0  0  0
    3.8531    1.8486   19.1905 H   0  0  0  0  0  0  0  0  0  0  0  0
  1  2  1  0
  2  3  2  0
  3  4  1  0
  4  5  1  0
  4  6  2  0
  6  7  1  0
  7  8  2  0
  8  9  1  0
  9 10  1  0
 10 11  2  0
 11 12  1  0
 12 13  2  0
 13 14  1  0
 13 15  1  0
 15 16  1  0
 15 17  2  0
 17 18  1  0
 18 19  1  0
 19 20  1  0
 19 21  1  0
 19 22  1  0
 17 23  1  0
 23 24  1  0
 24 25  1  0
 25 26  1  0
 25 27  1  0
 25 28  1  0
 23 29  2  0
 29 30  1  0
 10 31  1  0
 31 32  1  0
 31 33  1  0
 31 34  1  0
 34 35  1  0
 34 36  1  0
 34 37  1  0
 37 38  1  0
 37 39  1  0
  6 40  1  0
 40 41  1  0
 40 42  2  0
 42 43  1  0
 42  2  1  0
 11  7  1  0
 29 12  1  0
 37  9  1  0
M  END
>  <cnnaffinity>  (1) 
-5.59773

>  <filename>  (1) 
COc1ccc(-c2c(-c3cccnc3)nn3c2CCC3)cc1OC

$$$$
