
     RDKit          3D

 35 37  0  0  0  0  0  0  0  0999 V2000
    4.9332    1.7935   16.9877 H   0  0  0  0  0  0  0  0  0  0  0  0
    5.3989    1.2876   17.8325 C   0  0  0  0  0  0  0  0  0  0  0  0
    6.5634    0.6648   17.5790 N   0  0  0  0  0  0  0  0  0  0  0  0
    7.1565    0.0301   18.5944 C   0  0  0  0  0  0  0  0  0  0  0  0
    8.1194   -0.4333   18.3612 H   0  0  0  0  0  0  0  0  0  0  0  0
    6.6385   -0.0126   19.8980 C   0  0  0  0  0  0  0  0  0  0  0  0
    7.3764   -0.6595   20.9848 C   0  0  0  0  0  0  0  0  0  0  0  0
    7.7157   -0.0540   22.1810 C   0  0  0  0  0  0  0  0  0  0  0  0
    7.4919    1.4013   22.4216 C   0  0  0  0  0  0  0  0  0  0  0  0
    7.9945    2.3779   21.5475 C   0  0  0  0  0  0  0  0  0  0  0  0
    8.5275    2.0488   20.6614 H   0  0  0  0  0  0  0  0  0  0  0  0
    7.8105    3.7401   21.8169 C   0  0  0  0  0  0  0  0  0  0  0  0
    8.2517    4.5175   21.1992 H   0  0  0  0  0  0  0  0  0  0  0  0
    7.0483    4.1564   22.9111 C   0  0  0  0  0  0  0  0  0  0  0  0
    6.7766    5.4529   23.2036 O   0  0  0  0  0  0  0  0  0  0  0  0
    7.2216    6.4927   22.3443 C   0  0  0  0  0  0  0  0  0  0  0  0
    6.7912    6.4090   21.3345 H   0  0  0  0  0  0  0  0  0  0  0  0
    6.8691    7.4110   22.8190 H   0  0  0  0  0  0  0  0  0  0  0  0
    8.3188    6.5186   22.2619 H   0  0  0  0  0  0  0  0  0  0  0  0
    6.5466    3.1661   23.7873 C   0  0  0  0  0  0  0  0  0  0  0  0
    5.8580    3.5399   24.8827 F   0  0  0  0  0  0  0  0  0  0  0  0
    6.7756    1.8212   23.5569 C   0  0  0  0  0  0  0  0  0  0  0  0
    6.3820    1.1061   24.2734 H   0  0  0  0  0  0  0  0  0  0  0  0
    8.3431   -0.8616   23.1930 C   0  0  0  0  0  0  0  0  0  0  0  0
    8.5961   -0.3680   24.1321 H   0  0  0  0  0  0  0  0  0  0  0  0
    8.6349   -2.1757   22.9800 C   0  0  0  0  0  0  0  0  0  0  0  0
    9.1131   -2.8171   23.7088 H   0  0  0  0  0  0  0  0  0  0  0  0
    8.2958   -2.8123   21.7139 C   0  0  0  0  0  0  0  0  0  0  0  0
    8.4492   -3.9850   21.4079 O   0  0  0  0  0  0  0  0  0  0  0  0
    7.7354   -1.9668   20.7774 N   0  0  0  0  0  0  0  0  0  0  0  0
    7.4723   -2.4802   19.9533 H   0  0  0  0  0  0  0  0  0  0  0  0
    5.4245    0.6462   20.1495 C   0  0  0  0  0  0  0  0  0  0  0  0
    5.0149    0.6510   21.1619 H   0  0  0  0  0  0  0  0  0  0  0  0
    4.7988    1.3021   19.0941 C   0  0  0  0  0  0  0  0  0  0  0  0
    3.8735    1.8434   19.2378 H   0  0  0  0  0  0  0  0  0  0  0  0
  1  2  1  0
  2  3  2  0
  3  4  1  0
  4  5  1  0
  4  6  2  0
  6  7  1  0
  7  8  2  0
  8  9  1  0
  9 10  2  0
 10 11  1  0
 10 12  1  0
 12 13  1  0
 12 14  2  0
 14 15  1  0
 15 16  1  0
 16 17  1  0
 16 18  1  0
 16 19  1  0
 14 20  1  0
 20 21  1  0
 20 22  2  0
 22 23  1  0
  8 24  1  0
 24 25  1  0
 24 26  2  0
 26 27  1  0
 26 28  1  0
 28 29  2  0
 28 30  1  0
 30 31  1  0
  6 32  1  0
 32 33  1  0
 32 34  2  0
 34 35  1  0
 34  2  1  0
 30  7  1  0
 22  9  1  0
M  END
>  <cnnaffinity>  (1) 
-5.37675

>  <filename>  (1) 
COc1ccc(-c2ccc(=O)[nH]c2-c2cccnc2)cc1F

$$$$
