
     RDKit          3D

 37 40  0  0  0  0  0  0  0  0999 V2000
    4.9225    1.7799   16.9995 H   0  0  0  0  0  0  0  0  0  0  0  0
    5.4038    1.2894   17.8414 C   0  0  0  0  0  0  0  0  0  0  0  0
    6.5674    0.6747   17.5768 N   0  0  0  0  0  0  0  0  0  0  0  0
    7.1721    0.0536   18.5909 C   0  0  0  0  0  0  0  0  0  0  0  0
    8.1200   -0.4330   18.3701 H   0  0  0  0  0  0  0  0  0  0  0  0
    6.6501    0.0113   19.8970 C   0  0  0  0  0  0  0  0  0  0  0  0
    7.4147   -0.6998   20.9197 C   0  0  0  0  0  0  0  0  0  0  0  0
    8.3450   -1.5968   20.7060 N   0  0  0  0  0  0  0  0  0  0  0  0
    8.8496   -2.0281   21.9145 N   0  0  0  0  0  0  0  0  0  0  0  0
    8.2158   -1.3480   22.8306 C   0  0  0  0  0  0  0  0  0  0  0  0
    8.2388   -1.0621   24.5428 S   0  0  0  0  0  0  0  0  0  0  0  0
    6.9934    0.2050   24.3076 C   0  0  0  0  0  0  0  0  0  0  0  0
    6.4984    0.9945   25.4571 C   0  0  0  0  0  0  0  0  0  0  0  0
    7.0571    0.8409   26.7466 C   0  0  0  0  0  0  0  0  0  0  0  0
    7.8681    0.1314   26.9148 H   0  0  0  0  0  0  0  0  0  0  0  0
    6.6124    1.5713   27.8344 C   0  0  0  0  0  0  0  0  0  0  0  0
    7.0503    1.4427   28.8169 H   0  0  0  0  0  0  0  0  0  0  0  0
    5.5713    2.5017   27.6694 C   0  0  0  0  0  0  0  0  0  0  0  0
    5.2055    3.1722   28.7938 O   0  0  0  0  0  0  0  0  0  0  0  0
    4.1678    4.1388   28.7668 C   0  0  0  0  0  0  0  0  0  0  0  0
    4.3955    4.9871   28.1092 H   0  0  0  0  0  0  0  0  0  0  0  0
    4.0781    4.5176   29.7851 H   0  0  0  0  0  0  0  0  0  0  0  0
    3.1984    3.7136   28.4777 H   0  0  0  0  0  0  0  0  0  0  0  0
    4.9895    2.6841   26.4149 C   0  0  0  0  0  0  0  0  0  0  0  0
    4.1872    3.3999   26.2820 H   0  0  0  0  0  0  0  0  0  0  0  0
    5.4435    1.9372   25.3150 C   0  0  0  0  0  0  0  0  0  0  0  0
    4.9027    2.0682   24.0871 O   0  0  0  0  0  0  0  0  0  0  0  0
    3.8605    2.9749   23.7936 C   0  0  0  0  0  0  0  0  0  0  0  0
    4.1448    4.0210   23.9616 H   0  0  0  0  0  0  0  0  0  0  0  0
    2.9381    2.7422   24.3389 H   0  0  0  0  0  0  0  0  0  0  0  0
    3.6593    2.8539   22.7292 H   0  0  0  0  0  0  0  0  0  0  0  0
    6.6070    0.3474   23.0728 N   0  0  0  0  0  0  0  0  0  0  0  0
    7.2856   -0.5182   22.2806 N   0  0  0  0  0  0  0  0  0  0  0  0
    5.4326    0.6521   20.1650 C   0  0  0  0  0  0  0  0  0  0  0  0
    5.0182    0.6340   21.1769 H   0  0  0  0  0  0  0  0  0  0  0  0
    4.8058    1.3058   19.1075 C   0  0  0  0  0  0  0  0  0  0  0  0
    3.8754    1.8411   19.2541 H   0  0  0  0  0  0  0  0  0  0  0  0
  1  2  1  0
  2  3  2  0
  3  4  1  0
  4  5  1  0
  4  6  2  0
  6  7  1  0
  7  8  2  0
  8  9  1  0
  9 10  2  0
 10 11  1  0
 11 12  1  0
 12 13  1  0
 13 14  2  0
 14 15  1  0
 14 16  1  0
 16 17  1  0
 16 18  2  0
 18 19  1  0
 19 20  1  0
 20 21  1  0
 20 22  1  0
 20 23  1  0
 18 24  1  0
 24 25  1  0
 24 26  2  0
 26 27  1  0
 27 28  1  0
 28 29  1  0
 28 30  1  0
 28 31  1  0
 12 32  2  0
 32 33  1  0
  6 34  1  0
 34 35  1  0
 34 36  2  0
 36 37  1  0
 36  2  1  0
 33  7  1  0
 33 10  1  0
 26 13  1  0
M  END
>  <cnnaffinity>  (1) 
-5.35322

>  <filename>  (1) 
COc1ccc(-c2nn3c(-c4cccnc4)nnc3s2)c(OC)c1

$$$$
