
     RDKit          3D

 35 38  0  0  0  0  0  0  0  0999 V2000
    4.9894    1.8563   16.8818 H   0  0  0  0  0  0  0  0  0  0  0  0
    5.4213    1.3024   17.7147 C   0  0  0  0  0  0  0  0  0  0  0  0
    6.5644    0.6431   17.4732 N   0  0  0  0  0  0  0  0  0  0  0  0
    7.1382   -0.0052   18.4928 C   0  0  0  0  0  0  0  0  0  0  0  0
    8.0650   -0.5241   18.2592 H   0  0  0  0  0  0  0  0  0  0  0  0
    6.6100   -0.0330   19.7975 C   0  0  0  0  0  0  0  0  0  0  0  0
    7.3630   -0.6404   20.9115 C   0  0  0  0  0  0  0  0  0  0  0  0
    8.4973   -1.3266   20.6981 N   0  0  0  0  0  0  0  0  0  0  0  0
    8.9245   -1.5950   21.9471 N   0  0  0  0  0  0  0  0  0  0  0  0
   10.0415   -2.2130   22.4935 C   0  0  0  0  0  0  0  0  0  0  0  0
   10.7895   -2.6691   21.8716 H   0  0  0  0  0  0  0  0  0  0  0  0
    9.9151   -2.0772   23.8368 C   0  0  0  0  0  0  0  0  0  0  0  0
   10.5330   -2.4310   24.6460 H   0  0  0  0  0  0  0  0  0  0  0  0
    8.7420   -1.3762   24.1276 N   0  0  0  0  0  0  0  0  0  0  0  0
    8.2574   -0.9637   25.3921 C   0  0  0  0  0  0  0  0  0  0  0  0
    9.1338   -0.5595   26.4245 C   0  0  0  0  0  0  0  0  0  0  0  0
   10.2114   -0.5273   26.3010 H   0  0  0  0  0  0  0  0  0  0  0  0
    8.5802   -0.1768   27.6364 C   0  0  0  0  0  0  0  0  0  0  0  0
    9.2138    0.1014   28.4756 H   0  0  0  0  0  0  0  0  0  0  0  0
    7.2626   -0.1243   27.8763 N   0  0  0  0  0  0  0  0  0  0  0  0
    6.4550   -0.4574   26.8790 C   0  0  0  0  0  0  0  0  0  0  0  0
    5.1232   -0.3315   27.0311 O   0  0  0  0  0  0  0  0  0  0  0  0
    4.6243    0.2218   28.2495 C   0  0  0  0  0  0  0  0  0  0  0  0
    4.8962    1.2807   28.3468 H   0  0  0  0  0  0  0  0  0  0  0  0
    5.0252   -0.3215   29.1116 H   0  0  0  0  0  0  0  0  0  0  0  0
    3.5415    0.1188   28.1926 H   0  0  0  0  0  0  0  0  0  0  0  0
    6.8883   -0.9273   25.6318 C   0  0  0  0  0  0  0  0  0  0  0  0
    6.1622   -1.2295   24.8860 H   0  0  0  0  0  0  0  0  0  0  0  0
    8.1262   -1.1058   22.9146 C   0  0  0  0  0  0  0  0  0  0  0  0
    7.0545   -0.4963   22.2858 C   0  0  0  0  0  0  0  0  0  0  0  0
    6.1828   -0.0332   22.7122 H   0  0  0  0  0  0  0  0  0  0  0  0
    5.3892    0.6248   20.0171 C   0  0  0  0  0  0  0  0  0  0  0  0
    4.9176    0.6063   21.0010 H   0  0  0  0  0  0  0  0  0  0  0  0
    4.7908    1.3078   18.9633 C   0  0  0  0  0  0  0  0  0  0  0  0
    3.8703    1.8622   19.1076 H   0  0  0  0  0  0  0  0  0  0  0  0
  1  2  1  0
  2  3  2  0
  3  4  1  0
  4  5  1  0
  4  6  2  0
  6  7  1  0
  7  8  2  0
  8  9  1  0
  9 10  1  0
 10 11  1  0
 10 12  2  0
 12 13  1  0
 12 14  1  0
 14 15  1  0
 15 16  2  0
 16 17  1  0
 16 18  1  0
 18 19  1  0
 18 20  2  0
 20 21  1  0
 21 22  1  0
 22 23  1  0
 23 24  1  0
 23 25  1  0
 23 26  1  0
 21 27  2  0
 27 28  1  0
 14 29  1  0
 29 30  2  0
 30 31  1  0
  6 32  1  0
 32 33  1  0
 32 34  2  0
 34 35  1  0
 34  2  1  0
 30  7  1  0
 29  9  1  0
 27 15  1  0
M  END
>  <cnnaffinity>  (1) 
-5.37506

>  <filename>  (1) 
COc1cc(-n2ccn3nc(-c4cccnc4)cc23)ccn1

$$$$
