
     RDKit          3D

 30 32  0  0  0  0  0  0  0  0999 V2000
    4.9150    1.7868   16.9988 H   0  0  0  0  0  0  0  0  0  0  0  0
    5.3979    1.2914   17.8394 C   0  0  0  0  0  0  0  0  0  0  0  0
    6.5528    0.6674   17.5716 N   0  0  0  0  0  0  0  0  0  0  0  0
    7.1899    0.0606   18.5798 C   0  0  0  0  0  0  0  0  0  0  0  0
    8.1366   -0.4183   18.3524 H   0  0  0  0  0  0  0  0  0  0  0  0
    6.6907    0.0272   19.8973 C   0  0  0  0  0  0  0  0  0  0  0  0
    7.2924   -0.6818   20.9457 O   0  0  0  0  0  0  0  0  0  0  0  0
    8.6231   -0.7772   21.0774 C   0  0  0  0  0  0  0  0  0  0  0  0
    9.5528   -0.0914   20.4674 N   0  0  0  0  0  0  0  0  0  0  0  0
   10.7214   -0.5428   20.9865 N   0  0  0  0  0  0  0  0  0  0  0  0
   10.5322   -1.4613   21.8528 N   0  0  0  0  0  0  0  0  0  0  0  0
    9.1835   -1.6558   21.9434 N   0  0  0  0  0  0  0  0  0  0  0  0
    8.6188   -2.6474   22.8144 C   0  0  0  0  0  0  0  0  0  0  0  0
    9.2918   -3.0258   23.9977 C   0  0  0  0  0  0  0  0  0  0  0  0
   10.2603   -2.6037   24.2535 H   0  0  0  0  0  0  0  0  0  0  0  0
    8.7762   -3.9063   24.8508 N   0  0  0  0  0  0  0  0  0  0  0  0
    7.5855   -4.4617   24.5758 C   0  0  0  0  0  0  0  0  0  0  0  0
    7.2124   -5.1741   25.3066 H   0  0  0  0  0  0  0  0  0  0  0  0
    6.8465   -4.1624   23.4134 C   0  0  0  0  0  0  0  0  0  0  0  0
    5.6390   -4.6843   23.0722 O   0  0  0  0  0  0  0  0  0  0  0  0
    4.9920   -5.6362   23.9064 C   0  0  0  0  0  0  0  0  0  0  0  0
    4.0613   -5.8807   23.3970 H   0  0  0  0  0  0  0  0  0  0  0  0
    4.7535   -5.2384   24.9001 H   0  0  0  0  0  0  0  0  0  0  0  0
    5.5758   -6.5558   24.0273 H   0  0  0  0  0  0  0  0  0  0  0  0
    7.3880   -3.2309   22.5117 C   0  0  0  0  0  0  0  0  0  0  0  0
    6.8329   -2.9732   21.6145 H   0  0  0  0  0  0  0  0  0  0  0  0
    5.4692    0.6430   20.1717 C   0  0  0  0  0  0  0  0  0  0  0  0
    5.0436    0.6074   21.1774 H   0  0  0  0  0  0  0  0  0  0  0  0
    4.8239    1.2995   19.1172 C   0  0  0  0  0  0  0  0  0  0  0  0
    3.8911    1.8275   19.2687 H   0  0  0  0  0  0  0  0  0  0  0  0
  1  2  1  0
  2  3  2  0
  3  4  1  0
  4  5  1  0
  4  6  2  0
  6  7  1  0
  7  8  1  0
  8  9  2  0
  9 10  1  0
 10 11  2  0
 11 12  1  0
 12 13  1  0
 13 14  2  0
 14 15  1  0
 14 16  1  0
 16 17  2  0
 17 18  1  0
 17 19  1  0
 19 20  1  0
 20 21  1  0
 21 22  1  0
 21 23  1  0
 21 24  1  0
 19 25  2  0
 25 26  1  0
  6 27  1  0
 27 28  1  0
 27 29  2  0
 29 30  1  0
 29  2  1  0
 12  8  1  0
 25 13  1  0
M  END
>  <cnnaffinity>  (1) 
-5.21977

>  <filename>  (1) 
COc1cncc(-n2nnnc2Oc2cccnc2)c1

$$$$
