
     RDKit          3D

 33 35  0  0  0  0  0  0  0  0999 V2000
    4.9393    1.7957   16.9884 H   0  0  0  0  0  0  0  0  0  0  0  0
    5.3945    1.2927   17.8389 C   0  0  0  0  0  0  0  0  0  0  0  0
    6.5485    0.6603   17.5880 N   0  0  0  0  0  0  0  0  0  0  0  0
    7.1429    0.0367   18.6088 C   0  0  0  0  0  0  0  0  0  0  0  0
    8.1088   -0.4196   18.3946 H   0  0  0  0  0  0  0  0  0  0  0  0
    6.6134   -0.0189   19.9094 C   0  0  0  0  0  0  0  0  0  0  0  0
    7.3165   -0.7473   20.9825 C   0  0  0  0  0  0  0  0  0  0  0  0
    6.5922   -1.5247   21.7629 N   0  0  0  0  0  0  0  0  0  0  0  0
    7.1951   -2.1991   22.8053 C   0  0  0  0  0  0  0  0  0  0  0  0
    6.3163   -3.0273   23.6848 C   0  0  0  0  0  0  0  0  0  0  0  0
    5.1220   -3.5794   23.1920 C   0  0  0  0  0  0  0  0  0  0  0  0
    4.8048   -3.3995   22.1704 H   0  0  0  0  0  0  0  0  0  0  0  0
    4.3035   -4.3629   23.9171 N   0  0  0  0  0  0  0  0  0  0  0  0
    4.6373   -4.6217   25.1833 C   0  0  0  0  0  0  0  0  0  0  0  0
    3.9728   -5.2493   25.7822 H   0  0  0  0  0  0  0  0  0  0  0  0
    5.8139   -4.1240   25.7841 C   0  0  0  0  0  0  0  0  0  0  0  0
    6.0412   -4.5093   27.0619 O   0  0  0  0  0  0  0  0  0  0  0  0
    7.2034   -4.0365   27.7058 C   0  0  0  0  0  0  0  0  0  0  0  0
    8.1190   -4.4221   27.2398 H   0  0  0  0  0  0  0  0  0  0  0  0
    7.1170   -4.4153   28.7237 H   0  0  0  0  0  0  0  0  0  0  0  0
    7.2309   -2.9363   27.6868 H   0  0  0  0  0  0  0  0  0  0  0  0
    6.6565   -3.3019   25.0247 C   0  0  0  0  0  0  0  0  0  0  0  0
    7.5525   -2.8870   25.4883 H   0  0  0  0  0  0  0  0  0  0  0  0
    8.5482   -2.1309   23.0313 C   0  0  0  0  0  0  0  0  0  0  0  0
    9.0524   -2.6915   23.8091 H   0  0  0  0  0  0  0  0  0  0  0  0
    9.3089   -1.3356   22.2181 N   0  0  0  0  0  0  0  0  0  0  0  0
   10.3038   -1.1581   22.2944 H   0  0  0  0  0  0  0  0  0  0  0  0
    8.8079   -0.5709   21.1774 C   0  0  0  0  0  0  0  0  0  0  0  0
    9.6100    0.1260   20.5762 O   0  0  0  0  0  0  0  0  0  0  0  0
    5.3975    0.6398   20.1528 C   0  0  0  0  0  0  0  0  0  0  0  0
    4.9572    0.6365   21.1520 H   0  0  0  0  0  0  0  0  0  0  0  0
    4.7876    1.3177   19.0997 C   0  0  0  0  0  0  0  0  0  0  0  0
    3.8619    1.8663   19.2359 H   0  0  0  0  0  0  0  0  0  0  0  0
  1  2  1  0
  2  3  2  0
  3  4  1  0
  4  5  1  0
  4  6  2  0
  6  7  1  0
  7  8  2  0
  8  9  1  0
  9 10  1  0
 10 11  2  0
 11 12  1  0
 11 13  1  0
 13 14  2  0
 14 15  1  0
 14 16  1  0
 16 17  1  0
 17 18  1  0
 18 19  1  0
 18 20  1  0
 18 21  1  0
 16 22  2  0
 22 23  1  0
  9 24  2  0
 24 25  1  0
 24 26  1  0
 26 27  1  0
 26 28  1  0
 28 29  2  0
  6 30  1  0
 30 31  1  0
 30 32  2  0
 32 33  1  0
 32  2  1  0
 28  7  1  0
 22 10  1  0
M  END
>  <cnnaffinity>  (1) 
-5.24669

>  <filename>  (1) 
COc1cncc(-c2c[nH]c(=O)c(-c3cccnc3)n2)c1

$$$$
