
     RDKit          3D

 38 41  0  0  0  0  0  0  0  0999 V2000
    4.9479    1.8044   16.9803 H   0  0  0  0  0  0  0  0  0  0  0  0
    5.4048    1.2923   17.8255 C   0  0  0  0  0  0  0  0  0  0  0  0
    6.5674    0.6663   17.5842 N   0  0  0  0  0  0  0  0  0  0  0  0
    7.1589    0.0385   18.6040 C   0  0  0  0  0  0  0  0  0  0  0  0
    8.1051   -0.4490   18.3679 H   0  0  0  0  0  0  0  0  0  0  0  0
    6.6298    0.0109   19.9068 C   0  0  0  0  0  0  0  0  0  0  0  0
    7.3421   -0.6632   20.9943 C   0  0  0  0  0  0  0  0  0  0  0  0
    8.0151   -1.7867   20.7620 N   0  0  0  0  0  0  0  0  0  0  0  0
    8.4701   -2.1395   21.9625 N   0  0  0  0  0  0  0  0  0  0  0  0
    8.1841   -1.2983   22.9503 C   0  0  0  0  0  0  0  0  0  0  0  0
    7.4443   -0.2851   22.3712 C   0  0  0  0  0  0  0  0  0  0  0  0
    7.1458    0.9587   23.0472 C   0  0  0  0  0  0  0  0  0  0  0  0
    6.8517    0.8881   24.3525 N   0  0  0  0  0  0  0  0  0  0  0  0
    6.5585    2.0193   24.9688 C   0  0  0  0  0  0  0  0  0  0  0  0
    6.2121    1.8383   26.2566 O   0  0  0  0  0  0  0  0  0  0  0  0
    5.9016    2.9392   27.0855 C   0  0  0  0  0  0  0  0  0  0  0  0
    5.6784    2.4795   28.0519 H   0  0  0  0  0  0  0  0  0  0  0  0
    5.0242    3.4951   26.7166 H   0  0  0  0  0  0  0  0  0  0  0  0
    6.7543    3.6307   27.1808 H   0  0  0  0  0  0  0  0  0  0  0  0
    6.6096    3.2872   24.3615 C   0  0  0  0  0  0  0  0  0  0  0  0
    6.3709    4.1591   24.9493 H   0  0  0  0  0  0  0  0  0  0  0  0
    6.9779    3.3578   23.0198 C   0  0  0  0  0  0  0  0  0  0  0  0
    7.0545    4.3125   22.5000 H   0  0  0  0  0  0  0  0  0  0  0  0
    7.2515    2.1702   22.3496 C   0  0  0  0  0  0  0  0  0  0  0  0
    7.5509    2.1286   21.3103 H   0  0  0  0  0  0  0  0  0  0  0  0
    9.0196   -1.5722   24.1681 C   0  0  0  0  0  0  0  0  0  0  0  0
    9.6589   -0.7025   24.3641 H   0  0  0  0  0  0  0  0  0  0  0  0
    8.3717   -1.7001   25.0400 H   0  0  0  0  0  0  0  0  0  0  0  0
    9.8276   -2.8374   23.7521 C   0  0  0  0  0  0  0  0  0  0  0  0
    9.5740   -3.7057   24.3622 H   0  0  0  0  0  0  0  0  0  0  0  0
   10.9032   -2.6829   23.8367 H   0  0  0  0  0  0  0  0  0  0  0  0
    9.4733   -3.1220   22.2656 C   0  0  0  0  0  0  0  0  0  0  0  0
    9.0534   -4.1195   22.1168 H   0  0  0  0  0  0  0  0  0  0  0  0
   10.3204   -2.9462   21.5960 H   0  0  0  0  0  0  0  0  0  0  0  0
    5.4037    0.6493   20.1359 C   0  0  0  0  0  0  0  0  0  0  0  0
    4.9705    0.6507   21.1356 H   0  0  0  0  0  0  0  0  0  0  0  0
    4.7858    1.3068   19.0778 C   0  0  0  0  0  0  0  0  0  0  0  0
    3.8571    1.8479   19.2242 H   0  0  0  0  0  0  0  0  0  0  0  0
  1  2  1  0
  2  3  2  0
  3  4  1  0
  4  5  1  0
  4  6  2  0
  6  7  1  0
  7  8  2  0
  8  9  1  0
  9 10  1  0
 10 11  2  0
 11 12  1  0
 12 13  2  0
 13 14  1  0
 14 15  1  0
 15 16  1  0
 16 17  1  0
 16 18  1  0
 16 19  1  0
 14 20  2  0
 20 21  1  0
 20 22  1  0
 22 23  1  0
 22 24  2  0
 24 25  1  0
 10 26  1  0
 26 27  1  0
 26 28  1  0
 26 29  1  0
 29 30  1  0
 29 31  1  0
 29 32  1  0
 32 33  1  0
 32 34  1  0
  6 35  1  0
 35 36  1  0
 35 37  2  0
 37 38  1  0
 37  2  1  0
 11  7  1  0
 24 12  1  0
 32  9  1  0
M  END
>  <cnnaffinity>  (1) 
-5.52368

>  <filename>  (1) 
COc1cccc(-c2c(-c3cccnc3)nn3c2CCC3)n1

$$$$
