
     RDKit          3D

 37 40  0  0  0  0  0  0  0  0999 V2000
    5.0401    1.8493   16.9236 H   0  0  0  0  0  0  0  0  0  0  0  0
    5.5157    1.3413   17.7605 C   0  0  0  0  0  0  0  0  0  0  0  0
    6.7148    0.7886   17.5143 N   0  0  0  0  0  0  0  0  0  0  0  0
    7.3195    0.1592   18.5245 C   0  0  0  0  0  0  0  0  0  0  0  0
    8.2985   -0.2683   18.3166 H   0  0  0  0  0  0  0  0  0  0  0  0
    6.7528    0.0000   19.7988 C   0  0  0  0  0  0  0  0  0  0  0  0
    7.4787   -0.7793   20.7990 C   0  0  0  0  0  0  0  0  0  0  0  0
    8.8289   -0.5927   21.0114 N   0  0  0  0  0  0  0  0  0  0  0  0
    9.0970   -1.3763   22.0189 C   0  0  0  0  0  0  0  0  0  0  0  0
   10.4970   -1.7249   23.0038 S   0  0  0  0  0  0  0  0  0  0  0  0
    9.5274   -2.7882   24.0195 C   0  0  0  0  0  0  0  0  0  0  0  0
    9.9995   -3.2678   24.8665 H   0  0  0  0  0  0  0  0  0  0  0  0
    8.2528   -2.8759   23.6083 C   0  0  0  0  0  0  0  0  0  0  0  0
    7.4198   -3.4304   24.0350 H   0  0  0  0  0  0  0  0  0  0  0  0
    8.0254   -2.1146   22.4584 N   0  0  0  0  0  0  0  0  0  0  0  0
    6.9679   -1.7678   21.6352 C   0  0  0  0  0  0  0  0  0  0  0  0
    5.7099   -2.3555   21.7093 N   0  0  0  0  0  0  0  0  0  0  0  0
    5.0332   -1.7243   22.1196 H   0  0  0  0  0  0  0  0  0  0  0  0
    5.4646   -3.6735   22.1425 C   0  0  0  0  0  0  0  0  0  0  0  0
    4.4480   -3.8698   23.0817 C   0  0  0  0  0  0  0  0  0  0  0  0
    3.9007   -3.0218   23.4828 H   0  0  0  0  0  0  0  0  0  0  0  0
    4.1327   -5.1496   23.5278 C   0  0  0  0  0  0  0  0  0  0  0  0
    3.3543   -5.2929   24.2695 H   0  0  0  0  0  0  0  0  0  0  0  0
    4.8028   -6.2586   22.9975 C   0  0  0  0  0  0  0  0  0  0  0  0
    4.5143   -7.5398   23.3747 O   0  0  0  0  0  0  0  0  0  0  0  0
    3.1533   -7.8859   23.5802 C   0  0  0  0  0  0  0  0  0  0  0  0
    2.4952   -7.4503   22.8166 H   0  0  0  0  0  0  0  0  0  0  0  0
    2.7918   -7.5738   24.5688 H   0  0  0  0  0  0  0  0  0  0  0  0
    3.0961   -8.9723   23.5066 H   0  0  0  0  0  0  0  0  0  0  0  0
    5.8546   -6.0696   22.0878 C   0  0  0  0  0  0  0  0  0  0  0  0
    6.4059   -6.9461   21.7585 H   0  0  0  0  0  0  0  0  0  0  0  0
    6.1698   -4.7799   21.6432 C   0  0  0  0  0  0  0  0  0  0  0  0
    6.9649   -4.6118   20.9211 H   0  0  0  0  0  0  0  0  0  0  0  0
    5.5042    0.5987   20.0466 C   0  0  0  0  0  0  0  0  0  0  0  0
    5.0484    0.5512   21.0386 H   0  0  0  0  0  0  0  0  0  0  0  0
    4.8815    1.2848   19.0064 C   0  0  0  0  0  0  0  0  0  0  0  0
    3.9267    1.7799   19.1443 H   0  0  0  0  0  0  0  0  0  0  0  0
  1  2  1  0
  2  3  2  0
  3  4  1  0
  4  5  1  0
  4  6  2  0
  6  7  1  0
  7  8  1  0
  8  9  2  0
  9 10  1  0
 10 11  1  0
 11 12  1  0
 11 13  2  0
 13 14  1  0
 13 15  1  0
 15 16  1  0
 16 17  1  0
 17 18  1  0
 17 19  1  0
 19 20  2  0
 20 21  1  0
 20 22  1  0
 22 23  1  0
 22 24  2  0
 24 25  1  0
 25 26  1  0
 26 27  1  0
 26 28  1  0
 26 29  1  0
 24 30  1  0
 30 31  1  0
 30 32  2  0
 32 33  1  0
  6 34  1  0
 34 35  1  0
 34 36  2  0
 36 37  1  0
 36  2  1  0
 16  7  2  0
 32 19  1  0
 15  9  1  0
M  END
>  <cnnaffinity>  (1) 
-5.95794

>  <filename>  (1) 
COc1ccc(Nc2c(-c3cccnc3)nc3sccn23)cc1

$$$$
