
     RDKit          3D

 38 40  0  0  0  0  0  0  0  0999 V2000
    4.9202    1.8358   16.9633 H   0  0  0  0  0  0  0  0  0  0  0  0
    5.3910    1.3168   17.7942 C   0  0  0  0  0  0  0  0  0  0  0  0
    6.5488    0.6963   17.5213 N   0  0  0  0  0  0  0  0  0  0  0  0
    7.1687    0.0828   18.5422 C   0  0  0  0  0  0  0  0  0  0  0  0
    8.0946   -0.4382   18.3052 H   0  0  0  0  0  0  0  0  0  0  0  0
    6.6757    0.0496   19.8710 C   0  0  0  0  0  0  0  0  0  0  0  0
    7.3367   -0.5458   20.9548 N   0  0  0  0  0  0  0  0  0  0  0  0
    6.7697   -1.1723   21.5092 H   0  0  0  0  0  0  0  0  0  0  0  0
    8.7099   -0.7111   21.1116 C   0  0  0  0  0  0  0  0  0  0  0  0
    9.7398    0.1742   20.7165 C   0  0  0  0  0  0  0  0  0  0  0  0
    9.6247    1.0928   20.1552 H   0  0  0  0  0  0  0  0  0  0  0  0
   10.9358   -0.2576   21.1008 N   0  0  0  0  0  0  0  0  0  0  0  0
   10.6788   -1.3968   21.7638 N   0  0  0  0  0  0  0  0  0  0  0  0
   11.4603   -1.9561   22.0831 H   0  0  0  0  0  0  0  0  0  0  0  0
    9.3558   -1.7336   21.8017 C   0  0  0  0  0  0  0  0  0  0  0  0
    8.8435   -2.9161   22.5211 C   0  0  0  0  0  0  0  0  0  0  0  0
    9.3844   -3.2450   23.7755 C   0  0  0  0  0  0  0  0  0  0  0  0
   10.1913   -2.6318   24.1764 H   0  0  0  0  0  0  0  0  0  0  0  0
    8.8750   -4.2714   24.5604 C   0  0  0  0  0  0  0  0  0  0  0  0
    9.3050   -4.4610   25.5368 H   0  0  0  0  0  0  0  0  0  0  0  0
    7.8082   -5.0329   24.0596 C   0  0  0  0  0  0  0  0  0  0  0  0
    7.1129   -5.9522   24.7653 O   0  0  0  0  0  0  0  0  0  0  0  0
    7.5528   -6.3030   26.0607 C   0  0  0  0  0  0  0  0  0  0  0  0
    6.7902   -6.9704   26.4642 H   0  0  0  0  0  0  0  0  0  0  0  0
    8.5209   -6.8197   26.0002 H   0  0  0  0  0  0  0  0  0  0  0  0
    7.6260   -5.4241   26.7161 H   0  0  0  0  0  0  0  0  0  0  0  0
    7.3495   -4.8352   22.7554 C   0  0  0  0  0  0  0  0  0  0  0  0
    6.6275   -5.5332   22.3480 H   0  0  0  0  0  0  0  0  0  0  0  0
    7.7768   -3.7281   22.0275 C   0  0  0  0  0  0  0  0  0  0  0  0
    7.1452   -3.3696   20.8753 O   0  0  0  0  0  0  0  0  0  0  0  0
    6.2656   -4.2909   20.2579 C   0  0  0  0  0  0  0  0  0  0  0  0
    6.0101   -3.8677   19.2878 H   0  0  0  0  0  0  0  0  0  0  0  0
    6.7631   -5.2574   20.1031 H   0  0  0  0  0  0  0  0  0  0  0  0
    5.3494   -4.4172   20.8508 H   0  0  0  0  0  0  0  0  0  0  0  0
    5.4319    0.6472   20.1158 C   0  0  0  0  0  0  0  0  0  0  0  0
    5.0080    0.6175   21.1218 H   0  0  0  0  0  0  0  0  0  0  0  0
    4.7935    1.3052   19.0615 C   0  0  0  0  0  0  0  0  0  0  0  0
    3.8500    1.8171   19.2152 H   0  0  0  0  0  0  0  0  0  0  0  0
  1  2  1  0
  2  3  2  0
  3  4  1  0
  4  5  1  0
  4  6  2  0
  6  7  1  0
  7  8  1  0
  7  9  1  0
  9 10  1  0
 10 11  1  0
 10 12  2  0
 12 13  1  0
 13 14  1  0
 13 15  1  0
 15 16  1  0
 16 17  2  0
 17 18  1  0
 17 19  1  0
 19 20  1  0
 19 21  2  0
 21 22  1  0
 22 23  1  0
 23 24  1  0
 23 25  1  0
 23 26  1  0
 21 27  1  0
 27 28  1  0
 27 29  2  0
 29 30  1  0
 30 31  1  0
 31 32  1  0
 31 33  1  0
 31 34  1  0
  6 35  1  0
 35 36  1  0
 35 37  2  0
 37 38  1  0
 37  2  1  0
 15  9  2  0
 29 16  1  0
M  END
>  <cnnaffinity>  (1) 
-5.52122

>  <filename>  (1) 
COc1ccc(-c2[nH]ncc2Nc2cccnc2)c(OC)c1

$$$$
