
     RDKit          3D

 41 44  0  0  0  0  0  0  0  0999 V2000
    4.9476    1.8547   16.9196 H   0  0  0  0  0  0  0  0  0  0  0  0
    5.3874    1.3158   17.7565 C   0  0  0  0  0  0  0  0  0  0  0  0
    6.5310    0.6613   17.5039 N   0  0  0  0  0  0  0  0  0  0  0  0
    7.1111    0.0269   18.5266 C   0  0  0  0  0  0  0  0  0  0  0  0
    8.0340   -0.5063   18.3031 H   0  0  0  0  0  0  0  0  0  0  0  0
    6.6038    0.0349   19.8389 C   0  0  0  0  0  0  0  0  0  0  0  0
    7.3712   -0.5681   20.9313 C   0  0  0  0  0  0  0  0  0  0  0  0
    8.1725   -1.6153   20.7338 N   0  0  0  0  0  0  0  0  0  0  0  0
    8.7020   -1.8255   21.9390 N   0  0  0  0  0  0  0  0  0  0  0  0
    8.3292   -0.9723   22.8987 C   0  0  0  0  0  0  0  0  0  0  0  0
    7.4122   -0.1273   22.3015 C   0  0  0  0  0  0  0  0  0  0  0  0
    6.6893    0.9328   22.8884 N   0  0  0  0  0  0  0  0  0  0  0  0
    6.9037    1.8350   22.4851 H   0  0  0  0  0  0  0  0  0  0  0  0
    6.5353    1.0271   24.2820 C   0  0  0  0  0  0  0  0  0  0  0  0
    6.0945   -0.0571   25.0517 C   0  0  0  0  0  0  0  0  0  0  0  0
    5.9821   -1.0277   24.5740 H   0  0  0  0  0  0  0  0  0  0  0  0
    5.8327    0.0991   26.4109 C   0  0  0  0  0  0  0  0  0  0  0  0
    5.4692   -0.7231   27.0157 H   0  0  0  0  0  0  0  0  0  0  0  0
    6.0150    1.3468   27.0325 C   0  0  0  0  0  0  0  0  0  0  0  0
    5.6623    1.3867   28.3506 O   0  0  0  0  0  0  0  0  0  0  0  0
    5.7887    2.6036   29.0555 C   0  0  0  0  0  0  0  0  0  0  0  0
    6.8337    2.9376   29.0733 H   0  0  0  0  0  0  0  0  0  0  0  0
    5.4554    2.4101   30.0760 H   0  0  0  0  0  0  0  0  0  0  0  0
    5.1596    3.3888   28.6150 H   0  0  0  0  0  0  0  0  0  0  0  0
    6.5058    2.4217   26.2791 C   0  0  0  0  0  0  0  0  0  0  0  0
    6.6729    3.3919   26.7371 H   0  0  0  0  0  0  0  0  0  0  0  0
    6.7604    2.2546   24.9108 C   0  0  0  0  0  0  0  0  0  0  0  0
    7.1539    3.0811   24.3250 H   0  0  0  0  0  0  0  0  0  0  0  0
    9.1097   -1.2315   24.1622 C   0  0  0  0  0  0  0  0  0  0  0  0
    8.4606   -1.6262   24.9526 H   0  0  0  0  0  0  0  0  0  0  0  0
    9.5848   -0.3194   24.5362 H   0  0  0  0  0  0  0  0  0  0  0  0
   10.1655   -2.2663   23.6880 C   0  0  0  0  0  0  0  0  0  0  0  0
   10.3439   -3.0491   24.4295 H   0  0  0  0  0  0  0  0  0  0  0  0
   11.1076   -1.7541   23.5016 H   0  0  0  0  0  0  0  0  0  0  0  0
    9.6791   -2.8067   22.3180 C   0  0  0  0  0  0  0  0  0  0  0  0
   10.4769   -2.7938   21.5754 H   0  0  0  0  0  0  0  0  0  0  0  0
    9.2254   -3.8034   22.3537 H   0  0  0  0  0  0  0  0  0  0  0  0
    5.3762    0.6762   20.0749 C   0  0  0  0  0  0  0  0  0  0  0  0
    4.9271    0.6623   21.0699 H   0  0  0  0  0  0  0  0  0  0  0  0
    4.7622    1.3293   19.0088 C   0  0  0  0  0  0  0  0  0  0  0  0
    3.8318    1.8689   19.1409 H   0  0  0  0  0  0  0  0  0  0  0  0
  1  2  1  0
  2  3  2  0
  3  4  1  0
  4  5  1  0
  4  6  2  0
  6  7  1  0
  7  8  2  0
  8  9  1  0
  9 10  1  0
 10 11  2  0
 11 12  1  0
 12 13  1  0
 12 14  1  0
 14 15  2  0
 15 16  1  0
 15 17  1  0
 17 18  1  0
 17 19  2  0
 19 20  1  0
 20 21  1  0
 21 22  1  0
 21 23  1  0
 21 24  1  0
 19 25  1  0
 25 26  1  0
 25 27  2  0
 27 28  1  0
 10 29  1  0
 29 30  1  0
 29 31  1  0
 29 32  1  0
 32 33  1  0
 32 34  1  0
 32 35  1  0
 35 36  1  0
 35 37  1  0
  6 38  1  0
 38 39  1  0
 38 40  2  0
 40 41  1  0
 40  2  1  0
 11  7  1  0
 27 14  1  0
 35  9  1  0
M  END
>  <cnnaffinity>  (1) 
-5.84819

>  <filename>  (1) 
COc1ccc(Nc2c(-c3cccnc3)nn3c2CCC3)cc1

$$$$
