
     RDKit          3D

 37 39  0  0  0  0  0  0  0  0999 V2000
    4.9106    1.8107   16.9747 H   0  0  0  0  0  0  0  0  0  0  0  0
    5.3889    1.3000   17.8072 C   0  0  0  0  0  0  0  0  0  0  0  0
    6.5436    0.6709   17.5344 N   0  0  0  0  0  0  0  0  0  0  0  0
    7.1782    0.0569   18.5410 C   0  0  0  0  0  0  0  0  0  0  0  0
    8.1261   -0.4236   18.3079 H   0  0  0  0  0  0  0  0  0  0  0  0
    6.6900    0.0213   19.8638 C   0  0  0  0  0  0  0  0  0  0  0  0
    7.3845   -0.6476   20.9136 N   0  0  0  0  0  0  0  0  0  0  0  0
    6.7768   -1.4482   21.8693 C   0  0  0  0  0  0  0  0  0  0  0  0
    5.7219   -1.6541   21.8442 H   0  0  0  0  0  0  0  0  0  0  0  0
    7.7219   -1.9015   22.7295 C   0  0  0  0  0  0  0  0  0  0  0  0
    7.6011   -2.7436   23.9163 C   0  0  0  0  0  0  0  0  0  0  0  0
    8.4558   -2.6100   25.0307 C   0  0  0  0  0  0  0  0  0  0  0  0
    9.2217   -1.8365   25.0259 H   0  0  0  0  0  0  0  0  0  0  0  0
    8.3362   -3.4333   26.1508 C   0  0  0  0  0  0  0  0  0  0  0  0
    8.9829   -3.2930   27.0090 H   0  0  0  0  0  0  0  0  0  0  0  0
    7.3453   -4.4281   26.1650 C   0  0  0  0  0  0  0  0  0  0  0  0
    7.1465   -5.3262   27.1615 O   0  0  0  0  0  0  0  0  0  0  0  0
    7.9893   -5.2609   28.2878 C   0  0  0  0  0  0  0  0  0  0  0  0
    8.0086   -4.2420   28.6679 H   0  0  0  0  0  0  0  0  0  0  0  0
    9.0163   -5.5843   28.0616 H   0  0  0  0  0  0  0  0  0  0  0  0
    7.5522   -5.9043   29.0510 H   0  0  0  0  0  0  0  0  0  0  0  0
    6.4473   -4.5503   25.1066 C   0  0  0  0  0  0  0  0  0  0  0  0
    5.6514   -5.2805   25.2059 H   0  0  0  0  0  0  0  0  0  0  0  0
    6.5808   -3.7361   23.9841 C   0  0  0  0  0  0  0  0  0  0  0  0
    5.7628   -3.8816   22.9064 O   0  0  0  0  0  0  0  0  0  0  0  0
    4.7544   -4.8740   22.9514 C   0  0  0  0  0  0  0  0  0  0  0  0
    5.1796   -5.8745   23.1154 H   0  0  0  0  0  0  0  0  0  0  0  0
    4.2539   -4.8472   21.9848 H   0  0  0  0  0  0  0  0  0  0  0  0
    4.0308   -4.6580   23.7489 H   0  0  0  0  0  0  0  0  0  0  0  0
    8.9286   -1.3557   22.3012 N   0  0  0  0  0  0  0  0  0  0  0  0
    9.8611   -1.6492   22.5232 H   0  0  0  0  0  0  0  0  0  0  0  0
    8.7708   -0.6240   21.1532 C   0  0  0  0  0  0  0  0  0  0  0  0
    9.6588   -0.1069   20.5108 O   0  0  0  0  0  0  0  0  0  0  0  0
    5.4744    0.6594   20.1284 C   0  0  0  0  0  0  0  0  0  0  0  0
    5.0694    0.6644   21.1410 H   0  0  0  0  0  0  0  0  0  0  0  0
    4.8175    1.3129   19.0830 C   0  0  0  0  0  0  0  0  0  0  0  0
    3.8827    1.8345   19.2440 H   0  0  0  0  0  0  0  0  0  0  0  0
  1  2  1  0
  2  3  2  0
  3  4  1  0
  4  5  1  0
  4  6  2  0
  6  7  1  0
  7  8  1  0
  8  9  1  0
  8 10  2  0
 10 11  1  0
 11 12  2  0
 12 13  1  0
 12 14  1  0
 14 15  1  0
 14 16  2  0
 16 17  1  0
 17 18  1  0
 18 19  1  0
 18 20  1  0
 18 21  1  0
 16 22  1  0
 22 23  1  0
 22 24  2  0
 24 25  1  0
 25 26  1  0
 26 27  1  0
 26 28  1  0
 26 29  1  0
 10 30  1  0
 30 31  1  0
 30 32  1  0
 32 33  2  0
  6 34  1  0
 34 35  1  0
 34 36  2  0
 36 37  1  0
 36  2  1  0
 32  7  1  0
 24 11  1  0
M  END
>  <cnnaffinity>  (1) 
-5.3408

>  <filename>  (1) 
COc1ccc(-c2cn(-c3cccnc3)c(=O)[nH]2)c(OC)c1

$$$$
