
     RDKit          3D

 33 35  0  0  0  0  0  0  0  0999 V2000
    4.9227    1.7877   16.9925 H   0  0  0  0  0  0  0  0  0  0  0  0
    5.4001    1.2961   17.8378 C   0  0  0  0  0  0  0  0  0  0  0  0
    6.5619    0.6753   17.5781 N   0  0  0  0  0  0  0  0  0  0  0  0
    7.1745    0.0593   18.5958 C   0  0  0  0  0  0  0  0  0  0  0  0
    8.1134   -0.4409   18.3669 H   0  0  0  0  0  0  0  0  0  0  0  0
    6.6634    0.0069   19.9034 C   0  0  0  0  0  0  0  0  0  0  0  0
    7.3490   -0.6922   20.9466 N   0  0  0  0  0  0  0  0  0  0  0  0
    6.5697   -1.4262   21.7937 N   0  0  0  0  0  0  0  0  0  0  0  0
    7.1365   -2.0781   22.7779 C   0  0  0  0  0  0  0  0  0  0  0  0
    6.2252   -2.8607   23.6867 C   0  0  0  0  0  0  0  0  0  0  0  0
    6.4258   -2.9104   25.0848 C   0  0  0  0  0  0  0  0  0  0  0  0
    7.2688   -2.4017   25.5347 H   0  0  0  0  0  0  0  0  0  0  0  0
    5.5626   -3.6578   25.8644 C   0  0  0  0  0  0  0  0  0  0  0  0
    5.7081   -3.7026   26.9411 H   0  0  0  0  0  0  0  0  0  0  0  0
    4.5219   -4.3613   25.3769 N   0  0  0  0  0  0  0  0  0  0  0  0
    4.3414   -4.3154   24.0675 C   0  0  0  0  0  0  0  0  0  0  0  0
    3.3169   -4.9736   23.4918 O   0  0  0  0  0  0  0  0  0  0  0  0
    2.4088   -5.7315   24.2854 C   0  0  0  0  0  0  0  0  0  0  0  0
    2.9141   -6.5447   24.8191 H   0  0  0  0  0  0  0  0  0  0  0  0
    1.8785   -5.1051   25.0125 H   0  0  0  0  0  0  0  0  0  0  0  0
    1.6986   -6.1456   23.5688 H   0  0  0  0  0  0  0  0  0  0  0  0
    5.1590   -3.5910   23.1769 C   0  0  0  0  0  0  0  0  0  0  0  0
    4.9405   -3.6029   22.1207 H   0  0  0  0  0  0  0  0  0  0  0  0
    8.6183   -2.0880   23.0219 C   0  0  0  0  0  0  0  0  0  0  0  0
    9.1771   -2.7247   23.9128 O   0  0  0  0  0  0  0  0  0  0  0  0
    9.3677   -1.2601   22.0850 C   0  0  0  0  0  0  0  0  0  0  0  0
   10.4421   -1.2179   22.2154 H   0  0  0  0  0  0  0  0  0  0  0  0
    8.7177   -0.6106   21.1073 C   0  0  0  0  0  0  0  0  0  0  0  0
    9.2216    0.0355   20.3916 H   0  0  0  0  0  0  0  0  0  0  0  0
    5.4429    0.6448   20.1636 C   0  0  0  0  0  0  0  0  0  0  0  0
    5.0338    0.5948   21.1729 H   0  0  0  0  0  0  0  0  0  0  0  0
    4.8126    1.3123   19.1083 C   0  0  0  0  0  0  0  0  0  0  0  0
    3.8788    1.8415   19.2582 H   0  0  0  0  0  0  0  0  0  0  0  0
  1  2  1  0
  2  3  2  0
  3  4  1  0
  4  5  1  0
  4  6  2  0
  6  7  1  0
  7  8  1  0
  8  9  2  0
  9 10  1  0
 10 11  2  0
 11 12  1  0
 11 13  1  0
 13 14  1  0
 13 15  2  0
 15 16  1  0
 16 17  1  0
 17 18  1  0
 18 19  1  0
 18 20  1  0
 18 21  1  0
 16 22  2  0
 22 23  1  0
  9 24  1  0
 24 25  2  0
 24 26  1  0
 26 27  1  0
 26 28  2  0
 28 29  1  0
  6 30  1  0
 30 31  1  0
 30 32  2  0
 32 33  1  0
 32  2  1  0
 28  7  1  0
 22 10  1  0
M  END
>  <cnnaffinity>  (1) 
-5.04958

>  <filename>  (1) 
COc1cc(-c2nn(-c3cccnc3)ccc2=O)ccn1

$$$$
