
     RDKit          3D

 36 38  0  0  0  0  0  0  0  0999 V2000
    4.9215    1.8015   16.9821 H   0  0  0  0  0  0  0  0  0  0  0  0
    5.3979    1.2992   17.8205 C   0  0  0  0  0  0  0  0  0  0  0  0
    6.5623    0.6883   17.5510 N   0  0  0  0  0  0  0  0  0  0  0  0
    7.1732    0.0705   18.5709 C   0  0  0  0  0  0  0  0  0  0  0  0
    8.1257   -0.4082   18.3363 H   0  0  0  0  0  0  0  0  0  0  0  0
    6.6619    0.0040   19.8825 C   0  0  0  0  0  0  0  0  0  0  0  0
    7.3992   -0.6981   21.0135 C   0  0  2  0  0  0  0  0  0  0  0  0
    8.1886   -1.3245   20.5740 H   0  0  0  0  0  0  0  0  0  0  0  0
    6.5180   -1.6585   21.8259 C   0  0  0  0  0  0  0  0  0  0  0  0
    5.8279   -2.5806   21.4389 O   0  0  0  0  0  0  0  0  0  0  0  0
    6.6717   -1.3436   23.1281 N   0  0  0  0  0  0  0  0  0  0  0  0
    6.1014   -1.8880   23.7474 H   0  0  0  0  0  0  0  0  0  0  0  0
    7.5654   -0.2615   23.4541 C   0  0  0  0  0  0  0  0  0  0  0  0
    7.0682    0.5098   24.0553 H   0  0  0  0  0  0  0  0  0  0  0  0
    8.4155   -0.6192   24.0558 H   0  0  0  0  0  0  0  0  0  0  0  0
    7.9955    0.2864   22.0653 C   0  0  1  0  0  0  0  0  0  0  0  0
    7.5362    1.2764   21.9351 H   0  0  0  0  0  0  0  0  0  0  0  0
    9.4924    0.4825   21.9178 C   0  0  0  0  0  0  0  0  0  0  0  0
   10.0154    1.7467   21.5932 C   0  0  0  0  0  0  0  0  0  0  0  0
    9.3326    2.5779   21.4244 H   0  0  0  0  0  0  0  0  0  0  0  0
   11.3909    1.9406   21.5009 C   0  0  0  0  0  0  0  0  0  0  0  0
   11.7899    2.9145   21.2174 H   0  0  0  0  0  0  0  0  0  0  0  0
   12.2683    0.8850   21.7618 C   0  0  0  0  0  0  0  0  0  0  0  0
   13.3422    1.0258   21.7356 H   0  0  0  0  0  0  0  0  0  0  0  0
   11.7630   -0.3958   22.0091 C   0  0  0  0  0  0  0  0  0  0  0  0
   12.5226   -1.5130   22.1649 O   0  0  0  0  0  0  0  0  0  0  0  0
   13.9313   -1.4503   22.0409 C   0  0  0  0  0  0  0  0  0  0  0  0
   14.3760   -0.7752   22.7859 H   0  0  0  0  0  0  0  0  0  0  0  0
   14.2492   -1.1380   21.0370 H   0  0  0  0  0  0  0  0  0  0  0  0
   14.2761   -2.4705   22.2142 H   0  0  0  0  0  0  0  0  0  0  0  0
   10.3752   -0.5863   22.1077 C   0  0  0  0  0  0  0  0  0  0  0  0
   10.0259   -1.5895   22.3365 H   0  0  0  0  0  0  0  0  0  0  0  0
    5.4463    0.6502   20.1369 C   0  0  0  0  0  0  0  0  0  0  0  0
    5.0170    0.6311   21.1412 H   0  0  0  0  0  0  0  0  0  0  0  0
    4.8033    1.3120   19.0875 C   0  0  0  0  0  0  0  0  0  0  0  0
    3.8724    1.8442   19.2406 H   0  0  0  0  0  0  0  0  0  0  0  0
  1  2  1  0
  2  3  2  0
  3  4  1  0
  4  5  1  0
  4  6  2  0
  6  7  1  0
  7  8  1  6
  7  9  1  0
  9 10  2  0
  9 11  1  0
 11 12  1  0
 11 13  1  0
 13 14  1  0
 13 15  1  0
 13 16  1  0
 16 17  1  6
 16 18  1  0
 18 19  2  0
 19 20  1  0
 19 21  1  0
 21 22  1  0
 21 23  2  0
 23 24  1  0
 23 25  1  0
 25 26  1  0
 26 27  1  0
 27 28  1  0
 27 29  1  0
 27 30  1  0
 25 31  2  0
 31 32  1  0
  6 33  1  0
 33 34  1  0
 33 35  2  0
 35 36  1  0
 35  2  1  0
 16  7  1  0
 31 18  1  0
M  END
>  <cnnaffinity>  (1) 
-5.38135

>  <filename>  (1) 
COc1cccc([C@@H]2CNC(=O)[C@H]2c2cccnc2)c1

$$$$
