
     RDKit          3D

 39 41  0  0  0  0  0  0  0  0999 V2000
    4.9141    1.7986   16.9853 H   0  0  0  0  0  0  0  0  0  0  0  0
    5.3859    1.3005   17.8282 C   0  0  0  0  0  0  0  0  0  0  0  0
    6.5434    0.6751   17.5590 N   0  0  0  0  0  0  0  0  0  0  0  0
    7.1651    0.0592   18.5719 C   0  0  0  0  0  0  0  0  0  0  0  0
    8.1217   -0.4167   18.3511 H   0  0  0  0  0  0  0  0  0  0  0  0
    6.6520    0.0129   19.8841 C   0  0  0  0  0  0  0  0  0  0  0  0
    7.3509   -0.6712   20.9437 N   0  0  0  0  0  0  0  0  0  0  0  0
    6.7258   -1.7263   21.5883 C   0  0  0  0  0  0  0  0  0  0  0  0
    5.7201   -1.9522   21.2424 H   0  0  0  0  0  0  0  0  0  0  0  0
    7.3234   -2.4405   22.5765 C   0  0  0  0  0  0  0  0  0  0  0  0
    6.6278   -3.5636   23.2502 C   0  0  0  0  0  0  0  0  0  0  0  0
    6.4854   -3.5588   24.6404 C   0  0  0  0  0  0  0  0  0  0  0  0
    6.9306   -2.7255   25.1770 H   0  0  0  0  0  0  0  0  0  0  0  0
    5.8179   -4.5725   25.3265 C   0  0  0  0  0  0  0  0  0  0  0  0
    5.7312   -4.5272   26.4055 H   0  0  0  0  0  0  0  0  0  0  0  0
    5.2835   -5.6425   24.6019 C   0  0  0  0  0  0  0  0  0  0  0  0
    4.6201   -6.6852   25.1630 O   0  0  0  0  0  0  0  0  0  0  0  0
    4.4260   -6.7505   26.5674 C   0  0  0  0  0  0  0  0  0  0  0  0
    5.3763   -6.7987   27.1199 H   0  0  0  0  0  0  0  0  0  0  0  0
    3.8365   -5.9029   26.9489 H   0  0  0  0  0  0  0  0  0  0  0  0
    3.8698   -7.6749   26.7283 H   0  0  0  0  0  0  0  0  0  0  0  0
    5.4103   -5.6936   23.2000 C   0  0  0  0  0  0  0  0  0  0  0  0
    4.9821   -6.5426   22.6754 H   0  0  0  0  0  0  0  0  0  0  0  0
    6.0709   -4.6610   22.5304 C   0  0  0  0  0  0  0  0  0  0  0  0
    6.2668   -4.6152   21.1866 O   0  0  0  0  0  0  0  0  0  0  0  0
    5.7977   -5.6390   20.3437 C   0  0  0  0  0  0  0  0  0  0  0  0
    6.2405   -6.6023   20.6015 H   0  0  0  0  0  0  0  0  0  0  0  0
    4.7160   -5.7151   20.4117 H   0  0  0  0  0  0  0  0  0  0  0  0
    6.0871   -5.3502   19.3309 H   0  0  0  0  0  0  0  0  0  0  0  0
    8.6959   -2.0650   22.9845 C   0  0  0  0  0  0  0  0  0  0  0  0
    9.4092   -2.5628   23.8292 O   0  0  0  0  0  0  0  0  0  0  0  0
    9.2193   -1.0155   22.2803 N   0  0  0  0  0  0  0  0  0  0  0  0
   10.1502   -0.7533   22.5236 H   0  0  0  0  0  0  0  0  0  0  0  0
    8.6646   -0.2819   21.2941 C   0  0  0  0  0  0  0  0  0  0  0  0
    9.2921    0.6119   20.7818 O   0  0  0  0  0  0  0  0  0  0  0  0
    5.4364    0.6472   20.1467 C   0  0  0  0  0  0  0  0  0  0  0  0
    5.0329    0.6209   21.1582 H   0  0  0  0  0  0  0  0  0  0  0  0
    4.7999    1.3181   19.0980 C   0  0  0  0  0  0  0  0  0  0  0  0
    3.8706    1.8490   19.2526 H   0  0  0  0  0  0  0  0  0  0  0  0
  1  2  1  0
  2  3  2  0
  3  4  1  0
  4  5  1  0
  4  6  2  0
  6  7  1  0
  7  8  1  0
  8  9  1  0
  8 10  2  0
 10 11  1  0
 11 12  2  0
 12 13  1  0
 12 14  1  0
 14 15  1  0
 14 16  2  0
 16 17  1  0
 17 18  1  0
 18 19  1  0
 18 20  1  0
 18 21  1  0
 16 22  1  0
 22 23  1  0
 22 24  2  0
 24 25  1  0
 25 26  1  0
 26 27  1  0
 26 28  1  0
 26 29  1  0
 10 30  1  0
 30 31  2  0
 30 32  1  0
 32 33  1  0
 32 34  1  0
 34 35  2  0
  6 36  1  0
 36 37  1  0
 36 38  2  0
 38 39  1  0
 38  2  1  0
 34  7  1  0
 24 11  1  0
M  END
>  <cnnaffinity>  (1) 
-5.28468

>  <filename>  (1) 
COc1ccc(-c2cn(-c3cccnc3)c(=O)[nH]c2=O)c(OC)c1

$$$$
