
     RDKit          3D

 39 41  0  0  0  0  0  0  0  0999 V2000
    4.9157    1.7779   16.9998 H   0  0  0  0  0  0  0  0  0  0  0  0
    5.4023    1.2926   17.8447 C   0  0  0  0  0  0  0  0  0  0  0  0
    6.5641    0.6709   17.5863 N   0  0  0  0  0  0  0  0  0  0  0  0
    7.1708    0.0479   18.6030 C   0  0  0  0  0  0  0  0  0  0  0  0
    8.1234   -0.4252   18.3812 H   0  0  0  0  0  0  0  0  0  0  0  0
    6.6422   -0.0203   19.9063 C   0  0  0  0  0  0  0  0  0  0  0  0
    7.3283   -0.7186   20.9504 N   0  0  0  0  0  0  0  0  0  0  0  0
    6.5574   -1.6373   21.6543 N   0  0  0  0  0  0  0  0  0  0  0  0
    7.1232   -2.3011   22.6401 C   0  0  0  0  0  0  0  0  0  0  0  0
    6.4061   -3.2737   23.3394 N   0  0  0  0  0  0  0  0  0  0  0  0
    6.3380   -3.2402   24.8098 C   0  0  0  0  0  0  0  0  0  0  0  0
    5.5036   -2.6191   25.1750 H   0  0  0  0  0  0  0  0  0  0  0  0
    7.2518   -2.8065   25.2281 H   0  0  0  0  0  0  0  0  0  0  0  0
    6.1777   -4.6574   25.3606 C   0  0  0  0  0  0  0  0  0  0  0  0
    7.0835   -5.2381   25.1521 H   0  0  0  0  0  0  0  0  0  0  0  0
    6.0518   -4.6386   26.4485 H   0  0  0  0  0  0  0  0  0  0  0  0
    4.9931   -5.3824   24.7314 C   0  0  0  0  0  0  0  0  0  0  0  0
    4.9991   -6.4292   25.0819 H   0  0  0  0  0  0  0  0  0  0  0  0
    3.7918   -4.7440   25.1520 O   0  0  0  0  0  0  0  0  0  0  0  0
    2.7213   -5.6372   25.3658 C   0  0  0  0  0  0  0  0  0  0  0  0
    2.9337   -6.2947   26.2233 H   0  0  0  0  0  0  0  0  0  0  0  0
    1.8223   -5.0546   25.5794 H   0  0  0  0  0  0  0  0  0  0  0  0
    2.5305   -6.2693   24.4834 H   0  0  0  0  0  0  0  0  0  0  0  0
    5.1009   -5.3508   23.2050 C   0  0  0  0  0  0  0  0  0  0  0  0
    4.2149   -5.8132   22.7564 H   0  0  0  0  0  0  0  0  0  0  0  0
    5.9656   -5.9527   22.9068 H   0  0  0  0  0  0  0  0  0  0  0  0
    5.2710   -3.9226   22.6778 C   0  0  0  0  0  0  0  0  0  0  0  0
    5.4648   -3.9560   21.6025 H   0  0  0  0  0  0  0  0  0  0  0  0
    4.3379   -3.3554   22.8133 H   0  0  0  0  0  0  0  0  0  0  0  0
    8.5255   -2.1081   22.9733 C   0  0  0  0  0  0  0  0  0  0  0  0
    8.9620   -2.7285   23.7556 H   0  0  0  0  0  0  0  0  0  0  0  0
    9.2744   -1.2178   22.2818 C   0  0  0  0  0  0  0  0  0  0  0  0
   10.3241   -1.0154   22.4711 H   0  0  0  0  0  0  0  0  0  0  0  0
    8.7118   -0.4047   21.2032 C   0  0  0  0  0  0  0  0  0  0  0  0
    9.3308    0.4326   20.5684 O   0  0  0  0  0  0  0  0  0  0  0  0
    5.4357    0.6389   20.1677 C   0  0  0  0  0  0  0  0  0  0  0  0
    5.0152    0.6101   21.1726 H   0  0  0  0  0  0  0  0  0  0  0  0
    4.8103    1.3141   19.1134 C   0  0  0  0  0  0  0  0  0  0  0  0
    3.8753    1.8449   19.2644 H   0  0  0  0  0  0  0  0  0  0  0  0
  1  2  1  0
  2  3  2  0
  3  4  1  0
  4  5  1  0
  4  6  2  0
  6  7  1  0
  7  8  1  0
  8  9  2  0
  9 10  1  0
 10 11  1  0
 11 12  1  0
 11 13  1  0
 11 14  1  0
 14 15  1  0
 14 16  1  0
 14 17  1  0
 17 18  1  0
 17 19  1  0
 19 20  1  0
 20 21  1  0
 20 22  1  0
 20 23  1  0
 17 24  1  0
 24 25  1  0
 24 26  1  0
 24 27  1  0
 27 28  1  0
 27 29  1  0
  9 30  1  0
 30 31  1  0
 30 32  2  0
 32 33  1  0
 32 34  1  0
 34 35  2  0
  6 36  1  0
 36 37  1  0
 36 38  2  0
 38 39  1  0
 38  2  1  0
 34  7  1  0
 27 10  1  0
M  END
>  <cnnaffinity>  (1) 
-5.1653

>  <filename>  (1) 
COC1CCN(c2ccc(=O)n(-c3cccnc3)n2)CC1

$$$$
