
     RDKit          3D

 34 36  0  0  0  0  0  0  0  0999 V2000
    4.9107    1.8021   16.9768 H   0  0  0  0  0  0  0  0  0  0  0  0
    5.3864    1.3057   17.8201 C   0  0  0  0  0  0  0  0  0  0  0  0
    6.5504    0.6898   17.5539 N   0  0  0  0  0  0  0  0  0  0  0  0
    7.1581    0.0657   18.5689 C   0  0  0  0  0  0  0  0  0  0  0  0
    8.1148   -0.3992   18.3309 H   0  0  0  0  0  0  0  0  0  0  0  0
    6.6532    0.0169   19.8867 C   0  0  0  0  0  0  0  0  0  0  0  0
    7.3709   -0.6499   20.9791 C   0  0  0  0  0  0  0  0  0  0  0  0
    7.5137   -0.3186   22.3237 C   0  0  0  0  0  0  0  0  0  0  0  0
    7.0361    0.8440   22.9440 N   0  0  0  0  0  0  0  0  0  0  0  0
    6.9828    1.6570   22.3544 H   0  0  0  0  0  0  0  0  0  0  0  0
    6.8298    1.0474   24.3046 C   0  0  0  0  0  0  0  0  0  0  0  0
    6.3598   -0.0002   25.1001 C   0  0  0  0  0  0  0  0  0  0  0  0
    6.1784   -0.9544   24.6184 H   0  0  0  0  0  0  0  0  0  0  0  0
    6.1526    0.2033   26.4623 C   0  0  0  0  0  0  0  0  0  0  0  0
    5.8021   -0.6233   27.0716 H   0  0  0  0  0  0  0  0  0  0  0  0
    6.3948    1.4464   27.0358 C   0  0  0  0  0  0  0  0  0  0  0  0
    6.2395    1.6295   28.0920 H   0  0  0  0  0  0  0  0  0  0  0  0
    6.8479    2.5096   26.2291 C   0  0  0  0  0  0  0  0  0  0  0  0
    7.0407    3.6813   26.8934 O   0  0  0  0  0  0  0  0  0  0  0  0
    7.4895    4.8334   26.2063 C   0  0  0  0  0  0  0  0  0  0  0  0
    8.4849    4.6943   25.7626 H   0  0  0  0  0  0  0  0  0  0  0  0
    7.5484    5.6107   26.9704 H   0  0  0  0  0  0  0  0  0  0  0  0
    6.7879    5.1570   25.4249 H   0  0  0  0  0  0  0  0  0  0  0  0
    7.0574    2.3170   24.8601 C   0  0  0  0  0  0  0  0  0  0  0  0
    7.4147    3.1279   24.2347 H   0  0  0  0  0  0  0  0  0  0  0  0
    8.2894   -1.3736   22.8697 C   0  0  0  0  0  0  0  0  0  0  0  0
    8.6295   -1.4710   23.8938 H   0  0  0  0  0  0  0  0  0  0  0  0
    8.6032   -2.2853   21.9546 N   0  0  0  0  0  0  0  0  0  0  0  0
    8.0471   -1.8208   20.8255 N   0  0  0  0  0  0  0  0  0  0  0  0
    8.1293   -2.3623   19.9765 H   0  0  0  0  0  0  0  0  0  0  0  0
    5.4327    0.6629   20.1390 C   0  0  0  0  0  0  0  0  0  0  0  0
    5.0172    0.6275   21.1477 H   0  0  0  0  0  0  0  0  0  0  0  0
    4.7931    1.3196   19.0883 C   0  0  0  0  0  0  0  0  0  0  0  0
    3.8634    1.8494   19.2420 H   0  0  0  0  0  0  0  0  0  0  0  0
  1  2  1  0
  2  3  2  0
  3  4  1  0
  4  5  1  0
  4  6  2  0
  6  7  1  0
  7  8  2  0
  8  9  1  0
  9 10  1  0
  9 11  1  0
 11 12  2  0
 12 13  1  0
 12 14  1  0
 14 15  1  0
 14 16  2  0
 16 17  1  0
 16 18  1  0
 18 19  1  0
 19 20  1  0
 20 21  1  0
 20 22  1  0
 20 23  1  0
 18 24  2  0
 24 25  1  0
  8 26  1  0
 26 27  1  0
 26 28  2  0
 28 29  1  0
 29 30  1  0
  6 31  1  0
 31 32  1  0
 31 33  2  0
 33 34  1  0
 33  2  1  0
 29  7  1  0
 24 11  1  0
M  END
>  <cnnaffinity>  (1) 
-5.36565

>  <filename>  (1) 
COc1cccc(Nc2cn[nH]c2-c2cccnc2)c1

$$$$
