
     RDKit          3D

 38 40  0  0  0  0  0  0  0  0999 V2000
    5.0239    1.9821   16.9194 H   0  0  0  0  0  0  0  0  0  0  0  0
    5.4517    1.3835   17.7202 C   0  0  0  0  0  0  0  0  0  0  0  0
    6.6046    0.7546   17.4393 N   0  0  0  0  0  0  0  0  0  0  0  0
    7.1757    0.0442   18.4161 C   0  0  0  0  0  0  0  0  0  0  0  0
    8.1102   -0.4606   18.1689 H   0  0  0  0  0  0  0  0  0  0  0  0
    6.6292   -0.0927   19.7092 C   0  0  0  0  0  0  0  0  0  0  0  0
    7.3609   -0.7868   20.7423 N   0  0  0  0  0  0  0  0  0  0  0  0
    8.6912   -0.4318   20.9631 C   0  0  0  0  0  0  0  0  0  0  0  0
    9.0644    0.3819   20.3457 H   0  0  0  0  0  0  0  0  0  0  0  0
    9.4482   -1.0213   21.9129 C   0  0  0  0  0  0  0  0  0  0  0  0
   10.7630   -0.4725   22.4069 C   0  0  0  0  0  0  0  0  0  0  0  0
   11.2617    0.1388   21.6400 H   0  0  0  0  0  0  0  0  0  0  0  0
   11.4372   -1.2989   22.6574 H   0  0  0  0  0  0  0  0  0  0  0  0
   10.4774    0.3483   23.6602 C   0  0  0  0  0  0  0  0  0  0  0  0
   10.6149   -0.2156   24.9327 C   0  0  0  0  0  0  0  0  0  0  0  0
   11.0549   -1.2019   25.0204 H   0  0  0  0  0  0  0  0  0  0  0  0
   10.0934    0.4055   26.0706 C   0  0  0  0  0  0  0  0  0  0  0  0
   10.1450   -0.0883   27.0396 H   0  0  0  0  0  0  0  0  0  0  0  0
    9.4506    1.6371   25.9350 C   0  0  0  0  0  0  0  0  0  0  0  0
    9.0206    2.1003   26.8179 H   0  0  0  0  0  0  0  0  0  0  0  0
    9.3400    2.2593   24.6858 C   0  0  0  0  0  0  0  0  0  0  0  0
    8.8420    3.2235   24.6018 H   0  0  0  0  0  0  0  0  0  0  0  0
    9.8553    1.6138   23.5508 C   0  0  0  0  0  0  0  0  0  0  0  0
    9.7532    2.1019   22.2793 O   0  0  0  0  0  0  0  0  0  0  0  0
    8.9669    3.2382   22.0084 C   0  0  0  0  0  0  0  0  0  0  0  0
    7.9466    3.1401   22.3999 H   0  0  0  0  0  0  0  0  0  0  0  0
    8.9189    3.2946   20.9201 H   0  0  0  0  0  0  0  0  0  0  0  0
    9.4276    4.1529   22.4032 H   0  0  0  0  0  0  0  0  0  0  0  0
    8.8513   -2.1119   22.6987 C   0  0  0  0  0  0  0  0  0  0  0  0
    9.4188   -2.8896   23.4350 O   0  0  0  0  0  0  0  0  0  0  0  0
    7.4901   -2.2361   22.5671 N   0  0  0  0  0  0  0  0  0  0  0  0
    7.0954   -3.0314   23.0262 H   0  0  0  0  0  0  0  0  0  0  0  0
    6.7427   -1.7896   21.5259 C   0  0  0  0  0  0  0  0  0  0  0  0
    5.6487   -2.2663   21.3245 O   0  0  0  0  0  0  0  0  0  0  0  0
    5.3929    0.5119   19.9696 C   0  0  0  0  0  0  0  0  0  0  0  0
    4.9100    0.3849   20.9378 H   0  0  0  0  0  0  0  0  0  0  0  0
    4.8105    1.2846   18.9586 C   0  0  0  0  0  0  0  0  0  0  0  0
    3.8832    1.8231   19.1226 H   0  0  0  0  0  0  0  0  0  0  0  0
  1  2  1  0
  2  3  2  0
  3  4  1  0
  4  5  1  0
  4  6  2  0
  6  7  1  0
  7  8  1  0
  8  9  1  0
  8 10  2  0
 10 11  1  0
 11 12  1  0
 11 13  1  0
 11 14  1  0
 14 15  2  0
 15 16  1  0
 15 17  1  0
 17 18  1  0
 17 19  2  0
 19 20  1  0
 19 21  1  0
 21 22  1  0
 21 23  2  0
 23 24  1  0
 24 25  1  0
 25 26  1  0
 25 27  1  0
 25 28  1  0
 10 29  1  0
 29 30  2  0
 29 31  1  0
 31 32  1  0
 31 33  1  0
 33 34  2  0
  6 35  1  0
 35 36  1  0
 35 37  2  0
 37 38  1  0
 37  2  1  0
 33  7  1  0
 23 14  1  0
M  END
>  <cnnaffinity>  (1) 
-4.90817

>  <filename>  (1) 
COc1ccccc1Cc1cn(-c2cccnc2)c(=O)[nH]c1=O

$$$$
