
     RDKit          3D

 32 34  0  0  0  0  0  0  0  0999 V2000
    4.9284    1.7889   16.9976 H   0  0  0  0  0  0  0  0  0  0  0  0
    5.3992    1.2895   17.8427 C   0  0  0  0  0  0  0  0  0  0  0  0
    6.5566    0.6631   17.5829 N   0  0  0  0  0  0  0  0  0  0  0  0
    7.1724    0.0422   18.5937 C   0  0  0  0  0  0  0  0  0  0  0  0
    8.1257   -0.4307   18.3629 H   0  0  0  0  0  0  0  0  0  0  0  0
    6.6512   -0.0076   19.9017 C   0  0  0  0  0  0  0  0  0  0  0  0
    7.3281   -0.6981   20.9538 N   0  0  0  0  0  0  0  0  0  0  0  0
    6.7292   -1.6050   21.8120 C   0  0  0  0  0  0  0  0  0  0  0  0
    5.6789   -1.8518   21.7440 H   0  0  0  0  0  0  0  0  0  0  0  0
    7.6630   -2.0683   22.6794 C   0  0  0  0  0  0  0  0  0  0  0  0
    7.4843   -3.0326   23.7872 C   0  0  0  0  0  0  0  0  0  0  0  0
    6.2273   -3.4951   23.9466 N   0  0  0  0  0  0  0  0  0  0  0  0
    6.0216   -4.3513   24.9303 C   0  0  0  0  0  0  0  0  0  0  0  0
    4.7886   -4.8426   25.1450 O   0  0  0  0  0  0  0  0  0  0  0  0
    3.6991   -4.4294   24.3244 C   0  0  0  0  0  0  0  0  0  0  0  0
    3.8542   -4.6903   23.2698 H   0  0  0  0  0  0  0  0  0  0  0  0
    3.5174   -3.3488   24.3895 H   0  0  0  0  0  0  0  0  0  0  0  0
    2.8460   -4.9776   24.7239 H   0  0  0  0  0  0  0  0  0  0  0  0
    7.0222   -4.8216   25.8035 C   0  0  0  0  0  0  0  0  0  0  0  0
    6.7289   -5.5310   26.5645 H   0  0  0  0  0  0  0  0  0  0  0  0
    8.3154   -4.3546   25.6340 C   0  0  0  0  0  0  0  0  0  0  0  0
    9.1368   -4.6845   26.2775 H   0  0  0  0  0  0  0  0  0  0  0  0
    8.5477   -3.4354   24.5994 C   0  0  0  0  0  0  0  0  0  0  0  0
    9.5370   -3.0393   24.4216 H   0  0  0  0  0  0  0  0  0  0  0  0
    8.8478   -1.4096   22.3173 N   0  0  0  0  0  0  0  0  0  0  0  0
    9.7767   -1.4149   22.7101 H   0  0  0  0  0  0  0  0  0  0  0  0
    8.6506   -0.5335   21.3037 C   0  0  0  0  0  0  0  0  0  0  0  0
    9.8115    0.5029   20.7426 S   0  0  0  0  0  0  0  0  0  0  0  0
    5.4435    0.6407   20.1636 C   0  0  0  0  0  0  0  0  0  0  0  0
    5.0346    0.6270   21.1755 H   0  0  0  0  0  0  0  0  0  0  0  0
    4.8118    1.3077   19.1112 C   0  0  0  0  0  0  0  0  0  0  0  0
    3.8823    1.8395   19.2606 H   0  0  0  0  0  0  0  0  0  0  0  0
  1  2  1  0
  2  3  2  0
  3  4  1  0
  4  5  1  0
  4  6  2  0
  6  7  1  0
  7  8  1  0
  8  9  1  0
  8 10  2  0
 10 11  1  0
 11 12  2  0
 12 13  1  0
 13 14  1  0
 14 15  1  0
 15 16  1  0
 15 17  1  0
 15 18  1  0
 13 19  2  0
 19 20  1  0
 19 21  1  0
 21 22  1  0
 21 23  2  0
 23 24  1  0
 10 25  1  0
 25 26  1  0
 25 27  1  0
 27 28  2  0
  6 29  1  0
 29 30  1  0
 29 31  2  0
 31 32  1  0
 31  2  1  0
 27  7  1  0
 23 11  1  0
M  END
>  <cnnaffinity>  (1) 
-5.42171

>  <filename>  (1) 
COc1cccc(-c2cn(-c3cccnc3)c(=S)[nH]2)n1

$$$$
