
     RDKit          3D

 34 36  0  0  0  0  0  0  0  0999 V2000
    4.9641    1.8847   16.9422 H   0  0  0  0  0  0  0  0  0  0  0  0
    5.4121    1.3457   17.7737 C   0  0  0  0  0  0  0  0  0  0  0  0
    6.5723    0.7186   17.5164 N   0  0  0  0  0  0  0  0  0  0  0  0
    7.1533    0.0582   18.5246 C   0  0  0  0  0  0  0  0  0  0  0  0
    8.1024   -0.4305   18.3068 H   0  0  0  0  0  0  0  0  0  0  0  0
    6.6011   -0.0402   19.8176 C   0  0  0  0  0  0  0  0  0  0  0  0
    7.2908   -0.7372   20.8754 N   0  0  0  0  0  0  0  0  0  0  0  0
    8.5420   -0.2751   21.2091 C   0  0  0  0  0  0  0  0  0  0  0  0
    8.8837    0.5909   20.6515 H   0  0  0  0  0  0  0  0  0  0  0  0
    9.3185   -0.8543   22.1674 C   0  0  0  0  0  0  0  0  0  0  0  0
   10.6821   -0.3326   22.4046 C   0  0  0  0  0  0  0  0  0  0  0  0
   11.8077   -1.1785   22.4207 C   0  0  0  0  0  0  0  0  0  0  0  0
   11.7067   -2.2477   22.2342 H   0  0  0  0  0  0  0  0  0  0  0  0
   13.0502   -0.7322   22.6308 N   0  0  0  0  0  0  0  0  0  0  0  0
   13.2269    0.5869   22.7949 C   0  0  0  0  0  0  0  0  0  0  0  0
   14.2508    0.9203   22.9521 H   0  0  0  0  0  0  0  0  0  0  0  0
   12.1762    1.5337   22.7263 C   0  0  0  0  0  0  0  0  0  0  0  0
   12.3430    2.8846   22.7440 O   0  0  0  0  0  0  0  0  0  0  0  0
   13.6331    3.3718   23.0773 C   0  0  0  0  0  0  0  0  0  0  0  0
   13.9722    2.9010   24.0026 H   0  0  0  0  0  0  0  0  0  0  0  0
   14.3734    3.1714   22.2942 H   0  0  0  0  0  0  0  0  0  0  0  0
   13.5467    4.4488   23.2038 H   0  0  0  0  0  0  0  0  0  0  0  0
   10.8754    1.0458   22.5565 C   0  0  0  0  0  0  0  0  0  0  0  0
   10.0168    1.7180   22.5271 H   0  0  0  0  0  0  0  0  0  0  0  0
    8.7680   -1.9275   22.9299 C   0  0  0  0  0  0  0  0  0  0  0  0
    9.3562   -2.3512   23.7439 H   0  0  0  0  0  0  0  0  0  0  0  0
    7.5126   -2.3842   22.6591 C   0  0  0  0  0  0  0  0  0  0  0  0
    7.0508   -3.1991   23.1940 H   0  0  0  0  0  0  0  0  0  0  0  0
    6.6877   -1.8400   21.5847 C   0  0  0  0  0  0  0  0  0  0  0  0
    5.5942   -2.2869   21.2866 O   0  0  0  0  0  0  0  0  0  0  0  0
    5.4007    0.6275   20.0749 C   0  0  0  0  0  0  0  0  0  0  0  0
    4.9749    0.5918   21.0762 H   0  0  0  0  0  0  0  0  0  0  0  0
    4.7958    1.3320   19.0292 C   0  0  0  0  0  0  0  0  0  0  0  0
    3.8728    1.8807   19.1806 H   0  0  0  0  0  0  0  0  0  0  0  0
  1  2  1  0
  2  3  2  0
  3  4  1  0
  4  5  1  0
  4  6  2  0
  6  7  1  0
  7  8  1  0
  8  9  1  0
  8 10  2  0
 10 11  1  0
 11 12  2  0
 12 13  1  0
 12 14  1  0
 14 15  2  0
 15 16  1  0
 15 17  1  0
 17 18  1  0
 18 19  1  0
 19 20  1  0
 19 21  1  0
 19 22  1  0
 17 23  2  0
 23 24  1  0
 10 25  1  0
 25 26  1  0
 25 27  2  0
 27 28  1  0
 27 29  1  0
 29 30  2  0
  6 31  1  0
 31 32  1  0
 31 33  2  0
 33 34  1  0
 33  2  1  0
 29  7  1  0
 23 11  1  0
M  END
>  <cnnaffinity>  (1) 
-4.96313

>  <filename>  (1) 
COc1cncc(-c2ccc(=O)n(-c3cccnc3)c2)c1

$$$$
