
     RDKit          3D

 22 23  0  0  0  0  0  0  0  0999 V2000
    4.9226    1.7955   17.0096 H   0  0  0  0  0  0  0  0  0  0  0  0
    5.4249    1.2956   17.8390 C   0  0  0  0  0  0  0  0  0  0  0  0
    6.5876    0.6910   17.5507 N   0  0  0  0  0  0  0  0  0  0  0  0
    7.2339    0.0643   18.5431 C   0  0  0  0  0  0  0  0  0  0  0  0
    8.1785   -0.4174   18.3011 H   0  0  0  0  0  0  0  0  0  0  0  0
    6.7513   -0.0039   19.8634 C   0  0  0  0  0  0  0  0  0  0  0  0
    7.4705   -0.7214   20.8870 N   0  0  0  0  0  0  0  0  0  0  0  0
    8.7389   -0.4700   21.3857 C   0  0  0  0  0  0  0  0  0  0  0  0
    9.5303    0.4074   20.7754 O   0  0  0  0  0  0  0  0  0  0  0  0
   10.8707    0.4802   21.3002 C   0  0  0  0  0  0  0  0  0  0  0  0
   10.8611    0.5178   22.3919 H   0  0  0  0  0  0  0  0  0  0  0  0
   11.3071    1.3912   20.8896 H   0  0  0  0  0  0  0  0  0  0  0  0
   11.4463   -0.4036   20.9965 H   0  0  0  0  0  0  0  0  0  0  0  0
    9.0363   -1.2003   22.4177 N   0  0  0  0  0  0  0  0  0  0  0  0
    7.9275   -1.9972   22.5389 N   0  0  0  0  0  0  0  0  0  0  0  0
    7.8499   -2.7126   23.2456 H   0  0  0  0  0  0  0  0  0  0  0  0
    6.9634   -1.7914   21.6226 C   0  0  0  0  0  0  0  0  0  0  0  0
    5.5659   -2.6684   21.4167 S   0  0  0  0  0  0  0  0  0  0  0  0
    5.5262    0.6101   20.1539 C   0  0  0  0  0  0  0  0  0  0  0  0
    5.1109    0.5580   21.1607 H   0  0  0  0  0  0  0  0  0  0  0  0
    4.8590    1.2842   19.1199 C   0  0  0  0  0  0  0  0  0  0  0  0
    3.9145    1.7950   19.2818 H   0  0  0  0  0  0  0  0  0  0  0  0
  1  2  1  0
  2  3  2  0
  3  4  1  0
  4  5  1  0
  4  6  2  0
  6  7  1  0
  7  8  1  0
  8  9  1  0
  9 10  1  0
 10 11  1  0
 10 12  1  0
 10 13  1  0
  8 14  2  0
 14 15  1  0
 15 16  1  0
 15 17  1  0
 17 18  2  0
  6 19  1  0
 19 20  1  0
 19 21  2  0
 21 22  1  0
 21  2  1  0
 17  7  1  0
M  END
>  <cnnaffinity>  (1) 
-4.02995

>  <filename>  (1) 
COc1n[nH]c(=S)n1-c1cccnc1

$$$$
