
     RDKit          3D

 39 41  0  0  0  0  0  0  0  0999 V2000
    5.0118    1.7710   16.9720 H   0  0  0  0  0  0  0  0  0  0  0  0
    5.4536    1.2655   17.8281 C   0  0  0  0  0  0  0  0  0  0  0  0
    6.6084    0.6213   17.6043 N   0  0  0  0  0  0  0  0  0  0  0  0
    7.1732   -0.0003   18.6421 C   0  0  0  0  0  0  0  0  0  0  0  0
    8.0956   -0.5445   18.4489 H   0  0  0  0  0  0  0  0  0  0  0  0
    6.6494    0.0201   19.9396 C   0  0  0  0  0  0  0  0  0  0  0  0
    7.4333   -0.7028   20.9585 C   0  0  0  0  0  0  0  0  0  0  0  0
    8.2471   -1.6518   20.6667 N   0  0  0  0  0  0  0  0  0  0  0  0
    8.7736   -2.1743   21.9279 C   0  0  0  0  0  0  0  0  0  0  0  0
    9.8661   -2.2670   21.8825 H   0  0  0  0  0  0  0  0  0  0  0  0
    8.3823   -3.1874   22.1027 H   0  0  0  0  0  0  0  0  0  0  0  0
    8.3196   -1.2010   23.0364 C   0  0  0  0  0  0  0  0  0  0  0  0
    7.8573   -1.7064   23.8941 H   0  0  0  0  0  0  0  0  0  0  0  0
    9.1495   -0.5854   23.4210 H   0  0  0  0  0  0  0  0  0  0  0  0
    7.3458   -0.3787   22.3200 N   0  0  0  0  0  0  0  0  0  0  0  0
    6.9365    0.8713   22.8158 N   0  0  0  0  0  0  0  0  0  0  0  0
    6.5809    0.7801   23.7667 H   0  0  0  0  0  0  0  0  0  0  0  0
    7.9515    1.9283   22.6986 C   0  0  0  0  0  0  0  0  0  0  0  0
    8.7763    1.7948   23.4162 H   0  0  0  0  0  0  0  0  0  0  0  0
    8.3703    1.8229   21.6902 H   0  0  0  0  0  0  0  0  0  0  0  0
    7.3709    3.3192   22.7955 C   0  0  0  0  0  0  0  0  0  0  0  0
    6.7592    3.8456   21.6442 C   0  0  0  0  0  0  0  0  0  0  0  0
    6.6445    3.1748   20.7901 H   0  0  0  0  0  0  0  0  0  0  0  0
    6.3337    5.1677   21.6025 C   0  0  0  0  0  0  0  0  0  0  0  0
    5.9942    5.6914   20.7149 H   0  0  0  0  0  0  0  0  0  0  0  0
    6.4247    5.9670   22.7488 C   0  0  0  0  0  0  0  0  0  0  0  0
    5.9717    7.2375   22.5552 O   0  0  0  0  0  0  0  0  0  0  0  0
    5.7259    8.0881   23.6521 C   0  0  0  0  0  0  0  0  0  0  0  0
    6.6682    8.3878   24.1311 H   0  0  0  0  0  0  0  0  0  0  0  0
    5.2228    8.9720   23.2420 H   0  0  0  0  0  0  0  0  0  0  0  0
    5.0737    7.6001   24.3908 H   0  0  0  0  0  0  0  0  0  0  0  0
    6.9791    5.4485   23.9270 C   0  0  0  0  0  0  0  0  0  0  0  0
    7.0081    6.0503   24.8287 H   0  0  0  0  0  0  0  0  0  0  0  0
    7.4690    4.1309   23.9315 C   0  0  0  0  0  0  0  0  0  0  0  0
    7.9608    3.7520   24.8264 H   0  0  0  0  0  0  0  0  0  0  0  0
    5.4426    0.7046   20.1708 C   0  0  0  0  0  0  0  0  0  0  0  0
    5.0164    0.7843   21.1730 H   0  0  0  0  0  0  0  0  0  0  0  0
    4.8218    1.3046   19.0784 C   0  0  0  0  0  0  0  0  0  0  0  0
    3.8660    1.8082   19.1779 H   0  0  0  0  0  0  0  0  0  0  0  0
  1  2  1  0
  2  3  2  0
  3  4  1  0
  4  5  1  0
  4  6  2  0
  6  7  1  0
  7  8  2  0
  8  9  1  0
  9 10  1  0
  9 11  1  0
  9 12  1  0
 12 13  1  0
 12 14  1  0
 12 15  1  0
 15 16  1  0
 16 17  1  0
 16 18  1  0
 18 19  1  0
 18 20  1  0
 18 21  1  0
 21 22  2  0
 22 23  1  0
 22 24  1  0
 24 25  1  0
 24 26  2  0
 26 27  1  0
 27 28  1  0
 28 29  1  0
 28 30  1  0
 28 31  1  0
 26 32  1  0
 32 33  1  0
 32 34  2  0
 34 35  1  0
  6 36  1  0
 36 37  1  0
 36 38  2  0
 38 39  1  0
 38  2  1  0
 15  7  1  0
 34 21  1  0
M  END
>  <cnnaffinity>  (1) 
-4.72969

>  <filename>  (1) 
COc1ccc(CNN2CCN=C2c2cccnc2)cc1

$$$$
