
     RDKit          3D

 39 41  0  0  0  0  0  0  0  0999 V2000
    4.9443    1.7732   16.9990 H   0  0  0  0  0  0  0  0  0  0  0  0
    5.4127    1.2838   17.8518 C   0  0  0  0  0  0  0  0  0  0  0  0
    6.5728    0.6573   17.6148 N   0  0  0  0  0  0  0  0  0  0  0  0
    7.1673    0.0429   18.6446 C   0  0  0  0  0  0  0  0  0  0  0  0
    8.1099   -0.4332   18.3825 H   0  0  0  0  0  0  0  0  0  0  0  0
    6.6359   -0.0145   19.9425 C   0  0  0  0  0  0  0  0  0  0  0  0
    7.3473   -0.7536   21.0191 C   0  0  0  0  0  0  0  0  0  0  0  0
    6.5784   -1.3679   21.9293 N   0  0  0  0  0  0  0  0  0  0  0  0
    7.1727   -1.9741   22.9679 C   0  0  0  0  0  0  0  0  0  0  0  0
    6.3355   -2.5298   23.9295 N   0  0  0  0  0  0  0  0  0  0  0  0
    6.7746   -2.7560   25.3091 C   0  0  0  0  0  0  0  0  0  0  0  0
    7.1770   -3.7692   25.4572 H   0  0  0  0  0  0  0  0  0  0  0  0
    7.5717   -2.0497   25.5635 H   0  0  0  0  0  0  0  0  0  0  0  0
    5.6218   -2.5469   26.2932 C   0  0  0  0  0  0  0  0  0  0  0  0
    5.3364   -1.4892   26.2951 H   0  0  0  0  0  0  0  0  0  0  0  0
    5.9394   -2.7950   27.3060 H   0  0  0  0  0  0  0  0  0  0  0  0
    4.3992   -3.3854   25.9520 C   0  0  0  0  0  0  0  0  0  0  0  0
    3.5706   -3.0767   26.6171 H   0  0  0  0  0  0  0  0  0  0  0  0
    4.6989   -4.7582   26.1481 O   0  0  0  0  0  0  0  0  0  0  0  0
    3.6007   -5.5153   26.6091 C   0  0  0  0  0  0  0  0  0  0  0  0
    2.7019   -5.4021   25.9775 H   0  0  0  0  0  0  0  0  0  0  0  0
    3.9093   -6.5594   26.6030 H   0  0  0  0  0  0  0  0  0  0  0  0
    3.3236   -5.2175   27.6329 H   0  0  0  0  0  0  0  0  0  0  0  0
    3.9882   -3.1158   24.5117 C   0  0  0  0  0  0  0  0  0  0  0  0
    3.1523   -3.7575   24.2211 H   0  0  0  0  0  0  0  0  0  0  0  0
    3.5922   -2.1018   24.5368 H   0  0  0  0  0  0  0  0  0  0  0  0
    5.1559   -3.3096   23.5304 C   0  0  0  0  0  0  0  0  0  0  0  0
    5.3903   -4.3882   23.4949 H   0  0  0  0  0  0  0  0  0  0  0  0
    4.8673   -3.0143   22.5172 H   0  0  0  0  0  0  0  0  0  0  0  0
    8.5821   -2.0602   23.0772 C   0  0  0  0  0  0  0  0  0  0  0  0
    8.9998   -2.6270   23.8973 H   0  0  0  0  0  0  0  0  0  0  0  0
    9.3819   -1.4540   22.1108 C   0  0  0  0  0  0  0  0  0  0  0  0
   10.4750   -1.5023   22.1679 H   0  0  0  0  0  0  0  0  0  0  0  0
    8.7473   -0.7754   21.0652 C   0  0  0  0  0  0  0  0  0  0  0  0
    9.3161   -0.2488   20.3112 H   0  0  0  0  0  0  0  0  0  0  0  0
    5.4203    0.6472   20.1737 C   0  0  0  0  0  0  0  0  0  0  0  0
    4.9848    0.6275   21.1745 H   0  0  0  0  0  0  0  0  0  0  0  0
    4.8092    1.3117   19.1128 C   0  0  0  0  0  0  0  0  0  0  0  0
    3.8791    1.8432   19.2504 H   0  0  0  0  0  0  0  0  0  0  0  0
  1  2  1  0
  2  3  2  0
  3  4  1  0
  4  5  1  0
  4  6  2  0
  6  7  1  0
  7  8  2  0
  8  9  1  0
  9 10  1  0
 10 11  1  0
 11 12  1  0
 11 13  1  0
 11 14  1  0
 14 15  1  0
 14 16  1  0
 14 17  1  0
 17 18  1  0
 17 19  1  0
 19 20  1  0
 20 21  1  0
 20 22  1  0
 20 23  1  0
 17 24  1  0
 24 25  1  0
 24 26  1  0
 24 27  1  0
 27 28  1  0
 27 29  1  0
  9 30  2  0
 30 31  1  0
 30 32  1  0
 32 33  1  0
 32 34  2  0
 34 35  1  0
  6 36  1  0
 36 37  1  0
 36 38  2  0
 38 39  1  0
 38  2  1  0
 34  7  1  0
 27 10  1  0
M  END
>  <cnnaffinity>  (1) 
-4.85929

>  <filename>  (1) 
COC1CCN(c2cccc(-c3cccnc3)n2)CC1

$$$$
