
     RDKit          3D

 38 40  0  0  0  0  0  0  0  0999 V2000
    4.9245    1.8343   16.9978 H   0  0  0  0  0  0  0  0  0  0  0  0
    5.3935    1.3100   17.8270 C   0  0  0  0  0  0  0  0  0  0  0  0
    6.5501    0.6862   17.5501 N   0  0  0  0  0  0  0  0  0  0  0  0
    7.1630    0.0379   18.5515 C   0  0  0  0  0  0  0  0  0  0  0  0
    8.1101   -0.4515   18.3182 H   0  0  0  0  0  0  0  0  0  0  0  0
    6.6619   -0.0369   19.8744 C   0  0  0  0  0  0  0  0  0  0  0  0
    7.3290   -0.7354   20.8887 N   0  0  0  0  0  0  0  0  0  0  0  0
    6.7776   -0.9984   21.6973 H   0  0  0  0  0  0  0  0  0  0  0  0
    8.7219   -0.7371   21.0839 C   0  0  0  0  0  0  0  0  0  0  0  0
    9.7157    0.1871   20.6787 C   0  0  0  0  0  0  0  0  0  0  0  0
    9.5705    1.0819   20.0961 H   0  0  0  0  0  0  0  0  0  0  0  0
   10.9280   -0.1589   21.1024 N   0  0  0  0  0  0  0  0  0  0  0  0
   10.7218   -1.2957   21.7835 N   0  0  0  0  0  0  0  0  0  0  0  0
   11.5056   -1.8368   22.1259 H   0  0  0  0  0  0  0  0  0  0  0  0
    9.4236   -1.6993   21.7885 C   0  0  0  0  0  0  0  0  0  0  0  0
    8.9640   -2.9057   22.4715 C   0  0  0  0  0  0  0  0  0  0  0  0
    9.5619   -3.3081   23.6661 C   0  0  0  0  0  0  0  0  0  0  0  0
   10.3836   -2.7351   24.0857 H   0  0  0  0  0  0  0  0  0  0  0  0
    9.0494   -4.3913   24.3735 C   0  0  0  0  0  0  0  0  0  0  0  0
    9.5449   -4.6917   25.2921 H   0  0  0  0  0  0  0  0  0  0  0  0
    7.9037   -5.0648   23.9284 C   0  0  0  0  0  0  0  0  0  0  0  0
    7.2255   -5.9631   24.6864 O   0  0  0  0  0  0  0  0  0  0  0  0
    7.7984   -6.3559   25.9189 C   0  0  0  0  0  0  0  0  0  0  0  0
    8.7275   -6.9235   25.7623 H   0  0  0  0  0  0  0  0  0  0  0  0
    7.0572   -6.9754   26.4119 H   0  0  0  0  0  0  0  0  0  0  0  0
    8.0192   -5.4789   26.5463 H   0  0  0  0  0  0  0  0  0  0  0  0
    7.3736   -4.7549   22.6344 C   0  0  0  0  0  0  0  0  0  0  0  0
    6.3825   -5.5573   22.1578 O   0  0  0  0  0  0  0  0  0  0  0  0
    5.7227   -5.2157   20.9569 C   0  0  0  0  0  0  0  0  0  0  0  0
    6.3948   -5.2651   20.0884 H   0  0  0  0  0  0  0  0  0  0  0  0
    4.9323   -5.9571   20.8389 H   0  0  0  0  0  0  0  0  0  0  0  0
    5.2726   -4.2149   21.0168 H   0  0  0  0  0  0  0  0  0  0  0  0
    7.8896   -3.6501   21.9530 C   0  0  0  0  0  0  0  0  0  0  0  0
    7.4565   -3.3326   21.0120 H   0  0  0  0  0  0  0  0  0  0  0  0
    5.4439    0.6084   20.1340 C   0  0  0  0  0  0  0  0  0  0  0  0
    5.0326    0.5977   21.1421 H   0  0  0  0  0  0  0  0  0  0  0  0
    4.8063    1.2982   19.0967 C   0  0  0  0  0  0  0  0  0  0  0  0
    3.8767    1.8342   19.2577 H   0  0  0  0  0  0  0  0  0  0  0  0
  1  2  1  0
  2  3  2  0
  3  4  1  0
  4  5  1  0
  4  6  2  0
  6  7  1  0
  7  8  1  0
  7  9  1  0
  9 10  1  0
 10 11  1  0
 10 12  2  0
 12 13  1  0
 13 14  1  0
 13 15  1  0
 15 16  1  0
 16 17  2  0
 17 18  1  0
 17 19  1  0
 19 20  1  0
 19 21  2  0
 21 22  1  0
 22 23  1  0
 23 24  1  0
 23 25  1  0
 23 26  1  0
 21 27  1  0
 27 28  1  0
 28 29  1  0
 29 30  1  0
 29 31  1  0
 29 32  1  0
 27 33  2  0
 33 34  1  0
  6 35  1  0
 35 36  1  0
 35 37  2  0
 37 38  1  0
 37  2  1  0
 15  9  2  0
 33 16  1  0
M  END
>  <cnnaffinity>  (1) 
-5.62388

>  <filename>  (1) 
COc1ccc(-c2[nH]ncc2Nc2cccnc2)cc1OC

$$$$
