
     RDKit          3D

 35 37  0  0  0  0  0  0  0  0999 V2000
    4.9328    1.8393   16.9386 H   0  0  0  0  0  0  0  0  0  0  0  0
    5.3877    1.3213   17.7791 C   0  0  0  0  0  0  0  0  0  0  0  0
    6.5442    0.6848   17.5338 N   0  0  0  0  0  0  0  0  0  0  0  0
    7.1333    0.0638   18.5664 C   0  0  0  0  0  0  0  0  0  0  0  0
    8.0793   -0.4291   18.3362 H   0  0  0  0  0  0  0  0  0  0  0  0
    6.6049    0.0058   19.8752 C   0  0  0  0  0  0  0  0  0  0  0  0
    7.3194   -0.7144   20.9790 C   0  0  0  0  0  0  0  0  0  0  0  0
    8.7261   -0.5414   21.1727 C   0  0  0  0  0  0  0  0  0  0  0  0
    9.2780    0.1268   20.5096 H   0  0  0  0  0  0  0  0  0  0  0  0
    9.4346   -1.1813   22.1694 C   0  0  0  0  0  0  0  0  0  0  0  0
   10.9045   -0.9952   22.2959 C   0  0  0  0  0  0  0  0  0  0  0  0
   11.7541   -2.1017   22.1916 C   0  0  0  0  0  0  0  0  0  0  0  0
   11.2835   -3.0781   22.1807 H   0  0  0  0  0  0  0  0  0  0  0  0
   13.1419   -1.9556   22.1228 C   0  0  0  0  0  0  0  0  0  0  0  0
   13.7967   -2.8083   21.9612 H   0  0  0  0  0  0  0  0  0  0  0  0
   13.7098   -0.7025   22.3379 C   0  0  0  0  0  0  0  0  0  0  0  0
   14.7908   -0.6072   22.4073 H   0  0  0  0  0  0  0  0  0  0  0  0
   12.8958    0.4211   22.5101 C   0  0  0  0  0  0  0  0  0  0  0  0
   13.3417    1.3861   22.7301 H   0  0  0  0  0  0  0  0  0  0  0  0
   11.5008    0.2890   22.4111 C   0  0  0  0  0  0  0  0  0  0  0  0
   10.6327    1.3352   22.4630 O   0  0  0  0  0  0  0  0  0  0  0  0
   11.1263    2.6481   22.6056 C   0  0  0  0  0  0  0  0  0  0  0  0
   11.6623    2.7764   23.5549 H   0  0  0  0  0  0  0  0  0  0  0  0
   11.7896    2.9216   21.7751 H   0  0  0  0  0  0  0  0  0  0  0  0
   10.2521    3.2981   22.5942 H   0  0  0  0  0  0  0  0  0  0  0  0
    8.7325   -2.1231   23.0582 C   0  0  0  0  0  0  0  0  0  0  0  0
    9.1640   -2.8249   23.9592 O   0  0  0  0  0  0  0  0  0  0  0  0
    7.3532   -2.1948   22.8265 N   0  0  0  0  0  0  0  0  0  0  0  0
    6.9621   -2.7920   23.5434 H   0  0  0  0  0  0  0  0  0  0  0  0
    6.6522   -1.5462   21.8484 C   0  0  0  0  0  0  0  0  0  0  0  0
    5.5777   -1.7322   21.7781 H   0  0  0  0  0  0  0  0  0  0  0  0
    5.3889    0.6756   20.0955 C   0  0  0  0  0  0  0  0  0  0  0  0
    4.9589    0.7058   21.0960 H   0  0  0  0  0  0  0  0  0  0  0  0
    4.7757    1.3439   19.0348 C   0  0  0  0  0  0  0  0  0  0  0  0
    3.8452    1.8817   19.1748 H   0  0  0  0  0  0  0  0  0  0  0  0
  1  2  1  0
  2  3  2  0
  3  4  1  0
  4  5  1  0
  4  6  2  0
  6  7  1  0
  7  8  1  0
  8  9  1  0
  8 10  2  0
 10 11  1  0
 11 12  2  0
 12 13  1  0
 12 14  1  0
 14 15  1  0
 14 16  2  0
 16 17  1  0
 16 18  1  0
 18 19  1  0
 18 20  2  0
 20 21  1  0
 21 22  1  0
 22 23  1  0
 22 24  1  0
 22 25  1  0
 10 26  1  0
 26 27  2  0
 26 28  1  0
 28 29  1  0
 28 30  1  0
 30 31  1  0
  6 32  1  0
 32 33  1  0
 32 34  2  0
 34 35  1  0
 34  2  1  0
 30  7  2  0
 20 11  1  0
M  END
>  <cnnaffinity>  (1) 
-5.56073

>  <filename>  (1) 
COc1ccccc1-c1cc(-c2cccnc2)c[nH]c1=O

$$$$
