
     RDKit          3D

 34 36  0  0  0  0  0  0  0  0999 V2000
    5.0271    1.9527   16.9160 H   0  0  0  0  0  0  0  0  0  0  0  0
    5.4371    1.3775   17.7428 C   0  0  0  0  0  0  0  0  0  0  0  0
    6.5872    0.7309   17.4914 N   0  0  0  0  0  0  0  0  0  0  0  0
    7.1289    0.0267   18.4891 C   0  0  0  0  0  0  0  0  0  0  0  0
    8.0793   -0.4651   18.2814 H   0  0  0  0  0  0  0  0  0  0  0  0
    6.5420   -0.1039   19.7641 C   0  0  0  0  0  0  0  0  0  0  0  0
    7.2303   -0.8106   20.8237 N   0  0  0  0  0  0  0  0  0  0  0  0
    8.5062   -0.3740   21.1525 C   0  0  0  0  0  0  0  0  0  0  0  0
    8.8390    0.4952   20.5887 H   0  0  0  0  0  0  0  0  0  0  0  0
    9.2856   -0.9687   22.0847 C   0  0  0  0  0  0  0  0  0  0  0  0
   10.6672   -0.4506   22.3051 C   0  0  0  0  0  0  0  0  0  0  0  0
   11.8281   -1.2530   22.2213 C   0  0  0  0  0  0  0  0  0  0  0  0
   11.7296   -2.3286   22.0833 H   0  0  0  0  0  0  0  0  0  0  0  0
   13.0686   -0.7517   22.2829 N   0  0  0  0  0  0  0  0  0  0  0  0
   13.2202    0.5708   22.4620 C   0  0  0  0  0  0  0  0  0  0  0  0
   14.2463    0.9415   22.5071 H   0  0  0  0  0  0  0  0  0  0  0  0
   12.1315    1.4597   22.6013 C   0  0  0  0  0  0  0  0  0  0  0  0
   12.2073    2.8051   22.7829 O   0  0  0  0  0  0  0  0  0  0  0  0
   13.4539    3.3821   23.1314 C   0  0  0  0  0  0  0  0  0  0  0  0
   13.8976    2.8482   23.9745 H   0  0  0  0  0  0  0  0  0  0  0  0
   14.1714    3.3685   22.3010 H   0  0  0  0  0  0  0  0  0  0  0  0
   13.2386    4.4138   23.4128 H   0  0  0  0  0  0  0  0  0  0  0  0
   10.8419    0.9224   22.5063 C   0  0  0  0  0  0  0  0  0  0  0  0
    9.9808    1.5835   22.5860 H   0  0  0  0  0  0  0  0  0  0  0  0
    8.6887   -2.0730   22.8767 C   0  0  0  0  0  0  0  0  0  0  0  0
    9.2117   -2.7708   23.7189 O   0  0  0  0  0  0  0  0  0  0  0  0
    7.3562   -2.3049   22.6009 N   0  0  0  0  0  0  0  0  0  0  0  0
    6.9403   -3.0669   23.0971 H   0  0  0  0  0  0  0  0  0  0  0  0
    6.6190   -1.8632   21.5486 C   0  0  0  0  0  0  0  0  0  0  0  0
    5.5527   -2.3672   21.2964 O   0  0  0  0  0  0  0  0  0  0  0  0
    5.3404    0.5632   20.0128 C   0  0  0  0  0  0  0  0  0  0  0  0
    4.8809    0.4891   20.9989 H   0  0  0  0  0  0  0  0  0  0  0  0
    4.7838    1.3262   18.9786 C   0  0  0  0  0  0  0  0  0  0  0  0
    3.8676    1.8875   19.1215 H   0  0  0  0  0  0  0  0  0  0  0  0
  1  2  1  0
  2  3  2  0
  3  4  1  0
  4  5  1  0
  4  6  2  0
  6  7  1  0
  7  8  1  0
  8  9  1  0
  8 10  2  0
 10 11  1  0
 11 12  2  0
 12 13  1  0
 12 14  1  0
 14 15  2  0
 15 16  1  0
 15 17  1  0
 17 18  1  0
 18 19  1  0
 19 20  1  0
 19 21  1  0
 19 22  1  0
 17 23  2  0
 23 24  1  0
 10 25  1  0
 25 26  2  0
 25 27  1  0
 27 28  1  0
 27 29  1  0
 29 30  2  0
  6 31  1  0
 31 32  1  0
 31 33  2  0
 33 34  1  0
 33  2  1  0
 29  7  1  0
 23 11  1  0
M  END
>  <cnnaffinity>  (1) 
-4.88557

>  <filename>  (1) 
COc1cncc(-c2cn(-c3cccnc3)c(=O)[nH]c2=O)c1

$$$$
