
     RDKit          3D

 39 41  0  0  0  0  0  0  0  0999 V2000
    4.9179    1.8166   16.9855 H   0  0  0  0  0  0  0  0  0  0  0  0
    5.3819    1.2980   17.8210 C   0  0  0  0  0  0  0  0  0  0  0  0
    6.5355    0.6665   17.5509 N   0  0  0  0  0  0  0  0  0  0  0  0
    7.1581    0.0528   18.5645 C   0  0  0  0  0  0  0  0  0  0  0  0
    8.1121   -0.4214   18.3464 H   0  0  0  0  0  0  0  0  0  0  0  0
    6.6502    0.0046   19.8770 C   0  0  0  0  0  0  0  0  0  0  0  0
    7.3615   -0.6694   20.9366 N   0  0  0  0  0  0  0  0  0  0  0  0
    6.7403   -1.7257   21.5724 C   0  0  0  0  0  0  0  0  0  0  0  0
    5.7409   -1.9552   21.2247 H   0  0  0  0  0  0  0  0  0  0  0  0
    7.3424   -2.4433   22.5734 C   0  0  0  0  0  0  0  0  0  0  0  0
    6.6582   -3.5871   23.2409 C   0  0  0  0  0  0  0  0  0  0  0  0
    6.5961   -3.6447   24.6348 C   0  0  0  0  0  0  0  0  0  0  0  0
    7.0645   -2.8436   25.2070 H   0  0  0  0  0  0  0  0  0  0  0  0
    5.9434   -4.6797   25.3062 C   0  0  0  0  0  0  0  0  0  0  0  0
    5.9106   -4.7029   26.3876 H   0  0  0  0  0  0  0  0  0  0  0  0
    5.3335   -5.7052   24.5740 C   0  0  0  0  0  0  0  0  0  0  0  0
    4.6749   -6.7649   25.1167 O   0  0  0  0  0  0  0  0  0  0  0  0
    4.5715   -6.8831   26.5248 C   0  0  0  0  0  0  0  0  0  0  0  0
    5.5607   -6.9661   26.9991 H   0  0  0  0  0  0  0  0  0  0  0  0
    4.0409   -6.0256   26.9650 H   0  0  0  0  0  0  0  0  0  0  0  0
    4.0002   -7.7991   26.6944 H   0  0  0  0  0  0  0  0  0  0  0  0
    5.3859   -5.6892   23.1733 C   0  0  0  0  0  0  0  0  0  0  0  0
    4.9042   -6.5053   22.6452 H   0  0  0  0  0  0  0  0  0  0  0  0
    6.0624   -4.6559   22.5177 C   0  0  0  0  0  0  0  0  0  0  0  0
    6.2350   -4.5936   21.1748 O   0  0  0  0  0  0  0  0  0  0  0  0
    5.6593   -5.5678   20.3501 C   0  0  0  0  0  0  0  0  0  0  0  0
    6.1376   -6.5366   20.5015 H   0  0  0  0  0  0  0  0  0  0  0  0
    4.5965   -5.6552   20.5661 H   0  0  0  0  0  0  0  0  0  0  0  0
    5.8285   -5.2173   19.3325 H   0  0  0  0  0  0  0  0  0  0  0  0
    8.6591   -2.0602   22.9694 C   0  0  0  0  0  0  0  0  0  0  0  0
    9.1544   -2.6315   23.7550 H   0  0  0  0  0  0  0  0  0  0  0  0
    9.3022   -1.0256   22.3584 C   0  0  0  0  0  0  0  0  0  0  0  0
   10.2974   -0.7012   22.6118 H   0  0  0  0  0  0  0  0  0  0  0  0
    8.6922   -0.2519   21.2910 C   0  0  0  0  0  0  0  0  0  0  0  0
    9.2529    0.6681   20.7168 O   0  0  0  0  0  0  0  0  0  0  0  0
    5.4330    0.6421   20.1365 C   0  0  0  0  0  0  0  0  0  0  0  0
    5.0284    0.6219   21.1489 H   0  0  0  0  0  0  0  0  0  0  0  0
    4.7886    1.3142   19.0890 C   0  0  0  0  0  0  0  0  0  0  0  0
    3.8606    1.8573   19.2457 H   0  0  0  0  0  0  0  0  0  0  0  0
  1  2  1  0
  2  3  2  0
  3  4  1  0
  4  5  1  0
  4  6  2  0
  6  7  1  0
  7  8  1  0
  8  9  1  0
  8 10  2  0
 10 11  1  0
 11 12  2  0
 12 13  1  0
 12 14  1  0
 14 15  1  0
 14 16  2  0
 16 17  1  0
 17 18  1  0
 18 19  1  0
 18 20  1  0
 18 21  1  0
 16 22  1  0
 22 23  1  0
 22 24  2  0
 24 25  1  0
 25 26  1  0
 26 27  1  0
 26 28  1  0
 26 29  1  0
 10 30  1  0
 30 31  1  0
 30 32  2  0
 32 33  1  0
 32 34  1  0
 34 35  2  0
  6 36  1  0
 36 37  1  0
 36 38  2  0
 38 39  1  0
 38  2  1  0
 34  7  1  0
 24 11  1  0
M  END
>  <cnnaffinity>  (1) 
-5.57119

>  <filename>  (1) 
COc1ccc(-c2ccc(=O)n(-c3cccnc3)c2)c(OC)c1

$$$$
