
     RDKit          3D

 32 34  0  0  0  0  0  0  0  0999 V2000
    4.9223    1.7901   16.9963 H   0  0  0  0  0  0  0  0  0  0  0  0
    5.3953    1.2905   17.8385 C   0  0  0  0  0  0  0  0  0  0  0  0
    6.5531    0.6656   17.5737 N   0  0  0  0  0  0  0  0  0  0  0  0
    7.1726    0.0509   18.5864 C   0  0  0  0  0  0  0  0  0  0  0  0
    8.1276   -0.4195   18.3662 H   0  0  0  0  0  0  0  0  0  0  0  0
    6.6631    0.0019   19.9015 C   0  0  0  0  0  0  0  0  0  0  0  0
    7.3524   -0.6754   20.9467 N   0  0  0  0  0  0  0  0  0  0  0  0
    6.7592   -1.4449   21.9401 C   0  0  0  0  0  0  0  0  0  0  0  0
    5.6899   -1.6052   21.9784 H   0  0  0  0  0  0  0  0  0  0  0  0
    7.7150   -1.9444   22.7587 C   0  0  0  0  0  0  0  0  0  0  0  0
    7.5348   -2.8069   23.9533 C   0  0  0  0  0  0  0  0  0  0  0  0
    6.2585   -3.1221   24.2569 N   0  0  0  0  0  0  0  0  0  0  0  0
    6.0647   -3.8814   25.3222 C   0  0  0  0  0  0  0  0  0  0  0  0
    4.8139   -4.2247   25.6830 O   0  0  0  0  0  0  0  0  0  0  0  0
    3.6981   -3.7620   24.9305 C   0  0  0  0  0  0  0  0  0  0  0  0
    3.6274   -2.6670   24.9219 H   0  0  0  0  0  0  0  0  0  0  0  0
    3.7250   -4.1141   23.8918 H   0  0  0  0  0  0  0  0  0  0  0  0
    2.8347   -4.1865   25.4444 H   0  0  0  0  0  0  0  0  0  0  0  0
    7.0918   -4.3889   26.1398 C   0  0  0  0  0  0  0  0  0  0  0  0
    6.8084   -5.0085   26.9803 H   0  0  0  0  0  0  0  0  0  0  0  0
    8.4028   -4.0742   25.8224 C   0  0  0  0  0  0  0  0  0  0  0  0
    9.2447   -4.4405   26.4158 H   0  0  0  0  0  0  0  0  0  0  0  0
    8.6246   -3.2610   24.6999 C   0  0  0  0  0  0  0  0  0  0  0  0
    9.6275   -2.9842   24.4064 H   0  0  0  0  0  0  0  0  0  0  0  0
    8.9291   -1.4661   22.2366 N   0  0  0  0  0  0  0  0  0  0  0  0
    9.8890   -1.5639   22.5164 H   0  0  0  0  0  0  0  0  0  0  0  0
    8.7466   -0.6767   21.1356 C   0  0  0  0  0  0  0  0  0  0  0  0
    9.6303   -0.1320   20.5058 O   0  0  0  0  0  0  0  0  0  0  0  0
    5.4472    0.6421   20.1623 C   0  0  0  0  0  0  0  0  0  0  0  0
    5.0332    0.6339   21.1727 H   0  0  0  0  0  0  0  0  0  0  0  0
    4.8114    1.3059   19.1092 C   0  0  0  0  0  0  0  0  0  0  0  0
    3.8815    1.8375   19.2617 H   0  0  0  0  0  0  0  0  0  0  0  0
  1  2  1  0
  2  3  2  0
  3  4  1  0
  4  5  1  0
  4  6  2  0
  6  7  1  0
  7  8  1  0
  8  9  1  0
  8 10  2  0
 10 11  1  0
 11 12  2  0
 12 13  1  0
 13 14  1  0
 14 15  1  0
 15 16  1  0
 15 17  1  0
 15 18  1  0
 13 19  2  0
 19 20  1  0
 19 21  1  0
 21 22  1  0
 21 23  2  0
 23 24  1  0
 10 25  1  0
 25 26  1  0
 25 27  1  0
 27 28  2  0
  6 29  1  0
 29 30  1  0
 29 31  2  0
 31 32  1  0
 31  2  1  0
 27  7  1  0
 23 11  1  0
M  END
>  <cnnaffinity>  (1) 
-5.26755

>  <filename>  (1) 
COc1cccc(-c2cn(-c3cccnc3)c(=O)[nH]2)n1

$$$$
