
     RDKit          3D

 34 37  0  0  0  0  0  0  0  0999 V2000
    4.9292    1.7727   17.0026 H   0  0  0  0  0  0  0  0  0  0  0  0
    5.4091    1.2852   17.8469 C   0  0  0  0  0  0  0  0  0  0  0  0
    6.5738    0.6670   17.5958 N   0  0  0  0  0  0  0  0  0  0  0  0
    7.1793    0.0529   18.6170 C   0  0  0  0  0  0  0  0  0  0  0  0
    8.1262   -0.4328   18.3860 H   0  0  0  0  0  0  0  0  0  0  0  0
    6.6450    0.0164   19.9130 C   0  0  0  0  0  0  0  0  0  0  0  0
    7.3650   -0.6886   20.9681 C   0  0  0  0  0  0  0  0  0  0  0  0
    8.5482   -1.3281   20.7571 N   0  0  0  0  0  0  0  0  0  0  0  0
    8.8002   -1.8164   21.9505 C   0  0  0  0  0  0  0  0  0  0  0  0
    9.9932   -2.8128   22.7275 S   0  0  0  0  0  0  0  0  0  0  0  0
    9.0765   -2.7637   24.2047 C   0  0  0  0  0  0  0  0  0  0  0  0
    9.4593   -3.2846   25.0704 H   0  0  0  0  0  0  0  0  0  0  0  0
    7.9524   -2.0166   24.1235 C   0  0  0  0  0  0  0  0  0  0  0  0
    6.9655   -1.7665   25.2012 C   0  0  0  0  0  0  0  0  0  0  0  0
    6.7531   -2.7459   26.1853 C   0  0  0  0  0  0  0  0  0  0  0  0
    7.2974   -3.6851   26.1354 H   0  0  0  0  0  0  0  0  0  0  0  0
    5.8391   -2.5527   27.2252 C   0  0  0  0  0  0  0  0  0  0  0  0
    5.7010   -3.3332   27.9669 H   0  0  0  0  0  0  0  0  0  0  0  0
    5.1041   -1.3626   27.3229 C   0  0  0  0  0  0  0  0  0  0  0  0
    4.1933   -1.0733   28.2854 O   0  0  0  0  0  0  0  0  0  0  0  0
    3.9161   -2.0080   29.3193 C   0  0  0  0  0  0  0  0  0  0  0  0
    3.1635   -1.5325   29.9469 H   0  0  0  0  0  0  0  0  0  0  0  0
    3.5035   -2.9486   28.9320 H   0  0  0  0  0  0  0  0  0  0  0  0
    4.7983   -2.2265   29.9354 H   0  0  0  0  0  0  0  0  0  0  0  0
    5.3360   -0.3779   26.3268 C   0  0  0  0  0  0  0  0  0  0  0  0
    4.6530    0.7768   26.3782 F   0  0  0  0  0  0  0  0  0  0  0  0
    6.2381   -0.5610   25.2939 C   0  0  0  0  0  0  0  0  0  0  0  0
    6.3687    0.2207   24.5501 H   0  0  0  0  0  0  0  0  0  0  0  0
    7.8349   -1.4835   22.8341 N   0  0  0  0  0  0  0  0  0  0  0  0
    6.8860   -0.7502   22.2065 N   0  0  0  0  0  0  0  0  0  0  0  0
    5.4240    0.6594   20.1684 C   0  0  0  0  0  0  0  0  0  0  0  0
    4.9976    0.6358   21.1767 H   0  0  0  0  0  0  0  0  0  0  0  0
    4.8043    1.3102   19.1086 C   0  0  0  0  0  0  0  0  0  0  0  0
    3.8743    1.8431   19.2566 H   0  0  0  0  0  0  0  0  0  0  0  0
  1  2  1  0
  2  3  2  0
  3  4  1  0
  4  5  1  0
  4  6  2  0
  6  7  1  0
  7  8  1  0
  8  9  2  0
  9 10  1  0
 10 11  1  0
 11 12  1  0
 11 13  2  0
 13 14  1  0
 14 15  2  0
 15 16  1  0
 15 17  1  0
 17 18  1  0
 17 19  2  0
 19 20  1  0
 20 21  1  0
 21 22  1  0
 21 23  1  0
 21 24  1  0
 19 25  1  0
 25 26  1  0
 25 27  2  0
 27 28  1  0
 13 29  1  0
 29 30  1  0
  6 31  1  0
 31 32  1  0
 31 33  2  0
 33 34  1  0
 33  2  1  0
 30  7  2  0
 29  9  1  0
 27 14  1  0
M  END
>  <cnnaffinity>  (1) 
-5.74929

>  <filename>  (1) 
COc1ccc(-c2csc3nc(-c4cccnc4)nn23)cc1F

$$$$
