
     RDKit          3D

 33 35  0  0  0  0  0  0  0  0999 V2000
    4.9497    1.7923   16.9847 H   0  0  0  0  0  0  0  0  0  0  0  0
    5.4028    1.2938   17.8417 C   0  0  0  0  0  0  0  0  0  0  0  0
    6.5624    0.6632   17.6020 N   0  0  0  0  0  0  0  0  0  0  0  0
    7.1514    0.0408   18.6289 C   0  0  0  0  0  0  0  0  0  0  0  0
    8.0981   -0.4379   18.3815 H   0  0  0  0  0  0  0  0  0  0  0  0
    6.6204   -0.0196   19.9286 C   0  0  0  0  0  0  0  0  0  0  0  0
    7.3270   -0.7553   21.0182 C   0  0  0  0  0  0  0  0  0  0  0  0
    6.5828   -1.3489   21.9271 N   0  0  0  0  0  0  0  0  0  0  0  0
    7.1972   -1.9511   22.9962 N   0  0  0  0  0  0  0  0  0  0  0  0
    6.3039   -2.5151   23.9771 C   0  0  0  0  0  0  0  0  0  0  0  0
    5.1835   -3.2718   23.5681 C   0  0  0  0  0  0  0  0  0  0  0  0
    4.9688   -3.4255   22.5156 H   0  0  0  0  0  0  0  0  0  0  0  0
    4.3529   -3.8515   24.4373 N   0  0  0  0  0  0  0  0  0  0  0  0
    4.5667   -3.6772   25.7530 C   0  0  0  0  0  0  0  0  0  0  0  0
    3.8526   -4.1561   26.4238 H   0  0  0  0  0  0  0  0  0  0  0  0
    5.6389   -2.9148   26.2562 C   0  0  0  0  0  0  0  0  0  0  0  0
    5.9144   -2.7005   27.5682 O   0  0  0  0  0  0  0  0  0  0  0  0
    5.0758   -3.2432   28.5778 C   0  0  0  0  0  0  0  0  0  0  0  0
    5.5062   -2.8990   29.5180 H   0  0  0  0  0  0  0  0  0  0  0  0
    4.0466   -2.8706   28.4978 H   0  0  0  0  0  0  0  0  0  0  0  0
    5.0659   -4.3413   28.5521 H   0  0  0  0  0  0  0  0  0  0  0  0
    6.5362   -2.3355   25.3402 C   0  0  0  0  0  0  0  0  0  0  0  0
    7.4019   -1.7925   25.7097 H   0  0  0  0  0  0  0  0  0  0  0  0
    8.6233   -2.1095   23.1485 C   0  0  0  0  0  0  0  0  0  0  0  0
    9.1263   -2.7413   24.0595 O   0  0  0  0  0  0  0  0  0  0  0  0
    9.3822   -1.4533   22.0913 C   0  0  0  0  0  0  0  0  0  0  0  0
   10.4539   -1.5492   22.1972 H   0  0  0  0  0  0  0  0  0  0  0  0
    8.7626   -0.7948   21.0730 C   0  0  0  0  0  0  0  0  0  0  0  0
    9.3171   -0.2654   20.3070 H   0  0  0  0  0  0  0  0  0  0  0  0
    5.4058    0.6457   20.1627 C   0  0  0  0  0  0  0  0  0  0  0  0
    4.9686    0.6291   21.1621 H   0  0  0  0  0  0  0  0  0  0  0  0
    4.7949    1.3180   19.1015 C   0  0  0  0  0  0  0  0  0  0  0  0
    3.8637    1.8591   19.2289 H   0  0  0  0  0  0  0  0  0  0  0  0
  1  2  1  0
  2  3  2  0
  3  4  1  0
  4  5  1  0
  4  6  2  0
  6  7  1  0
  7  8  2  0
  8  9  1  0
  9 10  1  0
 10 11  2  0
 11 12  1  0
 11 13  1  0
 13 14  2  0
 14 15  1  0
 14 16  1  0
 16 17  1  0
 17 18  1  0
 18 19  1  0
 18 20  1  0
 18 21  1  0
 16 22  2  0
 22 23  1  0
  9 24  1  0
 24 25  2  0
 24 26  1  0
 26 27  1  0
 26 28  2  0
 28 29  1  0
  6 30  1  0
 30 31  1  0
 30 32  2  0
 32 33  1  0
 32  2  1  0
 28  7  1  0
 22 10  1  0
M  END
>  <cnnaffinity>  (1) 
-4.85881

>  <filename>  (1) 
COc1cncc(-n2nc(-c3cccnc3)ccc2=O)c1

$$$$
