
     RDKit          3D

 33 35  0  0  0  0  0  0  0  0999 V2000
    4.9326    1.7965   16.9976 H   0  0  0  0  0  0  0  0  0  0  0  0
    5.3985    1.2889   17.8362 C   0  0  0  0  0  0  0  0  0  0  0  0
    6.5541    0.6593   17.5706 N   0  0  0  0  0  0  0  0  0  0  0  0
    7.1731    0.0412   18.5839 C   0  0  0  0  0  0  0  0  0  0  0  0
    8.1261   -0.4353   18.3585 H   0  0  0  0  0  0  0  0  0  0  0  0
    6.6524   -0.0044   19.8944 C   0  0  0  0  0  0  0  0  0  0  0  0
    7.3305   -0.6918   20.9533 N   0  0  0  0  0  0  0  0  0  0  0  0
    6.7341   -1.6119   21.8065 C   0  0  0  0  0  0  0  0  0  0  0  0
    5.6852   -1.8459   21.7014 H   0  0  0  0  0  0  0  0  0  0  0  0
    7.6763   -2.0742   22.6661 C   0  0  0  0  0  0  0  0  0  0  0  0
    7.5701   -3.0207   23.7801 C   0  0  0  0  0  0  0  0  0  0  0  0
    8.6742   -3.6906   24.3276 C   0  0  0  0  0  0  0  0  0  0  0  0
    9.6739   -3.5213   23.9363 H   0  0  0  0  0  0  0  0  0  0  0  0
    8.5109   -4.6030   25.3755 C   0  0  0  0  0  0  0  0  0  0  0  0
    9.3702   -5.1171   25.7964 H   0  0  0  0  0  0  0  0  0  0  0  0
    7.2359   -4.8650   25.9038 C   0  0  0  0  0  0  0  0  0  0  0  0
    6.9673   -5.7166   26.9179 O   0  0  0  0  0  0  0  0  0  0  0  0
    8.0306   -6.4150   27.5317 C   0  0  0  0  0  0  0  0  0  0  0  0
    8.7318   -5.7288   28.0254 H   0  0  0  0  0  0  0  0  0  0  0  0
    8.5861   -7.0084   26.7920 H   0  0  0  0  0  0  0  0  0  0  0  0
    7.5481   -7.0595   28.2670 H   0  0  0  0  0  0  0  0  0  0  0  0
    6.1309   -4.1866   25.3437 C   0  0  0  0  0  0  0  0  0  0  0  0
    4.8969   -4.4253   25.8195 F   0  0  0  0  0  0  0  0  0  0  0  0
    6.2913   -3.2828   24.3145 C   0  0  0  0  0  0  0  0  0  0  0  0
    5.4050   -2.7776   23.9461 H   0  0  0  0  0  0  0  0  0  0  0  0
    8.8475   -1.4196   22.3091 N   0  0  0  0  0  0  0  0  0  0  0  0
    9.7506   -1.4086   22.7523 H   0  0  0  0  0  0  0  0  0  0  0  0
    8.6516   -0.5258   21.3111 C   0  0  0  0  0  0  0  0  0  0  0  0
    9.8060    0.5352   20.7804 S   0  0  0  0  0  0  0  0  0  0  0  0
    5.4422    0.6461   20.1554 C   0  0  0  0  0  0  0  0  0  0  0  0
    5.0373    0.6332   21.1702 H   0  0  0  0  0  0  0  0  0  0  0  0
    4.8053    1.3112   19.1040 C   0  0  0  0  0  0  0  0  0  0  0  0
    3.8735    1.8466   19.2581 H   0  0  0  0  0  0  0  0  0  0  0  0
  1  2  1  0
  2  3  2  0
  3  4  1  0
  4  5  1  0
  4  6  2  0
  6  7  1  0
  7  8  1  0
  8  9  1  0
  8 10  2  0
 10 11  1  0
 11 12  2  0
 12 13  1  0
 12 14  1  0
 14 15  1  0
 14 16  2  0
 16 17  1  0
 17 18  1  0
 18 19  1  0
 18 20  1  0
 18 21  1  0
 16 22  1  0
 22 23  1  0
 22 24  2  0
 24 25  1  0
 10 26  1  0
 26 27  1  0
 26 28  1  0
 28 29  2  0
  6 30  1  0
 30 31  1  0
 30 32  2  0
 32 33  1  0
 32  2  1  0
 28  7  1  0
 24 11  1  0
M  END
>  <cnnaffinity>  (1) 
-5.69198

>  <filename>  (1) 
COc1ccc(-c2cn(-c3cccnc3)c(=S)[nH]2)cc1F

$$$$
