
     RDKit          3D

 30 32  0  0  0  0  0  0  0  0999 V2000
    4.9341    1.8110   16.9671 H   0  0  0  0  0  0  0  0  0  0  0  0
    5.3943    1.3167   17.8170 C   0  0  0  0  0  0  0  0  0  0  0  0
    6.5579    0.6948   17.5714 N   0  0  0  0  0  0  0  0  0  0  0  0
    7.1555    0.1001   18.6127 C   0  0  0  0  0  0  0  0  0  0  0  0
    8.1026   -0.3884   18.3872 H   0  0  0  0  0  0  0  0  0  0  0  0
    6.6485    0.0761   19.9376 C   0  0  0  0  0  0  0  0  0  0  0  0
    7.3475   -0.6704   21.0288 C   0  0  0  0  0  0  0  0  0  0  0  0
    7.8189   -1.9646   21.0815 C   0  0  0  0  0  0  0  0  0  0  0  0
    7.7562   -2.7414   20.3538 H   0  0  0  0  0  0  0  0  0  0  0  0
    8.3121   -2.2376   22.3141 N   0  0  0  0  0  0  0  0  0  0  0  0
    8.1611   -1.1975   23.0591 N   0  0  0  0  0  0  0  0  0  0  0  0
    7.5706   -0.2355   22.3179 N   0  0  0  0  0  0  0  0  0  0  0  0
    7.2115    0.9756   22.9524 C   0  0  0  0  0  0  0  0  0  0  0  0
    7.4144    2.1928   22.3004 C   0  0  0  0  0  0  0  0  0  0  0  0
    7.8209    2.1886   21.2914 H   0  0  0  0  0  0  0  0  0  0  0  0
    7.1082    3.3653   22.8689 N   0  0  0  0  0  0  0  0  0  0  0  0
    6.5885    3.3575   24.1000 C   0  0  0  0  0  0  0  0  0  0  0  0
    6.3388    4.3054   24.5664 H   0  0  0  0  0  0  0  0  0  0  0  0
    6.3383    2.1741   24.8332 C   0  0  0  0  0  0  0  0  0  0  0  0
    5.8053    2.3239   26.0718 O   0  0  0  0  0  0  0  0  0  0  0  0
    5.5664    1.1603   26.8421 C   0  0  0  0  0  0  0  0  0  0  0  0
    4.8308    0.5037   26.3614 H   0  0  0  0  0  0  0  0  0  0  0  0
    5.1751    1.5084   27.7958 H   0  0  0  0  0  0  0  0  0  0  0  0
    6.4891    0.5908   27.0098 H   0  0  0  0  0  0  0  0  0  0  0  0
    6.6569    0.9550   24.2390 C   0  0  0  0  0  0  0  0  0  0  0  0
    6.5016    0.0010   24.7427 H   0  0  0  0  0  0  0  0  0  0  0  0
    5.4074    0.7133   20.1474 C   0  0  0  0  0  0  0  0  0  0  0  0
    4.9529    0.7128   21.1401 H   0  0  0  0  0  0  0  0  0  0  0  0
    4.7771    1.3443   19.0708 C   0  0  0  0  0  0  0  0  0  0  0  0
    3.8262    1.8558   19.1899 H   0  0  0  0  0  0  0  0  0  0  0  0
  1  2  1  0
  2  3  2  0
  3  4  1  0
  4  5  1  0
  4  6  2  0
  6  7  1  0
  7  8  2  0
  8  9  1  0
  8 10  1  0
 10 11  2  0
 11 12  1  0
 12 13  1  0
 13 14  2  0
 14 15  1  0
 14 16  1  0
 16 17  2  0
 17 18  1  0
 17 19  1  0
 19 20  1  0
 20 21  1  0
 21 22  1  0
 21 23  1  0
 21 24  1  0
 19 25  2  0
 25 26  1  0
  6 27  1  0
 27 28  1  0
 27 29  2  0
 29 30  1  0
 29  2  1  0
 12  7  1  0
 25 13  1  0
M  END
>  <cnnaffinity>  (1) 
-5.04182

>  <filename>  (1) 
COc1cncc(-n2nncc2-c2cccnc2)c1

$$$$
