
     RDKit          3D

 41 43  0  0  0  0  0  0  0  0999 V2000
    2.1365   -3.8521   25.1574 C   0  0  0  0  0  0  0  0  0  0  0  0
    2.9674   -4.0723   24.0372 O   0  0  0  0  0  0  0  0  0  0  0  0
    4.3643   -3.9665   24.2676 C   0  0  0  0  0  0  0  0  0  0  0  0
    4.9427   -5.2572   24.9208 C   0  0  0  0  0  0  0  0  0  0  0  0
    6.3695   -5.5882   24.4289 C   0  0  0  0  0  0  0  0  0  0  0  0
    7.1923   -4.3414   24.1378 C   0  0  0  0  0  0  0  0  0  0  0  0
    6.5037   -3.5071   23.1360 N   0  0  0  0  0  0  0  0  0  0  0  0
    7.1802   -2.4832   22.5605 C   0  0  0  0  0  0  0  0  0  0  0  0
    8.4361   -2.2896   22.9721 N   0  0  0  0  0  0  0  0  0  0  0  0
    9.0832   -1.2884   22.4098 C   0  0  0  0  0  0  0  0  0  0  0  0
    8.5619   -0.4765   21.4081 C   0  0  0  0  0  0  0  0  0  0  0  0
    9.3532    0.6383   20.7861 C   0  0  0  0  0  0  0  0  0  0  0  0
   10.2476    0.8781   21.3633 H   0  0  0  0  0  0  0  0  0  0  0  0
    9.6591    0.3373   19.7846 H   0  0  0  0  0  0  0  0  0  0  0  0
    8.7374    1.5332   20.6717 H   0  0  0  0  0  0  0  0  0  0  0  0
    7.2459   -0.8129   21.0366 C   0  0  0  0  0  0  0  0  0  0  0  0
    6.5530   -0.0783   19.9697 C   0  0  0  0  0  0  0  0  0  0  0  0
    5.3453    0.5945   20.1805 C   0  0  0  0  0  0  0  0  0  0  0  0
    4.7896    1.2935   19.1123 C   0  0  0  0  0  0  0  0  0  0  0  0
    5.4411    1.2669   17.8750 C   0  0  0  0  0  0  0  0  0  0  0  0
    6.5842    0.6006   17.6555 N   0  0  0  0  0  0  0  0  0  0  0  0
    7.1213   -0.0493   18.6944 C   0  0  0  0  0  0  0  0  0  0  0  0
    8.0689   -0.5561   18.4954 H   0  0  0  0  0  0  0  0  0  0  0  0
    5.0264    1.8024   17.0247 H   0  0  0  0  0  0  0  0  0  0  0  0
    3.8804    1.8673   19.2319 H   0  0  0  0  0  0  0  0  0  0  0  0
    4.8763    0.5815   21.1659 H   0  0  0  0  0  0  0  0  0  0  0  0
    6.5469   -1.7767   21.6188 N   0  0  0  0  0  0  0  0  0  0  0  0
   10.1010   -1.1237   22.7815 H   0  0  0  0  0  0  0  0  0  0  0  0
    5.0617   -3.7151   22.9247 C   0  0  0  0  0  0  0  0  0  0  0  0
    4.6267   -2.8695   22.3986 H   0  0  0  0  0  0  0  0  0  0  0  0
    4.8902   -4.5918   22.2838 H   0  0  0  0  0  0  0  0  0  0  0  0
    8.1721   -4.6200   23.7395 H   0  0  0  0  0  0  0  0  0  0  0  0
    7.3753   -3.7612   25.0557 H   0  0  0  0  0  0  0  0  0  0  0  0
    6.9041   -6.2150   25.1446 H   0  0  0  0  0  0  0  0  0  0  0  0
    6.3161   -6.1622   23.4966 H   0  0  0  0  0  0  0  0  0  0  0  0
    4.9350   -5.1386   26.0109 H   0  0  0  0  0  0  0  0  0  0  0  0
    4.2748   -6.0883   24.6651 H   0  0  0  0  0  0  0  0  0  0  0  0
    4.5773   -3.0883   24.9000 H   0  0  0  0  0  0  0  0  0  0  0  0
    1.1151   -4.0883   24.8429 H   0  0  0  0  0  0  0  0  0  0  0  0
    2.3877   -4.4985   26.0129 H   0  0  0  0  0  0  0  0  0  0  0  0
    2.1549   -2.8029   25.4933 H   0  0  0  0  0  0  0  0  0  0  0  0
  1  2  1  0
  2  3  1  0
  3  4  1  0
  4  5  1  0
  5  6  1  0
  6  7  1  0
  7  8  1  0
  8  9  2  0
  9 10  1  0
 10 11  2  0
 11 12  1  0
 12 13  1  0
 12 14  1  0
 12 15  1  0
 11 16  1  0
 16 17  1  0
 17 18  2  0
 18 19  1  0
 19 20  2  0
 20 21  1  0
 21 22  2  0
 22 23  1  0
 20 24  1  0
 19 25  1  0
 18 26  1  0
 16 27  2  0
 10 28  1  0
  7 29  1  0
 29 30  1  0
 29 31  1  0
  6 32  1  0
  6 33  1  0
  5 34  1  0
  5 35  1  0
  4 36  1  0
  4 37  1  0
  3 38  1  0
  1 39  1  0
  1 40  1  0
  1 41  1  0
 29  3  1  0
 27  8  1  0
 22 17  1  0
M  END
>  <cnnaffinity>  (1) 
-5.13189

>  <filename>  (1) 
COC1CCCN(c2ncc(C)c(-c3cccnc3)n2)C1

$$$$
