
     RDKit          3D

 33 36  0  0  0  0  0  0  0  0999 V2000
    4.9478    1.7782   16.9957 H   0  0  0  0  0  0  0  0  0  0  0  0
    5.4101    1.2827   17.8474 C   0  0  0  0  0  0  0  0  0  0  0  0
    6.5734    0.6600   17.6044 N   0  0  0  0  0  0  0  0  0  0  0  0
    7.1746    0.0477   18.6287 C   0  0  0  0  0  0  0  0  0  0  0  0
    8.1228   -0.4354   18.4004 H   0  0  0  0  0  0  0  0  0  0  0  0
    6.6426    0.0158   19.9250 C   0  0  0  0  0  0  0  0  0  0  0  0
    7.3702   -0.6892   20.9762 C   0  0  0  0  0  0  0  0  0  0  0  0
    8.5522   -1.3308   20.7552 N   0  0  0  0  0  0  0  0  0  0  0  0
    8.8048   -1.8203   21.9494 C   0  0  0  0  0  0  0  0  0  0  0  0
   10.0147   -2.7989   22.7176 S   0  0  0  0  0  0  0  0  0  0  0  0
    9.0996   -2.7731   24.1985 C   0  0  0  0  0  0  0  0  0  0  0  0
    9.4819   -3.2861   25.0706 H   0  0  0  0  0  0  0  0  0  0  0  0
    7.9642   -2.0434   24.1207 C   0  0  0  0  0  0  0  0  0  0  0  0
    6.9708   -1.7922   25.2017 C   0  0  0  0  0  0  0  0  0  0  0  0
    6.2304   -0.5914   25.3008 C   0  0  0  0  0  0  0  0  0  0  0  0
    6.3422    0.1804   24.5539 H   0  0  0  0  0  0  0  0  0  0  0  0
    5.3408   -0.4351   26.3489 C   0  0  0  0  0  0  0  0  0  0  0  0
    4.7544    0.4779   26.4365 H   0  0  0  0  0  0  0  0  0  0  0  0
    5.1237   -1.3602   27.3010 N   0  0  0  0  0  0  0  0  0  0  0  0
    5.8203   -2.4798   27.2030 C   0  0  0  0  0  0  0  0  0  0  0  0
    5.6613   -3.4667   28.1015 O   0  0  0  0  0  0  0  0  0  0  0  0
    4.7637   -3.3090   29.1980 C   0  0  0  0  0  0  0  0  0  0  0  0
    4.8675   -4.2393   29.7585 H   0  0  0  0  0  0  0  0  0  0  0  0
    5.0322   -2.4532   29.8314 H   0  0  0  0  0  0  0  0  0  0  0  0
    3.7295   -3.1819   28.8541 H   0  0  0  0  0  0  0  0  0  0  0  0
    6.7561   -2.7459   26.1916 C   0  0  0  0  0  0  0  0  0  0  0  0
    7.2531   -3.7031   26.2282 H   0  0  0  0  0  0  0  0  0  0  0  0
    7.8386   -1.5007   22.8359 N   0  0  0  0  0  0  0  0  0  0  0  0
    6.8931   -0.7569   22.2150 N   0  0  0  0  0  0  0  0  0  0  0  0
    5.4202    0.6611   20.1725 C   0  0  0  0  0  0  0  0  0  0  0  0
    4.9857    0.6485   21.1751 H   0  0  0  0  0  0  0  0  0  0  0  0
    4.8008    1.3099   19.1078 C   0  0  0  0  0  0  0  0  0  0  0  0
    3.8685    1.8465   19.2399 H   0  0  0  0  0  0  0  0  0  0  0  0
  1  2  1  0
  2  3  2  0
  3  4  1  0
  4  5  1  0
  4  6  2  0
  6  7  1  0
  7  8  1  0
  8  9  2  0
  9 10  1  0
 10 11  1  0
 11 12  1  0
 11 13  2  0
 13 14  1  0
 14 15  2  0
 15 16  1  0
 15 17  1  0
 17 18  1  0
 17 19  2  0
 19 20  1  0
 20 21  1  0
 21 22  1  0
 22 23  1  0
 22 24  1  0
 22 25  1  0
 20 26  2  0
 26 27  1  0
 13 28  1  0
 28 29  1  0
  6 30  1  0
 30 31  1  0
 30 32  2  0
 32 33  1  0
 32  2  1  0
 29  7  2  0
 28  9  1  0
 26 14  1  0
M  END
>  <cnnaffinity>  (1) 
-5.5474

>  <filename>  (1) 
COc1cc(-c2csc3nc(-c4cccnc4)nn23)ccn1

$$$$
