
     RDKit          3D

 34 37  0  0  0  0  0  0  0  0999 V2000
    4.9463    1.7975   16.9839 H   0  0  0  0  0  0  0  0  0  0  0  0
    5.4041    1.2888   17.8315 C   0  0  0  0  0  0  0  0  0  0  0  0
    6.5643    0.6593   17.5853 N   0  0  0  0  0  0  0  0  0  0  0  0
    7.1600    0.0334   18.6032 C   0  0  0  0  0  0  0  0  0  0  0  0
    8.1052   -0.4529   18.3702 H   0  0  0  0  0  0  0  0  0  0  0  0
    6.6460    0.0057   19.9096 C   0  0  0  0  0  0  0  0  0  0  0  0
    7.3817   -0.6727   20.9708 C   0  0  0  0  0  0  0  0  0  0  0  0
    8.0452   -1.8518   20.7370 N   0  0  0  0  0  0  0  0  0  0  0  0
    8.4626   -2.2098   21.9211 C   0  0  0  0  0  0  0  0  0  0  0  0
    9.3552   -3.5394   22.5926 S   0  0  0  0  0  0  0  0  0  0  0  0
    9.4349   -2.7447   24.1424 C   0  0  0  0  0  0  0  0  0  0  0  0
   10.0067   -3.2124   24.9343 H   0  0  0  0  0  0  0  0  0  0  0  0
    8.7481   -1.5902   24.1502 C   0  0  0  0  0  0  0  0  0  0  0  0
    8.6067   -0.8747   24.9533 H   0  0  0  0  0  0  0  0  0  0  0  0
    8.1660   -1.3205   22.9156 N   0  0  0  0  0  0  0  0  0  0  0  0
    7.4746   -0.2915   22.3082 C   0  0  0  0  0  0  0  0  0  0  0  0
    7.0763    0.9281   22.9958 C   0  0  0  0  0  0  0  0  0  0  0  0
    7.2837    2.1816   22.3901 C   0  0  0  0  0  0  0  0  0  0  0  0
    7.7310    2.2462   21.4088 H   0  0  0  0  0  0  0  0  0  0  0  0
    6.8794    3.3244   23.0535 C   0  0  0  0  0  0  0  0  0  0  0  0
    7.0292    4.3022   22.6012 H   0  0  0  0  0  0  0  0  0  0  0  0
    6.2916    3.3084   24.2619 N   0  0  0  0  0  0  0  0  0  0  0  0
    6.0958    2.1221   24.8159 C   0  0  0  0  0  0  0  0  0  0  0  0
    5.5135    2.0233   26.0189 O   0  0  0  0  0  0  0  0  0  0  0  0
    5.1052    3.1953   26.7152 C   0  0  0  0  0  0  0  0  0  0  0  0
    4.3531    3.7577   26.1458 H   0  0  0  0  0  0  0  0  0  0  0  0
    5.9549    3.8607   26.9199 H   0  0  0  0  0  0  0  0  0  0  0  0
    4.6839    2.8019   27.6410 H   0  0  0  0  0  0  0  0  0  0  0  0
    6.4608    0.9015   24.2385 C   0  0  0  0  0  0  0  0  0  0  0  0
    6.2289   -0.0096   24.7688 H   0  0  0  0  0  0  0  0  0  0  0  0
    5.4198    0.6530   20.1474 C   0  0  0  0  0  0  0  0  0  0  0  0
    4.9829    0.6598   21.1473 H   0  0  0  0  0  0  0  0  0  0  0  0
    4.7944    1.3071   19.0910 C   0  0  0  0  0  0  0  0  0  0  0  0
    3.8628    1.8474   19.2295 H   0  0  0  0  0  0  0  0  0  0  0  0
  1  2  1  0
  2  3  2  0
  3  4  1  0
  4  5  1  0
  4  6  2  0
  6  7  1  0
  7  8  1  0
  8  9  2  0
  9 10  1  0
 10 11  1  0
 11 12  1  0
 11 13  2  0
 13 14  1  0
 13 15  1  0
 15 16  1  0
 16 17  1  0
 17 18  2  0
 18 19  1  0
 18 20  1  0
 20 21  1  0
 20 22  2  0
 22 23  1  0
 23 24  1  0
 24 25  1  0
 25 26  1  0
 25 27  1  0
 25 28  1  0
 23 29  2  0
 29 30  1  0
  6 31  1  0
 31 32  1  0
 31 33  2  0
 33 34  1  0
 33  2  1  0
 16  7  2  0
 29 17  1  0
 15  9  1  0
M  END
>  <cnnaffinity>  (1) 
-5.63262

>  <filename>  (1) 
COc1cc(-c2c(-c3cccnc3)nc3sccn23)ccn1

$$$$
