
     RDKit          3D

 39 42  0  0  0  0  0  0  0  0999 V2000
    4.9492    1.8008   16.9812 H   0  0  0  0  0  0  0  0  0  0  0  0
    5.4030    1.2878   17.8283 C   0  0  0  0  0  0  0  0  0  0  0  0
    6.5622    0.6565   17.5819 N   0  0  0  0  0  0  0  0  0  0  0  0
    7.1567    0.0285   18.5997 C   0  0  0  0  0  0  0  0  0  0  0  0
    8.1036   -0.4549   18.3648 H   0  0  0  0  0  0  0  0  0  0  0  0
    6.6438    0.0031   19.9069 C   0  0  0  0  0  0  0  0  0  0  0  0
    7.3828   -0.6663   20.9719 C   0  0  0  0  0  0  0  0  0  0  0  0
    8.0460   -1.8459   20.7427 N   0  0  0  0  0  0  0  0  0  0  0  0
    8.4591   -2.2011   21.9282 C   0  0  0  0  0  0  0  0  0  0  0  0
    9.3465   -3.5341   22.6003 S   0  0  0  0  0  0  0  0  0  0  0  0
    9.4259   -2.7383   24.1517 C   0  0  0  0  0  0  0  0  0  0  0  0
   10.0002   -3.2085   24.9405 H   0  0  0  0  0  0  0  0  0  0  0  0
    8.7390   -1.5850   24.1567 C   0  0  0  0  0  0  0  0  0  0  0  0
    8.5820   -0.8638   24.9515 H   0  0  0  0  0  0  0  0  0  0  0  0
    8.1619   -1.3119   22.9201 N   0  0  0  0  0  0  0  0  0  0  0  0
    7.4764   -0.2788   22.3098 C   0  0  0  0  0  0  0  0  0  0  0  0
    7.0790    0.9414   22.9970 C   0  0  0  0  0  0  0  0  0  0  0  0
    7.2884    2.1819   22.3864 C   0  0  0  0  0  0  0  0  0  0  0  0
    7.7416    2.2215   21.4035 H   0  0  0  0  0  0  0  0  0  0  0  0
    6.8897    3.3621   23.0129 C   0  0  0  0  0  0  0  0  0  0  0  0
    7.0550    4.3162   22.5222 H   0  0  0  0  0  0  0  0  0  0  0  0
    6.2707    3.3337   24.2616 C   0  0  0  0  0  0  0  0  0  0  0  0
    5.8630    4.4406   24.9302 O   0  0  0  0  0  0  0  0  0  0  0  0
    6.0495    5.7214   24.3665 C   0  0  0  0  0  0  0  0  0  0  0  0
    5.5124    5.8297   23.4127 H   0  0  0  0  0  0  0  0  0  0  0  0
    7.1139    5.9436   24.2005 H   0  0  0  0  0  0  0  0  0  0  0  0
    5.6349    6.3995   25.1121 H   0  0  0  0  0  0  0  0  0  0  0  0
    6.0424    2.0665   24.8962 C   0  0  0  0  0  0  0  0  0  0  0  0
    5.4380    2.0905   26.1113 O   0  0  0  0  0  0  0  0  0  0  0  0
    5.1907    0.8925   26.8132 C   0  0  0  0  0  0  0  0  0  0  0  0
    6.1194    0.3467   27.0337 H   0  0  0  0  0  0  0  0  0  0  0  0
    4.7216    1.2194   27.7422 H   0  0  0  0  0  0  0  0  0  0  0  0
    4.5088    0.2300   26.2613 H   0  0  0  0  0  0  0  0  0  0  0  0
    6.4469    0.9009   24.2536 C   0  0  0  0  0  0  0  0  0  0  0  0
    6.2520   -0.0627   24.7152 H   0  0  0  0  0  0  0  0  0  0  0  0
    5.4198    0.6538   20.1452 C   0  0  0  0  0  0  0  0  0  0  0  0
    4.9936    0.6732   21.1499 H   0  0  0  0  0  0  0  0  0  0  0  0
    4.7934    1.3053   19.0876 C   0  0  0  0  0  0  0  0  0  0  0  0
    3.8634    1.8468   19.2262 H   0  0  0  0  0  0  0  0  0  0  0  0
  1  2  1  0
  2  3  2  0
  3  4  1  0
  4  5  1  0
  4  6  2  0
  6  7  1  0
  7  8  1  0
  8  9  2  0
  9 10  1  0
 10 11  1  0
 11 12  1  0
 11 13  2  0
 13 14  1  0
 13 15  1  0
 15 16  1  0
 16 17  1  0
 17 18  2  0
 18 19  1  0
 18 20  1  0
 20 21  1  0
 20 22  2  0
 22 23  1  0
 23 24  1  0
 24 25  1  0
 24 26  1  0
 24 27  1  0
 22 28  1  0
 28 29  1  0
 29 30  1  0
 30 31  1  0
 30 32  1  0
 30 33  1  0
 28 34  2  0
 34 35  1  0
  6 36  1  0
 36 37  1  0
 36 38  2  0
 38 39  1  0
 38  2  1  0
 16  7  2  0
 34 17  1  0
 15  9  1  0
M  END
>  <cnnaffinity>  (1) 
-5.65429

>  <filename>  (1) 
COc1ccc(-c2c(-c3cccnc3)nc3sccn23)cc1OC

$$$$
