
     RDKit          3D

 33 35  0  0  0  0  0  0  0  0999 V2000
    5.2461    1.9820   16.7419 H   0  0  0  0  0  0  0  0  0  0  0  0
    5.4722    1.3967   17.6293 C   0  0  0  0  0  0  0  0  0  0  0  0
    6.5379    0.5788   17.5451 N   0  0  0  0  0  0  0  0  0  0  0  0
    6.8560   -0.1205   18.6394 C   0  0  0  0  0  0  0  0  0  0  0  0
    7.7311   -0.7613   18.5837 H   0  0  0  0  0  0  0  0  0  0  0  0
    6.1187   -0.0873   19.8391 C   0  0  0  0  0  0  0  0  0  0  0  0
    6.6348   -0.7925   20.9768 N   0  0  0  0  0  0  0  0  0  0  0  0
    7.9636   -0.6060   21.2007 N   0  0  0  0  0  0  0  0  0  0  0  0
    8.5068   -1.0895   22.2937 C   0  0  0  0  0  0  0  0  0  0  0  0
    9.9767   -0.8758   22.3307 C   0  0  0  0  0  0  0  0  0  0  0  0
   10.6350   -1.1632   21.1237 C   0  0  0  0  0  0  0  0  0  0  0  0
   10.0189   -1.4391   20.2763 H   0  0  0  0  0  0  0  0  0  0  0  0
   11.9517   -1.1332   20.9751 N   0  0  0  0  0  0  0  0  0  0  0  0
   12.6731   -0.7344   22.0255 C   0  0  0  0  0  0  0  0  0  0  0  0
   13.7463   -0.7941   21.8866 H   0  0  0  0  0  0  0  0  0  0  0  0
   12.1138   -0.3241   23.2554 C   0  0  0  0  0  0  0  0  0  0  0  0
   12.8320    0.1025   24.3222 O   0  0  0  0  0  0  0  0  0  0  0  0
   14.2237    0.3207   24.1557 C   0  0  0  0  0  0  0  0  0  0  0  0
   14.7064   -0.4267   23.5202 H   0  0  0  0  0  0  0  0  0  0  0  0
   14.6532    0.2220   25.1480 H   0  0  0  0  0  0  0  0  0  0  0  0
   14.4204    1.2987   23.7117 H   0  0  0  0  0  0  0  0  0  0  0  0
   10.7227   -0.4309   23.4275 C   0  0  0  0  0  0  0  0  0  0  0  0
   10.2715   -0.1793   24.3883 H   0  0  0  0  0  0  0  0  0  0  0  0
    7.7474   -1.9170   23.3116 C   0  0  0  0  0  0  0  0  0  0  0  0
    8.1860   -2.3060   24.3872 O   0  0  0  0  0  0  0  0  0  0  0  0
    6.4166   -2.2653   22.8326 C   0  0  0  0  0  0  0  0  0  0  0  0
    5.8184   -2.9312   23.4397 H   0  0  0  0  0  0  0  0  0  0  0  0
    5.9240   -1.7036   21.7125 C   0  0  0  0  0  0  0  0  0  0  0  0
    4.9352   -1.9283   21.3408 H   0  0  0  0  0  0  0  0  0  0  0  0
    4.9743    0.7200   19.8976 C   0  0  0  0  0  0  0  0  0  0  0  0
    4.3756    0.7586   20.8091 H   0  0  0  0  0  0  0  0  0  0  0  0
    4.6704    1.4992   18.7737 C   0  0  0  0  0  0  0  0  0  0  0  0
    3.8330    2.1914   18.7741 H   0  0  0  0  0  0  0  0  0  0  0  0
  1  2  1  0
  2  3  2  0
  3  4  1  0
  4  5  1  0
  4  6  2  0
  6  7  1  0
  7  8  1  0
  8  9  2  0
  9 10  1  0
 10 11  2  0
 11 12  1  0
 11 13  1  0
 13 14  2  0
 14 15  1  0
 14 16  1  0
 16 17  1  0
 17 18  1  0
 18 19  1  0
 18 20  1  0
 18 21  1  0
 16 22  2  0
 22 23  1  0
  9 24  1  0
 24 25  2  0
 24 26  1  0
 26 27  1  0
 26 28  2  0
 28 29  1  0
  6 30  1  0
 30 31  1  0
 30 32  2  0
 32 33  1  0
 32  2  1  0
 28  7  1  0
 22 10  1  0
M  END
>  <cnnaffinity>  (1) 
-5.10106

>  <filename>  (1) 
COc1cncc(-c2nn(-c3cccnc3)ccc2=O)c1

$$$$
