
     RDKit          3D

 30 32  0  0  0  0  0  0  0  0999 V2000
    4.9282    1.7896   16.9874 H   0  0  0  0  0  0  0  0  0  0  0  0
    5.4014    1.2971   17.8323 C   0  0  0  0  0  0  0  0  0  0  0  0
    6.5643    0.6797   17.5762 N   0  0  0  0  0  0  0  0  0  0  0  0
    7.1642    0.0574   18.5932 C   0  0  0  0  0  0  0  0  0  0  0  0
    8.1088   -0.4360   18.3743 H   0  0  0  0  0  0  0  0  0  0  0  0
    6.6440    0.0229   19.8947 C   0  0  0  0  0  0  0  0  0  0  0  0
    7.3805   -0.7065   20.9255 C   0  0  0  0  0  0  0  0  0  0  0  0
    7.9392   -1.8740   20.7464 N   0  0  0  0  0  0  0  0  0  0  0  0
    8.4379   -2.2969   21.9523 N   0  0  0  0  0  0  0  0  0  0  0  0
    8.1844   -1.3629   22.8226 C   0  0  0  0  0  0  0  0  0  0  0  0
    8.4681   -1.3915   23.8632 H   0  0  0  0  0  0  0  0  0  0  0  0
    7.5166   -0.3020   22.2456 N   0  0  0  0  0  0  0  0  0  0  0  0
    7.1809    0.9553   22.8577 C   0  0  0  0  0  0  0  0  0  0  0  0
    6.6002    1.0006   24.1467 C   0  0  0  0  0  0  0  0  0  0  0  0
    6.3980    0.0806   24.6841 H   0  0  0  0  0  0  0  0  0  0  0  0
    6.2714    2.1379   24.7575 N   0  0  0  0  0  0  0  0  0  0  0  0
    6.5004    3.2955   24.1204 C   0  0  0  0  0  0  0  0  0  0  0  0
    6.2185    4.1925   24.6658 H   0  0  0  0  0  0  0  0  0  0  0  0
    7.0719    3.3651   22.8325 C   0  0  0  0  0  0  0  0  0  0  0  0
    7.3137    4.5065   22.1388 O   0  0  0  0  0  0  0  0  0  0  0  0
    7.0027    5.7824   22.6855 C   0  0  0  0  0  0  0  0  0  0  0  0
    7.3013    6.4974   21.9201 H   0  0  0  0  0  0  0  0  0  0  0  0
    5.9311    5.9071   22.8895 H   0  0  0  0  0  0  0  0  0  0  0  0
    7.5619    5.9919   23.6064 H   0  0  0  0  0  0  0  0  0  0  0  0
    7.4217    2.1612   22.1957 C   0  0  0  0  0  0  0  0  0  0  0  0
    7.8324    2.1875   21.1867 H   0  0  0  0  0  0  0  0  0  0  0  0
    5.4159    0.6509   20.1476 C   0  0  0  0  0  0  0  0  0  0  0  0
    4.9938    0.6385   21.1578 H   0  0  0  0  0  0  0  0  0  0  0  0
    4.7939    1.3112   19.0929 C   0  0  0  0  0  0  0  0  0  0  0  0
    3.8666    1.8456   19.2439 H   0  0  0  0  0  0  0  0  0  0  0  0
  1  2  1  0
  2  3  2  0
  3  4  1  0
  4  5  1  0
  4  6  2  0
  6  7  1  0
  7  8  2  0
  8  9  1  0
  9 10  2  0
 10 11  1  0
 10 12  1  0
 12 13  1  0
 13 14  2  0
 14 15  1  0
 14 16  1  0
 16 17  2  0
 17 18  1  0
 17 19  1  0
 19 20  1  0
 20 21  1  0
 21 22  1  0
 21 23  1  0
 21 24  1  0
 19 25  2  0
 25 26  1  0
  6 27  1  0
 27 28  1  0
 27 29  2  0
 29 30  1  0
 29  2  1  0
 12  7  1  0
 25 13  1  0
M  END
>  <cnnaffinity>  (1) 
-5.2003

>  <filename>  (1) 
COc1cncc(-n2cnnc2-c2cccnc2)c1

$$$$
