
     RDKit          3D

 38 41  0  0  0  0  0  0  0  0999 V2000
    4.9971    1.8385   16.9147 H   0  0  0  0  0  0  0  0  0  0  0  0
    5.3910    1.3071   17.7831 C   0  0  0  0  0  0  0  0  0  0  0  0
    6.5429    0.6463   17.5983 N   0  0  0  0  0  0  0  0  0  0  0  0
    7.0681    0.0260   18.6644 C   0  0  0  0  0  0  0  0  0  0  0  0
    8.0059   -0.4965   18.4848 H   0  0  0  0  0  0  0  0  0  0  0  0
    6.4849   -0.0046   19.9497 C   0  0  0  0  0  0  0  0  0  0  0  0
    7.2423   -0.6125   21.0661 C   0  0  0  0  0  0  0  0  0  0  0  0
    8.5954   -0.5441   21.3030 C   0  0  0  0  0  0  0  0  0  0  0  0
    8.8111   -1.1399   22.5348 C   0  0  0  0  0  0  0  0  0  0  0  0
    7.7016   -1.6008   23.0771 N   0  0  0  0  0  0  0  0  0  0  0  0
    6.7493   -1.2631   22.1663 N   0  0  0  0  0  0  0  0  0  0  0  0
    5.7893   -1.5157   22.3668 H   0  0  0  0  0  0  0  0  0  0  0  0
   10.2485   -1.0991   22.9585 C   0  0  0  0  0  0  0  0  0  0  0  0
   10.6731   -2.1070   23.0074 H   0  0  0  0  0  0  0  0  0  0  0  0
   10.3752   -0.6524   23.9497 H   0  0  0  0  0  0  0  0  0  0  0  0
   10.9307   -0.2454   21.8309 C   0  0  2  0  0  0  0  0  0  0  0  0
   11.7630   -0.8257   21.4251 H   0  0  0  0  0  0  0  0  0  0  0  0
   11.4703    1.0740   22.3441 C   0  0  0  0  0  0  0  0  0  0  0  0
   12.8449    1.3870   22.3312 C   0  0  0  0  0  0  0  0  0  0  0  0
   13.5640    0.6690   21.9438 H   0  0  0  0  0  0  0  0  0  0  0  0
   13.3462    2.5446   22.7735 N   0  0  0  0  0  0  0  0  0  0  0  0
   12.4899    3.4568   23.2542 C   0  0  0  0  0  0  0  0  0  0  0  0
   12.9335    4.3919   23.5899 H   0  0  0  0  0  0  0  0  0  0  0  0
   11.0979    3.2425   23.3470 C   0  0  0  0  0  0  0  0  0  0  0  0
   10.1951    4.1115   23.8727 O   0  0  0  0  0  0  0  0  0  0  0  0
   10.6579    5.3640   24.3478 C   0  0  0  0  0  0  0  0  0  0  0  0
   11.1213    5.9487   23.5430 H   0  0  0  0  0  0  0  0  0  0  0  0
    9.7827    5.8944   24.7188 H   0  0  0  0  0  0  0  0  0  0  0  0
   11.3770    5.2369   25.1666 H   0  0  0  0  0  0  0  0  0  0  0  0
   10.5911    2.0259   22.8686 C   0  0  0  0  0  0  0  0  0  0  0  0
    9.5180    1.8428   22.9176 H   0  0  0  0  0  0  0  0  0  0  0  0
    9.8612   -0.0473   20.7031 C   0  0  0  0  0  0  0  0  0  0  0  0
   10.1240   -0.6502   19.8332 H   0  0  0  0  0  0  0  0  0  0  0  0
    9.7791    0.9902   20.3596 H   0  0  0  0  0  0  0  0  0  0  0  0
    5.2604    0.6666   20.1107 C   0  0  0  0  0  0  0  0  0  0  0  0
    4.7611    0.7008   21.0826 H   0  0  0  0  0  0  0  0  0  0  0  0
    4.7184    1.3356   19.0110 C   0  0  0  0  0  0  0  0  0  0  0  0
    3.8017    1.9062   19.0931 H   0  0  0  0  0  0  0  0  0  0  0  0
  1  2  1  0
  2  3  2  0
  3  4  1  0
  4  5  1  0
  4  6  2  0
  6  7  1  0
  7  8  2  0
  8  9  1  0
  9 10  2  0
 10 11  1  0
 11 12  1  0
  9 13  1  0
 13 14  1  0
 13 15  1  0
 13 16  1  0
 16 17  1  6
 16 18  1  0
 18 19  2  0
 19 20  1  0
 19 21  1  0
 21 22  2  0
 22 23  1  0
 22 24  1  0
 24 25  1  0
 25 26  1  0
 26 27  1  0
 26 28  1  0
 26 29  1  0
 24 30  2  0
 30 31  1  0
 16 32  1  0
 32 33  1  0
 32 34  1  0
  6 35  1  0
 35 36  1  0
 35 37  2  0
 37 38  1  0
 37  2  1  0
 11  7  1  0
 30 18  1  0
 32  8  1  0
M  END
>  <cnnaffinity>  (1) 
-5.78542

>  <filename>  (1) 
COc1cncc([C@H]2Cc3n[nH]c(-c4cccnc4)c3C2)c1

$$$$
