
     RDKit          3D

 36 38  0  0  0  0  0  0  0  0999 V2000
    7.0893    1.7548   22.1316 H   0  0  0  0  0  0  0  0  0  0  0  0
    7.3229    0.9366   22.8203 C   0  0  0  0  0  0  0  0  0  0  0  0
    7.5482   -0.3005   22.3375 C   0  0  0  0  0  0  0  0  0  0  0  0
    7.3850   -0.7573   20.9429 C   0  0  0  0  0  0  0  0  0  0  0  0
    6.6384    0.0008   19.9094 C   0  0  0  0  0  0  0  0  0  0  0  0
    7.1549    0.0265   18.6061 C   0  0  0  0  0  0  0  0  0  0  0  0
    8.0947   -0.4708   18.3797 H   0  0  0  0  0  0  0  0  0  0  0  0
    6.5709    0.6656   17.5883 N   0  0  0  0  0  0  0  0  0  0  0  0
    5.4138    1.3003   17.8337 C   0  0  0  0  0  0  0  0  0  0  0  0
    4.9595    1.8128   16.9880 H   0  0  0  0  0  0  0  0  0  0  0  0
    4.7925    1.3185   19.0873 C   0  0  0  0  0  0  0  0  0  0  0  0
    3.8543    1.8518   19.2200 H   0  0  0  0  0  0  0  0  0  0  0  0
    5.4227    0.6654   20.1492 C   0  0  0  0  0  0  0  0  0  0  0  0
    4.9895    0.6872   21.1518 H   0  0  0  0  0  0  0  0  0  0  0  0
    7.9503   -1.8800   20.6929 N   0  0  0  0  0  0  0  0  0  0  0  0
    8.5530   -2.4213   21.9125 C   0  0  0  0  0  0  0  0  0  0  0  0
    8.1736   -3.4355   22.0719 H   0  0  0  0  0  0  0  0  0  0  0  0
    9.6333   -2.5057   21.7570 H   0  0  0  0  0  0  0  0  0  0  0  0
    8.1944   -1.4571   23.0758 C   0  0  0  0  0  0  0  0  0  0  0  0
    7.4787   -1.9193   23.7635 H   0  0  0  0  0  0  0  0  0  0  0  0
    9.0499   -1.1195   23.6685 H   0  0  0  0  0  0  0  0  0  0  0  0
    7.4909    1.3359   24.2269 C   0  0  0  0  0  0  0  0  0  0  0  0
    7.0259    0.5465   25.2889 C   0  0  0  0  0  0  0  0  0  0  0  0
    6.4818   -0.3770   25.0829 H   0  0  0  0  0  0  0  0  0  0  0  0
    7.2221    0.9536   26.6075 C   0  0  0  0  0  0  0  0  0  0  0  0
    6.8989    0.3383   27.4386 H   0  0  0  0  0  0  0  0  0  0  0  0
    7.8582    2.1674   26.8958 C   0  0  0  0  0  0  0  0  0  0  0  0
    7.9699    2.7065   28.1278 O   0  0  0  0  0  0  0  0  0  0  0  0
    7.7464    1.9163   29.2780 C   0  0  0  0  0  0  0  0  0  0  0  0
    6.6778    1.7158   29.4358 H   0  0  0  0  0  0  0  0  0  0  0  0
    8.1380    2.5109   30.1054 H   0  0  0  0  0  0  0  0  0  0  0  0
    8.2813    0.9620   29.2094 H   0  0  0  0  0  0  0  0  0  0  0  0
    8.3706    2.9296   25.8201 C   0  0  0  0  0  0  0  0  0  0  0  0
    9.0695    4.0501   26.0754 F   0  0  0  0  0  0  0  0  0  0  0  0
    8.1708    2.5428   24.5109 C   0  0  0  0  0  0  0  0  0  0  0  0
    8.5654    3.1812   23.7235 H   0  0  0  0  0  0  0  0  0  0  0  0
  1  2  1  0
  2  3  2  3
  3  4  1  0
  4  5  1  0
  5  6  2  0
  6  7  1  0
  6  8  1  0
  8  9  2  0
  9 10  1  0
  9 11  1  0
 11 12  1  0
 11 13  2  0
 13 14  1  0
  4 15  2  0
 15 16  1  0
 16 17  1  0
 16 18  1  0
 16 19  1  0
 19 20  1  0
 19 21  1  0
  2 22  1  0
 22 23  2  0
 23 24  1  0
 23 25  1  0
 25 26  1  0
 25 27  2  0
 27 28  1  0
 28 29  1  0
 29 30  1  0
 29 31  1  0
 29 32  1  0
 27 33  1  0
 33 34  1  0
 33 35  2  0
 35 36  1  0
 19  3  1  0
 35 22  1  0
 13  5  1  0
M  END
>  <cnnaffinity>  (1) 
-5.28539

>  <filename>  (1) 
COc1ccc(C=C2CCN=C2c2cccnc2)cc1F

$$$$
