
     RDKit          3D

 41 44  0  0  0  0  0  0  0  0999 V2000
    5.0354    1.7914   16.7533 H   0  0  0  0  0  0  0  0  0  0  0  0
    5.4535    1.2531   17.6007 C   0  0  0  0  0  0  0  0  0  0  0  0
    6.5898    0.5774   17.3698 N   0  0  0  0  0  0  0  0  0  0  0  0
    7.1657   -0.0389   18.4077 C   0  0  0  0  0  0  0  0  0  0  0  0
    8.0826   -0.5887   18.1990 H   0  0  0  0  0  0  0  0  0  0  0  0
    6.6529    0.0018   19.7185 C   0  0  0  0  0  0  0  0  0  0  0  0
    7.4369   -0.5273   20.8475 C   0  0  0  0  0  0  0  0  0  0  0  0
    8.6244   -1.1201   20.6364 N   0  0  0  0  0  0  0  0  0  0  0  0
    9.0269   -1.4333   21.8810 N   0  0  0  0  0  0  0  0  0  0  0  0
   10.1101   -2.1184   22.4136 C   0  0  0  0  0  0  0  0  0  0  0  0
   10.8818   -2.5059   21.7745 H   0  0  0  0  0  0  0  0  0  0  0  0
    9.8960   -2.1445   23.7548 C   0  0  0  0  0  0  0  0  0  0  0  0
   10.4390   -2.5991   24.5653 H   0  0  0  0  0  0  0  0  0  0  0  0
    8.7230   -1.4652   24.0361 N   0  0  0  0  0  0  0  0  0  0  0  0
    8.1051   -1.4228   25.2783 N   0  0  0  0  0  0  0  0  0  0  0  0
    7.1818   -1.0139   25.1451 H   0  0  0  0  0  0  0  0  0  0  0  0
    8.8306   -0.6419   26.2950 C   0  0  0  0  0  0  0  0  0  0  0  0
    9.4561   -1.3404   26.8685 H   0  0  0  0  0  0  0  0  0  0  0  0
    9.4930    0.0916   25.8181 H   0  0  0  0  0  0  0  0  0  0  0  0
    7.9234    0.1106   27.2440 C   0  0  0  0  0  0  0  0  0  0  0  0
    6.9235   -0.5436   27.9877 C   0  0  0  0  0  0  0  0  0  0  0  0
    6.7207   -1.5977   27.7997 H   0  0  0  0  0  0  0  0  0  0  0  0
    6.2088    0.1288   28.9790 C   0  0  0  0  0  0  0  0  0  0  0  0
    5.4493   -0.3682   29.5762 H   0  0  0  0  0  0  0  0  0  0  0  0
    6.4729    1.4856   29.2391 C   0  0  0  0  0  0  0  0  0  0  0  0
    5.7528    2.0498   30.2555 O   0  0  0  0  0  0  0  0  0  0  0  0
    6.1752    3.2873   30.7985 C   0  0  0  0  0  0  0  0  0  0  0  0
    5.6653    3.3921   31.7569 H   0  0  0  0  0  0  0  0  0  0  0  0
    5.9090    4.1423   30.1615 H   0  0  0  0  0  0  0  0  0  0  0  0
    7.2599    3.3057   30.9630 H   0  0  0  0  0  0  0  0  0  0  0  0
    7.4310    2.1654   28.4761 C   0  0  0  0  0  0  0  0  0  0  0  0
    7.6168    3.2202   28.6460 H   0  0  0  0  0  0  0  0  0  0  0  0
    8.1413    1.4722   27.4870 C   0  0  0  0  0  0  0  0  0  0  0  0
    8.9005    2.0077   26.9140 H   0  0  0  0  0  0  0  0  0  0  0  0
    8.1636   -1.0546   22.8511 C   0  0  0  0  0  0  0  0  0  0  0  0
    7.0868   -0.4503   22.2160 C   0  0  0  0  0  0  0  0  0  0  0  0
    6.1997   -0.0143   22.6428 H   0  0  0  0  0  0  0  0  0  0  0  0
    5.4087    0.6253   19.9152 C   0  0  0  0  0  0  0  0  0  0  0  0
    4.9143    0.6050   20.8874 H   0  0  0  0  0  0  0  0  0  0  0  0
    4.8112    1.2800   18.8428 C   0  0  0  0  0  0  0  0  0  0  0  0
    3.8828    1.8290   18.9614 H   0  0  0  0  0  0  0  0  0  0  0  0
  1  2  1  0
  2  3  2  0
  3  4  1  0
  4  5  1  0
  4  6  2  0
  6  7  1  0
  7  8  2  0
  8  9  1  0
  9 10  1  0
 10 11  1  0
 10 12  2  0
 12 13  1  0
 12 14  1  0
 14 15  1  0
 15 16  1  0
 15 17  1  0
 17 18  1  0
 17 19  1  0
 17 20  1  0
 20 21  2  0
 21 22  1  0
 21 23  1  0
 23 24  1  0
 23 25  2  0
 25 26  1  0
 26 27  1  0
 27 28  1  0
 27 29  1  0
 27 30  1  0
 25 31  1  0
 31 32  1  0
 31 33  2  0
 33 34  1  0
 14 35  1  0
 35 36  2  0
 36 37  1  0
  6 38  1  0
 38 39  1  0
 38 40  2  0
 40 41  1  0
 40  2  1  0
 36  7  1  0
 35  9  1  0
 33 20  1  0
M  END
>  <cnnaffinity>  (1) 
-5.115

>  <filename>  (1) 
COc1ccc(CNn2ccn3nc(-c4cccnc4)cc23)cc1

$$$$
