
     RDKit          3D

 33 35  0  0  0  0  0  0  0  0999 V2000
    4.9115    1.7989   16.9794 H   0  0  0  0  0  0  0  0  0  0  0  0
    5.3877    1.3053   17.8202 C   0  0  0  0  0  0  0  0  0  0  0  0
    6.5531    0.6905   17.5520 N   0  0  0  0  0  0  0  0  0  0  0  0
    7.1576    0.0647   18.5673 C   0  0  0  0  0  0  0  0  0  0  0  0
    8.1157   -0.4000   18.3350 H   0  0  0  0  0  0  0  0  0  0  0  0
    6.6504    0.0126   19.8835 C   0  0  0  0  0  0  0  0  0  0  0  0
    7.3687   -0.6567   20.9762 C   0  0  0  0  0  0  0  0  0  0  0  0
    7.5100   -0.3301   22.3223 C   0  0  0  0  0  0  0  0  0  0  0  0
    7.0132    0.8196   22.9417 N   0  0  0  0  0  0  0  0  0  0  0  0
    6.9742    1.6148   22.3225 H   0  0  0  0  0  0  0  0  0  0  0  0
    6.8027    1.0105   24.3132 C   0  0  0  0  0  0  0  0  0  0  0  0
    7.0105    2.2663   24.9417 C   0  0  0  0  0  0  0  0  0  0  0  0
    7.3592    3.1184   24.3601 H   0  0  0  0  0  0  0  0  0  0  0  0
    6.8149    2.4796   26.2446 N   0  0  0  0  0  0  0  0  0  0  0  0
    6.3871    1.4536   26.9992 C   0  0  0  0  0  0  0  0  0  0  0  0
    6.2334    1.6720   28.0521 H   0  0  0  0  0  0  0  0  0  0  0  0
    6.1365    0.1678   26.4760 C   0  0  0  0  0  0  0  0  0  0  0  0
    5.7019   -0.9062   27.1833 O   0  0  0  0  0  0  0  0  0  0  0  0
    5.4403   -0.8077   28.5751 C   0  0  0  0  0  0  0  0  0  0  0  0
    5.1114   -1.8019   28.8755 H   0  0  0  0  0  0  0  0  0  0  0  0
    6.3307   -0.5370   29.1547 H   0  0  0  0  0  0  0  0  0  0  0  0
    4.6477   -0.0849   28.8063 H   0  0  0  0  0  0  0  0  0  0  0  0
    6.3478   -0.0446   25.1063 C   0  0  0  0  0  0  0  0  0  0  0  0
    6.1701   -1.0194   24.6554 H   0  0  0  0  0  0  0  0  0  0  0  0
    8.2884   -1.3796   22.8647 C   0  0  0  0  0  0  0  0  0  0  0  0
    8.6258   -1.4671   23.8861 H   0  0  0  0  0  0  0  0  0  0  0  0
    8.6053   -2.2900   21.9510 N   0  0  0  0  0  0  0  0  0  0  0  0
    8.0490   -1.8244   20.8229 N   0  0  0  0  0  0  0  0  0  0  0  0
    8.1327   -2.3628   19.9772 H   0  0  0  0  0  0  0  0  0  0  0  0
    5.4320    0.6616   20.1417 C   0  0  0  0  0  0  0  0  0  0  0  0
    5.0183    0.6272   21.1524 H   0  0  0  0  0  0  0  0  0  0  0  0
    4.7948    1.3184   19.0890 C   0  0  0  0  0  0  0  0  0  0  0  0
    3.8646    1.8487   19.2451 H   0  0  0  0  0  0  0  0  0  0  0  0
  1  2  1  0
  2  3  2  0
  3  4  1  0
  4  5  1  0
  4  6  2  0
  6  7  1  0
  7  8  2  0
  8  9  1  0
  9 10  1  0
  9 11  1  0
 11 12  2  0
 12 13  1  0
 12 14  1  0
 14 15  2  0
 15 16  1  0
 15 17  1  0
 17 18  1  0
 18 19  1  0
 19 20  1  0
 19 21  1  0
 19 22  1  0
 17 23  2  0
 23 24  1  0
  8 25  1  0
 25 26  1  0
 25 27  2  0
 27 28  1  0
 28 29  1  0
  6 30  1  0
 30 31  1  0
 30 32  2  0
 32 33  1  0
 32  2  1  0
 28  7  1  0
 23 11  1  0
M  END
>  <cnnaffinity>  (1) 
-5.46267

>  <filename>  (1) 
COc1cncc(Nc2cn[nH]c2-c2cccnc2)c1

$$$$
