
     RDKit          3D

 35 37  0  0  0  0  0  0  0  0999 V2000
    4.9476    1.7857   16.7408 H   0  0  0  0  0  0  0  0  0  0  0  0
    5.3236    1.3900   17.6808 C   0  0  0  0  0  0  0  0  0  0  0  0
    6.5189    0.7891   17.6061 N   0  0  0  0  0  0  0  0  0  0  0  0
    7.0168    0.2979   18.7473 C   0  0  0  0  0  0  0  0  0  0  0  0
    7.9812   -0.1965   18.6665 H   0  0  0  0  0  0  0  0  0  0  0  0
    6.3924    0.3776   20.0094 C   0  0  0  0  0  0  0  0  0  0  0  0
    7.0988   -0.2025   21.2330 C   0  0  2  0  0  0  0  0  0  0  0  0
    6.4768   -0.0154   22.1136 H   0  0  0  0  0  0  0  0  0  0  0  0
    8.5104    0.4186   21.4563 C   0  0  0  0  0  0  0  0  0  0  0  0
    8.6170    1.4094   20.9973 H   0  0  0  0  0  0  0  0  0  0  0  0
    8.7305    0.5306   22.5328 H   0  0  0  0  0  0  0  0  0  0  0  0
    9.3901   -0.5495   20.8170 N   0  0  0  0  0  0  0  0  0  0  0  0
   10.3912   -0.5513   20.9390 H   0  0  0  0  0  0  0  0  0  0  0  0
    8.9022   -1.8174   20.9167 C   0  0  0  0  0  0  0  0  0  0  0  0
    9.6016   -2.8007   20.8765 O   0  0  0  0  0  0  0  0  0  0  0  0
    7.3811   -1.7345   21.0509 C   0  0  1  0  0  0  0  0  0  0  0  0
    7.0016   -2.0607   20.0730 H   0  0  0  0  0  0  0  0  0  0  0  0
    6.7994   -2.7052   22.0781 C   0  0  0  0  0  0  0  0  0  0  0  0
    5.7160   -3.5465   21.7384 C   0  0  0  0  0  0  0  0  0  0  0  0
    5.2860   -3.4890   20.7370 H   0  0  0  0  0  0  0  0  0  0  0  0
    5.1847   -4.4508   22.5616 N   0  0  0  0  0  0  0  0  0  0  0  0
    5.7145   -4.5710   23.7934 C   0  0  0  0  0  0  0  0  0  0  0  0
    5.2638   -5.3214   24.4423 H   0  0  0  0  0  0  0  0  0  0  0  0
    6.8041   -3.7977   24.2438 C   0  0  0  0  0  0  0  0  0  0  0  0
    7.3959   -3.8942   25.4645 O   0  0  0  0  0  0  0  0  0  0  0  0
    6.8122   -4.6863   26.4930 C   0  0  0  0  0  0  0  0  0  0  0  0
    6.8329   -5.7583   26.2553 H   0  0  0  0  0  0  0  0  0  0  0  0
    5.7755   -4.3929   26.7050 H   0  0  0  0  0  0  0  0  0  0  0  0
    7.4242   -4.5032   27.3769 H   0  0  0  0  0  0  0  0  0  0  0  0
    7.3498   -2.8518   23.3559 C   0  0  0  0  0  0  0  0  0  0  0  0
    8.2196   -2.2811   23.6806 H   0  0  0  0  0  0  0  0  0  0  0  0
    5.1378    1.0079   20.0554 C   0  0  0  0  0  0  0  0  0  0  0  0
    4.5856    1.1047   20.9945 H   0  0  0  0  0  0  0  0  0  0  0  0
    4.5934    1.5189   18.8676 C   0  0  0  0  0  0  0  0  0  0  0  0
    3.6272    2.0154   18.8382 H   0  0  0  0  0  0  0  0  0  0  0  0
  1  2  1  0
  2  3  2  0
  3  4  1  0
  4  5  1  0
  4  6  2  0
  6  7  1  0
  7  8  1  1
  7  9  1  0
  9 10  1  0
  9 11  1  0
  9 12  1  0
 12 13  1  0
 12 14  1  0
 14 15  2  0
 14 16  1  0
 16 17  1  6
 16 18  1  0
 18 19  2  0
 19 20  1  0
 19 21  1  0
 21 22  2  0
 22 23  1  0
 22 24  1  0
 24 25  1  0
 25 26  1  0
 26 27  1  0
 26 28  1  0
 26 29  1  0
 24 30  2  0
 30 31  1  0
  6 32  1  0
 32 33  1  0
 32 34  2  0
 34 35  1  0
 34  2  1  0
 16  7  1  0
 30 18  1  0
M  END
>  <cnnaffinity>  (1) 
-4.93239

>  <filename>  (1) 
COc1cncc([C@@H]2C(=O)NC[C@H]2c2cccnc2)c1

$$$$
