
     RDKit          3D

 32 34  0  0  0  0  0  0  0  0999 V2000
    4.9289    1.7916   16.9980 H   0  0  0  0  0  0  0  0  0  0  0  0
    5.3977    1.2901   17.8386 C   0  0  0  0  0  0  0  0  0  0  0  0
    6.5548    0.6634   17.5732 N   0  0  0  0  0  0  0  0  0  0  0  0
    7.1725    0.0444   18.5855 C   0  0  0  0  0  0  0  0  0  0  0  0
    8.1262   -0.4330   18.3622 H   0  0  0  0  0  0  0  0  0  0  0  0
    6.6523   -0.0017   19.8967 C   0  0  0  0  0  0  0  0  0  0  0  0
    7.3371   -0.6850   20.9495 N   0  0  0  0  0  0  0  0  0  0  0  0
    6.7490   -1.6063   21.8041 C   0  0  0  0  0  0  0  0  0  0  0  0
    5.6948   -1.8211   21.7312 H   0  0  0  0  0  0  0  0  0  0  0  0
    7.6919   -2.0537   22.6660 C   0  0  0  0  0  0  0  0  0  0  0  0
    7.5789   -3.0081   23.7805 C   0  0  0  0  0  0  0  0  0  0  0  0
    6.4733   -3.8823   23.8246 C   0  0  0  0  0  0  0  0  0  0  0  0
    5.7334   -3.8582   23.0409 H   0  0  0  0  0  0  0  0  0  0  0  0
    6.3430   -4.7701   24.8769 C   0  0  0  0  0  0  0  0  0  0  0  0
    5.4882   -5.4462   24.9173 H   0  0  0  0  0  0  0  0  0  0  0  0
    7.2243   -4.8615   25.8855 N   0  0  0  0  0  0  0  0  0  0  0  0
    8.2587   -4.0341   25.8346 C   0  0  0  0  0  0  0  0  0  0  0  0
    9.1913   -4.0556   26.7974 O   0  0  0  0  0  0  0  0  0  0  0  0
    9.0815   -4.9844   27.8676 C   0  0  0  0  0  0  0  0  0  0  0  0
    9.9841   -4.7940   28.4485 H   0  0  0  0  0  0  0  0  0  0  0  0
    8.1683   -4.8046   28.4513 H   0  0  0  0  0  0  0  0  0  0  0  0
    9.0567   -6.0204   27.5089 H   0  0  0  0  0  0  0  0  0  0  0  0
    8.4903   -3.0912   24.8241 C   0  0  0  0  0  0  0  0  0  0  0  0
    9.3675   -2.4687   24.9313 H   0  0  0  0  0  0  0  0  0  0  0  0
    8.8553   -1.3835   22.3205 N   0  0  0  0  0  0  0  0  0  0  0  0
    9.7857   -1.4425   22.7024 H   0  0  0  0  0  0  0  0  0  0  0  0
    8.6599   -0.5134   21.3041 C   0  0  0  0  0  0  0  0  0  0  0  0
    9.8113    0.5325   20.7398 S   0  0  0  0  0  0  0  0  0  0  0  0
    5.4414    0.6456   20.1586 C   0  0  0  0  0  0  0  0  0  0  0  0
    5.0333    0.6315   21.1705 H   0  0  0  0  0  0  0  0  0  0  0  0
    4.8066    1.3107   19.1067 C   0  0  0  0  0  0  0  0  0  0  0  0
    3.8760    1.8443   19.2595 H   0  0  0  0  0  0  0  0  0  0  0  0
  1  2  1  0
  2  3  2  0
  3  4  1  0
  4  5  1  0
  4  6  2  0
  6  7  1  0
  7  8  1  0
  8  9  1  0
  8 10  2  0
 10 11  1  0
 11 12  2  0
 12 13  1  0
 12 14  1  0
 14 15  1  0
 14 16  2  0
 16 17  1  0
 17 18  1  0
 18 19  1  0
 19 20  1  0
 19 21  1  0
 19 22  1  0
 17 23  2  0
 23 24  1  0
 10 25  1  0
 25 26  1  0
 25 27  1  0
 27 28  2  0
  6 29  1  0
 29 30  1  0
 29 31  2  0
 31 32  1  0
 31  2  1  0
 27  7  1  0
 23 11  1  0
M  END
>  <cnnaffinity>  (1) 
-5.42242

>  <filename>  (1) 
COc1cc(-c2cn(-c3cccnc3)c(=S)[nH]2)ccn1

$$$$
