
     RDKit          3D

 33 35  0  0  0  0  0  0  0  0999 V2000
    4.9322    1.7947   16.9974 H   0  0  0  0  0  0  0  0  0  0  0  0
    5.3986    1.2890   17.8372 C   0  0  0  0  0  0  0  0  0  0  0  0
    6.5542    0.6596   17.5732 N   0  0  0  0  0  0  0  0  0  0  0  0
    7.1730    0.0421   18.5853 C   0  0  0  0  0  0  0  0  0  0  0  0
    8.1249   -0.4337   18.3597 H   0  0  0  0  0  0  0  0  0  0  0  0
    6.6520   -0.0027   19.8947 C   0  0  0  0  0  0  0  0  0  0  0  0
    7.3272   -0.6890   20.9536 N   0  0  0  0  0  0  0  0  0  0  0  0
    6.7300   -1.6179   21.7962 C   0  0  0  0  0  0  0  0  0  0  0  0
    5.6714   -1.8145   21.7177 H   0  0  0  0  0  0  0  0  0  0  0  0
    7.6653   -2.0773   22.6637 C   0  0  0  0  0  0  0  0  0  0  0  0
    7.5504   -3.0325   23.7754 C   0  0  0  0  0  0  0  0  0  0  0  0
    8.4727   -3.0862   24.8401 C   0  0  0  0  0  0  0  0  0  0  0  0
    9.3127   -2.4016   24.8618 H   0  0  0  0  0  0  0  0  0  0  0  0
    8.3033   -3.9978   25.8798 C   0  0  0  0  0  0  0  0  0  0  0  0
    9.0260   -4.0347   26.6930 H   0  0  0  0  0  0  0  0  0  0  0  0
    7.2095   -4.8765   25.8923 C   0  0  0  0  0  0  0  0  0  0  0  0
    7.0709   -5.5910   26.6989 H   0  0  0  0  0  0  0  0  0  0  0  0
    6.2873   -4.8201   24.8392 C   0  0  0  0  0  0  0  0  0  0  0  0
    5.1835   -5.6058   24.7264 O   0  0  0  0  0  0  0  0  0  0  0  0
    4.8978   -6.5695   25.7206 C   0  0  0  0  0  0  0  0  0  0  0  0
    4.7420   -6.1048   26.7053 H   0  0  0  0  0  0  0  0  0  0  0  0
    3.9758   -7.0524   25.3887 H   0  0  0  0  0  0  0  0  0  0  0  0
    5.7009   -7.3153   25.8058 H   0  0  0  0  0  0  0  0  0  0  0  0
    6.4601   -3.9064   23.7940 C   0  0  0  0  0  0  0  0  0  0  0  0
    5.7195   -3.9013   23.0027 H   0  0  0  0  0  0  0  0  0  0  0  0
    8.8343   -1.4000   22.3308 N   0  0  0  0  0  0  0  0  0  0  0  0
    9.7587   -1.4608   22.7109 H   0  0  0  0  0  0  0  0  0  0  0  0
    8.6453   -0.5196   21.3184 C   0  0  0  0  0  0  0  0  0  0  0  0
    9.8099    0.5227   20.7736 S   0  0  0  0  0  0  0  0  0  0  0  0
    5.4419    0.6463   20.1569 C   0  0  0  0  0  0  0  0  0  0  0  0
    5.0361    0.6322   21.1724 H   0  0  0  0  0  0  0  0  0  0  0  0
    4.8066    1.3108   19.1053 C   0  0  0  0  0  0  0  0  0  0  0  0
    3.8751    1.8449   19.2585 H   0  0  0  0  0  0  0  0  0  0  0  0
  1  2  1  0
  2  3  2  0
  3  4  1  0
  4  5  1  0
  4  6  2  0
  6  7  1  0
  7  8  1  0
  8  9  1  0
  8 10  2  0
 10 11  1  0
 11 12  2  0
 12 13  1  0
 12 14  1  0
 14 15  1  0
 14 16  2  0
 16 17  1  0
 16 18  1  0
 18 19  1  0
 19 20  1  0
 20 21  1  0
 20 22  1  0
 20 23  1  0
 18 24  2  0
 24 25  1  0
 10 26  1  0
 26 27  1  0
 26 28  1  0
 28 29  2  0
  6 30  1  0
 30 31  1  0
 30 32  2  0
 32 33  1  0
 32  2  1  0
 28  7  1  0
 24 11  1  0
M  END
>  <cnnaffinity>  (1) 
-5.43636

>  <filename>  (1) 
COc1cccc(-c2cn(-c3cccnc3)c(=S)[nH]2)c1

$$$$
