
     RDKit          3D

 34 36  0  0  0  0  0  0  0  0999 V2000
    4.9109    1.8058   16.9737 H   0  0  0  0  0  0  0  0  0  0  0  0
    5.3849    1.3068   17.8184 C   0  0  0  0  0  0  0  0  0  0  0  0
    6.5485    0.6897   17.5523 N   0  0  0  0  0  0  0  0  0  0  0  0
    7.1567    0.0663   18.5676 C   0  0  0  0  0  0  0  0  0  0  0  0
    8.1141   -0.3968   18.3276 H   0  0  0  0  0  0  0  0  0  0  0  0
    6.6541    0.0169   19.8862 C   0  0  0  0  0  0  0  0  0  0  0  0
    7.3740   -0.6484   20.9793 C   0  0  0  0  0  0  0  0  0  0  0  0
    7.5165   -0.3188   22.3255 C   0  0  0  0  0  0  0  0  0  0  0  0
    7.0349    0.8383   22.9474 N   0  0  0  0  0  0  0  0  0  0  0  0
    6.9811    1.6512   22.3538 H   0  0  0  0  0  0  0  0  0  0  0  0
    6.8168    1.0230   24.3091 C   0  0  0  0  0  0  0  0  0  0  0  0
    6.3509   -0.0190   25.1127 C   0  0  0  0  0  0  0  0  0  0  0  0
    6.1754   -0.9708   24.6281 H   0  0  0  0  0  0  0  0  0  0  0  0
    6.1351    0.1641   26.4831 C   0  0  0  0  0  0  0  0  0  0  0  0
    5.7860   -0.6697   27.0823 H   0  0  0  0  0  0  0  0  0  0  0  0
    6.3682    1.4075   27.0860 C   0  0  0  0  0  0  0  0  0  0  0  0
    6.1844    1.6909   28.4000 O   0  0  0  0  0  0  0  0  0  0  0  0
    5.7314    0.6850   29.2929 C   0  0  0  0  0  0  0  0  0  0  0  0
    6.4291   -0.1610   29.3528 H   0  0  0  0  0  0  0  0  0  0  0  0
    4.7366    0.3055   29.0203 H   0  0  0  0  0  0  0  0  0  0  0  0
    5.6761    1.1751   30.2666 H   0  0  0  0  0  0  0  0  0  0  0  0
    6.8236    2.4562   26.2443 C   0  0  0  0  0  0  0  0  0  0  0  0
    7.0497    3.6693   26.7777 F   0  0  0  0  0  0  0  0  0  0  0  0
    7.0352    2.2814   24.8871 C   0  0  0  0  0  0  0  0  0  0  0  0
    7.3924    3.1242   24.3049 H   0  0  0  0  0  0  0  0  0  0  0  0
    8.2916   -1.3739   22.8731 C   0  0  0  0  0  0  0  0  0  0  0  0
    8.6316   -1.4777   23.8972 H   0  0  0  0  0  0  0  0  0  0  0  0
    8.6032   -2.2853   21.9568 N   0  0  0  0  0  0  0  0  0  0  0  0
    8.0480   -1.8203   20.8281 N   0  0  0  0  0  0  0  0  0  0  0  0
    8.1279   -2.3648   19.9784 H   0  0  0  0  0  0  0  0  0  0  0  0
    5.4321    0.6629   20.1366 C   0  0  0  0  0  0  0  0  0  0  0  0
    5.0171    0.6285   21.1448 H   0  0  0  0  0  0  0  0  0  0  0  0
    4.7923    1.3195   19.0860 C   0  0  0  0  0  0  0  0  0  0  0  0
    3.8626    1.8497   19.2391 H   0  0  0  0  0  0  0  0  0  0  0  0
  1  2  1  0
  2  3  2  0
  3  4  1  0
  4  5  1  0
  4  6  2  0
  6  7  1  0
  7  8  2  0
  8  9  1  0
  9 10  1  0
  9 11  1  0
 11 12  2  0
 12 13  1  0
 12 14  1  0
 14 15  1  0
 14 16  2  0
 16 17  1  0
 17 18  1  0
 18 19  1  0
 18 20  1  0
 18 21  1  0
 16 22  1  0
 22 23  1  0
 22 24  2  0
 24 25  1  0
  8 26  1  0
 26 27  1  0
 26 28  2  0
 28 29  1  0
 29 30  1  0
  6 31  1  0
 31 32  1  0
 31 33  2  0
 33 34  1  0
 33  2  1  0
 29  7  1  0
 24 11  1  0
M  END
>  <cnnaffinity>  (1) 
-5.53759

>  <filename>  (1) 
COc1ccc(Nc2cn[nH]c2-c2cccnc2)cc1F

$$$$
