
     RDKit          3D

 37 39  0  0  0  0  0  0  0  0999 V2000
    4.9100    1.7795   16.9984 H   0  0  0  0  0  0  0  0  0  0  0  0
    5.3976    1.2937   17.8412 C   0  0  0  0  0  0  0  0  0  0  0  0
    6.5608    0.6752   17.5780 N   0  0  0  0  0  0  0  0  0  0  0  0
    7.1781    0.0575   18.5916 C   0  0  0  0  0  0  0  0  0  0  0  0
    8.1275   -0.4269   18.3783 H   0  0  0  0  0  0  0  0  0  0  0  0
    6.6674    0.0028   19.9067 C   0  0  0  0  0  0  0  0  0  0  0  0
    7.3590   -0.6816   20.9481 N   0  0  0  0  0  0  0  0  0  0  0  0
    6.7671   -1.4438   21.9498 C   0  0  0  0  0  0  0  0  0  0  0  0
    5.7007   -1.5967   21.9838 H   0  0  0  0  0  0  0  0  0  0  0  0
    7.7336   -1.9358   22.7583 C   0  0  0  0  0  0  0  0  0  0  0  0
    7.6126   -2.7844   23.9475 C   0  0  0  0  0  0  0  0  0  0  0  0
    8.6774   -3.5528   24.4192 C   0  0  0  0  0  0  0  0  0  0  0  0
    9.6373   -3.5363   23.9048 H   0  0  0  0  0  0  0  0  0  0  0  0
    8.5125   -4.3630   25.5479 C   0  0  0  0  0  0  0  0  0  0  0  0
    9.3630   -4.9432   25.8876 H   0  0  0  0  0  0  0  0  0  0  0  0
    7.2884   -4.4303   26.2305 C   0  0  0  0  0  0  0  0  0  0  0  0
    7.0700   -5.1986   27.3335 O   0  0  0  0  0  0  0  0  0  0  0  0
    8.0934   -6.0090   27.8886 C   0  0  0  0  0  0  0  0  0  0  0  0
    7.6487   -6.5107   28.7506 H   0  0  0  0  0  0  0  0  0  0  0  0
    8.9510   -5.4204   28.2388 H   0  0  0  0  0  0  0  0  0  0  0  0
    8.4436   -6.7772   27.1881 H   0  0  0  0  0  0  0  0  0  0  0  0
    6.1794   -3.6436   25.7471 C   0  0  0  0  0  0  0  0  0  0  0  0
    5.0013   -3.7342   26.4316 O   0  0  0  0  0  0  0  0  0  0  0  0
    3.8505   -3.0034   26.0412 C   0  0  0  0  0  0  0  0  0  0  0  0
    4.0035   -1.9177   26.0926 H   0  0  0  0  0  0  0  0  0  0  0  0
    3.4987   -3.2786   25.0386 H   0  0  0  0  0  0  0  0  0  0  0  0
    3.0695   -3.2682   26.7577 H   0  0  0  0  0  0  0  0  0  0  0  0
    6.3694   -2.8438   24.6207 C   0  0  0  0  0  0  0  0  0  0  0  0
    5.5501   -2.2319   24.2512 H   0  0  0  0  0  0  0  0  0  0  0  0
    8.9386   -1.4762   22.2303 N   0  0  0  0  0  0  0  0  0  0  0  0
    9.8668   -1.5953   22.5855 H   0  0  0  0  0  0  0  0  0  0  0  0
    8.7526   -0.6787   21.1315 C   0  0  0  0  0  0  0  0  0  0  0  0
    9.6064   -0.1141   20.4784 O   0  0  0  0  0  0  0  0  0  0  0  0
    5.4477    0.6440   20.1627 C   0  0  0  0  0  0  0  0  0  0  0  0
    5.0182    0.6307   21.1664 H   0  0  0  0  0  0  0  0  0  0  0  0
    4.8094    1.3101   19.1109 C   0  0  0  0  0  0  0  0  0  0  0  0
    3.8753    1.8425   19.2652 H   0  0  0  0  0  0  0  0  0  0  0  0
  1  2  1  0
  2  3  2  0
  3  4  1  0
  4  5  1  0
  4  6  2  0
  6  7  1  0
  7  8  1  0
  8  9  1  0
  8 10  2  0
 10 11  1  0
 11 12  2  0
 12 13  1  0
 12 14  1  0
 14 15  1  0
 14 16  2  0
 16 17  1  0
 17 18  1  0
 18 19  1  0
 18 20  1  0
 18 21  1  0
 16 22  1  0
 22 23  1  0
 23 24  1  0
 24 25  1  0
 24 26  1  0
 24 27  1  0
 22 28  2  0
 28 29  1  0
 10 30  1  0
 30 31  1  0
 30 32  1  0
 32 33  2  0
  6 34  1  0
 34 35  1  0
 34 36  2  0
 36 37  1  0
 36  2  1  0
 32  7  1  0
 28 11  1  0
M  END
>  <cnnaffinity>  (1) 
-5.34985

>  <filename>  (1) 
COc1ccc(-c2cn(-c3cccnc3)c(=O)[nH]2)cc1OC

$$$$
