
     RDKit          3D

 38 40  0  0  0  0  0  0  0  0999 V2000
    4.9450    1.8152   16.9839 H   0  0  0  0  0  0  0  0  0  0  0  0
    5.3937    1.2905   17.8244 C   0  0  0  0  0  0  0  0  0  0  0  0
    6.5453    0.6535   17.5776 N   0  0  0  0  0  0  0  0  0  0  0  0
    7.1413    0.0423   18.6069 C   0  0  0  0  0  0  0  0  0  0  0  0
    8.0976   -0.4333   18.3956 H   0  0  0  0  0  0  0  0  0  0  0  0
    6.6130   -0.0013   19.9085 C   0  0  0  0  0  0  0  0  0  0  0  0
    7.3231   -0.7352   20.9837 C   0  0  0  0  0  0  0  0  0  0  0  0
    6.5995   -1.5159   21.7566 N   0  0  0  0  0  0  0  0  0  0  0  0
    7.1863   -2.2118   22.8031 C   0  0  0  0  0  0  0  0  0  0  0  0
    6.2738   -3.0514   23.6521 C   0  0  0  0  0  0  0  0  0  0  0  0
    5.1011   -3.6064   23.1178 C   0  0  0  0  0  0  0  0  0  0  0  0
    4.8411   -3.3888   22.0846 H   0  0  0  0  0  0  0  0  0  0  0  0
    4.2723   -4.4153   23.9069 C   0  0  0  0  0  0  0  0  0  0  0  0
    3.3711   -4.8455   23.4846 H   0  0  0  0  0  0  0  0  0  0  0  0
    4.5904   -4.6922   25.2391 C   0  0  0  0  0  0  0  0  0  0  0  0
    3.8424   -5.4455   26.0850 O   0  0  0  0  0  0  0  0  0  0  0  0
    2.6522   -6.0501   25.6374 C   0  0  0  0  0  0  0  0  0  0  0  0
    1.9136   -5.3030   25.3184 H   0  0  0  0  0  0  0  0  0  0  0  0
    2.8428   -6.7531   24.8164 H   0  0  0  0  0  0  0  0  0  0  0  0
    2.2584   -6.5988   26.4942 H   0  0  0  0  0  0  0  0  0  0  0  0
    5.7952   -4.1562   25.7853 C   0  0  0  0  0  0  0  0  0  0  0  0
    6.0786   -4.5158   27.0639 O   0  0  0  0  0  0  0  0  0  0  0  0
    7.2559   -4.0282   27.6534 C   0  0  0  0  0  0  0  0  0  0  0  0
    8.1405   -4.3901   27.1176 H   0  0  0  0  0  0  0  0  0  0  0  0
    7.2590   -4.4104   28.6748 H   0  0  0  0  0  0  0  0  0  0  0  0
    7.2612   -2.9290   27.6653 H   0  0  0  0  0  0  0  0  0  0  0  0
    6.5957   -3.3253   25.0006 C   0  0  0  0  0  0  0  0  0  0  0  0
    7.4712   -2.8764   25.4662 H   0  0  0  0  0  0  0  0  0  0  0  0
    8.5413   -2.1451   23.0366 C   0  0  0  0  0  0  0  0  0  0  0  0
    9.0465   -2.7045   23.8220 H   0  0  0  0  0  0  0  0  0  0  0  0
    9.3178   -1.3491   22.2234 N   0  0  0  0  0  0  0  0  0  0  0  0
   10.3168   -1.1740   22.3177 H   0  0  0  0  0  0  0  0  0  0  0  0
    8.8262   -0.5754   21.1781 C   0  0  0  0  0  0  0  0  0  0  0  0
    9.6353    0.1139   20.5755 O   0  0  0  0  0  0  0  0  0  0  0  0
    5.3871    0.6455   20.1403 C   0  0  0  0  0  0  0  0  0  0  0  0
    4.9309    0.6260   21.1318 H   0  0  0  0  0  0  0  0  0  0  0  0
    4.7773    1.3174   19.0807 C   0  0  0  0  0  0  0  0  0  0  0  0
    3.8558    1.8735   19.2184 H   0  0  0  0  0  0  0  0  0  0  0  0
  1  2  1  0
  2  3  2  0
  3  4  1  0
  4  5  1  0
  4  6  2  0
  6  7  1  0
  7  8  2  0
  8  9  1  0
  9 10  1  0
 10 11  2  0
 11 12  1  0
 11 13  1  0
 13 14  1  0
 13 15  2  0
 15 16  1  0
 16 17  1  0
 17 18  1  0
 17 19  1  0
 17 20  1  0
 15 21  1  0
 21 22  1  0
 22 23  1  0
 23 24  1  0
 23 25  1  0
 23 26  1  0
 21 27  2  0
 27 28  1  0
  9 29  2  0
 29 30  1  0
 29 31  1  0
 31 32  1  0
 31 33  1  0
 33 34  2  0
  6 35  1  0
 35 36  1  0
 35 37  2  0
 37 38  1  0
 37  2  1  0
 33  7  1  0
 27 10  1  0
M  END
>  <cnnaffinity>  (1) 
-5.28412

>  <filename>  (1) 
COc1ccc(-c2c[nH]c(=O)c(-c3cccnc3)n2)cc1OC

$$$$
