
     RDKit          3D

 34 36  0  0  0  0  0  0  0  0999 V2000
    4.9603    1.8732   16.9473 H   0  0  0  0  0  0  0  0  0  0  0  0
    5.4160    1.3423   17.7816 C   0  0  0  0  0  0  0  0  0  0  0  0
    6.5773    0.7184   17.5253 N   0  0  0  0  0  0  0  0  0  0  0  0
    7.1646    0.0621   18.5338 C   0  0  0  0  0  0  0  0  0  0  0  0
    8.1125   -0.4250   18.3069 H   0  0  0  0  0  0  0  0  0  0  0  0
    6.6109   -0.0393   19.8271 C   0  0  0  0  0  0  0  0  0  0  0  0
    7.2910   -0.7439   20.8869 N   0  0  0  0  0  0  0  0  0  0  0  0
    8.5389   -0.2929   21.2380 C   0  0  0  0  0  0  0  0  0  0  0  0
    8.8954    0.5652   20.6771 H   0  0  0  0  0  0  0  0  0  0  0  0
    9.3046   -0.8736   22.2033 C   0  0  0  0  0  0  0  0  0  0  0  0
   10.6767   -0.3622   22.4158 C   0  0  0  0  0  0  0  0  0  0  0  0
   11.7958   -1.2142   22.4264 C   0  0  0  0  0  0  0  0  0  0  0  0
   11.6760   -2.2849   22.3392 H   0  0  0  0  0  0  0  0  0  0  0  0
   13.0563   -0.6547   22.5753 C   0  0  0  0  0  0  0  0  0  0  0  0
   13.9456   -1.2812   22.6678 H   0  0  0  0  0  0  0  0  0  0  0  0
   13.2702    0.6632   22.6795 N   0  0  0  0  0  0  0  0  0  0  0  0
   12.2046    1.4566   22.6584 C   0  0  0  0  0  0  0  0  0  0  0  0
   12.3619    2.7928   22.7206 O   0  0  0  0  0  0  0  0  0  0  0  0
   13.6382    3.2788   23.1219 C   0  0  0  0  0  0  0  0  0  0  0  0
   13.5455    4.3473   23.3215 H   0  0  0  0  0  0  0  0  0  0  0  0
   13.9377    2.7361   24.0151 H   0  0  0  0  0  0  0  0  0  0  0  0
   14.3981    3.0978   22.3581 H   0  0  0  0  0  0  0  0  0  0  0  0
   10.8839    1.0000   22.5661 C   0  0  0  0  0  0  0  0  0  0  0  0
   10.0567    1.6949   22.6408 H   0  0  0  0  0  0  0  0  0  0  0  0
    8.7457   -1.9509   22.9571 C   0  0  0  0  0  0  0  0  0  0  0  0
    9.3272   -2.3993   23.7641 H   0  0  0  0  0  0  0  0  0  0  0  0
    7.4904   -2.3977   22.6709 C   0  0  0  0  0  0  0  0  0  0  0  0
    7.0175   -3.2190   23.1889 H   0  0  0  0  0  0  0  0  0  0  0  0
    6.6756   -1.8429   21.5920 C   0  0  0  0  0  0  0  0  0  0  0  0
    5.5827   -2.2838   21.2835 O   0  0  0  0  0  0  0  0  0  0  0  0
    5.4129    0.6294   20.0853 C   0  0  0  0  0  0  0  0  0  0  0  0
    4.9932    0.5973   21.0893 H   0  0  0  0  0  0  0  0  0  0  0  0
    4.8041    1.3283   19.0389 C   0  0  0  0  0  0  0  0  0  0  0  0
    3.8796    1.8709   19.1903 H   0  0  0  0  0  0  0  0  0  0  0  0
  1  2  1  0
  2  3  2  0
  3  4  1  0
  4  5  1  0
  4  6  2  0
  6  7  1  0
  7  8  1  0
  8  9  1  0
  8 10  2  0
 10 11  1  0
 11 12  2  0
 12 13  1  0
 12 14  1  0
 14 15  1  0
 14 16  2  0
 16 17  1  0
 17 18  1  0
 18 19  1  0
 19 20  1  0
 19 21  1  0
 19 22  1  0
 17 23  2  0
 23 24  1  0
 10 25  1  0
 25 26  1  0
 25 27  2  0
 27 28  1  0
 27 29  1  0
 29 30  2  0
  6 31  1  0
 31 32  1  0
 31 33  2  0
 33 34  1  0
 33  2  1  0
 29  7  1  0
 23 11  1  0
M  END
>  <cnnaffinity>  (1) 
-5.04458

>  <filename>  (1) 
COc1cc(-c2ccc(=O)n(-c3cccnc3)c2)ccn1

$$$$
