
     RDKit          3D

 39 41  0  0  0  0  0  0  0  0999 V2000
    4.9184    1.8059   16.9726 H   0  0  0  0  0  0  0  0  0  0  0  0
    5.3879    1.3049   17.8183 C   0  0  0  0  0  0  0  0  0  0  0  0
    6.5500    0.6839   17.5594 N   0  0  0  0  0  0  0  0  0  0  0  0
    7.1567    0.0703   18.5842 C   0  0  0  0  0  0  0  0  0  0  0  0
    8.1015   -0.4188   18.3492 H   0  0  0  0  0  0  0  0  0  0  0  0
    6.6463    0.0065   19.8967 C   0  0  0  0  0  0  0  0  0  0  0  0
    7.3669   -0.7177   20.9773 C   0  0  0  0  0  0  0  0  0  0  0  0
    8.7796   -0.5693   21.1357 C   0  0  0  0  0  0  0  0  0  0  0  0
    9.3077    0.0992   20.4557 H   0  0  0  0  0  0  0  0  0  0  0  0
    9.4290   -1.2234   22.1345 C   0  0  0  0  0  0  0  0  0  0  0  0
   10.4917   -1.1530   22.3081 H   0  0  0  0  0  0  0  0  0  0  0  0
    8.7428   -2.1045   23.0712 C   0  0  0  0  0  0  0  0  0  0  0  0
    9.3260   -2.7012   23.9606 O   0  0  0  0  0  0  0  0  0  0  0  0
    7.3317   -2.2285   22.8601 N   0  0  0  0  0  0  0  0  0  0  0  0
    6.5543   -3.0559   23.7496 C   0  0  0  0  0  0  0  0  0  0  0  0
    6.5694   -2.8193   25.1195 C   0  0  0  0  0  0  0  0  0  0  0  0
    7.1839   -2.0177   25.5086 H   0  0  0  0  0  0  0  0  0  0  0  0
    5.8196   -3.6328   25.9811 C   0  0  0  0  0  0  0  0  0  0  0  0
    5.8469   -3.4539   27.0515 H   0  0  0  0  0  0  0  0  0  0  0  0
    5.0548   -4.6928   25.4904 C   0  0  0  0  0  0  0  0  0  0  0  0
    4.3111   -5.5233   26.2686 O   0  0  0  0  0  0  0  0  0  0  0  0
    4.2752   -5.3634   27.6723 C   0  0  0  0  0  0  0  0  0  0  0  0
    5.2677   -5.4890   28.1273 H   0  0  0  0  0  0  0  0  0  0  0  0
    3.8682   -4.3854   27.9655 H   0  0  0  0  0  0  0  0  0  0  0  0
    3.6103   -6.1553   28.0206 H   0  0  0  0  0  0  0  0  0  0  0  0
    5.0357   -4.9348   24.0742 C   0  0  0  0  0  0  0  0  0  0  0  0
    4.2774   -5.9756   23.6436 O   0  0  0  0  0  0  0  0  0  0  0  0
    4.1795   -6.2869   22.2706 C   0  0  0  0  0  0  0  0  0  0  0  0
    3.7579   -5.4525   21.6988 H   0  0  0  0  0  0  0  0  0  0  0  0
    5.1500   -6.5695   21.8413 H   0  0  0  0  0  0  0  0  0  0  0  0
    3.4965   -7.1368   22.2291 H   0  0  0  0  0  0  0  0  0  0  0  0
    5.7792   -4.1018   23.2313 C   0  0  0  0  0  0  0  0  0  0  0  0
    5.7860   -4.2601   22.1597 H   0  0  0  0  0  0  0  0  0  0  0  0
    6.7022   -1.5405   21.8447 C   0  0  0  0  0  0  0  0  0  0  0  0
    5.6323   -1.6955   21.7668 H   0  0  0  0  0  0  0  0  0  0  0  0
    5.4254    0.6546   20.1368 C   0  0  0  0  0  0  0  0  0  0  0  0
    5.0037    0.6531   21.1423 H   0  0  0  0  0  0  0  0  0  0  0  0
    4.7921    1.3214   19.0850 C   0  0  0  0  0  0  0  0  0  0  0  0
    3.8605    1.8559   19.2328 H   0  0  0  0  0  0  0  0  0  0  0  0
  1  2  1  0
  2  3  2  0
  3  4  1  0
  4  5  1  0
  4  6  2  0
  6  7  1  0
  7  8  1  0
  8  9  1  0
  8 10  2  0
 10 11  1  0
 10 12  1  0
 12 13  2  0
 12 14  1  0
 14 15  1  0
 15 16  2  0
 16 17  1  0
 16 18  1  0
 18 19  1  0
 18 20  2  0
 20 21  1  0
 21 22  1  0
 22 23  1  0
 22 24  1  0
 22 25  1  0
 20 26  1  0
 26 27  1  0
 27 28  1  0
 28 29  1  0
 28 30  1  0
 28 31  1  0
 26 32  2  0
 32 33  1  0
 14 34  1  0
 34 35  1  0
  6 36  1  0
 36 37  1  0
 36 38  2  0
 38 39  1  0
 38  2  1  0
 34  7  2  0
 32 15  1  0
M  END
>  <cnnaffinity>  (1) 
-5.21076

>  <filename>  (1) 
COc1ccc(-n2cc(-c3cccnc3)ccc2=O)cc1OC

$$$$
