
     RDKit          3D

 36 38  0  0  0  0  0  0  0  0999 V2000
    9.3790    0.9198   20.2672 H   0  0  0  0  0  0  0  0  0  0  0  0
    9.6766    0.0647   20.8824 C   0  0  0  0  0  0  0  0  0  0  0  0
    8.7370   -0.8062   21.2958 C   0  0  0  0  0  0  0  0  0  0  0  0
    7.2803   -0.8175   20.9972 C   0  0  0  0  0  0  0  0  0  0  0  0
    6.6314   -0.0312   19.9245 C   0  0  0  0  0  0  0  0  0  0  0  0
    7.2132    0.0156   18.6537 C   0  0  0  0  0  0  0  0  0  0  0  0
    8.1620   -0.4871   18.4710 H   0  0  0  0  0  0  0  0  0  0  0  0
    6.6739    0.6528   17.6084 N   0  0  0  0  0  0  0  0  0  0  0  0
    5.5166    1.2985   17.8136 C   0  0  0  0  0  0  0  0  0  0  0  0
    5.0999    1.8110   16.9494 H   0  0  0  0  0  0  0  0  0  0  0  0
    4.8480    1.3165   19.0455 C   0  0  0  0  0  0  0  0  0  0  0  0
    3.9132    1.8632   19.1400 H   0  0  0  0  0  0  0  0  0  0  0  0
    5.4055    0.6244   20.1194 C   0  0  0  0  0  0  0  0  0  0  0  0
    4.9120    0.5829   21.0932 H   0  0  0  0  0  0  0  0  0  0  0  0
    6.5998   -1.5832   21.7645 N   0  0  0  0  0  0  0  0  0  0  0  0
    7.4825   -2.1914   22.7616 C   0  0  0  0  0  0  0  0  0  0  0  0
    7.2736   -3.2605   22.8303 H   0  0  0  0  0  0  0  0  0  0  0  0
    7.2317   -1.7581   23.7353 H   0  0  0  0  0  0  0  0  0  0  0  0
    8.9399   -1.8728   22.3525 C   0  0  0  0  0  0  0  0  0  0  0  0
    9.4277   -2.7538   21.9213 H   0  0  0  0  0  0  0  0  0  0  0  0
    9.5635   -1.5187   23.1793 H   0  0  0  0  0  0  0  0  0  0  0  0
   11.0901    0.0832   21.3395 C   0  0  0  0  0  0  0  0  0  0  0  0
   11.9036   -1.0648   21.3960 C   0  0  0  0  0  0  0  0  0  0  0  0
   11.5215   -2.0029   21.0044 H   0  0  0  0  0  0  0  0  0  0  0  0
   13.1913   -1.0025   21.9447 C   0  0  0  0  0  0  0  0  0  0  0  0
   13.8013   -1.9039   21.9822 H   0  0  0  0  0  0  0  0  0  0  0  0
   13.6883    0.1985   22.4499 C   0  0  0  0  0  0  0  0  0  0  0  0
   14.6644    0.2834   22.9197 H   0  0  0  0  0  0  0  0  0  0  0  0
   12.9133    1.3680   22.3324 C   0  0  0  0  0  0  0  0  0  0  0  0
   13.4941    2.5098   22.8035 O   0  0  0  0  0  0  0  0  0  0  0  0
   13.0741    3.7600   22.2907 C   0  0  0  0  0  0  0  0  0  0  0  0
   12.9536    3.7454   21.2004 H   0  0  0  0  0  0  0  0  0  0  0  0
   12.1320    4.0954   22.7382 H   0  0  0  0  0  0  0  0  0  0  0  0
   13.8549    4.4725   22.5549 H   0  0  0  0  0  0  0  0  0  0  0  0
   11.6252    1.3053   21.7933 C   0  0  0  0  0  0  0  0  0  0  0  0
   11.0117    2.2009   21.7996 H   0  0  0  0  0  0  0  0  0  0  0  0
  1  2  1  0
  2  3  2  3
  3  4  1  0
  4  5  1  0
  5  6  2  0
  6  7  1  0
  6  8  1  0
  8  9  2  0
  9 10  1  0
  9 11  1  0
 11 12  1  0
 11 13  2  0
 13 14  1  0
  4 15  2  0
 15 16  1  0
 16 17  1  0
 16 18  1  0
 16 19  1  0
 19 20  1  0
 19 21  1  0
  2 22  1  0
 22 23  2  0
 23 24  1  0
 23 25  1  0
 25 26  1  0
 25 27  2  0
 27 28  1  0
 27 29  1  0
 29 30  1  0
 30 31  1  0
 31 32  1  0
 31 33  1  0
 31 34  1  0
 29 35  2  0
 35 36  1  0
 19  3  1  0
 35 22  1  0
 13  5  1  0
M  END
>  <cnnaffinity>  (1) 
-6.0386

>  <filename>  (1) 
COc1cccc(C=C2CCN=C2c2cccnc2)c1

$$$$
