
     RDKit          3D

 32 35  0  0  0  0  0  0  0  0999 V2000
    5.0152    1.7985   16.8977 H   0  0  0  0  0  0  0  0  0  0  0  0
    5.4599    1.2741   17.7448 C   0  0  0  0  0  0  0  0  0  0  0  0
    6.5907    0.5932   17.4989 N   0  0  0  0  0  0  0  0  0  0  0  0
    7.1744   -0.0352   18.5235 C   0  0  0  0  0  0  0  0  0  0  0  0
    8.0879   -0.5784   18.2857 H   0  0  0  0  0  0  0  0  0  0  0  0
    6.6709   -0.0064   19.8380 C   0  0  0  0  0  0  0  0  0  0  0  0
    7.4172   -0.6773   20.9083 C   0  0  0  0  0  0  0  0  0  0  0  0
    8.3245   -1.6080   20.7530 N   0  0  0  0  0  0  0  0  0  0  0  0
    8.8041   -1.9880   21.9862 N   0  0  0  0  0  0  0  0  0  0  0  0
    8.1725   -1.2579   22.8670 C   0  0  0  0  0  0  0  0  0  0  0  0
    8.1796   -0.9587   24.5832 S   0  0  0  0  0  0  0  0  0  0  0  0
    6.9553    0.2933   24.2910 C   0  0  0  0  0  0  0  0  0  0  0  0
    6.2969    1.1151   25.3112 C   0  0  0  0  0  0  0  0  0  0  0  0
    6.7213    1.2100   26.6614 C   0  0  0  0  0  0  0  0  0  0  0  0
    7.7832    0.4957   27.0411 O   0  0  0  0  0  0  0  0  0  0  0  0
    8.0999    0.4206   28.4399 C   0  0  0  0  0  0  0  0  0  0  0  0
    7.2261    0.0961   29.0123 H   0  0  0  0  0  0  0  0  0  0  0  0
    8.4048    1.3899   28.8421 H   0  0  0  0  0  0  0  0  0  0  0  0
    8.9092   -0.3078   28.5310 H   0  0  0  0  0  0  0  0  0  0  0  0
    6.1075    1.9650   27.5634 N   0  0  0  0  0  0  0  0  0  0  0  0
    5.0278    2.6592   27.1996 C   0  0  0  0  0  0  0  0  0  0  0  0
    4.5518    3.2433   27.9886 H   0  0  0  0  0  0  0  0  0  0  0  0
    4.5100    2.6266   25.9125 C   0  0  0  0  0  0  0  0  0  0  0  0
    3.6122    3.1823   25.6685 H   0  0  0  0  0  0  0  0  0  0  0  0
    5.1588    1.8457   24.9567 C   0  0  0  0  0  0  0  0  0  0  0  0
    4.8085    1.7801   23.9259 H   0  0  0  0  0  0  0  0  0  0  0  0
    6.5932    0.4448   23.0456 N   0  0  0  0  0  0  0  0  0  0  0  0
    7.2808   -0.4206   22.2610 N   0  0  0  0  0  0  0  0  0  0  0  0
    5.4726    0.6793   20.0769 C   0  0  0  0  0  0  0  0  0  0  0  0
    5.0524    0.7056   21.0815 H   0  0  0  0  0  0  0  0  0  0  0  0
    4.8593    1.3259   19.0072 C   0  0  0  0  0  0  0  0  0  0  0  0
    3.9412    1.8853   19.1440 H   0  0  0  0  0  0  0  0  0  0  0  0
  1  2  1  0
  2  3  2  0
  3  4  1  0
  4  5  1  0
  4  6  2  0
  6  7  1  0
  7  8  2  0
  8  9  1  0
  9 10  2  0
 10 11  1  0
 11 12  1  0
 12 13  1  0
 13 14  2  0
 14 15  1  0
 15 16  1  0
 16 17  1  0
 16 18  1  0
 16 19  1  0
 14 20  1  0
 20 21  2  0
 21 22  1  0
 21 23  1  0
 23 24  1  0
 23 25  2  0
 25 26  1  0
 12 27  2  0
 27 28  1  0
  6 29  1  0
 29 30  1  0
 29 31  2  0
 31 32  1  0
 31  2  1  0
 28  7  1  0
 28 10  1  0
 25 13  1  0
M  END
>  <cnnaffinity>  (1) 
-5.21948

>  <filename>  (1) 
COc1ncccc1-c1nn2c(-c3cccnc3)nnc2s1

$$$$
