
     RDKit          3D

 35 37  0  0  0  0  0  0  0  0999 V2000
    4.9190    1.7971   16.9849 H   0  0  0  0  0  0  0  0  0  0  0  0
    5.3974    1.2975   17.8250 C   0  0  0  0  0  0  0  0  0  0  0  0
    6.5625    0.6858   17.5583 N   0  0  0  0  0  0  0  0  0  0  0  0
    7.1728    0.0701   18.5777 C   0  0  0  0  0  0  0  0  0  0  0  0
    8.1256   -0.4095   18.3423 H   0  0  0  0  0  0  0  0  0  0  0  0
    6.6624    0.0092   19.8860 C   0  0  0  0  0  0  0  0  0  0  0  0
    7.4011   -0.6902   21.0112 C   0  0  2  0  0  0  0  0  0  0  0  0
    8.1902   -1.3158   20.5775 H   0  0  0  0  0  0  0  0  0  0  0  0
    6.5196   -1.6569   21.8175 C   0  0  0  0  0  0  0  0  0  0  0  0
    5.8347   -2.5788   21.4260 O   0  0  0  0  0  0  0  0  0  0  0  0
    6.6649   -1.3392   23.1189 N   0  0  0  0  0  0  0  0  0  0  0  0
    6.1055   -1.8920   23.7465 H   0  0  0  0  0  0  0  0  0  0  0  0
    7.5610   -0.2607   23.4549 C   0  0  0  0  0  0  0  0  0  0  0  0
    7.0642    0.5104   24.0594 H   0  0  0  0  0  0  0  0  0  0  0  0
    8.4105   -0.6239   24.0539 H   0  0  0  0  0  0  0  0  0  0  0  0
    7.9958    0.2899   22.0670 C   0  0  1  0  0  0  0  0  0  0  0  0
    7.5328    1.2761   21.9369 H   0  0  0  0  0  0  0  0  0  0  0  0
    9.4928    0.4717   21.9288 C   0  0  0  0  0  0  0  0  0  0  0  0
   10.0537    1.7238   21.6056 C   0  0  0  0  0  0  0  0  0  0  0  0
    9.4197    2.5905   21.4306 H   0  0  0  0  0  0  0  0  0  0  0  0
   11.3675    1.9360   21.4973 N   0  0  0  0  0  0  0  0  0  0  0  0
   12.1952    0.9054   21.7223 C   0  0  0  0  0  0  0  0  0  0  0  0
   13.2566    1.1249   21.6482 H   0  0  0  0  0  0  0  0  0  0  0  0
   11.7525   -0.4001   21.9960 C   0  0  0  0  0  0  0  0  0  0  0  0
   12.5449   -1.4926   22.1607 O   0  0  0  0  0  0  0  0  0  0  0  0
   13.9558   -1.3933   22.0392 C   0  0  0  0  0  0  0  0  0  0  0  0
   14.3190   -2.4042   22.2214 H   0  0  0  0  0  0  0  0  0  0  0  0
   14.3857   -0.7063   22.7804 H   0  0  0  0  0  0  0  0  0  0  0  0
   14.2678   -1.0812   21.0349 H   0  0  0  0  0  0  0  0  0  0  0  0
   10.3699   -0.6057   22.1102 C   0  0  0  0  0  0  0  0  0  0  0  0
   10.0187   -1.6120   22.3432 H   0  0  0  0  0  0  0  0  0  0  0  0
    5.4454    0.6514   20.1408 C   0  0  0  0  0  0  0  0  0  0  0  0
    5.0176    0.6299   21.1470 H   0  0  0  0  0  0  0  0  0  0  0  0
    4.8066    1.3104   19.0912 C   0  0  0  0  0  0  0  0  0  0  0  0
    3.8779    1.8414   19.2455 H   0  0  0  0  0  0  0  0  0  0  0  0
  1  2  1  0
  2  3  2  0
  3  4  1  0
  4  5  1  0
  4  6  2  0
  6  7  1  0
  7  8  1  6
  7  9  1  0
  9 10  2  0
  9 11  1  0
 11 12  1  0
 11 13  1  0
 13 14  1  0
 13 15  1  0
 13 16  1  0
 16 17  1  6
 16 18  1  0
 18 19  2  0
 19 20  1  0
 19 21  1  0
 21 22  2  0
 22 23  1  0
 22 24  1  0
 24 25  1  0
 25 26  1  0
 26 27  1  0
 26 28  1  0
 26 29  1  0
 24 30  2  0
 30 31  1  0
  6 32  1  0
 32 33  1  0
 32 34  2  0
 34 35  1  0
 34  2  1  0
 16  7  1  0
 30 18  1  0
M  END
>  <cnnaffinity>  (1) 
-5.44873

>  <filename>  (1) 
COc1cncc([C@@H]2CNC(=O)[C@H]2c2cccnc2)c1

$$$$
