
     RDKit          3D

 38 40  0  0  0  0  0  0  0  0999 V2000
    4.9895    1.8858   16.9978 H   0  0  0  0  0  0  0  0  0  0  0  0
    5.4474    1.3171   17.8026 C   0  0  0  0  0  0  0  0  0  0  0  0
    6.6012    0.6975   17.5074 N   0  0  0  0  0  0  0  0  0  0  0  0
    7.1957    0.0147   18.4903 C   0  0  0  0  0  0  0  0  0  0  0  0
    8.1305   -0.4768   18.2378 H   0  0  0  0  0  0  0  0  0  0  0  0
    6.6758   -0.1063   19.7936 C   0  0  0  0  0  0  0  0  0  0  0  0
    7.4192   -0.7970   20.7989 N   0  0  0  0  0  0  0  0  0  0  0  0
    8.7566   -0.5021   21.1061 C   0  0  0  0  0  0  0  0  0  0  0  0
    9.2511    0.3748   20.7320 H   0  0  0  0  0  0  0  0  0  0  0  0
    9.1580   -1.3995   22.0256 C   0  0  0  0  0  0  0  0  0  0  0  0
   10.3345   -1.6611   22.7096 N   0  0  0  0  0  0  0  0  0  0  0  0
   10.1218   -1.6333   23.7013 H   0  0  0  0  0  0  0  0  0  0  0  0
   11.4595   -0.7832   22.3740 C   0  0  0  0  0  0  0  0  0  0  0  0
   12.3899   -1.2454   22.7308 H   0  0  0  0  0  0  0  0  0  0  0  0
   11.5616   -0.7636   21.2805 H   0  0  0  0  0  0  0  0  0  0  0  0
   11.3093    0.6403   22.8989 C   0  0  0  0  0  0  0  0  0  0  0  0
   11.5188    1.7246   22.0251 C   0  0  0  0  0  0  0  0  0  0  0  0
   11.8348    1.5290   21.0007 H   0  0  0  0  0  0  0  0  0  0  0  0
   11.3180    3.0404   22.4390 C   0  0  0  0  0  0  0  0  0  0  0  0
   11.4695    3.8791   21.7658 H   0  0  0  0  0  0  0  0  0  0  0  0
   10.8914    3.3219   23.7485 C   0  0  0  0  0  0  0  0  0  0  0  0
   10.6428    4.6501   23.9696 O   0  0  0  0  0  0  0  0  0  0  0  0
   10.6041    5.2376   25.2565 C   0  0  0  0  0  0  0  0  0  0  0  0
   10.2826    6.2695   25.0950 H   0  0  0  0  0  0  0  0  0  0  0  0
    9.8758    4.7448   25.9173 H   0  0  0  0  0  0  0  0  0  0  0  0
   11.6011    5.2715   25.7198 H   0  0  0  0  0  0  0  0  0  0  0  0
   10.6995    2.2527   24.6413 C   0  0  0  0  0  0  0  0  0  0  0  0
   10.3374    2.4193   25.6501 H   0  0  0  0  0  0  0  0  0  0  0  0
   10.9220    0.9298   24.2185 C   0  0  0  0  0  0  0  0  0  0  0  0
   10.7759    0.1314   24.9545 H   0  0  0  0  0  0  0  0  0  0  0  0
    8.0882   -2.2055   22.2942 N   0  0  0  0  0  0  0  0  0  0  0  0
    8.0912   -3.0337   22.8569 H   0  0  0  0  0  0  0  0  0  0  0  0
    7.0045   -1.8834   21.5420 C   0  0  0  0  0  0  0  0  0  0  0  0
    5.5698   -2.7182   21.5741 S   0  0  0  0  0  0  0  0  0  0  0  0
    5.4388    0.4871   20.0733 C   0  0  0  0  0  0  0  0  0  0  0  0
    4.9852    0.3597   21.0573 H   0  0  0  0  0  0  0  0  0  0  0  0
    4.8306    1.2390   19.0585 C   0  0  0  0  0  0  0  0  0  0  0  0
    3.8939    1.7623   19.2272 H   0  0  0  0  0  0  0  0  0  0  0  0
  1  2  1  0
  2  3  2  0
  3  4  1  0
  4  5  1  0
  4  6  2  0
  6  7  1  0
  7  8  1  0
  8  9  1  0
  8 10  2  0
 10 11  1  0
 11 12  1  0
 11 13  1  0
 13 14  1  0
 13 15  1  0
 13 16  1  0
 16 17  2  0
 17 18  1  0
 17 19  1  0
 19 20  1  0
 19 21  2  0
 21 22  1  0
 22 23  1  0
 23 24  1  0
 23 25  1  0
 23 26  1  0
 21 27  1  0
 27 28  1  0
 27 29  2  0
 29 30  1  0
 10 31  1  0
 31 32  1  0
 31 33  1  0
 33 34  2  0
  6 35  1  0
 35 36  1  0
 35 37  2  0
 37 38  1  0
 37  2  1  0
 33  7  1  0
 29 16  1  0
M  END
>  <cnnaffinity>  (1) 
-5.62121

>  <filename>  (1) 
COc1ccc(CNc2cn(-c3cccnc3)c(=S)[nH]2)cc1

$$$$
