
     RDKit          3D

 34 36  0  0  0  0  0  0  0  0999 V2000
    4.9255    1.8319   17.0003 H   0  0  0  0  0  0  0  0  0  0  0  0
    5.3950    1.3072   17.8295 C   0  0  0  0  0  0  0  0  0  0  0  0
    6.5530    0.6855   17.5537 N   0  0  0  0  0  0  0  0  0  0  0  0
    7.1654    0.0366   18.5558 C   0  0  0  0  0  0  0  0  0  0  0  0
    8.1138   -0.4472   18.3212 H   0  0  0  0  0  0  0  0  0  0  0  0
    6.6632   -0.0423   19.8789 C   0  0  0  0  0  0  0  0  0  0  0  0
    7.3291   -0.7461   20.8952 N   0  0  0  0  0  0  0  0  0  0  0  0
    6.7749   -1.0014   21.7053 H   0  0  0  0  0  0  0  0  0  0  0  0
    8.7243   -0.7265   21.1003 C   0  0  0  0  0  0  0  0  0  0  0  0
    9.7103    0.1998   20.6804 C   0  0  0  0  0  0  0  0  0  0  0  0
    9.5587    1.0830   20.0823 H   0  0  0  0  0  0  0  0  0  0  0  0
   10.9258   -0.1247   21.1128 N   0  0  0  0  0  0  0  0  0  0  0  0
   10.7286   -1.2500   21.8133 N   0  0  0  0  0  0  0  0  0  0  0  0
   11.5143   -1.7815   22.1641 H   0  0  0  0  0  0  0  0  0  0  0  0
    9.4356   -1.6639   21.8289 C   0  0  0  0  0  0  0  0  0  0  0  0
    8.9880   -2.8638   22.5266 C   0  0  0  0  0  0  0  0  0  0  0  0
    9.5787   -3.2495   23.7323 C   0  0  0  0  0  0  0  0  0  0  0  0
   10.3830   -2.6537   24.1505 H   0  0  0  0  0  0  0  0  0  0  0  0
    9.0918   -4.3446   24.4345 C   0  0  0  0  0  0  0  0  0  0  0  0
    9.5699   -4.6306   25.3652 H   0  0  0  0  0  0  0  0  0  0  0  0
    7.9731   -5.0521   23.9653 C   0  0  0  0  0  0  0  0  0  0  0  0
    7.3044   -5.9772   24.6787 O   0  0  0  0  0  0  0  0  0  0  0  0
    7.8478   -6.3790   25.9251 C   0  0  0  0  0  0  0  0  0  0  0  0
    8.7783   -6.9504   25.7864 H   0  0  0  0  0  0  0  0  0  0  0  0
    7.0824   -7.0105   26.3717 H   0  0  0  0  0  0  0  0  0  0  0  0
    8.0544   -5.5186   26.5695 H   0  0  0  0  0  0  0  0  0  0  0  0
    7.4583   -4.7229   22.6910 C   0  0  0  0  0  0  0  0  0  0  0  0
    6.4614   -5.4553   22.1634 F   0  0  0  0  0  0  0  0  0  0  0  0
    7.9372   -3.6306   21.9970 C   0  0  0  0  0  0  0  0  0  0  0  0
    7.4839   -3.3607   21.0530 H   0  0  0  0  0  0  0  0  0  0  0  0
    5.4461    0.6087   20.1363 C   0  0  0  0  0  0  0  0  0  0  0  0
    5.0344    0.5980   21.1438 H   0  0  0  0  0  0  0  0  0  0  0  0
    4.8051    1.2980   19.0983 C   0  0  0  0  0  0  0  0  0  0  0  0
    3.8732    1.8355   19.2601 H   0  0  0  0  0  0  0  0  0  0  0  0
  1  2  1  0
  2  3  2  0
  3  4  1  0
  4  5  1  0
  4  6  2  0
  6  7  1  0
  7  8  1  0
  7  9  1  0
  9 10  1  0
 10 11  1  0
 10 12  2  0
 12 13  1  0
 13 14  1  0
 13 15  1  0
 15 16  1  0
 16 17  2  0
 17 18  1  0
 17 19  1  0
 19 20  1  0
 19 21  2  0
 21 22  1  0
 22 23  1  0
 23 24  1  0
 23 25  1  0
 23 26  1  0
 21 27  1  0
 27 28  1  0
 27 29  2  0
 29 30  1  0
  6 31  1  0
 31 32  1  0
 31 33  2  0
 33 34  1  0
 33  2  1  0
 15  9  2  0
 29 16  1  0
M  END
>  <cnnaffinity>  (1) 
-5.71243

>  <filename>  (1) 
COc1ccc(-c2[nH]ncc2Nc2cccnc2)cc1F

$$$$
