
     RDKit          3D

 43 46  0  0  0  0  0  0  0  0999 V2000
    4.9132    1.8408   16.9506 H   0  0  0  0  0  0  0  0  0  0  0  0
    5.4011    1.3251   17.7746 C   0  0  0  0  0  0  0  0  0  0  0  0
    6.5588    0.7081   17.4930 N   0  0  0  0  0  0  0  0  0  0  0  0
    7.1803    0.0881   18.5020 C   0  0  0  0  0  0  0  0  0  0  0  0
    8.1153   -0.4096   18.2439 H   0  0  0  0  0  0  0  0  0  0  0  0
    6.7095    0.0416   19.8285 C   0  0  0  0  0  0  0  0  0  0  0  0
    7.4731   -0.6656   20.9254 C   0  0  1  0  0  0  0  0  0  0  0  0
    8.4094   -1.0481   20.5089 H   0  0  0  0  0  0  0  0  0  0  0  0
    7.8582    0.2702   22.1260 C   0  0  0  0  0  0  0  0  0  0  0  0
    7.3846    1.2562   22.0677 H   0  0  0  0  0  0  0  0  0  0  0  0
    8.9400    0.4278   22.1765 H   0  0  0  0  0  0  0  0  0  0  0  0
    7.3609   -0.4819   23.3184 C   0  0  0  0  0  0  0  0  0  0  0  0
    7.3121   -0.2221   24.6109 N   0  0  0  0  0  0  0  0  0  0  0  0
    6.6719   -1.3060   25.1167 N   0  0  0  0  0  0  0  0  0  0  0  0
    6.4429   -1.3283   26.1035 H   0  0  0  0  0  0  0  0  0  0  0  0
    6.3094   -2.2203   24.1687 C   0  0  0  0  0  0  0  0  0  0  0  0
    5.6286   -3.4946   24.4323 C   0  0  0  0  0  0  0  0  0  0  0  0
    4.7126   -4.0241   23.5165 C   0  0  0  0  0  0  0  0  0  0  0  0
    4.4015   -3.4377   22.6570 H   0  0  0  0  0  0  0  0  0  0  0  0
    4.1942   -5.3056   23.7053 C   0  0  0  0  0  0  0  0  0  0  0  0
    3.5296   -5.7260   22.9607 H   0  0  0  0  0  0  0  0  0  0  0  0
    4.5393   -6.0691   24.8347 C   0  0  0  0  0  0  0  0  0  0  0  0
    4.1276   -7.3622   25.0147 O   0  0  0  0  0  0  0  0  0  0  0  0
    3.1871   -7.9226   24.1190 C   0  0  0  0  0  0  0  0  0  0  0  0
    3.5819   -7.9706   23.0962 H   0  0  0  0  0  0  0  0  0  0  0  0
    2.2550   -7.3422   24.1200 H   0  0  0  0  0  0  0  0  0  0  0  0
    2.9876   -8.9344   24.4734 H   0  0  0  0  0  0  0  0  0  0  0  0
    5.3692   -5.4762   25.8348 C   0  0  0  0  0  0  0  0  0  0  0  0
    5.6612   -5.9597   27.0765 O   0  0  0  0  0  0  0  0  0  0  0  0
    5.6215   -7.3600   27.3170 C   0  0  0  0  0  0  0  0  0  0  0  0
    4.5960   -7.7150   27.4546 H   0  0  0  0  0  0  0  0  0  0  0  0
    6.2138   -7.5372   28.2203 H   0  0  0  0  0  0  0  0  0  0  0  0
    6.0469   -7.8762   26.4584 H   0  0  0  0  0  0  0  0  0  0  0  0
    5.9400   -4.2325   25.5787 C   0  0  0  0  0  0  0  0  0  0  0  0
    6.6780   -3.8637   26.2832 H   0  0  0  0  0  0  0  0  0  0  0  0
    6.7717   -1.6936   22.9827 C   0  0  0  0  0  0  0  0  0  0  0  0
    6.6954   -1.8963   21.5060 C   0  0  0  0  0  0  0  0  0  0  0  0
    7.1385   -2.8432   21.1765 H   0  0  0  0  0  0  0  0  0  0  0  0
    5.6495   -1.9161   21.1668 H   0  0  0  0  0  0  0  0  0  0  0  0
    5.4843    0.6747   20.0900 C   0  0  0  0  0  0  0  0  0  0  0  0
    5.0564    0.6678   21.0970 H   0  0  0  0  0  0  0  0  0  0  0  0
    4.8236    1.3237   19.0494 C   0  0  0  0  0  0  0  0  0  0  0  0
    3.8832    1.8364   19.2121 H   0  0  0  0  0  0  0  0  0  0  0  0
  1  2  1  0
  2  3  2  0
  3  4  1  0
  4  5  1  0
  4  6  2  0
  6  7  1  0
  7  8  1  6
  7  9  1  0
  9 10  1  0
  9 11  1  0
  9 12  1  0
 12 13  2  0
 13 14  1  0
 14 15  1  0
 14 16  1  0
 16 17  1  0
 17 18  2  0
 18 19  1  0
 18 20  1  0
 20 21  1  0
 20 22  2  0
 22 23  1  0
 23 24  1  0
 24 25  1  0
 24 26  1  0
 24 27  1  0
 22 28  1  0
 28 29  1  0
 29 30  1  0
 30 31  1  0
 30 32  1  0
 30 33  1  0
 28 34  2  0
 34 35  1  0
 16 36  2  0
 36 37  1  0
 37 38  1  0
 37 39  1  0
  6 40  1  0
 40 41  1  0
 40 42  2  0
 42 43  1  0
 42  2  1  0
 37  7  1  0
 36 12  1  0
 34 17  1  0
M  END
>  <cnnaffinity>  (1) 
-5.52169

>  <filename>  (1) 
COc1ccc(-c2[nH]nc3c2C[C@@H](c2cccnc2)C3)cc1OC

$$$$
