
     RDKit          3D

 35 37  0  0  0  0  0  0  0  0999 V2000
    7.0261    1.7461   22.1555 H   0  0  0  0  0  0  0  0  0  0  0  0
    7.2887    0.9221   22.8214 C   0  0  0  0  0  0  0  0  0  0  0  0
    7.5239   -0.3032   22.3216 C   0  0  0  0  0  0  0  0  0  0  0  0
    7.3802   -0.7622   20.9243 C   0  0  0  0  0  0  0  0  0  0  0  0
    6.6502    0.0087   19.9048 C   0  0  0  0  0  0  0  0  0  0  0  0
    7.1691    0.0527   18.6060 C   0  0  0  0  0  0  0  0  0  0  0  0
    8.1121   -0.4370   18.3795 H   0  0  0  0  0  0  0  0  0  0  0  0
    6.5702    0.6774   17.5898 N   0  0  0  0  0  0  0  0  0  0  0  0
    5.4039    1.2918   17.8437 C   0  0  0  0  0  0  0  0  0  0  0  0
    4.9271    1.7803   16.9969 H   0  0  0  0  0  0  0  0  0  0  0  0
    4.8016    1.3110   19.1059 C   0  0  0  0  0  0  0  0  0  0  0  0
    3.8713    1.8433   19.2525 H   0  0  0  0  0  0  0  0  0  0  0  0
    5.4338    0.6609   20.1638 C   0  0  0  0  0  0  0  0  0  0  0  0
    4.9978    0.6452   21.1672 H   0  0  0  0  0  0  0  0  0  0  0  0
    7.9466   -1.8860   20.6810 N   0  0  0  0  0  0  0  0  0  0  0  0
    8.5328   -2.4132   21.9161 C   0  0  0  0  0  0  0  0  0  0  0  0
    8.1505   -3.4207   22.0962 H   0  0  0  0  0  0  0  0  0  0  0  0
    9.6143   -2.4862   21.7774 H   0  0  0  0  0  0  0  0  0  0  0  0
    8.1757   -1.4441   23.0697 C   0  0  0  0  0  0  0  0  0  0  0  0
    7.4867   -1.9083   23.7841 H   0  0  0  0  0  0  0  0  0  0  0  0
    9.0461   -1.0977   23.6343 H   0  0  0  0  0  0  0  0  0  0  0  0
    7.4908    1.3332   24.2262 C   0  0  0  0  0  0  0  0  0  0  0  0
    8.1805    2.5280   24.5031 C   0  0  0  0  0  0  0  0  0  0  0  0
    8.5528    3.1394   23.6932 H   0  0  0  0  0  0  0  0  0  0  0  0
    8.4021    2.8809   25.8208 C   0  0  0  0  0  0  0  0  0  0  0  0
    8.9346    3.8003   26.0462 H   0  0  0  0  0  0  0  0  0  0  0  0
    7.9852    2.1735   26.8856 N   0  0  0  0  0  0  0  0  0  0  0  0
    7.3328    1.0539   26.6197 C   0  0  0  0  0  0  0  0  0  0  0  0
    6.8668    0.2735   27.6137 O   0  0  0  0  0  0  0  0  0  0  0  0
    7.0662    0.6422   28.9760 C   0  0  0  0  0  0  0  0  0  0  0  0
    6.5842   -0.1385   29.5624 H   0  0  0  0  0  0  0  0  0  0  0  0
    8.1274    0.6905   29.2377 H   0  0  0  0  0  0  0  0  0  0  0  0
    6.5957    1.5980   29.2188 H   0  0  0  0  0  0  0  0  0  0  0  0
    7.0584    0.5916   25.3184 C   0  0  0  0  0  0  0  0  0  0  0  0
    6.5074   -0.3248   25.1840 H   0  0  0  0  0  0  0  0  0  0  0  0
  1  2  1  0
  2  3  2  3
  3  4  1  0
  4  5  1  0
  5  6  2  0
  6  7  1  0
  6  8  1  0
  8  9  2  0
  9 10  1  0
  9 11  1  0
 11 12  1  0
 11 13  2  0
 13 14  1  0
  4 15  2  0
 15 16  1  0
 16 17  1  0
 16 18  1  0
 16 19  1  0
 19 20  1  0
 19 21  1  0
  2 22  1  0
 22 23  2  0
 23 24  1  0
 23 25  1  0
 25 26  1  0
 25 27  2  0
 27 28  1  0
 28 29  1  0
 29 30  1  0
 30 31  1  0
 30 32  1  0
 30 33  1  0
 28 34  2  0
 34 35  1  0
 19  3  1  0
 34 22  1  0
 13  5  1  0
M  END
>  <cnnaffinity>  (1) 
-5.84665

>  <filename>  (1) 
COc1cc(C=C2CCN=C2c2cccnc2)ccn1

$$$$
