
     RDKit          3D

 32 34  0  0  0  0  0  0  0  0999 V2000
    4.9219    1.8057   16.9662 H   0  0  0  0  0  0  0  0  0  0  0  0
    5.3937    1.3050   17.8147 C   0  0  0  0  0  0  0  0  0  0  0  0
    6.5584    0.6837   17.5668 N   0  0  0  0  0  0  0  0  0  0  0  0
    7.1711    0.0670   18.5853 C   0  0  0  0  0  0  0  0  0  0  0  0
    8.1061   -0.4228   18.3213 H   0  0  0  0  0  0  0  0  0  0  0  0
    6.6683    0.0117   19.8981 C   0  0  0  0  0  0  0  0  0  0  0  0
    7.3421   -0.7089   20.9837 C   0  0  0  0  0  0  0  0  0  0  0  0
    6.8310   -1.2419   22.1109 C   0  0  0  0  0  0  0  0  0  0  0  0
    5.8165   -1.3251   22.4307 H   0  0  0  0  0  0  0  0  0  0  0  0
    7.8543   -1.8026   22.8575 N   0  0  0  0  0  0  0  0  0  0  0  0
    7.6476   -2.4610   24.1130 C   0  0  0  0  0  0  0  0  0  0  0  0
    6.8213   -1.8909   25.1138 C   0  0  0  0  0  0  0  0  0  0  0  0
    6.3230   -0.9369   24.9575 H   0  0  0  0  0  0  0  0  0  0  0  0
    6.6355   -2.4632   26.3049 N   0  0  0  0  0  0  0  0  0  0  0  0
    7.2400   -3.6363   26.5544 C   0  0  0  0  0  0  0  0  0  0  0  0
    7.0709   -4.0738   27.5346 H   0  0  0  0  0  0  0  0  0  0  0  0
    8.0561   -4.2892   25.6072 C   0  0  0  0  0  0  0  0  0  0  0  0
    8.6873   -5.4712   25.7758 O   0  0  0  0  0  0  0  0  0  0  0  0
    8.5414   -6.2012   26.9772 C   0  0  0  0  0  0  0  0  0  0  0  0
    7.4906   -6.4148   27.2132 H   0  0  0  0  0  0  0  0  0  0  0  0
    9.0814   -7.1190   26.7604 H   0  0  0  0  0  0  0  0  0  0  0  0
    8.9920   -5.6768   27.8291 H   0  0  0  0  0  0  0  0  0  0  0  0
    8.2652   -3.6816   24.3623 C   0  0  0  0  0  0  0  0  0  0  0  0
    8.9202   -4.1614   23.6338 H   0  0  0  0  0  0  0  0  0  0  0  0
    9.0510   -1.6192   22.1884 C   0  0  0  0  0  0  0  0  0  0  0  0
   10.6225   -1.9885   22.5809 S   0  0  0  0  0  0  0  0  0  0  0  0
    8.6992   -0.9776   21.0420 N   0  0  0  0  0  0  0  0  0  0  0  0
    9.4407   -0.6700   20.4377 H   0  0  0  0  0  0  0  0  0  0  0  0
    5.4440    0.6645   20.1308 C   0  0  0  0  0  0  0  0  0  0  0  0
    5.0085    0.6659   21.1294 H   0  0  0  0  0  0  0  0  0  0  0  0
    4.8007    1.3206   19.0813 C   0  0  0  0  0  0  0  0  0  0  0  0
    3.8650    1.8519   19.2247 H   0  0  0  0  0  0  0  0  0  0  0  0
  1  2  1  0
  2  3  2  0
  3  4  1  0
  4  5  1  0
  4  6  2  0
  6  7  1  0
  7  8  2  0
  8  9  1  0
  8 10  1  0
 10 11  1  0
 11 12  2  0
 12 13  1  0
 12 14  1  0
 14 15  2  0
 15 16  1  0
 15 17  1  0
 17 18  1  0
 18 19  1  0
 19 20  1  0
 19 21  1  0
 19 22  1  0
 17 23  2  0
 23 24  1  0
 10 25  1  0
 25 26  2  0
 25 27  1  0
 27 28  1  0
  6 29  1  0
 29 30  1  0
 29 31  2  0
 31 32  1  0
 31  2  1  0
 27  7  1  0
 23 11  1  0
M  END
>  <cnnaffinity>  (1) 
-5.30106

>  <filename>  (1) 
COc1cncc(-n2cc(-c3cccnc3)[nH]c2=S)c1

$$$$
