
     RDKit          3D

 38 41  0  0  0  0  0  0  0  0999 V2000
    4.9240    1.7819   16.9965 H   0  0  0  0  0  0  0  0  0  0  0  0
    5.4033    1.2900   17.8393 C   0  0  0  0  0  0  0  0  0  0  0  0
    6.5670    0.6740   17.5761 N   0  0  0  0  0  0  0  0  0  0  0  0
    7.1706    0.0521   18.5915 C   0  0  0  0  0  0  0  0  0  0  0  0
    8.1186   -0.4326   18.3674 H   0  0  0  0  0  0  0  0  0  0  0  0
    6.6449    0.0139   19.8986 C   0  0  0  0  0  0  0  0  0  0  0  0
    7.3985   -0.6822   20.9411 C   0  0  0  0  0  0  0  0  0  0  0  0
    8.3163   -1.5903   20.7213 N   0  0  0  0  0  0  0  0  0  0  0  0
    8.8176   -2.0289   21.9274 N   0  0  0  0  0  0  0  0  0  0  0  0
    8.1918   -1.3424   22.8429 C   0  0  0  0  0  0  0  0  0  0  0  0
    8.2434   -1.1061   24.5715 S   0  0  0  0  0  0  0  0  0  0  0  0
    7.0157    0.1738   24.3626 C   0  0  0  0  0  0  0  0  0  0  0  0
    6.5507    0.8974   25.4198 N   0  0  0  0  0  0  0  0  0  0  0  0
    5.3852    1.7745   25.1972 C   0  0  0  0  0  0  0  0  0  0  0  0
    4.5537    1.1990   24.7724 H   0  0  0  0  0  0  0  0  0  0  0  0
    5.6539    2.5361   24.4515 H   0  0  0  0  0  0  0  0  0  0  0  0
    4.9321    2.4586   26.4903 C   0  0  0  0  0  0  0  0  0  0  0  0
    4.4292    1.7544   27.1619 H   0  0  0  0  0  0  0  0  0  0  0  0
    4.2033    3.2376   26.2574 H   0  0  0  0  0  0  0  0  0  0  0  0
    6.1172    3.0877   27.2022 C   0  0  0  0  0  0  0  0  0  0  0  0
    6.5378    3.8423   26.5179 H   0  0  0  0  0  0  0  0  0  0  0  0
    5.6531    3.7316   28.3794 O   0  0  0  0  0  0  0  0  0  0  0  0
    6.4615    4.8188   28.7789 C   0  0  0  0  0  0  0  0  0  0  0  0
    7.5246    4.5430   28.8751 H   0  0  0  0  0  0  0  0  0  0  0  0
    6.3948    5.6456   28.0535 H   0  0  0  0  0  0  0  0  0  0  0  0
    6.1041    5.1702   29.7509 H   0  0  0  0  0  0  0  0  0  0  0  0
    7.2133    2.0464   27.5150 C   0  0  0  0  0  0  0  0  0  0  0  0
    8.1902    2.4659   27.2619 H   0  0  0  0  0  0  0  0  0  0  0  0
    7.2207    1.8534   28.5903 H   0  0  0  0  0  0  0  0  0  0  0  0
    7.0285    0.7053   26.7959 C   0  0  0  0  0  0  0  0  0  0  0  0
    7.9773    0.1612   26.8073 H   0  0  0  0  0  0  0  0  0  0  0  0
    6.3062    0.0868   27.3467 H   0  0  0  0  0  0  0  0  0  0  0  0
    6.6012    0.3615   23.1410 N   0  0  0  0  0  0  0  0  0  0  0  0
    7.2718   -0.4960   22.3057 N   0  0  0  0  0  0  0  0  0  0  0  0
    5.4266    0.6542   20.1643 C   0  0  0  0  0  0  0  0  0  0  0  0
    5.0110    0.6432   21.1743 H   0  0  0  0  0  0  0  0  0  0  0  0
    4.8043    1.3068   19.1045 C   0  0  0  0  0  0  0  0  0  0  0  0
    3.8752    1.8421   19.2540 H   0  0  0  0  0  0  0  0  0  0  0  0
  1  2  1  0
  2  3  2  0
  3  4  1  0
  4  5  1  0
  4  6  2  0
  6  7  1  0
  7  8  2  0
  8  9  1  0
  9 10  2  0
 10 11  1  0
 11 12  1  0
 12 13  1  0
 13 14  1  0
 14 15  1  0
 14 16  1  0
 14 17  1  0
 17 18  1  0
 17 19  1  0
 17 20  1  0
 20 21  1  0
 20 22  1  0
 22 23  1  0
 23 24  1  0
 23 25  1  0
 23 26  1  0
 20 27  1  0
 27 28  1  0
 27 29  1  0
 27 30  1  0
 30 31  1  0
 30 32  1  0
 12 33  2  0
 33 34  1  0
  6 35  1  0
 35 36  1  0
 35 37  2  0
 37 38  1  0
 37  2  1  0
 34  7  1  0
 34 10  1  0
 30 13  1  0
M  END
>  <cnnaffinity>  (1) 
-5.08882

>  <filename>  (1) 
COC1CCN(c2nn3c(-c4cccnc4)nnc3s2)CC1

$$$$
