
     RDKit          3D

 31 32  0  0  0  0  0  0  0  0999 V2000
    4.9112    1.7876   16.9873 H   0  0  0  0  0  0  0  0  0  0  0  0
    5.3966    1.2987   17.8285 C   0  0  0  0  0  0  0  0  0  0  0  0
    6.5596    0.6831   17.5631 N   0  0  0  0  0  0  0  0  0  0  0  0
    7.1844    0.0827   18.5822 C   0  0  0  0  0  0  0  0  0  0  0  0
    8.1194   -0.4287   18.3637 H   0  0  0  0  0  0  0  0  0  0  0  0
    6.6720    0.0380   19.8914 C   0  0  0  0  0  0  0  0  0  0  0  0
    7.3565   -0.6634   20.9410 N   0  0  0  0  0  0  0  0  0  0  0  0
    8.6405   -0.2778   21.2717 C   0  0  0  0  0  0  0  0  0  0  0  0
    9.0328    0.5817   20.7233 H   0  0  0  0  0  0  0  0  0  0  0  0
    9.3587   -0.8979   22.2487 C   0  0  0  0  0  0  0  0  0  0  0  0
   10.7271   -0.3965   22.6456 C   0  0  0  0  0  0  0  0  0  0  0  0
   11.3382   -1.2458   22.9709 H   0  0  0  0  0  0  0  0  0  0  0  0
   11.2444    0.0622   21.7908 H   0  0  0  0  0  0  0  0  0  0  0  0
   10.6699    0.6144   23.7859 C   0  0  0  0  0  0  0  0  0  0  0  0
   11.6958    0.8716   24.1027 H   0  0  0  0  0  0  0  0  0  0  0  0
   10.1621    0.1596   24.6549 H   0  0  0  0  0  0  0  0  0  0  0  0
    9.9808    1.7699   23.3622 O   0  0  0  0  0  0  0  0  0  0  0  0
    9.8613    2.7109   24.4014 C   0  0  0  0  0  0  0  0  0  0  0  0
   10.8537    3.0211   24.7645 H   0  0  0  0  0  0  0  0  0  0  0  0
    9.3387    3.5876   24.0098 H   0  0  0  0  0  0  0  0  0  0  0  0
    9.2921    2.3105   25.2590 H   0  0  0  0  0  0  0  0  0  0  0  0
    8.7374   -1.9654   22.9751 C   0  0  0  0  0  0  0  0  0  0  0  0
    9.2952   -2.4381   23.7893 H   0  0  0  0  0  0  0  0  0  0  0  0
    7.4786   -2.3735   22.6642 C   0  0  0  0  0  0  0  0  0  0  0  0
    6.9655   -3.1870   23.1576 H   0  0  0  0  0  0  0  0  0  0  0  0
    6.6963   -1.7594   21.6059 C   0  0  0  0  0  0  0  0  0  0  0  0
    5.5879   -2.1489   21.2784 O   0  0  0  0  0  0  0  0  0  0  0  0
    5.4477    0.6594   20.1555 C   0  0  0  0  0  0  0  0  0  0  0  0
    5.0234    0.6084   21.1605 H   0  0  0  0  0  0  0  0  0  0  0  0
    4.8101    1.3160   19.0995 C   0  0  0  0  0  0  0  0  0  0  0  0
    3.8753    1.8416   19.2561 H   0  0  0  0  0  0  0  0  0  0  0  0
  1  2  1  0
  2  3  2  0
  3  4  1  0
  4  5  1  0
  4  6  2  0
  6  7  1  0
  7  8  1  0
  8  9  1  0
  8 10  2  0
 10 11  1  0
 11 12  1  0
 11 13  1  0
 11 14  1  0
 14 15  1  0
 14 16  1  0
 14 17  1  0
 17 18  1  0
 18 19  1  0
 18 20  1  0
 18 21  1  0
 10 22  1  0
 22 23  1  0
 22 24  2  0
 24 25  1  0
 24 26  1  0
 26 27  2  0
  6 28  1  0
 28 29  1  0
 28 30  2  0
 30 31  1  0
 30  2  1  0
 26  7  1  0
M  END
>  <cnnaffinity>  (1) 
-4.77296

>  <filename>  (1) 
COCCc1ccc(=O)n(-c2cccnc2)c1

$$$$
