
     RDKit          3D

 31 31  0  0  0  0  0  0  0  0999 V2000
    5.0439    1.8962   16.9012 H   0  0  0  0  0  0  0  0  0  0  0  0
    5.4903    1.3728   17.7436 C   0  0  0  0  0  0  0  0  0  0  0  0
    6.6458    0.7446   17.4908 N   0  0  0  0  0  0  0  0  0  0  0  0
    7.2183    0.0805   18.4957 C   0  0  0  0  0  0  0  0  0  0  0  0
    8.1599   -0.4185   18.2882 H   0  0  0  0  0  0  0  0  0  0  0  0
    6.6651   -0.0243   19.7796 C   0  0  0  0  0  0  0  0  0  0  0  0
    7.3472   -0.8661   20.7654 C   0  0  0  0  0  0  0  0  0  0  0  0
    8.6190   -1.0927   20.6231 N   0  0  0  0  0  0  0  0  0  0  0  0
    9.3139   -1.4818   21.7702 C   0  0  0  0  0  0  0  0  0  0  0  0
    8.9175   -1.4715   22.9247 O   0  0  0  0  0  0  0  0  0  0  0  0
   10.5635   -1.8738   21.4161 N   0  0  0  0  0  0  0  0  0  0  0  0
   10.6717   -1.6636   20.4386 H   0  0  0  0  0  0  0  0  0  0  0  0
   11.6552   -1.9924   22.3751 C   0  0  0  0  0  0  0  0  0  0  0  0
   11.7928   -3.0333   22.6880 H   0  0  0  0  0  0  0  0  0  0  0  0
   11.3688   -1.4337   23.2712 H   0  0  0  0  0  0  0  0  0  0  0  0
   12.9609   -1.4522   21.7820 C   0  0  0  0  0  0  0  0  0  0  0  0
   12.6811   -0.5461   21.2509 H   0  0  0  0  0  0  0  0  0  0  0  0
   13.3540   -2.1855   21.0721 H   0  0  0  0  0  0  0  0  0  0  0  0
   14.0086   -1.2095   22.6927 O   0  0  0  0  0  0  0  0  0  0  0  0
   14.1061    0.0960   23.2140 C   0  0  0  0  0  0  0  0  0  0  0  0
   13.1487    0.4871   23.5939 H   0  0  0  0  0  0  0  0  0  0  0  0
   14.7972    0.0348   24.0548 H   0  0  0  0  0  0  0  0  0  0  0  0
   14.5091    0.8043   22.4734 H   0  0  0  0  0  0  0  0  0  0  0  0
    6.4809   -1.4949   21.8297 C   0  0  0  0  0  0  0  0  0  0  0  0
    6.4184   -0.8232   22.6874 H   0  0  0  0  0  0  0  0  0  0  0  0
    5.4746   -1.7084   21.4631 H   0  0  0  0  0  0  0  0  0  0  0  0
    6.9337   -2.4199   22.1760 H   0  0  0  0  0  0  0  0  0  0  0  0
    5.4451    0.6341   20.0266 C   0  0  0  0  0  0  0  0  0  0  0  0
    4.9689    0.5877   21.0069 H   0  0  0  0  0  0  0  0  0  0  0  0
    4.8588    1.3546   18.9884 C   0  0  0  0  0  0  0  0  0  0  0  0
    3.9319    1.8953   19.1254 H   0  0  0  0  0  0  0  0  0  0  0  0
  1  2  1  0
  2  3  2  0
  3  4  1  0
  4  5  1  0
  4  6  2  0
  6  7  1  0
  7  8  2  3
  8  9  1  0
  9 10  2  0
  9 11  1  0
 11 12  1  0
 11 13  1  0
 13 14  1  0
 13 15  1  0
 13 16  1  0
 16 17  1  0
 16 18  1  0
 16 19  1  0
 19 20  1  0
 20 21  1  0
 20 22  1  0
 20 23  1  0
  7 24  1  0
 24 25  1  0
 24 26  1  0
 24 27  1  0
  6 28  1  0
 28 29  1  0
 28 30  2  0
 30 31  1  0
 30  2  1  0
M  END
>  <cnnaffinity>  (1) 
-4.88761

>  <filename>  (1) 
COCCNC(=O)N=C(C)c1cccnc1

$$$$
