
     RDKit          3D

 31 32  0  0  0  0  0  0  0  0999 V2000
    4.9882    1.8319   17.0224 H   0  0  0  0  0  0  0  0  0  0  0  0
    5.4507    1.2821   17.8369 C   0  0  0  0  0  0  0  0  0  0  0  0
    6.6077    0.6671   17.5405 N   0  0  0  0  0  0  0  0  0  0  0  0
    7.2283    0.0028   18.5223 C   0  0  0  0  0  0  0  0  0  0  0  0
    8.1716   -0.4891   18.2740 H   0  0  0  0  0  0  0  0  0  0  0  0
    6.7114   -0.0906   19.8269 C   0  0  0  0  0  0  0  0  0  0  0  0
    7.4470   -0.7613   20.8542 N   0  0  0  0  0  0  0  0  0  0  0  0
    8.6939   -0.3221   21.3011 C   0  0  0  0  0  0  0  0  0  0  0  0
    9.2480    0.4323   20.7716 H   0  0  0  0  0  0  0  0  0  0  0  0
    9.0181   -1.0635   22.3766 C   0  0  0  0  0  0  0  0  0  0  0  0
   10.1094   -1.1083   23.2200 N   0  0  0  0  0  0  0  0  0  0  0  0
   10.1385   -2.0410   23.6167 H   0  0  0  0  0  0  0  0  0  0  0  0
   11.3787   -0.7421   22.5782 C   0  0  0  0  0  0  0  0  0  0  0  0
   11.3080    0.2476   22.1142 H   0  0  0  0  0  0  0  0  0  0  0  0
   12.1542   -0.6427   23.3431 H   0  0  0  0  0  0  0  0  0  0  0  0
   11.7463   -1.7991   21.5273 C   0  0  0  0  0  0  0  0  0  0  0  0
   11.9408   -2.7391   22.0701 H   0  0  0  0  0  0  0  0  0  0  0  0
   10.8524   -1.9606   20.9059 H   0  0  0  0  0  0  0  0  0  0  0  0
   12.8019   -1.4340   20.6757 O   0  0  0  0  0  0  0  0  0  0  0  0
   14.0879   -1.8035   21.1123 C   0  0  0  0  0  0  0  0  0  0  0  0
   14.3139   -1.5261   22.1563 H   0  0  0  0  0  0  0  0  0  0  0  0
   14.2373   -2.8866   21.0102 H   0  0  0  0  0  0  0  0  0  0  0  0
   14.7895   -1.2789   20.4580 H   0  0  0  0  0  0  0  0  0  0  0  0
    7.9989   -1.9625   22.5584 N   0  0  0  0  0  0  0  0  0  0  0  0
    7.9217   -2.6367   23.2940 H   0  0  0  0  0  0  0  0  0  0  0  0
    7.0056   -1.8034   21.6414 C   0  0  0  0  0  0  0  0  0  0  0  0
    5.6402   -2.7488   21.5249 S   0  0  0  0  0  0  0  0  0  0  0  0
    5.4906    0.5272   20.1245 C   0  0  0  0  0  0  0  0  0  0  0  0
    5.0794    0.4508   21.1343 H   0  0  0  0  0  0  0  0  0  0  0  0
    4.8551    1.2429   19.1047 C   0  0  0  0  0  0  0  0  0  0  0  0
    3.9280    1.7814   19.2814 H   0  0  0  0  0  0  0  0  0  0  0  0
  1  2  1  0
  2  3  2  0
  3  4  1  0
  4  5  1  0
  4  6  2  0
  6  7  1  0
  7  8  1  0
  8  9  1  0
  8 10  2  0
 10 11  1  0
 11 12  1  0
 11 13  1  0
 13 14  1  0
 13 15  1  0
 13 16  1  0
 16 17  1  0
 16 18  1  0
 16 19  1  0
 19 20  1  0
 20 21  1  0
 20 22  1  0
 20 23  1  0
 10 24  1  0
 24 25  1  0
 24 26  1  0
 26 27  2  0
  6 28  1  0
 28 29  1  0
 28 30  2  0
 30 31  1  0
 30  2  1  0
 26  7  1  0
M  END
>  <cnnaffinity>  (1) 
-5.40755

>  <filename>  (1) 
COCCNc1cn(-c2cccnc2)c(=S)[nH]1

$$$$
