
     RDKit          3D

 34 36  0  0  0  0  0  0  0  0999 V2000
    4.9617    1.8085   16.9431 H   0  0  0  0  0  0  0  0  0  0  0  0
    5.4268    1.2987   17.7823 C   0  0  0  0  0  0  0  0  0  0  0  0
    6.5875    0.6740   17.5257 N   0  0  0  0  0  0  0  0  0  0  0  0
    7.1899    0.0483   18.5426 C   0  0  0  0  0  0  0  0  0  0  0  0
    8.1338   -0.4427   18.3126 H   0  0  0  0  0  0  0  0  0  0  0  0
    6.6711    0.0039   19.8499 C   0  0  0  0  0  0  0  0  0  0  0  0
    7.3807   -0.6974   20.9362 C   0  0  0  0  0  0  0  0  0  0  0  0
    8.5455   -1.3402   20.7407 N   0  0  0  0  0  0  0  0  0  0  0  0
    8.8266   -1.8257   21.9706 N   0  0  0  0  0  0  0  0  0  0  0  0
    9.8664   -2.5641   22.5232 C   0  0  0  0  0  0  0  0  0  0  0  0
   10.7202   -2.8232   21.9261 H   0  0  0  0  0  0  0  0  0  0  0  0
    9.5650   -2.7061   23.8389 C   0  0  0  0  0  0  0  0  0  0  0  0
   10.0972   -3.1888   24.6471 H   0  0  0  0  0  0  0  0  0  0  0  0
    8.3624   -2.0667   24.1020 N   0  0  0  0  0  0  0  0  0  0  0  0
    7.9428   -1.8025   25.4211 N   0  0  0  0  0  0  0  0  0  0  0  0
    8.0176   -2.6779   25.9423 H   0  0  0  0  0  0  0  0  0  0  0  0
    6.5368   -1.3510   25.4862 C   0  0  0  0  0  0  0  0  0  0  0  0
    5.8956   -1.9568   24.8265 H   0  0  0  0  0  0  0  0  0  0  0  0
    6.5089   -0.3101   25.1307 H   0  0  0  0  0  0  0  0  0  0  0  0
    5.9679   -1.3783   26.8947 C   0  0  0  0  0  0  0  0  0  0  0  0
    6.6981   -0.9025   27.5682 H   0  0  0  0  0  0  0  0  0  0  0  0
    5.0594   -0.7543   26.9041 H   0  0  0  0  0  0  0  0  0  0  0  0
    5.6717   -2.6980   27.3061 O   0  0  0  0  0  0  0  0  0  0  0  0
    4.9868   -2.7812   28.5361 C   0  0  0  0  0  0  0  0  0  0  0  0
    5.4740   -2.1859   29.3246 H   0  0  0  0  0  0  0  0  0  0  0  0
    3.9427   -2.4444   28.4440 H   0  0  0  0  0  0  0  0  0  0  0  0
    4.9966   -3.8329   28.8327 H   0  0  0  0  0  0  0  0  0  0  0  0
    7.9179   -1.5146   22.9134 C   0  0  0  0  0  0  0  0  0  0  0  0
    6.9289   -0.7701   22.2753 C   0  0  0  0  0  0  0  0  0  0  0  0
    6.0521   -0.3306   22.7092 H   0  0  0  0  0  0  0  0  0  0  0  0
    5.4476    0.6585   20.0942 C   0  0  0  0  0  0  0  0  0  0  0  0
    4.9956    0.6700   21.0884 H   0  0  0  0  0  0  0  0  0  0  0  0
    4.8215    1.3126   19.0414 C   0  0  0  0  0  0  0  0  0  0  0  0
    3.8857    1.8422   19.1896 H   0  0  0  0  0  0  0  0  0  0  0  0
  1  2  1  0
  2  3  2  0
  3  4  1  0
  4  5  1  0
  4  6  2  0
  6  7  1  0
  7  8  2  0
  8  9  1  0
  9 10  1  0
 10 11  1  0
 10 12  2  0
 12 13  1  0
 12 14  1  0
 14 15  1  0
 15 16  1  0
 15 17  1  0
 17 18  1  0
 17 19  1  0
 17 20  1  0
 20 21  1  0
 20 22  1  0
 20 23  1  0
 23 24  1  0
 24 25  1  0
 24 26  1  0
 24 27  1  0
 14 28  1  0
 28 29  2  0
 29 30  1  0
  6 31  1  0
 31 32  1  0
 31 33  2  0
 33 34  1  0
 33  2  1  0
 29  7  1  0
 28  9  1  0
M  END
>  <cnnaffinity>  (1) 
-4.95179

>  <filename>  (1) 
COCCNn1ccn2nc(-c3cccnc3)cc12

$$$$
