
     RDKit          3D

 31 32  0  0  0  0  0  0  0  0999 V2000
    5.0086    1.8110   16.9895 H   0  0  0  0  0  0  0  0  0  0  0  0
    5.4591    1.2779   17.8237 C   0  0  0  0  0  0  0  0  0  0  0  0
    6.6053    0.6265   17.5749 N   0  0  0  0  0  0  0  0  0  0  0  0
    7.1888   -0.0156   18.5981 C   0  0  0  0  0  0  0  0  0  0  0  0
    8.1112   -0.5450   18.3796 H   0  0  0  0  0  0  0  0  0  0  0  0
    6.6667   -0.0344   19.9063 C   0  0  0  0  0  0  0  0  0  0  0  0
    7.2183   -0.7332   20.9509 O   0  0  0  0  0  0  0  0  0  0  0  0
    8.5888   -0.7547   21.1281 C   0  0  0  0  0  0  0  0  0  0  0  0
    9.6208    0.0967   20.6779 C   0  0  0  0  0  0  0  0  0  0  0  0
    9.5553    0.9801   20.0543 H   0  0  0  0  0  0  0  0  0  0  0  0
   10.8080   -0.2983   21.1262 N   0  0  0  0  0  0  0  0  0  0  0  0
   10.5354   -1.3967   21.8728 N   0  0  0  0  0  0  0  0  0  0  0  0
   11.2760   -1.9294   22.3005 H   0  0  0  0  0  0  0  0  0  0  0  0
    9.2153   -1.6960   21.9147 C   0  0  0  0  0  0  0  0  0  0  0  0
    8.6676   -2.7679   22.5838 N   0  0  0  0  0  0  0  0  0  0  0  0
    7.6741   -2.6063   22.7229 H   0  0  0  0  0  0  0  0  0  0  0  0
    9.3980   -3.4415   23.6357 C   0  0  0  0  0  0  0  0  0  0  0  0
   10.3196   -3.8311   23.1979 H   0  0  0  0  0  0  0  0  0  0  0  0
    9.6989   -2.7670   24.4598 H   0  0  0  0  0  0  0  0  0  0  0  0
    8.5696   -4.6172   24.1454 C   0  0  0  0  0  0  0  0  0  0  0  0
    8.2106   -5.1817   23.2772 H   0  0  0  0  0  0  0  0  0  0  0  0
    7.6832   -4.2357   24.6826 H   0  0  0  0  0  0  0  0  0  0  0  0
    9.3122   -5.5435   24.9102 O   0  0  0  0  0  0  0  0  0  0  0  0
    9.5360   -5.2273   26.2642 C   0  0  0  0  0  0  0  0  0  0  0  0
    9.9897   -4.2368   26.4143 H   0  0  0  0  0  0  0  0  0  0  0  0
    8.6155   -5.2727   26.8647 H   0  0  0  0  0  0  0  0  0  0  0  0
   10.2317   -5.9797   26.6438 H   0  0  0  0  0  0  0  0  0  0  0  0
    5.4641    0.6300   20.1523 C   0  0  0  0  0  0  0  0  0  0  0  0
    5.0462    0.6210   21.1590 H   0  0  0  0  0  0  0  0  0  0  0  0
    4.8552    1.2958   19.0877 C   0  0  0  0  0  0  0  0  0  0  0  0
    3.9311    1.8407   19.2357 H   0  0  0  0  0  0  0  0  0  0  0  0
  1  2  1  0
  2  3  2  0
  3  4  1  0
  4  5  1  0
  4  6  2  0
  6  7  1  0
  7  8  1  0
  8  9  1  0
  9 10  1  0
  9 11  2  0
 11 12  1  0
 12 13  1  0
 12 14  1  0
 14 15  1  0
 15 16  1  0
 15 17  1  0
 17 18  1  0
 17 19  1  0
 17 20  1  0
 20 21  1  0
 20 22  1  0
 20 23  1  0
 23 24  1  0
 24 25  1  0
 24 26  1  0
 24 27  1  0
  6 28  1  0
 28 29  1  0
 28 30  2  0
 30 31  1  0
 30  2  1  0
 14  8  2  0
M  END
>  <cnnaffinity>  (1) 
-4.7607

>  <filename>  (1) 
COCCNc1[nH]ncc1Oc1cccnc1

$$$$
