
     RDKit          3D

 29 31  0  0  0  0  0  0  0  0999 V2000
    5.0199    1.8247   16.9228 H   0  0  0  0  0  0  0  0  0  0  0  0
    5.4505    1.2941   17.7685 C   0  0  0  0  0  0  0  0  0  0  0  0
    6.5787    0.6099   17.5237 N   0  0  0  0  0  0  0  0  0  0  0  0
    7.1395   -0.0497   18.5403 C   0  0  0  0  0  0  0  0  0  0  0  0
    8.0620   -0.5816   18.3150 H   0  0  0  0  0  0  0  0  0  0  0  0
    6.6225   -0.0408   19.8482 C   0  0  0  0  0  0  0  0  0  0  0  0
    7.3544   -0.6818   20.9377 C   0  0  0  0  0  0  0  0  0  0  0  0
    8.1992   -1.7594   20.7641 N   0  0  0  0  0  0  0  0  0  0  0  0
    8.6430   -1.9922   21.9726 C   0  0  0  0  0  0  0  0  0  0  0  0
    9.6700   -3.1861   22.7231 S   0  0  0  0  0  0  0  0  0  0  0  0
    9.4465   -2.4200   24.2847 C   0  0  0  0  0  0  0  0  0  0  0  0
    9.9206   -2.8552   25.1534 H   0  0  0  0  0  0  0  0  0  0  0  0
    8.6654   -1.3305   24.2204 C   0  0  0  0  0  0  0  0  0  0  0  0
    8.4030   -0.6445   25.0226 H   0  0  0  0  0  0  0  0  0  0  0  0
    8.2045   -1.1046   22.9258 N   0  0  0  0  0  0  0  0  0  0  0  0
    7.3503   -0.2507   22.2735 C   0  0  0  0  0  0  0  0  0  0  0  0
    6.8121    0.8818   22.9132 N   0  0  0  0  0  0  0  0  0  0  0  0
    6.4254    0.7798   23.8427 H   0  0  0  0  0  0  0  0  0  0  0  0
    7.7956    2.2185   23.1510 S   0  0  0  0  0  0  0  0  0  0  0  0
    9.0762    1.8155   23.6930 O   0  0  0  0  0  0  0  0  0  0  0  0
    6.9040    3.1103   23.8593 O   0  0  0  0  0  0  0  0  0  0  0  0
    8.0183    2.6300   21.4722 C   0  0  0  0  0  0  0  0  0  0  0  0
    8.6059    1.8044   21.0725 H   0  0  0  0  0  0  0  0  0  0  0  0
    7.0291    2.6765   21.0160 H   0  0  0  0  0  0  0  0  0  0  0  0
    8.5674    3.5633   21.3987 H   0  0  0  0  0  0  0  0  0  0  0  0
    5.4283    0.6668   20.0865 C   0  0  0  0  0  0  0  0  0  0  0  0
    5.0135    0.7191   21.0951 H   0  0  0  0  0  0  0  0  0  0  0  0
    4.8306    1.3325   19.0210 C   0  0  0  0  0  0  0  0  0  0  0  0
    3.9119    1.8907   19.1490 H   0  0  0  0  0  0  0  0  0  0  0  0
  1  2  1  0
  2  3  2  0
  3  4  1  0
  4  5  1  0
  4  6  2  0
  6  7  1  0
  7  8  1  0
  8  9  2  0
  9 10  1  0
 10 11  1  0
 11 12  1  0
 11 13  2  0
 13 14  1  0
 13 15  1  0
 15 16  1  0
 16 17  1  0
 17 18  1  0
 17 19  1  0
 19 20  2  0
 19 21  2  0
 19 22  1  0
 22 23  1  0
 22 24  1  0
 22 25  1  0
  6 26  1  0
 26 27  1  0
 26 28  2  0
 28 29  1  0
 28  2  1  0
 16  7  2  0
 15  9  1  0
M  END
>  <cnnaffinity>  (1) 
-5.01682

>  <filename>  (1) 
CS(=O)(=O)Nc1c(-c2cccnc2)nc2sccn12

$$$$
