
     RDKit          3D

 35 37  0  0  0  0  0  0  0  0999 V2000
    4.9353    1.8580   16.7666 H   0  0  0  0  0  0  0  0  0  0  0  0
    5.4279    1.3804   17.6126 C   0  0  0  0  0  0  0  0  0  0  0  0
    6.5752    0.7322   17.3480 N   0  0  0  0  0  0  0  0  0  0  0  0
    7.2179    0.1415   18.3641 C   0  0  0  0  0  0  0  0  0  0  0  0
    8.1700   -0.3378   18.1371 H   0  0  0  0  0  0  0  0  0  0  0  0
    6.7240    0.1292   19.6840 C   0  0  0  0  0  0  0  0  0  0  0  0
    7.3244   -0.6137   20.7340 N   0  0  0  0  0  0  0  0  0  0  0  0
    6.6055   -1.4751   21.5518 C   0  0  0  0  0  0  0  0  0  0  0  0
    5.5375   -1.5549   21.4397 H   0  0  0  0  0  0  0  0  0  0  0  0
    7.4542   -2.0680   22.4195 C   0  0  0  0  0  0  0  0  0  0  0  0
    7.2033   -3.0387   23.4833 C   0  0  0  0  0  0  0  0  0  0  0  0
    5.9599   -3.6903   23.5697 C   0  0  0  0  0  0  0  0  0  0  0  0
    5.1736   -3.4463   22.8587 H   0  0  0  0  0  0  0  0  0  0  0  0
    5.7260   -4.6273   24.5780 C   0  0  0  0  0  0  0  0  0  0  0  0
    4.7731   -5.1448   24.6202 H   0  0  0  0  0  0  0  0  0  0  0  0
    6.6914   -4.8893   25.5546 C   0  0  0  0  0  0  0  0  0  0  0  0
    6.4748   -5.6072   26.3465 H   0  0  0  0  0  0  0  0  0  0  0  0
    7.9054   -4.1861   25.5078 C   0  0  0  0  0  0  0  0  0  0  0  0
    9.0404   -4.2242   26.8929 S   0  0  0  0  0  0  0  0  0  0  0  0
    8.5155   -5.1256   27.9130 O   0  0  0  0  0  0  0  0  0  0  0  0
    9.4052   -2.8392   27.1597 O   0  0  0  0  0  0  0  0  0  0  0  0
   10.4921   -4.9994   26.2780 C   0  0  0  0  0  0  0  0  0  0  0  0
   11.0984   -5.1852   27.1633 H   0  0  0  0  0  0  0  0  0  0  0  0
   10.9922   -4.3152   25.5963 H   0  0  0  0  0  0  0  0  0  0  0  0
   10.2016   -5.9319   25.8028 H   0  0  0  0  0  0  0  0  0  0  0  0
    8.1750   -3.2916   24.4631 C   0  0  0  0  0  0  0  0  0  0  0  0
    9.1133   -2.7412   24.4075 H   0  0  0  0  0  0  0  0  0  0  0  0
    8.7108   -1.5428   22.1283 N   0  0  0  0  0  0  0  0  0  0  0  0
    9.6125   -1.7928   22.4798 H   0  0  0  0  0  0  0  0  0  0  0  0
    8.6782   -0.6437   21.0948 C   0  0  0  0  0  0  0  0  0  0  0  0
    9.6249   -0.0447   20.6303 O   0  0  0  0  0  0  0  0  0  0  0  0
    5.5431    0.8309   19.9513 C   0  0  0  0  0  0  0  0  0  0  0  0
    5.1739    0.8849   20.9755 H   0  0  0  0  0  0  0  0  0  0  0  0
    4.8827    1.4646   18.8977 C   0  0  0  0  0  0  0  0  0  0  0  0
    3.9661    2.0193   19.0644 H   0  0  0  0  0  0  0  0  0  0  0  0
  1  2  1  0
  2  3  2  0
  3  4  1  0
  4  5  1  0
  4  6  2  0
  6  7  1  0
  7  8  1  0
  8  9  1  0
  8 10  2  0
 10 11  1  0
 11 12  2  0
 12 13  1  0
 12 14  1  0
 14 15  1  0
 14 16  2  0
 16 17  1  0
 16 18  1  0
 18 19  1  0
 19 20  2  0
 19 21  2  0
 19 22  1  0
 22 23  1  0
 22 24  1  0
 22 25  1  0
 18 26  2  0
 26 27  1  0
 10 28  1  0
 28 29  1  0
 28 30  1  0
 30 31  2  0
  6 32  1  0
 32 33  1  0
 32 34  2  0
 34 35  1  0
 34  2  1  0
 30  7  1  0
 26 11  1  0
M  END
>  <cnnaffinity>  (1) 
-5.65662

>  <filename>  (1) 
CS(=O)(=O)c1cccc(-c2cn(-c3cccnc3)c(=O)[nH]2)c1

$$$$
