
     RDKit          3D

 33 35  0  0  0  0  0  0  0  0999 V2000
    4.9385    1.7939   16.9711 H   0  0  0  0  0  0  0  0  0  0  0  0
    5.4183    1.2912   17.8103 C   0  0  0  0  0  0  0  0  0  0  0  0
    6.5923    0.6917   17.5515 N   0  0  0  0  0  0  0  0  0  0  0  0
    7.2177    0.0885   18.5683 C   0  0  0  0  0  0  0  0  0  0  0  0
    8.1733   -0.3798   18.3283 H   0  0  0  0  0  0  0  0  0  0  0  0
    6.6936    0.0154   19.8679 C   0  0  0  0  0  0  0  0  0  0  0  0
    7.4143   -0.6938   20.9317 C   0  0  0  0  0  0  0  0  0  0  0  0
    8.6815   -0.4082   21.2257 N   0  0  0  0  0  0  0  0  0  0  0  0
    8.9170   -1.1342   22.3222 N   0  0  0  0  0  0  0  0  0  0  0  0
    7.8915   -1.8807   22.7657 C   0  0  0  0  0  0  0  0  0  0  0  0
    6.8846   -1.6755   21.8448 C   0  0  0  0  0  0  0  0  0  0  0  0
    5.6841   -2.4323   21.6789 N   0  0  0  0  0  0  0  0  0  0  0  0
    4.7963   -1.9507   21.7288 H   0  0  0  0  0  0  0  0  0  0  0  0
    5.2391   -3.7207   22.6278 S   0  0  0  0  0  0  0  0  0  0  0  0
    3.9100   -3.9348   22.1102 O   0  0  0  0  0  0  0  0  0  0  0  0
    5.4729   -3.4508   24.0291 O   0  0  0  0  0  0  0  0  0  0  0  0
    6.2675   -5.0010   22.0397 C   0  0  0  0  0  0  0  0  0  0  0  0
    6.0126   -5.0993   20.9853 H   0  0  0  0  0  0  0  0  0  0  0  0
    6.0166   -5.8990   22.5994 H   0  0  0  0  0  0  0  0  0  0  0  0
    7.3016   -4.7038   22.1874 H   0  0  0  0  0  0  0  0  0  0  0  0
    8.2210   -2.4559   24.1162 C   0  0  0  0  0  0  0  0  0  0  0  0
    7.5228   -2.0747   24.8666 H   0  0  0  0  0  0  0  0  0  0  0  0
    8.1266   -3.5422   24.1301 H   0  0  0  0  0  0  0  0  0  0  0  0
    9.6856   -1.9978   24.3630 C   0  0  0  0  0  0  0  0  0  0  0  0
   10.3580   -2.8538   24.4269 H   0  0  0  0  0  0  0  0  0  0  0  0
    9.7766   -1.4429   25.2964 H   0  0  0  0  0  0  0  0  0  0  0  0
   10.0860   -1.0931   23.1639 C   0  0  0  0  0  0  0  0  0  0  0  0
   10.9547   -1.4639   22.6169 H   0  0  0  0  0  0  0  0  0  0  0  0
   10.2824   -0.0583   23.4534 H   0  0  0  0  0  0  0  0  0  0  0  0
    5.4588    0.6357   20.1208 C   0  0  0  0  0  0  0  0  0  0  0  0
    5.0341    0.6301   21.1270 H   0  0  0  0  0  0  0  0  0  0  0  0
    4.8188    1.2903   19.0723 C   0  0  0  0  0  0  0  0  0  0  0  0
    3.8840    1.8152   19.2222 H   0  0  0  0  0  0  0  0  0  0  0  0
  1  2  1  0
  2  3  2  0
  3  4  1  0
  4  5  1  0
  4  6  2  0
  6  7  1  0
  7  8  2  0
  8  9  1  0
  9 10  1  0
 10 11  2  0
 11 12  1  0
 12 13  1  0
 12 14  1  0
 14 15  2  0
 14 16  2  0
 14 17  1  0
 17 18  1  0
 17 19  1  0
 17 20  1  0
 10 21  1  0
 21 22  1  0
 21 23  1  0
 21 24  1  0
 24 25  1  0
 24 26  1  0
 24 27  1  0
 27 28  1  0
 27 29  1  0
  6 30  1  0
 30 31  1  0
 30 32  2  0
 32 33  1  0
 32  2  1  0
 11  7  1  0
 27  9  1  0
M  END
>  <cnnaffinity>  (1) 
-5.25107

>  <filename>  (1) 
CS(=O)(=O)Nc1c(-c2cccnc2)nn2c1CCC2

$$$$
