
     RDKit          3D

 27 28  0  0  0  0  0  0  0  0999 V2000
    4.9224    1.7891   16.9968 H   0  0  0  0  0  0  0  0  0  0  0  0
    5.3993    1.2902   17.8367 C   0  0  0  0  0  0  0  0  0  0  0  0
    6.5598    0.6698   17.5714 N   0  0  0  0  0  0  0  0  0  0  0  0
    7.1808    0.0623   18.5900 C   0  0  0  0  0  0  0  0  0  0  0  0
    8.1213   -0.4435   18.3627 H   0  0  0  0  0  0  0  0  0  0  0  0
    6.6713    0.0275   19.9031 C   0  0  0  0  0  0  0  0  0  0  0  0
    7.3586   -0.6535   20.9660 N   0  0  0  0  0  0  0  0  0  0  0  0
    8.5954   -0.3862   21.4994 C   0  0  0  0  0  0  0  0  0  0  0  0
    9.4687    0.7027   21.0974 C   0  0  0  0  0  0  0  0  0  0  0  0
   10.5045    0.5333   21.3678 H   0  0  0  0  0  0  0  0  0  0  0  0
    9.3612    0.9703   20.0546 H   0  0  0  0  0  0  0  0  0  0  0  0
    8.9714    2.1488   21.9661 S   0  0  0  0  0  0  0  0  0  0  0  0
    7.6170    2.4718   21.5577 O   0  0  0  0  0  0  0  0  0  0  0  0
   10.1123    3.0435   21.8273 O   0  0  0  0  0  0  0  0  0  0  0  0
    8.9434    1.8232   23.6861 C   0  0  0  0  0  0  0  0  0  0  0  0
    9.9472    1.4956   23.9421 H   0  0  0  0  0  0  0  0  0  0  0  0
    8.1507    1.1209   23.9346 H   0  0  0  0  0  0  0  0  0  0  0  0
    8.7632    2.8178   24.0994 H   0  0  0  0  0  0  0  0  0  0  0  0
    8.9139   -1.1843   22.4632 N   0  0  0  0  0  0  0  0  0  0  0  0
    7.8462   -2.0305   22.5271 N   0  0  0  0  0  0  0  0  0  0  0  0
    7.7715   -2.7962   23.1822 H   0  0  0  0  0  0  0  0  0  0  0  0
    6.8652   -1.7593   21.6488 C   0  0  0  0  0  0  0  0  0  0  0  0
    5.4672   -2.6335   21.4649 S   0  0  0  0  0  0  0  0  0  0  0  0
    5.4449    0.6390   20.1594 C   0  0  0  0  0  0  0  0  0  0  0  0
    5.0329    0.6124   21.1690 H   0  0  0  0  0  0  0  0  0  0  0  0
    4.8092    1.3017   19.1043 C   0  0  0  0  0  0  0  0  0  0  0  0
    3.8807    1.8366   19.2600 H   0  0  0  0  0  0  0  0  0  0  0  0
  1  2  1  0
  2  3  2  0
  3  4  1  0
  4  5  1  0
  4  6  2  0
  6  7  1  0
  7  8  1  0
  8  9  1  0
  9 10  1  0
  9 11  1  0
  9 12  1  0
 12 13  2  0
 12 14  2  0
 12 15  1  0
 15 16  1  0
 15 17  1  0
 15 18  1  0
  8 19  2  0
 19 20  1  0
 20 21  1  0
 20 22  1  0
 22 23  2  0
  6 24  1  0
 24 25  1  0
 24 26  2  0
 26 27  1  0
 26  2  1  0
 22  7  1  0
M  END
>  <cnnaffinity>  (1) 
-4.48034

>  <filename>  (1) 
CS(=O)(=O)Cc1n[nH]c(=S)n1-c1cccnc1

$$$$
