
     RDKit          3D

 36 38  0  0  0  0  0  0  0  0999 V2000
    4.9391    1.7971   16.9868 H   0  0  0  0  0  0  0  0  0  0  0  0
    5.3936    1.2935   17.8370 C   0  0  0  0  0  0  0  0  0  0  0  0
    6.5471    0.6602   17.5848 N   0  0  0  0  0  0  0  0  0  0  0  0
    7.1428    0.0389   18.6069 C   0  0  0  0  0  0  0  0  0  0  0  0
    8.1088   -0.4177   18.3919 H   0  0  0  0  0  0  0  0  0  0  0  0
    6.6170   -0.0141   19.9087 C   0  0  0  0  0  0  0  0  0  0  0  0
    7.3229   -0.7392   20.9839 C   0  0  0  0  0  0  0  0  0  0  0  0
    6.5973   -1.5130   21.7657 N   0  0  0  0  0  0  0  0  0  0  0  0
    7.1877   -2.1975   22.8127 C   0  0  0  0  0  0  0  0  0  0  0  0
    6.2990   -3.0332   23.6844 C   0  0  0  0  0  0  0  0  0  0  0  0
    5.1169   -3.5867   23.1642 C   0  0  0  0  0  0  0  0  0  0  0  0
    4.8614   -3.3660   22.1344 H   0  0  0  0  0  0  0  0  0  0  0  0
    4.2859   -4.3830   23.9552 C   0  0  0  0  0  0  0  0  0  0  0  0
    3.3758   -4.8027   23.5402 H   0  0  0  0  0  0  0  0  0  0  0  0
    4.6091   -4.6491   25.2845 C   0  0  0  0  0  0  0  0  0  0  0  0
    3.9603   -5.2853   25.8874 H   0  0  0  0  0  0  0  0  0  0  0  0
    5.7788   -4.0924   25.8178 C   0  0  0  0  0  0  0  0  0  0  0  0
    6.1972   -4.4452   27.5245 S   0  0  0  0  0  0  0  0  0  0  0  0
    5.4974   -5.6526   27.9444 O   0  0  0  0  0  0  0  0  0  0  0  0
    7.6387   -4.2929   27.6830 O   0  0  0  0  0  0  0  0  0  0  0  0
    5.4522   -3.1396   28.4395 C   0  0  0  0  0  0  0  0  0  0  0  0
    4.3903   -3.1162   28.2186 H   0  0  0  0  0  0  0  0  0  0  0  0
    5.9844   -2.2288   28.1694 H   0  0  0  0  0  0  0  0  0  0  0  0
    5.6224   -3.4212   29.4818 H   0  0  0  0  0  0  0  0  0  0  0  0
    6.6271   -3.2957   25.0286 C   0  0  0  0  0  0  0  0  0  0  0  0
    7.5366   -2.8730   25.4513 H   0  0  0  0  0  0  0  0  0  0  0  0
    8.5405   -2.1318   23.0382 C   0  0  0  0  0  0  0  0  0  0  0  0
    9.0425   -2.6943   23.8172 H   0  0  0  0  0  0  0  0  0  0  0  0
    9.3078   -1.3395   22.2226 N   0  0  0  0  0  0  0  0  0  0  0  0
   10.3040   -1.1615   22.2972 H   0  0  0  0  0  0  0  0  0  0  0  0
    8.8164   -0.5699   21.1797 C   0  0  0  0  0  0  0  0  0  0  0  0
    9.6250    0.1217   20.5819 O   0  0  0  0  0  0  0  0  0  0  0  0
    5.3990    0.6414   20.1515 C   0  0  0  0  0  0  0  0  0  0  0  0
    4.9589    0.6363   21.1514 H   0  0  0  0  0  0  0  0  0  0  0  0
    4.7873    1.3182   19.0984 C   0  0  0  0  0  0  0  0  0  0  0  0
    3.8616    1.8664   19.2353 H   0  0  0  0  0  0  0  0  0  0  0  0
  1  2  1  0
  2  3  2  0
  3  4  1  0
  4  5  1  0
  4  6  2  0
  6  7  1  0
  7  8  2  0
  8  9  1  0
  9 10  1  0
 10 11  2  0
 11 12  1  0
 11 13  1  0
 13 14  1  0
 13 15  2  0
 15 16  1  0
 15 17  1  0
 17 18  1  0
 18 19  2  0
 18 20  2  0
 18 21  1  0
 21 22  1  0
 21 23  1  0
 21 24  1  0
 17 25  2  0
 25 26  1  0
  9 27  2  0
 27 28  1  0
 27 29  1  0
 29 30  1  0
 29 31  1  0
 31 32  2  0
  6 33  1  0
 33 34  1  0
 33 35  2  0
 35 36  1  0
 35  2  1  0
 31  7  1  0
 25 10  1  0
M  END
>  <cnnaffinity>  (1) 
-5.81393

>  <filename>  (1) 
CS(=O)(=O)c1cccc(-c2c[nH]c(=O)c(-c3cccnc3)n2)c1

$$$$
