
     RDKit          3D

 38 40  0  0  0  0  0  0  0  0999 V2000
    4.9719    1.8582   16.9129 H   0  0  0  0  0  0  0  0  0  0  0  0
    5.4151    1.3361   17.7575 C   0  0  0  0  0  0  0  0  0  0  0  0
    6.5805    0.7130   17.5193 N   0  0  0  0  0  0  0  0  0  0  0  0
    7.1510    0.0785   18.5495 C   0  0  0  0  0  0  0  0  0  0  0  0
    8.0977   -0.4209   18.3384 H   0  0  0  0  0  0  0  0  0  0  0  0
    6.6026    0.0156   19.8454 C   0  0  0  0  0  0  0  0  0  0  0  0
    7.3231   -0.6756   20.9890 C   0  0  2  0  0  0  0  0  0  0  0  0
    8.1591   -1.2403   20.5548 H   0  0  0  0  0  0  0  0  0  0  0  0
    6.4674   -1.7180   21.7243 C   0  0  0  0  0  0  0  0  0  0  0  0
    5.8243   -2.6321   21.2571 O   0  0  0  0  0  0  0  0  0  0  0  0
    6.5956   -1.4855   23.0642 N   0  0  0  0  0  0  0  0  0  0  0  0
    5.8660   -1.9399   23.5934 H   0  0  0  0  0  0  0  0  0  0  0  0
    7.0636   -0.1429   23.3786 C   0  0  0  0  0  0  0  0  0  0  0  0
    7.7057   -0.1744   24.2689 H   0  0  0  0  0  0  0  0  0  0  0  0
    6.2337    0.5591   23.5864 H   0  0  0  0  0  0  0  0  0  0  0  0
    7.8391    0.2924   22.1042 C   0  0  1  0  0  0  0  0  0  0  0  0
    7.5797    1.3279   21.8644 H   0  0  0  0  0  0  0  0  0  0  0  0
    9.3492    0.2313   22.2663 C   0  0  0  0  0  0  0  0  0  0  0  0
    9.9472   -1.0047   22.5507 C   0  0  0  0  0  0  0  0  0  0  0  0
    9.3330   -1.8917   22.6938 H   0  0  0  0  0  0  0  0  0  0  0  0
   11.3314   -1.1140   22.6593 C   0  0  0  0  0  0  0  0  0  0  0  0
   11.7743   -2.0930   22.8088 H   0  0  0  0  0  0  0  0  0  0  0  0
   12.1413    0.0187   22.5795 C   0  0  0  0  0  0  0  0  0  0  0  0
   13.2219   -0.0641   22.6882 H   0  0  0  0  0  0  0  0  0  0  0  0
   11.5438    1.2730   22.3683 C   0  0  0  0  0  0  0  0  0  0  0  0
   12.6107    2.7155   22.3069 S   0  0  0  0  0  0  0  0  0  0  0  0
   12.4516    3.3773   21.0185 O   0  0  0  0  0  0  0  0  0  0  0  0
   13.9081    2.3097   22.8289 O   0  0  0  0  0  0  0  0  0  0  0  0
   11.9751    3.8914   23.4454 C   0  0  0  0  0  0  0  0  0  0  0  0
   12.6953    4.7056   23.3679 H   0  0  0  0  0  0  0  0  0  0  0  0
   11.9253    3.4680   24.4445 H   0  0  0  0  0  0  0  0  0  0  0  0
   11.0085    4.2047   23.0610 H   0  0  0  0  0  0  0  0  0  0  0  0
   10.1598    1.3738   22.1542 C   0  0  0  0  0  0  0  0  0  0  0  0
    9.6847    2.3175   21.8820 H   0  0  0  0  0  0  0  0  0  0  0  0
    5.3803    0.6589   20.0645 C   0  0  0  0  0  0  0  0  0  0  0  0
    4.9141    0.6313   21.0534 H   0  0  0  0  0  0  0  0  0  0  0  0
    4.7782    1.3353   19.0029 C   0  0  0  0  0  0  0  0  0  0  0  0
    3.8428    1.8664   19.1309 H   0  0  0  0  0  0  0  0  0  0  0  0
  1  2  1  0
  2  3  2  0
  3  4  1  0
  4  5  1  0
  4  6  2  0
  6  7  1  0
  7  8  1  6
  7  9  1  0
  9 10  2  0
  9 11  1  0
 11 12  1  0
 11 13  1  0
 13 14  1  0
 13 15  1  0
 13 16  1  0
 16 17  1  6
 16 18  1  0
 18 19  2  0
 19 20  1  0
 19 21  1  0
 21 22  1  0
 21 23  2  0
 23 24  1  0
 23 25  1  0
 25 26  1  0
 26 27  2  0
 26 28  2  0
 26 29  1  0
 29 30  1  0
 29 31  1  0
 29 32  1  0
 25 33  2  0
 33 34  1  0
  6 35  1  0
 35 36  1  0
 35 37  2  0
 37 38  1  0
 37  2  1  0
 16  7  1  0
 33 18  1  0
M  END
>  <cnnaffinity>  (1) 
-5.85193

>  <filename>  (1) 
CS(=O)(=O)c1cccc([C@@H]2CNC(=O)[C@H]2c2cccnc2)c1

$$$$
