
     RDKit          3D

 28 30  0  0  0  0  0  0  0  0999 V2000
    4.9296    1.8002   16.9829 H   0  0  0  0  0  0  0  0  0  0  0  0
    5.4030    1.2931   17.8242 C   0  0  0  0  0  0  0  0  0  0  0  0
    6.5648    0.6715   17.5689 N   0  0  0  0  0  0  0  0  0  0  0  0
    7.1696    0.0392   18.5808 C   0  0  0  0  0  0  0  0  0  0  0  0
    8.1198   -0.4335   18.3406 H   0  0  0  0  0  0  0  0  0  0  0  0
    6.6428   -0.0238   19.8849 C   0  0  0  0  0  0  0  0  0  0  0  0
    7.3653   -0.7054   20.9669 C   0  0  0  0  0  0  0  0  0  0  0  0
    8.4620   -1.4345   20.7124 N   0  0  0  0  0  0  0  0  0  0  0  0
    8.8848   -1.7602   21.9619 N   0  0  0  0  0  0  0  0  0  0  0  0
   10.1023   -2.1644   22.4962 C   0  0  0  0  0  0  0  0  0  0  0  0
   10.8693   -2.5236   21.8380 H   0  0  0  0  0  0  0  0  0  0  0  0
   10.0455   -1.9502   23.8313 C   0  0  0  0  0  0  0  0  0  0  0  0
   10.7871   -2.0884   24.6011 H   0  0  0  0  0  0  0  0  0  0  0  0
    8.7656   -1.4122   24.1456 N   0  0  0  0  0  0  0  0  0  0  0  0
    8.2124   -0.6117   25.5400 S   0  0  0  0  0  0  0  0  0  0  0  0
    9.0576   -1.0794   26.6199 O   0  0  0  0  0  0  0  0  0  0  0  0
    6.7667   -0.6892   25.5745 O   0  0  0  0  0  0  0  0  0  0  0  0
    8.5916    1.0937   25.3042 C   0  0  0  0  0  0  0  0  0  0  0  0
    8.2696    1.5475   26.2426 H   0  0  0  0  0  0  0  0  0  0  0  0
    8.0004    1.4655   24.4665 H   0  0  0  0  0  0  0  0  0  0  0  0
    9.6682    1.1812   25.1726 H   0  0  0  0  0  0  0  0  0  0  0  0
    8.0976   -1.2743   22.9342 C   0  0  0  0  0  0  0  0  0  0  0  0
    7.0741   -0.5735   22.3507 C   0  0  0  0  0  0  0  0  0  0  0  0
    6.3157   -0.0028   22.8535 H   0  0  0  0  0  0  0  0  0  0  0  0
    5.4345    0.6419   20.1340 C   0  0  0  0  0  0  0  0  0  0  0  0
    4.9963    0.6398   21.1319 H   0  0  0  0  0  0  0  0  0  0  0  0
    4.8027    1.3081   19.0884 C   0  0  0  0  0  0  0  0  0  0  0  0
    3.8721    1.8446   19.2420 H   0  0  0  0  0  0  0  0  0  0  0  0
  1  2  1  0
  2  3  2  0
  3  4  1  0
  4  5  1  0
  4  6  2  0
  6  7  1  0
  7  8  2  0
  8  9  1  0
  9 10  1  0
 10 11  1  0
 10 12  2  0
 12 13  1  0
 12 14  1  0
 14 15  1  0
 15 16  2  0
 15 17  2  0
 15 18  1  0
 18 19  1  0
 18 20  1  0
 18 21  1  0
 14 22  1  0
 22 23  2  0
 23 24  1  0
  6 25  1  0
 25 26  1  0
 25 27  2  0
 27 28  1  0
 27  2  1  0
 23  7  1  0
 22  9  1  0
M  END
>  <cnnaffinity>  (1) 
-4.95508

>  <filename>  (1) 
CS(=O)(=O)n1ccn2nc(-c3cccnc3)cc12

$$$$
