
     RDKit          3D

 36 38  0  0  0  0  0  0  0  0999 V2000
    4.9347    1.7998   16.9891 H   0  0  0  0  0  0  0  0  0  0  0  0
    5.3913    1.2956   17.8389 C   0  0  0  0  0  0  0  0  0  0  0  0
    6.5455    0.6636   17.5826 N   0  0  0  0  0  0  0  0  0  0  0  0
    7.1362    0.0332   18.6006 C   0  0  0  0  0  0  0  0  0  0  0  0
    8.1084   -0.4146   18.3978 H   0  0  0  0  0  0  0  0  0  0  0  0
    6.6002   -0.0336   19.9006 C   0  0  0  0  0  0  0  0  0  0  0  0
    7.3202   -0.7520   20.9920 C   0  0  0  0  0  0  0  0  0  0  0  0
    6.5778   -1.5160   21.7537 N   0  0  0  0  0  0  0  0  0  0  0  0
    7.1601   -2.1816   22.8029 N   0  0  0  0  0  0  0  0  0  0  0  0
    6.2873   -2.9778   23.6269 C   0  0  0  0  0  0  0  0  0  0  0  0
    5.2129   -3.6603   23.0402 C   0  0  0  0  0  0  0  0  0  0  0  0
    5.0714   -3.5360   21.9750 H   0  0  0  0  0  0  0  0  0  0  0  0
    4.3671   -4.4507   23.8262 C   0  0  0  0  0  0  0  0  0  0  0  0
    3.5363   -4.9816   23.3718 H   0  0  0  0  0  0  0  0  0  0  0  0
    4.5668   -4.5720   25.2025 C   0  0  0  0  0  0  0  0  0  0  0  0
    3.9072   -5.2077   25.7959 H   0  0  0  0  0  0  0  0  0  0  0  0
    5.6305   -3.8782   25.7918 C   0  0  0  0  0  0  0  0  0  0  0  0
    5.9482   -4.0701   27.5512 S   0  0  0  0  0  0  0  0  0  0  0  0
    5.2530   -5.2551   28.0357 O   0  0  0  0  0  0  0  0  0  0  0  0
    7.3804   -3.8795   27.7300 O   0  0  0  0  0  0  0  0  0  0  0  0
    5.1168   -2.7133   28.3160 C   0  0  0  0  0  0  0  0  0  0  0  0
    5.5462   -1.7903   27.9363 H   0  0  0  0  0  0  0  0  0  0  0  0
    4.0571   -2.8203   28.0943 H   0  0  0  0  0  0  0  0  0  0  0  0
    5.2999   -2.8342   29.3847 H   0  0  0  0  0  0  0  0  0  0  0  0
    6.5013   -3.0918   25.0095 C   0  0  0  0  0  0  0  0  0  0  0  0
    7.3443   -2.5585   25.4421 H   0  0  0  0  0  0  0  0  0  0  0  0
    8.5170   -2.1225   23.0309 C   0  0  0  0  0  0  0  0  0  0  0  0
    8.8713   -2.7444   23.8521 H   0  0  0  0  0  0  0  0  0  0  0  0
    9.3447   -1.3693   22.2840 C   0  0  0  0  0  0  0  0  0  0  0  0
   10.4076   -1.2975   22.4563 H   0  0  0  0  0  0  0  0  0  0  0  0
    8.8073   -0.5705   21.1906 C   0  0  0  0  0  0  0  0  0  0  0  0
    9.5131    0.1652   20.5078 O   0  0  0  0  0  0  0  0  0  0  0  0
    5.3943    0.6299   20.1524 C   0  0  0  0  0  0  0  0  0  0  0  0
    4.9813    0.6173   21.1614 H   0  0  0  0  0  0  0  0  0  0  0  0
    4.7854    1.3171   19.1007 C   0  0  0  0  0  0  0  0  0  0  0  0
    3.8618    1.8678   19.2371 H   0  0  0  0  0  0  0  0  0  0  0  0
  1  2  1  0
  2  3  2  0
  3  4  1  0
  4  5  1  0
  4  6  2  0
  6  7  1  0
  7  8  2  0
  8  9  1  0
  9 10  1  0
 10 11  2  0
 11 12  1  0
 11 13  1  0
 13 14  1  0
 13 15  2  0
 15 16  1  0
 15 17  1  0
 17 18  1  0
 18 19  2  0
 18 20  2  0
 18 21  1  0
 21 22  1  0
 21 23  1  0
 21 24  1  0
 17 25  2  0
 25 26  1  0
  9 27  1  0
 27 28  1  0
 27 29  2  0
 29 30  1  0
 29 31  1  0
 31 32  2  0
  6 33  1  0
 33 34  1  0
 33 35  2  0
 35 36  1  0
 35  2  1  0
 31  7  1  0
 25 10  1  0
M  END
>  <cnnaffinity>  (1) 
-5.45592

>  <filename>  (1) 
CS(=O)(=O)c1cccc(-n2ccc(=O)c(-c3cccnc3)n2)c1

$$$$
