
     RDKit          3D

 36 38  0  0  0  0  0  0  0  0999 V2000
    4.9270    1.7887   16.9934 H   0  0  0  0  0  0  0  0  0  0  0  0
    5.3998    1.2957   17.8399 C   0  0  0  0  0  0  0  0  0  0  0  0
    6.5610    0.6741   17.5849 N   0  0  0  0  0  0  0  0  0  0  0  0
    7.1733    0.0545   18.5999 C   0  0  0  0  0  0  0  0  0  0  0  0
    8.1135   -0.4419   18.3637 H   0  0  0  0  0  0  0  0  0  0  0  0
    6.6589   -0.0019   19.9087 C   0  0  0  0  0  0  0  0  0  0  0  0
    7.3429   -0.7037   20.9558 N   0  0  0  0  0  0  0  0  0  0  0  0
    6.5673   -1.4450   21.8052 N   0  0  0  0  0  0  0  0  0  0  0  0
    7.1317   -2.0935   22.7949 C   0  0  0  0  0  0  0  0  0  0  0  0
    6.2193   -2.8680   23.6968 C   0  0  0  0  0  0  0  0  0  0  0  0
    6.4350   -2.8927   25.0873 C   0  0  0  0  0  0  0  0  0  0  0  0
    7.2924   -2.3655   25.5015 H   0  0  0  0  0  0  0  0  0  0  0  0
    5.5969   -3.6407   25.9098 C   0  0  0  0  0  0  0  0  0  0  0  0
    5.7753   -3.6567   26.9796 H   0  0  0  0  0  0  0  0  0  0  0  0
    4.5380   -4.3728   25.3745 C   0  0  0  0  0  0  0  0  0  0  0  0
    3.8818   -4.9209   26.0503 H   0  0  0  0  0  0  0  0  0  0  0  0
    4.3272   -4.3591   23.9852 C   0  0  0  0  0  0  0  0  0  0  0  0
    2.9398   -5.2753   23.3217 S   0  0  0  0  0  0  0  0  0  0  0  0
    1.9783   -5.5006   24.3902 O   0  0  0  0  0  0  0  0  0  0  0  0
    2.5177   -4.7011   22.0581 O   0  0  0  0  0  0  0  0  0  0  0  0
    3.5716   -6.8373   22.8425 C   0  0  0  0  0  0  0  0  0  0  0  0
    3.9401   -7.3561   23.7217 H   0  0  0  0  0  0  0  0  0  0  0  0
    4.3263   -6.6506   22.0809 H   0  0  0  0  0  0  0  0  0  0  0  0
    2.7034   -7.3251   22.3954 H   0  0  0  0  0  0  0  0  0  0  0  0
    5.1540   -3.5970   23.1448 C   0  0  0  0  0  0  0  0  0  0  0  0
    5.0206   -3.5354   22.0661 H   0  0  0  0  0  0  0  0  0  0  0  0
    8.6251   -2.0926   23.0260 C   0  0  0  0  0  0  0  0  0  0  0  0
    9.1940   -2.7241   23.9100 O   0  0  0  0  0  0  0  0  0  0  0  0
    9.3660   -1.2639   22.0848 C   0  0  0  0  0  0  0  0  0  0  0  0
   10.4405   -1.2202   22.2134 H   0  0  0  0  0  0  0  0  0  0  0  0
    8.7079   -0.6170   21.1113 C   0  0  0  0  0  0  0  0  0  0  0  0
    9.2057    0.0296   20.3937 H   0  0  0  0  0  0  0  0  0  0  0  0
    5.4421    0.6415   20.1647 C   0  0  0  0  0  0  0  0  0  0  0  0
    5.0361    0.5901   21.1739 H   0  0  0  0  0  0  0  0  0  0  0  0
    4.8130    1.3115   19.1100 C   0  0  0  0  0  0  0  0  0  0  0  0
    3.8800    1.8409   19.2572 H   0  0  0  0  0  0  0  0  0  0  0  0
  1  2  1  0
  2  3  2  0
  3  4  1  0
  4  5  1  0
  4  6  2  0
  6  7  1  0
  7  8  1  0
  8  9  2  0
  9 10  1  0
 10 11  2  0
 11 12  1  0
 11 13  1  0
 13 14  1  0
 13 15  2  0
 15 16  1  0
 15 17  1  0
 17 18  1  0
 18 19  2  0
 18 20  2  0
 18 21  1  0
 21 22  1  0
 21 23  1  0
 21 24  1  0
 17 25  2  0
 25 26  1  0
  9 27  1  0
 27 28  2  0
 27 29  1  0
 29 30  1  0
 29 31  2  0
 31 32  1  0
  6 33  1  0
 33 34  1  0
 33 35  2  0
 35 36  1  0
 35  2  1  0
 31  7  1  0
 25 10  1  0
M  END
>  <cnnaffinity>  (1) 
-5.65289

>  <filename>  (1) 
CS(=O)(=O)c1cccc(-c2nn(-c3cccnc3)ccc2=O)c1

$$$$
