
     RDKit          3D

 38 40  0  0  0  0  0  0  0  0999 V2000
    4.9359    1.7917   16.7521 H   0  0  0  0  0  0  0  0  0  0  0  0
    5.3244    1.3949   17.6886 C   0  0  0  0  0  0  0  0  0  0  0  0
    6.5168    0.7902   17.6075 N   0  0  0  0  0  0  0  0  0  0  0  0
    7.0261    0.2935   18.7415 C   0  0  0  0  0  0  0  0  0  0  0  0
    8.0027   -0.1766   18.6501 H   0  0  0  0  0  0  0  0  0  0  0  0
    6.4031    0.3571   20.0047 C   0  0  0  0  0  0  0  0  0  0  0  0
    7.1027   -0.2522   21.2160 C   0  0  2  0  0  0  0  0  0  0  0  0
    6.4768   -0.0808   22.0956 H   0  0  0  0  0  0  0  0  0  0  0  0
    8.5200    0.3534   21.4501 C   0  0  0  0  0  0  0  0  0  0  0  0
    8.7321    0.4758   22.5289 H   0  0  0  0  0  0  0  0  0  0  0  0
    8.6395    1.3350   20.9753 H   0  0  0  0  0  0  0  0  0  0  0  0
    9.3945   -0.6248   20.8256 N   0  0  0  0  0  0  0  0  0  0  0  0
   10.4009   -0.6210   20.8954 H   0  0  0  0  0  0  0  0  0  0  0  0
    8.8853   -1.8833   20.8938 C   0  0  0  0  0  0  0  0  0  0  0  0
    9.5553   -2.8867   20.8359 O   0  0  0  0  0  0  0  0  0  0  0  0
    7.3756   -1.7791   21.0209 C   0  0  1  0  0  0  0  0  0  0  0  0
    6.9992   -2.1077   20.0430 H   0  0  0  0  0  0  0  0  0  0  0  0
    6.8115   -2.7479   22.0535 C   0  0  0  0  0  0  0  0  0  0  0  0
    5.7817   -3.6229   21.6759 C   0  0  0  0  0  0  0  0  0  0  0  0
    5.3964   -3.5632   20.6605 H   0  0  0  0  0  0  0  0  0  0  0  0
    5.2793   -4.5664   22.5754 C   0  0  0  0  0  0  0  0  0  0  0  0
    4.4993   -5.2551   22.2582 H   0  0  0  0  0  0  0  0  0  0  0  0
    5.7748   -4.6336   23.8801 C   0  0  0  0  0  0  0  0  0  0  0  0
    5.3279   -5.3392   24.5805 H   0  0  0  0  0  0  0  0  0  0  0  0
    6.8157   -3.7692   24.2611 C   0  0  0  0  0  0  0  0  0  0  0  0
    7.5015   -3.8543   25.9222 S   0  0  0  0  0  0  0  0  0  0  0  0
    6.5217   -4.4708   26.8096 O   0  0  0  0  0  0  0  0  0  0  0  0
    8.1209   -2.5722   26.2396 O   0  0  0  0  0  0  0  0  0  0  0  0
    8.8281   -5.0070   25.7694 C   0  0  0  0  0  0  0  0  0  0  0  0
    8.4101   -5.9808   25.5173 H   0  0  0  0  0  0  0  0  0  0  0  0
    9.2994   -5.0176   26.7533 H   0  0  0  0  0  0  0  0  0  0  0  0
    9.5152   -4.6286   25.0134 H   0  0  0  0  0  0  0  0  0  0  0  0
    7.3268   -2.8261   23.3530 C   0  0  0  0  0  0  0  0  0  0  0  0
    8.1363   -2.1571   23.6438 H   0  0  0  0  0  0  0  0  0  0  0  0
    5.1565    1.0018   20.0630 C   0  0  0  0  0  0  0  0  0  0  0  0
    4.6209    1.1131   21.0098 H   0  0  0  0  0  0  0  0  0  0  0  0
    4.6081    1.5222   18.8828 C   0  0  0  0  0  0  0  0  0  0  0  0
    3.6510    2.0324   18.8688 H   0  0  0  0  0  0  0  0  0  0  0  0
  1  2  1  0
  2  3  2  0
  3  4  1  0
  4  5  1  0
  4  6  2  0
  6  7  1  0
  7  8  1  1
  7  9  1  0
  9 10  1  0
  9 11  1  0
  9 12  1  0
 12 13  1  0
 12 14  1  0
 14 15  2  0
 14 16  1  0
 16 17  1  6
 16 18  1  0
 18 19  2  0
 19 20  1  0
 19 21  1  0
 21 22  1  0
 21 23  2  0
 23 24  1  0
 23 25  1  0
 25 26  1  0
 26 27  2  0
 26 28  2  0
 26 29  1  0
 29 30  1  0
 29 31  1  0
 29 32  1  0
 25 33  2  0
 33 34  1  0
  6 35  1  0
 35 36  1  0
 35 37  2  0
 37 38  1  0
 37  2  1  0
 16  7  1  0
 33 18  1  0
M  END
>  <cnnaffinity>  (1) 
-5.28781

>  <filename>  (1) 
CS(=O)(=O)c1cccc([C@@H]2C(=O)NC[C@H]2c2cccnc2)c1

$$$$
