
     RDKit          3D

 34 36  0  0  0  0  0  0  0  0999 V2000
    4.9892    1.8375   16.9253 H   0  0  0  0  0  0  0  0  0  0  0  0
    5.3888    1.3069   17.7895 C   0  0  0  0  0  0  0  0  0  0  0  0
    6.5433    0.6491   17.5965 N   0  0  0  0  0  0  0  0  0  0  0  0
    7.0711    0.0225   18.6558 C   0  0  0  0  0  0  0  0  0  0  0  0
    8.0143   -0.4922   18.4727 H   0  0  0  0  0  0  0  0  0  0  0  0
    6.4894   -0.0198   19.9404 C   0  0  0  0  0  0  0  0  0  0  0  0
    7.2363   -0.6467   21.0464 C   0  0  0  0  0  0  0  0  0  0  0  0
    8.5954   -0.5939   21.2829 C   0  0  0  0  0  0  0  0  0  0  0  0
    8.7984   -1.2073   22.5112 C   0  0  0  0  0  0  0  0  0  0  0  0
    7.6803   -1.6540   23.0497 N   0  0  0  0  0  0  0  0  0  0  0  0
    6.7354   -1.3014   22.1406 N   0  0  0  0  0  0  0  0  0  0  0  0
    5.7707   -1.5169   22.3599 H   0  0  0  0  0  0  0  0  0  0  0  0
   10.2146   -1.0923   22.9904 C   0  0  0  0  0  0  0  0  0  0  0  0
   10.2396   -0.4750   23.8964 H   0  0  0  0  0  0  0  0  0  0  0  0
   10.6542   -2.0627   23.2370 H   0  0  0  0  0  0  0  0  0  0  0  0
   10.9490   -0.4167   21.7886 C   0  0  2  0  0  0  0  0  0  0  0  0
   11.6308   -1.1453   21.3437 H   0  0  0  0  0  0  0  0  0  0  0  0
   11.7445    0.8205   22.1862 C   0  0  0  0  0  0  0  0  0  0  0  0
   12.1634    1.3321   21.3166 H   0  0  0  0  0  0  0  0  0  0  0  0
   11.1351    1.5531   22.7175 H   0  0  0  0  0  0  0  0  0  0  0  0
   13.2144    0.5964   23.1685 S   0  0  0  0  0  0  0  0  0  0  0  0
   13.9287    1.8631   23.1021 O   0  0  0  0  0  0  0  0  0  0  0  0
   13.8657   -0.6469   22.7858 O   0  0  0  0  0  0  0  0  0  0  0  0
   12.7027    0.4531   24.8477 C   0  0  0  0  0  0  0  0  0  0  0  0
   12.2695    1.4140   25.1133 H   0  0  0  0  0  0  0  0  0  0  0  0
   12.0212   -0.3792   25.0084 H   0  0  0  0  0  0  0  0  0  0  0  0
   13.6324    0.2903   25.3918 H   0  0  0  0  0  0  0  0  0  0  0  0
    9.8618   -0.0567   20.7184 C   0  0  0  0  0  0  0  0  0  0  0  0
   10.0877   -0.5522   19.7725 H   0  0  0  0  0  0  0  0  0  0  0  0
    9.7994    1.0208   20.5090 H   0  0  0  0  0  0  0  0  0  0  0  0
    5.2703    0.6612   20.1134 C   0  0  0  0  0  0  0  0  0  0  0  0
    4.7852    0.6998   21.0913 H   0  0  0  0  0  0  0  0  0  0  0  0
    4.7227    1.3341   19.0209 C   0  0  0  0  0  0  0  0  0  0  0  0
    3.8064    1.9055   19.1119 H   0  0  0  0  0  0  0  0  0  0  0  0
  1  2  1  0
  2  3  2  0
  3  4  1  0
  4  5  1  0
  4  6  2  0
  6  7  1  0
  7  8  2  0
  8  9  1  0
  9 10  2  0
 10 11  1  0
 11 12  1  0
  9 13  1  0
 13 14  1  0
 13 15  1  0
 13 16  1  0
 16 17  1  6
 16 18  1  0
 18 19  1  0
 18 20  1  0
 18 21  1  0
 21 22  2  0
 21 23  2  0
 21 24  1  0
 24 25  1  0
 24 26  1  0
 24 27  1  0
 16 28  1  0
 28 29  1  0
 28 30  1  0
  6 31  1  0
 31 32  1  0
 31 33  2  0
 33 34  1  0
 33  2  1  0
 11  7  1  0
 28  8  1  0
M  END
>  <cnnaffinity>  (1) 
-5.6003

>  <filename>  (1) 
CS(=O)(=O)C[C@H]1Cc2n[nH]c(-c3cccnc3)c2C1

$$$$
