
     RDKit          3D

 27 29  0  0  0  0  0  0  0  0999 V2000
    4.9309    1.8112   16.9766 H   0  0  0  0  0  0  0  0  0  0  0  0
    5.3924    1.3040   17.8238 C   0  0  0  0  0  0  0  0  0  0  0  0
    6.5478    0.6752   17.5675 N   0  0  0  0  0  0  0  0  0  0  0  0
    7.1326    0.0197   18.5760 C   0  0  0  0  0  0  0  0  0  0  0  0
    8.0931   -0.4421   18.3510 H   0  0  0  0  0  0  0  0  0  0  0  0
    6.5990   -0.0503   19.8721 C   0  0  0  0  0  0  0  0  0  0  0  0
    7.3737   -0.6996   21.0000 C   0  0  1  0  0  0  0  0  0  0  0  0
    6.7059   -0.9838   21.8220 H   0  0  0  0  0  0  0  0  0  0  0  0
    7.9821   -1.8597   20.5181 F   0  0  0  0  0  0  0  0  0  0  0  0
    8.4266    0.2236   21.5936 C   0  0  0  0  0  0  0  0  0  0  0  0
    8.2378    1.0139   22.6176 N   0  0  0  0  0  0  0  0  0  0  0  0
    9.4145    1.7450   22.7159 C   0  0  0  0  0  0  0  0  0  0  0  0
    9.7756    2.7467   23.6294 C   0  0  0  0  0  0  0  0  0  0  0  0
    9.0443    3.0482   24.3722 H   0  0  0  0  0  0  0  0  0  0  0  0
   11.0535    3.3024   23.5379 C   0  0  0  0  0  0  0  0  0  0  0  0
   11.3476    4.0761   24.2382 H   0  0  0  0  0  0  0  0  0  0  0  0
   11.9655    2.8756   22.5396 C   0  0  0  0  0  0  0  0  0  0  0  0
   12.9572    3.3232   22.4882 H   0  0  0  0  0  0  0  0  0  0  0  0
   11.6059    1.8971   21.6135 C   0  0  0  0  0  0  0  0  0  0  0  0
   12.2948    1.5834   20.8435 H   0  0  0  0  0  0  0  0  0  0  0  0
   10.3233    1.3488   21.7166 C   0  0  0  0  0  0  0  0  0  0  0  0
    9.6528    0.3774   20.9970 N   0  0  0  0  0  0  0  0  0  0  0  0
   10.0247   -0.1913   20.2567 H   0  0  0  0  0  0  0  0  0  0  0  0
    5.4107    0.6345   20.1342 C   0  0  0  0  0  0  0  0  0  0  0  0
    4.9925    0.6519   21.1448 H   0  0  0  0  0  0  0  0  0  0  0  0
    4.7930    1.3187   19.0866 C   0  0  0  0  0  0  0  0  0  0  0  0
    3.8686    1.8592   19.2339 H   0  0  0  0  0  0  0  0  0  0  0  0
  1  2  1  0
  2  3  2  0
  3  4  1  0
  4  5  1  0
  4  6  2  0
  6  7  1  0
  7  8  1  1
  7  9  1  0
  7 10  1  0
 10 11  2  0
 11 12  1  0
 12 13  2  0
 13 14  1  0
 13 15  1  0
 15 16  1  0
 15 17  2  0
 17 18  1  0
 17 19  1  0
 19 20  1  0
 19 21  2  0
 21 22  1  0
 22 23  1  0
  6 24  1  0
 24 25  1  0
 24 26  2  0
 26 27  1  0
 26  2  1  0
 22 10  1  0
 21 12  1  0
M  END
>  <cnnaffinity>  (1) 
-4.69264

>  <filename>  (1) 
F[C@H](c1cccnc1)c1nc2ccccc2[nH]1

$$$$
