
     RDKit          3D

 27 28  0  0  0  0  0  0  0  0999 V2000
    4.9199    1.7844   16.9930 H   0  0  0  0  0  0  0  0  0  0  0  0
    5.4024    1.2950   17.8353 C   0  0  0  0  0  0  0  0  0  0  0  0
    6.5675    0.6825   17.5724 N   0  0  0  0  0  0  0  0  0  0  0  0
    7.1629    0.0616   18.5948 C   0  0  0  0  0  0  0  0  0  0  0  0
    8.1146   -0.4209   18.3686 H   0  0  0  0  0  0  0  0  0  0  0  0
    6.6412   -0.0121   19.8912 C   0  0  0  0  0  0  0  0  0  0  0  0
    7.4457   -0.6885   20.9716 C   0  0  2  0  0  0  0  0  0  0  0  0
    7.9643   -1.5668   20.5585 H   0  0  0  0  0  0  0  0  0  0  0  0
    6.5789   -1.1757   21.9392 F   0  0  0  0  0  0  0  0  0  0  0  0
    8.4840    0.2420   21.6357 C   0  0  0  0  0  0  0  0  0  0  0  0
    9.1647    0.5702   20.8405 H   0  0  0  0  0  0  0  0  0  0  0  0
    9.0725   -0.3463   22.3470 H   0  0  0  0  0  0  0  0  0  0  0  0
    7.8852    1.4527   22.3227 C   0  0  0  0  0  0  0  0  0  0  0  0
    7.7179    2.6427   21.6011 C   0  0  0  0  0  0  0  0  0  0  0  0
    8.0606    2.6030   20.5737 H   0  0  0  0  0  0  0  0  0  0  0  0
    7.1073    3.7704   22.1527 C   0  0  0  0  0  0  0  0  0  0  0  0
    6.9785    4.6805   21.5661 H   0  0  0  0  0  0  0  0  0  0  0  0
    6.6598    3.7209   23.4764 C   0  0  0  0  0  0  0  0  0  0  0  0
    6.1955    4.5907   23.9317 H   0  0  0  0  0  0  0  0  0  0  0  0
    6.8123    2.5519   24.2252 C   0  0  0  0  0  0  0  0  0  0  0  0
    6.4815    2.4869   25.2560 H   0  0  0  0  0  0  0  0  0  0  0  0
    7.4183    1.4350   23.6459 C   0  0  0  0  0  0  0  0  0  0  0  0
    7.5958    0.0098   24.6258 Cl  0  0  0  0  0  0  0  0  0  0  0  0
    5.4211    0.6338   20.1527 C   0  0  0  0  0  0  0  0  0  0  0  0
    5.0083    0.6312   21.1660 H   0  0  0  0  0  0  0  0  0  0  0  0
    4.8029    1.3073   19.0993 C   0  0  0  0  0  0  0  0  0  0  0  0
    3.8726    1.8446   19.2522 H   0  0  0  0  0  0  0  0  0  0  0  0
  1  2  1  0
  2  3  2  0
  3  4  1  0
  4  5  1  0
  4  6  2  0
  6  7  1  0
  7  8  1  6
  7  9  1  0
  7 10  1  0
 10 11  1  0
 10 12  1  0
 10 13  1  0
 13 14  2  0
 14 15  1  0
 14 16  1  0
 16 17  1  0
 16 18  2  0
 18 19  1  0
 18 20  1  0
 20 21  1  0
 20 22  2  0
 22 23  1  0
  6 24  1  0
 24 25  1  0
 24 26  2  0
 26 27  1  0
 26  2  1  0
 22 13  1  0
M  END
>  <cnnaffinity>  (1) 
-4.37374

>  <filename>  (1) 
F[C@H](Cc1ccccc1Cl)c1cccnc1

$$$$
