
     RDKit          3D

 27 28  0  0  0  0  0  0  0  0999 V2000
    4.9231    1.7829   16.9936 H   0  0  0  0  0  0  0  0  0  0  0  0
    5.4054    1.2946   17.8381 C   0  0  0  0  0  0  0  0  0  0  0  0
    6.5682    0.6791   17.5790 N   0  0  0  0  0  0  0  0  0  0  0  0
    7.1668    0.0579   18.6009 C   0  0  0  0  0  0  0  0  0  0  0  0
    8.1162   -0.4241   18.3757 H   0  0  0  0  0  0  0  0  0  0  0  0
    6.6384   -0.0111   19.8993 C   0  0  0  0  0  0  0  0  0  0  0  0
    7.4141   -0.6696   21.0109 C   0  0  1  0  0  0  0  0  0  0  0  0
    6.7393   -0.8869   21.8499 H   0  0  0  0  0  0  0  0  0  0  0  0
    7.9283   -1.8806   20.5650 F   0  0  0  0  0  0  0  0  0  0  0  0
    8.5919    0.1800   21.5116 C   0  0  0  0  0  0  0  0  0  0  0  0
    9.2591    0.3681   20.6607 H   0  0  0  0  0  0  0  0  0  0  0  0
    9.1539   -0.4112   22.2429 H   0  0  0  0  0  0  0  0  0  0  0  0
    8.1324    1.4879   22.1155 C   0  0  0  0  0  0  0  0  0  0  0  0
    8.1037    2.6517   21.3379 C   0  0  0  0  0  0  0  0  0  0  0  0
    8.4578    2.5576   20.3175 H   0  0  0  0  0  0  0  0  0  0  0  0
    7.6268    3.8675   21.8390 C   0  0  0  0  0  0  0  0  0  0  0  0
    7.6191    4.7711   21.2307 H   0  0  0  0  0  0  0  0  0  0  0  0
    7.1516    3.9344   23.1470 C   0  0  0  0  0  0  0  0  0  0  0  0
    6.7848    4.8766   23.5408 H   0  0  0  0  0  0  0  0  0  0  0  0
    7.1505    2.7914   23.9475 C   0  0  0  0  0  0  0  0  0  0  0  0
    6.7907    2.8199   24.9706 H   0  0  0  0  0  0  0  0  0  0  0  0
    7.6311    1.5902   23.4237 C   0  0  0  0  0  0  0  0  0  0  0  0
    7.5891    0.1851   24.4485 Cl  0  0  0  0  0  0  0  0  0  0  0  0
    5.4278    0.6467   20.1575 C   0  0  0  0  0  0  0  0  0  0  0  0
    5.0033    0.6394   21.1668 H   0  0  0  0  0  0  0  0  0  0  0  0
    4.8017    1.3139   19.1023 C   0  0  0  0  0  0  0  0  0  0  0  0
    3.8678    1.8492   19.2528 H   0  0  0  0  0  0  0  0  0  0  0  0
  1  2  1  0
  2  3  2  0
  3  4  1  0
  4  5  1  0
  4  6  2  0
  6  7  1  0
  7  8  1  1
  7  9  1  0
  7 10  1  0
 10 11  1  0
 10 12  1  0
 10 13  1  0
 13 14  2  0
 14 15  1  0
 14 16  1  0
 16 17  1  0
 16 18  2  0
 18 19  1  0
 18 20  1  0
 20 21  1  0
 20 22  2  0
 22 23  1  0
  6 24  1  0
 24 25  1  0
 24 26  2  0
 26 27  1  0
 26  2  1  0
 22 13  1  0
M  END
>  <cnnaffinity>  (1) 
-4.17617

>  <filename>  (1) 
F[C@@H](Cc1ccccc1Cl)c1cccnc1

$$$$
