
     RDKit          3D

 30 31  0  0  0  0  0  0  0  0999 V2000
    5.0237    1.7427   17.0095 H   0  0  0  0  0  0  0  0  0  0  0  0
    5.4806    1.2654   17.8758 C   0  0  0  0  0  0  0  0  0  0  0  0
    6.6301    0.6115   17.6485 N   0  0  0  0  0  0  0  0  0  0  0  0
    7.1989    0.0067   18.6962 C   0  0  0  0  0  0  0  0  0  0  0  0
    8.1153   -0.5507   18.4814 H   0  0  0  0  0  0  0  0  0  0  0  0
    6.6811    0.0187   19.9996 C   0  0  0  0  0  0  0  0  0  0  0  0
    7.3825   -0.7593   21.0813 C   0  0  2  0  0  0  0  0  0  0  0  0
    8.1064   -1.4257   20.5971 H   0  0  0  0  0  0  0  0  0  0  0  0
    6.4537   -1.6046   21.7002 F   0  0  0  0  0  0  0  0  0  0  0  0
    8.1450    0.0287   22.1648 C   0  0  0  0  0  0  0  0  0  0  0  0
    9.0429    0.4495   21.7112 H   0  0  0  0  0  0  0  0  0  0  0  0
    8.4946   -0.7366   22.8685 H   0  0  0  0  0  0  0  0  0  0  0  0
    7.3530    1.0670   22.9481 C   0  0  0  0  0  0  0  0  0  0  0  0
    6.4507    0.6035   23.9179 C   0  0  0  0  0  0  0  0  0  0  0  0
    6.4539   -0.4581   24.1466 H   0  0  0  0  0  0  0  0  0  0  0  0
    5.6118    1.4643   24.6293 C   0  0  0  0  0  0  0  0  0  0  0  0
    4.9565    1.0689   25.4022 H   0  0  0  0  0  0  0  0  0  0  0  0
    5.6431    2.8346   24.3494 C   0  0  0  0  0  0  0  0  0  0  0  0
    4.9723    3.5190   24.8587 H   0  0  0  0  0  0  0  0  0  0  0  0
    6.5714    3.3282   23.4325 C   0  0  0  0  0  0  0  0  0  0  0  0
    6.6094    4.3945   23.2259 H   0  0  0  0  0  0  0  0  0  0  0  0
    7.4605    2.4617   22.7690 C   0  0  0  0  0  0  0  0  0  0  0  0
    8.6107    3.0644   21.9918 C   0  0  0  0  0  0  0  0  0  0  0  0
    8.4816    4.3979   21.8539 F   0  0  0  0  0  0  0  0  0  0  0  0
    8.7460    2.5346   20.7584 F   0  0  0  0  0  0  0  0  0  0  0  0
    9.7855    2.8621   22.6297 F   0  0  0  0  0  0  0  0  0  0  0  0
    5.4741    0.6977   20.2118 C   0  0  0  0  0  0  0  0  0  0  0  0
    5.0282    0.7109   21.2076 H   0  0  0  0  0  0  0  0  0  0  0  0
    4.8658    1.3351   19.1281 C   0  0  0  0  0  0  0  0  0  0  0  0
    3.9290    1.8698   19.2391 H   0  0  0  0  0  0  0  0  0  0  0  0
  1  2  1  0
  2  3  2  0
  3  4  1  0
  4  5  1  0
  4  6  2  0
  6  7  1  0
  7  8  1  6
  7  9  1  0
  7 10  1  0
 10 11  1  0
 10 12  1  0
 10 13  1  0
 13 14  2  0
 14 15  1  0
 14 16  1  0
 16 17  1  0
 16 18  2  0
 18 19  1  0
 18 20  1  0
 20 21  1  0
 20 22  2  0
 22 23  1  0
 23 24  1  0
 23 25  1  0
 23 26  1  0
  6 27  1  0
 27 28  1  0
 27 29  2  0
 29 30  1  0
 29  2  1  0
 22 13  1  0
M  END
>  <cnnaffinity>  (1) 
-4.48296

>  <filename>  (1) 
F[C@H](Cc1ccccc1C(F)(F)F)c1cccnc1

$$$$
