
     RDKit          3D

 33 36  0  0  0  0  0  0  0  0999 V2000
    4.9806   -6.8342   25.6981 H   0  0  0  0  0  0  0  0  0  0  0  0
    4.6477   -6.1191   24.9484 C   0  0  0  0  0  0  0  0  0  0  0  0
    5.5711   -5.2967   24.4543 N   0  0  0  0  0  0  0  0  0  0  0  0
    5.1710   -4.4125   23.5291 C   0  0  0  0  0  0  0  0  0  0  0  0
    6.1601   -3.4617   22.8822 C   0  0  0  0  0  0  0  0  0  0  0  0
    7.4779   -3.3376   23.1615 N   0  0  0  0  0  0  0  0  0  0  0  0
    7.8674   -2.3736   22.3066 N   0  0  0  0  0  0  0  0  0  0  0  0
    9.0589   -1.7057   22.0730 C   0  0  0  0  0  0  0  0  0  0  0  0
    9.9383   -1.9160   22.6529 H   0  0  0  0  0  0  0  0  0  0  0  0
    8.8043   -0.8240   21.0744 C   0  0  0  0  0  0  0  0  0  0  0  0
    9.4334   -0.0845   20.6071 H   0  0  0  0  0  0  0  0  0  0  0  0
    7.4686   -0.9238   20.6944 N   0  0  0  0  0  0  0  0  0  0  0  0
    6.8175   -0.0949   19.7460 C   0  0  0  0  0  0  0  0  0  0  0  0
    7.3098    0.0472   18.4314 C   0  0  0  0  0  0  0  0  0  0  0  0
    8.2525   -0.4116   18.1268 H   0  0  0  0  0  0  0  0  0  0  0  0
    6.6563    0.7205   17.4774 N   0  0  0  0  0  0  0  0  0  0  0  0
    5.5015    1.3228   17.8053 C   0  0  0  0  0  0  0  0  0  0  0  0
    5.0052    1.8627   17.0047 H   0  0  0  0  0  0  0  0  0  0  0  0
    4.9620    1.2959   19.0974 C   0  0  0  0  0  0  0  0  0  0  0  0
    4.0463    1.8388   19.3147 H   0  0  0  0  0  0  0  0  0  0  0  0
    5.6391    0.5865   20.0904 C   0  0  0  0  0  0  0  0  0  0  0  0
    5.2898    0.5691   21.1235 H   0  0  0  0  0  0  0  0  0  0  0  0
    6.8904   -1.8949   21.5021 C   0  0  0  0  0  0  0  0  0  0  0  0
    5.7446   -2.5847   21.8488 C   0  0  0  0  0  0  0  0  0  0  0  0
    4.7286   -2.4965   21.5375 H   0  0  0  0  0  0  0  0  0  0  0  0
    3.8886   -4.3135   23.0809 N   0  0  0  0  0  0  0  0  0  0  0  0
    2.9640   -5.1312   23.5863 C   0  0  0  0  0  0  0  0  0  0  0  0
    1.4542   -5.0827   23.1526 C   0  0  0  0  0  0  0  0  0  0  0  0
    1.1368   -4.2067   22.2007 F   0  0  0  0  0  0  0  0  0  0  0  0
    0.6775   -4.8074   24.2236 F   0  0  0  0  0  0  0  0  0  0  0  0
    1.0742   -6.2969   22.6988 F   0  0  0  0  0  0  0  0  0  0  0  0
    3.3187   -6.0886   24.5403 C   0  0  0  0  0  0  0  0  0  0  0  0
    2.5912   -6.7793   24.9333 H   0  0  0  0  0  0  0  0  0  0  0  0
  1  2  1  0
  2  3  2  0
  3  4  1  0
  4  5  1  0
  5  6  2  0
  6  7  1  0
  7  8  1  0
  8  9  1  0
  8 10  2  0
 10 11  1  0
 10 12  1  0
 12 13  1  0
 13 14  2  0
 14 15  1  0
 14 16  1  0
 16 17  2  0
 17 18  1  0
 17 19  1  0
 19 20  1  0
 19 21  2  0
 21 22  1  0
 12 23  1  0
 23 24  2  0
 24 25  1  0
  4 26  2  0
 26 27  1  0
 27 28  1  0
 28 29  1  0
 28 30  1  0
 28 31  1  0
 27 32  2  0
 32 33  1  0
 32  2  1  0
 24  5  1  0
 23  7  1  0
 21 13  1  0
M  END
>  <cnnaffinity>  (1) 
-5.67757

>  <filename>  (1) 
FC(F)(F)c1ccnc(-c2cc3n(-c4cccnc4)ccn3n2)n1

$$$$
