
     RDKit          3D

 32 34  0  0  0  0  0  0  0  0999 V2000
    4.9112    1.7935   16.9846 H   0  0  0  0  0  0  0  0  0  0  0  0
    5.3911    1.3029   17.8249 C   0  0  0  0  0  0  0  0  0  0  0  0
    6.5566    0.6903   17.5545 N   0  0  0  0  0  0  0  0  0  0  0  0
    7.1606    0.0644   18.5691 C   0  0  0  0  0  0  0  0  0  0  0  0
    8.1178   -0.4048   18.3412 H   0  0  0  0  0  0  0  0  0  0  0  0
    6.6498    0.0101   19.8817 C   0  0  0  0  0  0  0  0  0  0  0  0
    7.3656   -0.6620   20.9681 C   0  0  0  0  0  0  0  0  0  0  0  0
    7.5119   -0.3203   22.3052 C   0  0  0  0  0  0  0  0  0  0  0  0
    7.0398    0.8522   22.9083 N   0  0  0  0  0  0  0  0  0  0  0  0
    6.9912    1.6643   22.3077 H   0  0  0  0  0  0  0  0  0  0  0  0
    6.8207    1.0480   24.2701 C   0  0  0  0  0  0  0  0  0  0  0  0
    6.3639    0.0067   25.1160 C   0  0  0  0  0  0  0  0  0  0  0  0
    6.1744   -0.9781   24.6974 H   0  0  0  0  0  0  0  0  0  0  0  0
    6.1424    0.1481   26.4218 N   0  0  0  0  0  0  0  0  0  0  0  0
    6.3578    1.3481   26.9846 C   0  0  0  0  0  0  0  0  0  0  0  0
    6.0885    1.5227   28.4942 C   0  0  0  0  0  0  0  0  0  0  0  0
    7.1810    2.0105   29.1234 F   0  0  0  0  0  0  0  0  0  0  0  0
    5.7309    0.3982   29.1207 F   0  0  0  0  0  0  0  0  0  0  0  0
    5.1082    2.4306   28.7010 F   0  0  0  0  0  0  0  0  0  0  0  0
    6.7989    2.4544   26.2271 C   0  0  0  0  0  0  0  0  0  0  0  0
    6.9488    3.4138   26.7082 H   0  0  0  0  0  0  0  0  0  0  0  0
    7.0266    2.3072   24.8571 C   0  0  0  0  0  0  0  0  0  0  0  0
    7.3762    3.1444   24.2495 H   0  0  0  0  0  0  0  0  0  0  0  0
    8.2832   -1.3735   22.8565 C   0  0  0  0  0  0  0  0  0  0  0  0
    8.6190   -1.4543   23.8773 H   0  0  0  0  0  0  0  0  0  0  0  0
    8.6028   -2.2894   21.9490 N   0  0  0  0  0  0  0  0  0  0  0  0
    8.0484   -1.8268   20.8200 N   0  0  0  0  0  0  0  0  0  0  0  0
    8.1350   -2.3600   19.9708 H   0  0  0  0  0  0  0  0  0  0  0  0
    5.4332    0.6611   20.1442 C   0  0  0  0  0  0  0  0  0  0  0  0
    5.0164    0.6252   21.1535 H   0  0  0  0  0  0  0  0  0  0  0  0
    4.7960    1.3177   19.0924 C   0  0  0  0  0  0  0  0  0  0  0  0
    3.8654    1.8486   19.2494 H   0  0  0  0  0  0  0  0  0  0  0  0
  1  2  1  0
  2  3  2  0
  3  4  1  0
  4  5  1  0
  4  6  2  0
  6  7  1  0
  7  8  2  0
  8  9  1  0
  9 10  1  0
  9 11  1  0
 11 12  2  0
 12 13  1  0
 12 14  1  0
 14 15  2  0
 15 16  1  0
 16 17  1  0
 16 18  1  0
 16 19  1  0
 15 20  1  0
 20 21  1  0
 20 22  2  0
 22 23  1  0
  8 24  1  0
 24 25  1  0
 24 26  2  0
 26 27  1  0
 27 28  1  0
  6 29  1  0
 29 30  1  0
 29 31  2  0
 31 32  1  0
 31  2  1  0
 27  7  1  0
 22 11  1  0
M  END
>  <cnnaffinity>  (1) 
-5.61891

>  <filename>  (1) 
FC(F)(F)c1ccc(Nc2cn[nH]c2-c2cccnc2)cn1

$$$$
