
     RDKit          3D

 29 31  0  0  0  0  0  0  0  0999 V2000
    4.9254    1.8018   16.9788 H   0  0  0  0  0  0  0  0  0  0  0  0
    5.4009    1.2949   17.8182 C   0  0  0  0  0  0  0  0  0  0  0  0
    6.5611    0.6776   17.5572 N   0  0  0  0  0  0  0  0  0  0  0  0
    7.1845    0.0631   18.5706 C   0  0  0  0  0  0  0  0  0  0  0  0
    8.1323   -0.4121   18.3283 H   0  0  0  0  0  0  0  0  0  0  0  0
    6.6793    0.0145   19.8830 C   0  0  0  0  0  0  0  0  0  0  0  0
    7.4000   -0.6996   20.9535 C   0  0  0  0  0  0  0  0  0  0  0  0
    8.6304   -1.2134   20.7874 N   0  0  0  0  0  0  0  0  0  0  0  0
    8.8724   -1.7896   21.9874 N   0  0  0  0  0  0  0  0  0  0  0  0
    9.9021   -2.5457   22.5213 C   0  0  0  0  0  0  0  0  0  0  0  0
   10.7809   -2.7178   21.9255 H   0  0  0  0  0  0  0  0  0  0  0  0
    9.5016   -2.9080   23.7691 C   0  0  0  0  0  0  0  0  0  0  0  0
    9.9470   -3.5171   24.5401 H   0  0  0  0  0  0  0  0  0  0  0  0
    8.2590   -2.3523   23.9896 N   0  0  0  0  0  0  0  0  0  0  0  0
    7.5284   -2.6793   25.1047 O   0  0  0  0  0  0  0  0  0  0  0  0
    6.3229   -1.9430   25.3297 C   0  0  0  0  0  0  0  0  0  0  0  0
    5.6880   -1.9187   24.4397 H   0  0  0  0  0  0  0  0  0  0  0  0
    5.8522   -2.5324   26.1115 H   0  0  0  0  0  0  0  0  0  0  0  0
    6.4851   -0.5213   25.8529 C   0  0  0  0  0  0  0  0  0  0  0  0
    7.1795   -0.4955   26.9978 F   0  0  0  0  0  0  0  0  0  0  0  0
    7.0785    0.3099   24.9791 F   0  0  0  0  0  0  0  0  0  0  0  0
    5.2574   -0.0250   26.0978 F   0  0  0  0  0  0  0  0  0  0  0  0
    7.8628   -1.6759   22.8689 C   0  0  0  0  0  0  0  0  0  0  0  0
    6.8682   -0.9431   22.2378 C   0  0  0  0  0  0  0  0  0  0  0  0
    5.9444   -0.5703   22.6147 H   0  0  0  0  0  0  0  0  0  0  0  0
    5.4547    0.6571   20.1324 C   0  0  0  0  0  0  0  0  0  0  0  0
    5.0089    0.6570   21.1288 H   0  0  0  0  0  0  0  0  0  0  0  0
    4.8093    1.3114   19.0855 C   0  0  0  0  0  0  0  0  0  0  0  0
    3.8754    1.8392   19.2420 H   0  0  0  0  0  0  0  0  0  0  0  0
  1  2  1  0
  2  3  2  0
  3  4  1  0
  4  5  1  0
  4  6  2  0
  6  7  1  0
  7  8  2  0
  8  9  1  0
  9 10  1  0
 10 11  1  0
 10 12  2  0
 12 13  1  0
 12 14  1  0
 14 15  1  0
 15 16  1  0
 16 17  1  0
 16 18  1  0
 16 19  1  0
 19 20  1  0
 19 21  1  0
 19 22  1  0
 14 23  1  0
 23 24  2  0
 24 25  1  0
  6 26  1  0
 26 27  1  0
 26 28  2  0
 28 29  1  0
 28  2  1  0
 24  7  1  0
 23  9  1  0
M  END
>  <cnnaffinity>  (1) 
-5.22327

>  <filename>  (1) 
FC(F)(F)COn1ccn2nc(-c3cccnc3)cc12

$$$$
