
     RDKit          3D

 34 36  0  0  0  0  0  0  0  0999 V2000
    5.3595   -2.3961   20.9389 H   0  0  0  0  0  0  0  0  0  0  0  0
    5.8822   -2.3952   21.8984 C   0  0  0  0  0  0  0  0  0  0  0  0
    7.0304   -1.6919   21.9858 C   0  0  0  0  0  0  0  0  0  0  0  0
    7.5290   -0.7121   20.9801 C   0  0  0  0  0  0  0  0  0  0  0  0
    6.7079   -0.0292   19.9422 C   0  0  0  0  0  0  0  0  0  0  0  0
    7.2400    0.0488   18.6452 C   0  0  0  0  0  0  0  0  0  0  0  0
    8.2039   -0.4050   18.4206 H   0  0  0  0  0  0  0  0  0  0  0  0
    6.6332    0.6496   17.6192 N   0  0  0  0  0  0  0  0  0  0  0  0
    5.4604    1.2553   17.8667 C   0  0  0  0  0  0  0  0  0  0  0  0
    4.9855    1.7507   17.0198 H   0  0  0  0  0  0  0  0  0  0  0  0
    4.8496    1.2525   19.1222 C   0  0  0  0  0  0  0  0  0  0  0  0
    3.9136    1.7816   19.2525 H   0  0  0  0  0  0  0  0  0  0  0  0
    5.4724    0.5923   20.1836 C   0  0  0  0  0  0  0  0  0  0  0  0
    5.0218    0.5814   21.1773 H   0  0  0  0  0  0  0  0  0  0  0  0
    8.7917   -0.4979   21.0516 N   0  0  0  0  0  0  0  0  0  0  0  0
    9.3634   -1.2591   22.1685 C   0  0  0  0  0  0  0  0  0  0  0  0
   10.0235   -2.0410   21.7679 H   0  0  0  0  0  0  0  0  0  0  0  0
    9.9875   -0.6143   22.7946 H   0  0  0  0  0  0  0  0  0  0  0  0
    8.1780   -1.8513   22.9728 C   0  0  0  0  0  0  0  0  0  0  0  0
    8.3472   -2.8852   23.2842 H   0  0  0  0  0  0  0  0  0  0  0  0
    8.0113   -1.2395   23.8703 H   0  0  0  0  0  0  0  0  0  0  0  0
    5.2529   -3.2097   22.9582 C   0  0  0  0  0  0  0  0  0  0  0  0
    5.3732   -2.9060   24.3348 C   0  0  0  0  0  0  0  0  0  0  0  0
    5.9260   -2.0252   24.6546 H   0  0  0  0  0  0  0  0  0  0  0  0
    4.8131   -3.6204   25.3150 N   0  0  0  0  0  0  0  0  0  0  0  0
    4.0762   -4.6970   24.9917 C   0  0  0  0  0  0  0  0  0  0  0  0
    3.4587   -5.5894   26.0924 C   0  0  0  0  0  0  0  0  0  0  0  0
    3.7522   -5.2163   27.3386 F   0  0  0  0  0  0  0  0  0  0  0  0
    2.1127   -5.6064   25.9785 F   0  0  0  0  0  0  0  0  0  0  0  0
    3.8509   -6.8767   25.9478 F   0  0  0  0  0  0  0  0  0  0  0  0
    3.8439   -5.0508   23.6518 C   0  0  0  0  0  0  0  0  0  0  0  0
    3.2165   -5.9035   23.4206 H   0  0  0  0  0  0  0  0  0  0  0  0
    4.4493   -4.3215   22.6372 C   0  0  0  0  0  0  0  0  0  0  0  0
    4.3626   -4.6577   21.6087 H   0  0  0  0  0  0  0  0  0  0  0  0
  1  2  1  0
  2  3  2  3
  3  4  1  0
  4  5  1  0
  5  6  2  0
  6  7  1  0
  6  8  1  0
  8  9  2  0
  9 10  1  0
  9 11  1  0
 11 12  1  0
 11 13  2  0
 13 14  1  0
  4 15  2  0
 15 16  1  0
 16 17  1  0
 16 18  1  0
 16 19  1  0
 19 20  1  0
 19 21  1  0
  2 22  1  0
 22 23  2  0
 23 24  1  0
 23 25  1  0
 25 26  2  0
 26 27  1  0
 27 28  1  0
 27 29  1  0
 27 30  1  0
 26 31  1  0
 31 32  1  0
 31 33  2  0
 33 34  1  0
 19  3  1  0
 33 22  1  0
 13  5  1  0
M  END
>  <cnnaffinity>  (1) 
-5.3759

>  <filename>  (1) 
FC(F)(F)c1ccc(C=C2CCN=C2c2cccnc2)cn1

$$$$
