
     RDKit          3D

 30 32  0  0  0  0  0  0  0  0999 V2000
    4.9528    1.7974   16.9622 H   0  0  0  0  0  0  0  0  0  0  0  0
    5.4223    1.3080   17.8164 C   0  0  0  0  0  0  0  0  0  0  0  0
    6.5993    0.7043   17.5897 N   0  0  0  0  0  0  0  0  0  0  0  0
    7.1746    0.0806   18.6291 C   0  0  0  0  0  0  0  0  0  0  0  0
    8.1274   -0.4040   18.4237 H   0  0  0  0  0  0  0  0  0  0  0  0
    6.6356    0.0169   19.9361 C   0  0  0  0  0  0  0  0  0  0  0  0
    7.3027   -0.6997   21.0559 C   0  0  0  0  0  0  0  0  0  0  0  0
    7.7459   -2.0486   21.1256 C   0  0  0  0  0  0  0  0  0  0  0  0
    7.6776   -2.8319   20.3954 H   0  0  0  0  0  0  0  0  0  0  0  0
    8.2260   -2.3580   22.3185 N   0  0  0  0  0  0  0  0  0  0  0  0
    8.0964   -1.2426   23.0350 N   0  0  0  0  0  0  0  0  0  0  0  0
    8.2908   -1.2404   24.0322 H   0  0  0  0  0  0  0  0  0  0  0  0
    7.5402   -0.2169   22.3491 C   0  0  0  0  0  0  0  0  0  0  0  0
    7.2529    1.0525   23.0492 C   0  0  0  0  0  0  0  0  0  0  0  0
    6.9716    0.9508   24.3678 N   0  0  0  0  0  0  0  0  0  0  0  0
    6.5752    2.0444   25.0297 C   0  0  0  0  0  0  0  0  0  0  0  0
    6.0996    1.9206   26.5039 C   0  0  0  0  0  0  0  0  0  0  0  0
    4.8606    2.4459   26.6462 F   0  0  0  0  0  0  0  0  0  0  0  0
    6.0539    0.6655   26.9558 F   0  0  0  0  0  0  0  0  0  0  0  0
    6.8948    2.6237   27.3386 F   0  0  0  0  0  0  0  0  0  0  0  0
    6.5552    3.3152   24.4263 C   0  0  0  0  0  0  0  0  0  0  0  0
    6.2444    4.1903   24.9820 H   0  0  0  0  0  0  0  0  0  0  0  0
    6.9424    3.4396   23.0918 C   0  0  0  0  0  0  0  0  0  0  0  0
    6.9550    4.4108   22.5965 H   0  0  0  0  0  0  0  0  0  0  0  0
    7.2990    2.2892   22.3915 C   0  0  0  0  0  0  0  0  0  0  0  0
    7.5936    2.3185   21.3509 H   0  0  0  0  0  0  0  0  0  0  0  0
    5.4126    0.6712   20.1443 C   0  0  0  0  0  0  0  0  0  0  0  0
    4.9611    0.6781   21.1380 H   0  0  0  0  0  0  0  0  0  0  0  0
    4.8005    1.3158   19.0666 C   0  0  0  0  0  0  0  0  0  0  0  0
    3.8493    1.8170   19.1813 H   0  0  0  0  0  0  0  0  0  0  0  0
  1  2  1  0
  2  3  2  0
  3  4  1  0
  4  5  1  0
  4  6  2  0
  6  7  1  0
  7  8  1  0
  8  9  1  0
  8 10  2  0
 10 11  1  0
 11 12  1  0
 11 13  1  0
 13 14  1  0
 14 15  2  0
 15 16  1  0
 16 17  1  0
 17 18  1  0
 17 19  1  0
 17 20  1  0
 16 21  2  0
 21 22  1  0
 21 23  1  0
 23 24  1  0
 23 25  2  0
 25 26  1  0
  6 27  1  0
 27 28  1  0
 27 29  2  0
 29 30  1  0
 29  2  1  0
 13  7  2  0
 25 14  1  0
M  END
>  <cnnaffinity>  (1) 
-5.15725

>  <filename>  (1) 
FC(F)(F)c1cccc(-c2[nH]ncc2-c2cccnc2)n1

$$$$
