
     RDKit          3D

 31 32  0  0  0  0  0  0  0  0999 V2000
    5.0503    2.2032   16.8735 H   0  0  0  0  0  0  0  0  0  0  0  0
    5.2422    1.4439   17.6286 C   0  0  0  0  0  0  0  0  0  0  0  0
    6.2316    0.5771   17.3591 N   0  0  0  0  0  0  0  0  0  0  0  0
    6.5152   -0.3298   18.2981 C   0  0  0  0  0  0  0  0  0  0  0  0
    7.2987   -1.0469   18.0453 H   0  0  0  0  0  0  0  0  0  0  0  0
    5.8645   -0.3968   19.5387 C   0  0  0  0  0  0  0  0  0  0  0  0
    6.4489   -1.2990   20.5585 C   0  0  0  0  0  0  0  0  0  0  0  0
    5.6701   -2.5993   21.2112 S   0  0  0  0  0  0  0  0  0  0  0  0
    7.7292   -1.0259   20.9040 N   0  0  0  0  0  0  0  0  0  0  0  0
    8.0585   -1.6894   21.5932 H   0  0  0  0  0  0  0  0  0  0  0  0
    8.4069    0.2736   20.8113 C   0  0  0  0  0  0  0  0  0  0  0  0
    8.6874    0.4573   19.7658 H   0  0  0  0  0  0  0  0  0  0  0  0
    7.7167    1.0810   21.0870 H   0  0  0  0  0  0  0  0  0  0  0  0
    9.6596    0.3641   21.6574 C   0  0  0  0  0  0  0  0  0  0  0  0
   10.7065   -0.5498   21.4784 C   0  0  0  0  0  0  0  0  0  0  0  0
   10.5834   -1.3877   20.7949 H   0  0  0  0  0  0  0  0  0  0  0  0
   11.9302   -0.3667   22.1161 C   0  0  0  0  0  0  0  0  0  0  0  0
   12.7264   -1.0889   21.9563 H   0  0  0  0  0  0  0  0  0  0  0  0
   12.1397    0.7559   22.9331 C   0  0  0  0  0  0  0  0  0  0  0  0
   13.5047    1.0068   23.5289 C   0  0  0  0  0  0  0  0  0  0  0  0
   14.4917    0.5828   22.7143 F   0  0  0  0  0  0  0  0  0  0  0  0
   13.6903    0.3906   24.7120 F   0  0  0  0  0  0  0  0  0  0  0  0
   13.7059    2.3197   23.7365 F   0  0  0  0  0  0  0  0  0  0  0  0
   11.0894    1.6649   23.1431 C   0  0  0  0  0  0  0  0  0  0  0  0
   11.2289    2.5513   23.7603 H   0  0  0  0  0  0  0  0  0  0  0  0
    9.8588    1.4538   22.5195 C   0  0  0  0  0  0  0  0  0  0  0  0
    9.0539    2.1656   22.6807 H   0  0  0  0  0  0  0  0  0  0  0  0
    4.7751    0.4524   19.7771 C   0  0  0  0  0  0  0  0  0  0  0  0
    4.1959    0.3780   20.7006 H   0  0  0  0  0  0  0  0  0  0  0  0
    4.4778    1.4053   18.8018 C   0  0  0  0  0  0  0  0  0  0  0  0
    3.6925    2.1375   18.9555 H   0  0  0  0  0  0  0  0  0  0  0  0
  1  2  1  0
  2  3  2  0
  3  4  1  0
  4  5  1  0
  4  6  2  0
  6  7  1  0
  7  8  2  0
  7  9  1  0
  9 10  1  0
  9 11  1  0
 11 12  1  0
 11 13  1  0
 11 14  1  0
 14 15  2  0
 15 16  1  0
 15 17  1  0
 17 18  1  0
 17 19  2  0
 19 20  1  0
 20 21  1  0
 20 22  1  0
 20 23  1  0
 19 24  1  0
 24 25  1  0
 24 26  2  0
 26 27  1  0
  6 28  1  0
 28 29  1  0
 28 30  2  0
 30 31  1  0
 30  2  1  0
 26 14  1  0
M  END
>  <cnnaffinity>  (1) 
-5.1185

>  <filename>  (1) 
FC(F)(F)c1ccc(CNC(=S)c2cccnc2)cc1

$$$$
