
     RDKit          3D

 39 42  0  0  0  0  0  0  0  0999 V2000
    4.9499    1.8256   16.9783 H   0  0  0  0  0  0  0  0  0  0  0  0
    5.3968    1.2945   17.8166 C   0  0  0  0  0  0  0  0  0  0  0  0
    6.5422    0.6395   17.5595 N   0  0  0  0  0  0  0  0  0  0  0  0
    7.1355    0.0078   18.5763 C   0  0  0  0  0  0  0  0  0  0  0  0
    8.0689   -0.5063   18.3490 H   0  0  0  0  0  0  0  0  0  0  0  0
    6.6441    0.0119   19.8878 C   0  0  0  0  0  0  0  0  0  0  0  0
    7.4333   -0.6387   20.9330 C   0  0  0  0  0  0  0  0  0  0  0  0
    7.8420   -1.9467   20.8226 N   0  0  0  0  0  0  0  0  0  0  0  0
    8.4436   -2.1797   21.9511 C   0  0  0  0  0  0  0  0  0  0  0  0
    8.5500   -1.0854   22.7517 N   0  0  0  0  0  0  0  0  0  0  0  0
    7.8962   -0.0634   22.1068 C   0  0  0  0  0  0  0  0  0  0  0  0
    7.7793    1.3352   22.6230 C   0  0  0  0  0  0  0  0  0  0  0  0
    7.8982    2.0286   21.7822 H   0  0  0  0  0  0  0  0  0  0  0  0
    8.6170    1.5337   23.3066 H   0  0  0  0  0  0  0  0  0  0  0  0
    6.4607    1.6432   23.3240 C   0  0  0  0  0  0  0  0  0  0  0  0
    6.0154    0.8654   24.3970 C   0  0  0  0  0  0  0  0  0  0  0  0
    6.6005    0.0066   24.7143 H   0  0  0  0  0  0  0  0  0  0  0  0
    4.8229    1.1577   25.0572 C   0  0  0  0  0  0  0  0  0  0  0  0
    4.5166    0.5402   25.8978 H   0  0  0  0  0  0  0  0  0  0  0  0
    4.0381    2.2462   24.6436 C   0  0  0  0  0  0  0  0  0  0  0  0
    2.7202    2.5522   25.3278 C   0  0  0  0  0  0  0  0  0  0  0  0
    2.7193    2.1895   26.6243 F   0  0  0  0  0  0  0  0  0  0  0  0
    2.4140    3.8634   25.2919 F   0  0  0  0  0  0  0  0  0  0  0  0
    1.6881    1.9057   24.7502 F   0  0  0  0  0  0  0  0  0  0  0  0
    4.4710    3.0298   23.5618 C   0  0  0  0  0  0  0  0  0  0  0  0
    3.8963    3.8867   23.2234 H   0  0  0  0  0  0  0  0  0  0  0  0
    5.6682    2.7219   22.9157 C   0  0  0  0  0  0  0  0  0  0  0  0
    5.9788    3.3056   22.0546 H   0  0  0  0  0  0  0  0  0  0  0  0
    9.4210   -1.1421   23.9049 C   0  0  0  0  0  0  0  0  0  0  0  0
    8.8874   -0.8105   24.8009 H   0  0  0  0  0  0  0  0  0  0  0  0
   10.2628   -0.4554   23.7623 H   0  0  0  0  0  0  0  0  0  0  0  0
    9.8921   -2.6167   24.0288 C   0  0  0  0  0  0  0  0  0  0  0  0
    9.6128   -3.0435   24.9916 H   0  0  0  0  0  0  0  0  0  0  0  0
   10.9736   -2.6977   23.9211 H   0  0  0  0  0  0  0  0  0  0  0  0
    9.1006   -3.6192   22.6985 S   0  0  0  0  0  0  0  0  0  0  0  0
    5.4285    0.6716   20.1328 C   0  0  0  0  0  0  0  0  0  0  0  0
    4.9934    0.6740   21.1324 H   0  0  0  0  0  0  0  0  0  0  0  0
    4.7901    1.3207   19.0778 C   0  0  0  0  0  0  0  0  0  0  0  0
    3.8557    1.8629   19.2125 H   0  0  0  0  0  0  0  0  0  0  0  0
  1  2  1  0
  2  3  2  0
  3  4  1  0
  4  5  1  0
  4  6  2  0
  6  7  1  0
  7  8  1  0
  8  9  2  0
  9 10  1  0
 10 11  1  0
 11 12  1  0
 12 13  1  0
 12 14  1  0
 12 15  1  0
 15 16  2  0
 16 17  1  0
 16 18  1  0
 18 19  1  0
 18 20  2  0
 20 21  1  0
 21 22  1  0
 21 23  1  0
 21 24  1  0
 20 25  1  0
 25 26  1  0
 25 27  2  0
 27 28  1  0
 10 29  1  0
 29 30  1  0
 29 31  1  0
 29 32  1  0
 32 33  1  0
 32 34  1  0
 32 35  1  0
  6 36  1  0
 36 37  1  0
 36 38  2  0
 38 39  1  0
 38  2  1  0
 11  7  2  0
 27 15  1  0
 35  9  1  0
M  END
>  <cnnaffinity>  (1) 
-6.00861

>  <filename>  (1) 
FC(F)(F)c1ccc(Cc2c(-c3cccnc3)nc3n2CCS3)cc1

$$$$
