
     RDKit          3D

 30 32  0  0  0  0  0  0  0  0999 V2000
    5.1014    1.9442   16.4515 H   0  0  0  0  0  0  0  0  0  0  0  0
    5.4459    1.4752   17.3710 C   0  0  0  0  0  0  0  0  0  0  0  0
    6.5956    0.7879   17.2967 N   0  0  0  0  0  0  0  0  0  0  0  0
    7.0374    0.2055   18.4166 C   0  0  0  0  0  0  0  0  0  0  0  0
    7.9821   -0.3299   18.3311 H   0  0  0  0  0  0  0  0  0  0  0  0
    6.3596    0.2621   19.6432 C   0  0  0  0  0  0  0  0  0  0  0  0
    6.8999   -0.4317   20.8063 C   0  0  0  0  0  0  0  0  0  0  0  0
    6.2184   -0.3442   21.9602 O   0  0  0  0  0  0  0  0  0  0  0  0
    6.8833   -1.0303   22.9441 N   0  0  0  0  0  0  0  0  0  0  0  0
    7.9782   -1.5021   22.3994 C   0  0  0  0  0  0  0  0  0  0  0  0
    8.9137   -2.3192   23.2415 C   0  0  0  0  0  0  0  0  0  0  0  0
    8.3821   -3.1882   24.2143 C   0  0  0  0  0  0  0  0  0  0  0  0
    7.3427   -3.0738   24.5048 H   0  0  0  0  0  0  0  0  0  0  0  0
    9.1497   -4.1879   24.8087 C   0  0  0  0  0  0  0  0  0  0  0  0
    8.6896   -4.8914   25.4996 H   0  0  0  0  0  0  0  0  0  0  0  0
   10.4986   -4.3146   24.4628 C   0  0  0  0  0  0  0  0  0  0  0  0
   11.1128   -5.1193   24.8595 H   0  0  0  0  0  0  0  0  0  0  0  0
   11.0660   -3.3726   23.6110 C   0  0  0  0  0  0  0  0  0  0  0  0
   12.1137   -3.4598   23.3540 H   0  0  0  0  0  0  0  0  0  0  0  0
   10.3230   -2.3185   23.0707 C   0  0  0  0  0  0  0  0  0  0  0  0
   11.0439   -1.1994   22.3374 C   0  0  0  0  0  0  0  0  0  0  0  0
   12.3751   -1.1995   22.5243 F   0  0  0  0  0  0  0  0  0  0  0  0
   10.8585   -1.2845   21.0036 F   0  0  0  0  0  0  0  0  0  0  0  0
   10.5857    0.0105   22.7104 F   0  0  0  0  0  0  0  0  0  0  0  0
    8.0170   -1.1730   21.0045 C   0  0  0  0  0  0  0  0  0  0  0  0
    8.7502   -1.4536   20.2715 H   0  0  0  0  0  0  0  0  0  0  0  0
    5.1631    0.9934   19.7088 C   0  0  0  0  0  0  0  0  0  0  0  0
    4.6329    1.0793   20.6586 H   0  0  0  0  0  0  0  0  0  0  0  0
    4.6971    1.5996   18.5486 C   0  0  0  0  0  0  0  0  0  0  0  0
    3.7768    2.1717   18.5483 H   0  0  0  0  0  0  0  0  0  0  0  0
  1  2  1  0
  2  3  2  0
  3  4  1  0
  4  5  1  0
  4  6  2  0
  6  7  1  0
  7  8  1  0
  8  9  1  0
  9 10  2  0
 10 11  1  0
 11 12  2  0
 12 13  1  0
 12 14  1  0
 14 15  1  0
 14 16  2  0
 16 17  1  0
 16 18  1  0
 18 19  1  0
 18 20  2  0
 20 21  1  0
 21 22  1  0
 21 23  1  0
 21 24  1  0
 10 25  1  0
 25 26  1  0
  6 27  1  0
 27 28  1  0
 27 29  2  0
 29 30  1  0
 29  2  1  0
 25  7  2  0
 20 11  1  0
M  END
>  <cnnaffinity>  (1) 
-5.2295

>  <filename>  (1) 
FC(F)(F)c1ccccc1-c1cc(-c2cccnc2)on1

$$$$
