
     RDKit          3D

 31 33  0  0  0  0  0  0  0  0999 V2000
    4.9015    1.8305   16.9515 H   0  0  0  0  0  0  0  0  0  0  0  0
    5.3714    1.3201   17.7932 C   0  0  0  0  0  0  0  0  0  0  0  0
    6.5321    0.7021   17.5206 N   0  0  0  0  0  0  0  0  0  0  0  0
    7.1590    0.0905   18.5328 C   0  0  0  0  0  0  0  0  0  0  0  0
    8.0924   -0.4002   18.2640 H   0  0  0  0  0  0  0  0  0  0  0  0
    6.6846    0.0335   19.8567 C   0  0  0  0  0  0  0  0  0  0  0  0
    7.3879   -0.7038   20.9297 C   0  0  0  0  0  0  0  0  0  0  0  0
    6.8713   -1.2889   22.0626 C   0  0  0  0  0  0  0  0  0  0  0  0
    5.8492   -1.3433   22.3691 H   0  0  0  0  0  0  0  0  0  0  0  0
    7.9510   -1.8206   22.7829 C   0  0  0  0  0  0  0  0  0  0  0  0
    7.8797   -2.5666   24.0835 C   0  0  0  0  0  0  0  0  0  0  0  0
    8.4710   -3.8441   24.0975 C   0  0  0  0  0  0  0  0  0  0  0  0
    9.0045   -4.1604   23.2023 H   0  0  0  0  0  0  0  0  0  0  0  0
    8.3722   -4.6786   25.2102 C   0  0  0  0  0  0  0  0  0  0  0  0
    8.8652   -5.6518   25.2024 H   0  0  0  0  0  0  0  0  0  0  0  0
    7.6629   -4.2421   26.3318 C   0  0  0  0  0  0  0  0  0  0  0  0
    7.5944   -4.8748   27.2155 H   0  0  0  0  0  0  0  0  0  0  0  0
    7.0761   -2.9743   26.3375 C   0  0  0  0  0  0  0  0  0  0  0  0
    6.5282   -2.6367   27.2129 H   0  0  0  0  0  0  0  0  0  0  0  0
    7.1942   -2.1034   25.2423 C   0  0  0  0  0  0  0  0  0  0  0  0
    6.5467   -0.7146   25.3758 C   0  0  0  0  0  0  0  0  0  0  0  0
    7.2195    0.2407   24.7122 F   0  0  0  0  0  0  0  0  0  0  0  0
    5.2834   -0.6989   24.9158 F   0  0  0  0  0  0  0  0  0  0  0  0
    6.4677   -0.3101   26.6600 F   0  0  0  0  0  0  0  0  0  0  0  0
    9.0844   -1.6456   22.1058 N   0  0  0  0  0  0  0  0  0  0  0  0
    8.7255   -0.9590   21.0038 N   0  0  0  0  0  0  0  0  0  0  0  0
    9.4553   -0.6560   20.3706 H   0  0  0  0  0  0  0  0  0  0  0  0
    5.4563    0.6713   20.1155 C   0  0  0  0  0  0  0  0  0  0  0  0
    5.0482    0.6508   21.1281 H   0  0  0  0  0  0  0  0  0  0  0  0
    4.7952    1.3267   19.0692 C   0  0  0  0  0  0  0  0  0  0  0  0
    3.8595    1.8499   19.2236 H   0  0  0  0  0  0  0  0  0  0  0  0
  1  2  1  0
  2  3  2  0
  3  4  1  0
  4  5  1  0
  4  6  2  0
  6  7  1  0
  7  8  2  0
  8  9  1  0
  8 10  1  0
 10 11  1  0
 11 12  2  0
 12 13  1  0
 12 14  1  0
 14 15  1  0
 14 16  2  0
 16 17  1  0
 16 18  1  0
 18 19  1  0
 18 20  2  0
 20 21  1  0
 21 22  1  0
 21 23  1  0
 21 24  1  0
 10 25  2  0
 25 26  1  0
 26 27  1  0
  6 28  1  0
 28 29  1  0
 28 30  2  0
 30 31  1  0
 30  2  1  0
 26  7  1  0
 20 11  1  0
M  END
>  <cnnaffinity>  (1) 
-5.13299

>  <filename>  (1) 
FC(F)(F)c1ccccc1-c1cc(-c2cccnc2)[nH]n1

$$$$
