
     RDKit          3D

 29 31  0  0  0  0  0  0  0  0999 V2000
    4.9915    2.0336   16.9281 H   0  0  0  0  0  0  0  0  0  0  0  0
    5.4403    1.4153   17.7033 C   0  0  0  0  0  0  0  0  0  0  0  0
    6.5820    0.7831   17.3825 N   0  0  0  0  0  0  0  0  0  0  0  0
    7.1506   -0.0004   18.3058 C   0  0  0  0  0  0  0  0  0  0  0  0
    8.0900   -0.4845   18.0531 H   0  0  0  0  0  0  0  0  0  0  0  0
    6.5862   -0.2174   19.5740 C   0  0  0  0  0  0  0  0  0  0  0  0
    7.2540   -1.0769   20.4495 O   0  0  0  0  0  0  0  0  0  0  0  0
    6.5374   -1.7958   21.3301 C   0  0  0  0  0  0  0  0  0  0  0  0
    5.5044   -2.5416   21.0683 N   0  0  0  0  0  0  0  0  0  0  0  0
    5.1521   -3.0986   22.2467 N   0  0  0  0  0  0  0  0  0  0  0  0
    5.9328   -2.7418   23.1913 N   0  0  0  0  0  0  0  0  0  0  0  0
    6.8586   -1.9063   22.6263 N   0  0  0  0  0  0  0  0  0  0  0  0
    8.0528   -1.4530   23.2147 C   0  0  0  0  0  0  0  0  0  0  0  0
    8.3129   -0.1761   22.9744 N   0  0  0  0  0  0  0  0  0  0  0  0
    9.4832    0.3155   23.3994 C   0  0  0  0  0  0  0  0  0  0  0  0
    9.6577    1.3781   23.2324 H   0  0  0  0  0  0  0  0  0  0  0  0
   10.4572   -0.4767   24.0113 C   0  0  0  0  0  0  0  0  0  0  0  0
   11.4139   -0.0485   24.2745 H   0  0  0  0  0  0  0  0  0  0  0  0
   10.1812   -1.8197   24.2637 C   0  0  0  0  0  0  0  0  0  0  0  0
   10.8950   -2.4802   24.7574 H   0  0  0  0  0  0  0  0  0  0  0  0
    8.9274   -2.3188   23.8985 C   0  0  0  0  0  0  0  0  0  0  0  0
    8.5385   -3.7563   24.1757 C   0  0  0  0  0  0  0  0  0  0  0  0
    9.5615   -4.4732   24.6791 F   0  0  0  0  0  0  0  0  0  0  0  0
    8.1608   -4.3910   23.0533 F   0  0  0  0  0  0  0  0  0  0  0  0
    7.5380   -3.8409   25.0661 F   0  0  0  0  0  0  0  0  0  0  0  0
    5.4197    0.4641   19.9226 C   0  0  0  0  0  0  0  0  0  0  0  0
    4.9919    0.3352   20.9187 H   0  0  0  0  0  0  0  0  0  0  0  0
    4.8395    1.2954   18.9591 C   0  0  0  0  0  0  0  0  0  0  0  0
    3.9285    1.8415   19.1677 H   0  0  0  0  0  0  0  0  0  0  0  0
  1  2  1  0
  2  3  2  0
  3  4  1  0
  4  5  1  0
  4  6  2  0
  6  7  1  0
  7  8  1  0
  8  9  2  0
  9 10  1  0
 10 11  2  0
 11 12  1  0
 12 13  1  0
 13 14  2  0
 14 15  1  0
 15 16  1  0
 15 17  2  0
 17 18  1  0
 17 19  1  0
 19 20  1  0
 19 21  2  0
 21 22  1  0
 22 23  1  0
 22 24  1  0
 22 25  1  0
  6 26  1  0
 26 27  1  0
 26 28  2  0
 28 29  1  0
 28  2  1  0
 12  8  1  0
 21 13  1  0
M  END
>  <cnnaffinity>  (1) 
-5.48962

>  <filename>  (1) 
FC(F)(F)c1cccnc1-n1nnnc1Oc1cccnc1

$$$$
