
     RDKit          3D

 31 33  0  0  0  0  0  0  0  0999 V2000
    4.9171    1.7811   16.9986 H   0  0  0  0  0  0  0  0  0  0  0  0
    5.4049    1.2903   17.8418 C   0  0  0  0  0  0  0  0  0  0  0  0
    6.5648    0.6690   17.5839 N   0  0  0  0  0  0  0  0  0  0  0  0
    7.1868    0.0549   18.6000 C   0  0  0  0  0  0  0  0  0  0  0  0
    8.1272   -0.4355   18.3644 H   0  0  0  0  0  0  0  0  0  0  0  0
    6.6886    0.0118   19.9169 C   0  0  0  0  0  0  0  0  0  0  0  0
    7.2841   -0.6992   20.9438 O   0  0  0  0  0  0  0  0  0  0  0  0
    8.6461   -0.7695   21.0942 C   0  0  0  0  0  0  0  0  0  0  0  0
    9.6632    0.0824   20.6323 C   0  0  0  0  0  0  0  0  0  0  0  0
    9.5596    0.9485   20.0030 H   0  0  0  0  0  0  0  0  0  0  0  0
   10.8479   -0.3051   21.0854 N   0  0  0  0  0  0  0  0  0  0  0  0
   10.6006   -1.3801   21.8220 N   0  0  0  0  0  0  0  0  0  0  0  0
   11.3657   -1.8437   22.2890 H   0  0  0  0  0  0  0  0  0  0  0  0
    9.2806   -1.7137   21.8835 C   0  0  0  0  0  0  0  0  0  0  0  0
    8.7568   -2.8442   22.6557 C   0  0  0  0  0  0  0  0  0  0  0  0
    9.5595   -3.3620   23.6046 N   0  0  0  0  0  0  0  0  0  0  0  0
    9.0979   -4.3734   24.3537 C   0  0  0  0  0  0  0  0  0  0  0  0
    9.9982   -4.9617   25.4630 C   0  0  0  0  0  0  0  0  0  0  0  0
   11.1861   -4.3759   25.5663 F   0  0  0  0  0  0  0  0  0  0  0  0
   10.2134   -6.2760   25.2514 F   0  0  0  0  0  0  0  0  0  0  0  0
    9.4030   -4.8869   26.6735 F   0  0  0  0  0  0  0  0  0  0  0  0
    7.8265   -4.9470   24.1583 C   0  0  0  0  0  0  0  0  0  0  0  0
    7.4932   -5.7744   24.7774 H   0  0  0  0  0  0  0  0  0  0  0  0
    7.0089   -4.4314   23.1519 C   0  0  0  0  0  0  0  0  0  0  0  0
    6.0180   -4.8442   22.9696 H   0  0  0  0  0  0  0  0  0  0  0  0
    7.4807   -3.3664   22.3874 C   0  0  0  0  0  0  0  0  0  0  0  0
    6.9043   -2.9153   21.5940 H   0  0  0  0  0  0  0  0  0  0  0  0
    5.4632    0.6405   20.1748 C   0  0  0  0  0  0  0  0  0  0  0  0
    5.0308    0.6135   21.1757 H   0  0  0  0  0  0  0  0  0  0  0  0
    4.8226    1.2999   19.1160 C   0  0  0  0  0  0  0  0  0  0  0  0
    3.8874    1.8315   19.2669 H   0  0  0  0  0  0  0  0  0  0  0  0
  1  2  1  0
  2  3  2  0
  3  4  1  0
  4  5  1  0
  4  6  2  0
  6  7  1  0
  7  8  1  0
  8  9  1  0
  9 10  1  0
  9 11  2  0
 11 12  1  0
 12 13  1  0
 12 14  1  0
 14 15  1  0
 15 16  2  0
 16 17  1  0
 17 18  1  0
 18 19  1  0
 18 20  1  0
 18 21  1  0
 17 22  2  0
 22 23  1  0
 22 24  1  0
 24 25  1  0
 24 26  2  0
 26 27  1  0
  6 28  1  0
 28 29  1  0
 28 30  2  0
 30 31  1  0
 30  2  1  0
 14  8  2  0
 26 15  1  0
M  END
>  <cnnaffinity>  (1) 
-5.854

>  <filename>  (1) 
FC(F)(F)c1cccc(-c2[nH]ncc2Oc2cccnc2)n1

$$$$
