
     RDKit          3D

 41 43  0  0  0  0  0  0  0  0999 V2000
    5.6095    1.9963   16.3351 H   0  0  0  0  0  0  0  0  0  0  0  0
    5.8493    1.5983   17.3188 C   0  0  0  0  0  0  0  0  0  0  0  0
    7.0469    1.0023   17.4431 N   0  0  0  0  0  0  0  0  0  0  0  0
    7.3826    0.5352   18.6584 C   0  0  0  0  0  0  0  0  0  0  0  0
    8.3585    0.0566   18.7373 H   0  0  0  0  0  0  0  0  0  0  0  0
    6.5512    0.6145   19.8017 C   0  0  0  0  0  0  0  0  0  0  0  0
    6.8839    0.0846   21.0804 N   0  0  0  0  0  0  0  0  0  0  0  0
    6.3460   -1.2675   21.2895 C   0  0  0  0  0  0  0  0  0  0  0  0
    5.2620   -1.1840   21.4370 H   0  0  0  0  0  0  0  0  0  0  0  0
    6.4615   -1.8854   20.3820 H   0  0  0  0  0  0  0  0  0  0  0  0
    6.9858   -2.0501   22.4410 C   0  0  0  0  0  0  0  0  0  0  0  0
    7.0668   -1.3934   23.3245 H   0  0  0  0  0  0  0  0  0  0  0  0
    6.2931   -2.8469   22.7187 H   0  0  0  0  0  0  0  0  0  0  0  0
    8.2824   -2.6244   22.0560 N   0  0  0  0  0  0  0  0  0  0  0  0
    8.8594   -3.5527   22.9815 C   0  0  0  0  0  0  0  0  0  0  0  0
   10.0556   -3.2790   23.6787 C   0  0  0  0  0  0  0  0  0  0  0  0
   10.6265   -2.3736   23.4740 H   0  0  0  0  0  0  0  0  0  0  0  0
   10.5652   -4.2881   24.6215 C   0  0  0  0  0  0  0  0  0  0  0  0
   10.9056   -3.9115   25.5403 H   0  0  0  0  0  0  0  0  0  0  0  0
    9.8180   -5.1925   25.2700 C   0  0  0  0  0  0  0  0  0  0  0  0
    8.8352   -5.3581   25.9378 H   0  0  0  0  0  0  0  0  0  0  0  0
    9.7181   -5.4911   25.0771 C   0  0  0  0  0  0  0  0  0  0  0  0
    9.6973   -6.6173   24.3412 H   0  0  0  0  0  0  0  0  0  0  0  0
    8.2243   -4.7427   23.2452 C   0  0  0  0  0  0  0  0  0  0  0  0
    7.2305   -5.3215   22.2436 C   0  0  0  0  0  0  0  0  0  0  0  0
    7.2486   -6.6768   22.2586 F   0  0  0  0  0  0  0  0  0  0  0  0
    7.4081   -4.9821   20.9521 F   0  0  0  0  0  0  0  0  0  0  0  0
    5.9459   -4.9791   22.5458 F   0  0  0  0  0  0  0  0  0  0  0  0
    9.1222   -1.8966   21.1022 C   0  0  0  0  0  0  0  0  0  0  0  0
   10.0765   -2.4275   21.0066 H   0  0  0  0  0  0  0  0  0  0  0  0
    8.6476   -1.9548   20.1132 H   0  0  0  0  0  0  0  0  0  0  0  0
    9.3940   -0.4096   21.3762 C   0  0  0  0  0  0  0  0  0  0  0  0
    9.8774   -0.0081   20.4791 H   0  0  0  0  0  0  0  0  0  0  0  0
   10.1179   -0.2984   22.1938 H   0  0  0  0  0  0  0  0  0  0  0  0
    8.1561    0.4515   21.7082 C   0  0  0  0  0  0  0  0  0  0  0  0
    7.9971    0.4315   22.7934 H   0  0  0  0  0  0  0  0  0  0  0  0
    8.3448    1.5009   21.4504 H   0  0  0  0  0  0  0  0  0  0  0  0
    5.2880    1.2004   19.6278 C   0  0  0  0  0  0  0  0  0  0  0  0
    4.6245    1.2448   20.4915 H   0  0  0  0  0  0  0  0  0  0  0  0
    4.9402    1.7195   18.3769 C   0  0  0  0  0  0  0  0  0  0  0  0
    3.9869    2.2140   18.2191 H   0  0  0  0  0  0  0  0  0  0  0  0
  1  2  1  0
  2  3  2  0
  3  4  1  0
  4  5  1  0
  4  6  2  0
  6  7  1  0
  7  8  1  0
  8  9  1  0
  8 10  1  0
  8 11  1  0
 11 12  1  0
 11 13  1  0
 11 14  1  0
 14 15  1  0
 15 16  2  0
 16 17  1  0
 16 18  1  0
 18 19  1  0
 18 20  2  0
 20 21  1  0
 20 22  1  0
 22 23  1  0
 22 24  2  0
 24 25  1  0
 25 26  1  0
 25 27  1  0
 25 28  1  0
 14 29  1  0
 29 30  1  0
 29 31  1  0
 29 32  1  0
 32 33  1  0
 32 34  1  0
 32 35  1  0
 35 36  1  0
 35 37  1  0
  6 38  1  0
 38 39  1  0
 38 40  2  0
 40 41  1  0
 40  2  1  0
 35  7  1  0
 24 15  1  0
M  END
>  <cnnaffinity>  (1) 
-5.99398

>  <filename>  (1) 
FC(F)(F)c1ccccc1N1CCCN(c2cccnc2)CC1

$$$$
