
     RDKit          3D

 35 37  0  0  0  0  0  0  0  0999 V2000
    4.9068    1.7734   17.0042 H   0  0  0  0  0  0  0  0  0  0  0  0
    5.3994    1.2927   17.8453 C   0  0  0  0  0  0  0  0  0  0  0  0
    6.5706    0.6812   17.5910 N   0  0  0  0  0  0  0  0  0  0  0  0
    7.1842    0.0531   18.5962 C   0  0  0  0  0  0  0  0  0  0  0  0
    8.1319   -0.4406   18.3849 H   0  0  0  0  0  0  0  0  0  0  0  0
    6.6586    0.0048   19.8978 C   0  0  0  0  0  0  0  0  0  0  0  0
    7.3554   -0.6944   20.9242 N   0  0  0  0  0  0  0  0  0  0  0  0
    7.8970   -1.9163   20.7423 N   0  0  0  0  0  0  0  0  0  0  0  0
    8.4192   -2.2641   21.8580 N   0  0  0  0  0  0  0  0  0  0  0  0
    8.2576   -1.3043   22.7912 N   0  0  0  0  0  0  0  0  0  0  0  0
    7.6021   -0.3293   22.2079 C   0  0  0  0  0  0  0  0  0  0  0  0
    7.2211    0.9645   22.8366 C   0  0  0  0  0  0  0  0  0  0  0  0
    6.2377    0.8414   23.3107 H   0  0  0  0  0  0  0  0  0  0  0  0
    7.1142    1.7397   22.0673 H   0  0  0  0  0  0  0  0  0  0  0  0
    8.2474    1.4234   23.8778 C   0  0  0  0  0  0  0  0  0  0  0  0
    8.3313    0.6637   24.6649 H   0  0  0  0  0  0  0  0  0  0  0  0
    9.2345    1.4970   23.4013 H   0  0  0  0  0  0  0  0  0  0  0  0
    7.8627    2.7490   24.4651 C   0  0  0  0  0  0  0  0  0  0  0  0
    7.0270    2.8126   25.5890 C   0  0  0  0  0  0  0  0  0  0  0  0
    6.6833    1.8940   26.0583 H   0  0  0  0  0  0  0  0  0  0  0  0
    6.6313    4.0384   26.1159 C   0  0  0  0  0  0  0  0  0  0  0  0
    6.0014    4.0593   27.0011 H   0  0  0  0  0  0  0  0  0  0  0  0
    7.0520    5.2275   25.5027 C   0  0  0  0  0  0  0  0  0  0  0  0
    6.6680    6.5564   26.0959 C   0  0  0  0  0  0  0  0  0  0  0  0
    7.5719    6.9539   27.0131 F   0  0  0  0  0  0  0  0  0  0  0  0
    5.4744    6.5181   26.7172 F   0  0  0  0  0  0  0  0  0  0  0  0
    6.5957    7.5324   25.1723 F   0  0  0  0  0  0  0  0  0  0  0  0
    7.8916    5.1772   24.3803 C   0  0  0  0  0  0  0  0  0  0  0  0
    8.2464    6.0892   23.9072 H   0  0  0  0  0  0  0  0  0  0  0  0
    8.2799    3.9446   23.8626 C   0  0  0  0  0  0  0  0  0  0  0  0
    8.9162    3.9139   22.9809 H   0  0  0  0  0  0  0  0  0  0  0  0
    5.4454    0.6489   20.1623 C   0  0  0  0  0  0  0  0  0  0  0  0
    5.0054    0.6269   21.1580 H   0  0  0  0  0  0  0  0  0  0  0  0
    4.8057    1.3098   19.1107 C   0  0  0  0  0  0  0  0  0  0  0  0
    3.8726    1.8445   19.2682 H   0  0  0  0  0  0  0  0  0  0  0  0
  1  2  1  0
  2  3  2  0
  3  4  1  0
  4  5  1  0
  4  6  2  0
  6  7  1  0
  7  8  1  0
  8  9  2  0
  9 10  1  0
 10 11  2  0
 11 12  1  0
 12 13  1  0
 12 14  1  0
 12 15  1  0
 15 16  1  0
 15 17  1  0
 15 18  1  0
 18 19  2  0
 19 20  1  0
 19 21  1  0
 21 22  1  0
 21 23  2  0
 23 24  1  0
 24 25  1  0
 24 26  1  0
 24 27  1  0
 23 28  1  0
 28 29  1  0
 28 30  2  0
 30 31  1  0
  6 32  1  0
 32 33  1  0
 32 34  2  0
 34 35  1  0
 34  2  1  0
 11  7  1  0
 30 18  1  0
M  END
>  <cnnaffinity>  (1) 
-5.23841

>  <filename>  (1) 
FC(F)(F)c1ccc(CCc2nnnn2-c2cccnc2)cc1

$$$$
