
     RDKit          3D

 31 33  0  0  0  0  0  0  0  0999 V2000
    4.9350    1.7834   16.9968 H   0  0  0  0  0  0  0  0  0  0  0  0
    5.4111    1.2893   17.8427 C   0  0  0  0  0  0  0  0  0  0  0  0
    6.5771    0.6680   17.5973 N   0  0  0  0  0  0  0  0  0  0  0  0
    7.1739    0.0336   18.6094 C   0  0  0  0  0  0  0  0  0  0  0  0
    8.1215   -0.4425   18.3792 H   0  0  0  0  0  0  0  0  0  0  0  0
    6.6472   -0.0165   19.9126 C   0  0  0  0  0  0  0  0  0  0  0  0
    7.3618   -0.6943   20.9370 N   0  0  0  0  0  0  0  0  0  0  0  0
    7.8648   -1.9227   20.7118 N   0  0  0  0  0  0  0  0  0  0  0  0
    8.3459   -2.3254   21.8771 C   0  0  0  0  0  0  0  0  0  0  0  0
    8.7965   -3.3040   21.9541 H   0  0  0  0  0  0  0  0  0  0  0  0
    8.1776   -1.3573   22.8819 C   0  0  0  0  0  0  0  0  0  0  0  0
    8.5066   -1.3673   23.9123 H   0  0  0  0  0  0  0  0  0  0  0  0
    7.5578   -0.3039   22.2440 C   0  0  0  0  0  0  0  0  0  0  0  0
    7.2471    1.0304   22.7783 C   0  0  0  0  0  0  0  0  0  0  0  0
    7.5192    2.2112   22.0618 C   0  0  0  0  0  0  0  0  0  0  0  0
    7.9385    2.1259   21.0640 H   0  0  0  0  0  0  0  0  0  0  0  0
    7.2287    3.4555   22.6205 C   0  0  0  0  0  0  0  0  0  0  0  0
    7.4167    4.3625   22.0508 H   0  0  0  0  0  0  0  0  0  0  0  0
    6.6881    3.5391   23.9076 C   0  0  0  0  0  0  0  0  0  0  0  0
    6.4573    4.5126   24.3379 H   0  0  0  0  0  0  0  0  0  0  0  0
    6.4512    2.3671   24.6454 C   0  0  0  0  0  0  0  0  0  0  0  0
    5.8368    2.4412   26.0305 C   0  0  0  0  0  0  0  0  0  0  0  0
    4.4922    2.3749   25.9769 F   0  0  0  0  0  0  0  0  0  0  0  0
    6.2340    1.4332   26.8304 F   0  0  0  0  0  0  0  0  0  0  0  0
    6.1404    3.5885   26.6662 F   0  0  0  0  0  0  0  0  0  0  0  0
    6.7221    1.1180   24.0726 C   0  0  0  0  0  0  0  0  0  0  0  0
    6.5314    0.1913   24.6130 H   0  0  0  0  0  0  0  0  0  0  0  0
    5.4278    0.6275   20.1668 C   0  0  0  0  0  0  0  0  0  0  0  0
    5.0105    0.6406   21.1763 H   0  0  0  0  0  0  0  0  0  0  0  0
    4.8105    1.2956   19.1067 C   0  0  0  0  0  0  0  0  0  0  0  0
    3.8823    1.8356   19.2559 H   0  0  0  0  0  0  0  0  0  0  0  0
  1  2  1  0
  2  3  2  0
  3  4  1  0
  4  5  1  0
  4  6  2  0
  6  7  1  0
  7  8  1  0
  8  9  2  0
  9 10  1  0
  9 11  1  0
 11 12  1  0
 11 13  2  0
 13 14  1  0
 14 15  2  0
 15 16  1  0
 15 17  1  0
 17 18  1  0
 17 19  2  0
 19 20  1  0
 19 21  1  0
 21 22  1  0
 22 23  1  0
 22 24  1  0
 22 25  1  0
 21 26  2  0
 26 27  1  0
  6 28  1  0
 28 29  1  0
 28 30  2  0
 30 31  1  0
 30  2  1  0
 13  7  1  0
 26 14  1  0
M  END
>  <cnnaffinity>  (1) 
-5.0569

>  <filename>  (1) 
FC(F)(F)c1cccc(-c2ccnn2-c2cccnc2)c1

$$$$
