
     RDKit          3D

 30 32  0  0  0  0  0  0  0  0999 V2000
    4.9341    1.7996   16.9884 H   0  0  0  0  0  0  0  0  0  0  0  0
    5.3971    1.2950   17.8347 C   0  0  0  0  0  0  0  0  0  0  0  0
    6.5626    0.6741   17.5926 N   0  0  0  0  0  0  0  0  0  0  0  0
    7.1765    0.0641   18.6092 C   0  0  0  0  0  0  0  0  0  0  0  0
    8.1336   -0.3893   18.3543 H   0  0  0  0  0  0  0  0  0  0  0  0
    6.6583    0.0178   19.9193 C   0  0  0  0  0  0  0  0  0  0  0  0
    7.3374   -0.6358   20.9842 N   0  0  0  0  0  0  0  0  0  0  0  0
    8.1939   -1.6951   20.8788 C   0  0  0  0  0  0  0  0  0  0  0  0
    8.5218   -2.0085   19.9094 H   0  0  0  0  0  0  0  0  0  0  0  0
    8.6574   -2.1114   22.0123 N   0  0  0  0  0  0  0  0  0  0  0  0
    8.1166   -1.2443   22.9521 C   0  0  0  0  0  0  0  0  0  0  0  0
    8.4373   -1.2920   24.4136 C   0  0  0  0  0  0  0  0  0  0  0  0
    8.2448   -0.1198   25.0445 N   0  0  0  0  0  0  0  0  0  0  0  0
    8.5464    0.0069   26.3293 C   0  0  0  0  0  0  0  0  0  0  0  0
    8.3796    1.0033   26.7424 H   0  0  0  0  0  0  0  0  0  0  0  0
    9.0388   -1.0523   27.0948 C   0  0  0  0  0  0  0  0  0  0  0  0
    9.2777   -0.8777   28.1347 H   0  0  0  0  0  0  0  0  0  0  0  0
    9.1995   -2.2940   26.4870 C   0  0  0  0  0  0  0  0  0  0  0  0
    9.5717   -3.1524   27.0489 H   0  0  0  0  0  0  0  0  0  0  0  0
    8.8868   -2.4277   25.1299 C   0  0  0  0  0  0  0  0  0  0  0  0
    9.0494   -3.7605   24.4469 C   0  0  0  0  0  0  0  0  0  0  0  0
    9.2765   -4.7563   25.3286 F   0  0  0  0  0  0  0  0  0  0  0  0
   10.0867   -3.7522   23.5983 F   0  0  0  0  0  0  0  0  0  0  0  0
    7.9503   -4.1116   23.7574 F   0  0  0  0  0  0  0  0  0  0  0  0
    7.3116   -0.3309   22.3296 C   0  0  0  0  0  0  0  0  0  0  0  0
    6.7854    0.5280   22.7304 H   0  0  0  0  0  0  0  0  0  0  0  0
    5.4338    0.6489   20.1558 C   0  0  0  0  0  0  0  0  0  0  0  0
    4.9919    0.6152   21.1486 H   0  0  0  0  0  0  0  0  0  0  0  0
    4.8018    1.3059   19.0978 C   0  0  0  0  0  0  0  0  0  0  0  0
    3.8699    1.8391   19.2492 H   0  0  0  0  0  0  0  0  0  0  0  0
  1  2  1  0
  2  3  2  0
  3  4  1  0
  4  5  1  0
  4  6  2  0
  6  7  1  0
  7  8  1  0
  8  9  1  0
  8 10  2  0
 10 11  1  0
 11 12  1  0
 12 13  2  0
 13 14  1  0
 14 15  1  0
 14 16  2  0
 16 17  1  0
 16 18  1  0
 18 19  1  0
 18 20  2  0
 20 21  1  0
 21 22  1  0
 21 23  1  0
 21 24  1  0
 11 25  2  0
 25 26  1  0
  6 27  1  0
 27 28  1  0
 27 29  2  0
 29 30  1  0
 29  2  1  0
 25  7  1  0
 20 12  1  0
M  END
>  <cnnaffinity>  (1) 
-5.42261

>  <filename>  (1) 
FC(F)(F)c1cccnc1-c1cn(-c2cccnc2)cn1

$$$$
