
     RDKit          3D

 34 37  0  0  0  0  0  0  0  0999 V2000
    5.0043    1.8432   16.9218 H   0  0  0  0  0  0  0  0  0  0  0  0
    5.4275    1.2878   17.7593 C   0  0  0  0  0  0  0  0  0  0  0  0
    6.5727    0.6299   17.5189 N   0  0  0  0  0  0  0  0  0  0  0  0
    7.1390   -0.0146   18.5446 C   0  0  0  0  0  0  0  0  0  0  0  0
    8.0707   -0.5346   18.3272 H   0  0  0  0  0  0  0  0  0  0  0  0
    6.6021   -0.0415   19.8457 C   0  0  0  0  0  0  0  0  0  0  0  0
    7.3436   -0.6668   20.9544 C   0  0  0  0  0  0  0  0  0  0  0  0
    8.4792   -1.3398   20.7159 N   0  0  0  0  0  0  0  0  0  0  0  0
    8.9001   -1.6591   21.9575 N   0  0  0  0  0  0  0  0  0  0  0  0
   10.0781   -2.1751   22.4901 C   0  0  0  0  0  0  0  0  0  0  0  0
   10.8418   -2.5566   21.8401 H   0  0  0  0  0  0  0  0  0  0  0  0
   10.0103   -1.9704   23.8268 C   0  0  0  0  0  0  0  0  0  0  0  0
   10.7418   -2.1738   24.5982 H   0  0  0  0  0  0  0  0  0  0  0  0
    8.7841   -1.3661   24.1428 N   0  0  0  0  0  0  0  0  0  0  0  0
    8.4115   -0.6678   25.3228 C   0  0  0  0  0  0  0  0  0  0  0  0
    9.1494    0.3984   25.6132 N   0  0  0  0  0  0  0  0  0  0  0  0
    8.7472    1.2005   26.5993 C   0  0  0  0  0  0  0  0  0  0  0  0
    9.3337    2.1051   26.7306 H   0  0  0  0  0  0  0  0  0  0  0  0
    7.6250    0.9438   27.3835 C   0  0  0  0  0  0  0  0  0  0  0  0
    7.3385    1.6618   28.1357 H   0  0  0  0  0  0  0  0  0  0  0  0
    6.8866   -0.2100   27.1418 C   0  0  0  0  0  0  0  0  0  0  0  0
    6.0018   -0.4282   27.7419 H   0  0  0  0  0  0  0  0  0  0  0  0
    7.2966   -1.0467   26.0951 C   0  0  0  0  0  0  0  0  0  0  0  0
    6.4717   -2.2175   25.6451 C   0  0  0  0  0  0  0  0  0  0  0  0
    7.1898   -3.2666   25.2295 F   0  0  0  0  0  0  0  0  0  0  0  0
    5.6924   -1.8503   24.6047 F   0  0  0  0  0  0  0  0  0  0  0  0
    5.6588   -2.6556   26.6216 F   0  0  0  0  0  0  0  0  0  0  0  0
    8.1076   -1.1889   22.9361 C   0  0  0  0  0  0  0  0  0  0  0  0
    7.0296   -0.5626   22.3346 C   0  0  0  0  0  0  0  0  0  0  0  0
    6.1745   -0.1052   22.8009 H   0  0  0  0  0  0  0  0  0  0  0  0
    5.3799    0.6095   20.0647 C   0  0  0  0  0  0  0  0  0  0  0  0
    4.9088    0.5987   21.0525 H   0  0  0  0  0  0  0  0  0  0  0  0
    4.7907    1.2897   19.0047 C   0  0  0  0  0  0  0  0  0  0  0  0
    3.8746    1.8523   19.1422 H   0  0  0  0  0  0  0  0  0  0  0  0
  1  2  1  0
  2  3  2  0
  3  4  1  0
  4  5  1  0
  4  6  2  0
  6  7  1  0
  7  8  2  0
  8  9  1  0
  9 10  1  0
 10 11  1  0
 10 12  2  0
 12 13  1  0
 12 14  1  0
 14 15  1  0
 15 16  2  0
 16 17  1  0
 17 18  1  0
 17 19  2  0
 19 20  1  0
 19 21  1  0
 21 22  1  0
 21 23  2  0
 23 24  1  0
 24 25  1  0
 24 26  1  0
 24 27  1  0
 14 28  1  0
 28 29  2  0
 29 30  1  0
  6 31  1  0
 31 32  1  0
 31 33  2  0
 33 34  1  0
 33  2  1  0
 29  7  1  0
 28  9  1  0
 23 15  1  0
M  END
>  <cnnaffinity>  (1) 
-5.92307

>  <filename>  (1) 
FC(F)(F)c1cccnc1-n1ccn2nc(-c3cccnc3)cc12

$$$$
