
     RDKit          3D

 32 35  0  0  0  0  0  0  0  0999 V2000
    4.9294    1.7787   16.9866 H   0  0  0  0  0  0  0  0  0  0  0  0
    5.3977    1.2988   17.8449 C   0  0  0  0  0  0  0  0  0  0  0  0
    6.5579    0.6702   17.6025 N   0  0  0  0  0  0  0  0  0  0  0  0
    7.1571    0.0911   18.6448 C   0  0  0  0  0  0  0  0  0  0  0  0
    8.0988   -0.4049   18.4223 H   0  0  0  0  0  0  0  0  0  0  0  0
    6.6726    0.1028   19.9681 C   0  0  0  0  0  0  0  0  0  0  0  0
    7.4668   -0.5829   21.0019 C   0  0  0  0  0  0  0  0  0  0  0  0
    8.3384   -1.5981   20.8298 C   0  0  0  0  0  0  0  0  0  0  0  0
    8.7910   -1.9147   19.9044 H   0  0  0  0  0  0  0  0  0  0  0  0
    8.8716   -2.3153   22.3220 S   0  0  0  0  0  0  0  0  0  0  0  0
    8.0680   -1.0503   23.2066 C   0  0  0  0  0  0  0  0  0  0  0  0
    8.0861   -0.5363   24.4146 N   0  0  0  0  0  0  0  0  0  0  0  0
    7.3699    0.6170   24.2550 C   0  0  0  0  0  0  0  0  0  0  0  0
    7.0862    1.6144   25.3830 C   0  0  0  0  0  0  0  0  0  0  0  0
    7.8945    1.5389   26.4547 N   0  0  0  0  0  0  0  0  0  0  0  0
    7.7686    2.3937   27.4645 C   0  0  0  0  0  0  0  0  0  0  0  0
    8.4306    2.2357   28.3082 H   0  0  0  0  0  0  0  0  0  0  0  0
    6.8285    3.4227   27.4771 C   0  0  0  0  0  0  0  0  0  0  0  0
    6.7971    4.1204   28.3039 H   0  0  0  0  0  0  0  0  0  0  0  0
    5.9318    3.4981   26.4257 C   0  0  0  0  0  0  0  0  0  0  0  0
    5.1483    4.2565   26.4385 H   0  0  0  0  0  0  0  0  0  0  0  0
    6.0319    2.5704   25.3747 C   0  0  0  0  0  0  0  0  0  0  0  0
    4.9792    2.5823   24.2944 C   0  0  0  0  0  0  0  0  0  0  0  0
    4.4475    1.3588   24.1112 F   0  0  0  0  0  0  0  0  0  0  0  0
    5.4506    3.0063   23.1121 F   0  0  0  0  0  0  0  0  0  0  0  0
    3.9489    3.3949   24.5990 F   0  0  0  0  0  0  0  0  0  0  0  0
    6.9080    0.8213   23.0077 N   0  0  0  0  0  0  0  0  0  0  0  0
    7.3569   -0.2728   22.3599 N   0  0  0  0  0  0  0  0  0  0  0  0
    5.4465    0.7539   20.2031 C   0  0  0  0  0  0  0  0  0  0  0  0
    5.0301    0.8077   21.2135 H   0  0  0  0  0  0  0  0  0  0  0  0
    4.8022    1.3442   19.1123 C   0  0  0  0  0  0  0  0  0  0  0  0
    3.8527    1.8510   19.2270 H   0  0  0  0  0  0  0  0  0  0  0  0
  1  2  1  0
  2  3  2  0
  3  4  1  0
  4  5  1  0
  4  6  2  0
  6  7  1  0
  7  8  2  0
  8  9  1  0
  8 10  1  0
 10 11  1  0
 11 12  2  0
 12 13  1  0
 13 14  1  0
 14 15  2  0
 15 16  1  0
 16 17  1  0
 16 18  2  0
 18 19  1  0
 18 20  1  0
 20 21  1  0
 20 22  2  0
 22 23  1  0
 23 24  1  0
 23 25  1  0
 23 26  1  0
 13 27  2  0
 27 28  1  0
  6 29  1  0
 29 30  1  0
 29 31  2  0
 31 32  1  0
 31  2  1  0
 28  7  1  0
 28 11  1  0
 22 14  1  0
M  END
>  <cnnaffinity>  (1) 
-5.4194

>  <filename>  (1) 
FC(F)(F)c1cccnc1-c1nc2scc(-c3cccnc3)n2n1

$$$$
