
     RDKit          3D

 31 33  0  0  0  0  0  0  0  0999 V2000
    4.9190    1.8188   16.9687 H   0  0  0  0  0  0  0  0  0  0  0  0
    5.3738    1.3084   17.8168 C   0  0  0  0  0  0  0  0  0  0  0  0
    6.5310    0.6776   17.5630 N   0  0  0  0  0  0  0  0  0  0  0  0
    7.1283    0.0518   18.5816 C   0  0  0  0  0  0  0  0  0  0  0  0
    8.0919   -0.4109   18.3582 H   0  0  0  0  0  0  0  0  0  0  0  0
    6.6107   -0.0068   19.8902 C   0  0  0  0  0  0  0  0  0  0  0  0
    7.4001   -0.6730   21.0079 C   0  0  0  0  0  0  0  0  0  0  0  0
    6.7887   -0.7876   21.9099 H   0  0  0  0  0  0  0  0  0  0  0  0
    7.7207   -1.6831   20.7371 H   0  0  0  0  0  0  0  0  0  0  0  0
    8.6696    0.0582   21.3185 C   0  0  0  0  0  0  0  0  0  0  0  0
    9.8674   -0.4034   21.0754 N   0  0  0  0  0  0  0  0  0  0  0  0
   10.7282    0.6011   21.3587 N   0  0  0  0  0  0  0  0  0  0  0  0
   10.1136    1.6477   21.7544 N   0  0  0  0  0  0  0  0  0  0  0  0
    8.7867    1.3314   21.7576 N   0  0  0  0  0  0  0  0  0  0  0  0
    7.7678    2.2150   22.1964 C   0  0  0  0  0  0  0  0  0  0  0  0
    7.8285    3.4469   21.7194 N   0  0  0  0  0  0  0  0  0  0  0  0
    6.8741    4.3102   22.0432 C   0  0  0  0  0  0  0  0  0  0  0  0
    6.9678    5.2976   21.5946 H   0  0  0  0  0  0  0  0  0  0  0  0
    5.8315    3.9837   22.9074 C   0  0  0  0  0  0  0  0  0  0  0  0
    4.8502    5.0358   23.2815 C   0  0  0  0  0  0  0  0  0  0  0  0
    3.6467    4.5012   23.5660 F   0  0  0  0  0  0  0  0  0  0  0  0
    5.2483    5.7218   24.3719 F   0  0  0  0  0  0  0  0  0  0  0  0
    4.6707    5.9399   22.3016 F   0  0  0  0  0  0  0  0  0  0  0  0
    5.7883    2.6906   23.4574 C   0  0  0  0  0  0  0  0  0  0  0  0
    5.0037    2.4057   24.1575 H   0  0  0  0  0  0  0  0  0  0  0  0
    6.7748    1.7866   23.0951 C   0  0  0  0  0  0  0  0  0  0  0  0
    6.8093    0.7843   23.5051 H   0  0  0  0  0  0  0  0  0  0  0  0
    5.4094    0.6633   20.1340 C   0  0  0  0  0  0  0  0  0  0  0  0
    5.0059    0.6737   21.1477 H   0  0  0  0  0  0  0  0  0  0  0  0
    4.7755    1.3306   19.0795 C   0  0  0  0  0  0  0  0  0  0  0  0
    3.8465    1.8708   19.2174 H   0  0  0  0  0  0  0  0  0  0  0  0
  1  2  1  0
  2  3  2  0
  3  4  1  0
  4  5  1  0
  4  6  2  0
  6  7  1  0
  7  8  1  0
  7  9  1  0
  7 10  1  0
 10 11  2  0
 11 12  1  0
 12 13  2  0
 13 14  1  0
 14 15  1  0
 15 16  2  0
 16 17  1  0
 17 18  1  0
 17 19  2  0
 19 20  1  0
 20 21  1  0
 20 22  1  0
 20 23  1  0
 19 24  1  0
 24 25  1  0
 24 26  2  0
 26 27  1  0
  6 28  1  0
 28 29  1  0
 28 30  2  0
 30 31  1  0
 30  2  1  0
 14 10  1  0
 26 15  1  0
M  END
>  <cnnaffinity>  (1) 
-5.3049

>  <filename>  (1) 
FC(F)(F)c1ccc(-n2nnnc2Cc2cccnc2)nc1

$$$$
