
     RDKit          3D

 33 36  0  0  0  0  0  0  0  0999 V2000
    4.9218    1.7720   17.0035 H   0  0  0  0  0  0  0  0  0  0  0  0
    5.4095    1.2859   17.8464 C   0  0  0  0  0  0  0  0  0  0  0  0
    6.5745    0.6694   17.5945 N   0  0  0  0  0  0  0  0  0  0  0  0
    7.1811    0.0537   18.6151 C   0  0  0  0  0  0  0  0  0  0  0  0
    8.1273   -0.4335   18.3839 H   0  0  0  0  0  0  0  0  0  0  0  0
    6.6466    0.0143   19.9114 C   0  0  0  0  0  0  0  0  0  0  0  0
    7.3605   -0.6906   20.9709 C   0  0  0  0  0  0  0  0  0  0  0  0
    8.5483   -1.3251   20.7543 N   0  0  0  0  0  0  0  0  0  0  0  0
    8.8130   -1.8025   21.9534 C   0  0  0  0  0  0  0  0  0  0  0  0
   10.0621   -2.7257   22.7508 S   0  0  0  0  0  0  0  0  0  0  0  0
    9.1720   -2.6147   24.2475 C   0  0  0  0  0  0  0  0  0  0  0  0
    9.5704   -3.0741   25.1428 H   0  0  0  0  0  0  0  0  0  0  0  0
    8.0003   -1.9562   24.1349 C   0  0  0  0  0  0  0  0  0  0  0  0
    7.0365   -1.6169   25.2073 C   0  0  0  0  0  0  0  0  0  0  0  0
    6.7591   -0.2619   25.4768 C   0  0  0  0  0  0  0  0  0  0  0  0
    7.2133    0.4985   24.8492 H   0  0  0  0  0  0  0  0  0  0  0  0
    5.9253    0.1006   26.5312 C   0  0  0  0  0  0  0  0  0  0  0  0
    5.7210    1.1501   26.7237 H   0  0  0  0  0  0  0  0  0  0  0  0
    5.3559   -0.8847   27.3403 C   0  0  0  0  0  0  0  0  0  0  0  0
    4.7115   -0.6091   28.1669 H   0  0  0  0  0  0  0  0  0  0  0  0
    5.6060   -2.2308   27.0843 C   0  0  0  0  0  0  0  0  0  0  0  0
    5.1521   -2.9899   27.7187 H   0  0  0  0  0  0  0  0  0  0  0  0
    6.4209   -2.6083   26.0060 C   0  0  0  0  0  0  0  0  0  0  0  0
    6.6314   -4.0928   25.7342 C   0  0  0  0  0  0  0  0  0  0  0  0
    6.6760   -4.3966   24.4253 F   0  0  0  0  0  0  0  0  0  0  0  0
    5.6598   -4.8608   26.2580 F   0  0  0  0  0  0  0  0  0  0  0  0
    7.7908   -4.5253   26.2757 F   0  0  0  0  0  0  0  0  0  0  0  0
    7.8472   -1.4763   22.8329 N   0  0  0  0  0  0  0  0  0  0  0  0
    6.8878   -0.7512   22.2113 N   0  0  0  0  0  0  0  0  0  0  0  0
    5.4274    0.6583   20.1650 C   0  0  0  0  0  0  0  0  0  0  0  0
    4.9978    0.6342   21.1709 H   0  0  0  0  0  0  0  0  0  0  0  0
    4.8037    1.3110   19.1089 C   0  0  0  0  0  0  0  0  0  0  0  0
    3.8729    1.8442   19.2603 H   0  0  0  0  0  0  0  0  0  0  0  0
  1  2  1  0
  2  3  2  0
  3  4  1  0
  4  5  1  0
  4  6  2  0
  6  7  1  0
  7  8  1  0
  8  9  2  0
  9 10  1  0
 10 11  1  0
 11 12  1  0
 11 13  2  0
 13 14  1  0
 14 15  2  0
 15 16  1  0
 15 17  1  0
 17 18  1  0
 17 19  2  0
 19 20  1  0
 19 21  1  0
 21 22  1  0
 21 23  2  0
 23 24  1  0
 24 25  1  0
 24 26  1  0
 24 27  1  0
 13 28  1  0
 28 29  1  0
  6 30  1  0
 30 31  1  0
 30 32  2  0
 32 33  1  0
 32  2  1  0
 29  7  2  0
 28  9  1  0
 23 14  1  0
M  END
>  <cnnaffinity>  (1) 
-5.67511

>  <filename>  (1) 
FC(F)(F)c1ccccc1-c1csc2nc(-c3cccnc3)nn12

$$$$
