
     RDKit          3D

 33 35  0  0  0  0  0  0  0  0999 V2000
    8.9651   -3.1172   22.2479 H   0  0  0  0  0  0  0  0  0  0  0  0
    8.4487   -2.2237   21.9218 C   0  0  0  0  0  0  0  0  0  0  0  0
    7.9225   -1.9714   20.7719 N   0  0  0  0  0  0  0  0  0  0  0  0
    7.3982   -0.6946   20.9205 C   0  0  0  0  0  0  0  0  0  0  0  0
    6.6410   -0.0052   19.8847 C   0  0  0  0  0  0  0  0  0  0  0  0
    7.1559    0.0342   18.5797 C   0  0  0  0  0  0  0  0  0  0  0  0
    8.1105   -0.4378   18.3632 H   0  0  0  0  0  0  0  0  0  0  0  0
    6.5601    0.6714   17.5686 N   0  0  0  0  0  0  0  0  0  0  0  0
    5.4018    1.2943   17.8344 C   0  0  0  0  0  0  0  0  0  0  0  0
    4.9306    1.7902   16.9900 H   0  0  0  0  0  0  0  0  0  0  0  0
    4.8013    1.3146   19.1003 C   0  0  0  0  0  0  0  0  0  0  0  0
    3.8696    1.8451   19.2488 H   0  0  0  0  0  0  0  0  0  0  0  0
    5.4330    0.6568   20.1535 C   0  0  0  0  0  0  0  0  0  0  0  0
    5.0006    0.6338   21.1588 H   0  0  0  0  0  0  0  0  0  0  0  0
    7.6909   -0.2210   22.1656 C   0  0  0  0  0  0  0  0  0  0  0  0
    7.4387    1.0745   22.8587 C   0  0  0  0  0  0  0  0  0  0  0  0
    8.3507    1.3912   23.3822 H   0  0  0  0  0  0  0  0  0  0  0  0
    7.2510    1.8237   22.0868 H   0  0  0  0  0  0  0  0  0  0  0  0
    6.2634    1.0486   23.8222 C   0  0  0  0  0  0  0  0  0  0  0  0
    5.1360    1.8594   23.6261 C   0  0  0  0  0  0  0  0  0  0  0  0
    5.0949    2.5255   22.7656 H   0  0  0  0  0  0  0  0  0  0  0  0
    4.0604    1.8185   24.5191 C   0  0  0  0  0  0  0  0  0  0  0  0
    3.1986    2.4652   24.3594 H   0  0  0  0  0  0  0  0  0  0  0  0
    4.1042    0.9425   25.6180 C   0  0  0  0  0  0  0  0  0  0  0  0
    2.9704    0.9241   26.6216 C   0  0  0  0  0  0  0  0  0  0  0  0
    3.1625    1.8309   27.6008 F   0  0  0  0  0  0  0  0  0  0  0  0
    1.7834    1.2172   26.0530 F   0  0  0  0  0  0  0  0  0  0  0  0
    2.8355   -0.2730   27.2261 F   0  0  0  0  0  0  0  0  0  0  0  0
    5.2396    0.1412   25.8283 C   0  0  0  0  0  0  0  0  0  0  0  0
    5.3031   -0.5234   26.6875 H   0  0  0  0  0  0  0  0  0  0  0  0
    6.3051    0.2000   24.9327 C   0  0  0  0  0  0  0  0  0  0  0  0
    7.1796   -0.4229   25.0866 H   0  0  0  0  0  0  0  0  0  0  0  0
    8.3584   -1.2190   22.8195 O   0  0  0  0  0  0  0  0  0  0  0  0
  1  2  1  0
  2  3  2  0
  3  4  1  0
  4  5  1  0
  5  6  2  0
  6  7  1  0
  6  8  1  0
  8  9  2  0
  9 10  1  0
  9 11  1  0
 11 12  1  0
 11 13  2  0
 13 14  1  0
  4 15  2  0
 15 16  1  0
 16 17  1  0
 16 18  1  0
 16 19  1  0
 19 20  2  0
 20 21  1  0
 20 22  1  0
 22 23  1  0
 22 24  2  0
 24 25  1  0
 25 26  1  0
 25 27  1  0
 25 28  1  0
 24 29  1  0
 29 30  1  0
 29 31  2  0
 31 32  1  0
 15 33  1  0
 33  2  1  0
 13  5  1  0
 31 19  1  0
M  END
>  <cnnaffinity>  (1) 
-5.61896

>  <filename>  (1) 
FC(F)(F)c1ccc(Cc2ocnc2-c2cccnc2)cc1

$$$$
