
     RDKit          3D

 33 35  0  0  0  0  0  0  0  0999 V2000
    9.3978   -0.7812   20.1411 H   0  0  0  0  0  0  0  0  0  0  0  0
    8.6812   -0.9908   20.9359 C   0  0  0  0  0  0  0  0  0  0  0  0
    7.3661   -0.7288   20.9127 C   0  0  0  0  0  0  0  0  0  0  0  0
    6.6351   -0.0117   19.8497 C   0  0  0  0  0  0  0  0  0  0  0  0
    7.1466    0.0536   18.5342 C   0  0  0  0  0  0  0  0  0  0  0  0
    8.0712   -0.4619   18.2875 H   0  0  0  0  0  0  0  0  0  0  0  0
    6.5628    0.6954   17.5150 N   0  0  0  0  0  0  0  0  0  0  0  0
    5.4074    1.3282   17.7703 C   0  0  0  0  0  0  0  0  0  0  0  0
    4.9554    1.8549   16.9317 H   0  0  0  0  0  0  0  0  0  0  0  0
    4.7990    1.3247   19.0292 C   0  0  0  0  0  0  0  0  0  0  0  0
    3.8676    1.8585   19.1648 H   0  0  0  0  0  0  0  0  0  0  0  0
    5.4150    0.6527   20.0853 C   0  0  0  0  0  0  0  0  0  0  0  0
    4.9628    0.6530   21.0802 H   0  0  0  0  0  0  0  0  0  0  0  0
    6.7096   -1.2145   22.2025 C   0  0  0  0  0  0  0  0  0  0  0  0
    5.7919   -1.7837   22.0203 H   0  0  0  0  0  0  0  0  0  0  0  0
    6.4664   -0.3565   22.8442 H   0  0  0  0  0  0  0  0  0  0  0  0
    7.7978   -2.0658   22.8853 C   0  0  0  0  0  0  0  0  0  0  0  0
    7.6785   -3.1238   22.6223 H   0  0  0  0  0  0  0  0  0  0  0  0
    7.7642   -2.0069   23.9798 H   0  0  0  0  0  0  0  0  0  0  0  0
    9.1336   -1.5429   22.2816 C   0  0  2  0  0  0  0  0  0  0  0  0
    9.8554   -2.3551   22.1465 H   0  0  0  0  0  0  0  0  0  0  0  0
    9.8572   -0.5140   23.1587 C   0  0  0  0  0  0  0  0  0  0  0  0
   11.1672   -0.7269   23.3445 N   0  0  0  0  0  0  0  0  0  0  0  0
   11.8247    0.1432   24.1050 C   0  0  0  0  0  0  0  0  0  0  0  0
   12.8918   -0.0350   24.2437 H   0  0  0  0  0  0  0  0  0  0  0  0
   11.2019    1.2388   24.6741 C   0  0  0  0  0  0  0  0  0  0  0  0
   11.7364    1.9259   25.3058 H   0  0  0  0  0  0  0  0  0  0  0  0
    9.8543    1.4300   24.3716 C   0  0  0  0  0  0  0  0  0  0  0  0
    9.1737    2.7475   24.8571 C   0  0  0  0  0  0  0  0  0  0  0  0
    7.9655    2.9583   24.3363 F   0  0  0  0  0  0  0  0  0  0  0  0
    9.0487    2.7796   26.1993 F   0  0  0  0  0  0  0  0  0  0  0  0
    9.9370    3.8204   24.5410 F   0  0  0  0  0  0  0  0  0  0  0  0
    9.1670    0.5160   23.6596 N   0  0  0  0  0  0  0  0  0  0  0  0
  1  2  1  0
  2  3  2  0
  3  4  1  0
  4  5  2  0
  5  6  1  0
  5  7  1  0
  7  8  2  0
  8  9  1  0
  8 10  1  0
 10 11  1  0
 10 12  2  0
 12 13  1  0
  3 14  1  0
 14 15  1  0
 14 16  1  0
 14 17  1  0
 17 18  1  0
 17 19  1  0
 17 20  1  0
 20 21  1  6
 20 22  1  0
 22 23  2  0
 23 24  1  0
 24 25  1  0
 24 26  2  0
 26 27  1  0
 26 28  1  0
 28 29  1  0
 29 30  1  0
 29 31  1  0
 29 32  1  0
 28 33  2  0
 20  2  1  0
 33 22  1  0
 12  4  1  0
M  END
>  <cnnaffinity>  (1) 
-5.40124

>  <filename>  (1) 
FC(F)(F)c1ccnc([C@@H]2C=C(c3cccnc3)CC2)n1

$$$$
