
     RDKit          3D

 40 42  0  0  0  0  0  0  0  0999 V2000
    5.0645    1.7932   16.8037 H   0  0  0  0  0  0  0  0  0  0  0  0
    5.4691    1.3196   17.6953 C   0  0  0  0  0  0  0  0  0  0  0  0
    6.6548    0.7056   17.5598 N   0  0  0  0  0  0  0  0  0  0  0  0
    7.2043    0.1654   18.6586 C   0  0  0  0  0  0  0  0  0  0  0  0
    8.1488   -0.3558   18.5023 H   0  0  0  0  0  0  0  0  0  0  0  0
    6.6223    0.2078   19.9589 C   0  0  0  0  0  0  0  0  0  0  0  0
    7.2328   -0.2635   21.1486 N   0  0  0  0  0  0  0  0  0  0  0  0
    6.6013   -1.4067   21.8265 C   0  0  0  0  0  0  0  0  0  0  0  0
    5.5334   -1.4058   21.5907 H   0  0  0  0  0  0  0  0  0  0  0  0
    6.6970   -1.2863   22.9141 H   0  0  0  0  0  0  0  0  0  0  0  0
    7.2002   -2.7754   21.4237 C   0  0  0  0  0  0  0  0  0  0  0  0
    7.4801   -2.6842   20.3710 H   0  0  0  0  0  0  0  0  0  0  0  0
    6.4480   -3.5725   21.4746 H   0  0  0  0  0  0  0  0  0  0  0  0
    8.3955   -3.1623   22.1794 N   0  0  0  0  0  0  0  0  0  0  0  0
    8.2836   -3.7085   23.4441 C   0  0  0  0  0  0  0  0  0  0  0  0
    9.4489   -4.0198   24.0295 N   0  0  0  0  0  0  0  0  0  0  0  0
    9.4182   -4.6262   25.1938 C   0  0  0  0  0  0  0  0  0  0  0  0
   10.3753   -4.8025   25.6752 H   0  0  0  0  0  0  0  0  0  0  0  0
    8.2415   -5.0321   25.8127 C   0  0  0  0  0  0  0  0  0  0  0  0
    8.4501   -5.9607   26.9415 C   0  0  0  0  0  0  0  0  0  0  0  0
    9.3083   -5.4377   27.8407 F   0  0  0  0  0  0  0  0  0  0  0  0
    9.0083   -7.0938   26.4681 F   0  0  0  0  0  0  0  0  0  0  0  0
    7.3291   -6.2875   27.5973 F   0  0  0  0  0  0  0  0  0  0  0  0
    7.0119   -4.6345   25.2838 C   0  0  0  0  0  0  0  0  0  0  0  0
    6.0688   -4.8621   25.7870 H   0  0  0  0  0  0  0  0  0  0  0  0
    7.0401   -3.9371   24.0887 C   0  0  0  0  0  0  0  0  0  0  0  0
    6.1423   -3.5341   23.6533 H   0  0  0  0  0  0  0  0  0  0  0  0
    9.5762   -2.3262   21.9063 C   0  0  0  0  0  0  0  0  0  0  0  0
    9.7975   -2.3878   20.8288 H   0  0  0  0  0  0  0  0  0  0  0  0
   10.4288   -2.7713   22.4262 H   0  0  0  0  0  0  0  0  0  0  0  0
    9.3968   -0.8640   22.3496 C   0  0  0  0  0  0  0  0  0  0  0  0
    8.8810   -0.8281   23.3157 H   0  0  0  0  0  0  0  0  0  0  0  0
   10.3871   -0.4258   22.5266 H   0  0  0  0  0  0  0  0  0  0  0  0
    8.6563    0.0316   21.3528 C   0  0  0  0  0  0  0  0  0  0  0  0
    9.1823   -0.0249   20.3866 H   0  0  0  0  0  0  0  0  0  0  0  0
    8.7650    1.0832   21.6707 H   0  0  0  0  0  0  0  0  0  0  0  0
    5.3343    0.7696   20.0393 C   0  0  0  0  0  0  0  0  0  0  0  0
    4.8299    0.7538   21.0060 H   0  0  0  0  0  0  0  0  0  0  0  0
    4.7662    1.3569   18.9065 C   0  0  0  0  0  0  0  0  0  0  0  0
    3.8026    1.8525   18.9541 H   0  0  0  0  0  0  0  0  0  0  0  0
  1  2  1  0
  2  3  2  0
  3  4  1  0
  4  5  1  0
  4  6  2  0
  6  7  1  0
  7  8  1  0
  8  9  1  0
  8 10  1  0
  8 11  1  0
 11 12  1  0
 11 13  1  0
 11 14  1  0
 14 15  1  0
 15 16  2  0
 16 17  1  0
 17 18  1  0
 17 19  2  0
 19 20  1  0
 20 21  1  0
 20 22  1  0
 20 23  1  0
 19 24  1  0
 24 25  1  0
 24 26  2  0
 26 27  1  0
 14 28  1  0
 28 29  1  0
 28 30  1  0
 28 31  1  0
 31 32  1  0
 31 33  1  0
 31 34  1  0
 34 35  1  0
 34 36  1  0
  6 37  1  0
 37 38  1  0
 37 39  2  0
 39 40  1  0
 39  2  1  0
 34  7  1  0
 26 15  1  0
M  END
>  <cnnaffinity>  (1) 
-5.06596

>  <filename>  (1) 
FC(F)(F)c1ccc(N2CCCN(c3cccnc3)CC2)nc1

$$$$
