
     RDKit          3D

 32 35  0  0  0  0  0  0  0  0999 V2000
    4.9512    1.7722   16.9818 H   0  0  0  0  0  0  0  0  0  0  0  0
    5.4099    1.2872   17.8418 C   0  0  0  0  0  0  0  0  0  0  0  0
    6.5724    0.6578   17.6127 N   0  0  0  0  0  0  0  0  0  0  0  0
    7.1615    0.0801   18.6640 C   0  0  0  0  0  0  0  0  0  0  0  0
    8.1079   -0.4142   18.4484 H   0  0  0  0  0  0  0  0  0  0  0  0
    6.6569    0.0976   19.9794 C   0  0  0  0  0  0  0  0  0  0  0  0
    7.4381   -0.5948   21.0256 C   0  0  0  0  0  0  0  0  0  0  0  0
    8.3053   -1.6138   20.8690 C   0  0  0  0  0  0  0  0  0  0  0  0
    8.7246   -1.9869   19.9499 H   0  0  0  0  0  0  0  0  0  0  0  0
    8.8789   -2.2814   22.3663 S   0  0  0  0  0  0  0  0  0  0  0  0
    8.0775   -1.0155   23.2315 C   0  0  0  0  0  0  0  0  0  0  0  0
    8.0920   -0.5008   24.4423 N   0  0  0  0  0  0  0  0  0  0  0  0
    7.3281    0.6118   24.2565 C   0  0  0  0  0  0  0  0  0  0  0  0
    7.0598    1.5704   25.3082 C   0  0  0  0  0  0  0  0  0  0  0  0
    7.6049    1.3267   26.5752 C   0  0  0  0  0  0  0  0  0  0  0  0
    8.2254    0.4540   26.7710 H   0  0  0  0  0  0  0  0  0  0  0  0
    7.3944    2.1441   27.6020 N   0  0  0  0  0  0  0  0  0  0  0  0
    6.6408    3.2403   27.4200 C   0  0  0  0  0  0  0  0  0  0  0  0
    6.3815    4.1932   28.5951 C   0  0  0  0  0  0  0  0  0  0  0  0
    6.9592    3.8260   29.7398 F   0  0  0  0  0  0  0  0  0  0  0  0
    5.0545    4.3146   28.8212 F   0  0  0  0  0  0  0  0  0  0  0  0
    6.8156    5.4383   28.2974 F   0  0  0  0  0  0  0  0  0  0  0  0
    6.0680    3.5660   26.1754 C   0  0  0  0  0  0  0  0  0  0  0  0
    5.4700    4.4622   26.0642 H   0  0  0  0  0  0  0  0  0  0  0  0
    6.2830    2.7213   25.0990 C   0  0  0  0  0  0  0  0  0  0  0  0
    5.8694    2.9352   24.1111 H   0  0  0  0  0  0  0  0  0  0  0  0
    6.8496    0.8027   23.0353 N   0  0  0  0  0  0  0  0  0  0  0  0
    7.3341   -0.2757   22.3811 N   0  0  0  0  0  0  0  0  0  0  0  0
    5.4235    0.7434   20.1951 C   0  0  0  0  0  0  0  0  0  0  0  0
    4.9857    0.7894   21.1968 H   0  0  0  0  0  0  0  0  0  0  0  0
    4.7948    1.3342   19.0979 C   0  0  0  0  0  0  0  0  0  0  0  0
    3.8421    1.8415   19.2010 H   0  0  0  0  0  0  0  0  0  0  0  0
  1  2  1  0
  2  3  2  0
  3  4  1  0
  4  5  1  0
  4  6  2  0
  6  7  1  0
  7  8  2  0
  8  9  1  0
  8 10  1  0
 10 11  1  0
 11 12  2  0
 12 13  1  0
 13 14  1  0
 14 15  2  0
 15 16  1  0
 15 17  1  0
 17 18  2  0
 18 19  1  0
 19 20  1  0
 19 21  1  0
 19 22  1  0
 18 23  1  0
 23 24  1  0
 23 25  2  0
 25 26  1  0
 13 27  2  0
 27 28  1  0
  6 29  1  0
 29 30  1  0
 29 31  2  0
 31 32  1  0
 31  2  1  0
 28  7  1  0
 28 11  1  0
 25 14  1  0
M  END
>  <cnnaffinity>  (1) 
-5.4649

>  <filename>  (1) 
FC(F)(F)c1ccc(-c2nc3scc(-c4cccnc4)n3n2)cn1

$$$$
