
     RDKit          3D

 30 32  0  0  0  0  0  0  0  0999 V2000
    4.9084    1.7715   17.0067 H   0  0  0  0  0  0  0  0  0  0  0  0
    5.4036    1.2908   17.8470 C   0  0  0  0  0  0  0  0  0  0  0  0
    6.5728    0.6811   17.5856 N   0  0  0  0  0  0  0  0  0  0  0  0
    7.1785    0.0577   18.5984 C   0  0  0  0  0  0  0  0  0  0  0  0
    8.1277   -0.4390   18.3826 H   0  0  0  0  0  0  0  0  0  0  0  0
    6.6529    0.0206   19.8970 C   0  0  0  0  0  0  0  0  0  0  0  0
    7.3701   -0.7209   20.9229 C   0  0  0  0  0  0  0  0  0  0  0  0
    7.9332   -1.8835   20.7339 N   0  0  0  0  0  0  0  0  0  0  0  0
    8.4300   -2.3068   21.9374 N   0  0  0  0  0  0  0  0  0  0  0  0
    8.1650   -1.3763   22.8088 C   0  0  0  0  0  0  0  0  0  0  0  0
    8.4523   -1.3919   23.8479 H   0  0  0  0  0  0  0  0  0  0  0  0
    7.4924   -0.3258   22.2374 N   0  0  0  0  0  0  0  0  0  0  0  0
    7.1472    0.9165   22.8625 C   0  0  0  0  0  0  0  0  0  0  0  0
    7.3998    2.1404   22.2230 C   0  0  0  0  0  0  0  0  0  0  0  0
    7.8465    2.1526   21.2358 H   0  0  0  0  0  0  0  0  0  0  0  0
    7.0618    3.3422   22.8415 C   0  0  0  0  0  0  0  0  0  0  0  0
    7.2448    4.2764   22.3159 H   0  0  0  0  0  0  0  0  0  0  0  0
    6.4962    3.3397   24.1241 C   0  0  0  0  0  0  0  0  0  0  0  0
    6.0946    4.6350   24.7735 C   0  0  0  0  0  0  0  0  0  0  0  0
    6.8774    5.6636   24.4058 F   0  0  0  0  0  0  0  0  0  0  0  0
    6.1427    4.5765   26.1160 F   0  0  0  0  0  0  0  0  0  0  0  0
    4.8336    4.9705   24.4475 F   0  0  0  0  0  0  0  0  0  0  0  0
    6.2377    2.1191   24.7644 C   0  0  0  0  0  0  0  0  0  0  0  0
    5.7785    2.0963   25.7499 H   0  0  0  0  0  0  0  0  0  0  0  0
    6.5690    0.9178   24.1395 C   0  0  0  0  0  0  0  0  0  0  0  0
    6.3692   -0.0218   24.6435 H   0  0  0  0  0  0  0  0  0  0  0  0
    5.4311    0.6523   20.1549 C   0  0  0  0  0  0  0  0  0  0  0  0
    5.0087    0.6309   21.1576 H   0  0  0  0  0  0  0  0  0  0  0  0
    4.8013    1.3121   19.1105 C   0  0  0  0  0  0  0  0  0  0  0  0
    3.8699    1.8461   19.2669 H   0  0  0  0  0  0  0  0  0  0  0  0
  1  2  1  0
  2  3  2  0
  3  4  1  0
  4  5  1  0
  4  6  2  0
  6  7  1  0
  7  8  2  0
  8  9  1  0
  9 10  2  0
 10 11  1  0
 10 12  1  0
 12 13  1  0
 13 14  2  0
 14 15  1  0
 14 16  1  0
 16 17  1  0
 16 18  2  0
 18 19  1  0
 19 20  1  0
 19 21  1  0
 19 22  1  0
 18 23  1  0
 23 24  1  0
 23 25  2  0
 25 26  1  0
  6 27  1  0
 27 28  1  0
 27 29  2  0
 29 30  1  0
 29  2  1  0
 12  7  1  0
 25 13  1  0
M  END
>  <cnnaffinity>  (1) 
-5.04666

>  <filename>  (1) 
FC(F)(F)c1ccc(-n2cnnc2-c2cccnc2)cc1

$$$$
