
     RDKit          3D

 32 35  0  0  0  0  0  0  0  0999 V2000
    4.9319    1.7734   17.0011 H   0  0  0  0  0  0  0  0  0  0  0  0
    5.4098    1.2851   17.8460 C   0  0  0  0  0  0  0  0  0  0  0  0
    6.5743    0.6655   17.5962 N   0  0  0  0  0  0  0  0  0  0  0  0
    7.1779    0.0518   18.6193 C   0  0  0  0  0  0  0  0  0  0  0  0
    8.1250   -0.4322   18.3866 H   0  0  0  0  0  0  0  0  0  0  0  0
    6.6419    0.0142   19.9156 C   0  0  0  0  0  0  0  0  0  0  0  0
    7.3607   -0.6977   20.9737 C   0  0  0  0  0  0  0  0  0  0  0  0
    8.5512   -1.3259   20.7532 N   0  0  0  0  0  0  0  0  0  0  0  0
    8.8220   -1.7986   21.9479 C   0  0  0  0  0  0  0  0  0  0  0  0
   10.0717   -2.6980   22.7674 S   0  0  0  0  0  0  0  0  0  0  0  0
    9.1870   -2.5678   24.2650 C   0  0  0  0  0  0  0  0  0  0  0  0
    9.6130   -3.0324   25.1440 H   0  0  0  0  0  0  0  0  0  0  0  0
    8.0062   -1.9202   24.1515 C   0  0  0  0  0  0  0  0  0  0  0  0
    7.0247   -1.5638   25.2149 C   0  0  0  0  0  0  0  0  0  0  0  0
    6.7079   -0.2627   25.3316 N   0  0  0  0  0  0  0  0  0  0  0  0
    5.9134    0.1240   26.3237 C   0  0  0  0  0  0  0  0  0  0  0  0
    5.6746    1.1833   26.3532 H   0  0  0  0  0  0  0  0  0  0  0  0
    5.3971   -0.7481   27.2859 C   0  0  0  0  0  0  0  0  0  0  0  0
    4.7588   -0.3767   28.0759 H   0  0  0  0  0  0  0  0  0  0  0  0
    5.7065   -2.0948   27.1949 C   0  0  0  0  0  0  0  0  0  0  0  0
    5.3169   -2.8113   27.9243 H   0  0  0  0  0  0  0  0  0  0  0  0
    6.5078   -2.5177   26.1247 C   0  0  0  0  0  0  0  0  0  0  0  0
    6.8108   -3.9857   25.9860 C   0  0  0  0  0  0  0  0  0  0  0  0
    5.8823   -4.7506   26.5913 F   0  0  0  0  0  0  0  0  0  0  0  0
    7.9963   -4.2918   26.5584 F   0  0  0  0  0  0  0  0  0  0  0  0
    6.8689   -4.4070   24.7121 F   0  0  0  0  0  0  0  0  0  0  0  0
    7.8511   -1.4755   22.8359 N   0  0  0  0  0  0  0  0  0  0  0  0
    6.8870   -0.7714   22.2129 N   0  0  0  0  0  0  0  0  0  0  0  0
    5.4214    0.6599   20.1694 C   0  0  0  0  0  0  0  0  0  0  0  0
    4.9964    0.6368   21.1775 H   0  0  0  0  0  0  0  0  0  0  0  0
    4.8037    1.3102   19.1076 C   0  0  0  0  0  0  0  0  0  0  0  0
    3.8730    1.8439   19.2543 H   0  0  0  0  0  0  0  0  0  0  0  0
  1  2  1  0
  2  3  2  0
  3  4  1  0
  4  5  1  0
  4  6  2  0
  6  7  1  0
  7  8  1  0
  8  9  2  0
  9 10  1  0
 10 11  1  0
 11 12  1  0
 11 13  2  0
 13 14  1  0
 14 15  2  0
 15 16  1  0
 16 17  1  0
 16 18  2  0
 18 19  1  0
 18 20  1  0
 20 21  1  0
 20 22  2  0
 22 23  1  0
 23 24  1  0
 23 25  1  0
 23 26  1  0
 13 27  1  0
 27 28  1  0
  6 29  1  0
 29 30  1  0
 29 31  2  0
 31 32  1  0
 31  2  1  0
 28  7  2  0
 27  9  1  0
 22 14  1  0
M  END
>  <cnnaffinity>  (1) 
-5.81782

>  <filename>  (1) 
FC(F)(F)c1cccnc1-c1csc2nc(-c3cccnc3)nn12

$$$$
