
     RDKit          3D

 31 33  0  0  0  0  0  0  0  0999 V2000
    4.9288    1.7884   16.9961 H   0  0  0  0  0  0  0  0  0  0  0  0
    5.3989    1.2904   17.8427 C   0  0  0  0  0  0  0  0  0  0  0  0
    6.5566    0.6623   17.5865 N   0  0  0  0  0  0  0  0  0  0  0  0
    7.1713    0.0405   18.5986 C   0  0  0  0  0  0  0  0  0  0  0  0
    8.1241   -0.4288   18.3637 H   0  0  0  0  0  0  0  0  0  0  0  0
    6.6537   -0.0119   19.9086 C   0  0  0  0  0  0  0  0  0  0  0  0
    7.3402   -0.6994   20.9575 N   0  0  0  0  0  0  0  0  0  0  0  0
    6.7518   -1.6143   21.8158 C   0  0  0  0  0  0  0  0  0  0  0  0
    5.6975   -1.8248   21.7140 H   0  0  0  0  0  0  0  0  0  0  0  0
    7.6964   -2.0706   22.6824 C   0  0  0  0  0  0  0  0  0  0  0  0
    7.5935   -3.0254   23.8120 C   0  0  0  0  0  0  0  0  0  0  0  0
    8.6935   -3.3169   24.5381 N   0  0  0  0  0  0  0  0  0  0  0  0
    8.5733   -4.1879   25.5339 C   0  0  0  0  0  0  0  0  0  0  0  0
    9.4874   -4.3859   26.0929 H   0  0  0  0  0  0  0  0  0  0  0  0
    7.3620   -4.8121   25.8536 C   0  0  0  0  0  0  0  0  0  0  0  0
    7.3032   -5.7308   27.0167 C   0  0  0  0  0  0  0  0  0  0  0  0
    8.4708   -6.3656   27.2119 F   0  0  0  0  0  0  0  0  0  0  0  0
    6.3461   -6.6623   26.8455 F   0  0  0  0  0  0  0  0  0  0  0  0
    7.0173   -5.0710   28.1559 F   0  0  0  0  0  0  0  0  0  0  0  0
    6.2071   -4.5080   25.1221 C   0  0  0  0  0  0  0  0  0  0  0  0
    5.2389   -4.9648   25.3549 H   0  0  0  0  0  0  0  0  0  0  0  0
    6.3417   -3.6002   24.0881 C   0  0  0  0  0  0  0  0  0  0  0  0
    5.4951   -3.3134   23.4818 H   0  0  0  0  0  0  0  0  0  0  0  0
    8.8655   -1.4020   22.3135 N   0  0  0  0  0  0  0  0  0  0  0  0
    9.7759   -1.4528   22.7440 H   0  0  0  0  0  0  0  0  0  0  0  0
    8.6677   -0.5265   21.3047 C   0  0  0  0  0  0  0  0  0  0  0  0
    9.8078    0.5221   20.7251 S   0  0  0  0  0  0  0  0  0  0  0  0
    5.4452    0.6392   20.1660 C   0  0  0  0  0  0  0  0  0  0  0  0
    5.0293    0.6288   21.1755 H   0  0  0  0  0  0  0  0  0  0  0  0
    4.8139    1.3069   19.1123 C   0  0  0  0  0  0  0  0  0  0  0  0
    3.8840    1.8388   19.2594 H   0  0  0  0  0  0  0  0  0  0  0  0
  1  2  1  0
  2  3  2  0
  3  4  1  0
  4  5  1  0
  4  6  2  0
  6  7  1  0
  7  8  1  0
  8  9  1  0
  8 10  2  0
 10 11  1  0
 11 12  2  0
 12 13  1  0
 13 14  1  0
 13 15  2  0
 15 16  1  0
 16 17  1  0
 16 18  1  0
 16 19  1  0
 15 20  1  0
 20 21  1  0
 20 22  2  0
 22 23  1  0
 10 24  1  0
 24 25  1  0
 24 26  1  0
 26 27  2  0
  6 28  1  0
 28 29  1  0
 28 30  2  0
 30 31  1  0
 30  2  1  0
 26  7  1  0
 22 11  1  0
M  END
>  <cnnaffinity>  (1) 
-5.72185

>  <filename>  (1) 
FC(F)(F)c1ccc(-c2cn(-c3cccnc3)c(=S)[nH]2)nc1

$$$$
