
     RDKit          3D

 38 41  0  0  0  0  0  0  0  0999 V2000
    4.9518    1.8572   16.9479 H   0  0  0  0  0  0  0  0  0  0  0  0
    5.4058    1.3131   17.7749 C   0  0  0  0  0  0  0  0  0  0  0  0
    6.5536    0.6727   17.5141 N   0  0  0  0  0  0  0  0  0  0  0  0
    7.1372    0.0225   18.5285 C   0  0  0  0  0  0  0  0  0  0  0  0
    8.0806   -0.4639   18.2825 H   0  0  0  0  0  0  0  0  0  0  0  0
    6.6348   -0.0531   19.8421 C   0  0  0  0  0  0  0  0  0  0  0  0
    7.3669   -0.8208   20.9352 C   0  0  1  0  0  0  0  0  0  0  0  0
    7.0170   -1.8588   20.9259 H   0  0  0  0  0  0  0  0  0  0  0  0
    8.9264   -0.8903   20.7771 C   0  0  0  0  0  0  0  0  0  0  0  0
    9.2715   -1.8077   20.2955 H   0  0  0  0  0  0  0  0  0  0  0  0
    9.3023   -0.0364   20.2052 H   0  0  0  0  0  0  0  0  0  0  0  0
    9.4190   -0.7795   22.1856 C   0  0  0  0  0  0  0  0  0  0  0  0
   10.6077   -0.7993   22.7668 N   0  0  0  0  0  0  0  0  0  0  0  0
   10.3341   -0.4273   24.0461 N   0  0  0  0  0  0  0  0  0  0  0  0
   11.1120   -0.1828   24.6445 H   0  0  0  0  0  0  0  0  0  0  0  0
    9.0136   -0.1403   24.2605 C   0  0  0  0  0  0  0  0  0  0  0  0
    8.3886    0.4688   25.4727 C   0  0  0  0  0  0  0  0  0  0  0  0
    7.4062   -0.2574   26.1697 C   0  0  0  0  0  0  0  0  0  0  0  0
    7.1616   -1.2665   25.8449 H   0  0  0  0  0  0  0  0  0  0  0  0
    6.7533    0.3010   27.2717 C   0  0  0  0  0  0  0  0  0  0  0  0
    6.0093   -0.2846   27.8114 H   0  0  0  0  0  0  0  0  0  0  0  0
    7.0573    1.6028   27.6785 C   0  0  0  0  0  0  0  0  0  0  0  0
    6.5575    2.0248   28.5471 H   0  0  0  0  0  0  0  0  0  0  0  0
    7.9823    2.3642   26.9613 C   0  0  0  0  0  0  0  0  0  0  0  0
    8.1569    3.4026   27.2527 H   0  0  0  0  0  0  0  0  0  0  0  0
    8.6405    1.8111   25.8503 C   0  0  0  0  0  0  0  0  0  0  0  0
    9.5146    2.6874   24.9670 C   0  0  0  0  0  0  0  0  0  0  0  0
    9.0871    2.6765   23.6873 F   0  0  0  0  0  0  0  0  0  0  0  0
    9.5393    3.9690   25.3652 F   0  0  0  0  0  0  0  0  0  0  0  0
   10.8010    2.2670   24.9586 F   0  0  0  0  0  0  0  0  0  0  0  0
    8.4054   -0.4176   23.0627 C   0  0  0  0  0  0  0  0  0  0  0  0
    7.0951   -0.2797   22.3771 C   0  0  0  0  0  0  0  0  0  0  0  0
    6.3018   -0.8407   22.8823 H   0  0  0  0  0  0  0  0  0  0  0  0
    6.8062    0.7779   22.3641 H   0  0  0  0  0  0  0  0  0  0  0  0
    5.4139    0.6070   20.0745 C   0  0  0  0  0  0  0  0  0  0  0  0
    4.9633    0.6154   21.0691 H   0  0  0  0  0  0  0  0  0  0  0  0
    4.7985    1.2994   19.0321 C   0  0  0  0  0  0  0  0  0  0  0  0
    3.8836    1.8546   19.1935 H   0  0  0  0  0  0  0  0  0  0  0  0
  1  2  1  0
  2  3  2  0
  3  4  1  0
  4  5  1  0
  4  6  2  0
  6  7  1  0
  7  8  1  1
  7  9  1  0
  9 10  1  0
  9 11  1  0
  9 12  1  0
 12 13  2  0
 13 14  1  0
 14 15  1  0
 14 16  1  0
 16 17  1  0
 17 18  2  0
 18 19  1  0
 18 20  1  0
 20 21  1  0
 20 22  2  0
 22 23  1  0
 22 24  1  0
 24 25  1  0
 24 26  2  0
 26 27  1  0
 27 28  1  0
 27 29  1  0
 27 30  1  0
 16 31  2  0
 31 32  1  0
 32 33  1  0
 32 34  1  0
  6 35  1  0
 35 36  1  0
 35 37  2  0
 37 38  1  0
 37  2  1  0
 32  7  1  0
 31 12  1  0
 26 17  1  0
M  END
>  <cnnaffinity>  (1) 
-5.55982

>  <filename>  (1) 
FC(F)(F)c1ccccc1-c1[nH]nc2c1C[C@@H](c1cccnc1)C2

$$$$
