
     RDKit          3D

 31 33  0  0  0  0  0  0  0  0999 V2000
    5.0990    1.9201   16.7180 H   0  0  0  0  0  0  0  0  0  0  0  0
    5.4781    1.3795   17.5827 C   0  0  0  0  0  0  0  0  0  0  0  0
    6.6083    0.6841   17.3916 N   0  0  0  0  0  0  0  0  0  0  0  0
    7.1058    0.0224   18.4409 C   0  0  0  0  0  0  0  0  0  0  0  0
    8.0311   -0.5223   18.2700 H   0  0  0  0  0  0  0  0  0  0  0  0
    6.5102    0.0056   19.7154 C   0  0  0  0  0  0  0  0  0  0  0  0
    7.1655   -0.7480   20.7983 C   0  0  0  0  0  0  0  0  0  0  0  0
    8.2652   -1.4652   20.5782 N   0  0  0  0  0  0  0  0  0  0  0  0
    8.5826   -2.0065   21.7655 N   0  0  0  0  0  0  0  0  0  0  0  0
    9.4543   -2.5099   21.8597 H   0  0  0  0  0  0  0  0  0  0  0  0
    7.7442   -1.6279   22.7672 C   0  0  0  0  0  0  0  0  0  0  0  0
    7.8458   -2.0755   24.1871 C   0  0  0  0  0  0  0  0  0  0  0  0
    6.8354   -2.9111   24.7001 C   0  0  0  0  0  0  0  0  0  0  0  0
    6.0158   -3.2129   24.0557 H   0  0  0  0  0  0  0  0  0  0  0  0
    6.8776   -3.3666   26.0186 C   0  0  0  0  0  0  0  0  0  0  0  0
    6.0938   -4.0148   26.3998 H   0  0  0  0  0  0  0  0  0  0  0  0
    7.9318   -2.9914   26.8500 C   0  0  0  0  0  0  0  0  0  0  0  0
    7.9824   -3.3759   27.8638 H   0  0  0  0  0  0  0  0  0  0  0  0
    8.9206   -2.1317   26.3774 C   0  0  0  0  0  0  0  0  0  0  0  0
    9.7202   -1.8331   27.0527 H   0  0  0  0  0  0  0  0  0  0  0  0
    8.8936   -1.6656   25.0477 C   0  0  0  0  0  0  0  0  0  0  0  0
    9.9702   -0.7022   24.5680 C   0  0  0  0  0  0  0  0  0  0  0  0
   10.8172   -0.3575   25.5531 F   0  0  0  0  0  0  0  0  0  0  0  0
   10.7280   -1.2404   23.5837 F   0  0  0  0  0  0  0  0  0  0  0  0
    9.4594    0.4438   24.0842 F   0  0  0  0  0  0  0  0  0  0  0  0
    6.8022   -0.8350   22.1583 C   0  0  0  0  0  0  0  0  0  0  0  0
    5.9965   -0.3180   22.6489 H   0  0  0  0  0  0  0  0  0  0  0  0
    5.3176    0.7274   19.8924 C   0  0  0  0  0  0  0  0  0  0  0  0
    4.8038    0.7531   20.8550 H   0  0  0  0  0  0  0  0  0  0  0  0
    4.7991    1.4277   18.8041 C   0  0  0  0  0  0  0  0  0  0  0  0
    3.8957    2.0184   18.8907 H   0  0  0  0  0  0  0  0  0  0  0  0
  1  2  1  0
  2  3  2  0
  3  4  1  0
  4  5  1  0
  4  6  2  0
  6  7  1  0
  7  8  2  0
  8  9  1  0
  9 10  1  0
  9 11  1  0
 11 12  1  0
 12 13  2  0
 13 14  1  0
 13 15  1  0
 15 16  1  0
 15 17  2  0
 17 18  1  0
 17 19  1  0
 19 20  1  0
 19 21  2  0
 21 22  1  0
 22 23  1  0
 22 24  1  0
 22 25  1  0
 11 26  2  0
 26 27  1  0
  6 28  1  0
 28 29  1  0
 28 30  2  0
 30 31  1  0
 30  2  1  0
 26  7  1  0
 21 12  1  0
M  END
>  <cnnaffinity>  (1) 
-5.32002

>  <filename>  (1) 
FC(F)(F)c1ccccc1-c1cc(-c2cccnc2)n[nH]1

$$$$
