
     RDKit          3D

 29 31  0  0  0  0  0  0  0  0999 V2000
    4.9271    1.8408   16.9847 H   0  0  0  0  0  0  0  0  0  0  0  0
    5.3757    1.2958   17.8101 C   0  0  0  0  0  0  0  0  0  0  0  0
    6.5251    0.6573   17.5463 N   0  0  0  0  0  0  0  0  0  0  0  0
    7.1312    0.0201   18.5531 C   0  0  0  0  0  0  0  0  0  0  0  0
    8.0823   -0.4614   18.3187 H   0  0  0  0  0  0  0  0  0  0  0  0
    6.6100   -0.0266   19.8644 C   0  0  0  0  0  0  0  0  0  0  0  0
    7.5326   -0.7851   21.2145 S   0  0  0  0  0  0  0  0  0  0  0  0
    8.4643    0.6254   21.7500 C   0  0  0  0  0  0  0  0  0  0  0  0
    9.6664    0.8910   21.2909 N   0  0  0  0  0  0  0  0  0  0  0  0
    9.9860    2.1098   21.7741 N   0  0  0  0  0  0  0  0  0  0  0  0
    9.0549    2.5961   22.4892 N   0  0  0  0  0  0  0  0  0  0  0  0
    8.0534    1.6726   22.5011 N   0  0  0  0  0  0  0  0  0  0  0  0
    6.8576    1.7726   23.2417 C   0  0  0  0  0  0  0  0  0  0  0  0
    6.5025    0.6444   23.8258 N   0  0  0  0  0  0  0  0  0  0  0  0
    5.4120    0.6444   24.6001 C   0  0  0  0  0  0  0  0  0  0  0  0
    5.2017   -0.2949   25.1017 H   0  0  0  0  0  0  0  0  0  0  0  0
    4.5822    1.7517   24.7540 C   0  0  0  0  0  0  0  0  0  0  0  0
    3.7001    1.6817   25.3796 H   0  0  0  0  0  0  0  0  0  0  0  0
    4.9071    2.9248   24.0751 C   0  0  0  0  0  0  0  0  0  0  0  0
    4.2589    3.8043   24.0947 H   0  0  0  0  0  0  0  0  0  0  0  0
    6.0802    2.9505   23.3159 C   0  0  0  0  0  0  0  0  0  0  0  0
    6.4189    4.1168   22.4264 C   0  0  0  0  0  0  0  0  0  0  0  0
    7.5268    4.7721   22.7977 F   0  0  0  0  0  0  0  0  0  0  0  0
    5.4295    5.0322   22.3811 F   0  0  0  0  0  0  0  0  0  0  0  0
    6.5821    3.6837   21.1724 F   0  0  0  0  0  0  0  0  0  0  0  0
    5.3934    0.6158   20.1162 C   0  0  0  0  0  0  0  0  0  0  0  0
    4.9654    0.5880   21.1223 H   0  0  0  0  0  0  0  0  0  0  0  0
    4.7639    1.2957   19.0703 C   0  0  0  0  0  0  0  0  0  0  0  0
    3.8464    1.8561   19.2245 H   0  0  0  0  0  0  0  0  0  0  0  0
  1  2  1  0
  2  3  2  0
  3  4  1  0
  4  5  1  0
  4  6  2  0
  6  7  1  0
  7  8  1  0
  8  9  2  0
  9 10  1  0
 10 11  2  0
 11 12  1  0
 12 13  1  0
 13 14  2  0
 14 15  1  0
 15 16  1  0
 15 17  2  0
 17 18  1  0
 17 19  1  0
 19 20  1  0
 19 21  2  0
 21 22  1  0
 22 23  1  0
 22 24  1  0
 22 25  1  0
  6 26  1  0
 26 27  1  0
 26 28  2  0
 28 29  1  0
 28  2  1  0
 12  8  1  0
 21 13  1  0
M  END
>  <cnnaffinity>  (1) 
-5.05111

>  <filename>  (1) 
FC(F)(F)c1cccnc1-n1nnnc1Sc1cccnc1

$$$$
