
     RDKit          3D

 29 30  0  0  0  0  0  0  0  0999 V2000
    4.9152    1.7896   16.9895 H   0  0  0  0  0  0  0  0  0  0  0  0
    5.3973    1.2982   17.8310 C   0  0  0  0  0  0  0  0  0  0  0  0
    6.5617    0.6878   17.5687 N   0  0  0  0  0  0  0  0  0  0  0  0
    7.1606    0.0628   18.5906 C   0  0  0  0  0  0  0  0  0  0  0  0
    8.1115   -0.4178   18.3657 H   0  0  0  0  0  0  0  0  0  0  0  0
    6.6438   -0.0089   19.8967 C   0  0  0  0  0  0  0  0  0  0  0  0
    7.3980   -0.7065   21.0015 C   0  0  0  0  0  0  0  0  0  0  0  0
    7.9329   -1.5804   20.6062 H   0  0  0  0  0  0  0  0  0  0  0  0
    6.6910   -1.0796   21.7557 H   0  0  0  0  0  0  0  0  0  0  0  0
    8.4076    0.1938   21.7607 C   0  0  1  0  0  0  0  0  0  0  0  0
    8.8614   -0.3834   22.5675 H   0  0  0  0  0  0  0  0  0  0  0  0
    9.7672    0.6337   20.6771 Cl  0  0  0  0  0  0  0  0  0  0  0  0
    7.7755    1.4299   22.3741 C   0  0  0  0  0  0  0  0  0  0  0  0
    7.3530    1.2853   23.6308 N   0  0  0  0  0  0  0  0  0  0  0  0
    6.7484    2.3256   24.2293 C   0  0  0  0  0  0  0  0  0  0  0  0
    6.2715    2.1597   25.6877 C   0  0  0  0  0  0  0  0  0  0  0  0
    4.9319    2.3190   25.7693 F   0  0  0  0  0  0  0  0  0  0  0  0
    6.8019    3.1224   26.4744 F   0  0  0  0  0  0  0  0  0  0  0  0
    6.5696    0.9823   26.2387 F   0  0  0  0  0  0  0  0  0  0  0  0
    6.5148    3.5517   23.5760 C   0  0  0  0  0  0  0  0  0  0  0  0
    6.0126    4.3657   24.0899 H   0  0  0  0  0  0  0  0  0  0  0  0
    6.9413    3.6977   22.2530 C   0  0  0  0  0  0  0  0  0  0  0  0
    6.7640    4.6290   21.7072 H   0  0  0  0  0  0  0  0  0  0  0  0
    7.5902    2.6190   21.6525 C   0  0  0  0  0  0  0  0  0  0  0  0
    7.9217    2.5976   20.6265 H   0  0  0  0  0  0  0  0  0  0  0  0
    5.4236    0.6322   20.1424 C   0  0  0  0  0  0  0  0  0  0  0  0
    5.0061    0.6312   21.1555 H   0  0  0  0  0  0  0  0  0  0  0  0
    4.7961    1.3096   19.0948 C   0  0  0  0  0  0  0  0  0  0  0  0
    3.8683    1.8465   19.2493 H   0  0  0  0  0  0  0  0  0  0  0  0
  1  2  1  0
  2  3  2  0
  3  4  1  0
  4  5  1  0
  4  6  2  0
  6  7  1  0
  7  8  1  0
  7  9  1  0
  7 10  1  0
 10 11  1  1
 10 12  1  0
 10 13  1  0
 13 14  2  0
 14 15  1  0
 15 16  1  0
 16 17  1  0
 16 18  1  0
 16 19  1  0
 15 20  2  0
 20 21  1  0
 20 22  1  0
 22 23  1  0
 22 24  2  0
 24 25  1  0
  6 26  1  0
 26 27  1  0
 26 28  2  0
 28 29  1  0
 28  2  1  0
 24 13  1  0
M  END
>  <cnnaffinity>  (1) 
-4.72202

>  <filename>  (1) 
FC(F)(F)c1cccc([C@H](Cl)Cc2cccnc2)n1

$$$$
