
     RDKit          3D

 31 34  0  0  0  0  0  0  0  0999 V2000
    4.9163    1.7758   17.0021 H   0  0  0  0  0  0  0  0  0  0  0  0
    5.4040    1.2900   17.8431 C   0  0  0  0  0  0  0  0  0  0  0  0
    6.5698    0.6779   17.5780 N   0  0  0  0  0  0  0  0  0  0  0  0
    7.1748    0.0562   18.5912 C   0  0  0  0  0  0  0  0  0  0  0  0
    8.1246   -0.4347   18.3739 H   0  0  0  0  0  0  0  0  0  0  0  0
    6.6479    0.0112   19.8926 C   0  0  0  0  0  0  0  0  0  0  0  0
    7.4014   -0.6987   20.9194 C   0  0  0  0  0  0  0  0  0  0  0  0
    8.3279   -1.5996   20.7024 N   0  0  0  0  0  0  0  0  0  0  0  0
    8.8280   -2.0319   21.9104 N   0  0  0  0  0  0  0  0  0  0  0  0
    8.1929   -1.3499   22.8214 C   0  0  0  0  0  0  0  0  0  0  0  0
    8.2588   -1.0920   24.5352 S   0  0  0  0  0  0  0  0  0  0  0  0
    7.0305    0.1769   24.3249 C   0  0  0  0  0  0  0  0  0  0  0  0
    6.5534    0.9479   25.4768 C   0  0  0  0  0  0  0  0  0  0  0  0
    5.5860    1.9513   25.2809 C   0  0  0  0  0  0  0  0  0  0  0  0
    5.1896    2.1600   24.2936 H   0  0  0  0  0  0  0  0  0  0  0  0
    5.1042    2.6923   26.2732 N   0  0  0  0  0  0  0  0  0  0  0  0
    5.5541    2.4863   27.5232 C   0  0  0  0  0  0  0  0  0  0  0  0
    4.9943    3.3486   28.6728 C   0  0  0  0  0  0  0  0  0  0  0  0
    5.9824    4.0205   29.3034 F   0  0  0  0  0  0  0  0  0  0  0  0
    4.0885    4.2459   28.2871 F   0  0  0  0  0  0  0  0  0  0  0  0
    4.4190    2.5802   29.6228 F   0  0  0  0  0  0  0  0  0  0  0  0
    6.5212    1.5072   27.8209 C   0  0  0  0  0  0  0  0  0  0  0  0
    6.8703    1.3561   28.8369 H   0  0  0  0  0  0  0  0  0  0  0  0
    7.0235    0.7324   26.7864 C   0  0  0  0  0  0  0  0  0  0  0  0
    7.7728   -0.0279   27.0037 H   0  0  0  0  0  0  0  0  0  0  0  0
    6.6159    0.3625   23.1103 N   0  0  0  0  0  0  0  0  0  0  0  0
    7.2661   -0.5137   22.2823 N   0  0  0  0  0  0  0  0  0  0  0  0
    5.4328    0.6526   20.1617 C   0  0  0  0  0  0  0  0  0  0  0  0
    5.0092    0.6359   21.1690 H   0  0  0  0  0  0  0  0  0  0  0  0
    4.8047    1.3085   19.1088 C   0  0  0  0  0  0  0  0  0  0  0  0
    3.8744    1.8434   19.2616 H   0  0  0  0  0  0  0  0  0  0  0  0
  1  2  1  0
  2  3  2  0
  3  4  1  0
  4  5  1  0
  4  6  2  0
  6  7  1  0
  7  8  2  0
  8  9  1  0
  9 10  2  0
 10 11  1  0
 11 12  1  0
 12 13  1  0
 13 14  2  0
 14 15  1  0
 14 16  1  0
 16 17  2  0
 17 18  1  0
 18 19  1  0
 18 20  1  0
 18 21  1  0
 17 22  1  0
 22 23  1  0
 22 24  2  0
 24 25  1  0
 12 26  2  0
 26 27  1  0
  6 28  1  0
 28 29  1  0
 28 30  2  0
 30 31  1  0
 30  2  1  0
 27  7  1  0
 27 10  1  0
 24 13  1  0
M  END
>  <cnnaffinity>  (1) 
-5.53852

>  <filename>  (1) 
FC(F)(F)c1ccc(-c2nn3c(-c4cccnc4)nnc3s2)cn1

$$$$
