
     RDKit          3D

 29 31  0  0  0  0  0  0  0  0999 V2000
    4.9158    1.7771   17.0006 H   0  0  0  0  0  0  0  0  0  0  0  0
    5.4039    1.2933   17.8409 C   0  0  0  0  0  0  0  0  0  0  0  0
    6.5707    0.6803   17.5807 N   0  0  0  0  0  0  0  0  0  0  0  0
    7.1728    0.0583   18.5951 C   0  0  0  0  0  0  0  0  0  0  0  0
    8.1193   -0.4370   18.3798 H   0  0  0  0  0  0  0  0  0  0  0  0
    6.6494    0.0222   19.8934 C   0  0  0  0  0  0  0  0  0  0  0  0
    7.3744   -0.7241   20.9209 C   0  0  0  0  0  0  0  0  0  0  0  0
    7.9355   -1.8867   20.7347 N   0  0  0  0  0  0  0  0  0  0  0  0
    8.4327   -2.3126   21.9397 N   0  0  0  0  0  0  0  0  0  0  0  0
    8.1741   -1.3840   22.8079 C   0  0  0  0  0  0  0  0  0  0  0  0
    8.4585   -1.3962   23.8543 H   0  0  0  0  0  0  0  0  0  0  0  0
    7.5020   -0.3283   22.2396 N   0  0  0  0  0  0  0  0  0  0  0  0
    7.1661    0.9194   22.8540 C   0  0  0  0  0  0  0  0  0  0  0  0
    6.5987    0.9609   24.1432 C   0  0  0  0  0  0  0  0  0  0  0  0
    6.4014    0.0391   24.6824 H   0  0  0  0  0  0  0  0  0  0  0  0
    6.2764    2.0919   24.7616 N   0  0  0  0  0  0  0  0  0  0  0  0
    6.4969    3.2607   24.1334 C   0  0  0  0  0  0  0  0  0  0  0  0
    6.1288    4.5688   24.8511 C   0  0  0  0  0  0  0  0  0  0  0  0
    7.2171    5.3506   25.0233 F   0  0  0  0  0  0  0  0  0  0  0  0
    5.5730    4.3913   26.0520 F   0  0  0  0  0  0  0  0  0  0  0  0
    5.2668    5.3019   24.1140 F   0  0  0  0  0  0  0  0  0  0  0  0
    7.0633    3.3242   22.8459 C   0  0  0  0  0  0  0  0  0  0  0  0
    7.2334    4.2797   22.3578 H   0  0  0  0  0  0  0  0  0  0  0  0
    7.4086    2.1378   22.2055 C   0  0  0  0  0  0  0  0  0  0  0  0
    7.8412    2.1519   21.2068 H   0  0  0  0  0  0  0  0  0  0  0  0
    5.4261    0.6531   20.1525 C   0  0  0  0  0  0  0  0  0  0  0  0
    5.0031    0.6345   21.1612 H   0  0  0  0  0  0  0  0  0  0  0  0
    4.7990    1.3119   19.1040 C   0  0  0  0  0  0  0  0  0  0  0  0
    3.8687    1.8459   19.2598 H   0  0  0  0  0  0  0  0  0  0  0  0
  1  2  1  0
  2  3  2  0
  3  4  1  0
  4  5  1  0
  4  6  2  0
  6  7  1  0
  7  8  2  0
  8  9  1  0
  9 10  2  0
 10 11  1  0
 10 12  1  0
 12 13  1  0
 13 14  2  0
 14 15  1  0
 14 16  1  0
 16 17  2  0
 17 18  1  0
 18 19  1  0
 18 20  1  0
 18 21  1  0
 17 22  1  0
 22 23  1  0
 22 24  2  0
 24 25  1  0
  6 26  1  0
 26 27  1  0
 26 28  2  0
 28 29  1  0
 28  2  1  0
 12  7  1  0
 24 13  1  0
M  END
>  <cnnaffinity>  (1) 
-5.30425

>  <filename>  (1) 
FC(F)(F)c1ccc(-n2cnnc2-c2cccnc2)cn1

$$$$
