
     RDKit          3D

 31 33  0  0  0  0  0  0  0  0999 V2000
    4.9172    1.7765   17.0028 H   0  0  0  0  0  0  0  0  0  0  0  0
    5.4044    1.2894   17.8449 C   0  0  0  0  0  0  0  0  0  0  0  0
    6.5709    0.6801   17.5848 N   0  0  0  0  0  0  0  0  0  0  0  0
    7.1767    0.0524   18.5960 C   0  0  0  0  0  0  0  0  0  0  0  0
    8.1244   -0.4339   18.3744 H   0  0  0  0  0  0  0  0  0  0  0  0
    6.6609   -0.0051   19.8983 C   0  0  0  0  0  0  0  0  0  0  0  0
    7.4048   -0.7190   20.9704 C   0  0  0  0  0  0  0  0  0  0  0  0
    8.1092   -1.8159   20.6354 N   0  0  0  0  0  0  0  0  0  0  0  0
    8.7607   -2.5158   21.5719 N   0  0  0  0  0  0  0  0  0  0  0  0
    8.7487   -2.1076   22.8446 C   0  0  0  0  0  0  0  0  0  0  0  0
    9.3055   -2.7433   23.5214 H   0  0  0  0  0  0  0  0  0  0  0  0
    8.0614   -0.9610   23.2797 C   0  0  0  0  0  0  0  0  0  0  0  0
    8.0706   -0.5266   24.7046 C   0  0  0  0  0  0  0  0  0  0  0  0
    7.0076    0.1851   25.1019 N   0  0  0  0  0  0  0  0  0  0  0  0
    6.9434    0.6100   26.3711 C   0  0  0  0  0  0  0  0  0  0  0  0
    5.7071    1.4184   26.8196 C   0  0  0  0  0  0  0  0  0  0  0  0
    6.0657    2.6382   27.2765 F   0  0  0  0  0  0  0  0  0  0  0  0
    4.7961    1.6059   25.8615 F   0  0  0  0  0  0  0  0  0  0  0  0
    5.0856    0.8134   27.8545 F   0  0  0  0  0  0  0  0  0  0  0  0
    7.9650    0.3648   27.3048 C   0  0  0  0  0  0  0  0  0  0  0  0
    7.8944    0.7322   28.3228 H   0  0  0  0  0  0  0  0  0  0  0  0
    9.0848   -0.3544   26.8842 C   0  0  0  0  0  0  0  0  0  0  0  0
    9.9011   -0.5571   27.5736 H   0  0  0  0  0  0  0  0  0  0  0  0
    9.1408   -0.8077   25.5686 C   0  0  0  0  0  0  0  0  0  0  0  0
   10.0037   -1.3426   25.1961 H   0  0  0  0  0  0  0  0  0  0  0  0
    7.3708   -0.2580   22.2960 C   0  0  0  0  0  0  0  0  0  0  0  0
    6.8270    0.6503   22.5493 H   0  0  0  0  0  0  0  0  0  0  0  0
    5.4447    0.6485   20.1590 C   0  0  0  0  0  0  0  0  0  0  0  0
    5.0021    0.6302   21.1587 H   0  0  0  0  0  0  0  0  0  0  0  0
    4.8065    1.3052   19.1097 C   0  0  0  0  0  0  0  0  0  0  0  0
    3.8752    1.8426   19.2622 H   0  0  0  0  0  0  0  0  0  0  0  0
  1  2  1  0
  2  3  2  0
  3  4  1  0
  4  5  1  0
  4  6  2  0
  6  7  1  0
  7  8  2  0
  8  9  1  0
  9 10  2  0
 10 11  1  0
 10 12  1  0
 12 13  1  0
 13 14  2  0
 14 15  1  0
 15 16  1  0
 16 17  1  0
 16 18  1  0
 16 19  1  0
 15 20  2  0
 20 21  1  0
 20 22  1  0
 22 23  1  0
 22 24  2  0
 24 25  1  0
 12 26  2  0
 26 27  1  0
  6 28  1  0
 28 29  1  0
 28 30  2  0
 30 31  1  0
 30  2  1  0
 26  7  1  0
 24 13  1  0
M  END
>  <cnnaffinity>  (1) 
-5.39513

>  <filename>  (1) 
FC(F)(F)c1cccc(-c2cnnc(-c3cccnc3)c2)n1

$$$$
