
     RDKit          3D

 29 31  0  0  0  0  0  0  0  0999 V2000
    4.9159    1.7770   17.0023 H   0  0  0  0  0  0  0  0  0  0  0  0
    5.4036    1.2908   17.8418 C   0  0  0  0  0  0  0  0  0  0  0  0
    6.5689    0.6781   17.5700 N   0  0  0  0  0  0  0  0  0  0  0  0
    7.1816    0.0633   18.5832 C   0  0  0  0  0  0  0  0  0  0  0  0
    8.1291   -0.4291   18.3648 H   0  0  0  0  0  0  0  0  0  0  0  0
    6.6617    0.0147   19.8867 C   0  0  0  0  0  0  0  0  0  0  0  0
    7.3519   -0.6871   20.9571 C   0  0  0  0  0  0  0  0  0  0  0  0
    8.5562   -1.2400   20.7405 O   0  0  0  0  0  0  0  0  0  0  0  0
    8.9929   -1.8562   21.8882 N   0  0  0  0  0  0  0  0  0  0  0  0
    8.0528   -1.6617   22.7888 C   0  0  0  0  0  0  0  0  0  0  0  0
    8.1563   -2.2156   24.1932 C   0  0  0  0  0  0  0  0  0  0  0  0
    8.5365   -3.4995   24.2700 N   0  0  0  0  0  0  0  0  0  0  0  0
    8.5705   -4.1034   25.4534 C   0  0  0  0  0  0  0  0  0  0  0  0
    8.9033   -5.1358   25.4431 H   0  0  0  0  0  0  0  0  0  0  0  0
    8.2120   -3.4706   26.6427 C   0  0  0  0  0  0  0  0  0  0  0  0
    8.2569   -4.0096   27.5757 H   0  0  0  0  0  0  0  0  0  0  0  0
    7.8181   -2.1419   26.5962 C   0  0  0  0  0  0  0  0  0  0  0  0
    7.5396   -1.6217   27.5121 H   0  0  0  0  0  0  0  0  0  0  0  0
    7.8177   -1.4838   25.3614 C   0  0  0  0  0  0  0  0  0  0  0  0
    7.4359   -0.0197   25.3370 C   0  0  0  0  0  0  0  0  0  0  0  0
    8.1091    0.6879   24.4166 F   0  0  0  0  0  0  0  0  0  0  0  0
    6.1255    0.1510   25.0606 F   0  0  0  0  0  0  0  0  0  0  0  0
    7.6557    0.5886   26.5165 F   0  0  0  0  0  0  0  0  0  0  0  0
    6.9765   -0.9162   22.2404 C   0  0  0  0  0  0  0  0  0  0  0  0
    6.0781   -0.5935   22.7349 H   0  0  0  0  0  0  0  0  0  0  0  0
    5.4415    0.6533   20.1556 C   0  0  0  0  0  0  0  0  0  0  0  0
    5.0109    0.6341   21.1620 H   0  0  0  0  0  0  0  0  0  0  0  0
    4.8061    1.3096   19.1084 C   0  0  0  0  0  0  0  0  0  0  0  0
    3.8727    1.8435   19.2630 H   0  0  0  0  0  0  0  0  0  0  0  0
  1  2  1  0
  2  3  2  0
  3  4  1  0
  4  5  1  0
  4  6  2  0
  6  7  1  0
  7  8  1  0
  8  9  1  0
  9 10  2  0
 10 11  1  0
 11 12  2  0
 12 13  1  0
 13 14  1  0
 13 15  2  0
 15 16  1  0
 15 17  1  0
 17 18  1  0
 17 19  2  0
 19 20  1  0
 20 21  1  0
 20 22  1  0
 20 23  1  0
 10 24  1  0
 24 25  1  0
  6 26  1  0
 26 27  1  0
 26 28  2  0
 28 29  1  0
 28  2  1  0
 24  7  2  0
 19 11  1  0
M  END
>  <cnnaffinity>  (1) 
-5.32893

>  <filename>  (1) 
FC(F)(F)c1cccnc1-c1cc(-c2cccnc2)on1

$$$$
