
     RDKit          3D

 38 41  0  0  0  0  0  0  0  0999 V2000
    5.0469    1.8347   16.8992 H   0  0  0  0  0  0  0  0  0  0  0  0
    5.4016    1.3059   17.7818 C   0  0  0  0  0  0  0  0  0  0  0  0
    6.5401    0.6112   17.6366 N   0  0  0  0  0  0  0  0  0  0  0  0
    7.0124   -0.0131   18.7203 C   0  0  0  0  0  0  0  0  0  0  0  0
    7.9303   -0.5811   18.5830 H   0  0  0  0  0  0  0  0  0  0  0  0
    6.3984   -0.0058   19.9855 C   0  0  0  0  0  0  0  0  0  0  0  0
    7.1662   -0.6218   21.0905 C   0  0  0  0  0  0  0  0  0  0  0  0
    8.5288   -0.5396   21.3373 C   0  0  0  0  0  0  0  0  0  0  0  0
    8.7333   -1.1880   22.5457 C   0  0  0  0  0  0  0  0  0  0  0  0
    7.6310   -1.7203   23.0361 N   0  0  0  0  0  0  0  0  0  0  0  0
    6.6823   -1.3544   22.1385 N   0  0  0  0  0  0  0  0  0  0  0  0
    5.7393   -1.6848   22.2767 H   0  0  0  0  0  0  0  0  0  0  0  0
   10.1496   -1.0967   23.0333 C   0  0  0  0  0  0  0  0  0  0  0  0
   10.6008   -2.0859   23.1612 H   0  0  0  0  0  0  0  0  0  0  0  0
   10.1761   -0.5939   24.0043 H   0  0  0  0  0  0  0  0  0  0  0  0
   10.8697   -0.2879   21.8846 C   0  0  2  0  0  0  0  0  0  0  0  0
   11.6040   -0.9755   21.4475 H   0  0  0  0  0  0  0  0  0  0  0  0
   11.6773    0.9285   22.3602 C   0  0  0  0  0  0  0  0  0  0  0  0
   13.0746    0.7604   22.4532 C   0  0  0  0  0  0  0  0  0  0  0  0
   13.4963   -0.2063   22.1959 H   0  0  0  0  0  0  0  0  0  0  0  0
   13.9329    1.7909   22.8302 C   0  0  0  0  0  0  0  0  0  0  0  0
   15.0038    1.6078   22.8432 H   0  0  0  0  0  0  0  0  0  0  0  0
   13.4076    3.0510   23.1159 C   0  0  0  0  0  0  0  0  0  0  0  0
   14.0596    3.8740   23.3915 H   0  0  0  0  0  0  0  0  0  0  0  0
   12.0289    3.2457   23.0568 C   0  0  0  0  0  0  0  0  0  0  0  0
   11.6171    4.2272   23.2815 H   0  0  0  0  0  0  0  0  0  0  0  0
   11.1526    2.1912   22.7275 C   0  0  0  0  0  0  0  0  0  0  0  0
    9.6577    2.4786   22.8320 C   0  0  0  0  0  0  0  0  0  0  0  0
    9.0511    2.6103   21.6340 F   0  0  0  0  0  0  0  0  0  0  0  0
    9.0190    1.4952   23.4949 F   0  0  0  0  0  0  0  0  0  0  0  0
    9.3829    3.6123   23.5068 F   0  0  0  0  0  0  0  0  0  0  0  0
    9.8068   -0.0281   20.7580 C   0  0  0  0  0  0  0  0  0  0  0  0
   10.0653   -0.6090   19.8654 H   0  0  0  0  0  0  0  0  0  0  0  0
    9.7624    1.0114   20.4283 H   0  0  0  0  0  0  0  0  0  0  0  0
    5.1758    0.6870   20.1012 C   0  0  0  0  0  0  0  0  0  0  0  0
    4.6410    0.7185   21.0499 H   0  0  0  0  0  0  0  0  0  0  0  0
    4.6808    1.3620   18.9803 C   0  0  0  0  0  0  0  0  0  0  0  0
    3.7650    1.9456   19.0229 H   0  0  0  0  0  0  0  0  0  0  0  0
  1  2  1  0
  2  3  2  0
  3  4  1  0
  4  5  1  0
  4  6  2  0
  6  7  1  0
  7  8  2  0
  8  9  1  0
  9 10  2  0
 10 11  1  0
 11 12  1  0
  9 13  1  0
 13 14  1  0
 13 15  1  0
 13 16  1  0
 16 17  1  6
 16 18  1  0
 18 19  2  0
 19 20  1  0
 19 21  1  0
 21 22  1  0
 21 23  2  0
 23 24  1  0
 23 25  1  0
 25 26  1  0
 25 27  2  0
 27 28  1  0
 28 29  1  0
 28 30  1  0
 28 31  1  0
 16 32  1  0
 32 33  1  0
 32 34  1  0
  6 35  1  0
 35 36  1  0
 35 37  2  0
 37 38  1  0
 37  2  1  0
 11  7  1  0
 27 18  1  0
 32  8  1  0
M  END
>  <cnnaffinity>  (1) 
-5.9742

>  <filename>  (1) 
FC(F)(F)c1ccccc1[C@H]1Cc2n[nH]c(-c3cccnc3)c2C1

$$$$
