
     RDKit          3D

 37 40  0  0  0  0  0  0  0  0999 V2000
    6.0048    2.8784   25.7415 H   0  0  0  0  0  0  0  0  0  0  0  0
    6.7450    2.1591   26.0808 C   0  0  0  0  0  0  0  0  0  0  0  0
    7.3236    1.4320   25.1270 N   0  0  0  0  0  0  0  0  0  0  0  0
    8.2982    0.5690   25.4606 C   0  0  0  0  0  0  0  0  0  0  0  0
    8.9947   -0.0705   24.2960 C   0  0  0  0  0  0  0  0  0  0  0  0
    8.4030   -0.4032   23.0968 C   0  0  0  0  0  0  0  0  0  0  0  0
    9.4234   -0.7392   22.2209 C   0  0  0  0  0  0  0  0  0  0  0  0
   10.6071   -0.6917   22.7995 N   0  0  0  0  0  0  0  0  0  0  0  0
   10.3314   -0.2985   24.0592 N   0  0  0  0  0  0  0  0  0  0  0  0
   11.1141   -0.1702   24.6800 H   0  0  0  0  0  0  0  0  0  0  0  0
    8.9250   -0.8835   20.8161 C   0  0  0  0  0  0  0  0  0  0  0  0
    9.2792   -1.7944   20.3314 H   0  0  0  0  0  0  0  0  0  0  0  0
    9.2756   -0.0336   20.2251 H   0  0  0  0  0  0  0  0  0  0  0  0
    7.3627   -0.8280   20.9680 C   0  0  2  0  0  0  0  0  0  0  0  0
    7.0089   -1.8678   20.9519 H   0  0  0  0  0  0  0  0  0  0  0  0
    6.6362   -0.0544   19.8656 C   0  0  0  0  0  0  0  0  0  0  0  0
    7.1449    0.0314   18.5515 C   0  0  0  0  0  0  0  0  0  0  0  0
    8.0982   -0.4341   18.3028 H   0  0  0  0  0  0  0  0  0  0  0  0
    6.5564    0.6790   17.5367 N   0  0  0  0  0  0  0  0  0  0  0  0
    5.4026    1.3094   17.7960 C   0  0  0  0  0  0  0  0  0  0  0  0
    4.9430    1.8355   16.9634 H   0  0  0  0  0  0  0  0  0  0  0  0
    4.7960    1.3057   19.0535 C   0  0  0  0  0  0  0  0  0  0  0  0
    3.8731    1.8545   19.2143 H   0  0  0  0  0  0  0  0  0  0  0  0
    5.4186    0.6178   20.0956 C   0  0  0  0  0  0  0  0  0  0  0  0
    4.9753    0.6408   21.0926 H   0  0  0  0  0  0  0  0  0  0  0  0
    7.0924   -0.2736   22.4039 C   0  0  0  0  0  0  0  0  0  0  0  0
    6.2896   -0.8019   22.9238 H   0  0  0  0  0  0  0  0  0  0  0  0
    6.8212    0.7890   22.3745 H   0  0  0  0  0  0  0  0  0  0  0  0
    8.5768    0.3050   26.8181 C   0  0  0  0  0  0  0  0  0  0  0  0
    9.5959   -0.7429   27.0984 C   0  0  0  0  0  0  0  0  0  0  0  0
   10.7982   -0.3024   26.6361 F   0  0  0  0  0  0  0  0  0  0  0  0
    9.7562   -1.0181   28.3939 F   0  0  0  0  0  0  0  0  0  0  0  0
    9.3334   -1.9006   26.4685 F   0  0  0  0  0  0  0  0  0  0  0  0
    7.9830    1.0822   27.8187 C   0  0  0  0  0  0  0  0  0  0  0  0
    8.2611    0.9524   28.8674 H   0  0  0  0  0  0  0  0  0  0  0  0
    7.0540    2.0424   27.4382 C   0  0  0  0  0  0  0  0  0  0  0  0
    6.5733    2.6952   28.1592 H   0  0  0  0  0  0  0  0  0  0  0  0
  1  2  1  0
  2  3  2  0
  3  4  1  0
  4  5  1  0
  5  6  2  0
  6  7  1  0
  7  8  2  0
  8  9  1  0
  9 10  1  0
  7 11  1  0
 11 12  1  0
 11 13  1  0
 11 14  1  0
 14 15  1  1
 14 16  1  0
 16 17  2  0
 17 18  1  0
 17 19  1  0
 19 20  2  0
 20 21  1  0
 20 22  1  0
 22 23  1  0
 22 24  2  0
 24 25  1  0
 14 26  1  0
 26 27  1  0
 26 28  1  0
  4 29  2  0
 29 30  1  0
 30 31  1  0
 30 32  1  0
 30 33  1  0
 29 34  1  0
 34 35  1  0
 34 36  2  0
 36 37  1  0
 36  2  1  0
  9  5  1  0
 24 16  1  0
 26  6  1  0
M  END
>  <cnnaffinity>  (1) 
-5.63963

>  <filename>  (1) 
FC(F)(F)c1cccnc1-c1[nH]nc2c1C[C@@H](c1cccnc1)C2

$$$$
