
     RDKit          3D

 32 34  0  0  0  0  0  0  0  0999 V2000
    4.9097    1.7722   17.0065 H   0  0  0  0  0  0  0  0  0  0  0  0
    5.4042    1.2889   17.8468 C   0  0  0  0  0  0  0  0  0  0  0  0
    6.5711    0.6822   17.5868 N   0  0  0  0  0  0  0  0  0  0  0  0
    7.1812    0.0548   18.5967 C   0  0  0  0  0  0  0  0  0  0  0  0
    8.1274   -0.4357   18.3790 H   0  0  0  0  0  0  0  0  0  0  0  0
    6.6612   -0.0005   19.8997 C   0  0  0  0  0  0  0  0  0  0  0  0
    7.3978   -0.7223   20.9682 C   0  0  0  0  0  0  0  0  0  0  0  0
    8.1109   -1.8151   20.6268 N   0  0  0  0  0  0  0  0  0  0  0  0
    8.7836   -2.5115   21.5504 N   0  0  0  0  0  0  0  0  0  0  0  0
    8.7632   -2.1228   22.8321 C   0  0  0  0  0  0  0  0  0  0  0  0
    9.3431   -2.7049   23.5406 H   0  0  0  0  0  0  0  0  0  0  0  0
    8.0472   -0.9950   23.2609 C   0  0  0  0  0  0  0  0  0  0  0  0
    8.0624   -0.5504   24.6728 C   0  0  0  0  0  0  0  0  0  0  0  0
    8.7372    0.6410   24.9750 C   0  0  0  0  0  0  0  0  0  0  0  0
    9.2106    1.2040   24.1756 H   0  0  0  0  0  0  0  0  0  0  0  0
    8.8157    1.0949   26.2882 C   0  0  0  0  0  0  0  0  0  0  0  0
    9.3414    2.0168   26.5116 H   0  0  0  0  0  0  0  0  0  0  0  0
    8.2194    0.3592   27.3119 C   0  0  0  0  0  0  0  0  0  0  0  0
    8.2884    0.7043   28.3377 H   0  0  0  0  0  0  0  0  0  0  0  0
    7.5357   -0.8189   27.0255 C   0  0  0  0  0  0  0  0  0  0  0  0
    7.0769   -1.3778   27.8365 H   0  0  0  0  0  0  0  0  0  0  0  0
    7.4307   -1.2730   25.7049 C   0  0  0  0  0  0  0  0  0  0  0  0
    6.6591   -2.5452   25.4137 C   0  0  0  0  0  0  0  0  0  0  0  0
    5.9082   -2.4630   24.3031 F   0  0  0  0  0  0  0  0  0  0  0  0
    5.8264   -2.8904   26.4127 F   0  0  0  0  0  0  0  0  0  0  0  0
    7.4939   -3.5913   25.2333 F   0  0  0  0  0  0  0  0  0  0  0  0
    7.3662   -0.2724   22.2972 C   0  0  0  0  0  0  0  0  0  0  0  0
    6.8278    0.6348   22.5571 H   0  0  0  0  0  0  0  0  0  0  0  0
    5.4478    0.6508   20.1607 C   0  0  0  0  0  0  0  0  0  0  0  0
    5.0019    0.6288   21.1568 H   0  0  0  0  0  0  0  0  0  0  0  0
    4.8054    1.3080   19.1122 C   0  0  0  0  0  0  0  0  0  0  0  0
    3.8716    1.8452   19.2669 H   0  0  0  0  0  0  0  0  0  0  0  0
  1  2  1  0
  2  3  2  0
  3  4  1  0
  4  5  1  0
  4  6  2  0
  6  7  1  0
  7  8  2  0
  8  9  1  0
  9 10  2  0
 10 11  1  0
 10 12  1  0
 12 13  1  0
 13 14  2  0
 14 15  1  0
 14 16  1  0
 16 17  1  0
 16 18  2  0
 18 19  1  0
 18 20  1  0
 20 21  1  0
 20 22  2  0
 22 23  1  0
 23 24  1  0
 23 25  1  0
 23 26  1  0
 12 27  2  0
 27 28  1  0
  6 29  1  0
 29 30  1  0
 29 31  2  0
 31 32  1  0
 31  2  1  0
 27  7  1  0
 22 13  1  0
M  END
>  <cnnaffinity>  (1) 
-5.49274

>  <filename>  (1) 
FC(F)(F)c1ccccc1-c1cnnc(-c2cccnc2)c1

$$$$
