
     RDKit          3D

 39 41  0  0  0  0  0  0  0  0999 V2000
    4.9227    1.8183   16.9641 H   0  0  0  0  0  0  0  0  0  0  0  0
    5.3871    1.3054   17.8034 C   0  0  0  0  0  0  0  0  0  0  0  0
    6.5489    0.6863   17.5438 N   0  0  0  0  0  0  0  0  0  0  0  0
    7.1698    0.0740   18.5635 C   0  0  0  0  0  0  0  0  0  0  0  0
    8.1202   -0.4057   18.3347 H   0  0  0  0  0  0  0  0  0  0  0  0
    6.6637    0.0128   19.8869 C   0  0  0  0  0  0  0  0  0  0  0  0
    7.3241   -0.6101   20.9656 N   0  0  0  0  0  0  0  0  0  0  0  0
    8.7706   -0.5140   21.1109 C   0  0  0  0  0  0  0  0  0  0  0  0
    9.0975    0.3953   20.5905 H   0  0  0  0  0  0  0  0  0  0  0  0
    9.2911   -1.3713   20.6368 H   0  0  0  0  0  0  0  0  0  0  0  0
    9.1407   -0.4505   22.5981 C   0  0  0  0  0  0  0  0  0  0  0  0
    8.7486    0.4883   23.0117 H   0  0  0  0  0  0  0  0  0  0  0  0
   10.2339   -0.4238   22.7073 H   0  0  0  0  0  0  0  0  0  0  0  0
    8.5443   -1.6519   23.3598 C   0  0  0  0  0  0  0  0  0  0  0  0
    8.9941   -2.5582   22.9450 H   0  0  0  0  0  0  0  0  0  0  0  0
    8.8108   -1.5982   24.8476 C   0  0  0  0  0  0  0  0  0  0  0  0
    8.3892   -0.4721   25.5690 C   0  0  0  0  0  0  0  0  0  0  0  0
    7.8658    0.3343   25.0623 H   0  0  0  0  0  0  0  0  0  0  0  0
    8.6398   -0.3609   26.9337 C   0  0  0  0  0  0  0  0  0  0  0  0
    8.4049    0.5520   27.4675 H   0  0  0  0  0  0  0  0  0  0  0  0
    9.2214   -1.4250   27.6179 C   0  0  0  0  0  0  0  0  0  0  0  0
    9.5403   -1.2512   28.6405 H   0  0  0  0  0  0  0  0  0  0  0  0
    9.5009   -2.6193   26.9396 C   0  0  0  0  0  0  0  0  0  0  0  0
    9.8976   -3.4828   27.4665 H   0  0  0  0  0  0  0  0  0  0  0  0
    9.4083   -2.6698   25.5421 C   0  0  0  0  0  0  0  0  0  0  0  0
   10.0811   -3.7955   24.7696 C   0  0  0  0  0  0  0  0  0  0  0  0
   10.9124   -3.3168   23.8123 F   0  0  0  0  0  0  0  0  0  0  0  0
    9.1916   -4.5821   24.1231 F   0  0  0  0  0  0  0  0  0  0  0  0
   10.8190   -4.6004   25.5509 F   0  0  0  0  0  0  0  0  0  0  0  0
    7.0245   -1.7209   23.1245 C   0  0  0  0  0  0  0  0  0  0  0  0
    6.6084   -2.6062   23.6244 H   0  0  0  0  0  0  0  0  0  0  0  0
    6.5482   -0.8416   23.5802 H   0  0  0  0  0  0  0  0  0  0  0  0
    6.7062   -1.7517   21.6324 C   0  0  0  0  0  0  0  0  0  0  0  0
    7.0670   -2.7065   21.1996 H   0  0  0  0  0  0  0  0  0  0  0  0
    5.6237   -1.7228   21.4647 H   0  0  0  0  0  0  0  0  0  0  0  0
    5.4297    0.6457   20.1193 C   0  0  0  0  0  0  0  0  0  0  0  0
    5.0329    0.6196   21.1338 H   0  0  0  0  0  0  0  0  0  0  0  0
    4.7900    1.3132   19.0708 C   0  0  0  0  0  0  0  0  0  0  0  0
    3.8570    1.8440   19.2286 H   0  0  0  0  0  0  0  0  0  0  0  0
  1  2  1  0
  2  3  2  0
  3  4  1  0
  4  5  1  0
  4  6  2  0
  6  7  1  0
  7  8  1  0
  8  9  1  0
  8 10  1  0
  8 11  1  0
 11 12  1  0
 11 13  1  0
 11 14  1  0
 14 15  1  0
 14 16  1  0
 16 17  2  0
 17 18  1  0
 17 19  1  0
 19 20  1  0
 19 21  2  0
 21 22  1  0
 21 23  1  0
 23 24  1  0
 23 25  2  0
 25 26  1  0
 26 27  1  0
 26 28  1  0
 26 29  1  0
 14 30  1  0
 30 31  1  0
 30 32  1  0
 30 33  1  0
 33 34  1  0
 33 35  1  0
  6 36  1  0
 36 37  1  0
 36 38  2  0
 38 39  1  0
 38  2  1  0
 33  7  1  0
 25 16  1  0
M  END
>  <cnnaffinity>  (1) 
-5.56548

>  <filename>  (1) 
FC(F)(F)c1ccccc1C1CCN(c2cccnc2)CC1

$$$$
