
     RDKit          3D

 29 31  0  0  0  0  0  0  0  0999 V2000
    5.3063    1.5022   17.0982 H   0  0  0  0  0  0  0  0  0  0  0  0
    5.7186    1.0569   17.9993 C   0  0  0  0  0  0  0  0  0  0  0  0
    6.8839    0.4105   17.8489 N   0  0  0  0  0  0  0  0  0  0  0  0
    7.4155   -0.1557   18.9318 C   0  0  0  0  0  0  0  0  0  0  0  0
    8.3746   -0.6550   18.7977 H   0  0  0  0  0  0  0  0  0  0  0  0
    6.8048   -0.1182   20.1916 C   0  0  0  0  0  0  0  0  0  0  0  0
    7.4768   -0.7825   21.2963 C   0  0  0  0  0  0  0  0  0  0  0  0
    7.0640   -0.9449   22.5022 N   0  0  0  0  0  0  0  0  0  0  0  0
    8.1032   -1.6688   23.1190 C   0  0  0  0  0  0  0  0  0  0  0  0
    8.1890   -2.2549   24.4864 C   0  0  0  0  0  0  0  0  0  0  0  0
    9.2975   -3.0006   24.6500 N   0  0  0  0  0  0  0  0  0  0  0  0
    9.5496   -3.5861   25.8144 C   0  0  0  0  0  0  0  0  0  0  0  0
   10.4444   -4.2026   25.8542 H   0  0  0  0  0  0  0  0  0  0  0  0
    8.7250   -3.4313   26.9284 C   0  0  0  0  0  0  0  0  0  0  0  0
    8.9541   -3.9471   27.8499 H   0  0  0  0  0  0  0  0  0  0  0  0
    7.5552   -2.7003   26.7860 C   0  0  0  0  0  0  0  0  0  0  0  0
    6.8553   -2.6320   27.6165 H   0  0  0  0  0  0  0  0  0  0  0  0
    7.2495   -2.1314   25.5419 C   0  0  0  0  0  0  0  0  0  0  0  0
    5.8568   -1.6200   25.2739 C   0  0  0  0  0  0  0  0  0  0  0  0
    5.1144   -1.5665   26.4011 F   0  0  0  0  0  0  0  0  0  0  0  0
    5.2191   -2.4482   24.4255 F   0  0  0  0  0  0  0  0  0  0  0  0
    5.8352   -0.3872   24.7558 F   0  0  0  0  0  0  0  0  0  0  0  0
    9.0837   -1.8675   22.2079 C   0  0  0  0  0  0  0  0  0  0  0  0
   10.0421   -2.3623   22.2599 H   0  0  0  0  0  0  0  0  0  0  0  0
    8.6978   -1.3097   21.0387 O   0  0  0  0  0  0  0  0  0  0  0  0
    5.5915    0.5660   20.3504 C   0  0  0  0  0  0  0  0  0  0  0  0
    5.1157    0.6333   21.3338 H   0  0  0  0  0  0  0  0  0  0  0  0
    5.0421    1.1657   19.2217 C   0  0  0  0  0  0  0  0  0  0  0  0
    4.1157    1.7253   19.2683 H   0  0  0  0  0  0  0  0  0  0  0  0
  1  2  1  0
  2  3  2  0
  3  4  1  0
  4  5  1  0
  4  6  2  0
  6  7  1  0
  7  8  2  0
  8  9  1  0
  9 10  1  0
 10 11  2  0
 11 12  1  0
 12 13  1  0
 12 14  2  0
 14 15  1  0
 14 16  1  0
 16 17  1  0
 16 18  2  0
 18 19  1  0
 19 20  1  0
 19 21  1  0
 19 22  1  0
  9 23  2  0
 23 24  1  0
 23 25  1  0
  6 26  1  0
 26 27  1  0
 26 28  2  0
 28 29  1  0
 28  2  1  0
 25  7  1  0
 18 10  1  0
M  END
>  <cnnaffinity>  (1) 
-5.21907

>  <filename>  (1) 
FC(F)(F)c1cccnc1-c1coc(-c2cccnc2)n1

$$$$
