
     RDKit          3D

 33 35  0  0  0  0  0  0  0  0999 V2000
    4.9331    1.8322   16.9630 H   0  0  0  0  0  0  0  0  0  0  0  0
    5.3952    1.3113   17.7990 C   0  0  0  0  0  0  0  0  0  0  0  0
    6.5530    0.6827   17.5383 N   0  0  0  0  0  0  0  0  0  0  0  0
    7.1599    0.0656   18.5625 C   0  0  0  0  0  0  0  0  0  0  0  0
    8.1008   -0.4298   18.3184 H   0  0  0  0  0  0  0  0  0  0  0  0
    6.6540    0.0065   19.8840 C   0  0  0  0  0  0  0  0  0  0  0  0
    7.3931   -0.6961   20.9900 C   0  0  0  0  0  0  0  0  0  0  0  0
    6.7509   -1.5667   21.9029 C   0  0  0  0  0  0  0  0  0  0  0  0
    5.6858   -1.7568   21.8141 H   0  0  0  0  0  0  0  0  0  0  0  0
    7.3720   -2.2442   22.8777 N   0  0  0  0  0  0  0  0  0  0  0  0
    8.6880   -2.0338   23.0279 C   0  0  0  0  0  0  0  0  0  0  0  0
    9.1785   -2.5976   23.8206 H   0  0  0  0  0  0  0  0  0  0  0  0
    9.4341   -1.1648   22.2210 C   0  0  0  0  0  0  0  0  0  0  0  0
   10.9081   -1.0192   22.4000 C   0  0  0  0  0  0  0  0  0  0  0  0
   11.7181   -1.6907   21.4823 C   0  0  0  0  0  0  0  0  0  0  0  0
   11.2191   -2.3164   20.7670 H   0  0  0  0  0  0  0  0  0  0  0  0
   13.1061   -1.5817   21.5088 C   0  0  0  0  0  0  0  0  0  0  0  0
   13.7086   -2.0836   20.7556 H   0  0  0  0  0  0  0  0  0  0  0  0
   13.6990   -0.7920   22.4924 C   0  0  0  0  0  0  0  0  0  0  0  0
   14.7792   -0.7163   22.5380 H   0  0  0  0  0  0  0  0  0  0  0  0
   12.9179   -0.1206   23.4382 C   0  0  0  0  0  0  0  0  0  0  0  0
   13.4183    0.4590   24.2148 H   0  0  0  0  0  0  0  0  0  0  0  0
   11.5175   -0.2472   23.4109 C   0  0  0  0  0  0  0  0  0  0  0  0
   10.6396    0.3111   24.5103 C   0  0  0  0  0  0  0  0  0  0  0  0
   11.2771    1.1717   25.3209 F   0  0  0  0  0  0  0  0  0  0  0  0
    9.5607    0.9509   24.0247 F   0  0  0  0  0  0  0  0  0  0  0  0
   10.1826   -0.7035   25.2843 F   0  0  0  0  0  0  0  0  0  0  0  0
    8.7754   -0.5275   21.1638 C   0  0  0  0  0  0  0  0  0  0  0  0
    9.3394    0.1132   20.4852 H   0  0  0  0  0  0  0  0  0  0  0  0
    5.4270    0.6550   20.1137 C   0  0  0  0  0  0  0  0  0  0  0  0
    4.9996    0.6697   21.1163 H   0  0  0  0  0  0  0  0  0  0  0  0
    4.7924    1.3199   19.0603 C   0  0  0  0  0  0  0  0  0  0  0  0
    3.8559    1.8502   19.2037 H   0  0  0  0  0  0  0  0  0  0  0  0
  1  2  1  0
  2  3  2  0
  3  4  1  0
  4  5  1  0
  4  6  2  0
  6  7  1  0
  7  8  2  0
  8  9  1  0
  8 10  1  0
 10 11  2  0
 11 12  1  0
 11 13  1  0
 13 14  1  0
 14 15  2  0
 15 16  1  0
 15 17  1  0
 17 18  1  0
 17 19  2  0
 19 20  1  0
 19 21  1  0
 21 22  1  0
 21 23  2  0
 23 24  1  0
 24 25  1  0
 24 26  1  0
 24 27  1  0
 13 28  2  0
 28 29  1  0
  6 30  1  0
 30 31  1  0
 30 32  2  0
 32 33  1  0
 32  2  1  0
 28  7  1  0
 23 14  1  0
M  END
>  <cnnaffinity>  (1) 
-5.99134

>  <filename>  (1) 
FC(F)(F)c1ccccc1-c1cncc(-c2cccnc2)c1

$$$$
