
     RDKit          3D

 30 32  0  0  0  0  0  0  0  0999 V2000
    9.6553   -5.2486   24.6445 H   0  0  0  0  0  0  0  0  0  0  0  0
    8.9924   -4.6043   24.0755 C   0  0  0  0  0  0  0  0  0  0  0  0
    9.5593   -3.6146   23.3809 N   0  0  0  0  0  0  0  0  0  0  0  0
    8.7185   -2.8305   22.6829 C   0  0  0  0  0  0  0  0  0  0  0  0
    9.2622   -1.7297   21.8937 C   0  0  0  0  0  0  0  0  0  0  0  0
    8.6358   -0.7801   21.0988 C   0  0  0  0  0  0  0  0  0  0  0  0
    7.2803   -0.6800   20.9548 O   0  0  0  0  0  0  0  0  0  0  0  0
    6.6933    0.0152   19.9185 C   0  0  0  0  0  0  0  0  0  0  0  0
    7.1886    0.0546   18.5996 C   0  0  0  0  0  0  0  0  0  0  0  0
    8.1278   -0.4375   18.3627 H   0  0  0  0  0  0  0  0  0  0  0  0
    6.5658    0.6702   17.5836 N   0  0  0  0  0  0  0  0  0  0  0  0
    5.4044    1.2903   17.8429 C   0  0  0  0  0  0  0  0  0  0  0  0
    4.9160    1.7796   17.0003 H   0  0  0  0  0  0  0  0  0  0  0  0
    4.8220    1.2992   19.1169 C   0  0  0  0  0  0  0  0  0  0  0  0
    3.8872    1.8310   19.2681 H   0  0  0  0  0  0  0  0  0  0  0  0
    5.4633    0.6388   20.1745 C   0  0  0  0  0  0  0  0  0  0  0  0
    5.0313    0.6088   21.1752 H   0  0  0  0  0  0  0  0  0  0  0  0
    9.6675    0.0508   20.6233 C   0  0  0  0  0  0  0  0  0  0  0  0
    9.5821    0.9167   19.9868 H   0  0  0  0  0  0  0  0  0  0  0  0
   10.8457   -0.3593   21.0731 N   0  0  0  0  0  0  0  0  0  0  0  0
   10.5900   -1.4231   21.8189 N   0  0  0  0  0  0  0  0  0  0  0  0
   11.3639   -1.8973   22.2609 H   0  0  0  0  0  0  0  0  0  0  0  0
    7.3958   -2.9811   22.6355 N   0  0  0  0  0  0  0  0  0  0  0  0
    6.8393   -3.9648   23.3367 C   0  0  0  0  0  0  0  0  0  0  0  0
    5.2987   -4.1474   23.2924 C   0  0  0  0  0  0  0  0  0  0  0  0
    4.7750   -4.0717   24.5327 F   0  0  0  0  0  0  0  0  0  0  0  0
    4.9787   -5.3741   22.8302 F   0  0  0  0  0  0  0  0  0  0  0  0
    4.6608   -3.2650   22.5224 F   0  0  0  0  0  0  0  0  0  0  0  0
    7.6212   -4.8391   24.0935 C   0  0  0  0  0  0  0  0  0  0  0  0
    7.1841   -5.6467   24.6638 H   0  0  0  0  0  0  0  0  0  0  0  0
  1  2  1  0
  2  3  2  0
  3  4  1  0
  4  5  1  0
  5  6  2  0
  6  7  1  0
  7  8  1  0
  8  9  2  0
  9 10  1  0
  9 11  1  0
 11 12  2  0
 12 13  1  0
 12 14  1  0
 14 15  1  0
 14 16  2  0
 16 17  1  0
  6 18  1  0
 18 19  1  0
 18 20  2  0
 20 21  1  0
 21 22  1  0
  4 23  2  0
 23 24  1  0
 24 25  1  0
 25 26  1  0
 25 27  1  0
 25 28  1  0
 24 29  2  0
 29 30  1  0
 29  2  1  0
 21  5  1  0
 16  8  1  0
M  END
>  <cnnaffinity>  (1) 
-5.9385

>  <filename>  (1) 
FC(F)(F)c1ccnc(-c2[nH]ncc2Oc2cccnc2)n1

$$$$
