
     RDKit          3D

 23 25  0  0  0  0  0  0  0  0999 V2000
    4.9262    1.7725   17.0024 H   0  0  0  0  0  0  0  0  0  0  0  0
    5.4113    1.2851   17.8463 C   0  0  0  0  0  0  0  0  0  0  0  0
    6.5757    0.6657   17.5971 N   0  0  0  0  0  0  0  0  0  0  0  0
    7.1798    0.0523   18.6199 C   0  0  0  0  0  0  0  0  0  0  0  0
    8.1253   -0.4321   18.3847 H   0  0  0  0  0  0  0  0  0  0  0  0
    6.6434    0.0143   19.9176 C   0  0  0  0  0  0  0  0  0  0  0  0
    7.3557   -0.6907   20.9813 C   0  0  0  0  0  0  0  0  0  0  0  0
    8.5420   -1.3242   20.7515 N   0  0  0  0  0  0  0  0  0  0  0  0
    8.8222   -1.8010   21.9481 C   0  0  0  0  0  0  0  0  0  0  0  0
   10.0784   -2.7100   22.7563 S   0  0  0  0  0  0  0  0  0  0  0  0
    9.1966   -2.5887   24.2547 C   0  0  0  0  0  0  0  0  0  0  0  0
    9.6143   -3.0289   25.1540 H   0  0  0  0  0  0  0  0  0  0  0  0
    8.0398   -1.9105   24.1380 C   0  0  0  0  0  0  0  0  0  0  0  0
    7.0575   -1.5576   25.2211 C   0  0  0  0  0  0  0  0  0  0  0  0
    6.0787   -1.2504   24.8459 H   0  0  0  0  0  0  0  0  0  0  0  0
    7.5556   -0.5584   26.0008 F   0  0  0  0  0  0  0  0  0  0  0  0
    6.8937   -2.6319   26.0429 F   0  0  0  0  0  0  0  0  0  0  0  0
    7.8558   -1.4804   22.8307 N   0  0  0  0  0  0  0  0  0  0  0  0
    6.8914   -0.7577   22.2280 N   0  0  0  0  0  0  0  0  0  0  0  0
    5.4238    0.6596   20.1675 C   0  0  0  0  0  0  0  0  0  0  0  0
    4.9943    0.6377   21.1742 H   0  0  0  0  0  0  0  0  0  0  0  0
    4.8039    1.3102   19.1081 C   0  0  0  0  0  0  0  0  0  0  0  0
    3.8733    1.8439   19.2584 H   0  0  0  0  0  0  0  0  0  0  0  0
  1  2  1  0
  2  3  2  0
  3  4  1  0
  4  5  1  0
  4  6  2  0
  6  7  1  0
  7  8  1  0
  8  9  2  0
  9 10  1  0
 10 11  1  0
 11 12  1  0
 11 13  2  0
 13 14  1  0
 14 15  1  0
 14 16  1  0
 14 17  1  0
 13 18  1  0
 18 19  1  0
  6 20  1  0
 20 21  1  0
 20 22  2  0
 22 23  1  0
 22  2  1  0
 19  7  2  0
 18  9  1  0
M  END
>  <cnnaffinity>  (1) 
-4.93017

>  <filename>  (1) 
FC(F)c1csc2nc(-c3cccnc3)nn12

$$$$
