
     RDKit          3D

 26 27  0  0  0  0  0  0  0  0999 V2000
    7.2171    2.2116   26.4723 F   0  0  0  0  0  0  0  0  0  0  0  0
    6.1796    2.3711   25.6233 C   0  0  0  0  0  0  0  0  0  0  0  0
    5.4749    3.4237   26.0402 F   0  0  0  0  0  0  0  0  0  0  0  0
    5.4028    1.2761   25.7713 F   0  0  0  0  0  0  0  0  0  0  0  0
    6.6856    2.4876   24.1609 C   0  0  0  0  0  0  0  0  0  0  0  0
    7.4500    1.4579   23.6188 C   0  0  0  0  0  0  0  0  0  0  0  0
    7.8812    1.6275   22.3028 C   0  0  0  0  0  0  0  0  0  0  0  0
    8.8198    0.3249   21.5433 S   0  0  0  0  0  0  0  0  0  0  0  0
    7.4015   -0.7024   20.9802 C   0  0  0  0  0  0  0  0  0  0  0  0
    6.6270   -0.0203   19.8897 C   0  0  0  0  0  0  0  0  0  0  0  0
    5.4126    0.6264   20.1405 C   0  0  0  0  0  0  0  0  0  0  0  0
    4.7902    1.3084   19.0930 C   0  0  0  0  0  0  0  0  0  0  0  0
    5.3952    1.2972   17.8336 C   0  0  0  0  0  0  0  0  0  0  0  0
    6.5623    0.6845   17.5720 N   0  0  0  0  0  0  0  0  0  0  0  0
    7.1592    0.0618   18.5918 C   0  0  0  0  0  0  0  0  0  0  0  0
    8.1154   -0.4151   18.3787 H   0  0  0  0  0  0  0  0  0  0  0  0
    4.9175    1.7877   16.9900 H   0  0  0  0  0  0  0  0  0  0  0  0
    3.8659    1.8501   19.2502 H   0  0  0  0  0  0  0  0  0  0  0  0
    5.0034    0.6363   21.1562 H   0  0  0  0  0  0  0  0  0  0  0  0
    7.8178   -1.6621   20.6427 H   0  0  0  0  0  0  0  0  0  0  0  0
    6.7589   -0.9156   21.8450 H   0  0  0  0  0  0  0  0  0  0  0  0
    7.6029    2.7071   21.5799 N   0  0  0  0  0  0  0  0  0  0  0  0
    6.8433    3.6209   22.1916 C   0  0  0  0  0  0  0  0  0  0  0  0
    6.3810    3.5681   23.4296 N   0  0  0  0  0  0  0  0  0  0  0  0
    6.5728    4.5100   21.6283 H   0  0  0  0  0  0  0  0  0  0  0  0
    7.7055    0.5711   24.1752 H   0  0  0  0  0  0  0  0  0  0  0  0
  1  2  1  0
  2  3  1  0
  2  4  1  0
  2  5  1  0
  5  6  2  0
  6  7  1  0
  7  8  1  0
  8  9  1  0
  9 10  1  0
 10 11  2  0
 11 12  1  0
 12 13  2  0
 13 14  1  0
 14 15  2  0
 15 16  1  0
 13 17  1  0
 12 18  1  0
 11 19  1  0
  9 20  1  0
  9 21  1  0
  7 22  2  0
 22 23  1  0
 23 24  2  0
 23 25  1  0
  6 26  1  0
 24  5  1  0
 15 10  1  0
M  END
>  <cnnaffinity>  (1) 
-5.02616

>  <filename>  (1) 
FC(F)(F)c1cc(SCc2cccnc2)ncn1

$$$$
