
     RDKit          3D

 25 27  0  0  0  0  0  0  0  0999 V2000
    5.0066    1.8523   16.9078 H   0  0  0  0  0  0  0  0  0  0  0  0
    5.4279    1.2940   17.7427 C   0  0  0  0  0  0  0  0  0  0  0  0
    6.5717    0.6331   17.5043 N   0  0  0  0  0  0  0  0  0  0  0  0
    7.1370   -0.0132   18.5278 C   0  0  0  0  0  0  0  0  0  0  0  0
    8.0715   -0.5258   18.3091 H   0  0  0  0  0  0  0  0  0  0  0  0
    6.6050   -0.0445   19.8332 C   0  0  0  0  0  0  0  0  0  0  0  0
    7.3709   -0.6499   20.9411 C   0  0  0  0  0  0  0  0  0  0  0  0
    8.5156   -1.3130   20.7094 N   0  0  0  0  0  0  0  0  0  0  0  0
    8.9527   -1.5998   21.9527 N   0  0  0  0  0  0  0  0  0  0  0  0
   10.0927   -2.1819   22.4876 C   0  0  0  0  0  0  0  0  0  0  0  0
   10.8411   -2.6079   21.8441 H   0  0  0  0  0  0  0  0  0  0  0  0
   10.0024   -2.0453   23.8293 C   0  0  0  0  0  0  0  0  0  0  0  0
   10.6910   -2.3394   24.6095 H   0  0  0  0  0  0  0  0  0  0  0  0
    8.8019   -1.3783   24.1359 N   0  0  0  0  0  0  0  0  0  0  0  0
    8.3943   -0.7790   25.3615 C   0  0  0  0  0  0  0  0  0  0  0  0
    7.3063   -0.7967   25.4525 H   0  0  0  0  0  0  0  0  0  0  0  0
    8.8118    0.5148   25.4245 F   0  0  0  0  0  0  0  0  0  0  0  0
    8.9470   -1.4439   26.4078 F   0  0  0  0  0  0  0  0  0  0  0  0
    8.1593   -1.1234   22.9350 C   0  0  0  0  0  0  0  0  0  0  0  0
    7.0783   -0.5236   22.3228 C   0  0  0  0  0  0  0  0  0  0  0  0
    6.1958   -0.0765   22.7452 H   0  0  0  0  0  0  0  0  0  0  0  0
    5.3806    0.6143   20.0495 C   0  0  0  0  0  0  0  0  0  0  0  0
    4.9063    0.6242   21.0337 H   0  0  0  0  0  0  0  0  0  0  0  0
    4.7899    1.2942   18.9888 C   0  0  0  0  0  0  0  0  0  0  0  0
    3.8741    1.8594   19.1251 H   0  0  0  0  0  0  0  0  0  0  0  0
  1  2  1  0
  2  3  2  0
  3  4  1  0
  4  5  1  0
  4  6  2  0
  6  7  1  0
  7  8  2  0
  8  9  1  0
  9 10  1  0
 10 11  1  0
 10 12  2  0
 12 13  1  0
 12 14  1  0
 14 15  1  0
 15 16  1  0
 15 17  1  0
 15 18  1  0
 14 19  1  0
 19 20  2  0
 20 21  1  0
  6 22  1  0
 22 23  1  0
 22 24  2  0
 24 25  1  0
 24  2  1  0
 20  7  1  0
 19  9  1  0
M  END
>  <cnnaffinity>  (1) 
-4.97624

>  <filename>  (1) 
FC(F)n1ccn2nc(-c3cccnc3)cc12

$$$$
