
     RDKit          3D

 29 31  0  0  0  0  0  0  0  0999 V2000
    4.9906    1.7912   16.9539 H   0  0  0  0  0  0  0  0  0  0  0  0
    5.4068    1.2526   17.8027 C   0  0  0  0  0  0  0  0  0  0  0  0
    6.5453    0.5732   17.5753 N   0  0  0  0  0  0  0  0  0  0  0  0
    7.1063   -0.0666   18.6014 C   0  0  0  0  0  0  0  0  0  0  0  0
    8.0196   -0.6241   18.3989 H   0  0  0  0  0  0  0  0  0  0  0  0
    6.5866   -0.0470   19.9064 C   0  0  0  0  0  0  0  0  0  0  0  0
    7.3174   -0.6987   20.9458 N   0  0  0  0  0  0  0  0  0  0  0  0
    7.9660   -1.8562   20.7018 N   0  0  0  0  0  0  0  0  0  0  0  0
    8.4413   -2.3002   21.8205 N   0  0  0  0  0  0  0  0  0  0  0  0
    8.1114   -1.4343   22.8121 C   0  0  0  0  0  0  0  0  0  0  0  0
    8.3908   -1.6065   23.8426 H   0  0  0  0  0  0  0  0  0  0  0  0
    7.4241   -0.3907   22.2706 C   0  0  0  0  0  0  0  0  0  0  0  0
    7.0000    0.8200   22.9715 C   0  0  0  0  0  0  0  0  0  0  0  0
    6.1211    0.6290   23.9592 N   0  0  0  0  0  0  0  0  0  0  0  0
    5.5805    1.7010   24.5397 C   0  0  0  0  0  0  0  0  0  0  0  0
    4.8289    1.5043   25.3018 H   0  0  0  0  0  0  0  0  0  0  0  0
    5.9282    3.0136   24.2027 C   0  0  0  0  0  0  0  0  0  0  0  0
    5.4265    3.8365   24.6923 H   0  0  0  0  0  0  0  0  0  0  0  0
    6.9347    3.2203   23.2659 C   0  0  0  0  0  0  0  0  0  0  0  0
    7.2541    4.2381   23.0260 H   0  0  0  0  0  0  0  0  0  0  0  0
    7.5248    2.0942   22.6811 C   0  0  0  0  0  0  0  0  0  0  0  0
    8.7594    2.1779   21.8292 C   0  0  0  0  0  0  0  0  0  0  0  0
    9.3116    3.3966   21.9104 F   0  0  0  0  0  0  0  0  0  0  0  0
    8.4975    1.9267   20.5347 F   0  0  0  0  0  0  0  0  0  0  0  0
    9.7001    1.2867   22.1914 F   0  0  0  0  0  0  0  0  0  0  0  0
    5.3751    0.6216   20.1362 C   0  0  0  0  0  0  0  0  0  0  0  0
    4.9009    0.6245   21.1208 H   0  0  0  0  0  0  0  0  0  0  0  0
    4.7820    1.2804   19.0529 C   0  0  0  0  0  0  0  0  0  0  0  0
    3.8530    1.8274   19.1689 H   0  0  0  0  0  0  0  0  0  0  0  0
  1  2  1  0
  2  3  2  0
  3  4  1  0
  4  5  1  0
  4  6  2  0
  6  7  1  0
  7  8  1  0
  8  9  2  0
  9 10  1  0
 10 11  1  0
 10 12  2  0
 12 13  1  0
 13 14  2  0
 14 15  1  0
 15 16  1  0
 15 17  2  0
 17 18  1  0
 17 19  1  0
 19 20  1  0
 19 21  2  0
 21 22  1  0
 22 23  1  0
 22 24  1  0
 22 25  1  0
  6 26  1  0
 26 27  1  0
 26 28  2  0
 28 29  1  0
 28  2  1  0
 12  7  1  0
 21 13  1  0
M  END
>  <cnnaffinity>  (1) 
-4.79101

>  <filename>  (1) 
FC(F)(F)c1cccnc1-c1cnnn1-c1cccnc1

$$$$
