
     RDKit          3D

 29 31  0  0  0  0  0  0  0  0999 V2000
    8.6601   -4.3879   26.5626 H   0  0  0  0  0  0  0  0  0  0  0  0
    7.8644   -3.9781   25.9479 C   0  0  0  0  0  0  0  0  0  0  0  0
    8.2381   -3.2748   24.8787 N   0  0  0  0  0  0  0  0  0  0  0  0
    7.2539   -2.7743   24.1287 C   0  0  0  0  0  0  0  0  0  0  0  0
    7.5955   -1.9902   22.9318 C   0  0  0  0  0  0  0  0  0  0  0  0
    9.2408   -1.6964   22.4838 S   0  0  0  0  0  0  0  0  0  0  0  0
    8.7450   -0.8043   21.1011 C   0  0  0  0  0  0  0  0  0  0  0  0
    9.4567   -0.3397   20.4368 H   0  0  0  0  0  0  0  0  0  0  0  0
    7.3867   -0.7103   20.9820 C   0  0  0  0  0  0  0  0  0  0  0  0
    6.6663    0.0132   19.9069 C   0  0  0  0  0  0  0  0  0  0  0  0
    7.1699    0.0723   18.5924 C   0  0  0  0  0  0  0  0  0  0  0  0
    8.1080   -0.4244   18.3559 H   0  0  0  0  0  0  0  0  0  0  0  0
    6.5597    0.6801   17.5650 N   0  0  0  0  0  0  0  0  0  0  0  0
    5.3971    1.2970   17.8294 C   0  0  0  0  0  0  0  0  0  0  0  0
    4.9163    1.7873   16.9870 H   0  0  0  0  0  0  0  0  0  0  0  0
    4.8026    1.3151   19.0977 C   0  0  0  0  0  0  0  0  0  0  0  0
    3.8700    1.8454   19.2528 H   0  0  0  0  0  0  0  0  0  0  0  0
    5.4385    0.6533   20.1495 C   0  0  0  0  0  0  0  0  0  0  0  0
    5.0209    0.6395   21.1590 H   0  0  0  0  0  0  0  0  0  0  0  0
    6.7360   -1.4100   22.0392 C   0  0  0  0  0  0  0  0  0  0  0  0
    5.6597   -1.5031   22.0543 H   0  0  0  0  0  0  0  0  0  0  0  0
    5.9476   -2.9358   24.3677 N   0  0  0  0  0  0  0  0  0  0  0  0
    5.5739   -3.6350   25.4455 C   0  0  0  0  0  0  0  0  0  0  0  0
    4.0549   -3.8411   25.7701 C   0  0  0  0  0  0  0  0  0  0  0  0
    3.2266   -3.2634   24.8979 F   0  0  0  0  0  0  0  0  0  0  0  0
    3.7495   -5.1564   25.8092 F   0  0  0  0  0  0  0  0  0  0  0  0
    3.7569   -3.3600   26.9962 F   0  0  0  0  0  0  0  0  0  0  0  0
    6.5323   -4.1965   26.2907 C   0  0  0  0  0  0  0  0  0  0  0  0
    6.2618   -4.7742   27.1662 H   0  0  0  0  0  0  0  0  0  0  0  0
  1  2  1  0
  2  3  2  0
  3  4  1  0
  4  5  1  0
  5  6  1  0
  6  7  1  0
  7  8  1  0
  7  9  2  0
  9 10  1  0
 10 11  2  0
 11 12  1  0
 11 13  1  0
 13 14  2  0
 14 15  1  0
 14 16  1  0
 16 17  1  0
 16 18  2  0
 18 19  1  0
  9 20  1  0
 20 21  1  0
  4 22  2  0
 22 23  1  0
 23 24  1  0
 24 25  1  0
 24 26  1  0
 24 27  1  0
 23 28  2  0
 28 29  1  0
 28  2  1  0
 20  5  2  0
 18 10  1  0
M  END
>  <cnnaffinity>  (1) 
-5.40888

>  <filename>  (1) 
FC(F)(F)c1ccnc(-c2cc(-c3cccnc3)cs2)n1

$$$$
