
     RDKit          3D

 34 37  0  0  0  0  0  0  0  0999 V2000
    4.9288    1.8191   16.9885 H   0  0  0  0  0  0  0  0  0  0  0  0
    5.4690    1.3325   17.8019 C   0  0  0  0  0  0  0  0  0  0  0  0
    6.6358    0.7453   17.4944 N   0  0  0  0  0  0  0  0  0  0  0  0
    7.2862    0.0939   18.4672 C   0  0  0  0  0  0  0  0  0  0  0  0
    8.2143   -0.3926   18.1749 H   0  0  0  0  0  0  0  0  0  0  0  0
    6.8194   -0.0176   19.7890 C   0  0  0  0  0  0  0  0  0  0  0  0
    7.5128   -0.8184   20.7379 N   0  0  0  0  0  0  0  0  0  0  0  0
    8.8780   -0.8093   21.0564 C   0  0  0  0  0  0  0  0  0  0  0  0
    9.5742   -0.1625   20.5488 H   0  0  0  0  0  0  0  0  0  0  0  0
    9.1175   -1.7024   22.0493 C   0  0  0  0  0  0  0  0  0  0  0  0
    9.9950   -1.9861   22.6058 H   0  0  0  0  0  0  0  0  0  0  0  0
    7.8960   -2.2765   22.3426 N   0  0  0  0  0  0  0  0  0  0  0  0
    7.4979   -3.2466   23.1887 N   0  0  0  0  0  0  0  0  0  0  0  0
    6.1823   -3.3562   22.9068 C   0  0  0  0  0  0  0  0  0  0  0  0
    5.2068   -4.3136   23.5495 C   0  0  0  0  0  0  0  0  0  0  0  0
    3.9277   -4.2203   23.1112 N   0  0  0  0  0  0  0  0  0  0  0  0
    3.0136   -5.0586   23.5682 C   0  0  0  0  0  0  0  0  0  0  0  0
    2.0042   -4.9275   23.1884 H   0  0  0  0  0  0  0  0  0  0  0  0
    3.3026   -6.0795   24.4715 C   0  0  0  0  0  0  0  0  0  0  0  0
    2.1569   -6.9417   24.8886 C   0  0  0  0  0  0  0  0  0  0  0  0
    1.5525   -6.4899   26.0023 F   0  0  0  0  0  0  0  0  0  0  0  0
    1.1980   -6.9912   23.9396 F   0  0  0  0  0  0  0  0  0  0  0  0
    2.5379   -8.2068   25.1261 F   0  0  0  0  0  0  0  0  0  0  0  0
    4.6143   -6.1949   24.9587 C   0  0  0  0  0  0  0  0  0  0  0  0
    4.9098   -6.9830   25.6525 H   0  0  0  0  0  0  0  0  0  0  0  0
    5.5646   -5.2822   24.5127 C   0  0  0  0  0  0  0  0  0  0  0  0
    6.5838   -5.3127   24.8775 H   0  0  0  0  0  0  0  0  0  0  0  0
    5.7739   -2.4794   21.8742 C   0  0  0  0  0  0  0  0  0  0  0  0
    4.7608   -2.4757   21.5452 H   0  0  0  0  0  0  0  0  0  0  0  0
    6.9262   -1.7816   21.5466 C   0  0  0  0  0  0  0  0  0  0  0  0
    5.6253    0.6515   20.1143 C   0  0  0  0  0  0  0  0  0  0  0  0
    5.2537    0.6674   21.1400 H   0  0  0  0  0  0  0  0  0  0  0  0
    4.9353    1.3154   19.0949 C   0  0  0  0  0  0  0  0  0  0  0  0
    3.9862    1.8036   19.2866 H   0  0  0  0  0  0  0  0  0  0  0  0
  1  2  1  0
  2  3  2  0
  3  4  1  0
  4  5  1  0
  4  6  2  0
  6  7  1  0
  7  8  1  0
  8  9  1  0
  8 10  2  0
 10 11  1  0
 10 12  1  0
 12 13  1  0
 13 14  2  0
 14 15  1  0
 15 16  2  0
 16 17  1  0
 17 18  1  0
 17 19  2  0
 19 20  1  0
 20 21  1  0
 20 22  1  0
 20 23  1  0
 19 24  1  0
 24 25  1  0
 24 26  2  0
 26 27  1  0
 14 28  1  0
 28 29  1  0
 28 30  2  0
  6 31  1  0
 31 32  1  0
 31 33  2  0
 33 34  1  0
 33  2  1  0
 30  7  1  0
 30 12  1  0
 26 15  1  0
M  END
>  <cnnaffinity>  (1) 
-5.68898

>  <filename>  (1) 
FC(F)(F)c1ccc(-c2cc3n(-c4cccnc4)ccn3n2)nc1

$$$$
