
     RDKit          3D

 33 35  0  0  0  0  0  0  0  0999 V2000
    4.9117    1.7978   16.9804 H   0  0  0  0  0  0  0  0  0  0  0  0
    5.3888    1.3050   17.8208 C   0  0  0  0  0  0  0  0  0  0  0  0
    6.5542    0.6901   17.5510 N   0  0  0  0  0  0  0  0  0  0  0  0
    7.1576    0.0653   18.5669 C   0  0  0  0  0  0  0  0  0  0  0  0
    8.1154   -0.4004   18.3363 H   0  0  0  0  0  0  0  0  0  0  0  0
    6.6498    0.0126   19.8818 C   0  0  0  0  0  0  0  0  0  0  0  0
    7.3686   -0.6570   20.9724 C   0  0  0  0  0  0  0  0  0  0  0  0
    7.5167   -0.3221   22.3132 C   0  0  0  0  0  0  0  0  0  0  0  0
    7.0307    0.8330   22.9285 N   0  0  0  0  0  0  0  0  0  0  0  0
    6.9834    1.6497   22.3419 H   0  0  0  0  0  0  0  0  0  0  0  0
    6.8199    1.0263   24.2920 C   0  0  0  0  0  0  0  0  0  0  0  0
    6.3483   -0.0239   25.0919 C   0  0  0  0  0  0  0  0  0  0  0  0
    6.1747   -0.9768   24.6053 H   0  0  0  0  0  0  0  0  0  0  0  0
    6.1272    0.1749   26.4524 C   0  0  0  0  0  0  0  0  0  0  0  0
    5.7654   -0.6496   27.0587 H   0  0  0  0  0  0  0  0  0  0  0  0
    6.3672    1.4189   27.0376 C   0  0  0  0  0  0  0  0  0  0  0  0
    6.1838    1.5608   28.1010 H   0  0  0  0  0  0  0  0  0  0  0  0
    6.8413    2.4815   26.2449 C   0  0  0  0  0  0  0  0  0  0  0  0
    7.0413    3.8567   26.8714 C   0  0  0  0  0  0  0  0  0  0  0  0
    8.0190    4.5586   26.2640 F   0  0  0  0  0  0  0  0  0  0  0  0
    5.9186    4.6009   26.7917 F   0  0  0  0  0  0  0  0  0  0  0  0
    7.3578    3.7845   28.1808 F   0  0  0  0  0  0  0  0  0  0  0  0
    7.0477    2.2863   24.8664 C   0  0  0  0  0  0  0  0  0  0  0  0
    7.4039    3.0969   24.2318 H   0  0  0  0  0  0  0  0  0  0  0  0
    8.2888   -1.3762   22.8609 C   0  0  0  0  0  0  0  0  0  0  0  0
    8.6229   -1.4643   23.8815 H   0  0  0  0  0  0  0  0  0  0  0  0
    8.6036   -2.2904   21.9515 N   0  0  0  0  0  0  0  0  0  0  0  0
    8.0478   -1.8242   20.8239 N   0  0  0  0  0  0  0  0  0  0  0  0
    8.1316   -2.3607   19.9801 H   0  0  0  0  0  0  0  0  0  0  0  0
    5.4318    0.6620   20.1426 C   0  0  0  0  0  0  0  0  0  0  0  0
    5.0173    0.6267   21.1526 H   0  0  0  0  0  0  0  0  0  0  0  0
    4.7950    1.3181   19.0895 C   0  0  0  0  0  0  0  0  0  0  0  0
    3.8644    1.8489   19.2460 H   0  0  0  0  0  0  0  0  0  0  0  0
  1  2  1  0
  2  3  2  0
  3  4  1  0
  4  5  1  0
  4  6  2  0
  6  7  1  0
  7  8  2  0
  8  9  1  0
  9 10  1  0
  9 11  1  0
 11 12  2  0
 12 13  1  0
 12 14  1  0
 14 15  1  0
 14 16  2  0
 16 17  1  0
 16 18  1  0
 18 19  1  0
 19 20  1  0
 19 21  1  0
 19 22  1  0
 18 23  2  0
 23 24  1  0
  8 25  1  0
 25 26  1  0
 25 27  2  0
 27 28  1  0
 28 29  1  0
  6 30  1  0
 30 31  1  0
 30 32  2  0
 32 33  1  0
 32  2  1  0
 28  7  1  0
 23 11  1  0
M  END
>  <cnnaffinity>  (1) 
-5.41234

>  <filename>  (1) 
FC(F)(F)c1cccc(Nc2cn[nH]c2-c2cccnc2)c1

$$$$
