
     RDKit          3D

 36 39  0  0  0  0  0  0  0  0999 V2000
   14.5780    2.2020   22.6649 H   0  0  0  0  0  0  0  0  0  0  0  0
   13.4934    2.1740   22.7069 C   0  0  0  0  0  0  0  0  0  0  0  0
   12.9384    1.0399   22.2871 N   0  0  0  0  0  0  0  0  0  0  0  0
   11.6031    0.9941   22.2970 C   0  0  0  0  0  0  0  0  0  0  0  0
   10.9375   -0.2805   21.8257 C   0  0  1  0  0  0  0  0  0  0  0  0
   11.7412   -0.8917   21.4221 H   0  0  0  0  0  0  0  0  0  0  0  0
   10.2467   -1.0729   23.0019 C   0  0  0  0  0  0  0  0  0  0  0  0
   10.3327   -0.5443   23.9592 H   0  0  0  0  0  0  0  0  0  0  0  0
   10.6981   -2.0574   23.1525 H   0  0  0  0  0  0  0  0  0  0  0  0
    8.8243   -1.1763   22.5352 C   0  0  0  0  0  0  0  0  0  0  0  0
    7.7123   -1.6554   23.0550 N   0  0  0  0  0  0  0  0  0  0  0  0
    6.7657   -1.3022   22.1417 N   0  0  0  0  0  0  0  0  0  0  0  0
    5.8013   -1.5052   22.3699 H   0  0  0  0  0  0  0  0  0  0  0  0
    7.2670   -0.6243   21.0570 C   0  0  0  0  0  0  0  0  0  0  0  0
    6.5189   -0.0073   19.9359 C   0  0  0  0  0  0  0  0  0  0  0  0
    7.0918    0.0316   18.6440 C   0  0  0  0  0  0  0  0  0  0  0  0
    8.0385   -0.4697   18.4390 H   0  0  0  0  0  0  0  0  0  0  0  0
    6.5458    0.6535   17.5879 N   0  0  0  0  0  0  0  0  0  0  0  0
    5.3890    1.3038   17.7888 C   0  0  0  0  0  0  0  0  0  0  0  0
    4.9788    1.8371   16.9331 H   0  0  0  0  0  0  0  0  0  0  0  0
    4.7293    1.3326   19.0213 C   0  0  0  0  0  0  0  0  0  0  0  0
    3.8112    1.9023   19.1239 H   0  0  0  0  0  0  0  0  0  0  0  0
    5.2936    0.6644   20.1084 C   0  0  0  0  0  0  0  0  0  0  0  0
    4.8205    0.7135   21.0906 H   0  0  0  0  0  0  0  0  0  0  0  0
    8.6176   -0.5563   21.3102 C   0  0  0  0  0  0  0  0  0  0  0  0
    9.8709   -0.0342   20.7080 C   0  0  0  0  0  0  0  0  0  0  0  0
    9.7838    1.0180   20.4118 H   0  0  0  0  0  0  0  0  0  0  0  0
   10.1285   -0.5941   19.8045 H   0  0  0  0  0  0  0  0  0  0  0  0
   10.8056    1.9752   22.7199 N   0  0  0  0  0  0  0  0  0  0  0  0
   11.3740    3.1128   23.1410 C   0  0  0  0  0  0  0  0  0  0  0  0
   10.4751    4.2889   23.6092 C   0  0  0  0  0  0  0  0  0  0  0  0
   10.9693    4.8180   24.7519 F   0  0  0  0  0  0  0  0  0  0  0  0
    9.2073    3.9443   23.8390 F   0  0  0  0  0  0  0  0  0  0  0  0
   10.4782    5.2873   22.7030 F   0  0  0  0  0  0  0  0  0  0  0  0
   12.7606    3.2655   23.1470 C   0  0  0  0  0  0  0  0  0  0  0  0
   13.2570    4.1724   23.4627 H   0  0  0  0  0  0  0  0  0  0  0  0
  1  2  1  0
  2  3  2  0
  3  4  1  0
  4  5  1  0
  5  6  1  6
  5  7  1  0
  7  8  1  0
  7  9  1  0
  7 10  1  0
 10 11  2  0
 11 12  1  0
 12 13  1  0
 12 14  1  0
 14 15  1  0
 15 16  2  0
 16 17  1  0
 16 18  1  0
 18 19  2  0
 19 20  1  0
 19 21  1  0
 21 22  1  0
 21 23  2  0
 23 24  1  0
 14 25  2  0
 25 26  1  0
 26 27  1  0
 26 28  1  0
  4 29  2  0
 29 30  1  0
 30 31  1  0
 31 32  1  0
 31 33  1  0
 31 34  1  0
 30 35  2  0
 35 36  1  0
 35  2  1  0
 26  5  1  0
 25 10  1  0
 23 15  1  0
M  END
>  <cnnaffinity>  (1) 
-5.99818

>  <filename>  (1) 
FC(F)(F)c1ccnc([C@H]2Cc3n[nH]c(-c4cccnc4)c3C2)n1

$$$$
