
     RDKit          3D

 25 26  0  0  0  0  0  0  0  0999 V2000
    4.9096    1.7720   17.0064 H   0  0  0  0  0  0  0  0  0  0  0  0
    5.4040    1.2891   17.8469 C   0  0  0  0  0  0  0  0  0  0  0  0
    6.5669    0.6757   17.5866 N   0  0  0  0  0  0  0  0  0  0  0  0
    7.1855    0.0633   18.5987 C   0  0  0  0  0  0  0  0  0  0  0  0
    8.1291   -0.4317   18.3796 H   0  0  0  0  0  0  0  0  0  0  0  0
    6.6706    0.0129   19.9034 C   0  0  0  0  0  0  0  0  0  0  0  0
    7.4121   -0.7084   20.9697 C   0  0  0  0  0  0  0  0  0  0  0  0
    8.7590   -0.7102   20.9229 N   0  0  0  0  0  0  0  0  0  0  0  0
    9.4733   -1.3370   21.8668 N   0  0  0  0  0  0  0  0  0  0  0  0
    8.8576   -1.9782   22.8614 C   0  0  0  0  0  0  0  0  0  0  0  0
    9.4746   -2.4890   23.5928 H   0  0  0  0  0  0  0  0  0  0  0  0
    7.4569   -2.0218   22.9791 C   0  0  0  0  0  0  0  0  0  0  0  0
    6.7719   -2.7872   24.0704 C   0  0  0  0  0  0  0  0  0  0  0  0
    5.8143   -2.3256   24.3173 H   0  0  0  0  0  0  0  0  0  0  0  0
    7.3787   -2.7964   24.9764 H   0  0  0  0  0  0  0  0  0  0  0  0
    6.5029   -4.2254   23.6761 C   0  0  0  0  0  0  0  0  0  0  0  0
    5.7195   -4.3105   22.5858 F   0  0  0  0  0  0  0  0  0  0  0  0
    7.6439   -4.8811   23.3916 F   0  0  0  0  0  0  0  0  0  0  0  0
    5.8904   -4.8991   24.6618 F   0  0  0  0  0  0  0  0  0  0  0  0
    6.7294   -1.3826   21.9937 C   0  0  0  0  0  0  0  0  0  0  0  0
    5.6493   -1.4243   21.9761 H   0  0  0  0  0  0  0  0  0  0  0  0
    5.4466    0.6471   20.1601 C   0  0  0  0  0  0  0  0  0  0  0  0
    5.0061    0.6356   21.1587 H   0  0  0  0  0  0  0  0  0  0  0  0
    4.8078    1.3111   19.1133 C   0  0  0  0  0  0  0  0  0  0  0  0
    3.8711    1.8453   19.2666 H   0  0  0  0  0  0  0  0  0  0  0  0
  1  2  1  0
  2  3  2  0
  3  4  1  0
  4  5  1  0
  4  6  2  0
  6  7  1  0
  7  8  2  0
  8  9  1  0
  9 10  2  0
 10 11  1  0
 10 12  1  0
 12 13  1  0
 13 14  1  0
 13 15  1  0
 13 16  1  0
 16 17  1  0
 16 18  1  0
 16 19  1  0
 12 20  2  0
 20 21  1  0
  6 22  1  0
 22 23  1  0
 22 24  2  0
 24 25  1  0
 24  2  1  0
 20  7  1  0
M  END
>  <cnnaffinity>  (1) 
-5.12597

>  <filename>  (1) 
FC(F)(F)Cc1cnnc(-c2cccnc2)c1

$$$$
