
     RDKit          3D

 14 14  0  0  0  0  0  0  0  0999 V2000
    4.9077    1.7695   17.0081 H   0  0  0  0  0  0  0  0  0  0  0  0
    5.4038    1.2879   17.8502 C   0  0  0  0  0  0  0  0  0  0  0  0
    6.5715    0.6766   17.5972 N   0  0  0  0  0  0  0  0  0  0  0  0
    7.1837    0.0571   18.6078 C   0  0  0  0  0  0  0  0  0  0  0  0
    8.1322   -0.4368   18.3821 H   0  0  0  0  0  0  0  0  0  0  0  0
    6.6549    0.0222   19.8967 C   0  0  0  0  0  0  0  0  0  0  0  0
    7.3554   -0.7494   20.9539 C   0  0  0  0  0  0  0  0  0  0  0  0
    7.0847   -0.2718   22.1788 F   0  0  0  0  0  0  0  0  0  0  0  0
    6.9761   -2.0399   20.9303 F   0  0  0  0  0  0  0  0  0  0  0  0
    8.6900   -0.7199   20.7999 F   0  0  0  0  0  0  0  0  0  0  0  0
    5.4385    0.6534   20.1602 C   0  0  0  0  0  0  0  0  0  0  0  0
    5.0073    0.6310   21.1568 H   0  0  0  0  0  0  0  0  0  0  0  0
    4.8062    1.3101   19.1140 C   0  0  0  0  0  0  0  0  0  0  0  0
    3.8730    1.8450   19.2683 H   0  0  0  0  0  0  0  0  0  0  0  0
  1  2  1  0
  2  3  2  0
  3  4  1  0
  4  5  1  0
  4  6  2  0
  6  7  1  0
  7  8  1  0
  7  9  1  0
  7 10  1  0
  6 11  1  0
 11 12  1  0
 11 13  2  0
 13 14  1  0
 13  2  1  0
M  END
>  <cnnaffinity>  (1) 
-3.52107

>  <filename>  (1) 
FC(F)(F)c1cccnc1

$$$$
