
     RDKit          3D

 37 39  0  0  0  0  0  0  0  0999 V2000
    4.9123    1.8114   16.9706 H   0  0  0  0  0  0  0  0  0  0  0  0
    5.3841    1.3092   17.8148 C   0  0  0  0  0  0  0  0  0  0  0  0
    6.5455    0.6897   17.5491 N   0  0  0  0  0  0  0  0  0  0  0  0
    7.1538    0.0686   18.5672 C   0  0  0  0  0  0  0  0  0  0  0  0
    8.1102   -0.3918   18.3225 H   0  0  0  0  0  0  0  0  0  0  0  0
    6.6551    0.0086   19.8841 C   0  0  0  0  0  0  0  0  0  0  0  0
    7.3972   -0.6675   20.9695 C   0  0  0  0  0  0  0  0  0  0  0  0
    7.7504   -0.2227   22.2307 C   0  0  0  0  0  0  0  0  0  0  0  0
    7.5524    1.1653   22.7579 C   0  0  0  0  0  0  0  0  0  0  0  0
    6.5102    1.4879   22.6462 H   0  0  0  0  0  0  0  0  0  0  0  0
    7.7493    1.1872   23.8344 H   0  0  0  0  0  0  0  0  0  0  0  0
    8.4595    2.1818   22.0396 C   0  0  0  0  0  0  0  0  0  0  0  0
    8.2735    2.1104   20.9594 H   0  0  0  0  0  0  0  0  0  0  0  0
    9.5068    1.8955   22.1917 H   0  0  0  0  0  0  0  0  0  0  0  0
    8.2292    3.5858   22.5371 C   0  0  0  0  0  0  0  0  0  0  0  0
    8.9379    4.0818   23.6443 C   0  0  0  0  0  0  0  0  0  0  0  0
    9.6870    3.4531   24.1235 H   0  0  0  0  0  0  0  0  0  0  0  0
    8.6826    5.3602   24.1452 C   0  0  0  0  0  0  0  0  0  0  0  0
    9.2470    5.7230   25.0016 H   0  0  0  0  0  0  0  0  0  0  0  0
    7.7062    6.1707   23.5386 C   0  0  0  0  0  0  0  0  0  0  0  0
    7.3981    7.5430   24.0964 C   0  0  0  0  0  0  0  0  0  0  0  0
    6.9498    8.3916   23.1513 F   0  0  0  0  0  0  0  0  0  0  0  0
    6.4467    7.4882   25.0506 F   0  0  0  0  0  0  0  0  0  0  0  0
    8.4798    8.1166   24.6616 F   0  0  0  0  0  0  0  0  0  0  0  0
    6.9711    5.6712   22.4501 C   0  0  0  0  0  0  0  0  0  0  0  0
    6.1994    6.2700   21.9699 H   0  0  0  0  0  0  0  0  0  0  0  0
    7.2275    4.3873   21.9695 C   0  0  0  0  0  0  0  0  0  0  0  0
    6.6189    3.9912   21.1581 H   0  0  0  0  0  0  0  0  0  0  0  0
    8.5035   -1.2838   22.7836 C   0  0  0  0  0  0  0  0  0  0  0  0
    9.0003   -1.3230   23.7491 H   0  0  0  0  0  0  0  0  0  0  0  0
    8.6082   -2.3116   21.9489 N   0  0  0  0  0  0  0  0  0  0  0  0
    7.9401   -1.9077   20.8564 N   0  0  0  0  0  0  0  0  0  0  0  0
    7.8353   -2.5301   20.0676 H   0  0  0  0  0  0  0  0  0  0  0  0
    5.4391    0.6618   20.1354 C   0  0  0  0  0  0  0  0  0  0  0  0
    5.0179    0.6380   21.1413 H   0  0  0  0  0  0  0  0  0  0  0  0
    4.7958    1.3209   19.0836 C   0  0  0  0  0  0  0  0  0  0  0  0
    3.8635    1.8491   19.2388 H   0  0  0  0  0  0  0  0  0  0  0  0
  1  2  1  0
  2  3  2  0
  3  4  1  0
  4  5  1  0
  4  6  2  0
  6  7  1  0
  7  8  2  0
  8  9  1  0
  9 10  1  0
  9 11  1  0
  9 12  1  0
 12 13  1  0
 12 14  1  0
 12 15  1  0
 15 16  2  0
 16 17  1  0
 16 18  1  0
 18 19  1  0
 18 20  2  0
 20 21  1  0
 21 22  1  0
 21 23  1  0
 21 24  1  0
 20 25  1  0
 25 26  1  0
 25 27  2  0
 27 28  1  0
  8 29  1  0
 29 30  1  0
 29 31  2  0
 31 32  1  0
 32 33  1  0
  6 34  1  0
 34 35  1  0
 34 36  2  0
 36 37  1  0
 36  2  1  0
 32  7  1  0
 27 15  1  0
M  END
>  <cnnaffinity>  (1) 
-5.36614

>  <filename>  (1) 
FC(F)(F)c1ccc(CCc2cn[nH]c2-c2cccnc2)cc1

$$$$
