
     RDKit          3D

 32 34  0  0  0  0  0  0  0  0999 V2000
    4.9134    1.7860   16.9960 H   0  0  0  0  0  0  0  0  0  0  0  0
    5.3966    1.2966   17.8387 C   0  0  0  0  0  0  0  0  0  0  0  0
    6.5605    0.6814   17.5722 N   0  0  0  0  0  0  0  0  0  0  0  0
    7.1724    0.0589   18.5909 C   0  0  0  0  0  0  0  0  0  0  0  0
    8.1192   -0.4305   18.3698 H   0  0  0  0  0  0  0  0  0  0  0  0
    6.6675   -0.0095   19.9157 C   0  0  0  0  0  0  0  0  0  0  0  0
    7.3267   -0.6908   20.9466 N   0  0  0  0  0  0  0  0  0  0  0  0
    6.7809   -1.1367   21.6742 H   0  0  0  0  0  0  0  0  0  0  0  0
    8.7062   -0.7809   21.0980 C   0  0  0  0  0  0  0  0  0  0  0  0
    9.6947    0.1322   20.6730 C   0  0  0  0  0  0  0  0  0  0  0  0
    9.5339    1.0264   20.0959 H   0  0  0  0  0  0  0  0  0  0  0  0
   10.9052   -0.2253   21.0714 N   0  0  0  0  0  0  0  0  0  0  0  0
   10.7157   -1.3619   21.7441 N   0  0  0  0  0  0  0  0  0  0  0  0
   11.5421   -1.8106   22.1114 H   0  0  0  0  0  0  0  0  0  0  0  0
    9.4085   -1.7579   21.7885 C   0  0  0  0  0  0  0  0  0  0  0  0
    8.9199   -2.9586   22.4584 C   0  0  0  0  0  0  0  0  0  0  0  0
    7.7064   -3.3877   22.0858 N   0  0  0  0  0  0  0  0  0  0  0  0
    7.2208   -4.5101   22.6277 C   0  0  0  0  0  0  0  0  0  0  0  0
    5.8335   -5.0163   22.1581 C   0  0  0  0  0  0  0  0  0  0  0  0
    5.2555   -4.2439   21.2327 F   0  0  0  0  0  0  0  0  0  0  0  0
    5.9283   -6.2631   21.6473 F   0  0  0  0  0  0  0  0  0  0  0  0
    4.9817   -5.1060   23.2022 F   0  0  0  0  0  0  0  0  0  0  0  0
    7.9082   -5.2327   23.6167 C   0  0  0  0  0  0  0  0  0  0  0  0
    7.4695   -6.1198   24.0550 H   0  0  0  0  0  0  0  0  0  0  0  0
    9.1574   -4.7698   24.0386 C   0  0  0  0  0  0  0  0  0  0  0  0
    9.7203   -5.2994   24.8102 H   0  0  0  0  0  0  0  0  0  0  0  0
    9.6741   -3.6197   23.4490 C   0  0  0  0  0  0  0  0  0  0  0  0
   10.6351   -3.2221   23.7516 H   0  0  0  0  0  0  0  0  0  0  0  0
    5.4453    0.6317   20.1659 C   0  0  0  0  0  0  0  0  0  0  0  0
    5.0219    0.6203   21.1700 H   0  0  0  0  0  0  0  0  0  0  0  0
    4.8131    1.3044   19.1103 C   0  0  0  0  0  0  0  0  0  0  0  0
    3.8826    1.8361   19.2650 H   0  0  0  0  0  0  0  0  0  0  0  0
  1  2  1  0
  2  3  2  0
  3  4  1  0
  4  5  1  0
  4  6  2  0
  6  7  1  0
  7  8  1  0
  7  9  1  0
  9 10  1  0
 10 11  1  0
 10 12  2  0
 12 13  1  0
 13 14  1  0
 13 15  1  0
 15 16  1  0
 16 17  2  0
 17 18  1  0
 18 19  1  0
 19 20  1  0
 19 21  1  0
 19 22  1  0
 18 23  2  0
 23 24  1  0
 23 25  1  0
 25 26  1  0
 25 27  2  0
 27 28  1  0
  6 29  1  0
 29 30  1  0
 29 31  2  0
 31 32  1  0
 31  2  1  0
 15  9  2  0
 27 16  1  0
M  END
>  <cnnaffinity>  (1) 
-6.26815

>  <filename>  (1) 
FC(F)(F)c1cccc(-c2[nH]ncc2Nc2cccnc2)n1

$$$$
