
     RDKit          3D

 22 23  0  0  0  0  0  0  0  0999 V2000
    4.9534    1.8566   17.0258 H   0  0  0  0  0  0  0  0  0  0  0  0
    5.4276    1.3142   17.8444 C   0  0  0  0  0  0  0  0  0  0  0  0
    6.5792    0.6857   17.5568 N   0  0  0  0  0  0  0  0  0  0  0  0
    7.1846   -0.0003   18.5342 C   0  0  0  0  0  0  0  0  0  0  0  0
    8.1295   -0.4816   18.2912 H   0  0  0  0  0  0  0  0  0  0  0  0
    6.6763   -0.1138   19.8403 C   0  0  0  0  0  0  0  0  0  0  0  0
    7.3931   -0.8590   20.8508 N   0  0  0  0  0  0  0  0  0  0  0  0
    8.6294   -0.5300   21.4217 C   0  0  0  0  0  0  0  0  0  0  0  0
    9.7338    0.7004   20.8921 S   0  0  0  0  0  0  0  0  0  0  0  0
    9.2700    1.9795   22.1270 C   0  0  0  0  0  0  0  0  0  0  0  0
    8.0659    2.4653   21.8182 F   0  0  0  0  0  0  0  0  0  0  0  0
   10.1625    2.9682   22.0771 F   0  0  0  0  0  0  0  0  0  0  0  0
    9.2408    1.5083   23.3615 F   0  0  0  0  0  0  0  0  0  0  0  0
    8.8909   -1.2676   22.4548 N   0  0  0  0  0  0  0  0  0  0  0  0
    7.8368   -2.1122   22.5271 N   0  0  0  0  0  0  0  0  0  0  0  0
    7.7707   -2.8150   23.2482 H   0  0  0  0  0  0  0  0  0  0  0  0
    6.8957   -1.9415   21.5766 C   0  0  0  0  0  0  0  0  0  0  0  0
    5.5294   -2.8604   21.3677 S   0  0  0  0  0  0  0  0  0  0  0  0
    5.4728    0.5388   20.1337 C   0  0  0  0  0  0  0  0  0  0  0  0
    5.0573    0.5067   21.1436 H   0  0  0  0  0  0  0  0  0  0  0  0
    4.8447    1.2698   19.1148 C   0  0  0  0  0  0  0  0  0  0  0  0
    3.9239    1.8164   19.2856 H   0  0  0  0  0  0  0  0  0  0  0  0
  1  2  1  0
  2  3  2  0
  3  4  1  0
  4  5  1  0
  4  6  2  0
  6  7  1  0
  7  8  1  0
  8  9  1  0
  9 10  1  0
 10 11  1  0
 10 12  1  0
 10 13  1  0
  8 14  2  0
 14 15  1  0
 15 16  1  0
 15 17  1  0
 17 18  2  0
  6 19  1  0
 19 20  1  0
 19 21  2  0
 21 22  1  0
 21  2  1  0
 17  7  1  0
M  END
>  <cnnaffinity>  (1) 
-4.70051

>  <filename>  (1) 
FC(F)(F)Sc1n[nH]c(=S)n1-c1cccnc1

$$$$
