
     RDKit          3D

 32 34  0  0  0  0  0  0  0  0999 V2000
    7.3621    4.7156   21.5152 H   0  0  0  0  0  0  0  0  0  0  0  0
    7.3459    3.8017   22.1013 C   0  0  0  0  0  0  0  0  0  0  0  0
    7.8750    2.7165   21.5290 N   0  0  0  0  0  0  0  0  0  0  0  0
    7.8403    1.5920   22.2589 C   0  0  0  0  0  0  0  0  0  0  0  0
    8.4248    0.3123   21.6751 C   0  0  0  0  0  0  0  0  0  0  0  0
    7.4101   -0.6418   21.0291 C   0  0  0  0  0  0  0  0  0  0  0  0
    7.9440   -1.5215   20.6426 H   0  0  0  0  0  0  0  0  0  0  0  0
    6.7173   -1.0187   21.7950 H   0  0  0  0  0  0  0  0  0  0  0  0
    6.6465    0.0123   19.9075 C   0  0  0  0  0  0  0  0  0  0  0  0
    7.1632    0.0696   18.6008 C   0  0  0  0  0  0  0  0  0  0  0  0
    8.1084   -0.4202   18.3641 H   0  0  0  0  0  0  0  0  0  0  0  0
    6.5619    0.6846   17.5741 N   0  0  0  0  0  0  0  0  0  0  0  0
    5.3985    1.2999   17.8329 C   0  0  0  0  0  0  0  0  0  0  0  0
    4.9200    1.7888   16.9878 H   0  0  0  0  0  0  0  0  0  0  0  0
    4.7953    1.3163   19.0961 C   0  0  0  0  0  0  0  0  0  0  0  0
    3.8643    1.8491   19.2457 H   0  0  0  0  0  0  0  0  0  0  0  0
    5.4268    0.6534   20.1497 C   0  0  0  0  0  0  0  0  0  0  0  0
    5.0114    0.6472   21.1647 H   0  0  0  0  0  0  0  0  0  0  0  0
    9.5942   -0.3287   22.3864 C   0  0  0  0  0  0  0  0  0  0  0  0
    9.6451   -1.4162   22.4020 H   0  0  0  0  0  0  0  0  0  0  0  0
    9.9451    0.1285   23.3080 H   0  0  0  0  0  0  0  0  0  0  0  0
    9.8075    0.3756   21.0804 C   0  0  0  0  0  0  0  0  0  0  0  0
    9.9935   -0.2292   20.1966 H   0  0  0  0  0  0  0  0  0  0  0  0
   10.3187    1.3335   21.0865 H   0  0  0  0  0  0  0  0  0  0  0  0
    7.3227    1.4867   23.4841 N   0  0  0  0  0  0  0  0  0  0  0  0
    6.8224    2.5902   24.0624 C   0  0  0  0  0  0  0  0  0  0  0  0
    6.2242    2.5115   25.5040 C   0  0  0  0  0  0  0  0  0  0  0  0
    6.8016    3.4236   26.3176 F   0  0  0  0  0  0  0  0  0  0  0  0
    4.9091    2.8213   25.4885 F   0  0  0  0  0  0  0  0  0  0  0  0
    6.3493    1.3192   26.0878 F   0  0  0  0  0  0  0  0  0  0  0  0
    6.8043    3.8084   23.3825 C   0  0  0  0  0  0  0  0  0  0  0  0
    6.3899    4.7100   23.8156 H   0  0  0  0  0  0  0  0  0  0  0  0
  1  2  1  0
  2  3  2  0
  3  4  1  0
  4  5  1  0
  5  6  1  0
  6  7  1  0
  6  8  1  0
  6  9  1  0
  9 10  2  0
 10 11  1  0
 10 12  1  0
 12 13  2  0
 13 14  1  0
 13 15  1  0
 15 16  1  0
 15 17  2  0
 17 18  1  0
  5 19  1  0
 19 20  1  0
 19 21  1  0
 19 22  1  0
 22 23  1  0
 22 24  1  0
  4 25  2  0
 25 26  1  0
 26 27  1  0
 27 28  1  0
 27 29  1  0
 27 30  1  0
 26 31  2  0
 31 32  1  0
 31  2  1  0
 22  5  1  0
 17  9  1  0
M  END
>  <cnnaffinity>  (1) 
-5.15727

>  <filename>  (1) 
FC(F)(F)c1ccnc(C2(Cc3cccnc3)CC2)n1

$$$$
