
     RDKit          3D

 28 29  0  0  0  0  0  0  0  0999 V2000
    4.9284    1.8037   16.9890 H   0  0  0  0  0  0  0  0  0  0  0  0
    5.4020    1.2910   17.8235 C   0  0  0  0  0  0  0  0  0  0  0  0
    6.5714    0.6831   17.5605 N   0  0  0  0  0  0  0  0  0  0  0  0
    7.1712    0.0348   18.5698 C   0  0  0  0  0  0  0  0  0  0  0  0
    8.1312   -0.4229   18.3323 H   0  0  0  0  0  0  0  0  0  0  0  0
    6.6540   -0.0723   19.8931 C   0  0  0  0  0  0  0  0  0  0  0  0
    7.2809   -0.8260   20.8899 N   0  0  0  0  0  0  0  0  0  0  0  0
    8.1072   -1.3352   20.6066 H   0  0  0  0  0  0  0  0  0  0  0  0
    7.2648   -0.4081   22.3053 C   0  0  0  0  0  0  0  0  0  0  0  0
    7.8514   -1.1426   22.8636 H   0  0  0  0  0  0  0  0  0  0  0  0
    6.2368   -0.4617   22.6744 H   0  0  0  0  0  0  0  0  0  0  0  0
    7.7413    1.0080   22.7017 C   0  0  0  0  0  0  0  0  0  0  0  0
    6.7667    1.9146   22.8721 N   0  0  0  0  0  0  0  0  0  0  0  0
    7.0830    3.1955   23.0763 C   0  0  0  0  0  0  0  0  0  0  0  0
    6.2407    3.8876   23.0807 H   0  0  0  0  0  0  0  0  0  0  0  0
    8.3971    3.6335   23.2490 C   0  0  0  0  0  0  0  0  0  0  0  0
    8.5895    4.6813   23.4486 H   0  0  0  0  0  0  0  0  0  0  0  0
    9.4230    2.6957   23.1796 C   0  0  0  0  0  0  0  0  0  0  0  0
   10.4689    2.9775   23.3267 H   0  0  0  0  0  0  0  0  0  0  0  0
    9.0891    1.3644   22.9016 C   0  0  0  0  0  0  0  0  0  0  0  0
   10.1428    0.3106   22.8282 C   0  0  0  0  0  0  0  0  0  0  0  0
   10.0886   -0.3770   21.6630 F   0  0  0  0  0  0  0  0  0  0  0  0
   11.3787    0.8229   22.9314 F   0  0  0  0  0  0  0  0  0  0  0  0
    9.9971   -0.6019   23.8150 F   0  0  0  0  0  0  0  0  0  0  0  0
    5.4437    0.6028   20.1399 C   0  0  0  0  0  0  0  0  0  0  0  0
    5.0438    0.6191   21.1529 H   0  0  0  0  0  0  0  0  0  0  0  0
    4.8166    1.2836   19.0907 C   0  0  0  0  0  0  0  0  0  0  0  0
    3.8935    1.8232   19.2589 H   0  0  0  0  0  0  0  0  0  0  0  0
  1  2  1  0
  2  3  2  0
  3  4  1  0
  4  5  1  0
  4  6  2  0
  6  7  1  0
  7  8  1  0
  7  9  1  0
  9 10  1  0
  9 11  1  0
  9 12  1  0
 12 13  2  0
 13 14  1  0
 14 15  1  0
 14 16  2  0
 16 17  1  0
 16 18  1  0
 18 19  1  0
 18 20  2  0
 20 21  1  0
 21 22  1  0
 21 23  1  0
 21 24  1  0
  6 25  1  0
 25 26  1  0
 25 27  2  0
 27 28  1  0
 27  2  1  0
 20 12  1  0
M  END
>  <cnnaffinity>  (1) 
-5.10832

>  <filename>  (1) 
FC(F)(F)c1cccnc1CNc1cccnc1

$$$$
