
     RDKit          3D

 35 37  0  0  0  0  0  0  0  0999 V2000
    7.0779    1.7227   22.1251 H   0  0  0  0  0  0  0  0  0  0  0  0
    7.3192    0.9133   22.8183 C   0  0  0  0  0  0  0  0  0  0  0  0
    7.5413   -0.3198   22.3339 C   0  0  0  0  0  0  0  0  0  0  0  0
    7.3735   -0.7678   20.9378 C   0  0  0  0  0  0  0  0  0  0  0  0
    6.6364   -0.0007   19.9074 C   0  0  0  0  0  0  0  0  0  0  0  0
    7.1551    0.0224   18.6050 C   0  0  0  0  0  0  0  0  0  0  0  0
    8.0893   -0.4885   18.3777 H   0  0  0  0  0  0  0  0  0  0  0  0
    6.5743    0.6613   17.5859 N   0  0  0  0  0  0  0  0  0  0  0  0
    5.4185    1.3007   17.8297 C   0  0  0  0  0  0  0  0  0  0  0  0
    4.9612    1.8183   16.9880 H   0  0  0  0  0  0  0  0  0  0  0  0
    4.7997    1.3166   19.0825 C   0  0  0  0  0  0  0  0  0  0  0  0
    3.8659    1.8514   19.2189 H   0  0  0  0  0  0  0  0  0  0  0  0
    5.4246    0.6681   20.1467 C   0  0  0  0  0  0  0  0  0  0  0  0
    4.9923    0.6859   21.1479 H   0  0  0  0  0  0  0  0  0  0  0  0
    7.9503   -1.8829   20.6864 N   0  0  0  0  0  0  0  0  0  0  0  0
    8.5520   -2.4172   21.9097 C   0  0  0  0  0  0  0  0  0  0  0  0
    9.6306   -2.4994   21.7560 H   0  0  0  0  0  0  0  0  0  0  0  0
    8.1776   -3.4290   22.0733 H   0  0  0  0  0  0  0  0  0  0  0  0
    8.1922   -1.4641   23.0739 C   0  0  0  0  0  0  0  0  0  0  0  0
    9.0616   -1.1289   23.6490 H   0  0  0  0  0  0  0  0  0  0  0  0
    7.4766   -1.9414   23.7531 H   0  0  0  0  0  0  0  0  0  0  0  0
    7.4958    1.3481   24.2113 C   0  0  0  0  0  0  0  0  0  0  0  0
    7.0607    0.6210   25.3310 C   0  0  0  0  0  0  0  0  0  0  0  0
    6.5016   -0.2973   25.1712 H   0  0  0  0  0  0  0  0  0  0  0  0
    7.3198    1.0854   26.6226 C   0  0  0  0  0  0  0  0  0  0  0  0
    6.9899    0.4843   27.4682 H   0  0  0  0  0  0  0  0  0  0  0  0
    7.9863    2.2999   26.8297 C   0  0  0  0  0  0  0  0  0  0  0  0
    8.2075    2.5781   27.8607 H   0  0  0  0  0  0  0  0  0  0  0  0
    8.3689    3.0711   25.7090 C   0  0  0  0  0  0  0  0  0  0  0  0
    8.9198    4.4812   25.7629 C   0  0  0  0  0  0  0  0  0  0  0  0
    9.8652    4.6855   24.8189 F   0  0  0  0  0  0  0  0  0  0  0  0
    9.4622    4.7961   26.9430 F   0  0  0  0  0  0  0  0  0  0  0  0
    7.9470    5.3845   25.5223 F   0  0  0  0  0  0  0  0  0  0  0  0
    8.1464    2.5703   24.4232 C   0  0  0  0  0  0  0  0  0  0  0  0
    8.5212    3.1307   23.5700 H   0  0  0  0  0  0  0  0  0  0  0  0
  1  2  1  0
  2  3  2  3
  3  4  1  0
  4  5  1  0
  5  6  2  0
  6  7  1  0
  6  8  1  0
  8  9  2  0
  9 10  1  0
  9 11  1  0
 11 12  1  0
 11 13  2  0
 13 14  1  0
  4 15  2  0
 15 16  1  0
 16 17  1  0
 16 18  1  0
 16 19  1  0
 19 20  1  0
 19 21  1  0
  2 22  1  0
 22 23  2  0
 23 24  1  0
 23 25  1  0
 25 26  1  0
 25 27  2  0
 27 28  1  0
 27 29  1  0
 29 30  1  0
 30 31  1  0
 30 32  1  0
 30 33  1  0
 29 34  2  0
 34 35  1  0
 19  3  1  0
 34 22  1  0
 13  5  1  0
M  END
>  <cnnaffinity>  (1) 
-5.3017

>  <filename>  (1) 
FC(F)(F)c1cccc(C=C2CCN=C2c2cccnc2)c1

$$$$
