
     RDKit          3D

 36 38  0  0  0  0  0  0  0  0999 V2000
    7.5366    1.7224   23.5334 F   0  0  0  0  0  0  0  0  0  0  0  0
    8.6318    1.8108   24.3074 C   0  0  0  0  0  0  0  0  0  0  0  0
    9.6973    1.7816   23.4696 F   0  0  0  0  0  0  0  0  0  0  0  0
    8.6151    3.0320   24.8737 F   0  0  0  0  0  0  0  0  0  0  0  0
    8.7092    0.7072   25.3346 C   0  0  0  0  0  0  0  0  0  0  0  0
    8.9481    0.8527   26.6893 C   0  0  0  0  0  0  0  0  0  0  0  0
    9.1340   -0.3126   27.4693 C   0  0  0  0  0  0  0  0  0  0  0  0
    8.9586   -1.5361   26.9713 N   0  0  0  0  0  0  0  0  0  0  0  0
    8.6123   -1.6847   25.6751 N   0  0  0  0  0  0  0  0  0  0  0  0
    8.5406   -0.6254   24.8702 C   0  0  0  0  0  0  0  0  0  0  0  0
    8.2231   -0.8318   23.5444 N   0  0  0  0  0  0  0  0  0  0  0  0
    6.8497   -1.2433   23.2581 C   0  0  0  0  0  0  0  0  0  0  0  0
    6.6953   -1.6612   21.7833 C   0  0  0  0  0  0  0  0  0  0  0  0
    7.3845   -0.7818   20.8328 N   0  0  0  0  0  0  0  0  0  0  0  0
    6.6823   -0.0481   19.8473 C   0  0  0  0  0  0  0  0  0  0  0  0
    5.4604    0.6056   20.1089 C   0  0  0  0  0  0  0  0  0  0  0  0
    4.8208    1.2999   19.0755 C   0  0  0  0  0  0  0  0  0  0  0  0
    5.4067    1.3237   17.8051 C   0  0  0  0  0  0  0  0  0  0  0  0
    6.5723    0.7177   17.5271 N   0  0  0  0  0  0  0  0  0  0  0  0
    7.1901    0.0715   18.5267 C   0  0  0  0  0  0  0  0  0  0  0  0
    8.1422   -0.3992   18.2786 H   0  0  0  0  0  0  0  0  0  0  0  0
    4.9237    1.8450   16.9814 H   0  0  0  0  0  0  0  0  0  0  0  0
    3.8830    1.8175   19.2418 H   0  0  0  0  0  0  0  0  0  0  0  0
    5.0527    0.5984   21.1193 H   0  0  0  0  0  0  0  0  0  0  0  0
    8.7285   -0.3017   21.2103 C   0  0  0  0  0  0  0  0  0  0  0  0
    9.2452   -0.9435   22.5073 C   0  0  0  0  0  0  0  0  0  0  0  0
    9.5198   -1.9951   22.3118 H   0  0  0  0  0  0  0  0  0  0  0  0
   10.1574   -0.4355   22.8302 H   0  0  0  0  0  0  0  0  0  0  0  0
    8.7195    0.7870   21.3399 H   0  0  0  0  0  0  0  0  0  0  0  0
    9.4487   -0.5059   20.4071 H   0  0  0  0  0  0  0  0  0  0  0  0
    5.6378   -1.7485   21.5240 H   0  0  0  0  0  0  0  0  0  0  0  0
    7.1093   -2.6755   21.6956 H   0  0  0  0  0  0  0  0  0  0  0  0
    6.5738   -2.0914   23.9071 H   0  0  0  0  0  0  0  0  0  0  0  0
    6.1701   -0.4128   23.5027 H   0  0  0  0  0  0  0  0  0  0  0  0
    9.4485   -0.2468   28.5045 H   0  0  0  0  0  0  0  0  0  0  0  0
    8.9538    1.8413   27.1355 H   0  0  0  0  0  0  0  0  0  0  0  0
  1  2  1  0
  2  3  1  0
  2  4  1  0
  2  5  1  0
  5  6  2  0
  6  7  1  0
  7  8  2  0
  8  9  1  0
  9 10  2  0
 10 11  1  0
 11 12  1  0
 12 13  1  0
 13 14  1  0
 14 15  1  0
 15 16  2  0
 16 17  1  0
 17 18  2  0
 18 19  1  0
 19 20  2  0
 20 21  1  0
 18 22  1  0
 17 23  1  0
 16 24  1  0
 14 25  1  0
 25 26  1  0
 26 27  1  0
 26 28  1  0
 25 29  1  0
 25 30  1  0
 13 31  1  0
 13 32  1  0
 12 33  1  0
 12 34  1  0
  7 35  1  0
  6 36  1  0
 10  5  1  0
 26 11  1  0
 20 15  1  0
M  END
>  <cnnaffinity>  (1) 
-5.06437

>  <filename>  (1) 
FC(F)(F)c1ccnnc1N1CCN(c2cccnc2)CC1

$$$$
