
     RDKit          3D

 30 32  0  0  0  0  0  0  0  0999 V2000
   10.0963   -2.4133   21.5199 H   0  0  0  0  0  0  0  0  0  0  0  0
    9.1510   -1.9088   21.7002 C   0  0  0  0  0  0  0  0  0  0  0  0
    8.6898   -1.9650   22.9465 N   0  0  0  0  0  0  0  0  0  0  0  0
    7.5118   -1.3526   23.1522 C   0  0  0  0  0  0  0  0  0  0  0  0
    6.9164   -1.3590   24.5954 C   0  0  0  0  0  0  0  0  0  0  0  0
    6.2178   -0.2609   24.9442 N   0  0  0  0  0  0  0  0  0  0  0  0
    5.7049   -0.1392   26.1643 C   0  0  0  0  0  0  0  0  0  0  0  0
    5.1474    0.7747   26.3604 H   0  0  0  0  0  0  0  0  0  0  0  0
    5.8566   -1.1107   27.1515 C   0  0  0  0  0  0  0  0  0  0  0  0
    5.4295   -0.9617   28.1350 H   0  0  0  0  0  0  0  0  0  0  0  0
    6.5539   -2.2643   26.8330 C   0  0  0  0  0  0  0  0  0  0  0  0
    6.6795   -3.0444   27.5847 H   0  0  0  0  0  0  0  0  0  0  0  0
    7.0704   -2.4192   25.5365 C   0  0  0  0  0  0  0  0  0  0  0  0
    7.7819   -3.7166   25.2024 C   0  0  0  0  0  0  0  0  0  0  0  0
    7.4112   -4.1907   24.0003 F   0  0  0  0  0  0  0  0  0  0  0  0
    7.5241   -4.6948   26.0938 F   0  0  0  0  0  0  0  0  0  0  0  0
    9.1143   -3.5717   25.1910 F   0  0  0  0  0  0  0  0  0  0  0  0
    6.8466   -0.7415   22.1775 N   0  0  0  0  0  0  0  0  0  0  0  0
    7.4103   -0.7281   20.9701 C   0  0  0  0  0  0  0  0  0  0  0  0
    6.6702   -0.0055   19.9225 C   0  0  0  0  0  0  0  0  0  0  0  0
    7.1869    0.0469   18.6248 C   0  0  0  0  0  0  0  0  0  0  0  0
    8.1282   -0.4330   18.3807 H   0  0  0  0  0  0  0  0  0  0  0  0
    6.5768    0.6638   17.6079 N   0  0  0  0  0  0  0  0  0  0  0  0
    5.4135    1.2813   17.8549 C   0  0  0  0  0  0  0  0  0  0  0  0
    4.9268    1.7690   17.0087 H   0  0  0  0  0  0  0  0  0  0  0  0
    4.8160    1.3010   19.1196 C   0  0  0  0  0  0  0  0  0  0  0  0
    3.8829    1.8372   19.2643 H   0  0  0  0  0  0  0  0  0  0  0  0
    5.4467    0.6450   20.1726 C   0  0  0  0  0  0  0  0  0  0  0  0
    5.0057    0.6311   21.1732 H   0  0  0  0  0  0  0  0  0  0  0  0
    8.5710   -1.3120   20.6652 N   0  0  0  0  0  0  0  0  0  0  0  0
  1  2  1  0
  2  3  2  0
  3  4  1  0
  4  5  1  0
  5  6  2  0
  6  7  1  0
  7  8  1  0
  7  9  2  0
  9 10  1  0
  9 11  1  0
 11 12  1  0
 11 13  2  0
 13 14  1  0
 14 15  1  0
 14 16  1  0
 14 17  1  0
  4 18  2  0
 18 19  1  0
 19 20  1  0
 20 21  2  0
 21 22  1  0
 21 23  1  0
 23 24  2  0
 24 25  1  0
 24 26  1  0
 26 27  1  0
 26 28  2  0
 28 29  1  0
 19 30  2  0
 30  2  1  0
 13  5  1  0
 28 20  1  0
M  END
>  <cnnaffinity>  (1) 
-5.35088

>  <filename>  (1) 
FC(F)(F)c1cccnc1-c1ncnc(-c2cccnc2)n1

$$$$
