
     RDKit          3D

 30 32  0  0  0  0  0  0  0  0999 V2000
    4.9159    1.7765   17.0029 H   0  0  0  0  0  0  0  0  0  0  0  0
    5.4035    1.2903   17.8433 C   0  0  0  0  0  0  0  0  0  0  0  0
    6.5667    0.6779   17.5731 N   0  0  0  0  0  0  0  0  0  0  0  0
    7.1805    0.0641   18.5870 C   0  0  0  0  0  0  0  0  0  0  0  0
    8.1249   -0.4264   18.3679 H   0  0  0  0  0  0  0  0  0  0  0  0
    6.6685    0.0114   19.8893 C   0  0  0  0  0  0  0  0  0  0  0  0
    7.4063   -0.7110   20.9291 C   0  0  0  0  0  0  0  0  0  0  0  0
    8.6037   -1.2165   20.7448 N   0  0  0  0  0  0  0  0  0  0  0  0
    8.9464   -1.8086   21.9441 O   0  0  0  0  0  0  0  0  0  0  0  0
    7.9558   -1.6304   22.8312 C   0  0  0  0  0  0  0  0  0  0  0  0
    8.0906   -2.2080   24.1887 C   0  0  0  0  0  0  0  0  0  0  0  0
    8.4855   -3.5509   24.3108 C   0  0  0  0  0  0  0  0  0  0  0  0
    8.7605   -4.1016   23.4151 H   0  0  0  0  0  0  0  0  0  0  0  0
    8.5082   -4.1740   25.5542 C   0  0  0  0  0  0  0  0  0  0  0  0
    8.8219   -5.2114   25.6328 H   0  0  0  0  0  0  0  0  0  0  0  0
    8.1272   -3.4679   26.6971 C   0  0  0  0  0  0  0  0  0  0  0  0
    8.1379   -3.9522   27.6667 H   0  0  0  0  0  0  0  0  0  0  0  0
    7.7435   -2.1325   26.5988 C   0  0  0  0  0  0  0  0  0  0  0  0
    7.4560   -1.5888   27.4967 H   0  0  0  0  0  0  0  0  0  0  0  0
    7.7500   -1.4813   25.3569 C   0  0  0  0  0  0  0  0  0  0  0  0
    7.3732   -0.0013   25.3177 C   0  0  0  0  0  0  0  0  0  0  0  0
    8.0673    0.6888   24.3933 F   0  0  0  0  0  0  0  0  0  0  0  0
    7.5754    0.6218   26.4910 F   0  0  0  0  0  0  0  0  0  0  0  0
    6.0694    0.1720   25.0147 F   0  0  0  0  0  0  0  0  0  0  0  0
    6.9405   -0.9609   22.2390 C   0  0  0  0  0  0  0  0  0  0  0  0
    6.0192   -0.6760   22.7053 H   0  0  0  0  0  0  0  0  0  0  0  0
    5.4473    0.6495   20.1592 C   0  0  0  0  0  0  0  0  0  0  0  0
    5.0111    0.6340   21.1632 H   0  0  0  0  0  0  0  0  0  0  0  0
    4.8090    1.3069   19.1125 C   0  0  0  0  0  0  0  0  0  0  0  0
    3.8755    1.8413   19.2646 H   0  0  0  0  0  0  0  0  0  0  0  0
  1  2  1  0
  2  3  2  0
  3  4  1  0
  4  5  1  0
  4  6  2  0
  6  7  1  0
  7  8  2  0
  8  9  1  0
  9 10  1  0
 10 11  1  0
 11 12  2  0
 12 13  1  0
 12 14  1  0
 14 15  1  0
 14 16  2  0
 16 17  1  0
 16 18  1  0
 18 19  1  0
 18 20  2  0
 20 21  1  0
 21 22  1  0
 21 23  1  0
 21 24  1  0
 10 25  2  0
 25 26  1  0
  6 27  1  0
 27 28  1  0
 27 29  2  0
 29 30  1  0
 29  2  1  0
 25  7  1  0
 20 11  1  0
M  END
>  <cnnaffinity>  (1) 
-5.24995

>  <filename>  (1) 
FC(F)(F)c1ccccc1-c1cc(-c2cccnc2)no1

$$$$
