
     RDKit          3D

 30 31  0  0  0  0  0  0  0  0999 V2000
    4.8987    1.8387   16.8974 H   0  0  0  0  0  0  0  0  0  0  0  0
    5.3468    1.3065   17.7319 C   0  0  0  0  0  0  0  0  0  0  0  0
    6.4965    0.6682   17.4594 N   0  0  0  0  0  0  0  0  0  0  0  0
    7.1033    0.0347   18.4654 C   0  0  0  0  0  0  0  0  0  0  0  0
    8.0262   -0.4965   18.2296 H   0  0  0  0  0  0  0  0  0  0  0  0
    6.6189    0.0363   19.7854 C   0  0  0  0  0  0  0  0  0  0  0  0
    7.6571   -0.6542   21.0631 S   0  0  0  0  0  0  0  0  0  0  0  0
    8.7375    0.7356   21.4692 C   0  0  0  0  0  0  0  0  0  0  0  0
   10.3120    0.7792   21.1156 S   0  0  0  0  0  0  0  0  0  0  0  0
    8.1011    1.7960   22.3551 C   0  0  0  0  0  0  0  0  0  0  0  0
    8.6752    2.7268   22.2607 H   0  0  0  0  0  0  0  0  0  0  0  0
    7.0684    1.9892   22.0372 H   0  0  0  0  0  0  0  0  0  0  0  0
    8.1448    1.2267   23.7590 C   0  0  0  0  0  0  0  0  0  0  0  0
    7.0839    0.4180   24.1934 C   0  0  0  0  0  0  0  0  0  0  0  0
    6.1819    0.3407   23.5938 H   0  0  0  0  0  0  0  0  0  0  0  0
    7.1820   -0.3273   25.3601 C   0  0  0  0  0  0  0  0  0  0  0  0
    6.3523   -0.9636   25.6713 H   0  0  0  0  0  0  0  0  0  0  0  0
    8.3592   -0.2563   26.1165 C   0  0  0  0  0  0  0  0  0  0  0  0
    8.5450   -1.1310   27.3245 C   0  0  0  0  0  0  0  0  0  0  0  0
    7.3570   -1.5333   27.8052 F   0  0  0  0  0  0  0  0  0  0  0  0
    9.2788   -2.2348   27.0678 F   0  0  0  0  0  0  0  0  0  0  0  0
    9.1791   -0.4776   28.3137 F   0  0  0  0  0  0  0  0  0  0  0  0
    9.3956    0.6087   25.7434 C   0  0  0  0  0  0  0  0  0  0  0  0
   10.2791    0.6893   26.3720 H   0  0  0  0  0  0  0  0  0  0  0  0
    9.2971    1.3307   24.5549 C   0  0  0  0  0  0  0  0  0  0  0  0
   10.1192    1.9592   24.2249 H   0  0  0  0  0  0  0  0  0  0  0  0
    5.3823    0.6386   20.0438 C   0  0  0  0  0  0  0  0  0  0  0  0
    4.9337    0.6023   21.0401 H   0  0  0  0  0  0  0  0  0  0  0  0
    4.7410    1.3020   18.9930 C   0  0  0  0  0  0  0  0  0  0  0  0
    3.8041    1.8276   19.1407 H   0  0  0  0  0  0  0  0  0  0  0  0
  1  2  1  0
  2  3  2  0
  3  4  1  0
  4  5  1  0
  4  6  2  0
  6  7  1  0
  7  8  1  0
  8  9  2  0
  8 10  1  0
 10 11  1  0
 10 12  1  0
 10 13  1  0
 13 14  2  0
 14 15  1  0
 14 16  1  0
 16 17  1  0
 16 18  2  0
 18 19  1  0
 19 20  1  0
 19 21  1  0
 19 22  1  0
 18 23  1  0
 23 24  1  0
 23 25  2  0
 25 26  1  0
  6 27  1  0
 27 28  1  0
 27 29  2  0
 29 30  1  0
 29  2  1  0
 25 13  1  0
M  END
>  <cnnaffinity>  (1) 
-4.74788

>  <filename>  (1) 
FC(F)(F)c1ccc(CC(=S)Sc2cccnc2)cc1

$$$$
