
     RDKit          3D

 29 31  0  0  0  0  0  0  0  0999 V2000
    9.4181   -0.8254   20.2969 H   0  0  0  0  0  0  0  0  0  0  0  0
    8.6954   -1.0261   21.0786 C   0  0  0  0  0  0  0  0  0  0  0  0
    9.1530   -1.5965   22.2302 N   0  0  0  0  0  0  0  0  0  0  0  0
    8.1868   -1.7502   23.1011 C   0  0  0  0  0  0  0  0  0  0  0  0
    8.3028   -2.3626   24.4836 C   0  0  0  0  0  0  0  0  0  0  0  0
    7.2895   -2.0652   25.3177 N   0  0  0  0  0  0  0  0  0  0  0  0
    7.2835   -2.5524   26.5603 C   0  0  0  0  0  0  0  0  0  0  0  0
    6.4344   -2.2793   27.1836 H   0  0  0  0  0  0  0  0  0  0  0  0
    8.2780   -3.4039   27.0515 C   0  0  0  0  0  0  0  0  0  0  0  0
    8.2085   -3.8238   28.0492 H   0  0  0  0  0  0  0  0  0  0  0  0
    9.3118   -3.7666   26.1978 C   0  0  0  0  0  0  0  0  0  0  0  0
   10.0680   -4.4908   26.5076 H   0  0  0  0  0  0  0  0  0  0  0  0
    9.3341   -3.2457   24.8986 C   0  0  0  0  0  0  0  0  0  0  0  0
   10.2382   -3.8725   23.8720 C   0  0  0  0  0  0  0  0  0  0  0  0
    9.4213   -4.4293   22.9477 F   0  0  0  0  0  0  0  0  0  0  0  0
   11.0323   -4.8375   24.3803 F   0  0  0  0  0  0  0  0  0  0  0  0
   11.0695   -3.0283   23.2618 F   0  0  0  0  0  0  0  0  0  0  0  0
    6.6442   -1.2124   22.5195 S   0  0  0  0  0  0  0  0  0  0  0  0
    7.3570   -0.7244   21.0078 C   0  0  0  0  0  0  0  0  0  0  0  0
    6.6332   -0.0220   19.9163 C   0  0  0  0  0  0  0  0  0  0  0  0
    7.1463    0.0337   18.5946 C   0  0  0  0  0  0  0  0  0  0  0  0
    8.0888   -0.4596   18.3551 H   0  0  0  0  0  0  0  0  0  0  0  0
    6.5603    0.6642   17.5698 N   0  0  0  0  0  0  0  0  0  0  0  0
    5.4048    1.3020   17.8168 C   0  0  0  0  0  0  0  0  0  0  0  0
    4.9524    1.8172   16.9732 H   0  0  0  0  0  0  0  0  0  0  0  0
    4.7955    1.3216   19.0745 C   0  0  0  0  0  0  0  0  0  0  0  0
    3.8634    1.8583   19.2118 H   0  0  0  0  0  0  0  0  0  0  0  0
    5.4179    0.6624   20.1358 C   0  0  0  0  0  0  0  0  0  0  0  0
    4.9805    0.6968   21.1332 H   0  0  0  0  0  0  0  0  0  0  0  0
  1  2  1  0
  2  3  1  0
  3  4  2  0
  4  5  1  0
  5  6  2  0
  6  7  1  0
  7  8  1  0
  7  9  2  0
  9 10  1  0
  9 11  1  0
 11 12  1  0
 11 13  2  0
 13 14  1  0
 14 15  1  0
 14 16  1  0
 14 17  1  0
  4 18  1  0
 18 19  1  0
 19 20  1  0
 20 21  2  0
 21 22  1  0
 21 23  1  0
 23 24  2  0
 24 25  1  0
 24 26  1  0
 26 27  1  0
 26 28  2  0
 28 29  1  0
 19  2  2  0
 28 20  1  0
 13  5  1  0
M  END
>  <cnnaffinity>  (1) 
-5.37451

>  <filename>  (1) 
FC(F)(F)c1cccnc1-c1ncc(-c2cccnc2)s1

$$$$
