
     RDKit          3D

 32 34  0  0  0  0  0  0  0  0999 V2000
    9.3818   -0.2879   20.3421 H   0  0  0  0  0  0  0  0  0  0  0  0
    8.7722   -0.7891   21.0878 C   0  0  0  0  0  0  0  0  0  0  0  0
    9.4134   -1.4187   22.0893 N   0  0  0  0  0  0  0  0  0  0  0  0
    8.6160   -2.0000   23.0096 C   0  0  0  0  0  0  0  0  0  0  0  0
    9.0995   -2.5020   23.8404 H   0  0  0  0  0  0  0  0  0  0  0  0
    7.2029   -1.9491   22.9377 C   0  0  0  0  0  0  0  0  0  0  0  0
    6.3553   -2.5810   24.0114 C   0  0  0  0  0  0  0  0  0  0  0  0
    5.5651   -1.7363   24.8072 C   0  0  0  0  0  0  0  0  0  0  0  0
    5.5401   -0.6740   24.5744 H   0  0  0  0  0  0  0  0  0  0  0  0
    4.7630   -2.2400   25.8284 C   0  0  0  0  0  0  0  0  0  0  0  0
    4.1287   -1.5671   26.3998 H   0  0  0  0  0  0  0  0  0  0  0  0
    4.7741   -3.6059   26.1087 C   0  0  0  0  0  0  0  0  0  0  0  0
    4.1689   -4.0021   26.9176 H   0  0  0  0  0  0  0  0  0  0  0  0
    5.5671   -4.4651   25.3481 C   0  0  0  0  0  0  0  0  0  0  0  0
    5.5678   -5.5280   25.5838 H   0  0  0  0  0  0  0  0  0  0  0  0
    6.3403   -3.9717   24.2823 C   0  0  0  0  0  0  0  0  0  0  0  0
    7.1590   -4.9586   23.4568 C   0  0  0  0  0  0  0  0  0  0  0  0
    7.1977   -4.6420   22.1500 F   0  0  0  0  0  0  0  0  0  0  0  0
    6.6814   -6.2126   23.5299 F   0  0  0  0  0  0  0  0  0  0  0  0
    8.4408   -5.0001   23.8828 F   0  0  0  0  0  0  0  0  0  0  0  0
    6.5799   -1.2832   21.9504 N   0  0  0  0  0  0  0  0  0  0  0  0
    7.3569   -0.7224   20.9982 C   0  0  0  0  0  0  0  0  0  0  0  0
    6.6495    0.0006   19.9133 C   0  0  0  0  0  0  0  0  0  0  0  0
    7.1712    0.0567   18.6121 C   0  0  0  0  0  0  0  0  0  0  0  0
    8.1163   -0.4321   18.3726 H   0  0  0  0  0  0  0  0  0  0  0  0
    6.5697    0.6723   17.5908 N   0  0  0  0  0  0  0  0  0  0  0  0
    5.4045    1.2904   17.8439 C   0  0  0  0  0  0  0  0  0  0  0  0
    4.9185    1.7749   17.0004 H   0  0  0  0  0  0  0  0  0  0  0  0
    4.8072    1.3147   19.1080 C   0  0  0  0  0  0  0  0  0  0  0  0
    3.8731    1.8455   19.2600 H   0  0  0  0  0  0  0  0  0  0  0  0
    5.4314    0.6545   20.1593 C   0  0  0  0  0  0  0  0  0  0  0  0
    5.0015    0.6268   21.1634 H   0  0  0  0  0  0  0  0  0  0  0  0
  1  2  1  0
  2  3  2  0
  3  4  1  0
  4  5  1  0
  4  6  2  0
  6  7  1  0
  7  8  2  0
  8  9  1  0
  8 10  1  0
 10 11  1  0
 10 12  2  0
 12 13  1  0
 12 14  1  0
 14 15  1  0
 14 16  2  0
 16 17  1  0
 17 18  1  0
 17 19  1  0
 17 20  1  0
  6 21  1  0
 21 22  2  0
 22 23  1  0
 23 24  2  0
 24 25  1  0
 24 26  1  0
 26 27  2  0
 27 28  1  0
 27 29  1  0
 29 30  1  0
 29 31  2  0
 31 32  1  0
 22  2  1  0
 31 23  1  0
 16  7  1  0
M  END
>  <cnnaffinity>  (1) 
-5.57883

>  <filename>  (1) 
FC(F)(F)c1ccccc1-c1cncc(-c2cccnc2)n1

$$$$
