
     RDKit          3D

 34 36  0  0  0  0  0  0  0  0999 V2000
    5.2713    2.1794   16.4090 H   0  0  0  0  0  0  0  0  0  0  0  0
    5.4099    1.6266   17.3366 C   0  0  0  0  0  0  0  0  0  0  0  0
    6.4875    0.8294   17.3825 N   0  0  0  0  0  0  0  0  0  0  0  0
    6.7139    0.1871   18.5341 C   0  0  0  0  0  0  0  0  0  0  0  0
    7.5995   -0.4455   18.5641 H   0  0  0  0  0  0  0  0  0  0  0  0
    5.9147    0.3022   19.6928 C   0  0  0  0  0  0  0  0  0  0  0  0
    6.3705   -0.3103   20.9576 C   0  0  0  0  0  0  0  0  0  0  0  0
    6.1031    0.0788   22.2991 C   0  0  0  0  0  0  0  0  0  0  0  0
    5.4357    0.8496   22.6654 H   0  0  0  0  0  0  0  0  0  0  0  0
    6.8054   -0.6333   23.1689 N   0  0  0  0  0  0  0  0  0  0  0  0
    7.5089   -1.4979   22.4267 N   0  0  0  0  0  0  0  0  0  0  0  0
    8.5101   -2.3503   23.0476 C   0  0  0  0  0  0  0  0  0  0  0  0
    8.1321   -2.5776   24.0498 H   0  0  0  0  0  0  0  0  0  0  0  0
    8.5651   -3.2834   22.4733 H   0  0  0  0  0  0  0  0  0  0  0  0
    9.8652   -1.6838   23.0814 C   0  0  0  0  0  0  0  0  0  0  0  0
   10.1847   -0.7702   24.0934 C   0  0  0  0  0  0  0  0  0  0  0  0
    9.4515   -0.5425   24.8654 H   0  0  0  0  0  0  0  0  0  0  0  0
   11.4376   -0.1587   24.1143 C   0  0  0  0  0  0  0  0  0  0  0  0
   11.6839    0.5106   24.9371 H   0  0  0  0  0  0  0  0  0  0  0  0
   12.3837   -0.4410   23.1101 C   0  0  0  0  0  0  0  0  0  0  0  0
   13.8099    0.0683   23.2184 C   0  0  0  0  0  0  0  0  0  0  0  0
   14.0343    1.1525   22.4640 F   0  0  0  0  0  0  0  0  0  0  0  0
   14.6948   -0.8655   22.8140 F   0  0  0  0  0  0  0  0  0  0  0  0
   14.1391    0.3949   24.4817 F   0  0  0  0  0  0  0  0  0  0  0  0
   12.0345   -1.3009   22.0533 C   0  0  0  0  0  0  0  0  0  0  0  0
   12.7549   -1.5494   21.2764 H   0  0  0  0  0  0  0  0  0  0  0  0
   10.7755   -1.8980   22.0375 C   0  0  0  0  0  0  0  0  0  0  0  0
   10.4940   -2.5401   21.2097 H   0  0  0  0  0  0  0  0  0  0  0  0
    7.2963   -1.3235   21.1046 C   0  0  0  0  0  0  0  0  0  0  0  0
    7.8158   -1.9371   20.3792 H   0  0  0  0  0  0  0  0  0  0  0  0
    4.7530    1.0843   19.5923 C   0  0  0  0  0  0  0  0  0  0  0  0
    4.0567    1.1771   20.4295 H   0  0  0  0  0  0  0  0  0  0  0  0
    4.5040    1.7618   18.3955 C   0  0  0  0  0  0  0  0  0  0  0  0
    3.6438    2.4085   18.2705 H   0  0  0  0  0  0  0  0  0  0  0  0
  1  2  1  0
  2  3  2  0
  3  4  1  0
  4  5  1  0
  4  6  2  0
  6  7  1  0
  7  8  1  0
  8  9  1  0
  8 10  2  0
 10 11  1  0
 11 12  1  0
 12 13  1  0
 12 14  1  0
 12 15  1  0
 15 16  2  0
 16 17  1  0
 16 18  1  0
 18 19  1  0
 18 20  2  0
 20 21  1  0
 21 22  1  0
 21 23  1  0
 21 24  1  0
 20 25  1  0
 25 26  1  0
 25 27  2  0
 27 28  1  0
 11 29  1  0
 29 30  1  0
  6 31  1  0
 31 32  1  0
 31 33  2  0
 33 34  1  0
 33  2  1  0
 29  7  2  0
 27 15  1  0
M  END
>  <cnnaffinity>  (1) 
-5.37029

>  <filename>  (1) 
FC(F)(F)c1ccc(Cn2cc(-c3cccnc3)cn2)cc1

$$$$
