
     RDKit          3D

 19 20  0  0  0  0  0  0  0  0999 V2000
    4.9039    1.7701   17.0081 H   0  0  0  0  0  0  0  0  0  0  0  0
    5.3965    1.2914   17.8505 C   0  0  0  0  0  0  0  0  0  0  0  0
    6.5697    0.6829   17.5963 N   0  0  0  0  0  0  0  0  0  0  0  0
    7.1870    0.0549   18.5986 C   0  0  0  0  0  0  0  0  0  0  0  0
    8.1356   -0.4425   18.3862 H   0  0  0  0  0  0  0  0  0  0  0  0
    6.6578    0.0113   19.8991 C   0  0  0  0  0  0  0  0  0  0  0  0
    7.3572   -0.6864   20.9273 N   0  0  0  0  0  0  0  0  0  0  0  0
    7.8371   -1.9366   20.7587 N   0  0  0  0  0  0  0  0  0  0  0  0
    8.4056   -2.2685   21.8622 N   0  0  0  0  0  0  0  0  0  0  0  0
    8.3346   -1.2786   22.7656 N   0  0  0  0  0  0  0  0  0  0  0  0
    7.6936   -0.3021   22.1764 C   0  0  0  0  0  0  0  0  0  0  0  0
    7.4144    1.0339   22.7908 C   0  0  0  0  0  0  0  0  0  0  0  0
    7.4932    2.0205   21.8809 F   0  0  0  0  0  0  0  0  0  0  0  0
    6.1723    1.0474   23.3239 F   0  0  0  0  0  0  0  0  0  0  0  0
    8.2953    1.2807   23.7583 F   0  0  0  0  0  0  0  0  0  0  0  0
    5.4440    0.6489   20.1622 C   0  0  0  0  0  0  0  0  0  0  0  0
    5.0098    0.6278   21.1571 H   0  0  0  0  0  0  0  0  0  0  0  0
    4.8052    1.3112   19.1131 C   0  0  0  0  0  0  0  0  0  0  0  0
    3.8748    1.8439   19.2693 H   0  0  0  0  0  0  0  0  0  0  0  0
  1  2  1  0
  2  3  2  0
  3  4  1  0
  4  5  1  0
  4  6  2  0
  6  7  1  0
  7  8  1  0
  8  9  2  0
  9 10  1  0
 10 11  2  0
 11 12  1  0
 12 13  1  0
 12 14  1  0
 12 15  1  0
  6 16  1  0
 16 17  1  0
 16 18  2  0
 18 19  1  0
 18  2  1  0
 11  7  1  0
M  END
>  <cnnaffinity>  (1) 
-4.44173

>  <filename>  (1) 
FC(F)(F)c1nnnn1-c1cccnc1

$$$$
