
     RDKit          3D

 31 34  0  0  0  0  0  0  0  0999 V2000
    4.9388    1.7973   16.9976 H   0  0  0  0  0  0  0  0  0  0  0  0
    5.3992    1.2876   17.8446 C   0  0  0  0  0  0  0  0  0  0  0  0
    6.5553    0.6599   17.5892 N   0  0  0  0  0  0  0  0  0  0  0  0
    7.1638    0.0422   18.6026 C   0  0  0  0  0  0  0  0  0  0  0  0
    8.1068   -0.4453   18.3617 H   0  0  0  0  0  0  0  0  0  0  0  0
    6.6564    0.0132   19.9113 C   0  0  0  0  0  0  0  0  0  0  0  0
    7.4324   -0.6944   20.9338 C   0  0  0  0  0  0  0  0  0  0  0  0
    8.3120   -1.6478   20.7350 N   0  0  0  0  0  0  0  0  0  0  0  0
    8.8333   -2.0424   21.9486 N   0  0  0  0  0  0  0  0  0  0  0  0
    8.2572   -1.2943   22.8491 C   0  0  0  0  0  0  0  0  0  0  0  0
    8.3631   -0.9457   24.5501 S   0  0  0  0  0  0  0  0  0  0  0  0
    7.1606    0.3432   24.2855 C   0  0  0  0  0  0  0  0  0  0  0  0
    6.7796    1.2543   25.4172 C   0  0  0  0  0  0  0  0  0  0  0  0
    7.6571    1.2512   26.4337 N   0  0  0  0  0  0  0  0  0  0  0  0
    7.4781    2.0565   27.4787 C   0  0  0  0  0  0  0  0  0  0  0  0
    8.2594    2.0245   28.2336 H   0  0  0  0  0  0  0  0  0  0  0  0
    6.3667    2.8973   27.6091 C   0  0  0  0  0  0  0  0  0  0  0  0
    6.2635    3.5289   28.4807 H   0  0  0  0  0  0  0  0  0  0  0  0
    5.4105    2.8856   26.6036 C   0  0  0  0  0  0  0  0  0  0  0  0
    4.4947    3.4766   26.6747 H   0  0  0  0  0  0  0  0  0  0  0  0
    5.6225    2.0653   25.4930 C   0  0  0  0  0  0  0  0  0  0  0  0
    4.5499    1.9644   24.4618 C   0  0  0  0  0  0  0  0  0  0  0  0
    3.4092    2.5943   24.8000 F   0  0  0  0  0  0  0  0  0  0  0  0
    4.2258    0.6789   24.3005 F   0  0  0  0  0  0  0  0  0  0  0  0
    4.9220    2.4734   23.2764 F   0  0  0  0  0  0  0  0  0  0  0  0
    6.7141    0.4627   23.0681 N   0  0  0  0  0  0  0  0  0  0  0  0
    7.3574   -0.4399   22.2839 N   0  0  0  0  0  0  0  0  0  0  0  0
    5.4412    0.6618   20.1680 C   0  0  0  0  0  0  0  0  0  0  0  0
    5.0192    0.6651   21.1744 H   0  0  0  0  0  0  0  0  0  0  0  0
    4.7996    1.3082   19.1095 C   0  0  0  0  0  0  0  0  0  0  0  0
    3.8685    1.8464   19.2457 H   0  0  0  0  0  0  0  0  0  0  0  0
  1  2  1  0
  2  3  2  0
  3  4  1  0
  4  5  1  0
  4  6  2  0
  6  7  1  0
  7  8  2  0
  8  9  1  0
  9 10  2  0
 10 11  1  0
 11 12  1  0
 12 13  1  0
 13 14  2  0
 14 15  1  0
 15 16  1  0
 15 17  2  0
 17 18  1  0
 17 19  1  0
 19 20  1  0
 19 21  2  0
 21 22  1  0
 22 23  1  0
 22 24  1  0
 22 25  1  0
 12 26  2  0
 26 27  1  0
  6 28  1  0
 28 29  1  0
 28 30  2  0
 30 31  1  0
 30  2  1  0
 27  7  1  0
 27 10  1  0
 21 13  1  0
M  END
>  <cnnaffinity>  (1) 
-5.69352

>  <filename>  (1) 
FC(F)(F)c1cccnc1-c1nn2c(-c3cccnc3)nnc2s1

$$$$
