
     RDKit          3D

 30 32  0  0  0  0  0  0  0  0999 V2000
    4.9781    1.7998   17.0436 H   0  0  0  0  0  0  0  0  0  0  0  0
    5.4421    1.2741   17.8756 C   0  0  0  0  0  0  0  0  0  0  0  0
    6.5890    0.6260   17.6169 N   0  0  0  0  0  0  0  0  0  0  0  0
    7.1817   -0.0161   18.6252 C   0  0  0  0  0  0  0  0  0  0  0  0
    8.1005   -0.5464   18.3814 H   0  0  0  0  0  0  0  0  0  0  0  0
    6.6756   -0.0480   19.9337 C   0  0  0  0  0  0  0  0  0  0  0  0
    7.3960   -0.7175   20.9546 N   0  0  0  0  0  0  0  0  0  0  0  0
    6.7852   -1.1272   22.0776 N   0  0  0  0  0  0  0  0  0  0  0  0
    7.7376   -1.6968   22.8312 C   0  0  0  0  0  0  0  0  0  0  0  0
    7.4660   -2.3150   24.1818 C   0  0  0  0  0  0  0  0  0  0  0  0
    8.4809   -2.8970   24.8664 N   0  0  0  0  0  0  0  0  0  0  0  0
    8.2042   -3.5064   26.0205 C   0  0  0  0  0  0  0  0  0  0  0  0
    9.0475   -3.9290   26.5592 H   0  0  0  0  0  0  0  0  0  0  0  0
    6.9112   -3.6134   26.5439 C   0  0  0  0  0  0  0  0  0  0  0  0
    6.6114   -4.5701   27.6539 C   0  0  0  0  0  0  0  0  0  0  0  0
    5.6564   -4.0816   28.4699 F   0  0  0  0  0  0  0  0  0  0  0  0
    6.1585   -5.7479   27.1738 F   0  0  0  0  0  0  0  0  0  0  0  0
    7.6877   -4.8528   28.4046 F   0  0  0  0  0  0  0  0  0  0  0  0
    5.8773   -2.9081   25.9185 C   0  0  0  0  0  0  0  0  0  0  0  0
    4.8649   -2.8533   26.3289 H   0  0  0  0  0  0  0  0  0  0  0  0
    6.1759   -2.2598   24.7383 C   0  0  0  0  0  0  0  0  0  0  0  0
    5.4239   -1.6891   24.2443 H   0  0  0  0  0  0  0  0  0  0  0  0
    8.9862   -1.6253   22.1646 C   0  0  0  0  0  0  0  0  0  0  0  0
    9.9304   -2.0054   22.5223 H   0  0  0  0  0  0  0  0  0  0  0  0
    8.7309   -0.9928   20.9823 C   0  0  0  0  0  0  0  0  0  0  0  0
    9.3844   -0.6835   20.1800 H   0  0  0  0  0  0  0  0  0  0  0  0
    5.4653    0.6084   20.1968 C   0  0  0  0  0  0  0  0  0  0  0  0
    5.0450    0.5868   21.2030 H   0  0  0  0  0  0  0  0  0  0  0  0
    4.8462    1.2799   19.1426 C   0  0  0  0  0  0  0  0  0  0  0  0
    3.9160    1.8133   19.2944 H   0  0  0  0  0  0  0  0  0  0  0  0
  1  2  1  0
  2  3  2  0
  3  4  1  0
  4  5  1  0
  4  6  2  0
  6  7  1  0
  7  8  1  0
  8  9  2  0
  9 10  1  0
 10 11  2  0
 11 12  1  0
 12 13  1  0
 12 14  2  0
 14 15  1  0
 15 16  1  0
 15 17  1  0
 15 18  1  0
 14 19  1  0
 19 20  1  0
 19 21  2  0
 21 22  1  0
  9 23  1  0
 23 24  1  0
 23 25  2  0
 25 26  1  0
  6 27  1  0
 27 28  1  0
 27 29  2  0
 29 30  1  0
 29  2  1  0
 25  7  1  0
 21 10  1  0
M  END
>  <cnnaffinity>  (1) 
-5.15676

>  <filename>  (1) 
FC(F)(F)c1ccc(-c2ccn(-c3cccnc3)n2)nc1

$$$$
