
     RDKit          3D

 32 34  0  0  0  0  0  0  0  0999 V2000
    4.9201    1.7840   16.9904 H   0  0  0  0  0  0  0  0  0  0  0  0
    5.4007    1.2942   17.8353 C   0  0  0  0  0  0  0  0  0  0  0  0
    6.5642    0.6735   17.5824 N   0  0  0  0  0  0  0  0  0  0  0  0
    7.1764    0.0623   18.6012 C   0  0  0  0  0  0  0  0  0  0  0  0
    8.1133   -0.4328   18.3643 H   0  0  0  0  0  0  0  0  0  0  0  0
    6.6649    0.0084   19.9102 C   0  0  0  0  0  0  0  0  0  0  0  0
    7.3680   -0.6797   20.9321 N   0  0  0  0  0  0  0  0  0  0  0  0
    8.7460   -0.8024   21.0526 C   0  0  0  0  0  0  0  0  0  0  0  0
    9.3947   -0.3236   20.3317 H   0  0  0  0  0  0  0  0  0  0  0  0
    9.0197   -1.5300   22.1739 C   0  0  0  0  0  0  0  0  0  0  0  0
   10.0057   -1.7695   22.5506 H   0  0  0  0  0  0  0  0  0  0  0  0
    7.7730   -1.8874   22.7909 C   0  0  0  0  0  0  0  0  0  0  0  0
    7.5849   -2.6728   24.0216 C   0  0  0  0  0  0  0  0  0  0  0  0
    8.6191   -3.4777   24.5265 C   0  0  0  0  0  0  0  0  0  0  0  0
    9.5664   -3.5096   23.9968 H   0  0  0  0  0  0  0  0  0  0  0  0
    8.4379   -4.2321   25.6819 C   0  0  0  0  0  0  0  0  0  0  0  0
    9.2452   -4.8516   26.0556 H   0  0  0  0  0  0  0  0  0  0  0  0
    7.2193   -4.1929   26.3635 C   0  0  0  0  0  0  0  0  0  0  0  0
    7.0790   -4.7903   27.2612 H   0  0  0  0  0  0  0  0  0  0  0  0
    6.1812   -3.3797   25.8834 C   0  0  0  0  0  0  0  0  0  0  0  0
    4.8332   -3.3607   26.5828 C   0  0  0  0  0  0  0  0  0  0  0  0
    4.2140   -2.1679   26.4784 F   0  0  0  0  0  0  0  0  0  0  0  0
    4.9360   -3.6382   27.8962 F   0  0  0  0  0  0  0  0  0  0  0  0
    3.9926   -4.2739   26.0555 F   0  0  0  0  0  0  0  0  0  0  0  0
    6.3620   -2.6344   24.7122 C   0  0  0  0  0  0  0  0  0  0  0  0
    5.5560   -2.0095   24.3347 H   0  0  0  0  0  0  0  0  0  0  0  0
    6.7962   -1.3486   21.9902 C   0  0  0  0  0  0  0  0  0  0  0  0
    5.7188   -1.4169   22.0490 H   0  0  0  0  0  0  0  0  0  0  0  0
    5.4387    0.6484   20.1634 C   0  0  0  0  0  0  0  0  0  0  0  0
    5.0082    0.6457   21.1679 H   0  0  0  0  0  0  0  0  0  0  0  0
    4.8098    1.3093   19.1041 C   0  0  0  0  0  0  0  0  0  0  0  0
    3.8772    1.8402   19.2584 H   0  0  0  0  0  0  0  0  0  0  0  0
  1  2  1  0
  2  3  2  0
  3  4  1  0
  4  5  1  0
  4  6  2  0
  6  7  1  0
  7  8  1  0
  8  9  1  0
  8 10  2  0
 10 11  1  0
 10 12  1  0
 12 13  1  0
 13 14  2  0
 14 15  1  0
 14 16  1  0
 16 17  1  0
 16 18  2  0
 18 19  1  0
 18 20  1  0
 20 21  1  0
 21 22  1  0
 21 23  1  0
 21 24  1  0
 20 25  2  0
 25 26  1  0
 12 27  2  0
 27 28  1  0
  6 29  1  0
 29 30  1  0
 29 31  2  0
 31 32  1  0
 31  2  1  0
 27  7  1  0
 25 13  1  0
M  END
>  <cnnaffinity>  (1) 
-4.96426

>  <filename>  (1) 
FC(F)(F)c1cccc(-c2ccn(-c3cccnc3)c2)c1

$$$$
