
     RDKit          3D

 35 38  0  0  0  0  0  0  0  0999 V2000
    4.9155    1.7751   17.0025 H   0  0  0  0  0  0  0  0  0  0  0  0
    5.4045    1.2899   17.8431 C   0  0  0  0  0  0  0  0  0  0  0  0
    6.5703    0.6783   17.5779 N   0  0  0  0  0  0  0  0  0  0  0  0
    7.1758    0.0572   18.5912 C   0  0  0  0  0  0  0  0  0  0  0  0
    8.1253   -0.4351   18.3743 H   0  0  0  0  0  0  0  0  0  0  0  0
    6.6495    0.0124   19.8919 C   0  0  0  0  0  0  0  0  0  0  0  0
    7.4023   -0.7046   20.9166 C   0  0  0  0  0  0  0  0  0  0  0  0
    8.3202   -1.6134   20.6950 N   0  0  0  0  0  0  0  0  0  0  0  0
    8.8087   -2.0637   21.9011 N   0  0  0  0  0  0  0  0  0  0  0  0
    8.1716   -1.3860   22.8148 C   0  0  0  0  0  0  0  0  0  0  0  0
    8.1967   -1.1875   24.5407 S   0  0  0  0  0  0  0  0  0  0  0  0
    6.9845    0.0850   24.3307 C   0  0  0  0  0  0  0  0  0  0  0  0
    6.3936    0.7813   25.5162 C   0  0  0  0  0  0  0  0  0  0  0  0
    7.1239    0.7905   26.3306 H   0  0  0  0  0  0  0  0  0  0  0  0
    6.1977    1.8214   25.2377 H   0  0  0  0  0  0  0  0  0  0  0  0
    5.1207    0.0950   25.9558 C   0  0  0  0  0  0  0  0  0  0  0  0
    3.9012    0.4401   25.3633 C   0  0  0  0  0  0  0  0  0  0  0  0
    3.8731    1.2274   24.6180 H   0  0  0  0  0  0  0  0  0  0  0  0
    2.7276   -0.2237   25.7132 C   0  0  0  0  0  0  0  0  0  0  0  0
    1.7864    0.0718   25.2566 H   0  0  0  0  0  0  0  0  0  0  0  0
    2.7745   -1.2624   26.6555 C   0  0  0  0  0  0  0  0  0  0  0  0
    1.5000   -1.9505   27.0817 C   0  0  0  0  0  0  0  0  0  0  0  0
    1.7027   -3.2227   27.4713 F   0  0  0  0  0  0  0  0  0  0  0  0
    0.5797   -1.9873   26.0993 F   0  0  0  0  0  0  0  0  0  0  0  0
    0.9248   -1.3168   28.1220 F   0  0  0  0  0  0  0  0  0  0  0  0
    3.9939   -1.6144   27.2565 C   0  0  0  0  0  0  0  0  0  0  0  0
    4.0399   -2.4026   28.0045 H   0  0  0  0  0  0  0  0  0  0  0  0
    5.1588   -0.9418   26.8951 C   0  0  0  0  0  0  0  0  0  0  0  0
    6.1021   -1.2299   27.3491 H   0  0  0  0  0  0  0  0  0  0  0  0
    6.5982    0.3197   23.1223 N   0  0  0  0  0  0  0  0  0  0  0  0
    7.2666   -0.5285   22.2769 N   0  0  0  0  0  0  0  0  0  0  0  0
    5.4339    0.6525   20.1610 C   0  0  0  0  0  0  0  0  0  0  0  0
    5.0077    0.6345   21.1666 H   0  0  0  0  0  0  0  0  0  0  0  0
    4.8048    1.3089   19.1088 C   0  0  0  0  0  0  0  0  0  0  0  0
    3.8741    1.8434   19.2623 H   0  0  0  0  0  0  0  0  0  0  0  0
  1  2  1  0
  2  3  2  0
  3  4  1  0
  4  5  1  0
  4  6  2  0
  6  7  1  0
  7  8  2  0
  8  9  1  0
  9 10  2  0
 10 11  1  0
 11 12  1  0
 12 13  1  0
 13 14  1  0
 13 15  1  0
 13 16  1  0
 16 17  2  0
 17 18  1  0
 17 19  1  0
 19 20  1  0
 19 21  2  0
 21 22  1  0
 22 23  1  0
 22 24  1  0
 22 25  1  0
 21 26  1  0
 26 27  1  0
 26 28  2  0
 28 29  1  0
 12 30  2  0
 30 31  1  0
  6 32  1  0
 32 33  1  0
 32 34  2  0
 34 35  1  0
 34  2  1  0
 31  7  1  0
 31 10  1  0
 28 16  1  0
M  END
>  <cnnaffinity>  (1) 
-5.35689

>  <filename>  (1) 
FC(F)(F)c1ccc(Cc2nn3c(-c4cccnc4)nnc3s2)cc1

$$$$
