
     RDKit          3D

 30 32  0  0  0  0  0  0  0  0999 V2000
    4.9650    1.7889   16.9942 H   0  0  0  0  0  0  0  0  0  0  0  0
    5.4089    1.2831   17.8454 C   0  0  0  0  0  0  0  0  0  0  0  0
    6.5697    0.6605   17.5912 N   0  0  0  0  0  0  0  0  0  0  0  0
    7.1735    0.0477   18.6093 C   0  0  0  0  0  0  0  0  0  0  0  0
    8.1265   -0.4329   18.3786 H   0  0  0  0  0  0  0  0  0  0  0  0
    6.6511    0.0068   19.9079 C   0  0  0  0  0  0  0  0  0  0  0  0
    7.3624   -0.7125   20.9677 C   0  0  0  0  0  0  0  0  0  0  0  0
    6.8950   -0.8001   22.1748 N   0  0  0  0  0  0  0  0  0  0  0  0
    7.7397   -1.4926   23.0042 C   0  0  0  0  0  0  0  0  0  0  0  0
    7.3781   -1.6941   24.4399 C   0  0  0  0  0  0  0  0  0  0  0  0
    6.1397   -2.3020   24.7125 C   0  0  0  0  0  0  0  0  0  0  0  0
    5.4782   -2.5242   23.8783 H   0  0  0  0  0  0  0  0  0  0  0  0
    5.7542   -2.6074   26.0148 C   0  0  0  0  0  0  0  0  0  0  0  0
    4.7964   -3.0826   26.2157 H   0  0  0  0  0  0  0  0  0  0  0  0
    6.5919   -2.2901   27.0820 C   0  0  0  0  0  0  0  0  0  0  0  0
    6.2159   -2.4928   28.0801 H   0  0  0  0  0  0  0  0  0  0  0  0
    7.8242   -1.6732   26.8386 C   0  0  0  0  0  0  0  0  0  0  0  0
    8.4856   -1.4481   27.6713 H   0  0  0  0  0  0  0  0  0  0  0  0
    8.2157   -1.3334   25.5297 C   0  0  0  0  0  0  0  0  0  0  0  0
    9.5382   -0.5948   25.3102 C   0  0  0  0  0  0  0  0  0  0  0  0
   10.4700   -1.4331   24.8010 F   0  0  0  0  0  0  0  0  0  0  0  0
    9.4226    0.4316   24.4474 F   0  0  0  0  0  0  0  0  0  0  0  0
   10.0638   -0.0912   26.4367 F   0  0  0  0  0  0  0  0  0  0  0  0
    8.8463   -2.0092   22.3998 C   0  0  0  0  0  0  0  0  0  0  0  0
    9.6172   -2.6000   22.8757 H   0  0  0  0  0  0  0  0  0  0  0  0
    8.8808   -1.5599   20.7400 S   0  0  0  0  0  0  0  0  0  0  0  0
    5.4294    0.6594   20.1631 C   0  0  0  0  0  0  0  0  0  0  0  0
    4.9927    0.6552   21.1658 H   0  0  0  0  0  0  0  0  0  0  0  0
    4.8018    1.3075   19.1053 C   0  0  0  0  0  0  0  0  0  0  0  0
    3.8669    1.8433   19.2330 H   0  0  0  0  0  0  0  0  0  0  0  0
  1  2  1  0
  2  3  2  0
  3  4  1  0
  4  5  1  0
  4  6  2  0
  6  7  1  0
  7  8  2  0
  8  9  1  0
  9 10  1  0
 10 11  2  0
 11 12  1  0
 11 13  1  0
 13 14  1  0
 13 15  2  0
 15 16  1  0
 15 17  1  0
 17 18  1  0
 17 19  2  0
 19 20  1  0
 20 21  1  0
 20 22  1  0
 20 23  1  0
  9 24  2  0
 24 25  1  0
 24 26  1  0
  6 27  1  0
 27 28  1  0
 27 29  2  0
 29 30  1  0
 29  2  1  0
 26  7  1  0
 19 10  1  0
M  END
>  <cnnaffinity>  (1) 
-5.43574

>  <filename>  (1) 
FC(F)(F)c1ccccc1-c1csc(-c2cccnc2)n1

$$$$
