
     RDKit          3D

 26 27  0  0  0  0  0  0  0  0999 V2000
    4.9639    1.9072   17.0031 H   0  0  0  0  0  0  0  0  0  0  0  0
    5.4125    1.3415   17.8191 C   0  0  0  0  0  0  0  0  0  0  0  0
    6.5747    0.7196   17.5575 N   0  0  0  0  0  0  0  0  0  0  0  0
    7.1633    0.0481   18.5564 C   0  0  0  0  0  0  0  0  0  0  0  0
    8.1069   -0.4409   18.3255 H   0  0  0  0  0  0  0  0  0  0  0  0
    6.6269   -0.0653   19.8667 C   0  0  0  0  0  0  0  0  0  0  0  0
    7.2310   -0.7819   20.9159 N   0  0  0  0  0  0  0  0  0  0  0  0
    6.7056   -0.8232   21.7849 H   0  0  0  0  0  0  0  0  0  0  0  0
    8.8893   -1.1882   20.9879 S   0  0  0  0  0  0  0  0  0  0  0  0
    9.7749    0.2911   21.6278 C   0  0  0  0  0  0  0  0  0  0  0  0
   10.1204    1.1964   20.7224 N   0  0  0  0  0  0  0  0  0  0  0  0
   10.8378    2.2705   21.0718 C   0  0  0  0  0  0  0  0  0  0  0  0
   11.1296    2.9434   20.2672 H   0  0  0  0  0  0  0  0  0  0  0  0
   11.2304    2.5086   22.3852 C   0  0  0  0  0  0  0  0  0  0  0  0
   11.7952    3.3996   22.6299 H   0  0  0  0  0  0  0  0  0  0  0  0
   10.9089    1.5715   23.3599 C   0  0  0  0  0  0  0  0  0  0  0  0
   11.2158    1.7479   24.3957 H   0  0  0  0  0  0  0  0  0  0  0  0
   10.1761    0.4327   22.9783 C   0  0  0  0  0  0  0  0  0  0  0  0
    9.9030   -0.6948   23.9237 C   0  0  0  0  0  0  0  0  0  0  0  0
   10.3875   -0.4496   25.1505 F   0  0  0  0  0  0  0  0  0  0  0  0
   10.4754   -1.8325   23.4862 F   0  0  0  0  0  0  0  0  0  0  0  0
    8.5876   -0.9465   24.0659 F   0  0  0  0  0  0  0  0  0  0  0  0
    5.4043    0.5749   20.1098 C   0  0  0  0  0  0  0  0  0  0  0  0
    4.9644    0.5127   21.1061 H   0  0  0  0  0  0  0  0  0  0  0  0
    4.7990    1.2955   19.0773 C   0  0  0  0  0  0  0  0  0  0  0  0
    3.8826    1.8485   19.2475 H   0  0  0  0  0  0  0  0  0  0  0  0
  1  2  1  0
  2  3  2  0
  3  4  1  0
  4  5  1  0
  4  6  2  0
  6  7  1  0
  7  8  1  0
  7  9  1  0
  9 10  1  0
 10 11  2  0
 11 12  1  0
 12 13  1  0
 12 14  2  0
 14 15  1  0
 14 16  1  0
 16 17  1  0
 16 18  2  0
 18 19  1  0
 19 20  1  0
 19 21  1  0
 19 22  1  0
  6 23  1  0
 23 24  1  0
 23 25  2  0
 25 26  1  0
 25  2  1  0
 18 10  1  0
M  END
>  <cnnaffinity>  (1) 
-5.40375

>  <filename>  (1) 
FC(F)(F)c1cccnc1SNc1cccnc1

$$$$
