
     RDKit          3D

 34 36  0  0  0  0  0  0  0  0999 V2000
    5.6489   -1.6828   21.6878 H   0  0  0  0  0  0  0  0  0  0  0  0
    6.7171   -1.5461   21.7915 C   0  0  0  0  0  0  0  0  0  0  0  0
    7.3831   -0.7239   20.9521 C   0  0  0  0  0  0  0  0  0  0  0  0
    6.7054    0.0430   19.9056 C   0  0  0  0  0  0  0  0  0  0  0  0
    7.2052    0.0838   18.5935 C   0  0  0  0  0  0  0  0  0  0  0  0
    8.1351   -0.4232   18.3382 H   0  0  0  0  0  0  0  0  0  0  0  0
    6.5752    0.6768   17.5745 N   0  0  0  0  0  0  0  0  0  0  0  0
    5.4108    1.2903   17.8388 C   0  0  0  0  0  0  0  0  0  0  0  0
    4.9295    1.7823   16.9972 H   0  0  0  0  0  0  0  0  0  0  0  0
    4.8221    1.3143   19.1084 C   0  0  0  0  0  0  0  0  0  0  0  0
    3.8812    1.8308   19.2545 H   0  0  0  0  0  0  0  0  0  0  0  0
    5.4678    0.6654   20.1590 C   0  0  0  0  0  0  0  0  0  0  0  0
    5.0322    0.6321   21.1604 H   0  0  0  0  0  0  0  0  0  0  0  0
    8.7686   -0.6114   21.0724 N   0  0  0  0  0  0  0  0  0  0  0  0
    9.3271    0.0511   20.5674 H   0  0  0  0  0  0  0  0  0  0  0  0
    9.5154   -1.3364   21.9373 C   0  0  0  0  0  0  0  0  0  0  0  0
   11.1621   -1.1618   22.0256 S   0  0  0  0  0  0  0  0  0  0  0  0
    8.8519   -2.2049   22.7235 N   0  0  0  0  0  0  0  0  0  0  0  0
    9.4889   -2.6584   23.3624 H   0  0  0  0  0  0  0  0  0  0  0  0
    7.3874   -2.1738   22.9719 C   0  0  1  0  0  0  0  0  0  0  0  0
    7.0556   -3.2150   23.0939 H   0  0  0  0  0  0  0  0  0  0  0  0
    6.9829   -1.4885   24.3101 C   0  0  0  0  0  0  0  0  0  0  0  0
    6.2422   -2.2177   25.1505 N   0  0  0  0  0  0  0  0  0  0  0  0
    5.8487   -1.6584   26.3056 C   0  0  0  0  0  0  0  0  0  0  0  0
    4.9711   -2.4876   27.2672 C   0  0  0  0  0  0  0  0  0  0  0  0
    4.7147   -3.7307   26.8547 F   0  0  0  0  0  0  0  0  0  0  0  0
    5.5464   -2.5827   28.4803 F   0  0  0  0  0  0  0  0  0  0  0  0
    3.7832   -1.8786   27.4741 F   0  0  0  0  0  0  0  0  0  0  0  0
    6.1978   -0.3435   26.6602 C   0  0  0  0  0  0  0  0  0  0  0  0
    5.8671    0.0685   27.6052 H   0  0  0  0  0  0  0  0  0  0  0  0
    6.9706    0.4144   25.7766 C   0  0  0  0  0  0  0  0  0  0  0  0
    7.2599    1.4382   26.0110 H   0  0  0  0  0  0  0  0  0  0  0  0
    7.3672   -0.1672   24.5747 C   0  0  0  0  0  0  0  0  0  0  0  0
    7.9664    0.3599   23.8372 H   0  0  0  0  0  0  0  0  0  0  0  0
  1  2  1  0
  2  3  2  0
  3  4  1  0
  4  5  2  0
  5  6  1  0
  5  7  1  0
  7  8  2  0
  8  9  1  0
  8 10  1  0
 10 11  1  0
 10 12  2  0
 12 13  1  0
  3 14  1  0
 14 15  1  0
 14 16  1  0
 16 17  2  0
 16 18  1  0
 18 19  1  0
 18 20  1  0
 20 21  1  1
 20 22  1  0
 22 23  2  0
 23 24  1  0
 24 25  1  0
 25 26  1  0
 25 27  1  0
 25 28  1  0
 24 29  2  0
 29 30  1  0
 29 31  1  0
 31 32  1  0
 31 33  2  0
 33 34  1  0
 20  2  1  0
 33 22  1  0
 12  4  1  0
M  END
>  <cnnaffinity>  (1) 
-5.41342

>  <filename>  (1) 
FC(F)(F)c1cccc([C@H]2C=C(c3cccnc3)NC(=S)N2)n1

$$$$
