
     RDKit          3D

 29 30  0  0  0  0  0  0  0  0999 V2000
    4.9300    1.8201   16.9692 H   0  0  0  0  0  0  0  0  0  0  0  0
    5.3927    1.3043   17.8111 C   0  0  0  0  0  0  0  0  0  0  0  0
    6.5523    0.6773   17.5553 N   0  0  0  0  0  0  0  0  0  0  0  0
    7.1548    0.0522   18.5790 C   0  0  0  0  0  0  0  0  0  0  0  0
    8.1181   -0.4038   18.3384 H   0  0  0  0  0  0  0  0  0  0  0  0
    6.6400   -0.0193   19.8911 C   0  0  0  0  0  0  0  0  0  0  0  0
    7.3719   -0.7260   21.0116 C   0  0  0  0  0  0  0  0  0  0  0  0
    6.6629   -1.2123   21.6969 H   0  0  0  0  0  0  0  0  0  0  0  0
    7.9986   -1.5256   20.6008 H   0  0  0  0  0  0  0  0  0  0  0  0
    8.2829    0.1778   21.8766 C   0  0  1  0  0  0  0  0  0  0  0  0
    9.3025    0.8323   20.9583 C   0  0  0  0  0  0  0  0  0  0  0  0
    8.8419    1.5107   20.2352 H   0  0  0  0  0  0  0  0  0  0  0  0
    9.9552   -0.1576   20.2694 F   0  0  0  0  0  0  0  0  0  0  0  0
   10.2524    1.5354   21.6424 F   0  0  0  0  0  0  0  0  0  0  0  0
    7.5225    1.2558   22.6831 C   0  0  0  0  0  0  0  0  0  0  0  0
    7.3184    2.1647   22.0993 H   0  0  0  0  0  0  0  0  0  0  0  0
    6.5288    0.8808   22.9911 H   0  0  0  0  0  0  0  0  0  0  0  0
    8.3444    1.5441   23.8582 N   0  0  0  0  0  0  0  0  0  0  0  0
    8.9549    2.3263   23.6536 H   0  0  0  0  0  0  0  0  0  0  0  0
    9.1833    0.3702   24.1628 C   0  0  0  0  0  0  0  0  0  0  0  0
    8.8796   -0.0960   25.1086 H   0  0  0  0  0  0  0  0  0  0  0  0
   10.2287    0.6756   24.2949 H   0  0  0  0  0  0  0  0  0  0  0  0
    9.0079   -0.6236   22.9839 C   0  0  0  0  0  0  0  0  0  0  0  0
    8.3965   -1.4868   23.2814 H   0  0  0  0  0  0  0  0  0  0  0  0
    9.9563   -1.0324   22.6190 H   0  0  0  0  0  0  0  0  0  0  0  0
    5.4322    0.6498   20.1249 C   0  0  0  0  0  0  0  0  0  0  0  0
    5.0002    0.6473   21.1300 H   0  0  0  0  0  0  0  0  0  0  0  0
    4.7954    1.3190   19.0750 C   0  0  0  0  0  0  0  0  0  0  0  0
    3.8645    1.8529   19.2209 H   0  0  0  0  0  0  0  0  0  0  0  0
  1  2  1  0
  2  3  2  0
  3  4  1  0
  4  5  1  0
  4  6  2  0
  6  7  1  0
  7  8  1  0
  7  9  1  0
 10  7  1  6
 10 11  1  0
 11 12  1  0
 11 13  1  0
 11 14  1  0
 10 15  1  0
 15 16  1  0
 15 17  1  0
 15 18  1  0
 18 19  1  0
 18 20  1  0
 20 21  1  0
 20 22  1  0
 20 23  1  0
 23 24  1  0
 23 25  1  0
  6 26  1  0
 26 27  1  0
 26 28  2  0
 28 29  1  0
 28  2  1  0
 23 10  1  0
M  END
>  <cnnaffinity>  (1) 
-4.49989

>  <filename>  (1) 
FC(F)[C@@]1(Cc2cccnc2)CCNC1

$$$$
