
     RDKit          3D

 33 35  0  0  0  0  0  0  0  0999 V2000
    4.9282    1.7885   16.9864 H   0  0  0  0  0  0  0  0  0  0  0  0
    5.4008    1.2990   17.8332 C   0  0  0  0  0  0  0  0  0  0  0  0
    6.5659    0.6832   17.5731 N   0  0  0  0  0  0  0  0  0  0  0  0
    7.1615    0.0601   18.5950 C   0  0  0  0  0  0  0  0  0  0  0  0
    8.1034   -0.4369   18.3715 H   0  0  0  0  0  0  0  0  0  0  0  0
    6.6439    0.0241   19.8969 C   0  0  0  0  0  0  0  0  0  0  0  0
    7.3734   -0.7393   20.9136 C   0  0  0  0  0  0  0  0  0  0  0  0
    7.8020   -1.9668   20.7889 N   0  0  0  0  0  0  0  0  0  0  0  0
    8.4061   -2.3265   21.9693 N   0  0  0  0  0  0  0  0  0  0  0  0
    8.3410   -1.2937   22.7622 C   0  0  0  0  0  0  0  0  0  0  0  0
    8.7616   -1.2134   23.7542 H   0  0  0  0  0  0  0  0  0  0  0  0
    7.6775   -0.2527   22.1622 N   0  0  0  0  0  0  0  0  0  0  0  0
    7.6105    1.1176   22.6834 C   0  0  0  0  0  0  0  0  0  0  0  0
    7.1771    1.0953   23.6837 H   0  0  0  0  0  0  0  0  0  0  0  0
    6.9245    1.6848   22.0515 H   0  0  0  0  0  0  0  0  0  0  0  0
    8.9633    1.8262   22.6482 C   0  0  0  0  0  0  0  0  0  0  0  0
    9.5460    2.0295   21.3931 C   0  0  0  0  0  0  0  0  0  0  0  0
    8.9567    1.7173   20.5330 H   0  0  0  0  0  0  0  0  0  0  0  0
   10.8167    2.5981   21.2646 C   0  0  0  0  0  0  0  0  0  0  0  0
   11.2407    2.7811   20.2811 H   0  0  0  0  0  0  0  0  0  0  0  0
   11.5084    3.0135   22.4048 C   0  0  0  0  0  0  0  0  0  0  0  0
   12.4801    3.4946   22.3121 H   0  0  0  0  0  0  0  0  0  0  0  0
   10.9405    2.8276   23.6675 C   0  0  0  0  0  0  0  0  0  0  0  0
   11.4809    3.1384   24.5603 H   0  0  0  0  0  0  0  0  0  0  0  0
    9.6688    2.2330   23.7951 C   0  0  0  0  0  0  0  0  0  0  0  0
    9.0428    2.0212   25.1676 C   0  0  0  0  0  0  0  0  0  0  0  0
    7.8784    2.6959   25.3006 F   0  0  0  0  0  0  0  0  0  0  0  0
    8.7541    0.7164   25.4068 F   0  0  0  0  0  0  0  0  0  0  0  0
    9.8265    2.4149   26.1656 F   0  0  0  0  0  0  0  0  0  0  0  0
    5.4253    0.6662   20.1576 C   0  0  0  0  0  0  0  0  0  0  0  0
    4.9909    0.6340   21.1637 H   0  0  0  0  0  0  0  0  0  0  0  0
    4.7932    1.3158   19.0953 C   0  0  0  0  0  0  0  0  0  0  0  0
    3.8639    1.8488   19.2459 H   0  0  0  0  0  0  0  0  0  0  0  0
  1  2  1  0
  2  3  2  0
  3  4  1  0
  4  5  1  0
  4  6  2  0
  6  7  1  0
  7  8  2  0
  8  9  1  0
  9 10  2  0
 10 11  1  0
 10 12  1  0
 12 13  1  0
 13 14  1  0
 13 15  1  0
 13 16  1  0
 16 17  2  0
 17 18  1  0
 17 19  1  0
 19 20  1  0
 19 21  2  0
 21 22  1  0
 21 23  1  0
 23 24  1  0
 23 25  2  0
 25 26  1  0
 26 27  1  0
 26 28  1  0
 26 29  1  0
  6 30  1  0
 30 31  1  0
 30 32  2  0
 32 33  1  0
 32  2  1  0
 12  7  1  0
 25 16  1  0
M  END
>  <cnnaffinity>  (1) 
-5.62532

>  <filename>  (1) 
FC(F)(F)c1ccccc1Cn1cnnc1-c1cccnc1

$$$$
