
     RDKit          3D

 34 36  0  0  0  0  0  0  0  0999 V2000
    4.9356    1.7800   16.9942 H   0  0  0  0  0  0  0  0  0  0  0  0
    5.4063    1.2864   17.8434 C   0  0  0  0  0  0  0  0  0  0  0  0
    6.5691    0.6651   17.5996 N   0  0  0  0  0  0  0  0  0  0  0  0
    7.1745    0.0550   18.6220 C   0  0  0  0  0  0  0  0  0  0  0  0
    8.1227   -0.4074   18.3689 H   0  0  0  0  0  0  0  0  0  0  0  0
    6.6605    0.0088   19.9309 C   0  0  0  0  0  0  0  0  0  0  0  0
    7.3659   -0.6749   20.9577 N   0  0  0  0  0  0  0  0  0  0  0  0
    7.1364   -0.4119   22.2605 N   0  0  0  0  0  0  0  0  0  0  0  0
    7.9166   -1.2398   22.9345 C   0  0  0  0  0  0  0  0  0  0  0  0
    7.8872   -1.3195   24.4290 C   0  0  0  0  0  0  0  0  0  0  0  0
    8.8789   -1.6311   24.7641 H   0  0  0  0  0  0  0  0  0  0  0  0
    7.7089   -0.3214   24.8424 H   0  0  0  0  0  0  0  0  0  0  0  0
    6.8507   -2.3149   24.9052 C   0  0  0  0  0  0  0  0  0  0  0  0
    7.1579   -3.6752   25.0427 C   0  0  0  0  0  0  0  0  0  0  0  0
    8.1713   -4.0267   24.8675 H   0  0  0  0  0  0  0  0  0  0  0  0
    6.1746   -4.5962   25.4003 C   0  0  0  0  0  0  0  0  0  0  0  0
    6.4335   -5.6477   25.5240 H   0  0  0  0  0  0  0  0  0  0  0  0
    4.8561   -4.1547   25.6097 C   0  0  0  0  0  0  0  0  0  0  0  0
    3.7923   -5.1354   26.0653 C   0  0  0  0  0  0  0  0  0  0  0  0
    2.5574   -4.7773   25.6603 F   0  0  0  0  0  0  0  0  0  0  0  0
    3.7417   -5.2276   27.4089 F   0  0  0  0  0  0  0  0  0  0  0  0
    4.0121   -6.3823   25.6031 F   0  0  0  0  0  0  0  0  0  0  0  0
    4.5389   -2.7933   25.4671 C   0  0  0  0  0  0  0  0  0  0  0  0
    3.5246   -2.4356   25.6338 H   0  0  0  0  0  0  0  0  0  0  0  0
    5.5376   -1.8891   25.1120 C   0  0  0  0  0  0  0  0  0  0  0  0
    5.2955   -0.8401   24.9637 H   0  0  0  0  0  0  0  0  0  0  0  0
    8.6630   -2.0669   22.0642 C   0  0  0  0  0  0  0  0  0  0  0  0
    9.3731   -2.8368   22.3393 H   0  0  0  0  0  0  0  0  0  0  0  0
    8.2859   -1.6653   20.8128 C   0  0  0  0  0  0  0  0  0  0  0  0
    8.6230   -1.9269   19.8276 H   0  0  0  0  0  0  0  0  0  0  0  0
    5.4359    0.6482   20.1799 C   0  0  0  0  0  0  0  0  0  0  0  0
    5.0123    0.6331   21.1867 H   0  0  0  0  0  0  0  0  0  0  0  0
    4.8123    1.2992   19.1118 C   0  0  0  0  0  0  0  0  0  0  0  0
    3.8833    1.8340   19.2572 H   0  0  0  0  0  0  0  0  0  0  0  0
  1  2  1  0
  2  3  2  0
  3  4  1  0
  4  5  1  0
  4  6  2  0
  6  7  1  0
  7  8  1  0
  8  9  2  0
  9 10  1  0
 10 11  1  0
 10 12  1  0
 10 13  1  0
 13 14  2  0
 14 15  1  0
 14 16  1  0
 16 17  1  0
 16 18  2  0
 18 19  1  0
 19 20  1  0
 19 21  1  0
 19 22  1  0
 18 23  1  0
 23 24  1  0
 23 25  2  0
 25 26  1  0
  9 27  1  0
 27 28  1  0
 27 29  2  0
 29 30  1  0
  6 31  1  0
 31 32  1  0
 31 33  2  0
 33 34  1  0
 33  2  1  0
 29  7  1  0
 25 13  1  0
M  END
>  <cnnaffinity>  (1) 
-5.17843

>  <filename>  (1) 
FC(F)(F)c1ccc(Cc2ccn(-c3cccnc3)n2)cc1

$$$$
