
     RDKit          3D

 29 30  0  0  0  0  0  0  0  0999 V2000
    4.9103    1.7814   16.9968 H   0  0  0  0  0  0  0  0  0  0  0  0
    5.3997    1.2938   17.8381 C   0  0  0  0  0  0  0  0  0  0  0  0
    6.5638    0.6805   17.5749 N   0  0  0  0  0  0  0  0  0  0  0  0
    7.1782    0.0636   18.5934 C   0  0  0  0  0  0  0  0  0  0  0  0
    8.1233   -0.4254   18.3618 H   0  0  0  0  0  0  0  0  0  0  0  0
    6.6769   -0.0067   19.9262 C   0  0  0  0  0  0  0  0  0  0  0  0
    7.3096   -0.6813   20.9505 N   0  0  0  0  0  0  0  0  0  0  0  0
    6.8626   -0.6581   21.8602 H   0  0  0  0  0  0  0  0  0  0  0  0
    8.6171   -1.2902   20.8353 C   0  0  0  0  0  0  0  0  0  0  0  0
    9.3663   -0.5873   20.4460 H   0  0  0  0  0  0  0  0  0  0  0  0
    8.5545   -2.0810   20.0946 H   0  0  0  0  0  0  0  0  0  0  0  0
    9.0618   -1.9044   22.1467 C   0  0  0  0  0  0  0  0  0  0  0  0
    8.6977   -3.2300   22.4310 C   0  0  0  0  0  0  0  0  0  0  0  0
    8.1164   -3.7895   21.7031 H   0  0  0  0  0  0  0  0  0  0  0  0
    9.0566   -3.8367   23.6372 C   0  0  0  0  0  0  0  0  0  0  0  0
    8.7596   -4.8610   23.8434 H   0  0  0  0  0  0  0  0  0  0  0  0
    9.7960   -3.1193   24.5775 C   0  0  0  0  0  0  0  0  0  0  0  0
   10.0866   -3.5801   25.5154 H   0  0  0  0  0  0  0  0  0  0  0  0
   10.1639   -1.7993   24.3160 C   0  0  0  0  0  0  0  0  0  0  0  0
   10.7358   -1.2354   25.0478 H   0  0  0  0  0  0  0  0  0  0  0  0
    9.7949   -1.1799   23.1117 C   0  0  0  0  0  0  0  0  0  0  0  0
   10.2161    0.2602   22.8566 C   0  0  0  0  0  0  0  0  0  0  0  0
    9.1971    1.0425   22.4463 F   0  0  0  0  0  0  0  0  0  0  0  0
   11.1568    0.3358   21.8870 F   0  0  0  0  0  0  0  0  0  0  0  0
   10.7371    0.8580   23.9420 F   0  0  0  0  0  0  0  0  0  0  0  0
    5.4479    0.6450   20.1699 C   0  0  0  0  0  0  0  0  0  0  0  0
    5.0129    0.6261   21.1721 H   0  0  0  0  0  0  0  0  0  0  0  0
    4.8162    1.3032   19.1137 C   0  0  0  0  0  0  0  0  0  0  0  0
    3.8826    1.8367   19.2647 H   0  0  0  0  0  0  0  0  0  0  0  0
  1  2  1  0
  2  3  2  0
  3  4  1  0
  4  5  1  0
  4  6  2  0
  6  7  1  0
  7  8  1  0
  7  9  1  0
  9 10  1  0
  9 11  1  0
  9 12  1  0
 12 13  2  0
 13 14  1  0
 13 15  1  0
 15 16  1  0
 15 17  2  0
 17 18  1  0
 17 19  1  0
 19 20  1  0
 19 21  2  0
 21 22  1  0
 22 23  1  0
 22 24  1  0
 22 25  1  0
  6 26  1  0
 26 27  1  0
 26 28  2  0
 28 29  1  0
 28  2  1  0
 21 12  1  0
M  END
>  <cnnaffinity>  (1) 
-4.84278

>  <filename>  (1) 
FC(F)(F)c1ccccc1CNc1cccnc1

$$$$
