
     RDKit          3D

 39 42  0  0  0  0  0  0  0  0999 V2000
    5.0006    1.8354   16.9166 H   0  0  0  0  0  0  0  0  0  0  0  0
    5.3941    1.3062   17.7845 C   0  0  0  0  0  0  0  0  0  0  0  0
    6.5444    0.6426   17.6063 N   0  0  0  0  0  0  0  0  0  0  0  0
    7.0696    0.0226   18.6736 C   0  0  0  0  0  0  0  0  0  0  0  0
    8.0037   -0.5033   18.4919 H   0  0  0  0  0  0  0  0  0  0  0  0
    6.4832    0.0003   19.9567 C   0  0  0  0  0  0  0  0  0  0  0  0
    7.2421   -0.5992   21.0721 C   0  0  0  0  0  0  0  0  0  0  0  0
    8.6017   -0.5427   21.3048 C   0  0  0  0  0  0  0  0  0  0  0  0
    8.8122   -1.1410   22.5372 C   0  0  0  0  0  0  0  0  0  0  0  0
    7.7019   -1.6009   23.0764 N   0  0  0  0  0  0  0  0  0  0  0  0
    6.7501   -1.2557   22.1697 N   0  0  0  0  0  0  0  0  0  0  0  0
    5.7935   -1.5245   22.3576 H   0  0  0  0  0  0  0  0  0  0  0  0
   10.2497   -1.1104   22.9646 C   0  0  0  0  0  0  0  0  0  0  0  0
   10.3746   -0.6500   23.9515 H   0  0  0  0  0  0  0  0  0  0  0  0
   10.6685   -2.1215   23.0256 H   0  0  0  0  0  0  0  0  0  0  0  0
   10.9437   -0.2674   21.8329 C   0  0  2  0  0  0  0  0  0  0  0  0
   11.7659   -0.8608   21.4198 H   0  0  0  0  0  0  0  0  0  0  0  0
   11.5008    1.0467   22.3462 C   0  0  0  0  0  0  0  0  0  0  0  0
   10.6285    2.0137   22.8641 C   0  0  0  0  0  0  0  0  0  0  0  0
    9.5620    1.7947   22.8920 H   0  0  0  0  0  0  0  0  0  0  0  0
   11.0865    3.2453   23.3396 C   0  0  0  0  0  0  0  0  0  0  0  0
   10.3822    3.9692   23.7308 H   0  0  0  0  0  0  0  0  0  0  0  0
   12.4574    3.5107   23.2814 C   0  0  0  0  0  0  0  0  0  0  0  0
   13.0616    4.6929   23.7092 O   0  0  0  0  0  0  0  0  0  0  0  0
   12.3415    5.6962   24.2477 C   0  0  0  0  0  0  0  0  0  0  0  0
   11.4036    6.1820   23.4170 F   0  0  0  0  0  0  0  0  0  0  0  0
   13.1823    6.6760   24.5395 F   0  0  0  0  0  0  0  0  0  0  0  0
   11.7085    5.3405   25.3778 F   0  0  0  0  0  0  0  0  0  0  0  0
   13.3517    2.5720   22.7721 C   0  0  0  0  0  0  0  0  0  0  0  0
   14.4046    2.8252   22.7113 H   0  0  0  0  0  0  0  0  0  0  0  0
   12.8727    1.3416   22.3189 C   0  0  0  0  0  0  0  0  0  0  0  0
   13.5637    0.5947   21.9347 H   0  0  0  0  0  0  0  0  0  0  0  0
    9.8693   -0.0482   20.7063 C   0  0  0  0  0  0  0  0  0  0  0  0
    9.8003    0.9996   20.3830 H   0  0  0  0  0  0  0  0  0  0  0  0
   10.1222   -0.6406   19.8247 H   0  0  0  0  0  0  0  0  0  0  0  0
    5.2581    0.6697   20.1087 C   0  0  0  0  0  0  0  0  0  0  0  0
    4.7546    0.6977   21.0757 H   0  0  0  0  0  0  0  0  0  0  0  0
    4.7147    1.3365   19.0083 C   0  0  0  0  0  0  0  0  0  0  0  0
    3.7976    1.9058   19.0884 H   0  0  0  0  0  0  0  0  0  0  0  0
  1  2  1  0
  2  3  2  0
  3  4  1  0
  4  5  1  0
  4  6  2  0
  6  7  1  0
  7  8  2  0
  8  9  1  0
  9 10  2  0
 10 11  1  0
 11 12  1  0
  9 13  1  0
 13 14  1  0
 13 15  1  0
 13 16  1  0
 16 17  1  6
 16 18  1  0
 18 19  2  0
 19 20  1  0
 19 21  1  0
 21 22  1  0
 21 23  2  0
 23 24  1  0
 24 25  1  0
 25 26  1  0
 25 27  1  0
 25 28  1  0
 23 29  1  0
 29 30  1  0
 29 31  2  0
 31 32  1  0
 16 33  1  0
 33 34  1  0
 33 35  1  0
  6 36  1  0
 36 37  1  0
 36 38  2  0
 38 39  1  0
 38  2  1  0
 11  7  1  0
 31 18  1  0
 33  8  1  0
M  END
>  <cnnaffinity>  (1) 
-6.04687

>  <filename>  (1) 
FC(F)(F)Oc1ccc([C@H]2Cc3n[nH]c(-c4cccnc4)c3C2)cc1

$$$$
