
     RDKit          3D

 34 36  0  0  0  0  0  0  0  0999 V2000
    8.5598    1.1393   21.5809 H   0  0  0  0  0  0  0  0  0  0  0  0
    7.9646    0.3050   21.9287 C   0  0  0  0  0  0  0  0  0  0  0  0
    7.5141    0.2359   23.2052 C   0  0  0  0  0  0  0  0  0  0  0  0
    7.8374    1.3326   24.1928 C   0  0  0  0  0  0  0  0  0  0  0  0
    7.8167    2.5708   23.6785 N   0  0  0  0  0  0  0  0  0  0  0  0
    8.0001    3.6159   24.4865 C   0  0  0  0  0  0  0  0  0  0  0  0
    7.9438    4.5914   24.0081 H   0  0  0  0  0  0  0  0  0  0  0  0
    8.2581    3.4873   25.8548 C   0  0  0  0  0  0  0  0  0  0  0  0
    8.3984    4.3681   26.4682 H   0  0  0  0  0  0  0  0  0  0  0  0
    8.3629    2.2074   26.3928 C   0  0  0  0  0  0  0  0  0  0  0  0
    8.5657    2.0549   27.4533 H   0  0  0  0  0  0  0  0  0  0  0  0
    8.2052    1.1113   25.5412 C   0  0  0  0  0  0  0  0  0  0  0  0
    8.4489   -0.2943   26.0153 C   0  0  0  0  0  0  0  0  0  0  0  0
    7.2743   -0.9312   26.2785 F   0  0  0  0  0  0  0  0  0  0  0  0
    9.0836   -1.0343   25.0871 F   0  0  0  0  0  0  0  0  0  0  0  0
    9.1678   -0.3655   27.1435 F   0  0  0  0  0  0  0  0  0  0  0  0
    6.7212   -0.8815   23.5493 N   0  0  0  0  0  0  0  0  0  0  0  0
    6.4581   -1.1112   24.4931 H   0  0  0  0  0  0  0  0  0  0  0  0
    6.5086   -1.9594   22.7484 C   0  0  0  0  0  0  0  0  0  0  0  0
    5.8308   -3.3714   23.3118 S   0  0  0  0  0  0  0  0  0  0  0  0
    6.8737   -1.8220   21.4725 N   0  0  0  0  0  0  0  0  0  0  0  0
    6.6787   -2.6452   20.9423 H   0  0  0  0  0  0  0  0  0  0  0  0
    7.5689   -0.6801   20.8881 C   0  0  1  0  0  0  0  0  0  0  0  0
    8.4823   -1.0557   20.3921 H   0  0  0  0  0  0  0  0  0  0  0  0
    6.7084   -0.0405   19.7947 C   0  0  0  0  0  0  0  0  0  0  0  0
    7.1687   -0.0131   18.4761 C   0  0  0  0  0  0  0  0  0  0  0  0
    8.0954   -0.5330   18.2211 H   0  0  0  0  0  0  0  0  0  0  0  0
    6.5469    0.6232   17.4769 N   0  0  0  0  0  0  0  0  0  0  0  0
    5.4035    1.2593   17.7758 C   0  0  0  0  0  0  0  0  0  0  0  0
    4.9356    1.8063   16.9616 H   0  0  0  0  0  0  0  0  0  0  0  0
    4.8233    1.2458   19.0514 C   0  0  0  0  0  0  0  0  0  0  0  0
    3.8952    1.7791   19.2268 H   0  0  0  0  0  0  0  0  0  0  0  0
    5.4832    0.5761   20.0793 C   0  0  0  0  0  0  0  0  0  0  0  0
    5.0756    0.5383   21.0920 H   0  0  0  0  0  0  0  0  0  0  0  0
  1  2  1  0
  2  3  2  0
  3  4  1  0
  4  5  2  0
  5  6  1  0
  6  7  1  0
  6  8  2  0
  8  9  1  0
  8 10  1  0
 10 11  1  0
 10 12  2  0
 12 13  1  0
 13 14  1  0
 13 15  1  0
 13 16  1  0
  3 17  1  0
 17 18  1  0
 17 19  1  0
 19 20  2  0
 19 21  1  0
 21 22  1  0
 21 23  1  0
 23 24  1  6
 23 25  1  0
 25 26  2  0
 26 27  1  0
 26 28  1  0
 28 29  2  0
 29 30  1  0
 29 31  1  0
 31 32  1  0
 31 33  2  0
 33 34  1  0
 23  2  1  0
 33 25  1  0
 12  4  1  0
M  END
>  <cnnaffinity>  (1) 
-5.31055

>  <filename>  (1) 
FC(F)(F)c1cccnc1C1=C[C@H](c2cccnc2)NC(=S)N1

$$$$
