
     RDKit          3D

 41 43  0  0  0  0  0  0  0  0999 V2000
    4.9860    1.6634   16.9077 H   0  0  0  0  0  0  0  0  0  0  0  0
    5.4755    1.2674   17.7936 C   0  0  0  0  0  0  0  0  0  0  0  0
    6.6081    0.5783   17.5865 N   0  0  0  0  0  0  0  0  0  0  0  0
    7.2286    0.0679   18.6606 C   0  0  0  0  0  0  0  0  0  0  0  0
    8.1730   -0.4399   18.4717 H   0  0  0  0  0  0  0  0  0  0  0  0
    6.7636    0.1894   19.9990 C   0  0  0  0  0  0  0  0  0  0  0  0
    7.4493   -0.3831   21.0820 N   0  0  0  0  0  0  0  0  0  0  0  0
    7.9826   -1.7408   20.9254 C   0  0  0  0  0  0  0  0  0  0  0  0
    8.7676   -1.7143   20.1552 H   0  0  0  0  0  0  0  0  0  0  0  0
    7.1997   -2.4251   20.5508 H   0  0  0  0  0  0  0  0  0  0  0  0
    8.6382   -2.3833   22.1659 C   0  0  0  0  0  0  0  0  0  0  0  0
    9.0661   -3.3332   21.8189 H   0  0  0  0  0  0  0  0  0  0  0  0
    9.4954   -1.7534   22.4550 H   0  0  0  0  0  0  0  0  0  0  0  0
    7.7640   -2.6646   23.3034 N   0  0  0  0  0  0  0  0  0  0  0  0
    8.2210   -3.4853   24.3403 C   0  0  0  0  0  0  0  0  0  0  0  0
    9.6031   -3.7281   24.5211 C   0  0  0  0  0  0  0  0  0  0  0  0
   10.3171   -3.2707   23.8416 H   0  0  0  0  0  0  0  0  0  0  0  0
   10.0437   -4.5287   25.5720 C   0  0  0  0  0  0  0  0  0  0  0  0
   11.1133   -4.6680   25.7148 H   0  0  0  0  0  0  0  0  0  0  0  0
    9.1382   -5.1394   26.4393 C   0  0  0  0  0  0  0  0  0  0  0  0
    9.5031   -5.7904   27.2285 H   0  0  0  0  0  0  0  0  0  0  0  0
    7.7599   -4.9220   26.2692 C   0  0  0  0  0  0  0  0  0  0  0  0
    6.7485   -5.5658   27.2062 C   0  0  0  0  0  0  0  0  0  0  0  0
    7.3213   -6.2185   28.2332 F   0  0  0  0  0  0  0  0  0  0  0  0
    5.9668   -6.4478   26.5524 F   0  0  0  0  0  0  0  0  0  0  0  0
    5.9173   -4.6447   27.7368 F   0  0  0  0  0  0  0  0  0  0  0  0
    7.3088   -4.0862   25.2388 C   0  0  0  0  0  0  0  0  0  0  0  0
    6.2453   -3.8918   25.1166 H   0  0  0  0  0  0  0  0  0  0  0  0
    6.5563   -1.8616   23.4378 C   0  0  0  0  0  0  0  0  0  0  0  0
    5.8961   -2.0807   22.5865 H   0  0  0  0  0  0  0  0  0  0  0  0
    6.0187   -2.1718   24.3354 H   0  0  0  0  0  0  0  0  0  0  0  0
    6.7682   -0.3376   23.5221 C   0  0  0  0  0  0  0  0  0  0  0  0
    7.2591   -0.0744   24.4673 H   0  0  0  0  0  0  0  0  0  0  0  0
    5.7712    0.1205   23.5611 H   0  0  0  0  0  0  0  0  0  0  0  0
    7.5677    0.2997   22.3675 C   0  0  0  0  0  0  0  0  0  0  0  0
    8.6355    0.3407   22.6425 H   0  0  0  0  0  0  0  0  0  0  0  0
    7.2437    1.3402   22.2403 H   0  0  0  0  0  0  0  0  0  0  0  0
    5.5841    0.9423   20.1827 C   0  0  0  0  0  0  0  0  0  0  0  0
    5.2044    1.1000   21.1904 H   0  0  0  0  0  0  0  0  0  0  0  0
    4.9283    1.4728   19.0657 C   0  0  0  0  0  0  0  0  0  0  0  0
    4.0259    2.0651   19.1758 H   0  0  0  0  0  0  0  0  0  0  0  0
  1  2  1  0
  2  3  2  0
  3  4  1  0
  4  5  1  0
  4  6  2  0
  6  7  1  0
  7  8  1  0
  8  9  1  0
  8 10  1  0
  8 11  1  0
 11 12  1  0
 11 13  1  0
 11 14  1  0
 14 15  1  0
 15 16  2  0
 16 17  1  0
 16 18  1  0
 18 19  1  0
 18 20  2  0
 20 21  1  0
 20 22  1  0
 22 23  1  0
 23 24  1  0
 23 25  1  0
 23 26  1  0
 22 27  2  0
 27 28  1  0
 14 29  1  0
 29 30  1  0
 29 31  1  0
 29 32  1  0
 32 33  1  0
 32 34  1  0
 32 35  1  0
 35 36  1  0
 35 37  1  0
  6 38  1  0
 38 39  1  0
 38 40  2  0
 40 41  1  0
 40  2  1  0
 35  7  1  0
 27 15  1  0
M  END
>  <cnnaffinity>  (1) 
-5.13755

>  <filename>  (1) 
FC(F)(F)c1cccc(N2CCCN(c3cccnc3)CC2)c1

$$$$
