
     RDKit          3D

 31 33  0  0  0  0  0  0  0  0999 V2000
   10.5927   -5.5273   26.9229 F   0  0  0  0  0  0  0  0  0  0  0  0
    9.2640   -5.6530   26.8253 C   0  0  0  0  0  0  0  0  0  0  0  0
    8.7102   -5.0463   27.9028 F   0  0  0  0  0  0  0  0  0  0  0  0
    8.8882   -5.0814   25.6306 O   0  0  0  0  0  0  0  0  0  0  0  0
    8.1182   -3.9636   25.3798 C   0  0  0  0  0  0  0  0  0  0  0  0
    6.9905   -3.5343   26.1163 C   0  0  0  0  0  0  0  0  0  0  0  0
    6.2210   -2.5132   25.7031 N   0  0  0  0  0  0  0  0  0  0  0  0
    6.5263   -1.9023   24.5549 C   0  0  0  0  0  0  0  0  0  0  0  0
    7.6214   -2.2590   23.7387 C   0  0  0  0  0  0  0  0  0  0  0  0
    7.8174   -1.5809   22.4389 C   0  0  0  0  0  0  0  0  0  0  0  0
    6.8347   -1.0510   21.6354 C   0  0  0  0  0  0  0  0  0  0  0  0
    7.4287   -0.4880   20.5547 N   0  0  0  0  0  0  0  0  0  0  0  0
    6.7565    0.1862   19.5024 C   0  0  0  0  0  0  0  0  0  0  0  0
    5.5761    0.8968   19.7629 C   0  0  0  0  0  0  0  0  0  0  0  0
    4.9200    1.5192   18.7008 C   0  0  0  0  0  0  0  0  0  0  0  0
    5.4683    1.4056   17.4214 C   0  0  0  0  0  0  0  0  0  0  0  0
    6.5952    0.7229   17.1652 N   0  0  0  0  0  0  0  0  0  0  0  0
    7.2326    0.1324   18.1835 C   0  0  0  0  0  0  0  0  0  0  0  0
    8.1473   -0.4034   17.9404 H   0  0  0  0  0  0  0  0  0  0  0  0
    4.9872    1.8790   16.5687 H   0  0  0  0  0  0  0  0  0  0  0  0
    4.0113    2.0893   18.8632 H   0  0  0  0  0  0  0  0  0  0  0  0
    5.1870    0.9701   20.7774 H   0  0  0  0  0  0  0  0  0  0  0  0
    8.7679   -0.6404   20.5881 N   0  0  0  0  0  0  0  0  0  0  0  0
    9.0067   -1.2884   21.7192 C   0  0  0  0  0  0  0  0  0  0  0  0
   10.0238   -1.5297   22.0028 H   0  0  0  0  0  0  0  0  0  0  0  0
    5.7550   -1.0663   21.7036 H   0  0  0  0  0  0  0  0  0  0  0  0
    8.4426   -3.2990   24.1972 C   0  0  0  0  0  0  0  0  0  0  0  0
    9.3158   -3.6514   23.6497 H   0  0  0  0  0  0  0  0  0  0  0  0
    5.8840   -1.0769   24.2538 H   0  0  0  0  0  0  0  0  0  0  0  0
    6.6924   -4.0258   27.0374 H   0  0  0  0  0  0  0  0  0  0  0  0
    8.9678   -6.7062   26.8166 H   0  0  0  0  0  0  0  0  0  0  0  0
  1  2  1  0
  2  3  1  0
  2  4  1  0
  4  5  1  0
  5  6  2  0
  6  7  1  0
  7  8  2  0
  8  9  1  0
  9 10  1  0
 10 11  2  0
 11 12  1  0
 12 13  1  0
 13 14  2  0
 14 15  1  0
 15 16  2  0
 16 17  1  0
 17 18  2  0
 18 19  1  0
 16 20  1  0
 15 21  1  0
 14 22  1  0
 12 23  1  0
 23 24  2  0
 24 25  1  0
 11 26  1  0
  9 27  2  0
 27 28  1  0
  8 29  1  0
  6 30  1  0
  2 31  1  0
 27  5  1  0
 24 10  1  0
 18 13  1  0
M  END
>  <cnnaffinity>  (1) 
-5.00305

>  <filename>  (1) 
FC(F)Oc1cncc(-c2cnn(-c3cccnc3)c2)c1

$$$$
