
     RDKit          3D

 26 27  0  0  0  0  0  0  0  0999 V2000
    4.9231    1.7869   16.9892 H   0  0  0  0  0  0  0  0  0  0  0  0
    5.3980    1.2952   17.8354 C   0  0  0  0  0  0  0  0  0  0  0  0
    6.5613    0.6783   17.5742 N   0  0  0  0  0  0  0  0  0  0  0  0
    7.1633    0.0681   18.6021 C   0  0  0  0  0  0  0  0  0  0  0  0
    8.1146   -0.4125   18.3797 H   0  0  0  0  0  0  0  0  0  0  0  0
    6.6426    0.0141   19.9054 C   0  0  0  0  0  0  0  0  0  0  0  0
    7.4142   -0.6607   21.0091 C   0  0  0  0  0  0  0  0  0  0  0  0
    7.9566   -1.5424   20.6523 H   0  0  0  0  0  0  0  0  0  0  0  0
    6.7398   -0.9807   21.8121 H   0  0  0  0  0  0  0  0  0  0  0  0
    8.4113    0.2319   21.5821 N   0  0  0  0  0  0  0  0  0  0  0  0
    9.7090    0.2097   21.1983 N   0  0  0  0  0  0  0  0  0  0  0  0
   10.2836    1.1876   21.7914 N   0  0  0  0  0  0  0  0  0  0  0  0
    9.4082    1.8960   22.5517 N   0  0  0  0  0  0  0  0  0  0  0  0
    8.2625    1.2963   22.3863 C   0  0  0  0  0  0  0  0  0  0  0  0
    7.0553    1.5871   22.8865 O   0  0  0  0  0  0  0  0  0  0  0  0
    6.9284    2.7245   23.7488 C   0  0  0  0  0  0  0  0  0  0  0  0
    7.5177    2.6131   24.6646 H   0  0  0  0  0  0  0  0  0  0  0  0
    7.2316    3.6532   23.2545 H   0  0  0  0  0  0  0  0  0  0  0  0
    5.4631    2.8895   24.1682 C   0  0  0  0  0  0  0  0  0  0  0  0
    5.0006    1.8366   24.8552 F   0  0  0  0  0  0  0  0  0  0  0  0
    4.6444    3.0977   23.1265 F   0  0  0  0  0  0  0  0  0  0  0  0
    5.3811    3.9643   24.9741 F   0  0  0  0  0  0  0  0  0  0  0  0
    5.4287    0.6568   20.1577 C   0  0  0  0  0  0  0  0  0  0  0  0
    5.0014    0.6507   21.1673 H   0  0  0  0  0  0  0  0  0  0  0  0
    4.7987    1.3159   19.1000 C   0  0  0  0  0  0  0  0  0  0  0  0
    3.8689    1.8500   19.2472 H   0  0  0  0  0  0  0  0  0  0  0  0
  1  2  1  0
  2  3  2  0
  3  4  1  0
  4  5  1  0
  4  6  2  0
  6  7  1  0
  7  8  1  0
  7  9  1  0
  7 10  1  0
 10 11  1  0
 11 12  2  0
 12 13  1  0
 13 14  2  0
 14 15  1  0
 15 16  1  0
 16 17  1  0
 16 18  1  0
 16 19  1  0
 19 20  1  0
 19 21  1  0
 19 22  1  0
  6 23  1  0
 23 24  1  0
 23 25  2  0
 25 26  1  0
 25  2  1  0
 14 10  1  0
M  END
>  <cnnaffinity>  (1) 
-4.55135

>  <filename>  (1) 
FC(F)(F)COc1nnnn1Cc1cccnc1

$$$$
