
     RDKit          3D

 30 32  0  0  0  0  0  0  0  0999 V2000
    5.0185    2.1553   16.8796 H   0  0  0  0  0  0  0  0  0  0  0  0
    5.4242    1.4859   17.6359 C   0  0  0  0  0  0  0  0  0  0  0  0
    6.5440    0.8183   17.3125 N   0  0  0  0  0  0  0  0  0  0  0  0
    7.0840    0.0041   18.2301 C   0  0  0  0  0  0  0  0  0  0  0  0
    7.9994   -0.5112   17.9459 H   0  0  0  0  0  0  0  0  0  0  0  0
    6.5084   -0.1959   19.5024 C   0  0  0  0  0  0  0  0  0  0  0  0
    7.1953   -0.9877   20.4356 O   0  0  0  0  0  0  0  0  0  0  0  0
    6.5196   -1.7241   21.3359 C   0  0  0  0  0  0  0  0  0  0  0  0
    5.4063   -2.3826   21.1752 N   0  0  0  0  0  0  0  0  0  0  0  0
    5.1910   -3.0278   22.3434 N   0  0  0  0  0  0  0  0  0  0  0  0
    6.1211   -2.7937   23.1863 N   0  0  0  0  0  0  0  0  0  0  0  0
    7.0039   -1.9631   22.5695 N   0  0  0  0  0  0  0  0  0  0  0  0
    8.2064   -1.5144   23.1834 C   0  0  0  0  0  0  0  0  0  0  0  0
    8.5007   -0.1503   23.0907 C   0  0  0  0  0  0  0  0  0  0  0  0
    7.8371    0.5045   22.5380 H   0  0  0  0  0  0  0  0  0  0  0  0
    9.6428    0.3739   23.6914 C   0  0  0  0  0  0  0  0  0  0  0  0
    9.8426    1.4452   23.6410 H   0  0  0  0  0  0  0  0  0  0  0  0
   10.5312   -0.4818   24.3422 C   0  0  0  0  0  0  0  0  0  0  0  0
   11.4406   -0.0860   24.7834 H   0  0  0  0  0  0  0  0  0  0  0  0
   10.2645   -1.8490   24.3972 C   0  0  0  0  0  0  0  0  0  0  0  0
   10.9749   -2.5400   24.8368 H   0  0  0  0  0  0  0  0  0  0  0  0
    9.0886   -2.3922   23.8521 C   0  0  0  0  0  0  0  0  0  0  0  0
    8.8450   -3.8897   24.0291 C   0  0  0  0  0  0  0  0  0  0  0  0
    8.5872   -4.4992   22.8595 F   0  0  0  0  0  0  0  0  0  0  0  0
    7.8238   -4.1396   24.8647 F   0  0  0  0  0  0  0  0  0  0  0  0
    9.9215   -4.5208   24.5528 F   0  0  0  0  0  0  0  0  0  0  0  0
    5.3345    0.4839   19.8302 C   0  0  0  0  0  0  0  0  0  0  0  0
    4.8646    0.3262   20.8030 H   0  0  0  0  0  0  0  0  0  0  0  0
    4.7898    1.3524   18.8754 C   0  0  0  0  0  0  0  0  0  0  0  0
    3.8980    1.9333   19.0888 H   0  0  0  0  0  0  0  0  0  0  0  0
  1  2  1  0
  2  3  2  0
  3  4  1  0
  4  5  1  0
  4  6  2  0
  6  7  1  0
  7  8  1  0
  8  9  2  0
  9 10  1  0
 10 11  2  0
 11 12  1  0
 12 13  1  0
 13 14  2  0
 14 15  1  0
 14 16  1  0
 16 17  1  0
 16 18  2  0
 18 19  1  0
 18 20  1  0
 20 21  1  0
 20 22  2  0
 22 23  1  0
 23 24  1  0
 23 25  1  0
 23 26  1  0
  6 27  1  0
 27 28  1  0
 27 29  2  0
 29 30  1  0
 29  2  1  0
 12  8  1  0
 22 13  1  0
M  END
>  <cnnaffinity>  (1) 
-5.18513

>  <filename>  (1) 
FC(F)(F)c1ccccc1-n1nnnc1Oc1cccnc1

$$$$
