
     RDKit          3D

 35 38  0  0  0  0  0  0  0  0999 V2000
    5.2916    1.9651   16.9935 H   0  0  0  0  0  0  0  0  0  0  0  0
    5.7442    1.3486   17.7694 C   0  0  0  0  0  0  0  0  0  0  0  0
    6.8525    0.6692   17.4321 N   0  0  0  0  0  0  0  0  0  0  0  0
    7.4362   -0.0901   18.3686 C   0  0  0  0  0  0  0  0  0  0  0  0
    8.3141   -0.6606   18.0660 H   0  0  0  0  0  0  0  0  0  0  0  0
    6.9397   -0.2115   19.6749 C   0  0  0  0  0  0  0  0  0  0  0  0
    7.6309   -0.9773   20.6404 N   0  0  0  0  0  0  0  0  0  0  0  0
    8.9319   -0.7657   21.1127 C   0  0  0  0  0  0  0  0  0  0  0  0
    9.5923   -0.0795   20.6112 H   0  0  0  0  0  0  0  0  0  0  0  0
    9.1290   -1.5096   22.2307 C   0  0  0  0  0  0  0  0  0  0  0  0
    9.9271   -1.5551   22.9490 H   0  0  0  0  0  0  0  0  0  0  0  0
    7.9476   -2.2046   22.4281 N   0  0  0  0  0  0  0  0  0  0  0  0
    7.5201   -3.1283   23.3200 N   0  0  0  0  0  0  0  0  0  0  0  0
    6.2772   -3.3730   22.9134 C   0  0  0  0  0  0  0  0  0  0  0  0
    5.3674   -4.3497   23.5931 C   0  0  0  0  0  0  0  0  0  0  0  0
    4.3406   -3.8188   24.3932 C   0  0  0  0  0  0  0  0  0  0  0  0
    4.2998   -2.7447   24.5510 H   0  0  0  0  0  0  0  0  0  0  0  0
    3.3558   -4.6404   24.9444 C   0  0  0  0  0  0  0  0  0  0  0  0
    2.5696   -4.2162   25.5670 H   0  0  0  0  0  0  0  0  0  0  0  0
    3.3962   -6.0153   24.7152 C   0  0  0  0  0  0  0  0  0  0  0  0
    2.6175   -6.6576   25.1233 H   0  0  0  0  0  0  0  0  0  0  0  0
    4.4283   -6.5676   23.9534 C   0  0  0  0  0  0  0  0  0  0  0  0
    4.4549   -7.6429   23.7848 H   0  0  0  0  0  0  0  0  0  0  0  0
    5.4319   -5.7526   23.4022 C   0  0  0  0  0  0  0  0  0  0  0  0
    6.5940   -6.3726   22.6230 C   0  0  0  0  0  0  0  0  0  0  0  0
    7.7701   -6.1633   23.2435 F   0  0  0  0  0  0  0  0  0  0  0  0
    6.4639   -7.6992   22.4595 F   0  0  0  0  0  0  0  0  0  0  0  0
    6.7015   -5.8494   21.3849 F   0  0  0  0  0  0  0  0  0  0  0  0
    5.8902   -2.6082   21.7986 C   0  0  0  0  0  0  0  0  0  0  0  0
    4.9012   -2.6078   21.3932 H   0  0  0  0  0  0  0  0  0  0  0  0
    7.0303   -1.8819   21.4921 C   0  0  0  0  0  0  0  0  0  0  0  0
    5.7559    0.4651   20.0086 C   0  0  0  0  0  0  0  0  0  0  0  0
    5.3368    0.3548   21.0099 H   0  0  0  0  0  0  0  0  0  0  0  0
    5.1684    1.2860   19.0437 C   0  0  0  0  0  0  0  0  0  0  0  0
    4.3040    1.8990   19.2793 H   0  0  0  0  0  0  0  0  0  0  0  0
  1  2  1  0
  2  3  2  0
  3  4  1  0
  4  5  1  0
  4  6  2  0
  6  7  1  0
  7  8  1  0
  8  9  1  0
  8 10  2  0
 10 11  1  0
 10 12  1  0
 12 13  1  0
 13 14  2  0
 14 15  1  0
 15 16  2  0
 16 17  1  0
 16 18  1  0
 18 19  1  0
 18 20  2  0
 20 21  1  0
 20 22  1  0
 22 23  1  0
 22 24  2  0
 24 25  1  0
 25 26  1  0
 25 27  1  0
 25 28  1  0
 14 29  1  0
 29 30  1  0
 29 31  2  0
  6 32  1  0
 32 33  1  0
 32 34  2  0
 34 35  1  0
 34  2  1  0
 31  7  1  0
 31 12  1  0
 24 15  1  0
M  END
>  <cnnaffinity>  (1) 
-5.83438

>  <filename>  (1) 
FC(F)(F)c1ccccc1-c1cc2n(-c3cccnc3)ccn2n1

$$$$
