
     RDKit          3D

 35 37  0  0  0  0  0  0  0  0999 V2000
    6.7696    0.6743   22.6311 H   0  0  0  0  0  0  0  0  0  0  0  0
    7.3749   -0.1820   22.3389 C   0  0  0  0  0  0  0  0  0  0  0  0
    8.1004   -0.7683   23.3076 N   0  0  0  0  0  0  0  0  0  0  0  0
    8.8496   -1.8318   22.9439 C   0  0  0  0  0  0  0  0  0  0  0  0
    9.5962   -2.5579   24.0372 C   0  0  0  0  0  0  0  0  0  0  0  0
    9.8751   -1.8254   24.8019 H   0  0  0  0  0  0  0  0  0  0  0  0
   10.5207   -3.0060   23.6489 H   0  0  0  0  0  0  0  0  0  0  0  0
    8.6838   -3.6279   24.6053 C   0  0  0  0  0  0  0  0  0  0  0  0
    8.5010   -4.8336   23.9114 C   0  0  0  0  0  0  0  0  0  0  0  0
    9.1678   -5.0959   23.0957 H   0  0  0  0  0  0  0  0  0  0  0  0
    7.4304   -5.6731   24.2132 C   0  0  0  0  0  0  0  0  0  0  0  0
    7.2026   -6.5107   23.5596 H   0  0  0  0  0  0  0  0  0  0  0  0
    6.5854   -5.3755   25.2950 C   0  0  0  0  0  0  0  0  0  0  0  0
    5.4248   -6.2809   25.6494 C   0  0  0  0  0  0  0  0  0  0  0  0
    5.6903   -7.0543   26.7192 F   0  0  0  0  0  0  0  0  0  0  0  0
    5.0864   -7.1027   24.6352 F   0  0  0  0  0  0  0  0  0  0  0  0
    4.3208   -5.5762   25.9710 F   0  0  0  0  0  0  0  0  0  0  0  0
    6.8212   -4.2199   26.0580 C   0  0  0  0  0  0  0  0  0  0  0  0
    6.2064   -3.9779   26.9199 H   0  0  0  0  0  0  0  0  0  0  0  0
    7.8382   -3.3399   25.6837 C   0  0  0  0  0  0  0  0  0  0  0  0
    7.9360   -2.3854   26.1907 H   0  0  0  0  0  0  0  0  0  0  0  0
    8.8468   -2.2960   21.6056 C   0  0  0  0  0  0  0  0  0  0  0  0
    9.4114   -3.1806   21.3227 H   0  0  0  0  0  0  0  0  0  0  0  0
    8.1645   -1.6844   20.6287 N   0  0  0  0  0  0  0  0  0  0  0  0
    7.3988   -0.6299   20.9888 C   0  0  0  0  0  0  0  0  0  0  0  0
    6.6352    0.0271   19.9038 C   0  0  0  0  0  0  0  0  0  0  0  0
    7.1434    0.0088   18.5897 C   0  0  0  0  0  0  0  0  0  0  0  0
    8.0501   -0.5487   18.3714 H   0  0  0  0  0  0  0  0  0  0  0  0
    6.5764    0.6436   17.5602 N   0  0  0  0  0  0  0  0  0  0  0  0
    5.4344    1.3059   17.8012 C   0  0  0  0  0  0  0  0  0  0  0  0
    4.9951    1.8247   16.9511 H   0  0  0  0  0  0  0  0  0  0  0  0
    4.8104    1.3353   19.0521 C   0  0  0  0  0  0  0  0  0  0  0  0
    3.8724    1.8652   19.1698 H   0  0  0  0  0  0  0  0  0  0  0  0
    5.4200    0.6900   20.1284 C   0  0  0  0  0  0  0  0  0  0  0  0
    4.9447    0.6843   21.1130 H   0  0  0  0  0  0  0  0  0  0  0  0
  1  2  1  0
  2  3  2  0
  3  4  1  0
  4  5  1  0
  5  6  1  0
  5  7  1  0
  5  8  1  0
  8  9  2  0
  9 10  1  0
  9 11  1  0
 11 12  1  0
 11 13  2  0
 13 14  1  0
 14 15  1  0
 14 16  1  0
 14 17  1  0
 13 18  1  0
 18 19  1  0
 18 20  2  0
 20 21  1  0
  4 22  2  0
 22 23  1  0
 22 24  1  0
 24 25  2  0
 25 26  1  0
 26 27  2  0
 27 28  1  0
 27 29  1  0
 29 30  2  0
 30 31  1  0
 30 32  1  0
 32 33  1  0
 32 34  2  0
 34 35  1  0
 25  2  1  0
 34 26  1  0
 20  8  1  0
M  END
>  <cnnaffinity>  (1) 
-5.66399

>  <filename>  (1) 
FC(F)(F)c1ccc(Cc2cnc(-c3cccnc3)cn2)cc1

$$$$
