
     RDKit          3D

 30 32  0  0  0  0  0  0  0  0999 V2000
    9.3768   -0.3491   20.3661 H   0  0  0  0  0  0  0  0  0  0  0  0
    8.7558   -0.8126   21.1268 C   0  0  0  0  0  0  0  0  0  0  0  0
    9.3810   -1.3560   22.1652 N   0  0  0  0  0  0  0  0  0  0  0  0
    8.6562   -1.9269   23.1420 N   0  0  0  0  0  0  0  0  0  0  0  0
    7.3196   -1.9291   23.0564 C   0  0  0  0  0  0  0  0  0  0  0  0
    6.5781   -2.5630   24.2526 C   0  0  0  0  0  0  0  0  0  0  0  0
    5.5702   -1.8281   24.7379 N   0  0  0  0  0  0  0  0  0  0  0  0
    4.7311   -2.3104   25.6494 C   0  0  0  0  0  0  0  0  0  0  0  0
    3.9282   -1.6422   25.9608 H   0  0  0  0  0  0  0  0  0  0  0  0
    4.8742   -3.5909   26.1831 C   0  0  0  0  0  0  0  0  0  0  0  0
    4.1251   -3.9798   26.8621 H   0  0  0  0  0  0  0  0  0  0  0  0
    5.9893   -4.3279   25.8122 C   0  0  0  0  0  0  0  0  0  0  0  0
    6.1579   -5.3052   26.2635 H   0  0  0  0  0  0  0  0  0  0  0  0
    6.8910   -3.8088   24.8662 C   0  0  0  0  0  0  0  0  0  0  0  0
    8.1046   -4.6318   24.4895 C   0  0  0  0  0  0  0  0  0  0  0  0
    8.1888   -4.7686   23.1536 F   0  0  0  0  0  0  0  0  0  0  0  0
    9.2600   -4.1072   24.9138 F   0  0  0  0  0  0  0  0  0  0  0  0
    8.0330   -5.8721   25.0081 F   0  0  0  0  0  0  0  0  0  0  0  0
    6.6274   -1.3787   22.0240 N   0  0  0  0  0  0  0  0  0  0  0  0
    7.3358   -0.7997   21.0513 C   0  0  0  0  0  0  0  0  0  0  0  0
    6.6065   -0.0976   19.9542 C   0  0  0  0  0  0  0  0  0  0  0  0
    7.1456   -0.0498   18.6555 C   0  0  0  0  0  0  0  0  0  0  0  0
    8.0749   -0.5675   18.4229 H   0  0  0  0  0  0  0  0  0  0  0  0
    6.5999    0.6059   17.6283 N   0  0  0  0  0  0  0  0  0  0  0  0
    5.4587    1.2717   17.8582 C   0  0  0  0  0  0  0  0  0  0  0  0
    5.0345    1.8084   17.0096 H   0  0  0  0  0  0  0  0  0  0  0  0
    4.8272    1.2864   19.1040 C   0  0  0  0  0  0  0  0  0  0  0  0
    3.9136    1.8588   19.2187 H   0  0  0  0  0  0  0  0  0  0  0  0
    5.3987    0.5930   20.1720 C   0  0  0  0  0  0  0  0  0  0  0  0
    4.9258    0.6061   21.1568 H   0  0  0  0  0  0  0  0  0  0  0  0
  1  2  1  0
  2  3  2  0
  3  4  1  0
  4  5  2  0
  5  6  1  0
  6  7  2  0
  7  8  1  0
  8  9  1  0
  8 10  2  0
 10 11  1  0
 10 12  1  0
 12 13  1  0
 12 14  2  0
 14 15  1  0
 15 16  1  0
 15 17  1  0
 15 18  1  0
  5 19  1  0
 19 20  2  0
 20 21  1  0
 21 22  2  0
 22 23  1  0
 22 24  1  0
 24 25  2  0
 25 26  1  0
 25 27  1  0
 27 28  1  0
 27 29  2  0
 29 30  1  0
 20  2  1  0
 29 21  1  0
 14  6  1  0
M  END
>  <cnnaffinity>  (1) 
-5.49776

>  <filename>  (1) 
FC(F)(F)c1cccnc1-c1nncc(-c2cccnc2)n1

$$$$
