
     RDKit          3D

 35 37  0  0  0  0  0  0  0  0999 V2000
    4.9385    1.8085   16.9804 H   0  0  0  0  0  0  0  0  0  0  0  0
    5.3984    1.3052   17.8305 C   0  0  0  0  0  0  0  0  0  0  0  0
    6.5579    0.6767   17.5845 N   0  0  0  0  0  0  0  0  0  0  0  0
    7.1581    0.0512   18.6001 C   0  0  0  0  0  0  0  0  0  0  0  0
    8.0990   -0.4463   18.3699 H   0  0  0  0  0  0  0  0  0  0  0  0
    6.6482    0.0201   19.9045 C   0  0  0  0  0  0  0  0  0  0  0  0
    7.4255   -0.7017   20.9206 C   0  0  0  0  0  0  0  0  0  0  0  0
    7.9192   -1.9185   20.8365 N   0  0  0  0  0  0  0  0  0  0  0  0
    8.5199   -2.1647   22.0201 N   0  0  0  0  0  0  0  0  0  0  0  0
    8.4404   -1.1457   22.7993 N   0  0  0  0  0  0  0  0  0  0  0  0
    7.7502   -0.2043   22.1335 N   0  0  0  0  0  0  0  0  0  0  0  0
    7.6513    1.1578   22.6287 C   0  0  0  0  0  0  0  0  0  0  0  0
    7.8447    1.1174   23.7046 H   0  0  0  0  0  0  0  0  0  0  0  0
    6.6281    1.5161   22.4673 H   0  0  0  0  0  0  0  0  0  0  0  0
    8.6376    2.0959   21.9156 C   0  0  0  0  0  0  0  0  0  0  0  0
    8.4689    2.0332   20.8296 H   0  0  0  0  0  0  0  0  0  0  0  0
    9.6658    1.7517   22.0942 H   0  0  0  0  0  0  0  0  0  0  0  0
    8.4417    3.5115   22.4000 C   0  0  0  0  0  0  0  0  0  0  0  0
    7.4404    4.3178   21.8387 C   0  0  0  0  0  0  0  0  0  0  0  0
    6.7158    3.8808   21.1564 H   0  0  0  0  0  0  0  0  0  0  0  0
    7.3085    5.6564   22.1989 C   0  0  0  0  0  0  0  0  0  0  0  0
    6.6461    6.3080   21.6326 H   0  0  0  0  0  0  0  0  0  0  0  0
    8.0742    6.1805   23.2532 C   0  0  0  0  0  0  0  0  0  0  0  0
    7.7753    7.5758   23.7652 C   0  0  0  0  0  0  0  0  0  0  0  0
    7.1757    8.3485   22.8401 F   0  0  0  0  0  0  0  0  0  0  0  0
    6.9318    7.5305   24.8166 F   0  0  0  0  0  0  0  0  0  0  0  0
    8.8773    8.2331   24.1788 F   0  0  0  0  0  0  0  0  0  0  0  0
    9.0187    5.3552   23.8912 C   0  0  0  0  0  0  0  0  0  0  0  0
    9.5942    5.7152   24.7404 H   0  0  0  0  0  0  0  0  0  0  0  0
    9.1984    4.0409   23.4535 C   0  0  0  0  0  0  0  0  0  0  0  0
    9.9144    3.3963   23.9555 H   0  0  0  0  0  0  0  0  0  0  0  0
    5.4286    0.6738   20.1481 C   0  0  0  0  0  0  0  0  0  0  0  0
    4.9716    0.6629   21.1403 H   0  0  0  0  0  0  0  0  0  0  0  0
    4.7954    1.3246   19.0916 C   0  0  0  0  0  0  0  0  0  0  0  0
    3.8577    1.8523   19.2248 H   0  0  0  0  0  0  0  0  0  0  0  0
  1  2  1  0
  2  3  2  0
  3  4  1  0
  4  5  1  0
  4  6  2  0
  6  7  1  0
  7  8  2  0
  8  9  1  0
  9 10  2  0
 10 11  1  0
 11 12  1  0
 12 13  1  0
 12 14  1  0
 12 15  1  0
 15 16  1  0
 15 17  1  0
 15 18  1  0
 18 19  2  0
 19 20  1  0
 19 21  1  0
 21 22  1  0
 21 23  2  0
 23 24  1  0
 24 25  1  0
 24 26  1  0
 24 27  1  0
 23 28  1  0
 28 29  1  0
 28 30  2  0
 30 31  1  0
  6 32  1  0
 32 33  1  0
 32 34  2  0
 34 35  1  0
 34  2  1  0
 11  7  1  0
 30 18  1  0
M  END
>  <cnnaffinity>  (1) 
-5.14174

>  <filename>  (1) 
FC(F)(F)c1ccc(CCn2nnnc2-c2cccnc2)cc1

$$$$
