
     RDKit          3D

 36 39  0  0  0  0  0  0  0  0999 V2000
    4.9903    1.8691   16.8766 H   0  0  0  0  0  0  0  0  0  0  0  0
    5.4156    1.3083   17.7089 C   0  0  0  0  0  0  0  0  0  0  0  0
    6.5576    0.6447   17.4710 N   0  0  0  0  0  0  0  0  0  0  0  0
    7.1260   -0.0098   18.4889 C   0  0  0  0  0  0  0  0  0  0  0  0
    8.0549   -0.5266   18.2569 H   0  0  0  0  0  0  0  0  0  0  0  0
    6.5973   -0.0414   19.7922 C   0  0  0  0  0  0  0  0  0  0  0  0
    7.3610   -0.6413   20.9050 C   0  0  0  0  0  0  0  0  0  0  0  0
    8.5037   -1.3142   20.6892 N   0  0  0  0  0  0  0  0  0  0  0  0
    8.9343   -1.5755   21.9398 N   0  0  0  0  0  0  0  0  0  0  0  0
   10.0371   -2.2190   22.4814 C   0  0  0  0  0  0  0  0  0  0  0  0
   10.7724   -2.6856   21.8560 H   0  0  0  0  0  0  0  0  0  0  0  0
    9.9078   -2.1001   23.8262 C   0  0  0  0  0  0  0  0  0  0  0  0
   10.5178   -2.4924   24.6202 H   0  0  0  0  0  0  0  0  0  0  0  0
    8.7449   -1.3881   24.1250 N   0  0  0  0  0  0  0  0  0  0  0  0
    8.2561   -1.0105   25.4054 C   0  0  0  0  0  0  0  0  0  0  0  0
    9.1326   -0.6660   26.4479 C   0  0  0  0  0  0  0  0  0  0  0  0
   10.2075   -0.6975   26.3071 H   0  0  0  0  0  0  0  0  0  0  0  0
    8.6155   -0.2237   27.6704 C   0  0  0  0  0  0  0  0  0  0  0  0
    9.2908    0.0187   28.4871 H   0  0  0  0  0  0  0  0  0  0  0  0
    7.2418   -0.0883   27.8491 C   0  0  0  0  0  0  0  0  0  0  0  0
    6.8182    0.3179   28.7620 H   0  0  0  0  0  0  0  0  0  0  0  0
    6.3841   -0.4494   26.8120 C   0  0  0  0  0  0  0  0  0  0  0  0
    5.0421   -0.1961   27.0783 O   0  0  0  0  0  0  0  0  0  0  0  0
    4.0390   -0.6710   26.3171 C   0  0  0  0  0  0  0  0  0  0  0  0
    3.9273   -0.0194   25.1450 F   0  0  0  0  0  0  0  0  0  0  0  0
    4.1465   -1.9811   26.0417 F   0  0  0  0  0  0  0  0  0  0  0  0
    2.9141   -0.4806   26.9976 F   0  0  0  0  0  0  0  0  0  0  0  0
    6.8635   -0.9461   25.6034 C   0  0  0  0  0  0  0  0  0  0  0  0
    6.1883   -1.2587   24.8140 H   0  0  0  0  0  0  0  0  0  0  0  0
    8.1390   -1.0884   22.9106 C   0  0  0  0  0  0  0  0  0  0  0  0
    7.0594   -0.4955   22.2796 C   0  0  0  0  0  0  0  0  0  0  0  0
    6.1731   -0.0579   22.7073 H   0  0  0  0  0  0  0  0  0  0  0  0
    5.3769    0.6218   20.0085 C   0  0  0  0  0  0  0  0  0  0  0  0
    4.9050    0.6131   20.9919 H   0  0  0  0  0  0  0  0  0  0  0  0
    4.7823    1.3099   18.9552 C   0  0  0  0  0  0  0  0  0  0  0  0
    3.8644    1.8697   19.0975 H   0  0  0  0  0  0  0  0  0  0  0  0
  1  2  1  0
  2  3  2  0
  3  4  1  0
  4  5  1  0
  4  6  2  0
  6  7  1  0
  7  8  2  0
  8  9  1  0
  9 10  1  0
 10 11  1  0
 10 12  2  0
 12 13  1  0
 12 14  1  0
 14 15  1  0
 15 16  2  0
 16 17  1  0
 16 18  1  0
 18 19  1  0
 18 20  2  0
 20 21  1  0
 20 22  1  0
 22 23  1  0
 23 24  1  0
 24 25  1  0
 24 26  1  0
 24 27  1  0
 22 28  2  0
 28 29  1  0
 14 30  1  0
 30 31  2  0
 31 32  1  0
  6 33  1  0
 33 34  1  0
 33 35  2  0
 35 36  1  0
 35  2  1  0
 31  7  1  0
 30  9  1  0
 28 15  1  0
M  END
>  <cnnaffinity>  (1) 
-5.46034

>  <filename>  (1) 
FC(F)(F)Oc1cccc(-n2ccn3nc(-c4cccnc4)cc23)c1

$$$$
