
     RDKit          3D

 36 38  0  0  0  0  0  0  0  0999 V2000
    4.9090    1.7946   16.9859 H   0  0  0  0  0  0  0  0  0  0  0  0
    5.3970    1.3004   17.8235 C   0  0  0  0  0  0  0  0  0  0  0  0
    6.5617    0.6886   17.5585 N   0  0  0  0  0  0  0  0  0  0  0  0
    7.1672    0.0568   18.5780 C   0  0  0  0  0  0  0  0  0  0  0  0
    8.1169   -0.4275   18.3480 H   0  0  0  0  0  0  0  0  0  0  0  0
    6.6565   -0.0237   19.9027 C   0  0  0  0  0  0  0  0  0  0  0  0
    7.2718   -0.7247   20.9808 N   0  0  0  0  0  0  0  0  0  0  0  0
    7.6758   -1.6191   20.7393 H   0  0  0  0  0  0  0  0  0  0  0  0
    8.1346    0.0056   21.9342 C   0  0  0  0  0  0  0  0  0  0  0  0
    7.3892    1.1807   22.5582 C   0  0  0  0  0  0  0  0  0  0  0  0
    6.5004    0.9667   23.6240 C   0  0  0  0  0  0  0  0  0  0  0  0
    6.3868   -0.0321   24.0411 H   0  0  0  0  0  0  0  0  0  0  0  0
    5.7530    2.0124   24.1604 C   0  0  0  0  0  0  0  0  0  0  0  0
    5.0901    1.8168   24.9995 H   0  0  0  0  0  0  0  0  0  0  0  0
    5.8616    3.3036   23.6156 C   0  0  0  0  0  0  0  0  0  0  0  0
    5.0843    4.4535   24.2212 C   0  0  0  0  0  0  0  0  0  0  0  0
    5.7827    5.0588   25.2032 F   0  0  0  0  0  0  0  0  0  0  0  0
    3.9200    4.0507   24.7695 F   0  0  0  0  0  0  0  0  0  0  0  0
    4.7859    5.4063   23.3173 F   0  0  0  0  0  0  0  0  0  0  0  0
    6.7374    3.5312   22.5409 C   0  0  0  0  0  0  0  0  0  0  0  0
    6.8319    4.5233   22.1022 H   0  0  0  0  0  0  0  0  0  0  0  0
    7.4857    2.4781   22.0220 C   0  0  0  0  0  0  0  0  0  0  0  0
    8.1312    2.6667   21.1673 H   0  0  0  0  0  0  0  0  0  0  0  0
    8.7637   -0.9803   22.9508 C   0  0  0  0  0  0  0  0  0  0  0  0
    8.6384   -0.6694   23.9898 H   0  0  0  0  0  0  0  0  0  0  0  0
    8.3863   -2.0027   22.8547 H   0  0  0  0  0  0  0  0  0  0  0  0
   10.1798   -0.7120   22.3892 C   0  0  0  0  0  0  0  0  0  0  0  0
   10.6531   -1.5765   21.9094 H   0  0  0  0  0  0  0  0  0  0  0  0
   10.8903   -0.3009   23.1142 H   0  0  0  0  0  0  0  0  0  0  0  0
    9.5745    0.3254   21.4099 C   0  0  0  0  0  0  0  0  0  0  0  0
    9.9000    1.3526   21.5985 H   0  0  0  0  0  0  0  0  0  0  0  0
    9.7081    0.1132   20.3460 H   0  0  0  0  0  0  0  0  0  0  0  0
    5.4421    0.6367   20.1456 C   0  0  0  0  0  0  0  0  0  0  0  0
    5.0535    0.6240   21.1664 H   0  0  0  0  0  0  0  0  0  0  0  0
    4.8077    1.3049   19.0932 C   0  0  0  0  0  0  0  0  0  0  0  0
    3.8788    1.8381   19.2556 H   0  0  0  0  0  0  0  0  0  0  0  0
  1  2  1  0
  2  3  2  0
  3  4  1  0
  4  5  1  0
  4  6  2  0
  6  7  1  0
  7  8  1  0
  7  9  1  0
  9 10  1  0
 10 11  2  0
 11 12  1  0
 11 13  1  0
 13 14  1  0
 13 15  2  0
 15 16  1  0
 16 17  1  0
 16 18  1  0
 16 19  1  0
 15 20  1  0
 20 21  1  0
 20 22  2  0
 22 23  1  0
  9 24  1  0
 24 25  1  0
 24 26  1  0
 24 27  1  0
 27 28  1  0
 27 29  1  0
 27 30  1  0
 30 31  1  0
 30 32  1  0
  6 33  1  0
 33 34  1  0
 33 35  2  0
 35 36  1  0
 35  2  1  0
 30  9  1  0
 22 10  1  0
M  END
>  <cnnaffinity>  (1) 
-4.98197

>  <filename>  (1) 
FC(F)(F)c1ccc(C2(Nc3cccnc3)CCC2)cc1

$$$$
