
     RDKit          3D

 25 27  0  0  0  0  0  0  0  0999 V2000
    4.9603    1.8033   16.9772 H   0  0  0  0  0  0  0  0  0  0  0  0
    5.4073    1.2888   17.8276 C   0  0  0  0  0  0  0  0  0  0  0  0
    6.5654    0.6552   17.5885 N   0  0  0  0  0  0  0  0  0  0  0  0
    7.1559    0.0220   18.6036 C   0  0  0  0  0  0  0  0  0  0  0  0
    8.1070   -0.4534   18.3669 H   0  0  0  0  0  0  0  0  0  0  0  0
    6.6220   -0.0194   19.9019 C   0  0  0  0  0  0  0  0  0  0  0  0
    7.3356   -0.7067   20.9717 C   0  0  0  0  0  0  0  0  0  0  0  0
    8.1218   -1.8089   20.7327 N   0  0  0  0  0  0  0  0  0  0  0  0
    8.5654   -2.1288   21.9158 C   0  0  0  0  0  0  0  0  0  0  0  0
    9.5135   -3.4017   22.6001 S   0  0  0  0  0  0  0  0  0  0  0  0
    9.5580   -2.5898   24.1421 C   0  0  0  0  0  0  0  0  0  0  0  0
   10.1419   -3.0374   24.9361 H   0  0  0  0  0  0  0  0  0  0  0  0
    8.8145   -1.4700   24.1436 C   0  0  0  0  0  0  0  0  0  0  0  0
    8.6439   -0.7635   24.9477 H   0  0  0  0  0  0  0  0  0  0  0  0
    8.2069   -1.2544   22.9086 N   0  0  0  0  0  0  0  0  0  0  0  0
    7.4089   -0.2956   22.3090 C   0  0  0  0  0  0  0  0  0  0  0  0
    7.0337    1.2134   23.1177 S   0  0  0  0  0  0  0  0  0  0  0  0
    8.4962    2.2308   22.6462 C   0  0  0  0  0  0  0  0  0  0  0  0
    9.6217    1.7080   23.1255 F   0  0  0  0  0  0  0  0  0  0  0  0
    8.6020    2.3143   21.3193 F   0  0  0  0  0  0  0  0  0  0  0  0
    8.3199    3.4460   23.1539 F   0  0  0  0  0  0  0  0  0  0  0  0
    5.4137    0.6522   20.1422 C   0  0  0  0  0  0  0  0  0  0  0  0
    4.9770    0.6663   21.1439 H   0  0  0  0  0  0  0  0  0  0  0  0
    4.7958    1.3100   19.0847 C   0  0  0  0  0  0  0  0  0  0  0  0
    3.8657    1.8503   19.2206 H   0  0  0  0  0  0  0  0  0  0  0  0
  1  2  1  0
  2  3  2  0
  3  4  1  0
  4  5  1  0
  4  6  2  0
  6  7  1  0
  7  8  1  0
  8  9  2  0
  9 10  1  0
 10 11  1  0
 11 12  1  0
 11 13  2  0
 13 14  1  0
 13 15  1  0
 15 16  1  0
 16 17  1  0
 17 18  1  0
 18 19  1  0
 18 20  1  0
 18 21  1  0
  6 22  1  0
 22 23  1  0
 22 24  2  0
 24 25  1  0
 24  2  1  0
 16  7  2  0
 15  9  1  0
M  END
>  <cnnaffinity>  (1) 
-5.47052

>  <filename>  (1) 
FC(F)(F)Sc1c(-c2cccnc2)nc2sccn12

$$$$
