
     RDKit          3D

 41 44  0  0  0  0  0  0  0  0999 V2000
    4.9670    1.8074   16.9866 H   0  0  0  0  0  0  0  0  0  0  0  0
    5.4738    1.4177   17.8642 C   0  0  0  0  0  0  0  0  0  0  0  0
    6.6654    0.8418   17.6472 N   0  0  0  0  0  0  0  0  0  0  0  0
    7.2909    0.3316   18.7142 C   0  0  0  0  0  0  0  0  0  0  0  0
    8.2709   -0.1024   18.5088 H   0  0  0  0  0  0  0  0  0  0  0  0
    6.7844    0.3363   20.0346 C   0  0  0  0  0  0  0  0  0  0  0  0
    7.5633   -0.3287   21.1882 C   0  0  2  0  0  0  0  0  0  0  0  0
    8.5178    0.7411   21.8311 C   0  0  0  0  0  0  0  0  0  0  0  0
    9.6353    1.0674   21.0237 C   0  0  0  0  0  0  0  0  0  0  0  0
    9.6653    0.6996   20.0042 H   0  0  0  0  0  0  0  0  0  0  0  0
   10.7269    1.7996   21.4862 C   0  0  0  0  0  0  0  0  0  0  0  0
   11.6018    1.9407   20.8578 H   0  0  0  0  0  0  0  0  0  0  0  0
   10.6962    2.3304   22.7747 C   0  0  0  0  0  0  0  0  0  0  0  0
   11.5340    2.9063   23.1594 H   0  0  0  0  0  0  0  0  0  0  0  0
    9.5532    2.1502   23.5476 C   0  0  0  0  0  0  0  0  0  0  0  0
    9.4956    2.6311   24.5202 H   0  0  0  0  0  0  0  0  0  0  0  0
    8.4405    1.4183   23.0802 C   0  0  0  0  0  0  0  0  0  0  0  0
    7.2327    1.4208   24.0112 C   0  0  0  0  0  0  0  0  0  0  0  0
    6.0508    1.4868   23.3588 F   0  0  0  0  0  0  0  0  0  0  0  0
    7.2296    2.4697   24.8616 F   0  0  0  0  0  0  0  0  0  0  0  0
    7.2019    0.3154   24.7878 F   0  0  0  0  0  0  0  0  0  0  0  0
    8.4090   -1.5824   20.6712 C   0  0  0  0  0  0  0  0  0  0  0  0
    8.0138   -1.8021   19.6866 H   0  0  0  0  0  0  0  0  0  0  0  0
    9.4787   -1.3990   20.5606 H   0  0  0  0  0  0  0  0  0  0  0  0
    8.1344   -2.7560   21.6352 C   0  0  2  0  0  0  0  0  0  0  0  0
    8.9887   -3.4344   21.7250 H   0  0  0  0  0  0  0  0  0  0  0  0
    6.8212   -3.4400   21.2396 C   0  0  0  0  0  0  0  0  0  0  0  0
    6.8172   -3.8609   20.2277 H   0  0  0  0  0  0  0  0  0  0  0  0
    6.6153   -4.2659   21.9337 H   0  0  0  0  0  0  0  0  0  0  0  0
    5.8176   -2.2659   21.4180 C   0  0  0  0  0  0  0  0  0  0  0  0
    5.4587   -1.9023   20.4477 H   0  0  0  0  0  0  0  0  0  0  0  0
    4.9548   -2.5991   22.0038 H   0  0  0  0  0  0  0  0  0  0  0  0
    6.6504   -1.1579   22.1684 C   0  0  1  0  0  0  0  0  0  0  0  0
    6.0300   -0.5129   22.7691 H   0  0  0  0  0  0  0  0  0  0  0  0
    7.6857   -2.0216   22.9082 C   0  0  0  0  0  0  0  0  0  0  0  0
    8.4895   -1.4313   23.3589 H   0  0  0  0  0  0  0  0  0  0  0  0
    7.2357   -2.6635   23.6805 H   0  0  0  0  0  0  0  0  0  0  0  0
    5.5730    1.0151   20.2414 C   0  0  0  0  0  0  0  0  0  0  0  0
    5.1698    1.1461   21.2457 H   0  0  0  0  0  0  0  0  0  0  0  0
    4.9024    1.5413   19.1331 C   0  0  0  0  0  0  0  0  0  0  0  0
    3.9550    2.0505   19.2512 H   0  0  0  0  0  0  0  0  0  0  0  0
  1  2  1  0
  2  3  2  0
  3  4  1  0
  4  5  1  0
  4  6  2  0
  7  6  1  6
  7  8  1  0
  8  9  2  0
  9 10  1  0
  9 11  1  0
 11 12  1  0
 11 13  2  0
 13 14  1  0
 13 15  1  0
 15 16  1  0
 15 17  2  0
 17 18  1  0
 18 19  1  0
 18 20  1  0
 18 21  1  0
  7 22  1  0
 22 23  1  0
 22 24  1  0
 22 25  1  0
 25 26  1  1
 25 27  1  0
 27 28  1  0
 27 29  1  0
 27 30  1  0
 30 31  1  0
 30 32  1  0
 30 33  1  0
 33 34  1  1
 33 35  1  0
 35 36  1  0
 35 37  1  0
  6 38  1  0
 38 39  1  0
 38 40  2  0
 40 41  1  0
 40  2  1  0
 33  7  1  0
 17  8  1  0
 35 25  1  0
M  END
>  <cnnaffinity>  (1) 
-5.24071

>  <filename>  (1) 
FC(F)(F)c1ccccc1[C@@]1(c2cccnc2)C[C@@H]2CC[C@H]1C2

$$$$
