
     RDKit          3D

 23 24  0  0  0  0  0  0  0  0999 V2000
    4.9344    1.7759   17.0029 H   0  0  0  0  0  0  0  0  0  0  0  0
    5.4115    1.2848   17.8498 C   0  0  0  0  0  0  0  0  0  0  0  0
    6.5756    0.6648   17.6035 N   0  0  0  0  0  0  0  0  0  0  0  0
    7.1698    0.0412   18.6245 C   0  0  0  0  0  0  0  0  0  0  0  0
    8.1149   -0.4437   18.3792 H   0  0  0  0  0  0  0  0  0  0  0  0
    6.6546    0.0146   19.9200 C   0  0  0  0  0  0  0  0  0  0  0  0
    7.3939   -0.7205   20.9647 C   0  0  0  0  0  0  0  0  0  0  0  0
    7.4898   -2.0409   20.7699 N   0  0  0  0  0  0  0  0  0  0  0  0
    8.0603   -2.7716   21.7325 C   0  0  0  0  0  0  0  0  0  0  0  0
    8.0976   -3.8398   21.5511 H   0  0  0  0  0  0  0  0  0  0  0  0
    8.6014   -2.2363   22.9025 C   0  0  0  0  0  0  0  0  0  0  0  0
    9.0718   -2.8787   23.6350 H   0  0  0  0  0  0  0  0  0  0  0  0
    8.5526   -0.8646   23.0955 C   0  0  0  0  0  0  0  0  0  0  0  0
    8.9718   -0.3940   23.9909 H   0  0  0  0  0  0  0  0  0  0  0  0
    7.9561   -0.0956   22.0924 C   0  0  0  0  0  0  0  0  0  0  0  0
    7.8863    1.3982   22.2360 C   0  0  0  0  0  0  0  0  0  0  0  0
    8.8072    1.8573   23.1059 F   0  0  0  0  0  0  0  0  0  0  0  0
    8.0805    2.0517   21.0776 F   0  0  0  0  0  0  0  0  0  0  0  0
    6.6836    1.7957   22.7071 F   0  0  0  0  0  0  0  0  0  0  0  0
    5.4355    0.6503   20.1722 C   0  0  0  0  0  0  0  0  0  0  0  0
    4.9904    0.6426   21.1694 H   0  0  0  0  0  0  0  0  0  0  0  0
    4.8059    1.3005   19.1100 C   0  0  0  0  0  0  0  0  0  0  0  0
    3.8776    1.8390   19.2557 H   0  0  0  0  0  0  0  0  0  0  0  0
  1  2  1  0
  2  3  2  0
  3  4  1  0
  4  5  1  0
  4  6  2  0
  6  7  1  0
  7  8  2  0
  8  9  1  0
  9 10  1  0
  9 11  2  0
 11 12  1  0
 11 13  1  0
 13 14  1  0
 13 15  2  0
 15 16  1  0
 16 17  1  0
 16 18  1  0
 16 19  1  0
  6 20  1  0
 20 21  1  0
 20 22  2  0
 22 23  1  0
 22  2  1  0
 15  7  1  0
M  END
>  <cnnaffinity>  (1) 
-4.60757

>  <filename>  (1) 
FC(F)(F)c1cccnc1-c1cccnc1

$$$$
