
     RDKit          3D

 26 27  0  0  0  0  0  0  0  0999 V2000
    6.6469   -0.4201   21.8295 H   0  0  0  0  0  0  0  0  0  0  0  0
    7.1776   -0.4775   20.8654 C   0  0  0  0  0  0  0  0  0  0  0  0
    8.3214   -1.0445   20.7740 N   0  0  0  0  0  0  0  0  0  0  0  0
    8.8290   -1.7741   21.8835 C   0  0  0  0  0  0  0  0  0  0  0  0
    8.0509   -2.4015   22.8930 C   0  0  0  0  0  0  0  0  0  0  0  0
    6.9732   -2.3183   22.8879 H   0  0  0  0  0  0  0  0  0  0  0  0
    8.5501   -3.1769   23.8466 N   0  0  0  0  0  0  0  0  0  0  0  0
    9.8731   -3.4036   23.8766 C   0  0  0  0  0  0  0  0  0  0  0  0
   10.3209   -4.4133   24.9480 C   0  0  0  0  0  0  0  0  0  0  0  0
   10.1822   -3.9210   26.1907 F   0  0  0  0  0  0  0  0  0  0  0  0
    9.6063   -5.5487   24.8921 F   0  0  0  0  0  0  0  0  0  0  0  0
   11.6086   -4.7670   24.7967 F   0  0  0  0  0  0  0  0  0  0  0  0
   10.7482   -2.7893   22.9602 C   0  0  0  0  0  0  0  0  0  0  0  0
   11.8180   -2.9746   22.9855 H   0  0  0  0  0  0  0  0  0  0  0  0
   10.2191   -1.9652   21.9642 C   0  0  0  0  0  0  0  0  0  0  0  0
   10.8437   -1.4727   21.2206 H   0  0  0  0  0  0  0  0  0  0  0  0
    6.4882    0.1723   19.7572 C   0  0  0  0  0  0  0  0  0  0  0  0
    7.0264    0.1725   18.4606 C   0  0  0  0  0  0  0  0  0  0  0  0
    7.9594   -0.3463   18.2527 H   0  0  0  0  0  0  0  0  0  0  0  0
    6.4443    0.7853   17.4289 N   0  0  0  0  0  0  0  0  0  0  0  0
    5.2899    1.4316   17.6528 C   0  0  0  0  0  0  0  0  0  0  0  0
    4.8519    1.9387   16.7964 H   0  0  0  0  0  0  0  0  0  0  0  0
    4.6537    1.4702   18.8981 C   0  0  0  0  0  0  0  0  0  0  0  0
    3.7180    2.0080   19.0127 H   0  0  0  0  0  0  0  0  0  0  0  0
    5.2626    0.8259   19.9703 C   0  0  0  0  0  0  0  0  0  0  0  0
    4.7988    0.8336   20.9574 H   0  0  0  0  0  0  0  0  0  0  0  0
  1  2  1  0
  2  3  2  3
  3  4  1  0
  4  5  2  0
  5  6  1  0
  5  7  1  0
  7  8  2  0
  8  9  1  0
  9 10  1  0
  9 11  1  0
  9 12  1  0
  8 13  1  0
 13 14  1  0
 13 15  2  0
 15 16  1  0
  2 17  1  0
 17 18  2  0
 18 19  1  0
 18 20  1  0
 20 21  2  0
 21 22  1  0
 21 23  1  0
 23 24  1  0
 23 25  2  0
 25 26  1  0
 15  4  1  0
 25 17  1  0
M  END
>  <cnnaffinity>  (1) 
-5.0931

>  <filename>  (1) 
FC(F)(F)c1ccc(N=Cc2cccnc2)cn1

$$$$
