
     RDKit          3D

 34 36  0  0  0  0  0  0  0  0999 V2000
    4.9519    1.7741   17.0142 H   0  0  0  0  0  0  0  0  0  0  0  0
    5.4408    1.2666   17.8409 C   0  0  0  0  0  0  0  0  0  0  0  0
    6.5937    0.6392   17.5534 N   0  0  0  0  0  0  0  0  0  0  0  0
    7.2139    0.0012   18.5521 C   0  0  0  0  0  0  0  0  0  0  0  0
    8.1655   -0.4704   18.3131 H   0  0  0  0  0  0  0  0  0  0  0  0
    6.7079   -0.0671   19.8720 C   0  0  0  0  0  0  0  0  0  0  0  0
    7.4427   -0.7263   20.9206 N   0  0  0  0  0  0  0  0  0  0  0  0
    7.0774   -1.8259   21.7018 C   0  0  0  0  0  0  0  0  0  0  0  0
    5.7822   -2.5658   21.5530 C   0  0  0  0  0  0  0  0  0  0  0  0
    4.9811   -1.8295   21.5803 H   0  0  0  0  0  0  0  0  0  0  0  0
    5.7441   -2.9854   20.5416 H   0  0  0  0  0  0  0  0  0  0  0  0
    5.5601   -3.6699   22.5705 C   0  0  0  0  0  0  0  0  0  0  0  0
    5.8676   -4.9905   22.2214 C   0  0  0  0  0  0  0  0  0  0  0  0
    6.2689   -5.1881   21.2323 H   0  0  0  0  0  0  0  0  0  0  0  0
    5.6540   -6.0519   23.1021 C   0  0  0  0  0  0  0  0  0  0  0  0
    5.9303   -7.0587   22.7949 H   0  0  0  0  0  0  0  0  0  0  0  0
    5.0689   -5.8035   24.3564 C   0  0  0  0  0  0  0  0  0  0  0  0
    4.8340   -6.9414   25.3226 C   0  0  0  0  0  0  0  0  0  0  0  0
    5.9183   -7.1765   26.0854 F   0  0  0  0  0  0  0  0  0  0  0  0
    4.5508   -8.0820   24.6640 F   0  0  0  0  0  0  0  0  0  0  0  0
    3.8088   -6.7145   26.1665 F   0  0  0  0  0  0  0  0  0  0  0  0
    4.7470   -4.4894   24.7185 C   0  0  0  0  0  0  0  0  0  0  0  0
    4.2365   -4.2813   25.6592 H   0  0  0  0  0  0  0  0  0  0  0  0
    5.0415   -3.4356   23.8521 C   0  0  0  0  0  0  0  0  0  0  0  0
    4.8907   -2.4271   24.2220 H   0  0  0  0  0  0  0  0  0  0  0  0
    8.0205   -2.1478   22.5341 N   0  0  0  0  0  0  0  0  0  0  0  0
    8.9972   -1.2288   22.2974 N   0  0  0  0  0  0  0  0  0  0  0  0
    9.8420   -1.1696   22.8406 H   0  0  0  0  0  0  0  0  0  0  0  0
    8.6966   -0.3214   21.3510 C   0  0  0  0  0  0  0  0  0  0  0  0
    9.6238    0.9658   20.8634 S   0  0  0  0  0  0  0  0  0  0  0  0
    5.5211    0.6123   20.1602 C   0  0  0  0  0  0  0  0  0  0  0  0
    5.1434    0.6419   21.1854 H   0  0  0  0  0  0  0  0  0  0  0  0
    4.8721    1.2849   19.1181 C   0  0  0  0  0  0  0  0  0  0  0  0
    3.9458    1.8234   19.2928 H   0  0  0  0  0  0  0  0  0  0  0  0
  1  2  1  0
  2  3  2  0
  3  4  1  0
  4  5  1  0
  4  6  2  0
  6  7  1  0
  7  8  1  0
  8  9  1  0
  9 10  1  0
  9 11  1  0
  9 12  1  0
 12 13  2  0
 13 14  1  0
 13 15  1  0
 15 16  1  0
 15 17  2  0
 17 18  1  0
 18 19  1  0
 18 20  1  0
 18 21  1  0
 17 22  1  0
 22 23  1  0
 22 24  2  0
 24 25  1  0
  8 26  2  0
 26 27  1  0
 27 28  1  0
 27 29  1  0
 29 30  2  0
  6 31  1  0
 31 32  1  0
 31 33  2  0
 33 34  1  0
 33  2  1  0
 29  7  1  0
 24 12  1  0
M  END
>  <cnnaffinity>  (1) 
-4.80156

>  <filename>  (1) 
FC(F)(F)c1ccc(Cc2n[nH]c(=S)n2-c2cccnc2)cc1

$$$$
