
     RDKit          3D

 32 34  0  0  0  0  0  0  0  0999 V2000
    4.9241    1.7740   17.0021 H   0  0  0  0  0  0  0  0  0  0  0  0
    5.4100    1.2887   17.8466 C   0  0  0  0  0  0  0  0  0  0  0  0
    6.5764    0.6700   17.6024 N   0  0  0  0  0  0  0  0  0  0  0  0
    7.1769    0.0537   18.6233 C   0  0  0  0  0  0  0  0  0  0  0  0
    8.1177   -0.4387   18.3885 H   0  0  0  0  0  0  0  0  0  0  0  0
    6.6540    0.0306   19.9189 C   0  0  0  0  0  0  0  0  0  0  0  0
    7.3863   -0.7172   20.9529 C   0  0  0  0  0  0  0  0  0  0  0  0
    8.0063   -1.7995   20.6944 N   0  0  0  0  0  0  0  0  0  0  0  0
    8.5091   -2.3401   21.9541 C   0  0  0  0  0  0  0  0  0  0  0  0
    8.1320   -3.3566   22.1127 H   0  0  0  0  0  0  0  0  0  0  0  0
    9.6012   -2.4065   21.9108 H   0  0  0  0  0  0  0  0  0  0  0  0
    8.0411   -1.3828   23.0656 C   0  0  0  0  0  0  0  0  0  0  0  0
    7.3477   -1.8637   23.7696 H   0  0  0  0  0  0  0  0  0  0  0  0
    8.8787   -0.9757   23.6450 H   0  0  0  0  0  0  0  0  0  0  0  0
    7.3821   -0.3236   22.2950 N   0  0  0  0  0  0  0  0  0  0  0  0
    7.1676    0.9683   22.8357 C   0  0  0  0  0  0  0  0  0  0  0  0
    6.5841    1.1607   24.1129 C   0  0  0  0  0  0  0  0  0  0  0  0
    6.2736    0.3082   24.7070 H   0  0  0  0  0  0  0  0  0  0  0  0
    6.3690    2.3555   24.6655 N   0  0  0  0  0  0  0  0  0  0  0  0
    6.7308    3.4555   23.9787 C   0  0  0  0  0  0  0  0  0  0  0  0
    6.4960    4.8404   24.6065 C   0  0  0  0  0  0  0  0  0  0  0  0
    5.7448    5.6214   23.8004 F   0  0  0  0  0  0  0  0  0  0  0  0
    7.6610    5.5053   24.7694 F   0  0  0  0  0  0  0  0  0  0  0  0
    5.8915    4.8058   25.7981 F   0  0  0  0  0  0  0  0  0  0  0  0
    7.3319    3.3773   22.7061 C   0  0  0  0  0  0  0  0  0  0  0  0
    7.6196    4.2784   22.1716 H   0  0  0  0  0  0  0  0  0  0  0  0
    7.5556    2.1261   22.1378 C   0  0  0  0  0  0  0  0  0  0  0  0
    8.0138    2.0273   21.1554 H   0  0  0  0  0  0  0  0  0  0  0  0
    5.4249    0.6569   20.1624 C   0  0  0  0  0  0  0  0  0  0  0  0
    4.9918    0.6433   21.1666 H   0  0  0  0  0  0  0  0  0  0  0  0
    4.8009    1.3087   19.1066 C   0  0  0  0  0  0  0  0  0  0  0  0
    3.8703    1.8444   19.2576 H   0  0  0  0  0  0  0  0  0  0  0  0
  1  2  1  0
  2  3  2  0
  3  4  1  0
  4  5  1  0
  4  6  2  0
  6  7  1  0
  7  8  2  0
  8  9  1  0
  9 10  1  0
  9 11  1  0
  9 12  1  0
 12 13  1  0
 12 14  1  0
 12 15  1  0
 15 16  1  0
 16 17  2  0
 17 18  1  0
 17 19  1  0
 19 20  2  0
 20 21  1  0
 21 22  1  0
 21 23  1  0
 21 24  1  0
 20 25  1  0
 25 26  1  0
 25 27  2  0
 27 28  1  0
  6 29  1  0
 29 30  1  0
 29 31  2  0
 31 32  1  0
 31  2  1  0
 15  7  1  0
 27 16  1  0
M  END
>  <cnnaffinity>  (1) 
-5.27237

>  <filename>  (1) 
FC(F)(F)c1ccc(N2CCN=C2c2cccnc2)cn1

$$$$
