
     RDKit          3D

 31 33  0  0  0  0  0  0  0  0999 V2000
    9.0051   -2.4281   23.9401 H   0  0  0  0  0  0  0  0  0  0  0  0
    8.5639   -1.8807   23.1103 C   0  0  0  0  0  0  0  0  0  0  0  0
    8.7919   -2.3590   21.8755 N   0  0  0  0  0  0  0  0  0  0  0  0
    8.2385   -1.6620   20.8703 C   0  0  0  0  0  0  0  0  0  0  0  0
    8.5059   -1.9576   19.8724 H   0  0  0  0  0  0  0  0  0  0  0  0
    7.3788   -0.5515   21.0732 C   0  0  0  0  0  0  0  0  0  0  0  0
    6.6390    0.1181   19.9719 C   0  0  0  0  0  0  0  0  0  0  0  0
    7.1709    0.0993   18.6741 C   0  0  0  0  0  0  0  0  0  0  0  0
    8.1266   -0.3897   18.4735 H   0  0  0  0  0  0  0  0  0  0  0  0
    6.5757    0.6634   17.6208 N   0  0  0  0  0  0  0  0  0  0  0  0
    5.4064    1.2821   17.8384 C   0  0  0  0  0  0  0  0  0  0  0  0
    4.9746    1.7792   16.9767 H   0  0  0  0  0  0  0  0  0  0  0  0
    4.7657    1.3321   19.0819 C   0  0  0  0  0  0  0  0  0  0  0  0
    3.8135    1.8483   19.1825 H   0  0  0  0  0  0  0  0  0  0  0  0
    5.3972    0.7440   20.1784 C   0  0  0  0  0  0  0  0  0  0  0  0
    4.9532    0.7659   21.1769 H   0  0  0  0  0  0  0  0  0  0  0  0
    7.1768   -0.0844   22.3113 N   0  0  0  0  0  0  0  0  0  0  0  0
    7.8012   -0.7211   23.3299 C   0  0  0  0  0  0  0  0  0  0  0  0
    7.6707   -0.1813   24.7183 C   0  0  0  0  0  0  0  0  0  0  0  0
    6.6329    0.6299   24.9257 N   0  0  0  0  0  0  0  0  0  0  0  0
    6.4499    1.1921   26.1175 C   0  0  0  0  0  0  0  0  0  0  0  0
    5.2529    2.1593   26.2457 C   0  0  0  0  0  0  0  0  0  0  0  0
    4.3963    1.7376   27.1995 F   0  0  0  0  0  0  0  0  0  0  0  0
    4.5482    2.3078   25.1195 F   0  0  0  0  0  0  0  0  0  0  0  0
    5.6744    3.3870   26.6187 F   0  0  0  0  0  0  0  0  0  0  0  0
    7.3013    0.9491   27.2063 C   0  0  0  0  0  0  0  0  0  0  0  0
    7.1132    1.4208   28.1661 H   0  0  0  0  0  0  0  0  0  0  0  0
    8.3879    0.0907   27.0057 C   0  0  0  0  0  0  0  0  0  0  0  0
    9.0750   -0.1297   27.8225 H   0  0  0  0  0  0  0  0  0  0  0  0
    8.5846   -0.4860   25.7495 C   0  0  0  0  0  0  0  0  0  0  0  0
    9.4357   -1.1337   25.5793 H   0  0  0  0  0  0  0  0  0  0  0  0
  1  2  1  0
  2  3  2  0
  3  4  1  0
  4  5  1  0
  4  6  2  0
  6  7  1  0
  7  8  2  0
  8  9  1  0
  8 10  1  0
 10 11  2  0
 11 12  1  0
 11 13  1  0
 13 14  1  0
 13 15  2  0
 15 16  1  0
  6 17  1  0
 17 18  2  0
 18 19  1  0
 19 20  2  0
 20 21  1  0
 21 22  1  0
 22 23  1  0
 22 24  1  0
 22 25  1  0
 21 26  2  0
 26 27  1  0
 26 28  1  0
 28 29  1  0
 28 30  2  0
 30 31  1  0
 18  2  1  0
 30 19  1  0
 15  7  1  0
M  END
>  <cnnaffinity>  (1) 
-5.54574

>  <filename>  (1) 
FC(F)(F)c1cccc(-c2cncc(-c3cccnc3)n2)n1

$$$$
