
     RDKit          3D

 36 38  0  0  0  0  0  0  0  0999 V2000
    4.9257    1.7765   17.0035 H   0  0  0  0  0  0  0  0  0  0  0  0
    5.4082    1.2868   17.8473 C   0  0  0  0  0  0  0  0  0  0  0  0
    6.5728    0.6740   17.5925 N   0  0  0  0  0  0  0  0  0  0  0  0
    7.1742    0.0425   18.6037 C   0  0  0  0  0  0  0  0  0  0  0  0
    8.1213   -0.4343   18.3687 H   0  0  0  0  0  0  0  0  0  0  0  0
    6.6597   -0.0112   19.9075 C   0  0  0  0  0  0  0  0  0  0  0  0
    7.4060   -0.7299   20.9618 C   0  0  0  0  0  0  0  0  0  0  0  0
    8.0997   -1.8160   20.5926 N   0  0  0  0  0  0  0  0  0  0  0  0
    8.7284   -2.5008   21.5515 C   0  0  0  0  0  0  0  0  0  0  0  0
    9.2544   -3.3878   21.2256 H   0  0  0  0  0  0  0  0  0  0  0  0
    8.7598   -2.1239   22.8893 C   0  0  0  0  0  0  0  0  0  0  0  0
    9.3025   -2.7235   23.6115 H   0  0  0  0  0  0  0  0  0  0  0  0
    8.0960   -0.9594   23.2737 C   0  0  0  0  0  0  0  0  0  0  0  0
    8.0398   -0.5229   24.7171 C   0  0  0  0  0  0  0  0  0  0  0  0
    8.9649   -0.8255   25.2181 H   0  0  0  0  0  0  0  0  0  0  0  0
    8.0089    0.5710   24.7626 H   0  0  0  0  0  0  0  0  0  0  0  0
    6.8389   -1.1155   25.4167 C   0  0  0  0  0  0  0  0  0  0  0  0
    5.6067   -0.4495   25.3967 C   0  0  0  0  0  0  0  0  0  0  0  0
    5.5252    0.5172   24.9057 H   0  0  0  0  0  0  0  0  0  0  0  0
    4.4809   -1.0126   25.9868 C   0  0  0  0  0  0  0  0  0  0  0  0
    3.5382   -0.4677   25.9815 H   0  0  0  0  0  0  0  0  0  0  0  0
    4.5744   -2.2775   26.5909 C   0  0  0  0  0  0  0  0  0  0  0  0
    3.3713   -2.8713   27.2886 C   0  0  0  0  0  0  0  0  0  0  0  0
    3.3827   -4.2193   27.2803 F   0  0  0  0  0  0  0  0  0  0  0  0
    2.2072   -2.4863   26.7266 F   0  0  0  0  0  0  0  0  0  0  0  0
    3.3144   -2.4953   28.5823 F   0  0  0  0  0  0  0  0  0  0  0  0
    5.8028   -2.9601   26.6082 C   0  0  0  0  0  0  0  0  0  0  0  0
    5.8905   -3.9333   27.0891 H   0  0  0  0  0  0  0  0  0  0  0  0
    6.9169   -2.3808   26.0120 C   0  0  0  0  0  0  0  0  0  0  0  0
    7.8606   -2.9214   26.0070 H   0  0  0  0  0  0  0  0  0  0  0  0
    7.3967   -0.2732   22.2842 C   0  0  0  0  0  0  0  0  0  0  0  0
    6.8523    0.6305   22.5203 H   0  0  0  0  0  0  0  0  0  0  0  0
    5.4467    0.6472   20.1644 C   0  0  0  0  0  0  0  0  0  0  0  0
    4.9979    0.6339   21.1620 H   0  0  0  0  0  0  0  0  0  0  0  0
    4.8111    1.3021   19.1123 C   0  0  0  0  0  0  0  0  0  0  0  0
    3.8802    1.8387   19.2608 H   0  0  0  0  0  0  0  0  0  0  0  0
  1  2  1  0
  2  3  2  0
  3  4  1  0
  4  5  1  0
  4  6  2  0
  6  7  1  0
  7  8  2  0
  8  9  1  0
  9 10  1  0
  9 11  2  0
 11 12  1  0
 11 13  1  0
 13 14  1  0
 14 15  1  0
 14 16  1  0
 14 17  1  0
 17 18  2  0
 18 19  1  0
 18 20  1  0
 20 21  1  0
 20 22  2  0
 22 23  1  0
 23 24  1  0
 23 25  1  0
 23 26  1  0
 22 27  1  0
 27 28  1  0
 27 29  2  0
 29 30  1  0
 13 31  2  0
 31 32  1  0
  6 33  1  0
 33 34  1  0
 33 35  2  0
 35 36  1  0
 35  2  1  0
 31  7  1  0
 29 17  1  0
M  END
>  <cnnaffinity>  (1) 
-5.21024

>  <filename>  (1) 
FC(F)(F)c1ccc(Cc2ccnc(-c3cccnc3)c2)cc1

$$$$
