
     RDKit          3D

 31 33  0  0  0  0  0  0  0  0999 V2000
    4.9177    1.7893   16.9982 H   0  0  0  0  0  0  0  0  0  0  0  0
    5.3981    1.2907   17.8387 C   0  0  0  0  0  0  0  0  0  0  0  0
    6.5520    0.6639   17.5694 N   0  0  0  0  0  0  0  0  0  0  0  0
    7.1912    0.0603   18.5792 C   0  0  0  0  0  0  0  0  0  0  0  0
    8.1375   -0.4151   18.3470 H   0  0  0  0  0  0  0  0  0  0  0  0
    6.6952    0.0260   19.8997 C   0  0  0  0  0  0  0  0  0  0  0  0
    7.2935   -0.6894   20.9504 O   0  0  0  0  0  0  0  0  0  0  0  0
    8.6238   -0.7741   21.0903 C   0  0  0  0  0  0  0  0  0  0  0  0
    9.5470   -0.0865   20.4697 N   0  0  0  0  0  0  0  0  0  0  0  0
   10.7196   -0.5316   20.9813 N   0  0  0  0  0  0  0  0  0  0  0  0
   10.5396   -1.4469   21.8508 N   0  0  0  0  0  0  0  0  0  0  0  0
    9.1932   -1.6476   21.9532 N   0  0  0  0  0  0  0  0  0  0  0  0
    8.6455   -2.6339   22.8461 C   0  0  0  0  0  0  0  0  0  0  0  0
    9.3286   -2.9710   24.0198 C   0  0  0  0  0  0  0  0  0  0  0  0
   10.2929   -2.5132   24.2221 H   0  0  0  0  0  0  0  0  0  0  0  0
    8.7903   -3.8993   24.9156 C   0  0  0  0  0  0  0  0  0  0  0  0
    9.3197   -4.1683   25.8228 H   0  0  0  0  0  0  0  0  0  0  0  0
    7.5597   -4.4892   24.6203 C   0  0  0  0  0  0  0  0  0  0  0  0
    6.9176   -5.4194   25.4328 O   0  0  0  0  0  0  0  0  0  0  0  0
    7.4422   -5.8462   26.6046 C   0  0  0  0  0  0  0  0  0  0  0  0
    6.5670   -6.7009   27.1147 F   0  0  0  0  0  0  0  0  0  0  0  0
    7.6426   -4.8596   27.4968 F   0  0  0  0  0  0  0  0  0  0  0  0
    8.6287   -6.4597   26.4576 F   0  0  0  0  0  0  0  0  0  0  0  0
    6.8756   -4.1721   23.4462 C   0  0  0  0  0  0  0  0  0  0  0  0
    5.9143   -4.6352   23.2464 H   0  0  0  0  0  0  0  0  0  0  0  0
    7.4205   -3.2490   22.5546 C   0  0  0  0  0  0  0  0  0  0  0  0
    6.8972   -2.9764   21.6491 H   0  0  0  0  0  0  0  0  0  0  0  0
    5.4736    0.6420   20.1742 C   0  0  0  0  0  0  0  0  0  0  0  0
    5.0499    0.6046   21.1807 H   0  0  0  0  0  0  0  0  0  0  0  0
    4.8271    1.2973   19.1183 C   0  0  0  0  0  0  0  0  0  0  0  0
    3.8939    1.8246   19.2689 H   0  0  0  0  0  0  0  0  0  0  0  0
  1  2  1  0
  2  3  2  0
  3  4  1  0
  4  5  1  0
  4  6  2  0
  6  7  1  0
  7  8  1  0
  8  9  2  0
  9 10  1  0
 10 11  2  0
 11 12  1  0
 12 13  1  0
 13 14  2  0
 14 15  1  0
 14 16  1  0
 16 17  1  0
 16 18  2  0
 18 19  1  0
 19 20  1  0
 20 21  1  0
 20 22  1  0
 20 23  1  0
 18 24  1  0
 24 25  1  0
 24 26  2  0
 26 27  1  0
  6 28  1  0
 28 29  1  0
 28 30  2  0
 30 31  1  0
 30  2  1  0
 12  8  1  0
 26 13  1  0
M  END
>  <cnnaffinity>  (1) 
-5.58212

>  <filename>  (1) 
FC(F)(F)Oc1ccc(-n2nnnc2Oc2cccnc2)cc1

$$$$
