
     RDKit          3D

 32 34  0  0  0  0  0  0  0  0999 V2000
    4.9589    1.7873   16.9478 H   0  0  0  0  0  0  0  0  0  0  0  0
    5.4145    1.3149   17.8206 C   0  0  0  0  0  0  0  0  0  0  0  0
    6.5855    0.6873   17.6255 N   0  0  0  0  0  0  0  0  0  0  0  0
    7.1417    0.0734   18.6793 C   0  0  0  0  0  0  0  0  0  0  0  0
    8.0964   -0.4167   18.4891 H   0  0  0  0  0  0  0  0  0  0  0  0
    6.5904    0.0560   19.9748 C   0  0  0  0  0  0  0  0  0  0  0  0
    7.2617   -0.6906   21.0639 C   0  0  0  0  0  0  0  0  0  0  0  0
    7.6593   -2.0050   21.0613 C   0  0  0  0  0  0  0  0  0  0  0  0
    7.4214   -2.7312   20.3100 H   0  0  0  0  0  0  0  0  0  0  0  0
    8.2805   -2.2076   22.3034 C   0  0  0  0  0  0  0  0  0  0  0  0
    8.7394   -3.1068   22.6921 H   0  0  0  0  0  0  0  0  0  0  0  0
    8.2442   -1.1213   23.0522 N   0  0  0  0  0  0  0  0  0  0  0  0
    7.6082   -0.1936   22.3029 N   0  0  0  0  0  0  0  0  0  0  0  0
    7.2788    1.0701   22.8816 C   0  0  0  0  0  0  0  0  0  0  0  0
    7.5194    2.2575   22.1783 C   0  0  0  0  0  0  0  0  0  0  0  0
    7.9391    2.2115   21.1755 H   0  0  0  0  0  0  0  0  0  0  0  0
    7.1756    3.4759   22.7695 C   0  0  0  0  0  0  0  0  0  0  0  0
    7.3574    4.4001   22.2248 H   0  0  0  0  0  0  0  0  0  0  0  0
    6.5920    3.5138   24.0396 C   0  0  0  0  0  0  0  0  0  0  0  0
    6.2980    4.4398   24.5202 H   0  0  0  0  0  0  0  0  0  0  0  0
    6.3510    2.3181   24.7186 C   0  0  0  0  0  0  0  0  0  0  0  0
    5.7495    2.4757   25.9688 O   0  0  0  0  0  0  0  0  0  0  0  0
    5.4607    1.4044   26.7388 C   0  0  0  0  0  0  0  0  0  0  0  0
    6.5439    0.6635   27.0265 F   0  0  0  0  0  0  0  0  0  0  0  0
    4.5618    0.5845   26.1697 F   0  0  0  0  0  0  0  0  0  0  0  0
    4.9497    1.8550   27.8756 F   0  0  0  0  0  0  0  0  0  0  0  0
    6.6971    1.0953   24.1577 C   0  0  0  0  0  0  0  0  0  0  0  0
    6.5254    0.1615   24.6812 H   0  0  0  0  0  0  0  0  0  0  0  0
    5.3747    0.7319   20.1581 C   0  0  0  0  0  0  0  0  0  0  0  0
    4.9292    0.7777   21.1515 H   0  0  0  0  0  0  0  0  0  0  0  0
    4.7770    1.3568   19.0642 C   0  0  0  0  0  0  0  0  0  0  0  0
    3.8246    1.8616   19.1568 H   0  0  0  0  0  0  0  0  0  0  0  0
  1  2  1  0
  2  3  2  0
  3  4  1  0
  4  5  1  0
  4  6  2  0
  6  7  1  0
  7  8  2  0
  8  9  1  0
  8 10  1  0
 10 11  1  0
 10 12  2  0
 12 13  1  0
 13 14  1  0
 14 15  2  0
 15 16  1  0
 15 17  1  0
 17 18  1  0
 17 19  2  0
 19 20  1  0
 19 21  1  0
 21 22  1  0
 22 23  1  0
 23 24  1  0
 23 25  1  0
 23 26  1  0
 21 27  2  0
 27 28  1  0
  6 29  1  0
 29 30  1  0
 29 31  2  0
 31 32  1  0
 31  2  1  0
 13  7  1  0
 27 14  1  0
M  END
>  <cnnaffinity>  (1) 
-5.12447

>  <filename>  (1) 
FC(F)(F)Oc1cccc(-n2nccc2-c2cccnc2)c1

$$$$
