
     RDKit          3D

 30 32  0  0  0  0  0  0  0  0999 V2000
    4.9242    1.7953   17.0128 H   0  0  0  0  0  0  0  0  0  0  0  0
    5.4017    1.2818   17.8416 C   0  0  0  0  0  0  0  0  0  0  0  0
    6.5571    0.6635   17.5632 N   0  0  0  0  0  0  0  0  0  0  0  0
    7.2027    0.0497   18.5603 C   0  0  0  0  0  0  0  0  0  0  0  0
    8.1601   -0.4124   18.3222 H   0  0  0  0  0  0  0  0  0  0  0  0
    6.6993    0.0163   19.8750 C   0  0  0  0  0  0  0  0  0  0  0  0
    7.2930   -0.6715   20.9421 O   0  0  0  0  0  0  0  0  0  0  0  0
    8.6223   -0.7670   21.0808 C   0  0  0  0  0  0  0  0  0  0  0  0
    9.5552   -0.0848   20.4612 N   0  0  0  0  0  0  0  0  0  0  0  0
   10.7216   -0.5542   20.9661 N   0  0  0  0  0  0  0  0  0  0  0  0
   10.5296   -1.4676   21.8312 N   0  0  0  0  0  0  0  0  0  0  0  0
    9.1838   -1.6300   21.9476 N   0  0  0  0  0  0  0  0  0  0  0  0
    8.6244   -2.5755   22.8545 C   0  0  0  0  0  0  0  0  0  0  0  0
    9.3897   -3.6868   23.2249 C   0  0  0  0  0  0  0  0  0  0  0  0
   10.4189   -3.7181   22.8773 H   0  0  0  0  0  0  0  0  0  0  0  0
    8.8357   -4.6567   24.0566 C   0  0  0  0  0  0  0  0  0  0  0  0
    9.4165   -5.5491   24.2755 H   0  0  0  0  0  0  0  0  0  0  0  0
    7.5486   -4.4623   24.5923 C   0  0  0  0  0  0  0  0  0  0  0  0
    6.8929   -5.4777   25.4911 C   0  0  0  0  0  0  0  0  0  0  0  0
    7.7609   -6.3279   26.0635 F   0  0  0  0  0  0  0  0  0  0  0  0
    6.2089   -4.8782   26.4886 F   0  0  0  0  0  0  0  0  0  0  0  0
    6.0007   -6.2258   24.8089 F   0  0  0  0  0  0  0  0  0  0  0  0
    6.8214   -3.3051   24.2681 C   0  0  0  0  0  0  0  0  0  0  0  0
    5.8349   -3.1409   24.6929 H   0  0  0  0  0  0  0  0  0  0  0  0
    7.3463   -2.3672   23.3869 C   0  0  0  0  0  0  0  0  0  0  0  0
    6.7902   -1.4758   23.1322 H   0  0  0  0  0  0  0  0  0  0  0  0
    5.4858    0.6439   20.1541 C   0  0  0  0  0  0  0  0  0  0  0  0
    5.0898    0.6012   21.1670 H   0  0  0  0  0  0  0  0  0  0  0  0
    4.8227    1.3031   19.1155 C   0  0  0  0  0  0  0  0  0  0  0  0
    3.8828    1.8237   19.2793 H   0  0  0  0  0  0  0  0  0  0  0  0
  1  2  1  0
  2  3  2  0
  3  4  1  0
  4  5  1  0
  4  6  2  0
  6  7  1  0
  7  8  1  0
  8  9  2  0
  9 10  1  0
 10 11  2  0
 11 12  1  0
 12 13  1  0
 13 14  2  0
 14 15  1  0
 14 16  1  0
 16 17  1  0
 16 18  2  0
 18 19  1  0
 19 20  1  0
 19 21  1  0
 19 22  1  0
 18 23  1  0
 23 24  1  0
 23 25  2  0
 25 26  1  0
  6 27  1  0
 27 28  1  0
 27 29  2  0
 29 30  1  0
 29  2  1  0
 12  8  1  0
 25 13  1  0
M  END
>  <cnnaffinity>  (1) 
-5.36525

>  <filename>  (1) 
FC(F)(F)c1ccc(-n2nnnc2Oc2cccnc2)cc1

$$$$
