
     RDKit          3D

 32 34  0  0  0  0  0  0  0  0999 V2000
    4.9139    1.8005   16.9764 H   0  0  0  0  0  0  0  0  0  0  0  0
    5.3871    1.3043   17.8199 C   0  0  0  0  0  0  0  0  0  0  0  0
    6.5515    0.6857   17.5518 N   0  0  0  0  0  0  0  0  0  0  0  0
    7.1552    0.0737   18.5771 C   0  0  0  0  0  0  0  0  0  0  0  0
    8.0997   -0.4164   18.3455 H   0  0  0  0  0  0  0  0  0  0  0  0
    6.6616    0.0108   19.8977 C   0  0  0  0  0  0  0  0  0  0  0  0
    7.3791   -0.7076   20.9715 C   0  0  0  0  0  0  0  0  0  0  0  0
    8.7473   -1.0905   21.0614 C   0  0  0  0  0  0  0  0  0  0  0  0
    9.5253   -0.9006   20.3353 H   0  0  0  0  0  0  0  0  0  0  0  0
    9.0287   -1.7255   22.1827 N   0  0  0  0  0  0  0  0  0  0  0  0
    7.8572   -1.7655   22.8654 N   0  0  0  0  0  0  0  0  0  0  0  0
    7.7415   -2.3877   24.1485 C   0  0  0  0  0  0  0  0  0  0  0  0
    8.7424   -3.2702   24.5732 C   0  0  0  0  0  0  0  0  0  0  0  0
    9.5957   -3.4524   23.9277 H   0  0  0  0  0  0  0  0  0  0  0  0
    8.6317   -3.8797   25.8217 C   0  0  0  0  0  0  0  0  0  0  0  0
    9.4161   -4.5522   26.1482 H   0  0  0  0  0  0  0  0  0  0  0  0
    7.5386   -3.6308   26.6534 C   0  0  0  0  0  0  0  0  0  0  0  0
    7.4354   -4.0977   27.6274 H   0  0  0  0  0  0  0  0  0  0  0  0
    6.5494   -2.7522   26.2076 C   0  0  0  0  0  0  0  0  0  0  0  0
    5.5005   -2.5749   27.1085 O   0  0  0  0  0  0  0  0  0  0  0  0
    4.4520   -1.7668   26.8574 C   0  0  0  0  0  0  0  0  0  0  0  0
    3.6570   -1.8455   27.9174 F   0  0  0  0  0  0  0  0  0  0  0  0
    4.8045   -0.4823   26.6732 F   0  0  0  0  0  0  0  0  0  0  0  0
    3.7572   -2.1254   25.7630 F   0  0  0  0  0  0  0  0  0  0  0  0
    6.6260   -2.1209   24.9688 C   0  0  0  0  0  0  0  0  0  0  0  0
    5.8418   -1.4329   24.6698 H   0  0  0  0  0  0  0  0  0  0  0  0
    6.8700   -1.1743   22.1530 C   0  0  0  0  0  0  0  0  0  0  0  0
    5.8724   -1.1562   22.5374 H   0  0  0  0  0  0  0  0  0  0  0  0
    5.4367    0.6581   20.1418 C   0  0  0  0  0  0  0  0  0  0  0  0
    5.0089    0.6505   21.1474 H   0  0  0  0  0  0  0  0  0  0  0  0
    4.8002    1.3164   19.0898 C   0  0  0  0  0  0  0  0  0  0  0  0
    3.8688    1.8464   19.2442 H   0  0  0  0  0  0  0  0  0  0  0  0
  1  2  1  0
  2  3  2  0
  3  4  1  0
  4  5  1  0
  4  6  2  0
  6  7  1  0
  7  8  1  0
  8  9  1  0
  8 10  2  0
 10 11  1  0
 11 12  1  0
 12 13  2  0
 13 14  1  0
 13 15  1  0
 15 16  1  0
 15 17  2  0
 17 18  1  0
 17 19  1  0
 19 20  1  0
 20 21  1  0
 21 22  1  0
 21 23  1  0
 21 24  1  0
 19 25  2  0
 25 26  1  0
 11 27  1  0
 27 28  1  0
  6 29  1  0
 29 30  1  0
 29 31  2  0
 31 32  1  0
 31  2  1  0
 27  7  2  0
 25 12  1  0
M  END
>  <cnnaffinity>  (1) 
-5.2876

>  <filename>  (1) 
FC(F)(F)Oc1cccc(-n2cc(-c3cccnc3)cn2)c1

$$$$
