
     RDKit          3D

 36 38  0  0  0  0  0  0  0  0999 V2000
    4.9558    1.8142   16.9821 H   0  0  0  0  0  0  0  0  0  0  0  0
    5.4081    1.3036   17.8261 C   0  0  0  0  0  0  0  0  0  0  0  0
    6.5763    0.6865   17.5793 N   0  0  0  0  0  0  0  0  0  0  0  0
    7.1811    0.0713   18.6029 C   0  0  0  0  0  0  0  0  0  0  0  0
    8.1380   -0.4072   18.3818 H   0  0  0  0  0  0  0  0  0  0  0  0
    6.6429    0.0278   19.9120 C   0  0  0  0  0  0  0  0  0  0  0  0
    7.2769   -0.6923   20.9819 N   0  0  0  0  0  0  0  0  0  0  0  0
    7.6382   -2.0183   21.0045 C   0  0  0  0  0  0  0  0  0  0  0  0
    7.3314   -2.7194   20.2488 H   0  0  0  0  0  0  0  0  0  0  0  0
    8.2747   -2.3234   22.0943 N   0  0  0  0  0  0  0  0  0  0  0  0
    8.3116   -1.1948   22.8662 N   0  0  0  0  0  0  0  0  0  0  0  0
    7.6818   -0.2426   22.2259 C   0  0  0  0  0  0  0  0  0  0  0  0
    7.3440    1.0812   22.8286 C   0  0  0  0  0  0  0  0  0  0  0  0
    7.2037    1.8261   22.0398 H   0  0  0  0  0  0  0  0  0  0  0  0
    6.3744    1.0035   23.3430 H   0  0  0  0  0  0  0  0  0  0  0  0
    8.4037    1.5572   23.8311 C   0  0  0  0  0  0  0  0  0  0  0  0
    8.5076    0.8118   24.6278 H   0  0  0  0  0  0  0  0  0  0  0  0
    9.3723    1.6035   23.3233 H   0  0  0  0  0  0  0  0  0  0  0  0
    8.0624    2.9087   24.3865 C   0  0  0  0  0  0  0  0  0  0  0  0
    8.4645    4.0656   23.7053 C   0  0  0  0  0  0  0  0  0  0  0  0
    9.0573    3.9665   22.7996 H   0  0  0  0  0  0  0  0  0  0  0  0
    8.0888    5.3301   24.1532 C   0  0  0  0  0  0  0  0  0  0  0  0
    8.3885    6.2060   23.5811 H   0  0  0  0  0  0  0  0  0  0  0  0
    7.2964    5.4517   25.3080 C   0  0  0  0  0  0  0  0  0  0  0  0
    6.9496    6.8209   25.8516 C   0  0  0  0  0  0  0  0  0  0  0  0
    6.8716    7.7545   24.8841 F   0  0  0  0  0  0  0  0  0  0  0  0
    5.7702    6.8290   26.5034 F   0  0  0  0  0  0  0  0  0  0  0  0
    7.8760    7.2556   26.7304 F   0  0  0  0  0  0  0  0  0  0  0  0
    6.8633    4.2968   25.9824 C   0  0  0  0  0  0  0  0  0  0  0  0
    6.2029    4.3688   26.8441 H   0  0  0  0  0  0  0  0  0  0  0  0
    7.2498    3.0395   25.5200 C   0  0  0  0  0  0  0  0  0  0  0  0
    6.8992    2.1427   26.0236 H   0  0  0  0  0  0  0  0  0  0  0  0
    5.4211    0.6722   20.1466 C   0  0  0  0  0  0  0  0  0  0  0  0
    4.9717    0.6464   21.1398 H   0  0  0  0  0  0  0  0  0  0  0  0
    4.7910    1.3171   19.0790 C   0  0  0  0  0  0  0  0  0  0  0  0
    3.8474    1.8363   19.2174 H   0  0  0  0  0  0  0  0  0  0  0  0
  1  2  1  0
  2  3  2  0
  3  4  1  0
  4  5  1  0
  4  6  2  0
  6  7  1  0
  7  8  1  0
  8  9  1  0
  8 10  2  0
 10 11  1  0
 11 12  2  0
 12 13  1  0
 13 14  1  0
 13 15  1  0
 13 16  1  0
 16 17  1  0
 16 18  1  0
 16 19  1  0
 19 20  2  0
 20 21  1  0
 20 22  1  0
 22 23  1  0
 22 24  2  0
 24 25  1  0
 25 26  1  0
 25 27  1  0
 25 28  1  0
 24 29  1  0
 29 30  1  0
 29 31  2  0
 31 32  1  0
  6 33  1  0
 33 34  1  0
 33 35  2  0
 35 36  1  0
 35  2  1  0
 12  7  1  0
 31 19  1  0
M  END
>  <cnnaffinity>  (1) 
-5.24668

>  <filename>  (1) 
FC(F)(F)c1ccc(CCc2nncn2-c2cccnc2)cc1

$$$$
