
     RDKit          3D

 31 33  0  0  0  0  0  0  0  0999 V2000
    4.9106    1.8096   16.9117 H   0  0  0  0  0  0  0  0  0  0  0  0
    5.3783    1.3434   17.7804 C   0  0  0  0  0  0  0  0  0  0  0  0
    6.5563    0.7337   17.5706 N   0  0  0  0  0  0  0  0  0  0  0  0
    7.1378    0.1491   18.6272 C   0  0  0  0  0  0  0  0  0  0  0  0
    8.0878   -0.3449   18.4329 H   0  0  0  0  0  0  0  0  0  0  0  0
    6.6099    0.1366   19.9371 C   0  0  0  0  0  0  0  0  0  0  0  0
    7.3156   -0.5581   21.0668 C   0  0  0  0  0  0  0  0  0  0  0  0
    7.7501   -1.8918   20.9329 C   0  0  0  0  0  0  0  0  0  0  0  0
    7.4432   -2.4553   20.0709 H   0  0  0  0  0  0  0  0  0  0  0  0
    8.4478   -2.5548   21.8616 N   0  0  0  0  0  0  0  0  0  0  0  0
    8.7083   -1.9645   23.0273 N   0  0  0  0  0  0  0  0  0  0  0  0
    8.2277   -0.7335   23.2872 C   0  0  0  0  0  0  0  0  0  0  0  0
    8.3967   -0.2119   24.6897 C   0  0  0  0  0  0  0  0  0  0  0  0
    7.8279    0.9796   24.9305 N   0  0  0  0  0  0  0  0  0  0  0  0
    7.8442    1.4793   26.1689 C   0  0  0  0  0  0  0  0  0  0  0  0
    7.2470    2.8826   26.3791 C   0  0  0  0  0  0  0  0  0  0  0  0
    8.2062    3.7595   26.7452 F   0  0  0  0  0  0  0  0  0  0  0  0
    6.3474    2.8813   27.3842 F   0  0  0  0  0  0  0  0  0  0  0  0
    6.6443    3.3627   25.2880 F   0  0  0  0  0  0  0  0  0  0  0  0
    8.4126    0.7931   27.2479 C   0  0  0  0  0  0  0  0  0  0  0  0
    8.3831    1.1878   28.2562 H   0  0  0  0  0  0  0  0  0  0  0  0
    9.0670   -0.4142   26.9947 C   0  0  0  0  0  0  0  0  0  0  0  0
    9.5871   -0.9391   27.7952 H   0  0  0  0  0  0  0  0  0  0  0  0
    9.0605   -0.9325   25.7020 C   0  0  0  0  0  0  0  0  0  0  0  0
    9.5285   -1.8761   25.4557 H   0  0  0  0  0  0  0  0  0  0  0  0
    7.5344    0.0142   22.3126 C   0  0  0  0  0  0  0  0  0  0  0  0
    7.1609    1.0002   22.5774 H   0  0  0  0  0  0  0  0  0  0  0  0
    5.3789    0.7789   20.1256 C   0  0  0  0  0  0  0  0  0  0  0  0
    4.9196    0.7824   21.1166 H   0  0  0  0  0  0  0  0  0  0  0  0
    4.7513    1.3795   19.0299 C   0  0  0  0  0  0  0  0  0  0  0  0
    3.7917    1.8704   19.1301 H   0  0  0  0  0  0  0  0  0  0  0  0
  1  2  1  0
  2  3  2  0
  3  4  1  0
  4  5  1  0
  4  6  2  0
  6  7  1  0
  7  8  2  0
  8  9  1  0
  8 10  1  0
 10 11  2  0
 11 12  1  0
 12 13  1  0
 13 14  2  0
 14 15  1  0
 15 16  1  0
 16 17  1  0
 16 18  1  0
 16 19  1  0
 15 20  2  0
 20 21  1  0
 20 22  1  0
 22 23  1  0
 22 24  2  0
 24 25  1  0
 12 26  2  0
 26 27  1  0
  6 28  1  0
 28 29  1  0
 28 30  2  0
 30 31  1  0
 30  2  1  0
 26  7  1  0
 24 13  1  0
M  END
>  <cnnaffinity>  (1) 
-5.20966

>  <filename>  (1) 
FC(F)(F)c1cccc(-c2cc(-c3cccnc3)cnn2)n1

$$$$
