
     RDKit          3D

 30 32  0  0  0  0  0  0  0  0999 V2000
    4.9729    1.8092   16.9579 H   0  0  0  0  0  0  0  0  0  0  0  0
    5.4190    1.2997   17.8068 C   0  0  0  0  0  0  0  0  0  0  0  0
    6.5846    0.6723   17.5790 N   0  0  0  0  0  0  0  0  0  0  0  0
    7.1667    0.0618   18.6154 C   0  0  0  0  0  0  0  0  0  0  0  0
    8.1249   -0.4208   18.4216 H   0  0  0  0  0  0  0  0  0  0  0  0
    6.6105    0.0157   19.9054 C   0  0  0  0  0  0  0  0  0  0  0  0
    7.3375   -0.7279   20.9340 C   0  0  0  0  0  0  0  0  0  0  0  0
    8.5975   -1.1030   20.8786 N   0  0  0  0  0  0  0  0  0  0  0  0
    8.8522   -1.7250   22.0605 C   0  0  0  0  0  0  0  0  0  0  0  0
    9.8181   -2.1560   22.2924 H   0  0  0  0  0  0  0  0  0  0  0  0
    7.7531   -1.7481   22.8713 C   0  0  0  0  0  0  0  0  0  0  0  0
    7.7084   -2.3992   24.1959 C   0  0  0  0  0  0  0  0  0  0  0  0
    8.3410   -3.5777   24.2415 N   0  0  0  0  0  0  0  0  0  0  0  0
    8.1850   -4.3392   25.3255 C   0  0  0  0  0  0  0  0  0  0  0  0
    8.6465   -5.3209   25.2837 H   0  0  0  0  0  0  0  0  0  0  0  0
    7.4474   -3.9491   26.4485 C   0  0  0  0  0  0  0  0  0  0  0  0
    7.3283   -4.6373   27.2825 H   0  0  0  0  0  0  0  0  0  0  0  0
    6.8983   -2.6730   26.4664 C   0  0  0  0  0  0  0  0  0  0  0  0
    6.3488   -2.3210   27.3425 H   0  0  0  0  0  0  0  0  0  0  0  0
    7.0911   -1.8570   25.3434 C   0  0  0  0  0  0  0  0  0  0  0  0
    6.6353   -0.4292   25.3080 C   0  0  0  0  0  0  0  0  0  0  0  0
    7.4246    0.3424   24.5375 F   0  0  0  0  0  0  0  0  0  0  0  0
    6.6067    0.1367   26.5305 F   0  0  0  0  0  0  0  0  0  0  0  0
    5.3882   -0.3395   24.8015 F   0  0  0  0  0  0  0  0  0  0  0  0
    6.7675   -1.1101   22.1130 N   0  0  0  0  0  0  0  0  0  0  0  0
    5.8284   -0.8870   22.3863 H   0  0  0  0  0  0  0  0  0  0  0  0
    5.3976    0.6931   20.1303 C   0  0  0  0  0  0  0  0  0  0  0  0
    4.9501    0.7541   21.1290 H   0  0  0  0  0  0  0  0  0  0  0  0
    4.7882    1.3345   19.0568 C   0  0  0  0  0  0  0  0  0  0  0  0
    3.8496    1.8657   19.1778 H   0  0  0  0  0  0  0  0  0  0  0  0
  1  2  1  0
  2  3  2  0
  3  4  1  0
  4  5  1  0
  4  6  2  0
  6  7  1  0
  7  8  2  0
  8  9  1  0
  9 10  1  0
  9 11  2  0
 11 12  1  0
 12 13  2  0
 13 14  1  0
 14 15  1  0
 14 16  2  0
 16 17  1  0
 16 18  1  0
 18 19  1  0
 18 20  2  0
 20 21  1  0
 21 22  1  0
 21 23  1  0
 21 24  1  0
 11 25  1  0
 25 26  1  0
  6 27  1  0
 27 28  1  0
 27 29  2  0
 29 30  1  0
 29  2  1  0
 25  7  1  0
 20 12  1  0
M  END
>  <cnnaffinity>  (1) 
-5.52038

>  <filename>  (1) 
FC(F)(F)c1cccnc1-c1cnc(-c2cccnc2)[nH]1

$$$$
