
     RDKit          3D

 36 39  0  0  0  0  0  0  0  0999 V2000
    4.2553   -5.8637   22.6132 H   0  0  0  0  0  0  0  0  0  0  0  0
    4.5922   -5.3444   23.5049 C   0  0  0  0  0  0  0  0  0  0  0  0
    5.1012   -4.1302   23.3127 N   0  0  0  0  0  0  0  0  0  0  0  0
    5.5274   -3.4889   24.4078 C   0  0  0  0  0  0  0  0  0  0  0  0
    6.1830   -2.2018   24.1856 C   0  0  0  0  0  0  0  0  0  0  0  0
    6.6385   -1.6564   23.0046 C   0  0  0  0  0  0  0  0  0  0  0  0
    7.2371   -0.4611   23.3555 C   0  0  0  0  0  0  0  0  0  0  0  0
    7.1838   -0.2252   24.6557 N   0  0  0  0  0  0  0  0  0  0  0  0
    6.5410   -1.3062   25.1471 N   0  0  0  0  0  0  0  0  0  0  0  0
    6.4705   -1.4469   26.1485 H   0  0  0  0  0  0  0  0  0  0  0  0
    7.8354    0.2344   22.1709 C   0  0  0  0  0  0  0  0  0  0  0  0
    8.9225    0.3269   22.2602 H   0  0  0  0  0  0  0  0  0  0  0  0
    7.4469    1.2525   22.0749 H   0  0  0  0  0  0  0  0  0  0  0  0
    7.4544   -0.7043   20.9594 C   0  0  2  0  0  0  0  0  0  0  0  0
    8.3938   -1.0831   20.5334 H   0  0  0  0  0  0  0  0  0  0  0  0
    6.6924    0.0222   19.8596 C   0  0  0  0  0  0  0  0  0  0  0  0
    7.1696    0.0800   18.5351 C   0  0  0  0  0  0  0  0  0  0  0  0
    8.1126   -0.4042   18.2828 H   0  0  0  0  0  0  0  0  0  0  0  0
    6.5472    0.6974   17.5226 N   0  0  0  0  0  0  0  0  0  0  0  0
    5.3903    1.3148   17.8008 C   0  0  0  0  0  0  0  0  0  0  0  0
    4.9128    1.8290   16.9692 H   0  0  0  0  0  0  0  0  0  0  0  0
    4.8043    1.3182   19.0713 C   0  0  0  0  0  0  0  0  0  0  0  0
    3.8650    1.8418   19.2261 H   0  0  0  0  0  0  0  0  0  0  0  0
    5.4669    0.6612   20.1133 C   0  0  0  0  0  0  0  0  0  0  0  0
    5.0338    0.6556   21.1152 H   0  0  0  0  0  0  0  0  0  0  0  0
    6.6572   -1.9272   21.5376 C   0  0  0  0  0  0  0  0  0  0  0  0
    5.6330   -1.9946   21.1472 H   0  0  0  0  0  0  0  0  0  0  0  0
    7.1260   -2.8858   21.2870 H   0  0  0  0  0  0  0  0  0  0  0  0
    5.4531   -3.9449   25.6604 N   0  0  0  0  0  0  0  0  0  0  0  0
    4.9666   -5.1792   25.8446 C   0  0  0  0  0  0  0  0  0  0  0  0
    4.9299   -5.7647   27.2863 C   0  0  0  0  0  0  0  0  0  0  0  0
    5.4227   -4.9431   28.2161 F   0  0  0  0  0  0  0  0  0  0  0  0
    5.6311   -6.9158   27.3525 F   0  0  0  0  0  0  0  0  0  0  0  0
    3.6656   -6.0718   27.6444 F   0  0  0  0  0  0  0  0  0  0  0  0
    4.5085   -5.9388   24.7600 C   0  0  0  0  0  0  0  0  0  0  0  0
    4.1186   -6.9394   24.8736 H   0  0  0  0  0  0  0  0  0  0  0  0
  1  2  1  0
  2  3  2  0
  3  4  1  0
  4  5  1  0
  5  6  2  0
  6  7  1  0
  7  8  2  0
  8  9  1  0
  9 10  1  0
  7 11  1  0
 11 12  1  0
 11 13  1  0
 11 14  1  0
 14 15  1  6
 14 16  1  0
 16 17  2  0
 17 18  1  0
 17 19  1  0
 19 20  2  0
 20 21  1  0
 20 22  1  0
 22 23  1  0
 22 24  2  0
 24 25  1  0
 14 26  1  0
 26 27  1  0
 26 28  1  0
  4 29  2  0
 29 30  1  0
 30 31  1  0
 31 32  1  0
 31 33  1  0
 31 34  1  0
 30 35  2  0
 35 36  1  0
 35  2  1  0
  9  5  1  0
 24 16  1  0
 26  6  1  0
M  END
>  <cnnaffinity>  (1) 
-5.66676

>  <filename>  (1) 
FC(F)(F)c1ccnc(-c2[nH]nc3c2C[C@@H](c2cccnc2)C3)n1

$$$$
