
     RDKit          3D

 30 32  0  0  0  0  0  0  0  0999 V2000
    4.9556    1.8060   16.9576 H   0  0  0  0  0  0  0  0  0  0  0  0
    5.3997    1.2866   17.8031 C   0  0  0  0  0  0  0  0  0  0  0  0
    6.5447    0.6282   17.5640 N   0  0  0  0  0  0  0  0  0  0  0  0
    7.1341    0.0099   18.5926 C   0  0  0  0  0  0  0  0  0  0  0  0
    8.0639   -0.5108   18.3644 H   0  0  0  0  0  0  0  0  0  0  0  0
    6.6313    0.0326   19.9041 C   0  0  0  0  0  0  0  0  0  0  0  0
    7.4073   -0.6700   20.9458 C   0  0  0  0  0  0  0  0  0  0  0  0
    8.1002   -1.7576   20.7332 N   0  0  0  0  0  0  0  0  0  0  0  0
    8.5982   -2.1974   21.9380 N   0  0  0  0  0  0  0  0  0  0  0  0
    8.2112   -1.3440   22.8390 C   0  0  0  0  0  0  0  0  0  0  0  0
    8.4473   -1.3709   23.8962 H   0  0  0  0  0  0  0  0  0  0  0  0
    7.4528   -0.3506   22.2874 N   0  0  0  0  0  0  0  0  0  0  0  0
    7.0021    0.8083   22.9777 C   0  0  0  0  0  0  0  0  0  0  0  0
    6.0083    0.6532   23.9434 C   0  0  0  0  0  0  0  0  0  0  0  0
    5.7097   -0.3565   24.2046 H   0  0  0  0  0  0  0  0  0  0  0  0
    5.4169    1.7756   24.5245 C   0  0  0  0  0  0  0  0  0  0  0  0
    4.6034    1.6601   25.2343 H   0  0  0  0  0  0  0  0  0  0  0  0
    5.8799    3.0493   24.1799 C   0  0  0  0  0  0  0  0  0  0  0  0
    5.4375    3.9351   24.6186 H   0  0  0  0  0  0  0  0  0  0  0  0
    6.9357    3.1998   23.2824 C   0  0  0  0  0  0  0  0  0  0  0  0
    7.3045    4.1948   23.0372 H   0  0  0  0  0  0  0  0  0  0  0  0
    7.5396    2.0761   22.7041 C   0  0  0  0  0  0  0  0  0  0  0  0
    8.7388    2.2249   21.7807 C   0  0  0  0  0  0  0  0  0  0  0  0
    8.3893    2.1662   20.4810 F   0  0  0  0  0  0  0  0  0  0  0  0
    9.3615    3.4028   21.9584 F   0  0  0  0  0  0  0  0  0  0  0  0
    9.6701    1.2750   21.9632 F   0  0  0  0  0  0  0  0  0  0  0  0
    5.4113    0.6861   20.1295 C   0  0  0  0  0  0  0  0  0  0  0  0
    4.9556    0.6911   21.1214 H   0  0  0  0  0  0  0  0  0  0  0  0
    4.7821    1.3213   19.0584 C   0  0  0  0  0  0  0  0  0  0  0  0
    3.8439    1.8528   19.1856 H   0  0  0  0  0  0  0  0  0  0  0  0
  1  2  1  0
  2  3  2  0
  3  4  1  0
  4  5  1  0
  4  6  2  0
  6  7  1  0
  7  8  2  0
  8  9  1  0
  9 10  2  0
 10 11  1  0
 10 12  1  0
 12 13  1  0
 13 14  2  0
 14 15  1  0
 14 16  1  0
 16 17  1  0
 16 18  2  0
 18 19  1  0
 18 20  1  0
 20 21  1  0
 20 22  2  0
 22 23  1  0
 23 24  1  0
 23 25  1  0
 23 26  1  0
  6 27  1  0
 27 28  1  0
 27 29  2  0
 29 30  1  0
 29  2  1  0
 12  7  1  0
 22 13  1  0
M  END
>  <cnnaffinity>  (1) 
-4.53324

>  <filename>  (1) 
FC(F)(F)c1ccccc1-n1cnnc1-c1cccnc1

$$$$
