
     RDKit          3D

 34 36  0  0  0  0  0  0  0  0999 V2000
    5.0757    2.5702   16.3683 H   0  0  0  0  0  0  0  0  0  0  0  0
    5.2929    1.9162   17.2110 C   0  0  0  0  0  0  0  0  0  0  0  0
    6.3549    1.1059   17.0821 N   0  0  0  0  0  0  0  0  0  0  0  0
    6.6604    0.3262   18.1218 C   0  0  0  0  0  0  0  0  0  0  0  0
    7.5291   -0.3150   17.9838 H   0  0  0  0  0  0  0  0  0  0  0  0
    5.9491    0.3011   19.3252 C   0  0  0  0  0  0  0  0  0  0  0  0
    6.4283   -0.5450   20.4264 C   0  0  0  0  0  0  0  0  0  0  0  0
    5.7856   -0.5315   21.5847 N   0  0  0  0  0  0  0  0  0  0  0  0
    6.4610   -1.3761   22.3704 N   0  0  0  0  0  0  0  0  0  0  0  0
    6.1767   -1.4870   23.3388 H   0  0  0  0  0  0  0  0  0  0  0  0
    7.5238   -1.9529   21.7654 C   0  0  0  0  0  0  0  0  0  0  0  0
    8.4873   -2.8190   22.5351 C   0  0  0  0  0  0  0  0  0  0  0  0
    7.9912   -3.2441   23.4156 H   0  0  0  0  0  0  0  0  0  0  0  0
    8.8054   -3.6661   21.9194 H   0  0  0  0  0  0  0  0  0  0  0  0
    9.6936   -2.0040   22.9586 C   0  0  0  0  0  0  0  0  0  0  0  0
    9.7226   -1.3406   24.1890 C   0  0  0  0  0  0  0  0  0  0  0  0
    8.9204   -1.4944   24.9057 H   0  0  0  0  0  0  0  0  0  0  0  0
   10.7547   -0.4580   24.4993 C   0  0  0  0  0  0  0  0  0  0  0  0
   10.7795    0.0310   25.4713 H   0  0  0  0  0  0  0  0  0  0  0  0
   11.7604   -0.1986   23.5506 C   0  0  0  0  0  0  0  0  0  0  0  0
   12.8162    0.8203   23.9115 C   0  0  0  0  0  0  0  0  0  0  0  0
   13.6026    0.3793   24.9131 F   0  0  0  0  0  0  0  0  0  0  0  0
   13.6227    1.1356   22.8854 F   0  0  0  0  0  0  0  0  0  0  0  0
   12.2595    1.9704   24.3492 F   0  0  0  0  0  0  0  0  0  0  0  0
   11.7680   -0.8971   22.3303 C   0  0  0  0  0  0  0  0  0  0  0  0
   12.5561   -0.7544   21.5917 H   0  0  0  0  0  0  0  0  0  0  0  0
   10.7327   -1.7849   22.0469 C   0  0  0  0  0  0  0  0  0  0  0  0
   10.6997   -2.2906   21.0862 H   0  0  0  0  0  0  0  0  0  0  0  0
    7.5484   -1.4088   20.4933 C   0  0  0  0  0  0  0  0  0  0  0  0
    8.3012   -1.5203   19.7240 H   0  0  0  0  0  0  0  0  0  0  0  0
    4.8145    1.1283   19.4316 C   0  0  0  0  0  0  0  0  0  0  0  0
    4.2266    1.1374   20.3499 H   0  0  0  0  0  0  0  0  0  0  0  0
    4.4852    1.9430   18.3534 C   0  0  0  0  0  0  0  0  0  0  0  0
    3.6271    2.6053   18.3892 H   0  0  0  0  0  0  0  0  0  0  0  0
  1  2  1  0
  2  3  2  0
  3  4  1  0
  4  5  1  0
  4  6  2  0
  6  7  1  0
  7  8  2  0
  8  9  1  0
  9 10  1  0
  9 11  1  0
 11 12  1  0
 12 13  1  0
 12 14  1  0
 12 15  1  0
 15 16  2  0
 16 17  1  0
 16 18  1  0
 18 19  1  0
 18 20  2  0
 20 21  1  0
 21 22  1  0
 21 23  1  0
 21 24  1  0
 20 25  1  0
 25 26  1  0
 25 27  2  0
 27 28  1  0
 11 29  2  0
 29 30  1  0
  6 31  1  0
 31 32  1  0
 31 33  2  0
 33 34  1  0
 33  2  1  0
 29  7  1  0
 27 15  1  0
M  END
>  <cnnaffinity>  (1) 
-5.36956

>  <filename>  (1) 
FC(F)(F)c1ccc(Cc2cc(-c3cccnc3)n[nH]2)cc1

$$$$
