
     RDKit          3D

 25 26  0  0  0  0  0  0  0  0999 V2000
    4.9313    1.7775   17.0004 H   0  0  0  0  0  0  0  0  0  0  0  0
    5.4096    1.2846   17.8460 C   0  0  0  0  0  0  0  0  0  0  0  0
    6.5725    0.6602   17.5995 N   0  0  0  0  0  0  0  0  0  0  0  0
    7.1920    0.0497   18.6153 C   0  0  0  0  0  0  0  0  0  0  0  0
    8.1342   -0.4295   18.3737 H   0  0  0  0  0  0  0  0  0  0  0  0
    6.6767    0.0014   19.9258 C   0  0  0  0  0  0  0  0  0  0  0  0
    7.3693   -0.6934   20.9540 N   0  0  0  0  0  0  0  0  0  0  0  0
    8.6807   -0.9667   20.8685 N   0  0  0  0  0  0  0  0  0  0  0  0
    8.9823   -1.6120   21.9830 C   0  0  0  0  0  0  0  0  0  0  0  0
    9.9946   -1.9386   22.1722 H   0  0  0  0  0  0  0  0  0  0  0  0
    7.8466   -1.7772   22.8069 C   0  0  0  0  0  0  0  0  0  0  0  0
    7.8918   -2.3573   24.0431 O   0  0  0  0  0  0  0  0  0  0  0  0
    6.6677   -2.5983   24.7079 C   0  0  0  0  0  0  0  0  0  0  0  0
    6.9344   -2.7549   25.7522 H   0  0  0  0  0  0  0  0  0  0  0  0
    5.9652   -1.7576   24.6537 H   0  0  0  0  0  0  0  0  0  0  0  0
    5.9290   -3.8562   24.2469 C   0  0  0  0  0  0  0  0  0  0  0  0
    4.8526   -4.0500   25.0338 F   0  0  0  0  0  0  0  0  0  0  0  0
    6.6967   -4.9472   24.3378 F   0  0  0  0  0  0  0  0  0  0  0  0
    5.4824   -3.7531   22.9831 F   0  0  0  0  0  0  0  0  0  0  0  0
    6.8329   -1.1838   22.1069 C   0  0  0  0  0  0  0  0  0  0  0  0
    5.7860   -1.0869   22.2980 H   0  0  0  0  0  0  0  0  0  0  0  0
    5.4512    0.6439   20.1735 C   0  0  0  0  0  0  0  0  0  0  0  0
    5.0035    0.6515   21.1686 H   0  0  0  0  0  0  0  0  0  0  0  0
    4.8204    1.3007   19.1136 C   0  0  0  0  0  0  0  0  0  0  0  0
    3.8877    1.8316   19.2640 H   0  0  0  0  0  0  0  0  0  0  0  0
  1  2  1  0
  2  3  2  0
  3  4  1  0
  4  5  1  0
  4  6  2  0
  6  7  1  0
  7  8  1  0
  8  9  2  0
  9 10  1  0
  9 11  1  0
 11 12  1  0
 12 13  1  0
 13 14  1  0
 13 15  1  0
 13 16  1  0
 16 17  1  0
 16 18  1  0
 16 19  1  0
 11 20  2  0
 20 21  1  0
  6 22  1  0
 22 23  1  0
 22 24  2  0
 24 25  1  0
 24  2  1  0
 20  7  1  0
M  END
>  <cnnaffinity>  (1) 
-4.74378

>  <filename>  (1) 
FC(F)(F)COc1cnn(-c2cccnc2)c1

$$$$
