
     RDKit          3D

 33 36  0  0  0  0  0  0  0  0999 V2000
    4.9204    1.7716   17.0048 H   0  0  0  0  0  0  0  0  0  0  0  0
    5.4089    1.2859   17.8478 C   0  0  0  0  0  0  0  0  0  0  0  0
    6.5745    0.6697   17.5953 N   0  0  0  0  0  0  0  0  0  0  0  0
    7.1821    0.0538   18.6149 C   0  0  0  0  0  0  0  0  0  0  0  0
    8.1279   -0.4338   18.3840 H   0  0  0  0  0  0  0  0  0  0  0  0
    6.6483    0.0146   19.9109 C   0  0  0  0  0  0  0  0  0  0  0  0
    7.3611   -0.6882   20.9690 C   0  0  0  0  0  0  0  0  0  0  0  0
    8.5478   -1.3230   20.7589 N   0  0  0  0  0  0  0  0  0  0  0  0
    8.7986   -1.8111   21.9579 C   0  0  0  0  0  0  0  0  0  0  0  0
    9.9932   -2.8114   22.7268 S   0  0  0  0  0  0  0  0  0  0  0  0
    9.0783   -2.7590   24.2049 C   0  0  0  0  0  0  0  0  0  0  0  0
    9.4584   -3.2809   25.0739 H   0  0  0  0  0  0  0  0  0  0  0  0
    7.9567   -2.0147   24.1215 C   0  0  0  0  0  0  0  0  0  0  0  0
    6.9677   -1.7682   25.1939 C   0  0  0  0  0  0  0  0  0  0  0  0
    6.7641   -2.7565   26.1765 C   0  0  0  0  0  0  0  0  0  0  0  0
    7.3099   -3.6963   26.1265 H   0  0  0  0  0  0  0  0  0  0  0  0
    5.8552   -2.5502   27.2127 C   0  0  0  0  0  0  0  0  0  0  0  0
    5.7128   -3.3152   27.9677 H   0  0  0  0  0  0  0  0  0  0  0  0
    5.1292   -1.3615   27.2863 C   0  0  0  0  0  0  0  0  0  0  0  0
    4.4300   -1.2071   28.1039 H   0  0  0  0  0  0  0  0  0  0  0  0
    5.3144   -0.3775   26.3032 C   0  0  0  0  0  0  0  0  0  0  0  0
    4.5685    0.9331   26.3982 C   0  0  0  0  0  0  0  0  0  0  0  0
    5.2766    1.8477   27.0889 F   0  0  0  0  0  0  0  0  0  0  0  0
    3.3828    0.8122   27.0237 F   0  0  0  0  0  0  0  0  0  0  0  0
    4.3161    1.4741   25.1901 F   0  0  0  0  0  0  0  0  0  0  0  0
    6.2455   -0.5649   25.2740 C   0  0  0  0  0  0  0  0  0  0  0  0
    6.4183    0.2030   24.5215 H   0  0  0  0  0  0  0  0  0  0  0  0
    7.8317   -1.4781   22.8347 N   0  0  0  0  0  0  0  0  0  0  0  0
    6.8778   -0.7500   22.2067 N   0  0  0  0  0  0  0  0  0  0  0  0
    5.4291    0.6574   20.1669 C   0  0  0  0  0  0  0  0  0  0  0  0
    5.0014    0.6329   21.1736 H   0  0  0  0  0  0  0  0  0  0  0  0
    4.8045    1.3103   19.1108 C   0  0  0  0  0  0  0  0  0  0  0  0
    3.8739    1.8436   19.2620 H   0  0  0  0  0  0  0  0  0  0  0  0
  1  2  1  0
  2  3  2  0
  3  4  1  0
  4  5  1  0
  4  6  2  0
  6  7  1  0
  7  8  1  0
  8  9  2  0
  9 10  1  0
 10 11  1  0
 11 12  1  0
 11 13  2  0
 13 14  1  0
 14 15  2  0
 15 16  1  0
 15 17  1  0
 17 18  1  0
 17 19  2  0
 19 20  1  0
 19 21  1  0
 21 22  1  0
 22 23  1  0
 22 24  1  0
 22 25  1  0
 21 26  2  0
 26 27  1  0
 13 28  1  0
 28 29  1  0
  6 30  1  0
 30 31  1  0
 30 32  2  0
 32 33  1  0
 32  2  1  0
 29  7  2  0
 28  9  1  0
 26 14  1  0
M  END
>  <cnnaffinity>  (1) 
-5.64017

>  <filename>  (1) 
FC(F)(F)c1cccc(-c2csc3nc(-c4cccnc4)nn23)c1

$$$$
