
     RDKit          3D

 29 31  0  0  0  0  0  0  0  0999 V2000
    4.9431    1.7835   16.9963 H   0  0  0  0  0  0  0  0  0  0  0  0
    5.4074    1.2855   17.8432 C   0  0  0  0  0  0  0  0  0  0  0  0
    6.5673    0.6661   17.5862 N   0  0  0  0  0  0  0  0  0  0  0  0
    7.1763    0.0517   18.6011 C   0  0  0  0  0  0  0  0  0  0  0  0
    8.1238   -0.4248   18.3629 H   0  0  0  0  0  0  0  0  0  0  0  0
    6.6548    0.0095   19.9014 C   0  0  0  0  0  0  0  0  0  0  0  0
    7.3974   -0.6989   20.9360 C   0  0  0  0  0  0  0  0  0  0  0  0
    8.5361   -1.3108   20.7491 N   0  0  0  0  0  0  0  0  0  0  0  0
    8.8381   -1.8374   21.9944 O   0  0  0  0  0  0  0  0  0  0  0  0
    7.8415   -1.4707   22.8104 C   0  0  0  0  0  0  0  0  0  0  0  0
    7.8771   -1.8615   24.2366 C   0  0  0  0  0  0  0  0  0  0  0  0
    7.0679   -1.0953   25.1031 C   0  0  0  0  0  0  0  0  0  0  0  0
    6.4575   -0.2953   24.6820 H   0  0  0  0  0  0  0  0  0  0  0  0
    7.0556   -1.3512   26.4719 C   0  0  0  0  0  0  0  0  0  0  0  0
    6.4317   -0.7638   27.1429 H   0  0  0  0  0  0  0  0  0  0  0  0
    7.8632   -2.3746   26.9658 C   0  0  0  0  0  0  0  0  0  0  0  0
    7.9428   -2.5830   28.0092 H   0  0  0  0  0  0  0  0  0  0  0  0
    8.6405   -3.1618   26.1327 C   0  0  0  0  0  0  0  0  0  0  0  0
    9.2301   -3.9636   26.5787 H   0  0  0  0  0  0  0  0  0  0  0  0
    8.6590   -2.9361   24.7545 C   0  0  0  0  0  0  0  0  0  0  0  0
    9.5339   -3.8563   23.8973 C   0  0  0  0  0  0  0  0  0  0  0  0
    8.8424   -4.3551   22.8598 F   0  0  0  0  0  0  0  0  0  0  0  0
   10.0018   -4.9160   24.5943 F   0  0  0  0  0  0  0  0  0  0  0  0
   10.6061   -3.2084   23.4208 F   0  0  0  0  0  0  0  0  0  0  0  0
    6.9266   -0.7648   22.2160 N   0  0  0  0  0  0  0  0  0  0  0  0
    5.4341    0.6522   20.1664 C   0  0  0  0  0  0  0  0  0  0  0  0
    5.0021    0.6396   21.1740 H   0  0  0  0  0  0  0  0  0  0  0  0
    4.8089    1.3043   19.1098 C   0  0  0  0  0  0  0  0  0  0  0  0
    3.8777    1.8394   19.2464 H   0  0  0  0  0  0  0  0  0  0  0  0
  1  2  1  0
  2  3  2  0
  3  4  1  0
  4  5  1  0
  4  6  2  0
  6  7  1  0
  7  8  2  0
  8  9  1  0
  9 10  1  0
 10 11  1  0
 11 12  2  0
 12 13  1  0
 12 14  1  0
 14 15  1  0
 14 16  2  0
 16 17  1  0
 16 18  1  0
 18 19  1  0
 18 20  2  0
 20 21  1  0
 21 22  1  0
 21 23  1  0
 21 24  1  0
 10 25  2  0
  6 26  1  0
 26 27  1  0
 26 28  2  0
 28 29  1  0
 28  2  1  0
 25  7  1  0
 20 11  1  0
M  END
>  <cnnaffinity>  (1) 
-5.2072

>  <filename>  (1) 
FC(F)(F)c1ccccc1-c1nc(-c2cccnc2)no1

$$$$
