
     RDKit          3D

 36 39  0  0  0  0  0  0  0  0999 V2000
    4.9696    1.8052   16.9424 H   0  0  0  0  0  0  0  0  0  0  0  0
    5.4088    1.3090   17.8053 C   0  0  0  0  0  0  0  0  0  0  0  0
    6.5562    0.6468   17.5813 N   0  0  0  0  0  0  0  0  0  0  0  0
    7.1186    0.0327   18.6318 C   0  0  0  0  0  0  0  0  0  0  0  0
    8.0494   -0.5003   18.4375 H   0  0  0  0  0  0  0  0  0  0  0  0
    6.5858    0.0375   19.9367 C   0  0  0  0  0  0  0  0  0  0  0  0
    7.2849   -0.6414   21.0862 C   0  0  0  0  0  0  0  0  0  0  0  0
    8.2684    0.2324   21.8180 C   0  0  0  0  0  0  0  0  0  0  0  0
    7.9685    0.8731   22.9094 N   0  0  0  0  0  0  0  0  0  0  0  0
    8.9938    1.6434   23.3692 N   0  0  0  0  0  0  0  0  0  0  0  0
   10.0646    1.5441   22.6388 C   0  0  0  0  0  0  0  0  0  0  0  0
   11.3216    2.2930   22.9401 C   0  0  0  0  0  0  0  0  0  0  0  0
   11.2441    3.6560   23.2747 C   0  0  0  0  0  0  0  0  0  0  0  0
   10.2660    4.1036   23.4234 H   0  0  0  0  0  0  0  0  0  0  0  0
   12.4055    4.4242   23.4092 C   0  0  0  0  0  0  0  0  0  0  0  0
   12.3284    5.4706   23.6961 H   0  0  0  0  0  0  0  0  0  0  0  0
   13.6569    3.8478   23.1687 C   0  0  0  0  0  0  0  0  0  0  0  0
   14.5618    4.4498   23.2260 H   0  0  0  0  0  0  0  0  0  0  0  0
   13.7448    2.4799   22.9015 C   0  0  0  0  0  0  0  0  0  0  0  0
   14.7024    2.0026   22.7029 H   0  0  0  0  0  0  0  0  0  0  0  0
   12.5977    1.6796   22.9048 C   0  0  0  0  0  0  0  0  0  0  0  0
   12.7236    0.1688   23.0041 C   0  0  0  0  0  0  0  0  0  0  0  0
   12.4485   -0.4611   21.8456 F   0  0  0  0  0  0  0  0  0  0  0  0
   11.8417   -0.2867   23.9156 F   0  0  0  0  0  0  0  0  0  0  0  0
   13.9560   -0.2242   23.3694 F   0  0  0  0  0  0  0  0  0  0  0  0
    9.8798    0.4969   21.2611 S   0  0  0  0  0  0  0  0  0  0  0  0
    7.5333   -2.1310   20.9431 C   0  0  0  0  0  0  0  0  0  0  0  0
    7.0930   -2.5925   20.0664 H   0  0  0  0  0  0  0  0  0  0  0  0
    8.4876   -2.5351   21.2570 H   0  0  0  0  0  0  0  0  0  0  0  0
    6.5538   -1.6473   21.9520 C   0  0  0  0  0  0  0  0  0  0  0  0
    6.8356   -1.6649   23.0006 H   0  0  0  0  0  0  0  0  0  0  0  0
    5.5023   -1.8142   21.7527 H   0  0  0  0  0  0  0  0  0  0  0  0
    5.3982    0.7421   20.1426 C   0  0  0  0  0  0  0  0  0  0  0  0
    4.9745    0.7684   21.1497 H   0  0  0  0  0  0  0  0  0  0  0  0
    4.7895    1.3772   19.0604 C   0  0  0  0  0  0  0  0  0  0  0  0
    3.8597    1.9273   19.1760 H   0  0  0  0  0  0  0  0  0  0  0  0
  1  2  1  0
  2  3  2  0
  3  4  1  0
  4  5  1  0
  4  6  2  0
  6  7  1  0
  7  8  1  0
  8  9  2  0
  9 10  1  0
 10 11  2  0
 11 12  1  0
 12 13  2  0
 13 14  1  0
 13 15  1  0
 15 16  1  0
 15 17  2  0
 17 18  1  0
 17 19  1  0
 19 20  1  0
 19 21  2  0
 21 22  1  0
 22 23  1  0
 22 24  1  0
 22 25  1  0
 11 26  1  0
  7 27  1  0
 27 28  1  0
 27 29  1  0
 27 30  1  0
 30 31  1  0
 30 32  1  0
  6 33  1  0
 33 34  1  0
 33 35  2  0
 35 36  1  0
 35  2  1  0
 30  7  1  0
 26  8  1  0
 21 12  1  0
M  END
>  <cnnaffinity>  (1) 
-6.15345

>  <filename>  (1) 
FC(F)(F)c1ccccc1-c1nnc(C2(c3cccnc3)CC2)s1

$$$$
