
     RDKit          3D

 31 33  0  0  0  0  0  0  0  0999 V2000
    4.9219    1.7837   16.9954 H   0  0  0  0  0  0  0  0  0  0  0  0
    5.4009    1.2947   17.8384 C   0  0  0  0  0  0  0  0  0  0  0  0
    6.5659    0.6818   17.5749 N   0  0  0  0  0  0  0  0  0  0  0  0
    7.1656    0.0536   18.5886 C   0  0  0  0  0  0  0  0  0  0  0  0
    8.1145   -0.4340   18.3691 H   0  0  0  0  0  0  0  0  0  0  0  0
    6.6431    0.0112   19.8905 C   0  0  0  0  0  0  0  0  0  0  0  0
    7.3780   -0.7178   20.9122 C   0  0  0  0  0  0  0  0  0  0  0  0
    7.9781   -1.8493   20.6959 N   0  0  0  0  0  0  0  0  0  0  0  0
    8.4753   -2.1903   21.9124 N   0  0  0  0  0  0  0  0  0  0  0  0
    9.0223   -3.0225   22.0584 H   0  0  0  0  0  0  0  0  0  0  0  0
    8.2562   -1.2881   22.8863 C   0  0  0  0  0  0  0  0  0  0  0  0
    8.8110   -1.3749   24.4455 S   0  0  0  0  0  0  0  0  0  0  0  0
    7.5084   -0.3217   22.2356 N   0  0  0  0  0  0  0  0  0  0  0  0
    7.1178    0.9288   22.8173 C   0  0  0  0  0  0  0  0  0  0  0  0
    6.3548    0.9439   23.9879 C   0  0  0  0  0  0  0  0  0  0  0  0
    6.0777    0.0094   24.4627 H   0  0  0  0  0  0  0  0  0  0  0  0
    5.9760    2.1585   24.5627 C   0  0  0  0  0  0  0  0  0  0  0  0
    5.4013    2.1628   25.4872 H   0  0  0  0  0  0  0  0  0  0  0  0
    6.3414    3.3754   23.9594 C   0  0  0  0  0  0  0  0  0  0  0  0
    5.9653    4.7004   24.6056 C   0  0  0  0  0  0  0  0  0  0  0  0
    4.8083    4.6254   25.2959 F   0  0  0  0  0  0  0  0  0  0  0  0
    6.9090    5.1091   25.4799 F   0  0  0  0  0  0  0  0  0  0  0  0
    5.8217    5.6917   23.7031 F   0  0  0  0  0  0  0  0  0  0  0  0
    7.1243    3.3520   22.7919 C   0  0  0  0  0  0  0  0  0  0  0  0
    7.4214    4.2859   22.3169 H   0  0  0  0  0  0  0  0  0  0  0  0
    7.5155    2.1360   22.2312 C   0  0  0  0  0  0  0  0  0  0  0  0
    8.0927    2.1258   21.3135 H   0  0  0  0  0  0  0  0  0  0  0  0
    5.4225    0.6513   20.1530 C   0  0  0  0  0  0  0  0  0  0  0  0
    5.0118    0.6388   21.1662 H   0  0  0  0  0  0  0  0  0  0  0  0
    4.7976    1.3100   19.1009 C   0  0  0  0  0  0  0  0  0  0  0  0
    3.8705    1.8451   19.2531 H   0  0  0  0  0  0  0  0  0  0  0  0
  1  2  1  0
  2  3  2  0
  3  4  1  0
  4  5  1  0
  4  6  2  0
  6  7  1  0
  7  8  2  0
  8  9  1  0
  9 10  1  0
  9 11  1  0
 11 12  2  0
 11 13  1  0
 13 14  1  0
 14 15  2  0
 15 16  1  0
 15 17  1  0
 17 18  1  0
 17 19  2  0
 19 20  1  0
 20 21  1  0
 20 22  1  0
 20 23  1  0
 19 24  1  0
 24 25  1  0
 24 26  2  0
 26 27  1  0
  6 28  1  0
 28 29  1  0
 28 30  2  0
 30 31  1  0
 30  2  1  0
 13  7  1  0
 26 14  1  0
M  END
>  <cnnaffinity>  (1) 
-5.17037

>  <filename>  (1) 
FC(F)(F)c1ccc(-n2c(-c3cccnc3)n[nH]c2=S)cc1

$$$$
