
     RDKit          3D

 25 26  0  0  0  0  0  0  0  0999 V2000
    4.9297    1.8173   16.9756 H   0  0  0  0  0  0  0  0  0  0  0  0
    5.3821    1.2987   17.8200 C   0  0  0  0  0  0  0  0  0  0  0  0
    6.5485    0.6841   17.5706 N   0  0  0  0  0  0  0  0  0  0  0  0
    7.1496    0.0616   18.5902 C   0  0  0  0  0  0  0  0  0  0  0  0
    8.1071   -0.4085   18.3492 H   0  0  0  0  0  0  0  0  0  0  0  0
    6.6248   -0.0112   19.8946 C   0  0  0  0  0  0  0  0  0  0  0  0
    7.3973   -0.7085   21.0011 C   0  0  0  0  0  0  0  0  0  0  0  0
    7.5906   -1.7533   20.7341 H   0  0  0  0  0  0  0  0  0  0  0  0
    6.8252   -0.7169   21.9305 H   0  0  0  0  0  0  0  0  0  0  0  0
    8.6982   -0.1086   21.2598 N   0  0  0  0  0  0  0  0  0  0  0  0
    9.8774   -0.6569   20.8486 C   0  0  0  0  0  0  0  0  0  0  0  0
    9.8557   -1.5809   20.2862 H   0  0  0  0  0  0  0  0  0  0  0  0
   10.9113    0.1514   21.2289 C   0  0  0  0  0  0  0  0  0  0  0  0
   11.9601   -0.0467   21.0788 H   0  0  0  0  0  0  0  0  0  0  0  0
   10.3265    1.2623   21.8844 C   0  0  0  0  0  0  0  0  0  0  0  0
   10.8520    2.1189   22.2910 H   0  0  0  0  0  0  0  0  0  0  0  0
    8.9679    1.0738   21.9046 C   0  0  0  0  0  0  0  0  0  0  0  0
    7.9437    1.9802   22.5127 C   0  0  0  0  0  0  0  0  0  0  0  0
    8.4423    2.7177   23.1439 H   0  0  0  0  0  0  0  0  0  0  0  0
    7.2138    2.6501   21.5782 F   0  0  0  0  0  0  0  0  0  0  0  0
    7.0441    1.2966   23.2869 F   0  0  0  0  0  0  0  0  0  0  0  0
    5.4105    0.6381   20.1296 C   0  0  0  0  0  0  0  0  0  0  0  0
    4.9922    0.6583   21.1358 H   0  0  0  0  0  0  0  0  0  0  0  0
    4.7716    1.2999   19.0759 C   0  0  0  0  0  0  0  0  0  0  0  0
    3.8493    1.8545   19.2217 H   0  0  0  0  0  0  0  0  0  0  0  0
  1  2  1  0
  2  3  2  0
  3  4  1  0
  4  5  1  0
  4  6  2  0
  6  7  1  0
  7  8  1  0
  7  9  1  0
  7 10  1  0
 10 11  1  0
 11 12  1  0
 11 13  2  0
 13 14  1  0
 13 15  1  0
 15 16  1  0
 15 17  2  0
 17 18  1  0
 18 19  1  0
 18 20  1  0
 18 21  1  0
  6 22  1  0
 22 23  1  0
 22 24  2  0
 24 25  1  0
 24  2  1  0
 17 10  1  0
M  END
>  <cnnaffinity>  (1) 
-4.21568

>  <filename>  (1) 
FC(F)c1cccn1Cc1cccnc1

$$$$
