
     RDKit          3D

 30 32  0  0  0  0  0  0  0  0999 V2000
    4.9280    1.8102   16.9698 H   0  0  0  0  0  0  0  0  0  0  0  0
    5.3926    1.3023   17.8161 C   0  0  0  0  0  0  0  0  0  0  0  0
    6.5520    0.6810   17.5614 N   0  0  0  0  0  0  0  0  0  0  0  0
    7.1696    0.0673   18.5804 C   0  0  0  0  0  0  0  0  0  0  0  0
    8.1059   -0.4237   18.3228 H   0  0  0  0  0  0  0  0  0  0  0  0
    6.6765    0.0177   19.8948 C   0  0  0  0  0  0  0  0  0  0  0  0
    7.4066   -0.7108   20.9672 C   0  0  0  0  0  0  0  0  0  0  0  0
    8.7629   -0.7966   21.1139 C   0  0  0  0  0  0  0  0  0  0  0  0
    9.5103   -0.3426   20.4784 H   0  0  0  0  0  0  0  0  0  0  0  0
    9.2288   -1.7000   22.4985 S   0  0  0  0  0  0  0  0  0  0  0  0
    7.5777   -2.0020   22.9172 C   0  0  0  0  0  0  0  0  0  0  0  0
    7.2389   -2.7899   24.1106 C   0  0  0  0  0  0  0  0  0  0  0  0
    8.2736   -3.2984   24.8077 N   0  0  0  0  0  0  0  0  0  0  0  0
    8.0169   -4.0416   25.8806 C   0  0  0  0  0  0  0  0  0  0  0  0
    9.1854   -4.6710   26.6662 C   0  0  0  0  0  0  0  0  0  0  0  0
   10.4060   -4.3477   26.2413 F   0  0  0  0  0  0  0  0  0  0  0  0
    9.1002   -6.0169   26.6449 F   0  0  0  0  0  0  0  0  0  0  0  0
    9.0945   -4.3004   27.9557 F   0  0  0  0  0  0  0  0  0  0  0  0
    6.7103   -4.2861   26.3345 C   0  0  0  0  0  0  0  0  0  0  0  0
    6.5672   -4.8705   27.2314 H   0  0  0  0  0  0  0  0  0  0  0  0
    5.6311   -3.7667   25.6160 C   0  0  0  0  0  0  0  0  0  0  0  0
    4.6064   -3.9526   25.9343 H   0  0  0  0  0  0  0  0  0  0  0  0
    5.9020   -3.0129   24.4767 C   0  0  0  0  0  0  0  0  0  0  0  0
    5.1087   -2.6088   23.8625 H   0  0  0  0  0  0  0  0  0  0  0  0
    6.7404   -1.4322   21.9983 C   0  0  0  0  0  0  0  0  0  0  0  0
    5.6662   -1.5495   21.9753 H   0  0  0  0  0  0  0  0  0  0  0  0
    5.4502    0.6632   20.1337 C   0  0  0  0  0  0  0  0  0  0  0  0
    5.0234    0.6643   21.1371 H   0  0  0  0  0  0  0  0  0  0  0  0
    4.8018    1.3173   19.0843 C   0  0  0  0  0  0  0  0  0  0  0  0
    3.8660    1.8462   19.2279 H   0  0  0  0  0  0  0  0  0  0  0  0
  1  2  1  0
  2  3  2  0
  3  4  1  0
  4  5  1  0
  4  6  2  0
  6  7  1  0
  7  8  2  0
  8  9  1  0
  8 10  1  0
 10 11  1  0
 11 12  1  0
 12 13  2  0
 13 14  1  0
 14 15  1  0
 15 16  1  0
 15 17  1  0
 15 18  1  0
 14 19  2  0
 19 20  1  0
 19 21  1  0
 21 22  1  0
 21 23  2  0
 23 24  1  0
 11 25  2  0
 25 26  1  0
  6 27  1  0
 27 28  1  0
 27 29  2  0
 29 30  1  0
 29  2  1  0
 25  7  1  0
 23 12  1  0
M  END
>  <cnnaffinity>  (1) 
-5.27657

>  <filename>  (1) 
FC(F)(F)c1cccc(-c2cc(-c3cccnc3)cs2)n1

$$$$
