
     RDKit          3D

 36 38  0  0  0  0  0  0  0  0999 V2000
    4.6130    0.8931   17.0770 H   0  0  0  0  0  0  0  0  0  0  0  0
    4.9898    0.3703   17.9524 C   0  0  0  0  0  0  0  0  0  0  0  0
    6.0590   -0.4112   17.7416 N   0  0  0  0  0  0  0  0  0  0  0  0
    6.5575   -1.0672   18.7985 C   0  0  0  0  0  0  0  0  0  0  0  0
    7.4310   -1.6778   18.6023 H   0  0  0  0  0  0  0  0  0  0  0  0
    6.0233   -1.0002   20.0998 C   0  0  0  0  0  0  0  0  0  0  0  0
    6.6197   -1.7184   21.2520 C   0  0  0  0  0  0  0  0  0  0  0  0
    6.0536   -2.6785   22.1694 C   0  0  0  0  0  0  0  0  0  0  0  0
    4.9696   -3.3712   21.9752 N   0  0  0  0  0  0  0  0  0  0  0  0
    4.2951   -3.2652   22.7522 H   0  0  0  0  0  0  0  0  0  0  0  0
    4.9054   -5.1992   23.4405 C   0  0  0  0  0  0  0  0  0  0  0  0
    5.9937   -5.2486   23.8343 H   0  0  0  0  0  0  0  0  0  0  0  0
    5.2287   -5.1655   22.3505 H   0  0  0  0  0  0  0  0  0  0  0  0
    4.8703   -5.5438   23.4344 C   0  0  0  0  0  0  0  0  0  0  0  0
    3.0626   -6.0067   22.4636 C   0  0  0  0  0  0  0  0  0  0  0  0
    3.0931   -6.7508   21.6636 H   0  0  0  0  0  0  0  0  0  0  0  0
    1.9107   -5.4356   22.7988 C   0  0  0  0  0  0  0  0  0  0  0  0
    1.0467   -5.8303   22.2391 H   0  0  0  0  0  0  0  0  0  0  0  0
    1.5745   -4.4499   23.7701 C   0  0  0  0  0  0  0  0  0  0  0  0
    0.1350   -4.0143   23.8770 C   0  0  0  0  0  0  0  0  0  0  0  0
   -0.7282   -4.8178   23.2194 F   0  0  0  0  0  0  0  0  0  0  0  0
   -0.0507   -2.7675   23.3879 F   0  0  0  0  0  0  0  0  0  0  0  0
   -0.2829   -3.9704   25.1625 F   0  0  0  0  0  0  0  0  0  0  0  0
    2.5125   -3.7480   24.6941 C   0  0  0  0  0  0  0  0  0  0  0  0
    1.9741   -3.4507   25.6171 H   0  0  0  0  0  0  0  0  0  0  0  0
    3.7290   -3.4054   24.5730 C   0  0  0  0  0  0  0  0  0  0  0  0
    4.7679   -3.2143   24.6742 H   0  0  0  0  0  0  0  0  0  0  0  0
    7.0714   -2.6490   23.2365 C   0  0  0  0  0  0  0  0  0  0  0  0
    7.0860   -3.1354   24.2077 H   0  0  0  0  0  0  0  0  0  0  0  0
    8.0981   -1.8586   22.9572 N   0  0  0  0  0  0  0  0  0  0  0  0
    7.8107   -1.3270   21.7628 N   0  0  0  0  0  0  0  0  0  0  0  0
    8.4232   -0.6293   21.3603 H   0  0  0  0  0  0  0  0  0  0  0  0
    4.9174   -0.1574   20.2923 C   0  0  0  0  0  0  0  0  0  0  0  0
    4.5128   -0.0278   21.2917 H   0  0  0  0  0  0  0  0  0  0  0  0
    4.3893    0.5357   19.2044 C   0  0  0  0  0  0  0  0  0  0  0  0
    3.5454    1.2077   19.3214 H   0  0  0  0  0  0  0  0  0  0  0  0
  1  2  1  0
  2  3  2  0
  3  4  1  0
  4  5  1  0
  4  6  2  0
  6  7  1  0
  7  8  2  0
  8  9  1  0
  9 10  1  0
  9 11  1  0
 11 12  1  0
 11 13  1  0
 11 14  1  0
 14 15  2  0
 15 16  1  0
 15 17  1  0
 17 18  1  0
 17 19  2  0
 19 20  1  0
 20 21  1  0
 20 22  1  0
 20 23  1  0
 19 24  1  0
 24 25  1  0
 24 26  2  0
 26 27  1  0
  8 28  1  0
 28 29  1  0
 28 30  2  0
 30 31  1  0
 31 32  1  0
  6 33  1  0
 33 34  1  0
 33 35  2  0
 35 36  1  0
 35  2  1  0
 31  7  1  0
 26 14  1  0
M  END
>  <cnnaffinity>  (1) 
-5.61635

>  <filename>  (1) 
FC(F)(F)c1ccc(CNc2cn[nH]c2-c2cccnc2)cc1

$$$$
