
     RDKit          3D

 34 36  0  0  0  0  0  0  0  0999 V2000
    5.3750   -2.5771   20.9594 H   0  0  0  0  0  0  0  0  0  0  0  0
    5.8913   -2.4510   21.9118 C   0  0  0  0  0  0  0  0  0  0  0  0
    7.0268   -1.7229   21.9723 C   0  0  0  0  0  0  0  0  0  0  0  0
    7.5263   -0.7356   20.9614 C   0  0  0  0  0  0  0  0  0  0  0  0
    6.6979   -0.0516   19.9360 C   0  0  0  0  0  0  0  0  0  0  0  0
    7.2379    0.0396   18.6434 C   0  0  0  0  0  0  0  0  0  0  0  0
    8.2016   -0.4130   18.4263 H   0  0  0  0  0  0  0  0  0  0  0  0
    6.6346    0.6474   17.6192 N   0  0  0  0  0  0  0  0  0  0  0  0
    5.4601    1.2466   17.8680 C   0  0  0  0  0  0  0  0  0  0  0  0
    4.9921    1.7514   17.0236 H   0  0  0  0  0  0  0  0  0  0  0  0
    4.8435    1.2407   19.1233 C   0  0  0  0  0  0  0  0  0  0  0  0
    3.9114    1.7790   19.2539 H   0  0  0  0  0  0  0  0  0  0  0  0
    5.4653    0.5739   20.1840 C   0  0  0  0  0  0  0  0  0  0  0  0
    5.0162    0.5713   21.1793 H   0  0  0  0  0  0  0  0  0  0  0  0
    8.7845   -0.4959   21.0487 N   0  0  0  0  0  0  0  0  0  0  0  0
    9.3532   -1.2572   22.1639 C   0  0  0  0  0  0  0  0  0  0  0  0
    9.9974   -2.0475   21.7535 H   0  0  0  0  0  0  0  0  0  0  0  0
    9.9764   -0.6079   22.7850 H   0  0  0  0  0  0  0  0  0  0  0  0
    8.1715   -1.8458   22.9706 C   0  0  0  0  0  0  0  0  0  0  0  0
    7.9923   -1.2208   23.8550 H   0  0  0  0  0  0  0  0  0  0  0  0
    8.3522   -2.8686   23.3095 H   0  0  0  0  0  0  0  0  0  0  0  0
    5.2613   -3.2130   23.0163 C   0  0  0  0  0  0  0  0  0  0  0  0
    4.4669   -4.2296   22.6148 N   0  0  0  0  0  0  0  0  0  0  0  0
    3.8671   -4.9810   23.5502 C   0  0  0  0  0  0  0  0  0  0  0  0
    2.9841   -6.1843   23.1517 C   0  0  0  0  0  0  0  0  0  0  0  0
    3.4999   -7.3470   23.6067 F   0  0  0  0  0  0  0  0  0  0  0  0
    2.7908   -6.3270   21.8449 F   0  0  0  0  0  0  0  0  0  0  0  0
    1.7650   -6.0613   23.7246 F   0  0  0  0  0  0  0  0  0  0  0  0
    3.9739   -4.7161   24.9250 C   0  0  0  0  0  0  0  0  0  0  0  0
    3.4551   -5.3442   25.6404 H   0  0  0  0  0  0  0  0  0  0  0  0
    4.7482   -3.6391   25.3431 C   0  0  0  0  0  0  0  0  0  0  0  0
    4.8165   -3.3939   26.4029 H   0  0  0  0  0  0  0  0  0  0  0  0
    5.4187   -2.8877   24.3823 C   0  0  0  0  0  0  0  0  0  0  0  0
    6.0191   -2.0299   24.6657 H   0  0  0  0  0  0  0  0  0  0  0  0
  1  2  1  0
  2  3  2  3
  3  4  1  0
  4  5  1  0
  5  6  2  0
  6  7  1  0
  6  8  1  0
  8  9  2  0
  9 10  1  0
  9 11  1  0
 11 12  1  0
 11 13  2  0
 13 14  1  0
  4 15  2  0
 15 16  1  0
 16 17  1  0
 16 18  1  0
 16 19  1  0
 19 20  1  0
 19 21  1  0
  2 22  1  0
 22 23  2  0
 23 24  1  0
 24 25  1  0
 25 26  1  0
 25 27  1  0
 25 28  1  0
 24 29  2  0
 29 30  1  0
 29 31  1  0
 31 32  1  0
 31 33  2  0
 33 34  1  0
 19  3  1  0
 33 22  1  0
 13  5  1  0
M  END
>  <cnnaffinity>  (1) 
-5.5412

>  <filename>  (1) 
FC(F)(F)c1cccc(C=C2CCN=C2c2cccnc2)n1

$$$$
