
     RDKit          3D

 21 22  0  0  0  0  0  0  0  0999 V2000
    9.1551   -2.9927   22.1819 H   0  0  0  0  0  0  0  0  0  0  0  0
    8.5647   -2.1368   21.8853 C   0  0  0  0  0  0  0  0  0  0  0  0
    8.0872   -1.8517   20.7227 N   0  0  0  0  0  0  0  0  0  0  0  0
    7.3508   -0.7015   20.9429 C   0  0  0  0  0  0  0  0  0  0  0  0
    6.6333   -0.0072   19.8886 C   0  0  0  0  0  0  0  0  0  0  0  0
    7.1655    0.0367   18.5888 C   0  0  0  0  0  0  0  0  0  0  0  0
    8.1184   -0.4363   18.3657 H   0  0  0  0  0  0  0  0  0  0  0  0
    6.5688    0.6691   17.5753 N   0  0  0  0  0  0  0  0  0  0  0  0
    5.4092    1.2898   17.8353 C   0  0  0  0  0  0  0  0  0  0  0  0
    4.9361    1.7854   16.9912 H   0  0  0  0  0  0  0  0  0  0  0  0
    4.8033    1.3089   19.0975 C   0  0  0  0  0  0  0  0  0  0  0  0
    3.8753    1.8427   19.2484 H   0  0  0  0  0  0  0  0  0  0  0  0
    5.4255    0.6501   20.1523 C   0  0  0  0  0  0  0  0  0  0  0  0
    4.9938    0.6411   21.1588 H   0  0  0  0  0  0  0  0  0  0  0  0
    7.4753   -0.3307   22.2571 C   0  0  0  0  0  0  0  0  0  0  0  0
    7.0509    1.0878   23.1580 S   0  0  0  0  0  0  0  0  0  0  0  0
    8.4791    2.1511   22.6834 C   0  0  0  0  0  0  0  0  0  0  0  0
    8.3001    3.3622   23.1994 F   0  0  0  0  0  0  0  0  0  0  0  0
    9.5975    1.6185   23.1589 F   0  0  0  0  0  0  0  0  0  0  0  0
    8.5899    2.2542   21.3557 F   0  0  0  0  0  0  0  0  0  0  0  0
    8.2636   -1.2697   22.8609 O   0  0  0  0  0  0  0  0  0  0  0  0
  1  2  1  0
  2  3  2  0
  3  4  1  0
  4  5  1  0
  5  6  2  0
  6  7  1  0
  6  8  1  0
  8  9  2  0
  9 10  1  0
  9 11  1  0
 11 12  1  0
 11 13  2  0
 13 14  1  0
  4 15  2  0
 15 16  1  0
 16 17  1  0
 17 18  1  0
 17 19  1  0
 17 20  1  0
 15 21  1  0
 21  2  1  0
 13  5  1  0
M  END
>  <cnnaffinity>  (1) 
-4.81138

>  <filename>  (1) 
FC(F)(F)Sc1ocnc1-c1cccnc1

$$$$
