
     RDKit          3D

 29 31  0  0  0  0  0  0  0  0999 V2000
    8.8208   -3.2269   22.1942 H   0  0  0  0  0  0  0  0  0  0  0  0
    8.3337   -2.2974   21.9123 C   0  0  0  0  0  0  0  0  0  0  0  0
    7.9140   -1.9354   20.7527 N   0  0  0  0  0  0  0  0  0  0  0  0
    7.3562   -0.6932   20.9646 C   0  0  0  0  0  0  0  0  0  0  0  0
    6.6512    0.0112   19.9026 C   0  0  0  0  0  0  0  0  0  0  0  0
    7.1741    0.0457   18.6005 C   0  0  0  0  0  0  0  0  0  0  0  0
    8.1236   -0.4374   18.3778 H   0  0  0  0  0  0  0  0  0  0  0  0
    6.5723    0.6755   17.5876 N   0  0  0  0  0  0  0  0  0  0  0  0
    5.4066    1.2906   17.8427 C   0  0  0  0  0  0  0  0  0  0  0  0
    4.9168    1.7757   17.0019 H   0  0  0  0  0  0  0  0  0  0  0  0
    4.8018    1.3107   19.1041 C   0  0  0  0  0  0  0  0  0  0  0  0
    3.8713    1.8447   19.2609 H   0  0  0  0  0  0  0  0  0  0  0  0
    5.4296    0.6488   20.1518 C   0  0  0  0  0  0  0  0  0  0  0  0
    5.0013    0.6341   21.1570 H   0  0  0  0  0  0  0  0  0  0  0  0
    7.5157   -0.3485   22.2823 C   0  0  0  0  0  0  0  0  0  0  0  0
    7.1953    0.9027   22.9804 C   0  0  0  0  0  0  0  0  0  0  0  0
    6.8331    0.8217   24.2677 N   0  0  0  0  0  0  0  0  0  0  0  0
    6.5261    1.9381   24.9358 C   0  0  0  0  0  0  0  0  0  0  0  0
    6.1324    1.8148   26.4205 C   0  0  0  0  0  0  0  0  0  0  0  0
    4.9040    2.3343   26.6367 F   0  0  0  0  0  0  0  0  0  0  0  0
    6.1228    0.5635   26.8841 F   0  0  0  0  0  0  0  0  0  0  0  0
    6.9702    2.5293   27.2037 F   0  0  0  0  0  0  0  0  0  0  0  0
    6.5583    3.2143   24.3464 C   0  0  0  0  0  0  0  0  0  0  0  0
    6.3049    4.1010   24.9175 H   0  0  0  0  0  0  0  0  0  0  0  0
    6.9384    3.3075   23.0084 C   0  0  0  0  0  0  0  0  0  0  0  0
    6.9839    4.2766   22.5145 H   0  0  0  0  0  0  0  0  0  0  0  0
    7.2659    2.1435   22.3152 C   0  0  0  0  0  0  0  0  0  0  0  0
    7.5729    2.1876   21.2767 H   0  0  0  0  0  0  0  0  0  0  0  0
    8.1402   -1.4051   22.8933 O   0  0  0  0  0  0  0  0  0  0  0  0
  1  2  1  0
  2  3  2  0
  3  4  1  0
  4  5  1  0
  5  6  2  0
  6  7  1  0
  6  8  1  0
  8  9  2  0
  9 10  1  0
  9 11  1  0
 11 12  1  0
 11 13  2  0
 13 14  1  0
  4 15  2  0
 15 16  1  0
 16 17  2  0
 17 18  1  0
 18 19  1  0
 19 20  1  0
 19 21  1  0
 19 22  1  0
 18 23  2  0
 23 24  1  0
 23 25  1  0
 25 26  1  0
 25 27  2  0
 27 28  1  0
 15 29  1  0
 29  2  1  0
 13  5  1  0
 27 16  1  0
M  END
>  <cnnaffinity>  (1) 
-5.24573

>  <filename>  (1) 
FC(F)(F)c1cccc(-c2ocnc2-c2cccnc2)n1

$$$$
