
     RDKit          3D

 22 23  0  0  0  0  0  0  0  0999 V2000
    5.7373   -1.4350   22.0413 H   0  0  0  0  0  0  0  0  0  0  0  0
    6.8118   -1.3813   22.0122 C   0  0  0  0  0  0  0  0  0  0  0  0
    7.4980   -2.0121   22.9555 N   0  0  0  0  0  0  0  0  0  0  0  0
    8.8323   -1.9804   22.8914 N   0  0  0  0  0  0  0  0  0  0  0  0
    9.4080   -1.3765   21.8445 C   0  0  0  0  0  0  0  0  0  0  0  0
   10.7299   -1.4004   21.6984 O   0  0  0  0  0  0  0  0  0  0  0  0
   11.4860   -1.9539   22.7079 C   0  0  0  0  0  0  0  0  0  0  0  0
   11.2155   -1.5543   23.6949 H   0  0  0  0  0  0  0  0  0  0  0  0
   11.3393   -3.2794   22.7450 F   0  0  0  0  0  0  0  0  0  0  0  0
   12.7449   -1.6634   22.3656 F   0  0  0  0  0  0  0  0  0  0  0  0
    8.7916   -0.7192   20.8589 N   0  0  0  0  0  0  0  0  0  0  0  0
    7.4700   -0.6956   20.9572 C   0  0  0  0  0  0  0  0  0  0  0  0
    6.6992    0.0211   19.9188 C   0  0  0  0  0  0  0  0  0  0  0  0
    7.2016    0.0654   18.6055 C   0  0  0  0  0  0  0  0  0  0  0  0
    8.1420   -0.4237   18.3628 H   0  0  0  0  0  0  0  0  0  0  0  0
    6.5719    0.6628   17.5870 N   0  0  0  0  0  0  0  0  0  0  0  0
    5.4106    1.2800   17.8510 C   0  0  0  0  0  0  0  0  0  0  0  0
    4.9300    1.7747   17.0073 H   0  0  0  0  0  0  0  0  0  0  0  0
    4.8214    1.2991   19.1171 C   0  0  0  0  0  0  0  0  0  0  0  0
    3.8909    1.8283   19.2630 H   0  0  0  0  0  0  0  0  0  0  0  0
    5.4629    0.6470   20.1675 C   0  0  0  0  0  0  0  0  0  0  0  0
    5.0091    0.6459   21.1605 H   0  0  0  0  0  0  0  0  0  0  0  0
  1  2  1  0
  2  3  2  0
  3  4  1  0
  4  5  2  0
  5  6  1  0
  6  7  1  0
  7  8  1  0
  7  9  1  0
  7 10  1  0
  5 11  1  0
 11 12  2  0
 12 13  1  0
 13 14  2  0
 14 15  1  0
 14 16  1  0
 16 17  2  0
 17 18  1  0
 17 19  1  0
 19 20  1  0
 19 21  2  0
 21 22  1  0
 12  2  1  0
 21 13  1  0
M  END
>  <cnnaffinity>  (1) 
-4.58881

>  <filename>  (1) 
FC(F)Oc1nncc(-c2cccnc2)n1

$$$$
