
     RDKit          3D

 40 42  0  0  0  0  0  0  0  0999 V2000
    4.9847    1.9003   17.0021 H   0  0  0  0  0  0  0  0  0  0  0  0
    5.4517    1.3470   17.8144 C   0  0  0  0  0  0  0  0  0  0  0  0
    6.6011    0.7177   17.5198 N   0  0  0  0  0  0  0  0  0  0  0  0
    7.1984    0.0331   18.5053 C   0  0  0  0  0  0  0  0  0  0  0  0
    8.1337   -0.4655   18.2523 H   0  0  0  0  0  0  0  0  0  0  0  0
    6.6891   -0.0974   19.8237 C   0  0  0  0  0  0  0  0  0  0  0  0
    7.3833   -0.8820   20.7833 N   0  0  0  0  0  0  0  0  0  0  0  0
    6.6315   -1.5846   21.8307 C   0  0  0  0  0  0  0  0  0  0  0  0
    5.7160   -2.0021   21.3977 H   0  0  0  0  0  0  0  0  0  0  0  0
    6.3334   -0.9277   22.6673 H   0  0  0  0  0  0  0  0  0  0  0  0
    7.5100   -2.7173   22.3730 C   0  0  0  0  0  0  0  0  0  0  0  0
    7.0268   -3.2185   23.2164 H   0  0  0  0  0  0  0  0  0  0  0  0
    7.6693   -3.4502   21.5670 H   0  0  0  0  0  0  0  0  0  0  0  0
    8.7612   -2.2383   22.8540 O   0  0  0  0  0  0  0  0  0  0  0  0
    9.4759   -1.5308   21.8454 C   0  0  0  0  0  0  0  0  0  0  0  0
   10.4027   -1.1776   22.3094 H   0  0  0  0  0  0  0  0  0  0  0  0
    9.7384   -2.2051   21.0145 H   0  0  0  0  0  0  0  0  0  0  0  0
    8.6644   -0.3496   21.2889 C   0  0  2  0  0  0  0  0  0  0  0  0
    9.2152    0.0520   20.4283 H   0  0  0  0  0  0  0  0  0  0  0  0
    8.4780    0.7840   22.3390 C   0  0  0  0  0  0  0  0  0  0  0  0
    7.6617    1.4304   21.9836 H   0  0  0  0  0  0  0  0  0  0  0  0
    8.1457    0.3380   23.2843 H   0  0  0  0  0  0  0  0  0  0  0  0
    9.7471    1.5765   22.5326 C   0  0  0  0  0  0  0  0  0  0  0  0
   10.1742    2.4367   21.5121 C   0  0  0  0  0  0  0  0  0  0  0  0
    9.5023    2.6329   20.6837 H   0  0  0  0  0  0  0  0  0  0  0  0
   11.4256    3.0426   21.5668 C   0  0  0  0  0  0  0  0  0  0  0  0
   11.7911    3.6467   20.7380 H   0  0  0  0  0  0  0  0  0  0  0  0
   12.2383    2.8619   22.6893 C   0  0  0  0  0  0  0  0  0  0  0  0
   13.6180    3.4587   22.7013 C   0  0  0  0  0  0  0  0  0  0  0  0
   13.8550    4.2974   21.6724 F   0  0  0  0  0  0  0  0  0  0  0  0
   14.5153    2.4570   22.6428 F   0  0  0  0  0  0  0  0  0  0  0  0
   13.8784    4.1674   23.8148 F   0  0  0  0  0  0  0  0  0  0  0  0
   11.8032    2.0469   23.7500 C   0  0  0  0  0  0  0  0  0  0  0  0
   12.4187    1.9045   24.6367 H   0  0  0  0  0  0  0  0  0  0  0  0
   10.5715    1.3981   23.6547 C   0  0  0  0  0  0  0  0  0  0  0  0
   10.2504    0.7232   24.4449 H   0  0  0  0  0  0  0  0  0  0  0  0
    5.4857    0.5767   20.1025 C   0  0  0  0  0  0  0  0  0  0  0  0
    5.0728    0.5330   21.1104 H   0  0  0  0  0  0  0  0  0  0  0  0
    4.8642    1.3072   19.0829 C   0  0  0  0  0  0  0  0  0  0  0  0
    3.9419    1.8500   19.2618 H   0  0  0  0  0  0  0  0  0  0  0  0
  1  2  1  0
  2  3  2  0
  3  4  1  0
  4  5  1  0
  4  6  2  0
  6  7  1  0
  7  8  1  0
  8  9  1  0
  8 10  1  0
  8 11  1  0
 11 12  1  0
 11 13  1  0
 11 14  1  0
 14 15  1  0
 15 16  1  0
 15 17  1  0
 15 18  1  0
 18 19  1  6
 18 20  1  0
 20 21  1  0
 20 22  1  0
 20 23  1  0
 23 24  2  0
 24 25  1  0
 24 26  1  0
 26 27  1  0
 26 28  2  0
 28 29  1  0
 29 30  1  0
 29 31  1  0
 29 32  1  0
 28 33  1  0
 33 34  1  0
 33 35  2  0
 35 36  1  0
  6 37  1  0
 37 38  1  0
 37 39  2  0
 39 40  1  0
 39  2  1  0
 18  7  1  0
 35 23  1  0
M  END
>  <cnnaffinity>  (1) 
-5.22347

>  <filename>  (1) 
FC(F)(F)c1ccc(C[C@H]2COCCN2c2cccnc2)cc1

$$$$
