
     RDKit          3D

 29 31  0  0  0  0  0  0  0  0999 V2000
    8.3801   -3.3329   22.2676 H   0  0  0  0  0  0  0  0  0  0  0  0
    8.2059   -2.2815   22.0754 C   0  0  0  0  0  0  0  0  0  0  0  0
    8.5912   -1.2723   22.7748 N   0  0  0  0  0  0  0  0  0  0  0  0
    8.0348   -0.1796   22.0921 C   0  0  0  0  0  0  0  0  0  0  0  0
    8.2135    1.2502   22.4292 C   0  0  0  0  0  0  0  0  0  0  0  0
    7.1675    2.0498   22.1497 N   0  0  0  0  0  0  0  0  0  0  0  0
    7.2173    3.3301   22.5048 C   0  0  0  0  0  0  0  0  0  0  0  0
    6.3335    3.9226   22.2847 H   0  0  0  0  0  0  0  0  0  0  0  0
    8.3217    3.9145   23.1308 C   0  0  0  0  0  0  0  0  0  0  0  0
    8.3116    4.9642   23.3912 H   0  0  0  0  0  0  0  0  0  0  0  0
    9.4350    3.1233   23.3735 C   0  0  0  0  0  0  0  0  0  0  0  0
   10.3272    3.5414   23.8470 H   0  0  0  0  0  0  0  0  0  0  0  0
    9.3985    1.7808   22.9882 C   0  0  0  0  0  0  0  0  0  0  0  0
   10.6034    0.8979   23.2100 C   0  0  0  0  0  0  0  0  0  0  0  0
   10.4116    0.0575   24.2382 F   0  0  0  0  0  0  0  0  0  0  0  0
   11.7041    1.6291   23.4886 F   0  0  0  0  0  0  0  0  0  0  0  0
   10.9016    0.1528   22.1281 F   0  0  0  0  0  0  0  0  0  0  0  0
    7.3604   -0.6278   20.9903 C   0  0  0  0  0  0  0  0  0  0  0  0
    6.6350   -0.0022   19.8903 C   0  0  0  0  0  0  0  0  0  0  0  0
    7.1561    0.0390   18.5839 C   0  0  0  0  0  0  0  0  0  0  0  0
    8.1162   -0.4279   18.3641 H   0  0  0  0  0  0  0  0  0  0  0  0
    6.5621    0.6713   17.5695 N   0  0  0  0  0  0  0  0  0  0  0  0
    5.3968    1.2920   17.8277 C   0  0  0  0  0  0  0  0  0  0  0  0
    4.9259    1.7927   16.9855 H   0  0  0  0  0  0  0  0  0  0  0  0
    4.7861    1.2951   19.0836 C   0  0  0  0  0  0  0  0  0  0  0  0
    3.8684    1.8462   19.2471 H   0  0  0  0  0  0  0  0  0  0  0  0
    5.4030    0.6213   20.1313 C   0  0  0  0  0  0  0  0  0  0  0  0
    5.0125    0.6454   21.1516 H   0  0  0  0  0  0  0  0  0  0  0  0
    7.4906   -1.9884   20.9766 O   0  0  0  0  0  0  0  0  0  0  0  0
  1  2  1  0
  2  3  2  0
  3  4  1  0
  4  5  1  0
  5  6  2  0
  6  7  1  0
  7  8  1  0
  7  9  2  0
  9 10  1  0
  9 11  1  0
 11 12  1  0
 11 13  2  0
 13 14  1  0
 14 15  1  0
 14 16  1  0
 14 17  1  0
  4 18  2  0
 18 19  1  0
 19 20  2  0
 20 21  1  0
 20 22  1  0
 22 23  2  0
 23 24  1  0
 23 25  1  0
 25 26  1  0
 25 27  2  0
 27 28  1  0
 18 29  1  0
 29  2  1  0
 13  5  1  0
 27 19  1  0
M  END
>  <cnnaffinity>  (1) 
-5.55356

>  <filename>  (1) 
FC(F)(F)c1cccnc1-c1ncoc1-c1cccnc1

$$$$
