
     RDKit          3D

 29 31  0  0  0  0  0  0  0  0999 V2000
    4.9207    1.7750   16.9996 H   0  0  0  0  0  0  0  0  0  0  0  0
    5.4061    1.2893   17.8421 C   0  0  0  0  0  0  0  0  0  0  0  0
    6.5689    0.6735   17.5857 N   0  0  0  0  0  0  0  0  0  0  0  0
    7.1723    0.0616   18.6068 C   0  0  0  0  0  0  0  0  0  0  0  0
    8.1150   -0.4286   18.3671 H   0  0  0  0  0  0  0  0  0  0  0  0
    6.6543    0.0079   19.9062 C   0  0  0  0  0  0  0  0  0  0  0  0
    7.3856   -0.7100   20.9632 C   0  0  0  0  0  0  0  0  0  0  0  0
    6.6897   -1.1215   22.0693 N   0  0  0  0  0  0  0  0  0  0  0  0
    7.4603   -1.6892   22.9505 C   0  0  0  0  0  0  0  0  0  0  0  0
    7.0007   -2.1724   24.3163 C   0  0  0  0  0  0  0  0  0  0  0  0
    6.1628   -1.3361   24.9525 N   0  0  0  0  0  0  0  0  0  0  0  0
    5.7149   -1.6242   26.1717 C   0  0  0  0  0  0  0  0  0  0  0  0
    5.0183   -0.9148   26.6071 H   0  0  0  0  0  0  0  0  0  0  0  0
    6.1046   -2.7669   26.8709 C   0  0  0  0  0  0  0  0  0  0  0  0
    5.7264   -2.9510   27.8663 H   0  0  0  0  0  0  0  0  0  0  0  0
    6.9728   -3.6543   26.2522 C   0  0  0  0  0  0  0  0  0  0  0  0
    7.2879   -4.5558   26.7763 H   0  0  0  0  0  0  0  0  0  0  0  0
    7.4048   -3.3816   24.9449 C   0  0  0  0  0  0  0  0  0  0  0  0
    8.2993   -4.3870   24.2656 C   0  0  0  0  0  0  0  0  0  0  0  0
    8.2203   -5.6102   24.8224 F   0  0  0  0  0  0  0  0  0  0  0  0
    9.5899   -4.0143   24.3233 F   0  0  0  0  0  0  0  0  0  0  0  0
    7.9903   -4.5405   22.9645 F   0  0  0  0  0  0  0  0  0  0  0  0
    9.1377   -1.7663   22.4617 S   0  0  0  0  0  0  0  0  0  0  0  0
    8.7181   -0.9788   20.9979 C   0  0  0  0  0  0  0  0  0  0  0  0
    9.4431   -0.7127   20.2426 H   0  0  0  0  0  0  0  0  0  0  0  0
    5.4347    0.6531   20.1602 C   0  0  0  0  0  0  0  0  0  0  0  0
    5.0068    0.6248   21.1677 H   0  0  0  0  0  0  0  0  0  0  0  0
    4.8069    1.3113   19.1084 C   0  0  0  0  0  0  0  0  0  0  0  0
    3.8732    1.8444   19.2595 H   0  0  0  0  0  0  0  0  0  0  0  0
  1  2  1  0
  2  3  2  0
  3  4  1  0
  4  5  1  0
  4  6  2  0
  6  7  1  0
  7  8  1  0
  8  9  2  0
  9 10  1  0
 10 11  2  0
 11 12  1  0
 12 13  1  0
 12 14  2  0
 14 15  1  0
 14 16  1  0
 16 17  1  0
 16 18  2  0
 18 19  1  0
 19 20  1  0
 19 21  1  0
 19 22  1  0
  9 23  1  0
 23 24  1  0
 24 25  1  0
  6 26  1  0
 26 27  1  0
 26 28  2  0
 28 29  1  0
 28  2  1  0
 24  7  2  0
 18 10  1  0
M  END
>  <cnnaffinity>  (1) 
-5.65563

>  <filename>  (1) 
FC(F)(F)c1cccnc1-c1nc(-c2cccnc2)cs1

$$$$
