
     RDKit          3D

 24 25  0  0  0  0  0  0  0  0999 V2000
    4.9258    1.7801   16.9992 H   0  0  0  0  0  0  0  0  0  0  0  0
    5.4071    1.2878   17.8424 C   0  0  0  0  0  0  0  0  0  0  0  0
    6.5678    0.6722   17.5811 N   0  0  0  0  0  0  0  0  0  0  0  0
    7.1808    0.0549   18.5984 C   0  0  0  0  0  0  0  0  0  0  0  0
    8.1239   -0.4247   18.3609 H   0  0  0  0  0  0  0  0  0  0  0  0
    6.6712    0.0000   19.9059 C   0  0  0  0  0  0  0  0  0  0  0  0
    7.4067   -0.7179   20.9659 C   0  0  0  0  0  0  0  0  0  0  0  0
    8.5397   -1.3457   20.7289 N   0  0  0  0  0  0  0  0  0  0  0  0
    8.9292   -1.8979   21.9559 O   0  0  0  0  0  0  0  0  0  0  0  0
    8.0138   -1.5545   22.8626 C   0  0  0  0  0  0  0  0  0  0  0  0
    8.1388   -1.9077   24.1459 O   0  0  0  0  0  0  0  0  0  0  0  0
    9.1638   -2.7836   24.6028 C   0  0  0  0  0  0  0  0  0  0  0  0
    9.1786   -2.6422   25.6813 H   0  0  0  0  0  0  0  0  0  0  0  0
   10.1506   -2.5393   24.1958 H   0  0  0  0  0  0  0  0  0  0  0  0
    8.8760   -4.2683   24.3446 C   0  0  0  0  0  0  0  0  0  0  0  0
    9.8386   -5.0094   24.9199 F   0  0  0  0  0  0  0  0  0  0  0  0
    8.8635   -4.5372   23.0340 F   0  0  0  0  0  0  0  0  0  0  0  0
    7.7053   -4.6557   24.8704 F   0  0  0  0  0  0  0  0  0  0  0  0
    7.0184   -0.8268   22.3214 C   0  0  0  0  0  0  0  0  0  0  0  0
    6.1622   -0.4352   22.8378 H   0  0  0  0  0  0  0  0  0  0  0  0
    5.4488    0.6463   20.1602 C   0  0  0  0  0  0  0  0  0  0  0  0
    5.0023    0.6386   21.1573 H   0  0  0  0  0  0  0  0  0  0  0  0
    4.8121    1.3047   19.1090 C   0  0  0  0  0  0  0  0  0  0  0  0
    3.8815    1.8371   19.2593 H   0  0  0  0  0  0  0  0  0  0  0  0
  1  2  1  0
  2  3  2  0
  3  4  1  0
  4  5  1  0
  4  6  2  0
  6  7  1  0
  7  8  2  0
  8  9  1  0
  9 10  1  0
 10 11  1  0
 11 12  1  0
 12 13  1  0
 12 14  1  0
 12 15  1  0
 15 16  1  0
 15 17  1  0
 15 18  1  0
 10 19  2  0
 19 20  1  0
  6 21  1  0
 21 22  1  0
 21 23  2  0
 23 24  1  0
 23  2  1  0
 19  7  1  0
M  END
>  <cnnaffinity>  (1) 
-4.57553

>  <filename>  (1) 
FC(F)(F)COc1cc(-c2cccnc2)no1

$$$$
