
     RDKit          3D

 37 40  0  0  0  0  0  0  0  0999 V2000
    4.9104    1.8378   16.9595 H   0  0  0  0  0  0  0  0  0  0  0  0
    5.3910    1.3209   17.7884 C   0  0  0  0  0  0  0  0  0  0  0  0
    6.5480    0.7033   17.5085 N   0  0  0  0  0  0  0  0  0  0  0  0
    7.1697    0.0818   18.5182 C   0  0  0  0  0  0  0  0  0  0  0  0
    8.1114   -0.4055   18.2620 H   0  0  0  0  0  0  0  0  0  0  0  0
    6.6947    0.0262   19.8416 C   0  0  0  0  0  0  0  0  0  0  0  0
    7.4647   -0.6838   20.9397 C   0  0  1  0  0  0  0  0  0  0  0  0
    8.3939   -1.0816   20.5132 H   0  0  0  0  0  0  0  0  0  0  0  0
    7.8653    0.2677   22.1222 C   0  0  0  0  0  0  0  0  0  0  0  0
    8.9504    0.3844   22.1811 H   0  0  0  0  0  0  0  0  0  0  0  0
    7.4430    1.2714   22.0351 H   0  0  0  0  0  0  0  0  0  0  0  0
    7.3237   -0.4260   23.3315 C   0  0  0  0  0  0  0  0  0  0  0  0
    7.3084   -0.1428   24.6198 N   0  0  0  0  0  0  0  0  0  0  0  0
    6.6858   -1.2191   25.1624 N   0  0  0  0  0  0  0  0  0  0  0  0
    6.5781   -1.2616   26.1653 H   0  0  0  0  0  0  0  0  0  0  0  0
    6.2964   -2.1518   24.2410 C   0  0  0  0  0  0  0  0  0  0  0  0
    5.6355   -3.4331   24.5137 C   0  0  0  0  0  0  0  0  0  0  0  0
    4.7181   -3.9148   23.5624 C   0  0  0  0  0  0  0  0  0  0  0  0
    4.4696   -3.2969   22.7010 H   0  0  0  0  0  0  0  0  0  0  0  0
    4.1360   -5.1142   23.6276 N   0  0  0  0  0  0  0  0  0  0  0  0
    4.4730   -5.9280   24.6444 C   0  0  0  0  0  0  0  0  0  0  0  0
    3.9371   -7.3703   24.6609 C   0  0  0  0  0  0  0  0  0  0  0  0
    3.6531   -7.7675   25.9202 F   0  0  0  0  0  0  0  0  0  0  0  0
    2.8375   -7.5474   23.9258 F   0  0  0  0  0  0  0  0  0  0  0  0
    4.8798   -8.2228   24.2123 F   0  0  0  0  0  0  0  0  0  0  0  0
    5.3680   -5.5400   25.6575 C   0  0  0  0  0  0  0  0  0  0  0  0
    5.6279   -6.2263   26.4577 H   0  0  0  0  0  0  0  0  0  0  0  0
    5.9532   -4.2790   25.5922 C   0  0  0  0  0  0  0  0  0  0  0  0
    6.6803   -3.9670   26.3402 H   0  0  0  0  0  0  0  0  0  0  0  0
    6.7166   -1.6342   23.0310 C   0  0  0  0  0  0  0  0  0  0  0  0
    6.6785   -1.8931   21.5570 C   0  0  0  0  0  0  0  0  0  0  0  0
    7.1311   -2.8496   21.2696 H   0  0  0  0  0  0  0  0  0  0  0  0
    5.6424   -1.9286   21.1981 H   0  0  0  0  0  0  0  0  0  0  0  0
    5.4705    0.6664   20.0995 C   0  0  0  0  0  0  0  0  0  0  0  0
    5.0406    0.6676   21.1032 H   0  0  0  0  0  0  0  0  0  0  0  0
    4.8104    1.3218   19.0589 C   0  0  0  0  0  0  0  0  0  0  0  0
    3.8714    1.8418   19.2163 H   0  0  0  0  0  0  0  0  0  0  0  0
  1  2  1  0
  2  3  2  0
  3  4  1  0
  4  5  1  0
  4  6  2  0
  6  7  1  0
  7  8  1  6
  7  9  1  0
  9 10  1  0
  9 11  1  0
  9 12  1  0
 12 13  2  0
 13 14  1  0
 14 15  1  0
 14 16  1  0
 16 17  1  0
 17 18  2  0
 18 19  1  0
 18 20  1  0
 20 21  2  0
 21 22  1  0
 22 23  1  0
 22 24  1  0
 22 25  1  0
 21 26  1  0
 26 27  1  0
 26 28  2  0
 28 29  1  0
 16 30  2  0
 30 31  1  0
 31 32  1  0
 31 33  1  0
  6 34  1  0
 34 35  1  0
 34 36  2  0
 36 37  1  0
 36  2  1  0
 31  7  1  0
 30 12  1  0
 28 17  1  0
M  END
>  <cnnaffinity>  (1) 
-5.78869

>  <filename>  (1) 
FC(F)(F)c1ccc(-c2[nH]nc3c2C[C@@H](c2cccnc2)C3)cn1

$$$$
