
     RDKit          3D

 37 39  0  0  0  0  0  0  0  0999 V2000
    5.4561   -4.1167   26.3511 H   0  0  0  0  0  0  0  0  0  0  0  0
    6.4668   -3.9774   25.9646 C   0  0  0  0  0  0  0  0  0  0  0  0
    6.6148   -3.1213   24.9488 N   0  0  0  0  0  0  0  0  0  0  0  0
    7.8602   -2.9817   24.4697 C   0  0  0  0  0  0  0  0  0  0  0  0
    8.0845   -2.0463   23.2947 C   0  0  0  0  0  0  0  0  0  0  0  0
    9.1742   -1.9492   23.2355 H   0  0  0  0  0  0  0  0  0  0  0  0
    7.5761   -2.7464   22.0117 C   0  0  0  0  0  0  0  0  0  0  0  0
    8.1481   -3.6662   21.8362 H   0  0  0  0  0  0  0  0  0  0  0  0
    6.5244   -3.0197   22.1717 H   0  0  0  0  0  0  0  0  0  0  0  0
    7.6608   -1.8663   20.7649 C   0  0  0  0  0  0  0  0  0  0  0  0
    7.0978   -2.3457   19.9576 H   0  0  0  0  0  0  0  0  0  0  0  0
    8.7120   -1.7647   20.4246 H   0  0  0  0  0  0  0  0  0  0  0  0
    7.0443   -0.5682   21.0055 N   0  0  0  0  0  0  0  0  0  0  0  0
    6.5320    0.1514   19.8940 C   0  0  0  0  0  0  0  0  0  0  0  0
    7.0852    0.1300   18.5865 C   0  0  0  0  0  0  0  0  0  0  0  0
    8.0205   -0.4019   18.4264 H   0  0  0  0  0  0  0  0  0  0  0  0
    6.5541    0.7370   17.5149 N   0  0  0  0  0  0  0  0  0  0  0  0
    5.4159    1.4252   17.6973 C   0  0  0  0  0  0  0  0  0  0  0  0
    4.9891    1.8934   16.8124 H   0  0  0  0  0  0  0  0  0  0  0  0
    4.7858    1.5353   18.9421 C   0  0  0  0  0  0  0  0  0  0  0  0
    3.8692    2.1107   19.0266 H   0  0  0  0  0  0  0  0  0  0  0  0
    5.3601    0.9111   20.0537 C   0  0  0  0  0  0  0  0  0  0  0  0
    4.9229    0.9796   21.0485 H   0  0  0  0  0  0  0  0  0  0  0  0
    7.6501    0.1624   22.1218 C   0  0  0  0  0  0  0  0  0  0  0  0
    7.1911    1.1551   22.2092 H   0  0  0  0  0  0  0  0  0  0  0  0
    8.7324    0.3315   21.9375 H   0  0  0  0  0  0  0  0  0  0  0  0
    7.4509   -0.6381   23.4179 C   0  0  0  0  0  0  0  0  0  0  0  0
    6.3746   -0.7444   23.6147 H   0  0  0  0  0  0  0  0  0  0  0  0
    7.8886   -0.0800   24.2548 H   0  0  0  0  0  0  0  0  0  0  0  0
    8.9185   -3.6883   24.8654 N   0  0  0  0  0  0  0  0  0  0  0  0
    8.7671   -4.5509   25.8774 C   0  0  0  0  0  0  0  0  0  0  0  0
    9.9976   -5.3984   26.3101 C   0  0  0  0  0  0  0  0  0  0  0  0
   11.1547   -4.9609   25.8076 F   0  0  0  0  0  0  0  0  0  0  0  0
    9.8492   -6.6858   25.9351 F   0  0  0  0  0  0  0  0  0  0  0  0
   10.1190   -5.3930   27.6536 F   0  0  0  0  0  0  0  0  0  0  0  0
    7.5229   -4.7050   26.4973 C   0  0  0  0  0  0  0  0  0  0  0  0
    7.3835   -5.3556   27.3545 H   0  0  0  0  0  0  0  0  0  0  0  0
  1  2  1  0
  2  3  2  0
  3  4  1  0
  4  5  1  0
  5  6  1  0
  5  7  1  0
  7  8  1  0
  7  9  1  0
  7 10  1  0
 10 11  1  0
 10 12  1  0
 10 13  1  0
 13 14  1  0
 14 15  2  0
 15 16  1  0
 15 17  1  0
 17 18  2  0
 18 19  1  0
 18 20  1  0
 20 21  1  0
 20 22  2  0
 22 23  1  0
 13 24  1  0
 24 25  1  0
 24 26  1  0
 24 27  1  0
 27 28  1  0
 27 29  1  0
  4 30  2  0
 30 31  1  0
 31 32  1  0
 32 33  1  0
 32 34  1  0
 32 35  1  0
 31 36  2  0
 36 37  1  0
 36  2  1  0
 27  5  1  0
 22 14  1  0
M  END
>  <cnnaffinity>  (1) 
-5.05598

>  <filename>  (1) 
FC(F)(F)c1ccnc(C2CCN(c3cccnc3)CC2)n1

$$$$
