
     RDKit          3D

 32 34  0  0  0  0  0  0  0  0999 V2000
    4.9494    1.7814   16.9980 H   0  0  0  0  0  0  0  0  0  0  0  0
    5.4127    1.2778   17.8421 C   0  0  0  0  0  0  0  0  0  0  0  0
    6.5743    0.6602   17.5849 N   0  0  0  0  0  0  0  0  0  0  0  0
    7.1965    0.0653   18.6062 C   0  0  0  0  0  0  0  0  0  0  0  0
    8.1468   -0.4111   18.3705 H   0  0  0  0  0  0  0  0  0  0  0  0
    6.6828    0.0259   19.9104 C   0  0  0  0  0  0  0  0  0  0  0  0
    7.4339   -0.7074   20.9513 C   0  0  0  0  0  0  0  0  0  0  0  0
    8.7721   -0.6864   20.8713 N   0  0  0  0  0  0  0  0  0  0  0  0
    9.4546   -1.3092   21.8397 C   0  0  0  0  0  0  0  0  0  0  0  0
   10.5415   -1.2482   21.7824 H   0  0  0  0  0  0  0  0  0  0  0  0
    8.8562   -2.0087   22.8988 C   0  0  0  0  0  0  0  0  0  0  0  0
    9.5035   -2.5015   23.6167 H   0  0  0  0  0  0  0  0  0  0  0  0
    7.4453   -2.0747   22.9743 C   0  0  0  0  0  0  0  0  0  0  0  0
    6.7146   -2.8197   24.0856 C   0  0  0  0  0  0  0  0  0  0  0  0
    5.5060   -3.3282   23.7856 N   0  0  0  0  0  0  0  0  0  0  0  0
    4.8378   -4.0253   24.7134 C   0  0  0  0  0  0  0  0  0  0  0  0
    3.4591   -4.6430   24.3523 C   0  0  0  0  0  0  0  0  0  0  0  0
    2.4802   -4.0501   25.0710 F   0  0  0  0  0  0  0  0  0  0  0  0
    3.4364   -5.9582   24.6713 F   0  0  0  0  0  0  0  0  0  0  0  0
    3.1217   -4.5480   23.0654 F   0  0  0  0  0  0  0  0  0  0  0  0
    5.3305   -4.2049   26.0178 C   0  0  0  0  0  0  0  0  0  0  0  0
    4.7375   -4.7569   26.7369 H   0  0  0  0  0  0  0  0  0  0  0  0
    6.5837   -3.6745   26.3479 C   0  0  0  0  0  0  0  0  0  0  0  0
    7.0091   -3.8215   27.3453 H   0  0  0  0  0  0  0  0  0  0  0  0
    7.2887   -2.9716   25.3653 C   0  0  0  0  0  0  0  0  0  0  0  0
    8.2585   -2.5222   25.5576 H   0  0  0  0  0  0  0  0  0  0  0  0
    6.7493   -1.4169   21.9493 C   0  0  0  0  0  0  0  0  0  0  0  0
    5.6722   -1.4783   21.8735 H   0  0  0  0  0  0  0  0  0  0  0  0
    5.4547    0.6613   20.1626 C   0  0  0  0  0  0  0  0  0  0  0  0
    5.0136    0.6554   21.1616 H   0  0  0  0  0  0  0  0  0  0  0  0
    4.8174    1.3063   19.1068 C   0  0  0  0  0  0  0  0  0  0  0  0
    3.8816    1.8302   19.2471 H   0  0  0  0  0  0  0  0  0  0  0  0
  1  2  1  0
  2  3  2  0
  3  4  1  0
  4  5  1  0
  4  6  2  0
  6  7  1  0
  7  8  2  0
  8  9  1  0
  9 10  1  0
  9 11  2  0
 11 12  1  0
 11 13  1  0
 13 14  1  0
 14 15  2  0
 15 16  1  0
 16 17  1  0
 17 18  1  0
 17 19  1  0
 17 20  1  0
 16 21  2  0
 21 22  1  0
 21 23  1  0
 23 24  1  0
 23 25  2  0
 25 26  1  0
 13 27  2  0
 27 28  1  0
  6 29  1  0
 29 30  1  0
 29 31  2  0
 31 32  1  0
 31  2  1  0
 27  7  1  0
 25 14  1  0
M  END
>  <cnnaffinity>  (1) 
-5.42548

>  <filename>  (1) 
FC(F)(F)c1cccc(-c2ccnc(-c3cccnc3)c2)n1

$$$$
