
     RDKit          3D

 33 36  0  0  0  0  0  0  0  0999 V2000
    4.9199    1.7715   17.0048 H   0  0  0  0  0  0  0  0  0  0  0  0
    5.4086    1.2861   17.8478 C   0  0  0  0  0  0  0  0  0  0  0  0
    6.5742    0.6702   17.5954 N   0  0  0  0  0  0  0  0  0  0  0  0
    7.1823    0.0539   18.6143 C   0  0  0  0  0  0  0  0  0  0  0  0
    8.1279   -0.4339   18.3839 H   0  0  0  0  0  0  0  0  0  0  0  0
    6.6490    0.0144   19.9104 C   0  0  0  0  0  0  0  0  0  0  0  0
    7.3623   -0.6895   20.9678 C   0  0  0  0  0  0  0  0  0  0  0  0
    8.5473   -1.3270   20.7569 N   0  0  0  0  0  0  0  0  0  0  0  0
    8.7981   -1.8150   21.9558 C   0  0  0  0  0  0  0  0  0  0  0  0
    9.9902   -2.8199   22.7220 S   0  0  0  0  0  0  0  0  0  0  0  0
    9.0777   -2.7659   24.2018 C   0  0  0  0  0  0  0  0  0  0  0  0
    9.4567   -3.2896   25.0706 H   0  0  0  0  0  0  0  0  0  0  0  0
    7.9578   -2.0179   24.1205 C   0  0  0  0  0  0  0  0  0  0  0  0
    6.9687   -1.7658   25.1925 C   0  0  0  0  0  0  0  0  0  0  0  0
    6.2443   -0.5617   25.2782 C   0  0  0  0  0  0  0  0  0  0  0  0
    6.3918    0.2089   24.5301 H   0  0  0  0  0  0  0  0  0  0  0  0
    5.3353   -0.3611   26.3101 C   0  0  0  0  0  0  0  0  0  0  0  0
    4.7739    0.5685   26.3456 H   0  0  0  0  0  0  0  0  0  0  0  0
    5.1455   -1.3512   27.2871 C   0  0  0  0  0  0  0  0  0  0  0  0
    4.1237   -1.1484   28.3786 C   0  0  0  0  0  0  0  0  0  0  0  0
    3.9730    0.1476   28.7131 F   0  0  0  0  0  0  0  0  0  0  0  0
    2.9073   -1.5897   28.0002 F   0  0  0  0  0  0  0  0  0  0  0  0
    4.4360   -1.8085   29.5099 F   0  0  0  0  0  0  0  0  0  0  0  0
    5.8521   -2.5605   27.2056 C   0  0  0  0  0  0  0  0  0  0  0  0
    5.6993   -3.3458   27.9417 H   0  0  0  0  0  0  0  0  0  0  0  0
    6.7595   -2.7570   26.1713 C   0  0  0  0  0  0  0  0  0  0  0  0
    7.2959   -3.6998   26.1200 H   0  0  0  0  0  0  0  0  0  0  0  0
    7.8334   -1.4798   22.8337 N   0  0  0  0  0  0  0  0  0  0  0  0
    6.8801   -0.7509   22.2052 N   0  0  0  0  0  0  0  0  0  0  0  0
    5.4298    0.6573   20.1662 C   0  0  0  0  0  0  0  0  0  0  0  0
    5.0017    0.6322   21.1721 H   0  0  0  0  0  0  0  0  0  0  0  0
    4.8045    1.3105   19.1107 C   0  0  0  0  0  0  0  0  0  0  0  0
    3.8738    1.8436   19.2620 H   0  0  0  0  0  0  0  0  0  0  0  0
  1  2  1  0
  2  3  2  0
  3  4  1  0
  4  5  1  0
  4  6  2  0
  6  7  1  0
  7  8  1  0
  8  9  2  0
  9 10  1  0
 10 11  1  0
 11 12  1  0
 11 13  2  0
 13 14  1  0
 14 15  2  0
 15 16  1  0
 15 17  1  0
 17 18  1  0
 17 19  2  0
 19 20  1  0
 20 21  1  0
 20 22  1  0
 20 23  1  0
 19 24  1  0
 24 25  1  0
 24 26  2  0
 26 27  1  0
 13 28  1  0
 28 29  1  0
  6 30  1  0
 30 31  1  0
 30 32  2  0
 32 33  1  0
 32  2  1  0
 29  7  2  0
 28  9  1  0
 26 14  1  0
M  END
>  <cnnaffinity>  (1) 
-5.55734

>  <filename>  (1) 
FC(F)(F)c1ccc(-c2csc3nc(-c4cccnc4)nn23)cc1

$$$$
