
     RDKit          3D

 33 35  0  0  0  0  0  0  0  0999 V2000
    4.9013    1.8252   16.9626 H   0  0  0  0  0  0  0  0  0  0  0  0
    5.3706    1.3210   17.8096 C   0  0  0  0  0  0  0  0  0  0  0  0
    6.5301    0.6972   17.5491 N   0  0  0  0  0  0  0  0  0  0  0  0
    7.1521    0.0880   18.5644 C   0  0  0  0  0  0  0  0  0  0  0  0
    8.0960   -0.3981   18.3242 H   0  0  0  0  0  0  0  0  0  0  0  0
    6.6706    0.0483   19.8892 C   0  0  0  0  0  0  0  0  0  0  0  0
    7.4052   -0.6940   20.9425 C   0  0  0  0  0  0  0  0  0  0  0  0
    7.7516   -2.0185   21.0486 C   0  0  0  0  0  0  0  0  0  0  0  0
    7.4765   -2.8240   20.3903 H   0  0  0  0  0  0  0  0  0  0  0  0
    8.4465   -2.2147   22.1952 N   0  0  0  0  0  0  0  0  0  0  0  0
    8.5331   -1.0813   22.8199 N   0  0  0  0  0  0  0  0  0  0  0  0
    7.8852   -0.1572   22.0953 N   0  0  0  0  0  0  0  0  0  0  0  0
    7.7556    1.2058   22.5949 C   0  0  0  0  0  0  0  0  0  0  0  0
    7.7441    1.8493   21.7117 H   0  0  0  0  0  0  0  0  0  0  0  0
    8.6644    1.3911   23.1804 H   0  0  0  0  0  0  0  0  0  0  0  0
    6.4999    1.4473   23.4262 C   0  0  0  0  0  0  0  0  0  0  0  0
    6.2365    0.6450   24.5440 C   0  0  0  0  0  0  0  0  0  0  0  0
    6.9276   -0.1650   24.7736 H   0  0  0  0  0  0  0  0  0  0  0  0
    5.1072    0.8681   25.3324 C   0  0  0  0  0  0  0  0  0  0  0  0
    4.9387    0.2282   26.1945 H   0  0  0  0  0  0  0  0  0  0  0  0
    4.2102    1.9025   25.0179 C   0  0  0  0  0  0  0  0  0  0  0  0
    2.9587    2.1092   25.8467 C   0  0  0  0  0  0  0  0  0  0  0  0
    3.1341    1.7451   27.1316 F   0  0  0  0  0  0  0  0  0  0  0  0
    2.5612    3.3966   25.8521 F   0  0  0  0  0  0  0  0  0  0  0  0
    1.9251    1.3835   25.3732 F   0  0  0  0  0  0  0  0  0  0  0  0
    4.4676    2.7079   23.8961 C   0  0  0  0  0  0  0  0  0  0  0  0
    3.7978    3.5204   23.6292 H   0  0  0  0  0  0  0  0  0  0  0  0
    5.6017    2.4771   23.1106 C   0  0  0  0  0  0  0  0  0  0  0  0
    5.7803    3.0924   22.2269 H   0  0  0  0  0  0  0  0  0  0  0  0
    5.4445    0.6846   20.1305 C   0  0  0  0  0  0  0  0  0  0  0  0
    5.0138    0.6481   21.1283 H   0  0  0  0  0  0  0  0  0  0  0  0
    4.7897    1.3365   19.0813 C   0  0  0  0  0  0  0  0  0  0  0  0
    3.8497    1.8580   19.2234 H   0  0  0  0  0  0  0  0  0  0  0  0
  1  2  1  0
  2  3  2  0
  3  4  1  0
  4  5  1  0
  4  6  2  0
  6  7  1  0
  7  8  2  0
  8  9  1  0
  8 10  1  0
 10 11  2  0
 11 12  1  0
 12 13  1  0
 13 14  1  0
 13 15  1  0
 13 16  1  0
 16 17  2  0
 17 18  1  0
 17 19  1  0
 19 20  1  0
 19 21  2  0
 21 22  1  0
 22 23  1  0
 22 24  1  0
 22 25  1  0
 21 26  1  0
 26 27  1  0
 26 28  2  0
 28 29  1  0
  6 30  1  0
 30 31  1  0
 30 32  2  0
 32 33  1  0
 32  2  1  0
 12  7  1  0
 28 16  1  0
M  END
>  <cnnaffinity>  (1) 
-4.78224

>  <filename>  (1) 
FC(F)(F)c1ccc(Cn2nncc2-c2cccnc2)cc1

$$$$
