
     RDKit          3D

 28 30  0  0  0  0  0  0  0  0999 V2000
    4.9555    1.8111   16.9853 H   0  0  0  0  0  0  0  0  0  0  0  0
    5.4020    1.2846   17.8246 C   0  0  0  0  0  0  0  0  0  0  0  0
    6.5675    0.6625   17.5763 N   0  0  0  0  0  0  0  0  0  0  0  0
    7.1679    0.0290   18.5859 C   0  0  0  0  0  0  0  0  0  0  0  0
    8.1177   -0.4531   18.3673 H   0  0  0  0  0  0  0  0  0  0  0  0
    6.6425   -0.0038   19.8891 C   0  0  0  0  0  0  0  0  0  0  0  0
    7.3837   -0.6456   20.9313 N   0  0  0  0  0  0  0  0  0  0  0  0
    7.9266   -1.8603   20.7279 N   0  0  0  0  0  0  0  0  0  0  0  0
    8.4133   -2.2509   21.8463 N   0  0  0  0  0  0  0  0  0  0  0  0
    8.2161   -1.3373   22.8091 N   0  0  0  0  0  0  0  0  0  0  0  0
    7.5752   -0.3411   22.2497 C   0  0  0  0  0  0  0  0  0  0  0  0
    7.2026    0.9460   22.9082 C   0  0  0  0  0  0  0  0  0  0  0  0
    7.4185    2.0334   22.1506 N   0  0  0  0  0  0  0  0  0  0  0  0
    7.1582    3.2415   22.6396 C   0  0  0  0  0  0  0  0  0  0  0  0
    7.3579    4.0693   21.9571 H   0  0  0  0  0  0  0  0  0  0  0  0
    6.6658    3.4427   23.9340 C   0  0  0  0  0  0  0  0  0  0  0  0
    6.5002    4.4585   24.2738 H   0  0  0  0  0  0  0  0  0  0  0  0
    6.4154    2.3289   24.7310 C   0  0  0  0  0  0  0  0  0  0  0  0
    6.0276    2.4492   25.7438 H   0  0  0  0  0  0  0  0  0  0  0  0
    6.6734    1.0489   24.2102 C   0  0  0  0  0  0  0  0  0  0  0  0
    6.4683   -0.1738   25.0668 C   0  0  0  0  0  0  0  0  0  0  0  0
    5.6547    0.0878   26.1069 F   0  0  0  0  0  0  0  0  0  0  0  0
    7.6404   -0.6003   25.5575 F   0  0  0  0  0  0  0  0  0  0  0  0
    5.9209   -1.1989   24.4028 F   0  0  0  0  0  0  0  0  0  0  0  0
    5.4117    0.6081   20.1382 C   0  0  0  0  0  0  0  0  0  0  0  0
    4.9890    0.6255   21.1429 H   0  0  0  0  0  0  0  0  0  0  0  0
    4.7891    1.2785   19.0802 C   0  0  0  0  0  0  0  0  0  0  0  0
    3.8708    1.8322   19.2348 H   0  0  0  0  0  0  0  0  0  0  0  0
  1  2  1  0
  2  3  2  0
  3  4  1  0
  4  5  1  0
  4  6  2  0
  6  7  1  0
  7  8  1  0
  8  9  2  0
  9 10  1  0
 10 11  2  0
 11 12  1  0
 12 13  2  0
 13 14  1  0
 14 15  1  0
 14 16  2  0
 16 17  1  0
 16 18  1  0
 18 19  1  0
 18 20  2  0
 20 21  1  0
 21 22  1  0
 21 23  1  0
 21 24  1  0
  6 25  1  0
 25 26  1  0
 25 27  2  0
 27 28  1  0
 27  2  1  0
 11  7  1  0
 20 12  1  0
M  END
>  <cnnaffinity>  (1) 
-5.10869

>  <filename>  (1) 
FC(F)(F)c1cccnc1-c1nnnn1-c1cccnc1

$$$$
