
     RDKit          3D

 32 34  0  0  0  0  0  0  0  0999 V2000
    4.9312    1.7956   16.9983 H   0  0  0  0  0  0  0  0  0  0  0  0
    5.3968    1.2897   17.8389 C   0  0  0  0  0  0  0  0  0  0  0  0
    6.5521    0.6613   17.5720 N   0  0  0  0  0  0  0  0  0  0  0  0
    7.1718    0.0423   18.5817 C   0  0  0  0  0  0  0  0  0  0  0  0
    8.1257   -0.4309   18.3553 H   0  0  0  0  0  0  0  0  0  0  0  0
    6.6507   -0.0030   19.8915 C   0  0  0  0  0  0  0  0  0  0  0  0
    7.3300   -0.6740   20.9476 N   0  0  0  0  0  0  0  0  0  0  0  0
    6.7256   -1.5793   21.8109 C   0  0  0  0  0  0  0  0  0  0  0  0
    5.6809   -1.8230   21.7416 H   0  0  0  0  0  0  0  0  0  0  0  0
    7.6666   -2.0308   22.6722 C   0  0  0  0  0  0  0  0  0  0  0  0
    7.5614   -2.9278   23.8353 C   0  0  0  0  0  0  0  0  0  0  0  0
    8.0190   -2.4797   25.0932 C   0  0  0  0  0  0  0  0  0  0  0  0
    8.4985   -1.5053   25.1493 H   0  0  0  0  0  0  0  0  0  0  0  0
    7.8212   -3.2370   26.2484 C   0  0  0  0  0  0  0  0  0  0  0  0
    8.1749   -2.8663   27.2134 H   0  0  0  0  0  0  0  0  0  0  0  0
    7.1601   -4.4684   26.1571 C   0  0  0  0  0  0  0  0  0  0  0  0
    6.9925   -5.0695   27.0508 H   0  0  0  0  0  0  0  0  0  0  0  0
    6.7286   -4.9409   24.9147 C   0  0  0  0  0  0  0  0  0  0  0  0
    6.2221   -5.9036   24.8545 H   0  0  0  0  0  0  0  0  0  0  0  0
    6.9491   -4.1975   23.7416 C   0  0  0  0  0  0  0  0  0  0  0  0
    6.4889   -4.7590   22.3987 C   0  0  0  0  0  0  0  0  0  0  0  0
    6.3492   -6.0964   22.4216 F   0  0  0  0  0  0  0  0  0  0  0  0
    5.2857   -4.2514   22.0403 F   0  0  0  0  0  0  0  0  0  0  0  0
    7.3323   -4.4823   21.3893 F   0  0  0  0  0  0  0  0  0  0  0  0
    8.8306   -1.3615   22.3342 N   0  0  0  0  0  0  0  0  0  0  0  0
    9.7538   -1.4204   22.7369 H   0  0  0  0  0  0  0  0  0  0  0  0
    8.6522   -0.4977   21.3084 C   0  0  0  0  0  0  0  0  0  0  0  0
    9.8189    0.5393   20.7632 S   0  0  0  0  0  0  0  0  0  0  0  0
    5.4415    0.6415   20.1594 C   0  0  0  0  0  0  0  0  0  0  0  0
    5.0454    0.6234   21.1769 H   0  0  0  0  0  0  0  0  0  0  0  0
    4.8080    1.3080   19.1081 C   0  0  0  0  0  0  0  0  0  0  0  0
    3.8797    1.8407   19.2605 H   0  0  0  0  0  0  0  0  0  0  0  0
  1  2  1  0
  2  3  2  0
  3  4  1  0
  4  5  1  0
  4  6  2  0
  6  7  1  0
  7  8  1  0
  8  9  1  0
  8 10  2  0
 10 11  1  0
 11 12  2  0
 12 13  1  0
 12 14  1  0
 14 15  1  0
 14 16  2  0
 16 17  1  0
 16 18  1  0
 18 19  1  0
 18 20  2  0
 20 21  1  0
 21 22  1  0
 21 23  1  0
 21 24  1  0
 10 25  1  0
 25 26  1  0
 25 27  1  0
 27 28  2  0
  6 29  1  0
 29 30  1  0
 29 31  2  0
 31 32  1  0
 31  2  1  0
 27  7  1  0
 20 11  1  0
M  END
>  <cnnaffinity>  (1) 
-5.96255

>  <filename>  (1) 
FC(F)(F)c1ccccc1-c1cn(-c2cccnc2)c(=S)[nH]1

$$$$
