
     RDKit          3D

 34 37  0  0  0  0  0  0  0  0999 V2000
    4.9347    1.7739   17.0006 H   0  0  0  0  0  0  0  0  0  0  0  0
    5.4109    1.2846   17.8458 C   0  0  0  0  0  0  0  0  0  0  0  0
    6.5745    0.6642   17.5954 N   0  0  0  0  0  0  0  0  0  0  0  0
    7.1774    0.0524   18.6189 C   0  0  0  0  0  0  0  0  0  0  0  0
    8.1242   -0.4315   18.3871 H   0  0  0  0  0  0  0  0  0  0  0  0
    6.6424    0.0175   19.9152 C   0  0  0  0  0  0  0  0  0  0  0  0
    7.3659   -0.6886   20.9683 C   0  0  0  0  0  0  0  0  0  0  0  0
    8.5495   -1.3271   20.7533 N   0  0  0  0  0  0  0  0  0  0  0  0
    8.8040   -1.8190   21.9460 C   0  0  0  0  0  0  0  0  0  0  0  0
   10.0008   -2.8120   22.7300 S   0  0  0  0  0  0  0  0  0  0  0  0
    9.0760   -2.7651   24.2039 C   0  0  0  0  0  0  0  0  0  0  0  0
    9.4628   -3.2844   25.0696 H   0  0  0  0  0  0  0  0  0  0  0  0
    7.9492   -2.0227   24.1257 C   0  0  0  0  0  0  0  0  0  0  0  0
    6.9591   -1.7596   25.2037 C   0  0  0  0  0  0  0  0  0  0  0  0
    6.7350   -2.7346   26.2010 C   0  0  0  0  0  0  0  0  0  0  0  0
    7.2801   -3.6719   26.1502 H   0  0  0  0  0  0  0  0  0  0  0  0
    5.8197   -2.5279   27.2322 C   0  0  0  0  0  0  0  0  0  0  0  0
    5.6594   -3.2890   27.9901 H   0  0  0  0  0  0  0  0  0  0  0  0
    5.1118   -1.3227   27.2828 C   0  0  0  0  0  0  0  0  0  0  0  0
    4.2199   -1.2084   28.3453 O   0  0  0  0  0  0  0  0  0  0  0  0
    3.4558   -0.1079   28.5372 C   0  0  0  0  0  0  0  0  0  0  0  0
    2.7304   -0.3281   29.6253 F   0  0  0  0  0  0  0  0  0  0  0  0
    4.1710    1.0155   28.7238 F   0  0  0  0  0  0  0  0  0  0  0  0
    2.6194    0.1466   27.5150 F   0  0  0  0  0  0  0  0  0  0  0  0
    5.3157   -0.3323   26.3197 C   0  0  0  0  0  0  0  0  0  0  0  0
    4.7630    0.5981   26.3581 H   0  0  0  0  0  0  0  0  0  0  0  0
    6.2358   -0.5552   25.2935 C   0  0  0  0  0  0  0  0  0  0  0  0
    6.3908    0.1993   24.5308 H   0  0  0  0  0  0  0  0  0  0  0  0
    7.8375   -1.4885   22.8322 N   0  0  0  0  0  0  0  0  0  0  0  0
    6.8899   -0.7530   22.2070 N   0  0  0  0  0  0  0  0  0  0  0  0
    5.4213    0.6599   20.1717 C   0  0  0  0  0  0  0  0  0  0  0  0
    4.9949    0.6379   21.1792 H   0  0  0  0  0  0  0  0  0  0  0  0
    4.8042    1.3095   19.1079 C   0  0  0  0  0  0  0  0  0  0  0  0
    3.8732    1.8435   19.2533 H   0  0  0  0  0  0  0  0  0  0  0  0
  1  2  1  0
  2  3  2  0
  3  4  1  0
  4  5  1  0
  4  6  2  0
  6  7  1  0
  7  8  1  0
  8  9  2  0
  9 10  1  0
 10 11  1  0
 11 12  1  0
 11 13  2  0
 13 14  1  0
 14 15  2  0
 15 16  1  0
 15 17  1  0
 17 18  1  0
 17 19  2  0
 19 20  1  0
 20 21  1  0
 21 22  1  0
 21 23  1  0
 21 24  1  0
 19 25  1  0
 25 26  1  0
 25 27  2  0
 27 28  1  0
 13 29  1  0
 29 30  1  0
  6 31  1  0
 31 32  1  0
 31 33  2  0
 33 34  1  0
 33  2  1  0
 30  7  2  0
 29  9  1  0
 27 14  1  0
M  END
>  <cnnaffinity>  (1) 
-5.72727

>  <filename>  (1) 
FC(F)(F)Oc1ccc(-c2csc3nc(-c4cccnc4)nn23)cc1

$$$$
