
     RDKit          3D

 28 30  0  0  0  0  0  0  0  0999 V2000
    7.0622    4.2215   21.5700 H   0  0  0  0  0  0  0  0  0  0  0  0
    7.2945    3.4493   22.2954 C   0  0  0  0  0  0  0  0  0  0  0  0
    7.4075    2.2142   21.8063 N   0  0  0  0  0  0  0  0  0  0  0  0
    7.6599    1.2499   22.6870 C   0  0  0  0  0  0  0  0  0  0  0  0
    7.7473   -0.1119   22.1753 C   0  0  0  0  0  0  0  0  0  0  0  0
    8.4715   -1.2982   23.1634 S   0  0  0  0  0  0  0  0  0  0  0  0
    8.2047   -2.5315   22.0811 N   0  0  0  0  0  0  0  0  0  0  0  0
    7.6092   -2.0708   21.0182 C   0  0  0  0  0  0  0  0  0  0  0  0
    7.3253   -2.7807   20.2493 H   0  0  0  0  0  0  0  0  0  0  0  0
    7.3209   -0.6636   20.9804 C   0  0  0  0  0  0  0  0  0  0  0  0
    6.6215    0.0506   19.8768 C   0  0  0  0  0  0  0  0  0  0  0  0
    7.1410    0.1041   18.5673 C   0  0  0  0  0  0  0  0  0  0  0  0
    8.1009   -0.3698   18.3491 H   0  0  0  0  0  0  0  0  0  0  0  0
    6.5411    0.7116   17.5372 N   0  0  0  0  0  0  0  0  0  0  0  0
    5.3689    1.3226   17.7846 C   0  0  0  0  0  0  0  0  0  0  0  0
    4.9095    1.8323   16.9427 H   0  0  0  0  0  0  0  0  0  0  0  0
    4.7522    1.3282   19.0380 C   0  0  0  0  0  0  0  0  0  0  0  0
    3.8088    1.8506   19.1789 H   0  0  0  0  0  0  0  0  0  0  0  0
    5.3863    0.6798   20.0975 C   0  0  0  0  0  0  0  0  0  0  0  0
    4.9625    0.6866   21.1023 H   0  0  0  0  0  0  0  0  0  0  0  0
    7.8570    1.4247   24.0018 N   0  0  0  0  0  0  0  0  0  0  0  0
    7.7424    2.6623   24.4942 C   0  0  0  0  0  0  0  0  0  0  0  0
    7.9526    2.9195   26.0219 C   0  0  0  0  0  0  0  0  0  0  0  0
    8.9862    3.7658   26.2127 F   0  0  0  0  0  0  0  0  0  0  0  0
    8.1920    1.8272   26.7467 F   0  0  0  0  0  0  0  0  0  0  0  0
    6.8691    3.5232   26.5535 F   0  0  0  0  0  0  0  0  0  0  0  0
    7.4520    3.7437   23.6494 C   0  0  0  0  0  0  0  0  0  0  0  0
    7.3639    4.7618   24.0062 H   0  0  0  0  0  0  0  0  0  0  0  0
  1  2  1  0
  2  3  2  0
  3  4  1  0
  4  5  1  0
  5  6  1  0
  6  7  1  0
  7  8  2  0
  8  9  1  0
  8 10  1  0
 10 11  1  0
 11 12  2  0
 12 13  1  0
 12 14  1  0
 14 15  2  0
 15 16  1  0
 15 17  1  0
 17 18  1  0
 17 19  2  0
 19 20  1  0
  4 21  2  0
 21 22  1  0
 22 23  1  0
 23 24  1  0
 23 25  1  0
 23 26  1  0
 22 27  2  0
 27 28  1  0
 27  2  1  0
 10  5  2  0
 19 11  1  0
M  END
>  <cnnaffinity>  (1) 
-5.0699

>  <filename>  (1) 
FC(F)(F)c1ccnc(-c2sncc2-c2cccnc2)n1

$$$$
