
     RDKit          3D

 37 39  0  0  0  0  0  0  0  0999 V2000
    5.3475    1.6601   26.1110 F   0  0  0  0  0  0  0  0  0  0  0  0
    4.8960    0.6160   25.3892 C   0  0  0  0  0  0  0  0  0  0  0  0
    4.5706    1.0800   24.1765 F   0  0  0  0  0  0  0  0  0  0  0  0
    3.7530    0.2073   25.9812 F   0  0  0  0  0  0  0  0  0  0  0  0
    5.9424   -0.5433   25.3371 C   0  0  0  0  0  0  0  0  0  0  0  0
    6.3999   -1.1935   26.4857 C   0  0  0  0  0  0  0  0  0  0  0  0
    7.2370   -2.2903   26.2841 C   0  0  0  0  0  0  0  0  0  0  0  0
    7.5778   -2.7445   25.0875 N   0  0  0  0  0  0  0  0  0  0  0  0
    7.0818   -2.0488   24.0556 C   0  0  0  0  0  0  0  0  0  0  0  0
    7.3075   -2.5112   22.8143 N   0  0  0  0  0  0  0  0  0  0  0  0
    7.9214   -3.8164   22.5986 C   0  0  0  0  0  0  0  0  0  0  0  0
    7.9107   -3.9049   21.0850 C   0  0  0  0  0  0  0  0  0  0  0  0
    6.6126   -3.1769   20.7011 C   0  0  0  0  0  0  0  0  0  0  0  0
    6.6093   -1.9670   21.6440 C   0  0  0  0  0  0  0  0  0  0  0  0
    7.3246   -0.6992   21.1183 C   0  0  0  0  0  0  0  0  0  0  0  0
    6.6389    0.0125   19.9658 C   0  0  0  0  0  0  0  0  0  0  0  0
    5.4239    0.6879   20.1724 C   0  0  0  0  0  0  0  0  0  0  0  0
    4.8097    1.3235   19.0913 C   0  0  0  0  0  0  0  0  0  0  0  0
    5.4344    1.2835   17.8402 C   0  0  0  0  0  0  0  0  0  0  0  0
    6.5985    0.6552   17.6161 N   0  0  0  0  0  0  0  0  0  0  0  0
    7.1748    0.0480   18.6642 C   0  0  0  0  0  0  0  0  0  0  0  0
    8.1264   -0.4454   18.4567 H   0  0  0  0  0  0  0  0  0  0  0  0
    4.9875    1.7864   16.9823 H   0  0  0  0  0  0  0  0  0  0  0  0
    3.8721    1.8593   19.2046 H   0  0  0  0  0  0  0  0  0  0  0  0
    4.9866    0.7172   21.1780 H   0  0  0  0  0  0  0  0  0  0  0  0
    8.3588   -0.9549   20.8512 H   0  0  0  0  0  0  0  0  0  0  0  0
    7.3836   -0.0139   21.9725 H   0  0  0  0  0  0  0  0  0  0  0  0
    5.5795   -1.6771   21.8871 H   0  0  0  0  0  0  0  0  0  0  0  0
    6.5337   -2.8888   19.6496 H   0  0  0  0  0  0  0  0  0  0  0  0
    5.7390   -3.8078   20.9124 H   0  0  0  0  0  0  0  0  0  0  0  0
    8.7830   -3.3321   20.7459 H   0  0  0  0  0  0  0  0  0  0  0  0
    7.9866   -4.9223   20.6945 H   0  0  0  0  0  0  0  0  0  0  0  0
    7.3298   -4.6152   23.0672 H   0  0  0  0  0  0  0  0  0  0  0  0
    8.9301   -3.8460   23.0252 H   0  0  0  0  0  0  0  0  0  0  0  0
    6.3630   -0.9321   24.1384 N   0  0  0  0  0  0  0  0  0  0  0  0
    7.6235   -2.8466   27.1357 H   0  0  0  0  0  0  0  0  0  0  0  0
    6.1181   -0.8951   27.4791 H   0  0  0  0  0  0  0  0  0  0  0  0
  1  2  1  0
  2  3  1  0
  2  4  1  0
  2  5  1  0
  5  6  2  0
  6  7  1  0
  7  8  2  0
  8  9  1  0
  9 10  1  0
 10 11  1  0
 11 12  1  0
 12 13  1  0
 13 14  1  0
 14 15  1  0
 15 16  1  0
 16 17  2  0
 17 18  1  0
 18 19  2  0
 19 20  1  0
 20 21  2  0
 21 22  1  0
 19 23  1  0
 18 24  1  0
 17 25  1  0
 15 26  1  0
 15 27  1  0
 14 28  1  0
 13 29  1  0
 13 30  1  0
 12 31  1  0
 12 32  1  0
 11 33  1  0
 11 34  1  0
  9 35  2  0
  7 36  1  0
  6 37  1  0
 35  5  1  0
 14 10  1  0
 21 16  1  0
M  END
>  <cnnaffinity>  (1) 
-4.74503

>  <filename>  (1) 
FC(F)(F)c1ccnc(N2CCCC2Cc2cccnc2)n1

$$$$
