
     RDKit          3D

 31 33  0  0  0  0  0  0  0  0999 V2000
    4.9327    1.7945   16.9835 H   0  0  0  0  0  0  0  0  0  0  0  0
    5.3996    1.2969   17.8315 C   0  0  0  0  0  0  0  0  0  0  0  0
    6.5641    0.6765   17.5814 N   0  0  0  0  0  0  0  0  0  0  0  0
    7.1609    0.0548   18.6010 C   0  0  0  0  0  0  0  0  0  0  0  0
    8.1049   -0.4403   18.3759 H   0  0  0  0  0  0  0  0  0  0  0  0
    6.6414    0.0257   19.9045 C   0  0  0  0  0  0  0  0  0  0  0  0
    7.3741   -0.7066   20.9417 C   0  0  0  0  0  0  0  0  0  0  0  0
    7.9515   -1.8628   20.7555 N   0  0  0  0  0  0  0  0  0  0  0  0
    8.4448   -2.2921   21.9618 N   0  0  0  0  0  0  0  0  0  0  0  0
    8.1660   -1.3720   22.8398 C   0  0  0  0  0  0  0  0  0  0  0  0
    8.4443   -1.3952   23.8848 H   0  0  0  0  0  0  0  0  0  0  0  0
    7.4930   -0.3245   22.2633 N   0  0  0  0  0  0  0  0  0  0  0  0
    7.1476    0.9070   22.8911 C   0  0  0  0  0  0  0  0  0  0  0  0
    7.4099    2.1248   22.2526 C   0  0  0  0  0  0  0  0  0  0  0  0
    7.8435    2.1268   21.2587 H   0  0  0  0  0  0  0  0  0  0  0  0
    7.0567    3.3185   22.8874 C   0  0  0  0  0  0  0  0  0  0  0  0
    7.2406    4.2648   22.3867 H   0  0  0  0  0  0  0  0  0  0  0  0
    6.4625    3.3049   24.1512 C   0  0  0  0  0  0  0  0  0  0  0  0
    6.1830    4.2156   24.6727 H   0  0  0  0  0  0  0  0  0  0  0  0
    6.2240    2.0729   24.7687 C   0  0  0  0  0  0  0  0  0  0  0  0
    5.6458    2.1704   26.0303 O   0  0  0  0  0  0  0  0  0  0  0  0
    5.3510    1.0868   26.7764 C   0  0  0  0  0  0  0  0  0  0  0  0
    4.8219    1.5453   27.9048 F   0  0  0  0  0  0  0  0  0  0  0  0
    4.4668    0.2656   26.1843 F   0  0  0  0  0  0  0  0  0  0  0  0
    6.4281    0.3381   27.0720 F   0  0  0  0  0  0  0  0  0  0  0  0
    6.5545    0.8688   24.1563 C   0  0  0  0  0  0  0  0  0  0  0  0
    6.3631   -0.0864   24.6315 H   0  0  0  0  0  0  0  0  0  0  0  0
    5.4140    0.6581   20.1485 C   0  0  0  0  0  0  0  0  0  0  0  0
    4.9912    0.6501   21.1556 H   0  0  0  0  0  0  0  0  0  0  0  0
    4.7913    1.3124   19.0916 C   0  0  0  0  0  0  0  0  0  0  0  0
    3.8618    1.8471   19.2366 H   0  0  0  0  0  0  0  0  0  0  0  0
  1  2  1  0
  2  3  2  0
  3  4  1  0
  4  5  1  0
  4  6  2  0
  6  7  1  0
  7  8  2  0
  8  9  1  0
  9 10  2  0
 10 11  1  0
 10 12  1  0
 12 13  1  0
 13 14  2  0
 14 15  1  0
 14 16  1  0
 16 17  1  0
 16 18  2  0
 18 19  1  0
 18 20  1  0
 20 21  1  0
 21 22  1  0
 22 23  1  0
 22 24  1  0
 22 25  1  0
 20 26  2  0
 26 27  1  0
  6 28  1  0
 28 29  1  0
 28 30  2  0
 30 31  1  0
 30  2  1  0
 12  7  1  0
 26 13  1  0
M  END
>  <cnnaffinity>  (1) 
-5.30645

>  <filename>  (1) 
FC(F)(F)Oc1cccc(-n2cnnc2-c2cccnc2)c1

$$$$
