
     RDKit          3D

 31 33  0  0  0  0  0  0  0  0999 V2000
    4.9147    1.8088   16.9676 H   0  0  0  0  0  0  0  0  0  0  0  0
    5.3837    1.3091   17.8133 C   0  0  0  0  0  0  0  0  0  0  0  0
    6.5431    0.6856   17.5443 N   0  0  0  0  0  0  0  0  0  0  0  0
    7.1524    0.0758   18.5702 C   0  0  0  0  0  0  0  0  0  0  0  0
    8.0957   -0.4182   18.3421 H   0  0  0  0  0  0  0  0  0  0  0  0
    6.6510    0.0204   19.8851 C   0  0  0  0  0  0  0  0  0  0  0  0
    7.3580   -0.7153   20.9701 C   0  0  0  0  0  0  0  0  0  0  0  0
    8.7491   -0.6173   21.1876 C   0  0  0  0  0  0  0  0  0  0  0  0
    9.3719    0.0144   20.5614 H   0  0  0  0  0  0  0  0  0  0  0  0
    9.3826   -1.2583   22.1720 N   0  0  0  0  0  0  0  0  0  0  0  0
    8.7043   -2.0456   23.0034 N   0  0  0  0  0  0  0  0  0  0  0  0
    7.3710   -2.1954   22.8666 C   0  0  0  0  0  0  0  0  0  0  0  0
    6.6846   -3.1058   23.8537 C   0  0  0  0  0  0  0  0  0  0  0  0
    5.3544   -3.2704   23.7234 N   0  0  0  0  0  0  0  0  0  0  0  0
    4.7152   -4.0402   24.5990 C   0  0  0  0  0  0  0  0  0  0  0  0
    3.6397   -4.1174   24.4579 H   0  0  0  0  0  0  0  0  0  0  0  0
    5.3595   -4.7199   25.6354 C   0  0  0  0  0  0  0  0  0  0  0  0
    4.5784   -5.6283   26.5260 C   0  0  0  0  0  0  0  0  0  0  0  0
    5.1347   -5.7103   27.7489 F   0  0  0  0  0  0  0  0  0  0  0  0
    3.3064   -5.2140   26.6839 F   0  0  0  0  0  0  0  0  0  0  0  0
    4.5189   -6.8809   26.0326 F   0  0  0  0  0  0  0  0  0  0  0  0
    6.7505   -4.5883   25.7649 C   0  0  0  0  0  0  0  0  0  0  0  0
    7.2951   -5.1155   26.5530 H   0  0  0  0  0  0  0  0  0  0  0  0
    7.4093   -3.7661   24.8644 C   0  0  0  0  0  0  0  0  0  0  0  0
    8.4771   -3.6117   24.9105 H   0  0  0  0  0  0  0  0  0  0  0  0
    6.6618   -1.5334   21.8471 C   0  0  0  0  0  0  0  0  0  0  0  0
    5.5922   -1.6869   21.7463 H   0  0  0  0  0  0  0  0  0  0  0  0
    5.4304    0.6632   20.1331 C   0  0  0  0  0  0  0  0  0  0  0  0
    5.0230    0.6408   21.1480 H   0  0  0  0  0  0  0  0  0  0  0  0
    4.7943    1.3276   19.0831 C   0  0  0  0  0  0  0  0  0  0  0  0
    3.8633    1.8535   19.2356 H   0  0  0  0  0  0  0  0  0  0  0  0
  1  2  1  0
  2  3  2  0
  3  4  1  0
  4  5  1  0
  4  6  2  0
  6  7  1  0
  7  8  2  0
  8  9  1  0
  8 10  1  0
 10 11  2  0
 11 12  1  0
 12 13  1  0
 13 14  2  0
 14 15  1  0
 15 16  1  0
 15 17  2  0
 17 18  1  0
 18 19  1  0
 18 20  1  0
 18 21  1  0
 17 22  1  0
 22 23  1  0
 22 24  2  0
 24 25  1  0
 12 26  2  0
 26 27  1  0
  6 28  1  0
 28 29  1  0
 28 30  2  0
 30 31  1  0
 30  2  1  0
 26  7  1  0
 24 13  1  0
M  END
>  <cnnaffinity>  (1) 
-5.3177

>  <filename>  (1) 
FC(F)(F)c1ccc(-c2cc(-c3cccnc3)cnn2)nc1

$$$$
