
     RDKit          3D

 33 36  0  0  0  0  0  0  0  0999 V2000
    4.9255    1.7836   16.9947 H   0  0  0  0  0  0  0  0  0  0  0  0
    5.4036    1.2908   17.8370 C   0  0  0  0  0  0  0  0  0  0  0  0
    6.5666    0.6743   17.5721 N   0  0  0  0  0  0  0  0  0  0  0  0
    7.1688    0.0532   18.5868 C   0  0  0  0  0  0  0  0  0  0  0  0
    8.1172   -0.4319   18.3662 H   0  0  0  0  0  0  0  0  0  0  0  0
    6.6446    0.0121   19.8937 C   0  0  0  0  0  0  0  0  0  0  0  0
    7.4064   -0.6934   20.9233 C   0  0  0  0  0  0  0  0  0  0  0  0
    8.3264   -1.5996   20.7009 N   0  0  0  0  0  0  0  0  0  0  0  0
    8.8321   -2.0407   21.9035 N   0  0  0  0  0  0  0  0  0  0  0  0
    8.2114   -1.3563   22.8268 C   0  0  0  0  0  0  0  0  0  0  0  0
    8.2562   -1.1005   24.5472 S   0  0  0  0  0  0  0  0  0  0  0  0
    7.0282    0.1771   24.3371 C   0  0  0  0  0  0  0  0  0  0  0  0
    6.5292    0.9754   25.4880 C   0  0  0  0  0  0  0  0  0  0  0  0
    5.5588    1.9820   25.2898 C   0  0  0  0  0  0  0  0  0  0  0  0
    5.1952    2.1553   24.2816 H   0  0  0  0  0  0  0  0  0  0  0  0
    5.0848    2.7345   26.3617 C   0  0  0  0  0  0  0  0  0  0  0  0
    4.3396    3.5070   26.2026 H   0  0  0  0  0  0  0  0  0  0  0  0
    5.5751    2.4926   27.6486 C   0  0  0  0  0  0  0  0  0  0  0  0
    5.0354    3.2993   28.6405 O   0  0  0  0  0  0  0  0  0  0  0  0
    5.3973    3.1978   29.9404 C   0  0  0  0  0  0  0  0  0  0  0  0
    6.7037    3.4344   30.1496 F   0  0  0  0  0  0  0  0  0  0  0  0
    4.6957    4.1066   30.6057 F   0  0  0  0  0  0  0  0  0  0  0  0
    5.1420    1.9918   30.4732 F   0  0  0  0  0  0  0  0  0  0  0  0
    6.5351    1.5055   27.8752 C   0  0  0  0  0  0  0  0  0  0  0  0
    6.9139    1.3187   28.8720 H   0  0  0  0  0  0  0  0  0  0  0  0
    7.0038    0.7564   26.7953 C   0  0  0  0  0  0  0  0  0  0  0  0
    7.7530   -0.0063   26.9924 H   0  0  0  0  0  0  0  0  0  0  0  0
    6.6257    0.3472   23.1143 N   0  0  0  0  0  0  0  0  0  0  0  0
    7.2841   -0.5104   22.2878 N   0  0  0  0  0  0  0  0  0  0  0  0
    5.4267    0.6528   20.1624 C   0  0  0  0  0  0  0  0  0  0  0  0
    5.0091    0.6414   21.1712 H   0  0  0  0  0  0  0  0  0  0  0  0
    4.8044    1.3063   19.1031 C   0  0  0  0  0  0  0  0  0  0  0  0
    3.8748    1.8424   19.2526 H   0  0  0  0  0  0  0  0  0  0  0  0
  1  2  1  0
  2  3  2  0
  3  4  1  0
  4  5  1  0
  4  6  2  0
  6  7  1  0
  7  8  2  0
  8  9  1  0
  9 10  2  0
 10 11  1  0
 11 12  1  0
 12 13  1  0
 13 14  2  0
 14 15  1  0
 14 16  1  0
 16 17  1  0
 16 18  2  0
 18 19  1  0
 19 20  1  0
 20 21  1  0
 20 22  1  0
 20 23  1  0
 18 24  1  0
 24 25  1  0
 24 26  2  0
 26 27  1  0
 12 28  2  0
 28 29  1  0
  6 30  1  0
 30 31  1  0
 30 32  2  0
 32 33  1  0
 32  2  1  0
 29  7  1  0
 29 10  1  0
 26 13  1  0
M  END
>  <cnnaffinity>  (1) 
-5.40945

>  <filename>  (1) 
FC(F)(F)Oc1ccc(-c2nn3c(-c4cccnc4)nnc3s2)cc1

$$$$
