
     RDKit          3D

 32 33  0  0  0  0  0  0  0  0999 V2000
    4.9348    1.7747   16.9968 H   0  0  0  0  0  0  0  0  0  0  0  0
    5.4115    1.2882   17.8453 C   0  0  0  0  0  0  0  0  0  0  0  0
    6.5766    0.6702   17.6005 N   0  0  0  0  0  0  0  0  0  0  0  0
    7.1786    0.0640   18.6278 C   0  0  0  0  0  0  0  0  0  0  0  0
    8.1201   -0.4268   18.3998 H   0  0  0  0  0  0  0  0  0  0  0  0
    6.6342    0.0145   19.9119 C   0  0  0  0  0  0  0  0  0  0  0  0
    7.4407   -0.6848   20.9547 C   0  0  0  0  0  0  0  0  0  0  0  0
    7.7434   -1.9634   20.6014 F   0  0  0  0  0  0  0  0  0  0  0  0
    6.7196   -0.8238   22.1195 F   0  0  0  0  0  0  0  0  0  0  0  0
    8.6714   -0.0220   21.2113 N   0  0  0  0  0  0  0  0  0  0  0  0
    9.2347   -0.7040   21.7043 H   0  0  0  0  0  0  0  0  0  0  0  0
    8.5818    1.2461   21.9390 C   0  0  0  0  0  0  0  0  0  0  0  0
    9.3526    1.9301   21.5639 H   0  0  0  0  0  0  0  0  0  0  0  0
    7.6247    1.7249   21.7100 H   0  0  0  0  0  0  0  0  0  0  0  0
    8.7347    1.0942   23.4573 C   0  0  0  0  0  0  0  0  0  0  0  0
    8.0175    0.3525   23.8256 H   0  0  0  0  0  0  0  0  0  0  0  0
    9.7360    0.6949   23.6617 H   0  0  0  0  0  0  0  0  0  0  0  0
    8.5456    2.4125   24.1718 C   0  0  0  0  0  0  0  0  0  0  0  0
    9.6298    3.2804   24.3768 C   0  0  0  0  0  0  0  0  0  0  0  0
   10.6232    2.9740   24.0501 H   0  0  0  0  0  0  0  0  0  0  0  0
    9.4437    4.5252   24.9846 C   0  0  0  0  0  0  0  0  0  0  0  0
   10.2966    5.1825   25.1444 H   0  0  0  0  0  0  0  0  0  0  0  0
    8.1623    4.9236   25.3870 C   0  0  0  0  0  0  0  0  0  0  0  0
    8.0142    5.8895   25.8629 H   0  0  0  0  0  0  0  0  0  0  0  0
    7.0701    4.0747   25.1675 C   0  0  0  0  0  0  0  0  0  0  0  0
    6.0695    4.3799   25.4691 H   0  0  0  0  0  0  0  0  0  0  0  0
    7.2623    2.8312   24.5601 C   0  0  0  0  0  0  0  0  0  0  0  0
    6.4140    2.1731   24.3739 H   0  0  0  0  0  0  0  0  0  0  0  0
    5.4194    0.6575   20.1678 C   0  0  0  0  0  0  0  0  0  0  0  0
    4.9892    0.6367   21.1717 H   0  0  0  0  0  0  0  0  0  0  0  0
    4.8014    1.3110   19.1036 C   0  0  0  0  0  0  0  0  0  0  0  0
    3.8720    1.8450   19.2531 H   0  0  0  0  0  0  0  0  0  0  0  0
  1  2  1  0
  2  3  2  0
  3  4  1  0
  4  5  1  0
  4  6  2  0
  6  7  1  0
  7  8  1  0
  7  9  1  0
  7 10  1  0
 10 11  1  0
 10 12  1  0
 12 13  1  0
 12 14  1  0
 12 15  1  0
 15 16  1  0
 15 17  1  0
 15 18  1  0
 18 19  2  0
 19 20  1  0
 19 21  1  0
 21 22  1  0
 21 23  2  0
 23 24  1  0
 23 25  1  0
 25 26  1  0
 25 27  2  0
 27 28  1  0
  6 29  1  0
 29 30  1  0
 29 31  2  0
 31 32  1  0
 31  2  1  0
 27 18  1  0
M  END
>  <cnnaffinity>  (1) 
-4.60084

>  <filename>  (1) 
FC(F)(NCCc1ccccc1)c1cccnc1

$$$$
