
     RDKit          3D

 26 27  0  0  0  0  0  0  0  0999 V2000
    4.9519    1.7928   17.0144 H   0  0  0  0  0  0  0  0  0  0  0  0
    5.4310    1.2709   17.8400 C   0  0  0  0  0  0  0  0  0  0  0  0
    6.5885    0.6533   17.5519 N   0  0  0  0  0  0  0  0  0  0  0  0
    7.2317    0.0440   18.5531 C   0  0  0  0  0  0  0  0  0  0  0  0
    8.1737   -0.4538   18.3376 H   0  0  0  0  0  0  0  0  0  0  0  0
    6.7542    0.0234   19.8747 C   0  0  0  0  0  0  0  0  0  0  0  0
    7.4121   -0.5734   20.9976 N   0  0  0  0  0  0  0  0  0  0  0  0
    8.4037   -1.2914   20.7478 N   0  0  0  0  0  0  0  0  0  0  0  0
    9.0333   -1.9386   21.8670 C   0  0  0  0  0  0  0  0  0  0  0  0
   10.4242   -2.0196   21.7284 C   0  0  0  0  0  0  0  0  0  0  0  0
   10.8577   -1.5695   20.8416 H   0  0  0  0  0  0  0  0  0  0  0  0
   11.2088   -2.6442   22.6929 C   0  0  0  0  0  0  0  0  0  0  0  0
   12.2875   -2.7263   22.5511 H   0  0  0  0  0  0  0  0  0  0  0  0
   10.5973   -3.1867   23.8287 C   0  0  0  0  0  0  0  0  0  0  0  0
   11.1989   -3.6612   24.5995 H   0  0  0  0  0  0  0  0  0  0  0  0
    9.2145   -3.1341   23.9706 C   0  0  0  0  0  0  0  0  0  0  0  0
    8.7422   -3.5652   24.8476 H   0  0  0  0  0  0  0  0  0  0  0  0
    8.4013   -2.5440   22.9771 C   0  0  0  0  0  0  0  0  0  0  0  0
    6.8937   -2.5760   23.1679 C   0  0  0  0  0  0  0  0  0  0  0  0
    6.2352   -2.9527   22.0588 F   0  0  0  0  0  0  0  0  0  0  0  0
    6.5310   -3.4515   24.1331 F   0  0  0  0  0  0  0  0  0  0  0  0
    6.4250   -1.3737   23.5430 F   0  0  0  0  0  0  0  0  0  0  0  0
    5.5230    0.6337   20.1536 C   0  0  0  0  0  0  0  0  0  0  0  0
    5.1448    0.5739   21.1748 H   0  0  0  0  0  0  0  0  0  0  0  0
    4.8527    1.2776   19.1152 C   0  0  0  0  0  0  0  0  0  0  0  0
    3.9117    1.7956   19.2782 H   0  0  0  0  0  0  0  0  0  0  0  0
  1  2  1  0
  2  3  2  0
  3  4  1  0
  4  5  1  0
  4  6  2  0
  6  7  1  0
  7  8  2  3
  8  9  1  0
  9 10  2  0
 10 11  1  0
 10 12  1  0
 12 13  1  0
 12 14  2  0
 14 15  1  0
 14 16  1  0
 16 17  1  0
 16 18  2  0
 18 19  1  0
 19 20  1  0
 19 21  1  0
 19 22  1  0
  6 23  1  0
 23 24  1  0
 23 25  2  0
 25 26  1  0
 25  2  1  0
 18  9  1  0
M  END
>  <cnnaffinity>  (1) 
-4.97817

>  <filename>  (1) 
FC(F)(F)c1ccccc1N=Nc1cccnc1

$$$$
