
     RDKit          3D

 30 32  0  0  0  0  0  0  0  0999 V2000
    8.8478   -3.1540   22.2127 H   0  0  0  0  0  0  0  0  0  0  0  0
    8.3564   -2.2160   21.9922 C   0  0  0  0  0  0  0  0  0  0  0  0
    7.9277   -1.8857   20.7462 N   0  0  0  0  0  0  0  0  0  0  0  0
    7.3755   -0.7117   20.9303 C   0  0  0  0  0  0  0  0  0  0  0  0
    6.6435    0.0211   19.9030 C   0  0  0  0  0  0  0  0  0  0  0  0
    7.1637    0.0475   18.6021 C   0  0  0  0  0  0  0  0  0  0  0  0
    8.1109   -0.4402   18.3805 H   0  0  0  0  0  0  0  0  0  0  0  0
    6.5689    0.6732   17.5817 N   0  0  0  0  0  0  0  0  0  0  0  0
    5.4054    1.2939   17.8372 C   0  0  0  0  0  0  0  0  0  0  0  0
    4.9298    1.7849   16.9918 H   0  0  0  0  0  0  0  0  0  0  0  0
    4.7961    1.3118   19.0970 C   0  0  0  0  0  0  0  0  0  0  0  0
    3.8677    1.8457   19.2477 H   0  0  0  0  0  0  0  0  0  0  0  0
    5.4172    0.6552   20.1544 C   0  0  0  0  0  0  0  0  0  0  0  0
    4.9963    0.6455   21.1633 H   0  0  0  0  0  0  0  0  0  0  0  0
    7.5178   -0.3231   22.2375 N   0  0  0  0  0  0  0  0  0  0  0  0
    7.2061    0.9361   22.8359 C   0  0  0  0  0  0  0  0  0  0  0  0
    7.4523    2.1410   22.1554 C   0  0  0  0  0  0  0  0  0  0  0  0
    7.8787    2.1242   21.1567 H   0  0  0  0  0  0  0  0  0  0  0  0
    7.1076    3.3564   22.7505 C   0  0  0  0  0  0  0  0  0  0  0  0
    7.2822    4.2899   22.2222 H   0  0  0  0  0  0  0  0  0  0  0  0
    6.5356    3.3920   24.0247 C   0  0  0  0  0  0  0  0  0  0  0  0
    6.2748    4.3471   24.4839 H   0  0  0  0  0  0  0  0  0  0  0  0
    6.3096    2.1852   24.7115 C   0  0  0  0  0  0  0  0  0  0  0  0
    5.6638    2.2104   26.0923 C   0  0  0  0  0  0  0  0  0  0  0  0
    5.9421    3.3422   26.7708 F   0  0  0  0  0  0  0  0  0  0  0  0
    6.0622    1.1797   26.8632 F   0  0  0  0  0  0  0  0  0  0  0  0
    4.3197    2.1357   26.0070 F   0  0  0  0  0  0  0  0  0  0  0  0
    6.6282    0.9574   24.1089 C   0  0  0  0  0  0  0  0  0  0  0  0
    6.4587    0.0090   24.6143 H   0  0  0  0  0  0  0  0  0  0  0  0
    8.1340   -1.3209   22.9309 N   0  0  0  0  0  0  0  0  0  0  0  0
  1  2  1  0
  2  3  1  0
  3  4  2  0
  4  5  1  0
  5  6  2  0
  6  7  1  0
  6  8  1  0
  8  9  2  0
  9 10  1  0
  9 11  1  0
 11 12  1  0
 11 13  2  0
 13 14  1  0
  4 15  1  0
 15 16  1  0
 16 17  2  0
 17 18  1  0
 17 19  1  0
 19 20  1  0
 19 21  2  0
 21 22  1  0
 21 23  1  0
 23 24  1  0
 24 25  1  0
 24 26  1  0
 24 27  1  0
 23 28  2  0
 28 29  1  0
 15 30  1  0
 30  2  2  0
 13  5  1  0
 28 16  1  0
M  END
>  <cnnaffinity>  (1) 
-5.02491

>  <filename>  (1) 
FC(F)(F)c1cccc(-n2ncnc2-c2cccnc2)c1

$$$$
