
     RDKit          3D

 33 35  0  0  0  0  0  0  0  0999 V2000
    4.9171    1.7783   16.9991 H   0  0  0  0  0  0  0  0  0  0  0  0
    5.4027    1.2946   17.8410 C   0  0  0  0  0  0  0  0  0  0  0  0
    6.5677    0.6799   17.5784 N   0  0  0  0  0  0  0  0  0  0  0  0
    7.1690    0.0606   18.5952 C   0  0  0  0  0  0  0  0  0  0  0  0
    8.1152   -0.4322   18.3773 H   0  0  0  0  0  0  0  0  0  0  0  0
    6.6498    0.0260   19.8947 C   0  0  0  0  0  0  0  0  0  0  0  0
    7.3958   -0.7124   20.9194 C   0  0  0  0  0  0  0  0  0  0  0  0
    7.7137   -1.9775   20.8599 N   0  0  0  0  0  0  0  0  0  0  0  0
    8.3912   -2.2897   22.0109 N   0  0  0  0  0  0  0  0  0  0  0  0
    8.4755   -1.1958   22.7102 C   0  0  0  0  0  0  0  0  0  0  0  0
    8.9716   -1.0972   23.6702 H   0  0  0  0  0  0  0  0  0  0  0  0
    7.8745   -0.1491   22.0719 N   0  0  0  0  0  0  0  0  0  0  0  0
    7.7873    1.2395   22.5242 C   0  0  0  0  0  0  0  0  0  0  0  0
    7.8654    1.8957   21.6538 H   0  0  0  0  0  0  0  0  0  0  0  0
    8.6647    1.4450   23.1461 H   0  0  0  0  0  0  0  0  0  0  0  0
    6.5360    1.5681   23.3112 C   0  0  0  0  0  0  0  0  0  0  0  0
    6.1945    0.8075   24.4383 C   0  0  0  0  0  0  0  0  0  0  0  0
    6.8322   -0.0143   24.7472 H   0  0  0  0  0  0  0  0  0  0  0  0
    5.0431    1.0844   25.1674 C   0  0  0  0  0  0  0  0  0  0  0  0
    4.8067    0.4812   26.0412 H   0  0  0  0  0  0  0  0  0  0  0  0
    4.2064    2.1391   24.7715 C   0  0  0  0  0  0  0  0  0  0  0  0
    2.9821    2.4789   25.5884 C   0  0  0  0  0  0  0  0  0  0  0  0
    2.0084    3.0423   24.8452 F   0  0  0  0  0  0  0  0  0  0  0  0
    2.4405    1.3981   26.1848 F   0  0  0  0  0  0  0  0  0  0  0  0
    3.2721    3.3554   26.5711 F   0  0  0  0  0  0  0  0  0  0  0  0
    4.5545    2.9337   23.6666 C   0  0  0  0  0  0  0  0  0  0  0  0
    3.9363    3.7763   23.3666 H   0  0  0  0  0  0  0  0  0  0  0  0
    5.7150    2.6466   22.9502 C   0  0  0  0  0  0  0  0  0  0  0  0
    5.9656    3.2513   22.0813 H   0  0  0  0  0  0  0  0  0  0  0  0
    5.4329    0.6654   20.1576 C   0  0  0  0  0  0  0  0  0  0  0  0
    5.0018    0.6308   21.1622 H   0  0  0  0  0  0  0  0  0  0  0  0
    4.7995    1.3187   19.1051 C   0  0  0  0  0  0  0  0  0  0  0  0
    3.8648    1.8486   19.2575 H   0  0  0  0  0  0  0  0  0  0  0  0
  1  2  1  0
  2  3  2  0
  3  4  1  0
  4  5  1  0
  4  6  2  0
  6  7  1  0
  7  8  2  0
  8  9  1  0
  9 10  2  0
 10 11  1  0
 10 12  1  0
 12 13  1  0
 13 14  1  0
 13 15  1  0
 13 16  1  0
 16 17  2  0
 17 18  1  0
 17 19  1  0
 19 20  1  0
 19 21  2  0
 21 22  1  0
 22 23  1  0
 22 24  1  0
 22 25  1  0
 21 26  1  0
 26 27  1  0
 26 28  2  0
 28 29  1  0
  6 30  1  0
 30 31  1  0
 30 32  2  0
 32 33  1  0
 32  2  1  0
 12  7  1  0
 28 16  1  0
M  END
>  <cnnaffinity>  (1) 
-4.91833

>  <filename>  (1) 
FC(F)(F)c1ccc(Cn2cnnc2-c2cccnc2)cc1

$$$$
