
     RDKit          3D

 41 44  0  0  0  0  0  0  0  0999 V2000
    4.9643    1.8586   16.9432 H   0  0  0  0  0  0  0  0  0  0  0  0
    5.3730    1.3248   17.7973 C   0  0  0  0  0  0  0  0  0  0  0  0
    6.5183    0.6576   17.5878 N   0  0  0  0  0  0  0  0  0  0  0  0
    7.0643    0.0404   18.6458 C   0  0  0  0  0  0  0  0  0  0  0  0
    7.9903   -0.4953   18.4445 H   0  0  0  0  0  0  0  0  0  0  0  0
    6.5062    0.0245   19.9448 C   0  0  0  0  0  0  0  0  0  0  0  0
    7.2645   -0.5753   21.0634 C   0  0  0  0  0  0  0  0  0  0  0  0
    8.6187   -0.5303   21.2829 C   0  0  0  0  0  0  0  0  0  0  0  0
    8.8182   -1.0450   22.5655 C   0  0  0  0  0  0  0  0  0  0  0  0
    7.7073   -1.4754   23.1249 N   0  0  0  0  0  0  0  0  0  0  0  0
    6.7564   -1.1539   22.1979 N   0  0  0  0  0  0  0  0  0  0  0  0
    5.7929   -1.3854   22.4086 H   0  0  0  0  0  0  0  0  0  0  0  0
   10.2463   -0.8596   22.9964 C   0  0  0  0  0  0  0  0  0  0  0  0
   10.3602   -0.5819   24.0453 H   0  0  0  0  0  0  0  0  0  0  0  0
   10.8027   -1.7913   22.8351 H   0  0  0  0  0  0  0  0  0  0  0  0
   10.7272    0.2556   22.0204 C   0  0  2  0  0  0  0  0  0  0  0  0
   11.7983    0.1378   21.8268 H   0  0  0  0  0  0  0  0  0  0  0  0
   10.5021    1.7015   22.5556 C   0  0  0  0  0  0  0  0  0  0  0  0
   10.9884    2.3945   21.8541 H   0  0  0  0  0  0  0  0  0  0  0  0
   11.0362    1.8174   23.5076 H   0  0  0  0  0  0  0  0  0  0  0  0
    9.0507    2.1120   22.7330 C   0  0  0  0  0  0  0  0  0  0  0  0
    8.3376    1.7675   23.8894 C   0  0  0  0  0  0  0  0  0  0  0  0
    8.8335    1.2137   24.6876 H   0  0  0  0  0  0  0  0  0  0  0  0
    6.9794    2.0666   24.0186 C   0  0  0  0  0  0  0  0  0  0  0  0
    6.4569    1.7554   24.9190 H   0  0  0  0  0  0  0  0  0  0  0  0
    6.3055    2.7586   23.0016 C   0  0  0  0  0  0  0  0  0  0  0  0
    4.8475    3.1336   23.1515 C   0  0  0  0  0  0  0  0  0  0  0  0
    4.2480    3.3249   21.9570 F   0  0  0  0  0  0  0  0  0  0  0  0
    4.1358    2.1774   23.7871 F   0  0  0  0  0  0  0  0  0  0  0  0
    4.6919    4.2697   23.8596 F   0  0  0  0  0  0  0  0  0  0  0  0
    7.0171    3.1418   21.8576 C   0  0  0  0  0  0  0  0  0  0  0  0
    6.5199    3.7024   21.0691 H   0  0  0  0  0  0  0  0  0  0  0  0
    8.3650    2.8052   21.7236 C   0  0  0  0  0  0  0  0  0  0  0  0
    8.8848    3.0774   20.8054 H   0  0  0  0  0  0  0  0  0  0  0  0
    9.9020   -0.0003   20.7373 C   0  0  0  0  0  0  0  0  0  0  0  0
    9.7696    0.8976   20.1281 H   0  0  0  0  0  0  0  0  0  0  0  0
   10.4209   -0.7501   20.1363 H   0  0  0  0  0  0  0  0  0  0  0  0
    5.2797    0.6853   20.1281 C   0  0  0  0  0  0  0  0  0  0  0  0
    4.7883    0.7039   21.1047 H   0  0  0  0  0  0  0  0  0  0  0  0
    4.7229    1.3558   19.0388 C   0  0  0  0  0  0  0  0  0  0  0  0
    3.8091    1.9287   19.1446 H   0  0  0  0  0  0  0  0  0  0  0  0
  1  2  1  0
  2  3  2  0
  3  4  1  0
  4  5  1  0
  4  6  2  0
  6  7  1  0
  7  8  2  0
  8  9  1  0
  9 10  2  0
 10 11  1  0
 11 12  1  0
  9 13  1  0
 13 14  1  0
 13 15  1  0
 13 16  1  0
 16 17  1  6
 16 18  1  0
 18 19  1  0
 18 20  1  0
 18 21  1  0
 21 22  2  0
 22 23  1  0
 22 24  1  0
 24 25  1  0
 24 26  2  0
 26 27  1  0
 27 28  1  0
 27 29  1  0
 27 30  1  0
 26 31  1  0
 31 32  1  0
 31 33  2  0
 33 34  1  0
 16 35  1  0
 35 36  1  0
 35 37  1  0
  6 38  1  0
 38 39  1  0
 38 40  2  0
 40 41  1  0
 40  2  1  0
 11  7  1  0
 33 21  1  0
 35  8  1  0
M  END
>  <cnnaffinity>  (1) 
-5.70748

>  <filename>  (1) 
FC(F)(F)c1ccc(C[C@H]2Cc3n[nH]c(-c4cccnc4)c3C2)cc1

$$$$
