
     RDKit          3D

 28 30  0  0  0  0  0  0  0  0999 V2000
    5.0740    1.7544   16.8902 H   0  0  0  0  0  0  0  0  0  0  0  0
    5.5168    1.2921   17.7677 C   0  0  0  0  0  0  0  0  0  0  0  0
    6.6820    0.6629   17.5658 N   0  0  0  0  0  0  0  0  0  0  0  0
    7.2415    0.0555   18.6156 C   0  0  0  0  0  0  0  0  0  0  0  0
    8.1725   -0.4750   18.4249 H   0  0  0  0  0  0  0  0  0  0  0  0
    6.6740    0.0661   19.8919 C   0  0  0  0  0  0  0  0  0  0  0  0
    7.3094   -0.7158   20.9455 C   0  0  0  0  0  0  0  0  0  0  0  0
    8.1969   -1.6423   20.6855 N   0  0  0  0  0  0  0  0  0  0  0  0
    8.5130   -2.4517   22.1000 S   0  0  0  0  0  0  0  0  0  0  0  0
    7.4382   -1.4359   22.9874 C   0  0  0  0  0  0  0  0  0  0  0  0
    7.0918   -1.7171   24.4218 C   0  0  0  0  0  0  0  0  0  0  0  0
    5.8357   -2.1363   24.6172 N   0  0  0  0  0  0  0  0  0  0  0  0
    5.4584   -2.5220   25.8346 C   0  0  0  0  0  0  0  0  0  0  0  0
    4.4215   -2.8447   25.9320 H   0  0  0  0  0  0  0  0  0  0  0  0
    6.3291   -2.5305   26.9294 C   0  0  0  0  0  0  0  0  0  0  0  0
    5.9789   -2.8819   27.8918 H   0  0  0  0  0  0  0  0  0  0  0  0
    7.6340   -2.0778   26.7540 C   0  0  0  0  0  0  0  0  0  0  0  0
    8.3331   -2.0439   27.5931 H   0  0  0  0  0  0  0  0  0  0  0  0
    8.0160   -1.6267   25.4864 C   0  0  0  0  0  0  0  0  0  0  0  0
    9.3665   -1.0136   25.2180 C   0  0  0  0  0  0  0  0  0  0  0  0
    9.2458    0.0107   24.3494 F   0  0  0  0  0  0  0  0  0  0  0  0
   10.2072   -1.9004   24.6602 F   0  0  0  0  0  0  0  0  0  0  0  0
    9.9626   -0.5474   26.3240 F   0  0  0  0  0  0  0  0  0  0  0  0
    6.8781   -0.5369   22.2304 N   0  0  0  0  0  0  0  0  0  0  0  0
    5.4636    0.7429   20.1055 C   0  0  0  0  0  0  0  0  0  0  0  0
    5.0114    0.7691   21.1026 H   0  0  0  0  0  0  0  0  0  0  0  0
    4.8676    1.3540   19.0077 C   0  0  0  0  0  0  0  0  0  0  0  0
    3.9184    1.8713   19.0929 H   0  0  0  0  0  0  0  0  0  0  0  0
  1  2  1  0
  2  3  2  0
  3  4  1  0
  4  5  1  0
  4  6  2  0
  6  7  1  0
  7  8  2  0
  8  9  1  0
  9 10  1  0
 10 11  1  0
 11 12  2  0
 12 13  1  0
 13 14  1  0
 13 15  2  0
 15 16  1  0
 15 17  1  0
 17 18  1  0
 17 19  2  0
 19 20  1  0
 20 21  1  0
 20 22  1  0
 20 23  1  0
 10 24  2  0
  6 25  1  0
 25 26  1  0
 25 27  2  0
 27 28  1  0
 27  2  1  0
 24  7  1  0
 19 11  1  0
M  END
>  <cnnaffinity>  (1) 
-5.52154

>  <filename>  (1) 
FC(F)(F)c1cccnc1-c1nc(-c2cccnc2)ns1

$$$$
