
     RDKit          3D

 39 42  0  0  0  0  0  0  0  0999 V2000
    4.9433    1.8160   16.9801 H   0  0  0  0  0  0  0  0  0  0  0  0
    5.4022    1.2932   17.8178 C   0  0  0  0  0  0  0  0  0  0  0  0
    6.5632    0.6669   17.5654 N   0  0  0  0  0  0  0  0  0  0  0  0
    7.1545    0.0229   18.5753 C   0  0  0  0  0  0  0  0  0  0  0  0
    8.1076   -0.4551   18.3413 H   0  0  0  0  0  0  0  0  0  0  0  0
    6.6271   -0.0242   19.8768 C   0  0  0  0  0  0  0  0  0  0  0  0
    7.3569   -0.6935   20.9572 C   0  0  0  0  0  0  0  0  0  0  0  0
    8.0770   -1.7912   20.7324 N   0  0  0  0  0  0  0  0  0  0  0  0
    8.5513   -2.1051   21.9365 N   0  0  0  0  0  0  0  0  0  0  0  0
    8.2296   -1.2707   22.9186 C   0  0  0  0  0  0  0  0  0  0  0  0
    7.4470   -0.2996   22.3296 C   0  0  0  0  0  0  0  0  0  0  0  0
    7.0805    0.9410   22.9853 C   0  0  0  0  0  0  0  0  0  0  0  0
    7.2720    2.1753   22.3505 C   0  0  0  0  0  0  0  0  0  0  0  0
    7.6659    2.1867   21.3397 H   0  0  0  0  0  0  0  0  0  0  0  0
    6.9684    3.3609   23.0163 C   0  0  0  0  0  0  0  0  0  0  0  0
    7.1124    4.3150   22.5146 H   0  0  0  0  0  0  0  0  0  0  0  0
    6.4789    3.3089   24.3229 C   0  0  0  0  0  0  0  0  0  0  0  0
    6.2110    4.1912   24.8882 H   0  0  0  0  0  0  0  0  0  0  0  0
    6.3125    2.0718   24.9421 C   0  0  0  0  0  0  0  0  0  0  0  0
    5.8290    2.1551   26.2368 O   0  0  0  0  0  0  0  0  0  0  0  0
    5.6230    1.0606   26.9902 C   0  0  0  0  0  0  0  0  0  0  0  0
    5.1685    1.4847   28.1613 F   0  0  0  0  0  0  0  0  0  0  0  0
    4.7155    0.2215   26.4630 F   0  0  0  0  0  0  0  0  0  0  0  0
    6.7422    0.3439   27.2008 F   0  0  0  0  0  0  0  0  0  0  0  0
    6.6129    0.8820   24.3006 C   0  0  0  0  0  0  0  0  0  0  0  0
    6.4853   -0.0703   24.8002 H   0  0  0  0  0  0  0  0  0  0  0  0
    9.0684   -1.5053   24.1467 C   0  0  0  0  0  0  0  0  0  0  0  0
    8.4502   -1.6980   25.0326 H   0  0  0  0  0  0  0  0  0  0  0  0
    9.6675   -0.6085   24.3534 H   0  0  0  0  0  0  0  0  0  0  0  0
    9.9398   -2.7246   23.7267 C   0  0  0  0  0  0  0  0  0  0  0  0
    9.7506   -3.5941   24.3539 H   0  0  0  0  0  0  0  0  0  0  0  0
   11.0001   -2.4931   23.7852 H   0  0  0  0  0  0  0  0  0  0  0  0
    9.5719   -3.0621   22.2537 C   0  0  0  0  0  0  0  0  0  0  0  0
    9.1603   -4.0682   22.1418 H   0  0  0  0  0  0  0  0  0  0  0  0
   10.4082   -2.8990   21.5708 H   0  0  0  0  0  0  0  0  0  0  0  0
    5.4114    0.6306   20.1199 C   0  0  0  0  0  0  0  0  0  0  0  0
    4.9929    0.6471   21.1281 H   0  0  0  0  0  0  0  0  0  0  0  0
    4.7878    1.3003   19.0734 C   0  0  0  0  0  0  0  0  0  0  0  0
    3.8627    1.8464   19.2265 H   0  0  0  0  0  0  0  0  0  0  0  0
  1  2  1  0
  2  3  2  0
  3  4  1  0
  4  5  1  0
  4  6  2  0
  6  7  1  0
  7  8  2  0
  8  9  1  0
  9 10  1  0
 10 11  2  0
 11 12  1  0
 12 13  2  0
 13 14  1  0
 13 15  1  0
 15 16  1  0
 15 17  2  0
 17 18  1  0
 17 19  1  0
 19 20  1  0
 20 21  1  0
 21 22  1  0
 21 23  1  0
 21 24  1  0
 19 25  2  0
 25 26  1  0
 10 27  1  0
 27 28  1  0
 27 29  1  0
 27 30  1  0
 30 31  1  0
 30 32  1  0
 30 33  1  0
 33 34  1  0
 33 35  1  0
  6 36  1  0
 36 37  1  0
 36 38  2  0
 38 39  1  0
 38  2  1  0
 11  7  1  0
 25 12  1  0
 33  9  1  0
M  END
>  <cnnaffinity>  (1) 
-5.84201

>  <filename>  (1) 
FC(F)(F)Oc1cccc(-c2c(-c3cccnc3)nn3c2CCC3)c1

$$$$
