
     RDKit          3D

 31 33  0  0  0  0  0  0  0  0999 V2000
    4.9264    1.7781   16.9960 H   0  0  0  0  0  0  0  0  0  0  0  0
    5.4069    1.2888   17.8436 C   0  0  0  0  0  0  0  0  0  0  0  0
    6.5674    0.6681   17.5962 N   0  0  0  0  0  0  0  0  0  0  0  0
    7.1753    0.0550   18.6107 C   0  0  0  0  0  0  0  0  0  0  0  0
    8.1120   -0.4334   18.3668 H   0  0  0  0  0  0  0  0  0  0  0  0
    6.6610    0.0031   19.9155 C   0  0  0  0  0  0  0  0  0  0  0  0
    7.3728   -0.6845   20.9295 N   0  0  0  0  0  0  0  0  0  0  0  0
    6.7374   -1.0730   22.0515 N   0  0  0  0  0  0  0  0  0  0  0  0
    7.6589   -1.6585   22.8085 C   0  0  0  0  0  0  0  0  0  0  0  0
    7.3574   -2.1913   24.1725 C   0  0  0  0  0  0  0  0  0  0  0  0
    6.6631   -1.3519   25.0606 C   0  0  0  0  0  0  0  0  0  0  0  0
    6.3169   -0.3932   24.6877 H   0  0  0  0  0  0  0  0  0  0  0  0
    6.4266   -1.7369   26.3780 C   0  0  0  0  0  0  0  0  0  0  0  0
    5.8730   -1.0799   27.0428 H   0  0  0  0  0  0  0  0  0  0  0  0
    6.8885   -2.9733   26.8277 C   0  0  0  0  0  0  0  0  0  0  0  0
    6.6792   -3.3053   27.8338 H   0  0  0  0  0  0  0  0  0  0  0  0
    7.5813   -3.8235   25.9719 C   0  0  0  0  0  0  0  0  0  0  0  0
    7.9304   -4.7866   26.3444 H   0  0  0  0  0  0  0  0  0  0  0  0
    7.7939   -3.4624   24.6335 C   0  0  0  0  0  0  0  0  0  0  0  0
    8.5157   -4.4628   23.7341 C   0  0  0  0  0  0  0  0  0  0  0  0
    9.8342   -4.1803   23.6670 F   0  0  0  0  0  0  0  0  0  0  0  0
    8.0633   -4.4628   22.4669 F   0  0  0  0  0  0  0  0  0  0  0  0
    8.4154   -5.7348   24.1672 F   0  0  0  0  0  0  0  0  0  0  0  0
    8.9256   -1.5981   22.1860 C   0  0  0  0  0  0  0  0  0  0  0  0
    9.8543   -1.9681   22.5931 H   0  0  0  0  0  0  0  0  0  0  0  0
    8.7104   -0.9729   20.9862 C   0  0  0  0  0  0  0  0  0  0  0  0
    9.3803   -0.6811   20.1851 H   0  0  0  0  0  0  0  0  0  0  0  0
    5.4394    0.6471   20.1769 C   0  0  0  0  0  0  0  0  0  0  0  0
    5.0129    0.6193   21.1825 H   0  0  0  0  0  0  0  0  0  0  0  0
    4.8146    1.3057   19.1140 C   0  0  0  0  0  0  0  0  0  0  0  0
    3.8813    1.8382   19.2612 H   0  0  0  0  0  0  0  0  0  0  0  0
  1  2  1  0
  2  3  2  0
  3  4  1  0
  4  5  1  0
  4  6  2  0
  6  7  1  0
  7  8  1  0
  8  9  2  0
  9 10  1  0
 10 11  2  0
 11 12  1  0
 11 13  1  0
 13 14  1  0
 13 15  2  0
 15 16  1  0
 15 17  1  0
 17 18  1  0
 17 19  2  0
 19 20  1  0
 20 21  1  0
 20 22  1  0
 20 23  1  0
  9 24  1  0
 24 25  1  0
 24 26  2  0
 26 27  1  0
  6 28  1  0
 28 29  1  0
 28 30  2  0
 30 31  1  0
 30  2  1  0
 26  7  1  0
 19 10  1  0
M  END
>  <cnnaffinity>  (1) 
-5.3025

>  <filename>  (1) 
FC(F)(F)c1ccccc1-c1ccn(-c2cccnc2)n1

$$$$
