
     RDKit          3D

 29 31  0  0  0  0  0  0  0  0999 V2000
    8.9587   -3.1191   22.1921 H   0  0  0  0  0  0  0  0  0  0  0  0
    8.4225   -2.2184   21.9174 C   0  0  0  0  0  0  0  0  0  0  0  0
    8.0035   -1.8552   20.7548 N   0  0  0  0  0  0  0  0  0  0  0  0
    7.3887   -0.6361   20.9697 C   0  0  0  0  0  0  0  0  0  0  0  0
    6.6410    0.0140   19.9054 C   0  0  0  0  0  0  0  0  0  0  0  0
    7.1582    0.0342   18.5975 C   0  0  0  0  0  0  0  0  0  0  0  0
    8.1105   -0.4444   18.3692 H   0  0  0  0  0  0  0  0  0  0  0  0
    6.5629    0.6600   17.5803 N   0  0  0  0  0  0  0  0  0  0  0  0
    5.4014    1.2865   17.8267 C   0  0  0  0  0  0  0  0  0  0  0  0
    4.9455    1.7965   16.9804 H   0  0  0  0  0  0  0  0  0  0  0  0
    4.7871    1.2960   19.0812 C   0  0  0  0  0  0  0  0  0  0  0  0
    3.8680    1.8443   19.2350 H   0  0  0  0  0  0  0  0  0  0  0  0
    5.4052    0.6389   20.1383 C   0  0  0  0  0  0  0  0  0  0  0  0
    4.9846    0.6595   21.1449 H   0  0  0  0  0  0  0  0  0  0  0  0
    7.5343   -0.3120   22.2965 C   0  0  0  0  0  0  0  0  0  0  0  0
    7.1436    0.9059   22.9894 C   0  0  0  0  0  0  0  0  0  0  0  0
    7.2401    2.0110   22.2252 N   0  0  0  0  0  0  0  0  0  0  0  0
    6.9317    3.1882   22.7585 C   0  0  0  0  0  0  0  0  0  0  0  0
    7.0380    4.0479   22.0987 H   0  0  0  0  0  0  0  0  0  0  0  0
    6.4934    3.3445   24.0802 C   0  0  0  0  0  0  0  0  0  0  0  0
    6.2673    4.3366   24.4530 H   0  0  0  0  0  0  0  0  0  0  0  0
    6.3500    2.2101   24.8747 C   0  0  0  0  0  0  0  0  0  0  0  0
    6.0075    2.2833   25.9115 H   0  0  0  0  0  0  0  0  0  0  0  0
    6.6554    0.9671   24.3116 C   0  0  0  0  0  0  0  0  0  0  0  0
    6.5324   -0.2979   25.1112 C   0  0  0  0  0  0  0  0  0  0  0  0
    5.8102   -0.0867   26.2303 F   0  0  0  0  0  0  0  0  0  0  0  0
    5.9366   -1.2933   24.4369 F   0  0  0  0  0  0  0  0  0  0  0  0
    7.7437   -0.7476   25.4741 F   0  0  0  0  0  0  0  0  0  0  0  0
    8.1760   -1.3499   22.9094 O   0  0  0  0  0  0  0  0  0  0  0  0
  1  2  1  0
  2  3  2  0
  3  4  1  0
  4  5  1  0
  5  6  2  0
  6  7  1  0
  6  8  1  0
  8  9  2  0
  9 10  1  0
  9 11  1  0
 11 12  1  0
 11 13  2  0
 13 14  1  0
  4 15  2  0
 15 16  1  0
 16 17  2  0
 17 18  1  0
 18 19  1  0
 18 20  2  0
 20 21  1  0
 20 22  1  0
 22 23  1  0
 22 24  2  0
 24 25  1  0
 25 26  1  0
 25 27  1  0
 25 28  1  0
 15 29  1  0
 29  2  1  0
 13  5  1  0
 24 16  1  0
M  END
>  <cnnaffinity>  (1) 
-5.12923

>  <filename>  (1) 
FC(F)(F)c1cccnc1-c1ocnc1-c1cccnc1

$$$$
