
     RDKit          3D

 36 38  0  0  0  0  0  0  0  0999 V2000
    4.9736    1.7148   16.9549 H   0  0  0  0  0  0  0  0  0  0  0  0
    5.4901    1.2202   17.7716 C   0  0  0  0  0  0  0  0  0  0  0  0
    6.6553    0.6211   17.4648 N   0  0  0  0  0  0  0  0  0  0  0  0
    7.3073    0.0048   18.4559 C   0  0  0  0  0  0  0  0  0  0  0  0
    8.2345   -0.4961   18.1757 H   0  0  0  0  0  0  0  0  0  0  0  0
    6.8829   -0.0476   19.8122 C   0  0  0  0  0  0  0  0  0  0  0  0
    7.6774   -0.6882   20.7855 N   0  0  0  0  0  0  0  0  0  0  0  0
    8.6138   -0.8506   20.4504 H   0  0  0  0  0  0  0  0  0  0  0  0
    7.7758   -0.2222   22.1863 C   0  0  0  0  0  0  0  0  0  0  0  0
    8.0964    1.2877   22.3376 C   0  0  0  0  0  0  0  0  0  0  0  0
    7.0633    2.1956   22.6454 C   0  0  0  0  0  0  0  0  0  0  0  0
    6.0595    1.8254   22.8171 H   0  0  0  0  0  0  0  0  0  0  0  0
    7.2864    3.5725   22.7492 C   0  0  0  0  0  0  0  0  0  0  0  0
    6.4593    4.2422   22.9671 H   0  0  0  0  0  0  0  0  0  0  0  0
    8.5763    4.0802   22.5986 C   0  0  0  0  0  0  0  0  0  0  0  0
    8.7682    5.1450   22.6855 H   0  0  0  0  0  0  0  0  0  0  0  0
    9.6203    3.2065   22.3066 C   0  0  0  0  0  0  0  0  0  0  0  0
   10.6249    3.6070   22.1870 H   0  0  0  0  0  0  0  0  0  0  0  0
    9.3950    1.8337   22.1161 C   0  0  0  0  0  0  0  0  0  0  0  0
   10.6164    1.0277   21.6893 C   0  0  0  0  0  0  0  0  0  0  0  0
   10.3002    0.0188   20.8520 F   0  0  0  0  0  0  0  0  0  0  0  0
   11.5398    1.7634   21.0414 F   0  0  0  0  0  0  0  0  0  0  0  0
   11.2603    0.4659   22.7374 F   0  0  0  0  0  0  0  0  0  0  0  0
    6.6108   -0.7999   23.0432 C   0  0  0  0  0  0  0  0  0  0  0  0
    6.0005   -0.0788   23.5927 H   0  0  0  0  0  0  0  0  0  0  0  0
    5.9858   -1.4131   22.3888 H   0  0  0  0  0  0  0  0  0  0  0  0
    7.6002   -1.6200   23.9078 C   0  0  0  0  0  0  0  0  0  0  0  0
    7.6625   -1.2760   24.9470 H   0  0  0  0  0  0  0  0  0  0  0  0
    7.4271   -2.7028   23.9480 H   0  0  0  0  0  0  0  0  0  0  0  0
    8.7479   -1.1300   22.9897 C   0  0  0  0  0  0  0  0  0  0  0  0
    9.2047   -1.8993   22.3642 H   0  0  0  0  0  0  0  0  0  0  0  0
    9.5358   -0.5812   23.5024 H   0  0  0  0  0  0  0  0  0  0  0  0
    5.6377    0.5445   20.0905 C   0  0  0  0  0  0  0  0  0  0  0  0
    5.2450    0.5207   21.1034 H   0  0  0  0  0  0  0  0  0  0  0  0
    4.9473    1.1965   19.0606 C   0  0  0  0  0  0  0  0  0  0  0  0
    4.0058    1.7014   19.2475 H   0  0  0  0  0  0  0  0  0  0  0  0
  1  2  1  0
  2  3  2  0
  3  4  1  0
  4  5  1  0
  4  6  2  0
  6  7  1  0
  7  8  1  0
  7  9  1  0
  9 10  1  0
 10 11  2  0
 11 12  1  0
 11 13  1  0
 13 14  1  0
 13 15  2  0
 15 16  1  0
 15 17  1  0
 17 18  1  0
 17 19  2  0
 19 20  1  0
 20 21  1  0
 20 22  1  0
 20 23  1  0
  9 24  1  0
 24 25  1  0
 24 26  1  0
 24 27  1  0
 27 28  1  0
 27 29  1  0
 27 30  1  0
 30 31  1  0
 30 32  1  0
  6 33  1  0
 33 34  1  0
 33 35  2  0
 35 36  1  0
 35  2  1  0
 30  9  1  0
 19 10  1  0
M  END
>  <cnnaffinity>  (1) 
-5.0489

>  <filename>  (1) 
FC(F)(F)c1ccccc1C1(Nc2cccnc2)CCC1

$$$$
