
     RDKit          3D

 24 26  0  0  0  0  0  0  0  0999 V2000
    4.9615    1.7984   16.9832 H   0  0  0  0  0  0  0  0  0  0  0  0
    5.4002    1.2832   17.8374 C   0  0  0  0  0  0  0  0  0  0  0  0
    6.5590    0.6511   17.5998 N   0  0  0  0  0  0  0  0  0  0  0  0
    7.1542    0.0353   18.6217 C   0  0  0  0  0  0  0  0  0  0  0  0
    8.0951   -0.4578   18.3900 H   0  0  0  0  0  0  0  0  0  0  0  0
    6.6434    0.0252   19.9265 C   0  0  0  0  0  0  0  0  0  0  0  0
    7.3913   -0.6713   20.9672 C   0  0  0  0  0  0  0  0  0  0  0  0
    7.9311   -1.9108   20.7437 N   0  0  0  0  0  0  0  0  0  0  0  0
    8.3857   -2.2841   21.9093 C   0  0  0  0  0  0  0  0  0  0  0  0
    9.0654   -3.7192   22.6255 S   0  0  0  0  0  0  0  0  0  0  0  0
    9.2988   -2.8780   24.1454 C   0  0  0  0  0  0  0  0  0  0  0  0
    9.8150   -3.3903   24.9502 H   0  0  0  0  0  0  0  0  0  0  0  0
    8.7893   -1.6329   24.1132 C   0  0  0  0  0  0  0  0  0  0  0  0
    8.7094   -0.8849   24.8894 H   0  0  0  0  0  0  0  0  0  0  0  0
    8.2593   -1.3167   22.8694 N   0  0  0  0  0  0  0  0  0  0  0  0
    7.6156   -0.2612   22.2647 C   0  0  0  0  0  0  0  0  0  0  0  0
    7.2558    1.0227   22.9166 C   0  0  0  0  0  0  0  0  0  0  0  0
    8.1002    1.3394   23.9207 F   0  0  0  0  0  0  0  0  0  0  0  0
    7.2899    2.0298   22.0326 F   0  0  0  0  0  0  0  0  0  0  0  0
    6.0095    1.0008   23.4335 F   0  0  0  0  0  0  0  0  0  0  0  0
    5.4153    0.6672   20.1619 C   0  0  0  0  0  0  0  0  0  0  0  0
    4.9719    0.6859   21.1588 H   0  0  0  0  0  0  0  0  0  0  0  0
    4.7863    1.3033   19.0932 C   0  0  0  0  0  0  0  0  0  0  0  0
    3.8556    1.8434   19.2214 H   0  0  0  0  0  0  0  0  0  0  0  0
  1  2  1  0
  2  3  2  0
  3  4  1  0
  4  5  1  0
  4  6  2  0
  6  7  1  0
  7  8  1  0
  8  9  2  0
  9 10  1  0
 10 11  1  0
 11 12  1  0
 11 13  2  0
 13 14  1  0
 13 15  1  0
 15 16  1  0
 16 17  1  0
 17 18  1  0
 17 19  1  0
 17 20  1  0
  6 21  1  0
 21 22  1  0
 21 23  2  0
 23 24  1  0
 23  2  1  0
 16  7  2  0
 15  9  1  0
M  END
>  <cnnaffinity>  (1) 
-5.1715

>  <filename>  (1) 
FC(F)(F)c1c(-c2cccnc2)nc2sccn12

$$$$
