
     RDKit          3D

 28 30  0  0  0  0  0  0  0  0999 V2000
    8.9484   -4.3403   22.8862 F   0  0  0  0  0  0  0  0  0  0  0  0
    9.6231   -3.8151   23.9206 C   0  0  0  0  0  0  0  0  0  0  0  0
   10.1293   -4.8452   24.6302 F   0  0  0  0  0  0  0  0  0  0  0  0
   10.6608   -3.1153   23.4445 F   0  0  0  0  0  0  0  0  0  0  0  0
    8.7007   -2.9244   24.7741 C   0  0  0  0  0  0  0  0  0  0  0  0
    8.6361   -3.1251   26.1512 C   0  0  0  0  0  0  0  0  0  0  0  0
    7.7864   -2.3317   26.9137 C   0  0  0  0  0  0  0  0  0  0  0  0
    6.9978   -1.3745   26.4287 N   0  0  0  0  0  0  0  0  0  0  0  0
    7.0563   -1.1628   25.1190 C   0  0  0  0  0  0  0  0  0  0  0  0
    7.8934   -1.8794   24.2442 C   0  0  0  0  0  0  0  0  0  0  0  0
    7.8457   -1.4704   22.8410 C   0  0  0  0  0  0  0  0  0  0  0  0
    6.9268   -0.7653   22.2588 N   0  0  0  0  0  0  0  0  0  0  0  0
    7.3854   -0.6985   20.9655 C   0  0  0  0  0  0  0  0  0  0  0  0
    6.6546    0.0080   19.9135 C   0  0  0  0  0  0  0  0  0  0  0  0
    5.4328    0.6519   20.1721 C   0  0  0  0  0  0  0  0  0  0  0  0
    4.8089    1.3055   19.1117 C   0  0  0  0  0  0  0  0  0  0  0  0
    5.4083    1.2855   17.8469 C   0  0  0  0  0  0  0  0  0  0  0  0
    6.5695    0.6669   17.5926 N   0  0  0  0  0  0  0  0  0  0  0  0
    7.1778    0.0524   18.6110 C   0  0  0  0  0  0  0  0  0  0  0  0
    8.1224   -0.4254   18.3690 H   0  0  0  0  0  0  0  0  0  0  0  0
    4.9340    1.7771   17.0005 H   0  0  0  0  0  0  0  0  0  0  0  0
    3.8790    1.8393   19.2545 H   0  0  0  0  0  0  0  0  0  0  0  0
    5.0010    0.6357   21.1776 H   0  0  0  0  0  0  0  0  0  0  0  0
    8.5214   -1.3104   20.7736 N   0  0  0  0  0  0  0  0  0  0  0  0
    8.8370   -1.8376   22.0156 O   0  0  0  0  0  0  0  0  0  0  0  0
    6.4154   -0.3721   24.7484 H   0  0  0  0  0  0  0  0  0  0  0  0
    7.7635   -2.4886   27.9705 H   0  0  0  0  0  0  0  0  0  0  0  0
    9.2250   -3.8893   26.6497 H   0  0  0  0  0  0  0  0  0  0  0  0
  1  2  1  0
  2  3  1  0
  2  4  1  0
  2  5  1  0
  5  6  2  0
  6  7  1  0
  7  8  2  0
  8  9  1  0
  9 10  2  0
 10 11  1  0
 11 12  2  0
 12 13  1  0
 13 14  1  0
 14 15  2  0
 15 16  1  0
 16 17  2  0
 17 18  1  0
 18 19  2  0
 19 20  1  0
 17 21  1  0
 16 22  1  0
 15 23  1  0
 13 24  2  0
 24 25  1  0
  9 26  1  0
  7 27  1  0
  6 28  1  0
 10  5  1  0
 25 11  1  0
 19 14  1  0
M  END
>  <cnnaffinity>  (1) 
-5.28578

>  <filename>  (1) 
FC(F)(F)c1ccncc1-c1nc(-c2cccnc2)no1

$$$$
