
     RDKit          3D

 35 38  0  0  0  0  0  0  0  0999 V2000
    4.9991    1.8568   16.8727 H   0  0  0  0  0  0  0  0  0  0  0  0
    5.4244    1.2990   17.7064 C   0  0  0  0  0  0  0  0  0  0  0  0
    6.5619    0.6313   17.4585 N   0  0  0  0  0  0  0  0  0  0  0  0
    7.1386   -0.0197   18.4735 C   0  0  0  0  0  0  0  0  0  0  0  0
    8.0587   -0.5518   18.2401 H   0  0  0  0  0  0  0  0  0  0  0  0
    6.6253   -0.0355   19.7815 C   0  0  0  0  0  0  0  0  0  0  0  0
    7.4048   -0.6377   20.8781 C   0  0  0  0  0  0  0  0  0  0  0  0
    8.5555   -1.2881   20.6260 N   0  0  0  0  0  0  0  0  0  0  0  0
    8.9920   -1.6123   21.8627 N   0  0  0  0  0  0  0  0  0  0  0  0
   10.1040   -2.2562   22.3957 C   0  0  0  0  0  0  0  0  0  0  0  0
   10.8464   -2.6865   21.7472 H   0  0  0  0  0  0  0  0  0  0  0  0
    9.9752   -2.1607   23.7438 C   0  0  0  0  0  0  0  0  0  0  0  0
   10.6346   -2.5005   24.5244 H   0  0  0  0  0  0  0  0  0  0  0  0
    8.7967   -1.4682   24.0545 N   0  0  0  0  0  0  0  0  0  0  0  0
    8.3610   -0.8646   25.2752 C   0  0  0  0  0  0  0  0  0  0  0  0
    8.3231    0.5361   25.3454 C   0  0  0  0  0  0  0  0  0  0  0  0
    8.6636    1.1018   24.4826 H   0  0  0  0  0  0  0  0  0  0  0  0
    7.8210    1.1786   26.4799 C   0  0  0  0  0  0  0  0  0  0  0  0
    7.8557    2.2626   26.5362 H   0  0  0  0  0  0  0  0  0  0  0  0
    7.2738    0.4243   27.5199 C   0  0  0  0  0  0  0  0  0  0  0  0
    6.8509    0.9228   28.3856 H   0  0  0  0  0  0  0  0  0  0  0  0
    7.2866   -0.9676   27.4530 C   0  0  0  0  0  0  0  0  0  0  0  0
    6.8219   -1.5301   28.2560 H   0  0  0  0  0  0  0  0  0  0  0  0
    7.8897   -1.6288   26.3627 C   0  0  0  0  0  0  0  0  0  0  0  0
    8.1078   -3.1277   26.3725 C   0  0  0  0  0  0  0  0  0  0  0  0
    7.5845   -3.7139   27.4631 F   0  0  0  0  0  0  0  0  0  0  0  0
    7.5704   -3.7480   25.3078 F   0  0  0  0  0  0  0  0  0  0  0  0
    9.4333   -3.4193   26.3858 F   0  0  0  0  0  0  0  0  0  0  0  0
    8.1909   -1.1701   22.8464 C   0  0  0  0  0  0  0  0  0  0  0  0
    7.1068   -0.5435   22.2605 C   0  0  0  0  0  0  0  0  0  0  0  0
    6.2637   -0.0869   22.7518 H   0  0  0  0  0  0  0  0  0  0  0  0
    5.4000    0.6137   20.0058 C   0  0  0  0  0  0  0  0  0  0  0  0
    4.9247    0.5826   20.9850 H   0  0  0  0  0  0  0  0  0  0  0  0
    4.7988    1.3020   18.9558 C   0  0  0  0  0  0  0  0  0  0  0  0
    3.8771    1.8564   19.0962 H   0  0  0  0  0  0  0  0  0  0  0  0
  1  2  1  0
  2  3  2  0
  3  4  1  0
  4  5  1  0
  4  6  2  0
  6  7  1  0
  7  8  2  0
  8  9  1  0
  9 10  1  0
 10 11  1  0
 10 12  2  0
 12 13  1  0
 12 14  1  0
 14 15  1  0
 15 16  2  0
 16 17  1  0
 16 18  1  0
 18 19  1  0
 18 20  2  0
 20 21  1  0
 20 22  1  0
 22 23  1  0
 22 24  2  0
 24 25  1  0
 25 26  1  0
 25 27  1  0
 25 28  1  0
 14 29  1  0
 29 30  2  0
 30 31  1  0
  6 32  1  0
 32 33  1  0
 32 34  2  0
 34 35  1  0
 34  2  1  0
 30  7  1  0
 29  9  1  0
 24 15  1  0
M  END
>  <cnnaffinity>  (1) 
-5.79992

>  <filename>  (1) 
FC(F)(F)c1ccccc1-n1ccn2nc(-c3cccnc3)cc12

$$$$
