
     RDKit          3D

 33 35  0  0  0  0  0  0  0  0999 V2000
    4.9092    1.7875   16.9915 H   0  0  0  0  0  0  0  0  0  0  0  0
    5.3969    1.2989   17.8326 C   0  0  0  0  0  0  0  0  0  0  0  0
    6.5562    0.6801   17.5633 N   0  0  0  0  0  0  0  0  0  0  0  0
    7.1716    0.0649   18.5784 C   0  0  0  0  0  0  0  0  0  0  0  0
    8.1146   -0.4315   18.3645 H   0  0  0  0  0  0  0  0  0  0  0  0
    6.6602    0.0150   19.8930 C   0  0  0  0  0  0  0  0  0  0  0  0
    7.3391   -0.6854   20.9410 N   0  0  0  0  0  0  0  0  0  0  0  0
    6.8212   -1.6780   21.7350 C   0  0  0  0  0  0  0  0  0  0  0  0
    5.8061   -2.0454   21.6149 H   0  0  0  0  0  0  0  0  0  0  0  0
    7.7077   -2.1081   22.5860 N   0  0  0  0  0  0  0  0  0  0  0  0
    8.8531   -1.3779   22.3891 N   0  0  0  0  0  0  0  0  0  0  0  0
    8.6247   -0.5296   21.4236 C   0  0  0  0  0  0  0  0  0  0  0  0
    9.5916    0.5358   20.9874 C   0  0  0  0  0  0  0  0  0  0  0  0
   10.5929    0.0999   20.9431 H   0  0  0  0  0  0  0  0  0  0  0  0
    9.3344    0.8613   19.9766 H   0  0  0  0  0  0  0  0  0  0  0  0
    9.5121    1.7443   21.9130 C   0  0  0  0  0  0  0  0  0  0  0  0
    8.4100    2.6008   21.7810 C   0  0  0  0  0  0  0  0  0  0  0  0
    7.6837    2.4050   20.9963 H   0  0  0  0  0  0  0  0  0  0  0  0
    8.2396    3.6947   22.6325 C   0  0  0  0  0  0  0  0  0  0  0  0
    7.3920    4.3615   22.5026 H   0  0  0  0  0  0  0  0  0  0  0  0
    9.1711    3.9371   23.6440 C   0  0  0  0  0  0  0  0  0  0  0  0
    9.0584    4.7865   24.3078 H   0  0  0  0  0  0  0  0  0  0  0  0
   10.2619    3.0855   23.8041 C   0  0  0  0  0  0  0  0  0  0  0  0
   10.9956    3.2736   24.5827 H   0  0  0  0  0  0  0  0  0  0  0  0
   10.4313    1.9830   22.9512 C   0  0  0  0  0  0  0  0  0  0  0  0
   11.6408    1.0796   23.1306 C   0  0  0  0  0  0  0  0  0  0  0  0
   12.3903    1.4050   24.2026 F   0  0  0  0  0  0  0  0  0  0  0  0
   11.3069   -0.2168   23.2643 F   0  0  0  0  0  0  0  0  0  0  0  0
   12.4682    1.1382   22.0618 F   0  0  0  0  0  0  0  0  0  0  0  0
    5.4423    0.6473   20.1600 C   0  0  0  0  0  0  0  0  0  0  0  0
    5.0225    0.6247   21.1718 H   0  0  0  0  0  0  0  0  0  0  0  0
    4.8076    1.3118   19.1045 C   0  0  0  0  0  0  0  0  0  0  0  0
    3.8744    1.8425   19.2604 H   0  0  0  0  0  0  0  0  0  0  0  0
  1  2  1  0
  2  3  2  0
  3  4  1  0
  4  5  1  0
  4  6  2  0
  6  7  1  0
  7  8  1  0
  8  9  1  0
  8 10  2  0
 10 11  1  0
 11 12  2  0
 12 13  1  0
 13 14  1  0
 13 15  1  0
 13 16  1  0
 16 17  2  0
 17 18  1  0
 17 19  1  0
 19 20  1  0
 19 21  2  0
 21 22  1  0
 21 23  1  0
 23 24  1  0
 23 25  2  0
 25 26  1  0
 26 27  1  0
 26 28  1  0
 26 29  1  0
  6 30  1  0
 30 31  1  0
 30 32  2  0
 32 33  1  0
 32  2  1  0
 12  7  1  0
 25 16  1  0
M  END
>  <cnnaffinity>  (1) 
-5.74327

>  <filename>  (1) 
FC(F)(F)c1ccccc1Cc1nncn1-c1cccnc1

$$$$
