
     RDKit          3D

 30 32  0  0  0  0  0  0  0  0999 V2000
    4.9168    1.7796   16.9973 H   0  0  0  0  0  0  0  0  0  0  0  0
    5.4031    1.2907   17.8417 C   0  0  0  0  0  0  0  0  0  0  0  0
    6.5704    0.6756   17.5851 N   0  0  0  0  0  0  0  0  0  0  0  0
    7.1810    0.0535   18.5975 C   0  0  0  0  0  0  0  0  0  0  0  0
    8.1277   -0.4367   18.3762 H   0  0  0  0  0  0  0  0  0  0  0  0
    6.6535    0.0177   19.9040 C   0  0  0  0  0  0  0  0  0  0  0  0
    7.3491   -0.6416   20.9681 N   0  0  0  0  0  0  0  0  0  0  0  0
    8.1088   -1.7444   20.7304 N   0  0  0  0  0  0  0  0  0  0  0  0
    8.5952   -2.1153   21.8489 N   0  0  0  0  0  0  0  0  0  0  0  0
    8.2101   -1.2989   22.8597 N   0  0  0  0  0  0  0  0  0  0  0  0
    7.4397   -0.3971   22.3001 C   0  0  0  0  0  0  0  0  0  0  0  0
    6.7983    0.6347   22.8647 O   0  0  0  0  0  0  0  0  0  0  0  0
    7.0826    1.0775   24.1644 C   0  0  0  0  0  0  0  0  0  0  0  0
    8.3600    1.0118   24.7243 C   0  0  0  0  0  0  0  0  0  0  0  0
    9.1750    0.5740   24.1575 H   0  0  0  0  0  0  0  0  0  0  0  0
    8.5590    1.4862   26.0236 C   0  0  0  0  0  0  0  0  0  0  0  0
    9.5389    1.3938   26.4749 H   0  0  0  0  0  0  0  0  0  0  0  0
    7.5193    2.0581   26.7570 C   0  0  0  0  0  0  0  0  0  0  0  0
    7.7010    2.4050   27.7751 H   0  0  0  0  0  0  0  0  0  0  0  0
    6.2539    2.1801   26.1608 C   0  0  0  0  0  0  0  0  0  0  0  0
    5.1113    2.7794   26.9650 C   0  0  0  0  0  0  0  0  0  0  0  0
    4.4455    1.8346   27.6569 F   0  0  0  0  0  0  0  0  0  0  0  0
    5.5295    3.6850   27.8719 F   0  0  0  0  0  0  0  0  0  0  0  0
    4.2025    3.3994   26.1900 F   0  0  0  0  0  0  0  0  0  0  0  0
    6.0300    1.6831   24.8608 C   0  0  0  0  0  0  0  0  0  0  0  0
    5.0519    1.7646   24.3964 H   0  0  0  0  0  0  0  0  0  0  0  0
    5.4355    0.6488   20.1678 C   0  0  0  0  0  0  0  0  0  0  0  0
    5.0090    0.6346   21.1691 H   0  0  0  0  0  0  0  0  0  0  0  0
    4.8061    1.3045   19.1044 C   0  0  0  0  0  0  0  0  0  0  0  0
    3.8763    1.8404   19.2616 H   0  0  0  0  0  0  0  0  0  0  0  0
  1  2  1  0
  2  3  2  0
  3  4  1  0
  4  5  1  0
  4  6  2  0
  6  7  1  0
  7  8  1  0
  8  9  2  0
  9 10  1  0
 10 11  2  0
 11 12  1  0
 12 13  1  0
 13 14  2  0
 14 15  1  0
 14 16  1  0
 16 17  1  0
 16 18  2  0
 18 19  1  0
 18 20  1  0
 20 21  1  0
 21 22  1  0
 21 23  1  0
 21 24  1  0
 20 25  2  0
 25 26  1  0
  6 27  1  0
 27 28  1  0
 27 29  2  0
 29 30  1  0
 29  2  1  0
 11  7  1  0
 25 13  1  0
M  END
>  <cnnaffinity>  (1) 
-5.26649

>  <filename>  (1) 
FC(F)(F)c1cccc(Oc2nnnn2-c2cccnc2)c1

$$$$
