
     RDKit          3D

 33 35  0  0  0  0  0  0  0  0999 V2000
    5.2618   -2.3656   20.9985 H   0  0  0  0  0  0  0  0  0  0  0  0
    5.9169   -2.4404   21.8587 C   0  0  0  0  0  0  0  0  0  0  0  0
    7.0724   -1.7475   21.9182 C   0  0  0  0  0  0  0  0  0  0  0  0
    7.5611   -0.7083   20.9624 C   0  0  0  0  0  0  0  0  0  0  0  0
    6.7171   -0.0451   19.9373 C   0  0  0  0  0  0  0  0  0  0  0  0
    7.2463    0.0340   18.6430 C   0  0  0  0  0  0  0  0  0  0  0  0
    8.2075   -0.4239   18.4241 H   0  0  0  0  0  0  0  0  0  0  0  0
    6.6338    0.6371   17.6201 N   0  0  0  0  0  0  0  0  0  0  0  0
    5.4599    1.2354   17.8731 C   0  0  0  0  0  0  0  0  0  0  0  0
    4.9968    1.7448   17.0286 H   0  0  0  0  0  0  0  0  0  0  0  0
    4.8459    1.2354   19.1306 C   0  0  0  0  0  0  0  0  0  0  0  0
    3.9106    1.7694   19.2673 H   0  0  0  0  0  0  0  0  0  0  0  0
    5.4773    0.5666   20.1851 C   0  0  0  0  0  0  0  0  0  0  0  0
    5.0265    0.5378   21.1786 H   0  0  0  0  0  0  0  0  0  0  0  0
    8.8023   -0.4275   21.0999 N   0  0  0  0  0  0  0  0  0  0  0  0
    9.3545   -1.1785   22.2305 C   0  0  0  0  0  0  0  0  0  0  0  0
   10.1097   -1.8570   21.8200 H   0  0  0  0  0  0  0  0  0  0  0  0
    9.8536   -0.4730   22.8997 H   0  0  0  0  0  0  0  0  0  0  0  0
    8.1931   -1.9352   22.9169 C   0  0  0  0  0  0  0  0  0  0  0  0
    8.4080   -2.9873   23.1115 H   0  0  0  0  0  0  0  0  0  0  0  0
    7.9266   -1.4852   23.8780 H   0  0  0  0  0  0  0  0  0  0  0  0
    5.3461   -3.3477   22.8740 C   0  0  0  0  0  0  0  0  0  0  0  0
    4.1794   -3.9225   22.5313 N   0  0  0  0  0  0  0  0  0  0  0  0
    3.5662   -4.6337   23.4726 C   0  0  0  0  0  0  0  0  0  0  0  0
    2.6112   -5.0885   23.2023 H   0  0  0  0  0  0  0  0  0  0  0  0
    4.0787   -4.7932   24.7595 C   0  0  0  0  0  0  0  0  0  0  0  0
    3.5067   -5.2864   25.5325 H   0  0  0  0  0  0  0  0  0  0  0  0
    5.3536   -4.2720   24.9846 C   0  0  0  0  0  0  0  0  0  0  0  0
    6.0617   -4.5090   26.3562 C   0  0  0  0  0  0  0  0  0  0  0  0
    5.2617   -4.0937   27.3643 F   0  0  0  0  0  0  0  0  0  0  0  0
    6.2961   -5.8195   26.5802 F   0  0  0  0  0  0  0  0  0  0  0  0
    7.2312   -3.8728   26.4634 F   0  0  0  0  0  0  0  0  0  0  0  0
    5.9720   -3.5489   24.0425 N   0  0  0  0  0  0  0  0  0  0  0  0
  1  2  1  0
  2  3  2  3
  3  4  1  0
  4  5  1  0
  5  6  2  0
  6  7  1  0
  6  8  1  0
  8  9  2  0
  9 10  1  0
  9 11  1  0
 11 12  1  0
 11 13  2  0
 13 14  1  0
  4 15  2  0
 15 16  1  0
 16 17  1  0
 16 18  1  0
 16 19  1  0
 19 20  1  0
 19 21  1  0
  2 22  1  0
 22 23  2  0
 23 24  1  0
 24 25  1  0
 24 26  2  0
 26 27  1  0
 26 28  1  0
 28 29  1  0
 29 30  1  0
 29 31  1  0
 29 32  1  0
 28 33  2  0
 19  3  1  0
 33 22  1  0
 13  5  1  0
M  END
>  <cnnaffinity>  (1) 
-5.63398

>  <filename>  (1) 
FC(F)(F)c1ccnc(C=C2CCN=C2c2cccnc2)n1

$$$$
