
     RDKit          3D

 35 37  0  0  0  0  0  0  0  0999 V2000
    5.3367   -2.3752   20.9753 H   0  0  0  0  0  0  0  0  0  0  0  0
    5.8895   -2.3942   21.9186 C   0  0  0  0  0  0  0  0  0  0  0  0
    7.0428   -1.6974   21.9733 C   0  0  0  0  0  0  0  0  0  0  0  0
    7.5398   -0.7116   20.9691 C   0  0  0  0  0  0  0  0  0  0  0  0
    6.7112   -0.0315   19.9353 C   0  0  0  0  0  0  0  0  0  0  0  0
    7.2403    0.0486   18.6372 C   0  0  0  0  0  0  0  0  0  0  0  0
    8.2046   -0.4025   18.4124 H   0  0  0  0  0  0  0  0  0  0  0  0
    6.6320    0.6504   17.6136 N   0  0  0  0  0  0  0  0  0  0  0  0
    5.4598    1.2560   17.8642 C   0  0  0  0  0  0  0  0  0  0  0  0
    4.9842    1.7534   17.0194 H   0  0  0  0  0  0  0  0  0  0  0  0
    4.8500    1.2495   19.1207 C   0  0  0  0  0  0  0  0  0  0  0  0
    3.9143    1.7805   19.2532 H   0  0  0  0  0  0  0  0  0  0  0  0
    5.4734    0.5866   20.1801 C   0  0  0  0  0  0  0  0  0  0  0  0
    5.0249    0.5761   21.1751 H   0  0  0  0  0  0  0  0  0  0  0  0
    8.8020   -0.4942   21.0418 N   0  0  0  0  0  0  0  0  0  0  0  0
    9.3732   -1.2557   22.1595 C   0  0  0  0  0  0  0  0  0  0  0  0
   10.0390   -2.0317   21.7594 H   0  0  0  0  0  0  0  0  0  0  0  0
    9.9911   -0.6108   22.7896 H   0  0  0  0  0  0  0  0  0  0  0  0
    8.1896   -1.8547   22.9597 C   0  0  0  0  0  0  0  0  0  0  0  0
    8.0163   -1.2473   23.8594 H   0  0  0  0  0  0  0  0  0  0  0  0
    8.3583   -2.8876   23.2757 H   0  0  0  0  0  0  0  0  0  0  0  0
    5.2647   -3.2067   22.9988 C   0  0  0  0  0  0  0  0  0  0  0  0
    4.4693   -4.3194   22.6576 C   0  0  0  0  0  0  0  0  0  0  0  0
    4.3879   -4.6156   21.6181 H   0  0  0  0  0  0  0  0  0  0  0  0
    3.8472   -5.0979   23.6333 C   0  0  0  0  0  0  0  0  0  0  0  0
    3.2478   -5.9521   23.3237 H   0  0  0  0  0  0  0  0  0  0  0  0
    4.0148   -4.7910   24.9962 C   0  0  0  0  0  0  0  0  0  0  0  0
    3.3729   -5.6610   26.0596 C   0  0  0  0  0  0  0  0  0  0  0  0
    2.1157   -5.2586   26.3281 F   0  0  0  0  0  0  0  0  0  0  0  0
    4.0472   -5.6373   27.2264 F   0  0  0  0  0  0  0  0  0  0  0  0
    3.2856   -6.9529   25.6823 F   0  0  0  0  0  0  0  0  0  0  0  0
    4.7489   -3.6473   25.3519 C   0  0  0  0  0  0  0  0  0  0  0  0
    4.8501   -3.3491   26.3934 H   0  0  0  0  0  0  0  0  0  0  0  0
    5.3777   -2.8808   24.3689 C   0  0  0  0  0  0  0  0  0  0  0  0
    5.9565   -2.0085   24.6625 H   0  0  0  0  0  0  0  0  0  0  0  0
  1  2  1  0
  2  3  2  3
  3  4  1  0
  4  5  1  0
  5  6  2  0
  6  7  1  0
  6  8  1  0
  8  9  2  0
  9 10  1  0
  9 11  1  0
 11 12  1  0
 11 13  2  0
 13 14  1  0
  4 15  2  0
 15 16  1  0
 16 17  1  0
 16 18  1  0
 16 19  1  0
 19 20  1  0
 19 21  1  0
  2 22  1  0
 22 23  2  0
 23 24  1  0
 23 25  1  0
 25 26  1  0
 25 27  2  0
 27 28  1  0
 28 29  1  0
 28 30  1  0
 28 31  1  0
 27 32  1  0
 32 33  1  0
 32 34  2  0
 34 35  1  0
 19  3  1  0
 34 22  1  0
 13  5  1  0
M  END
>  <cnnaffinity>  (1) 
-5.17779

>  <filename>  (1) 
FC(F)(F)c1ccc(C=C2CCN=C2c2cccnc2)cc1

$$$$
