
     RDKit          3D

 31 33  0  0  0  0  0  0  0  0999 V2000
    4.9042    1.8503   16.7985 H   0  0  0  0  0  0  0  0  0  0  0  0
    5.3480    1.4155   17.6893 C   0  0  0  0  0  0  0  0  0  0  0  0
    6.5454    0.8339   17.5148 N   0  0  0  0  0  0  0  0  0  0  0  0
    7.1080    0.2643   18.5893 C   0  0  0  0  0  0  0  0  0  0  0  0
    8.0781   -0.2034   18.4181 H   0  0  0  0  0  0  0  0  0  0  0  0
    6.5235    0.2413   19.8742 C   0  0  0  0  0  0  0  0  0  0  0  0
    7.1217   -0.5159   21.0156 C   0  0  0  0  0  0  0  0  0  0  0  0
    7.3826   -1.9027   20.9374 C   0  0  0  0  0  0  0  0  0  0  0  0
    7.1059   -2.4744   20.0594 H   0  0  0  0  0  0  0  0  0  0  0  0
    7.9091   -2.6062   21.9398 N   0  0  0  0  0  0  0  0  0  0  0  0
    8.2053   -2.0081   23.0988 N   0  0  0  0  0  0  0  0  0  0  0  0
    7.9235   -0.7089   23.2766 C   0  0  0  0  0  0  0  0  0  0  0  0
    8.1580   -0.1351   24.6661 C   0  0  0  0  0  0  0  0  0  0  0  0
    7.1124    0.5062   25.1932 N   0  0  0  0  0  0  0  0  0  0  0  0
    7.1644    0.8723   26.4799 C   0  0  0  0  0  0  0  0  0  0  0  0
    6.2817    1.3755   26.8567 H   0  0  0  0  0  0  0  0  0  0  0  0
    8.2671    0.6341   27.3050 C   0  0  0  0  0  0  0  0  0  0  0  0
    8.2482    0.9317   28.3476 H   0  0  0  0  0  0  0  0  0  0  0  0
    9.4036    0.0611   26.7441 C   0  0  0  0  0  0  0  0  0  0  0  0
   10.2962   -0.1273   27.3487 H   0  0  0  0  0  0  0  0  0  0  0  0
    9.3742   -0.2370   25.3773 C   0  0  0  0  0  0  0  0  0  0  0  0
   10.6103   -0.6428   24.6355 C   0  0  0  0  0  0  0  0  0  0  0  0
   11.7360   -0.2735   25.2754 F   0  0  0  0  0  0  0  0  0  0  0  0
   10.6497   -0.0882   23.4064 F   0  0  0  0  0  0  0  0  0  0  0  0
   10.6316   -1.9736   24.4757 F   0  0  0  0  0  0  0  0  0  0  0  0
    7.3821    0.0777   22.2442 C   0  0  0  0  0  0  0  0  0  0  0  0
    7.1751    1.1308   22.4133 H   0  0  0  0  0  0  0  0  0  0  0  0
    5.2999    0.9096   20.0370 C   0  0  0  0  0  0  0  0  0  0  0  0
    4.8447    0.9632   21.0283 H   0  0  0  0  0  0  0  0  0  0  0  0
    4.6854    1.4787   18.9194 C   0  0  0  0  0  0  0  0  0  0  0  0
    3.7189    1.9687   18.9898 H   0  0  0  0  0  0  0  0  0  0  0  0
  1  2  1  0
  2  3  2  0
  3  4  1  0
  4  5  1  0
  4  6  2  0
  6  7  1  0
  7  8  2  0
  8  9  1  0
  8 10  1  0
 10 11  2  0
 11 12  1  0
 12 13  1  0
 13 14  2  0
 14 15  1  0
 15 16  1  0
 15 17  2  0
 17 18  1  0
 17 19  1  0
 19 20  1  0
 19 21  2  0
 21 22  1  0
 22 23  1  0
 22 24  1  0
 22 25  1  0
 12 26  2  0
 26 27  1  0
  6 28  1  0
 28 29  1  0
 28 30  2  0
 30 31  1  0
 30  2  1  0
 26  7  1  0
 21 13  1  0
M  END
>  <cnnaffinity>  (1) 
-5.54035

>  <filename>  (1) 
FC(F)(F)c1cccnc1-c1cc(-c2cccnc2)cnn1

$$$$
