
     RDKit          3D

 30 32  0  0  0  0  0  0  0  0999 V2000
    4.9186    1.7807   16.9936 H   0  0  0  0  0  0  0  0  0  0  0  0
    5.4014    1.2928   17.8369 C   0  0  0  0  0  0  0  0  0  0  0  0
    6.5656    0.6764   17.5783 N   0  0  0  0  0  0  0  0  0  0  0  0
    7.1705    0.0664   18.6027 C   0  0  0  0  0  0  0  0  0  0  0  0
    8.1109   -0.4253   18.3628 H   0  0  0  0  0  0  0  0  0  0  0  0
    6.6647    0.0008   19.9202 C   0  0  0  0  0  0  0  0  0  0  0  0
    7.4006   -0.7191   20.9817 C   0  0  0  0  0  0  0  0  0  0  0  0
    6.6149   -1.2788   22.4228 S   0  0  0  0  0  0  0  0  0  0  0  0
    8.0808   -1.9287   23.0714 C   0  0  0  0  0  0  0  0  0  0  0  0
    8.1525   -2.6883   24.3392 C   0  0  0  0  0  0  0  0  0  0  0  0
    8.8938   -3.8077   24.2628 N   0  0  0  0  0  0  0  0  0  0  0  0
    8.9834   -4.6053   25.3246 C   0  0  0  0  0  0  0  0  0  0  0  0
    9.5866   -5.4997   25.2080 H   0  0  0  0  0  0  0  0  0  0  0  0
    8.3565   -4.3401   26.5438 C   0  0  0  0  0  0  0  0  0  0  0  0
    8.4617   -5.0199   27.3784 H   0  0  0  0  0  0  0  0  0  0  0  0
    7.6165   -3.1751   26.6612 C   0  0  0  0  0  0  0  0  0  0  0  0
    7.1130   -2.9255   27.5941 H   0  0  0  0  0  0  0  0  0  0  0  0
    7.5416   -2.3181   25.5584 C   0  0  0  0  0  0  0  0  0  0  0  0
    6.7908   -1.0259   25.6883 C   0  0  0  0  0  0  0  0  0  0  0  0
    6.6416   -0.6571   26.9772 F   0  0  0  0  0  0  0  0  0  0  0  0
    5.5498   -1.1235   25.1765 F   0  0  0  0  0  0  0  0  0  0  0  0
    7.3993   -0.0013   25.0640 F   0  0  0  0  0  0  0  0  0  0  0  0
    9.1155   -1.7294   22.1850 C   0  0  0  0  0  0  0  0  0  0  0  0
   10.1300   -2.0876   22.3574 H   0  0  0  0  0  0  0  0  0  0  0  0
    8.7352   -1.0374   21.0088 C   0  0  0  0  0  0  0  0  0  0  0  0
    9.4263   -0.7802   20.2064 H   0  0  0  0  0  0  0  0  0  0  0  0
    5.4383    0.6506   20.1605 C   0  0  0  0  0  0  0  0  0  0  0  0
    5.0039    0.6397   21.1634 H   0  0  0  0  0  0  0  0  0  0  0  0
    4.8071    1.3092   19.1052 C   0  0  0  0  0  0  0  0  0  0  0  0
    3.8740    1.8433   19.2580 H   0  0  0  0  0  0  0  0  0  0  0  0
  1  2  1  0
  2  3  2  0
  3  4  1  0
  4  5  1  0
  4  6  2  0
  6  7  1  0
  7  8  1  0
  8  9  1  0
  9 10  1  0
 10 11  2  0
 11 12  1  0
 12 13  1  0
 12 14  2  0
 14 15  1  0
 14 16  1  0
 16 17  1  0
 16 18  2  0
 18 19  1  0
 19 20  1  0
 19 21  1  0
 19 22  1  0
  9 23  2  0
 23 24  1  0
 23 25  1  0
 25 26  1  0
  6 27  1  0
 27 28  1  0
 27 29  2  0
 29 30  1  0
 29  2  1  0
 25  7  2  0
 18 10  1  0
M  END
>  <cnnaffinity>  (1) 
-5.30144

>  <filename>  (1) 
FC(F)(F)c1cccnc1-c1ccc(-c2cccnc2)s1

$$$$
