
     RDKit          3D

 32 34  0  0  0  0  0  0  0  0999 V2000
    4.9258    1.7754   17.0029 H   0  0  0  0  0  0  0  0  0  0  0  0
    5.4064    1.2850   17.8473 C   0  0  0  0  0  0  0  0  0  0  0  0
    6.5670    0.6660   17.5881 N   0  0  0  0  0  0  0  0  0  0  0  0
    7.1890    0.0650   18.6080 C   0  0  0  0  0  0  0  0  0  0  0  0
    8.1307   -0.4212   18.3712 H   0  0  0  0  0  0  0  0  0  0  0  0
    6.6796    0.0140   19.9144 C   0  0  0  0  0  0  0  0  0  0  0  0
    7.4372   -0.7114   20.9580 C   0  0  0  0  0  0  0  0  0  0  0  0
    8.7759   -0.6913   20.8870 N   0  0  0  0  0  0  0  0  0  0  0  0
    9.4444   -1.3026   21.8713 C   0  0  0  0  0  0  0  0  0  0  0  0
   10.5256   -1.2588   21.8083 H   0  0  0  0  0  0  0  0  0  0  0  0
    8.8433   -1.9958   22.9280 C   0  0  0  0  0  0  0  0  0  0  0  0
    9.4663   -2.4784   23.6708 H   0  0  0  0  0  0  0  0  0  0  0  0
    7.4475   -2.0663   22.9832 C   0  0  0  0  0  0  0  0  0  0  0  0
    6.7175   -2.7949   24.0826 C   0  0  0  0  0  0  0  0  0  0  0  0
    5.9536   -2.0268   24.8684 N   0  0  0  0  0  0  0  0  0  0  0  0
    5.3299   -2.5967   25.8985 C   0  0  0  0  0  0  0  0  0  0  0  0
    4.7291   -1.9296   26.5106 H   0  0  0  0  0  0  0  0  0  0  0  0
    5.4180   -3.9589   26.1880 C   0  0  0  0  0  0  0  0  0  0  0  0
    4.8846   -4.3667   27.0356 H   0  0  0  0  0  0  0  0  0  0  0  0
    6.1785   -4.7747   25.3647 C   0  0  0  0  0  0  0  0  0  0  0  0
    6.2671   -5.8471   25.5559 H   0  0  0  0  0  0  0  0  0  0  0  0
    6.8219   -4.1856   24.2697 C   0  0  0  0  0  0  0  0  0  0  0  0
    7.6377   -5.0315   23.3282 C   0  0  0  0  0  0  0  0  0  0  0  0
    7.5389   -4.6488   22.0424 F   0  0  0  0  0  0  0  0  0  0  0  0
    7.2695   -6.3222   23.3731 F   0  0  0  0  0  0  0  0  0  0  0  0
    8.9503   -4.9862   23.6446 F   0  0  0  0  0  0  0  0  0  0  0  0
    6.7529   -1.4016   21.9708 C   0  0  0  0  0  0  0  0  0  0  0  0
    5.6770   -1.4211   21.9248 H   0  0  0  0  0  0  0  0  0  0  0  0
    5.4494    0.6470   20.1639 C   0  0  0  0  0  0  0  0  0  0  0  0
    5.0059    0.6436   21.1632 H   0  0  0  0  0  0  0  0  0  0  0  0
    4.8136    1.3062   19.1136 C   0  0  0  0  0  0  0  0  0  0  0  0
    3.8813    1.8367   19.2604 H   0  0  0  0  0  0  0  0  0  0  0  0
  1  2  1  0
  2  3  2  0
  3  4  1  0
  4  5  1  0
  4  6  2  0
  6  7  1  0
  7  8  2  0
  8  9  1  0
  9 10  1  0
  9 11  2  0
 11 12  1  0
 11 13  1  0
 13 14  1  0
 14 15  2  0
 15 16  1  0
 16 17  1  0
 16 18  2  0
 18 19  1  0
 18 20  1  0
 20 21  1  0
 20 22  2  0
 22 23  1  0
 23 24  1  0
 23 25  1  0
 23 26  1  0
 13 27  2  0
 27 28  1  0
  6 29  1  0
 29 30  1  0
 29 31  2  0
 31 32  1  0
 31  2  1  0
 27  7  1  0
 22 14  1  0
M  END
>  <cnnaffinity>  (1) 
-6.16289

>  <filename>  (1) 
FC(F)(F)c1cccnc1-c1ccnc(-c2cccnc2)c1

$$$$
