
     RDKit          3D

 34 37  0  0  0  0  0  0  0  0999 V2000
    4.9956    1.8420   16.9202 H   0  0  0  0  0  0  0  0  0  0  0  0
    5.3893    1.3072   17.7832 C   0  0  0  0  0  0  0  0  0  0  0  0
    6.5432    0.6459   17.5966 N   0  0  0  0  0  0  0  0  0  0  0  0
    7.0698    0.0248   18.6618 C   0  0  0  0  0  0  0  0  0  0  0  0
    8.0087   -0.4959   18.4762 H   0  0  0  0  0  0  0  0  0  0  0  0
    6.4871   -0.0056   19.9482 C   0  0  0  0  0  0  0  0  0  0  0  0
    7.2408   -0.6164   21.0656 C   0  0  0  0  0  0  0  0  0  0  0  0
    8.5976   -0.5566   21.2985 C   0  0  0  0  0  0  0  0  0  0  0  0
    8.8138   -1.1541   22.5294 C   0  0  0  0  0  0  0  0  0  0  0  0
    7.7021   -1.6140   23.0741 N   0  0  0  0  0  0  0  0  0  0  0  0
    6.7477   -1.2664   22.1686 N   0  0  0  0  0  0  0  0  0  0  0  0
    5.7895   -1.5238   22.3739 H   0  0  0  0  0  0  0  0  0  0  0  0
   10.2490   -1.1093   22.9554 C   0  0  0  0  0  0  0  0  0  0  0  0
   10.6608   -2.1200   23.0281 H   0  0  0  0  0  0  0  0  0  0  0  0
   10.3829   -0.6409   23.9359 H   0  0  0  0  0  0  0  0  0  0  0  0
   10.9363   -0.2781   21.8158 C   0  0  2  0  0  0  0  0  0  0  0  0
   11.7485   -0.8831   21.4059 H   0  0  0  0  0  0  0  0  0  0  0  0
   11.4980    1.0330   22.3242 C   0  0  0  0  0  0  0  0  0  0  0  0
   12.8721    1.3305   22.3190 C   0  0  0  0  0  0  0  0  0  0  0  0
   13.5747    0.5935   21.9350 H   0  0  0  0  0  0  0  0  0  0  0  0
   13.4012    2.4803   22.7608 N   0  0  0  0  0  0  0  0  0  0  0  0
   12.5604    3.4066   23.2349 C   0  0  0  0  0  0  0  0  0  0  0  0
   12.9788    4.3517   23.5847 H   0  0  0  0  0  0  0  0  0  0  0  0
   11.1809    3.1890   23.3043 C   0  0  0  0  0  0  0  0  0  0  0  0
   10.3856    4.1349   23.8209 F   0  0  0  0  0  0  0  0  0  0  0  0
   10.6256    2.0001   22.8491 C   0  0  0  0  0  0  0  0  0  0  0  0
    9.5478    1.8356   22.9039 H   0  0  0  0  0  0  0  0  0  0  0  0
    9.8632   -0.0627   20.6958 C   0  0  0  0  0  0  0  0  0  0  0  0
   10.1208   -0.6502   19.8136 H   0  0  0  0  0  0  0  0  0  0  0  0
    9.7892    0.9802   20.3669 H   0  0  0  0  0  0  0  0  0  0  0  0
    5.2608    0.6659   20.1087 C   0  0  0  0  0  0  0  0  0  0  0  0
    4.7619    0.7047   21.0807 H   0  0  0  0  0  0  0  0  0  0  0  0
    4.7175    1.3355   19.0114 C   0  0  0  0  0  0  0  0  0  0  0  0
    3.8013    1.9089   19.0947 H   0  0  0  0  0  0  0  0  0  0  0  0
  1  2  1  0
  2  3  2  0
  3  4  1  0
  4  5  1  0
  4  6  2  0
  6  7  1  0
  7  8  2  0
  8  9  1  0
  9 10  2  0
 10 11  1  0
 11 12  1  0
  9 13  1  0
 13 14  1  0
 13 15  1  0
 13 16  1  0
 16 17  1  6
 16 18  1  0
 18 19  2  0
 19 20  1  0
 19 21  1  0
 21 22  2  0
 22 23  1  0
 22 24  1  0
 24 25  1  0
 24 26  2  0
 26 27  1  0
 16 28  1  0
 28 29  1  0
 28 30  1  0
  6 31  1  0
 31 32  1  0
 31 33  2  0
 33 34  1  0
 33  2  1  0
 11  7  1  0
 26 18  1  0
 28  8  1  0
M  END
>  <cnnaffinity>  (1) 
-5.75317

>  <filename>  (1) 
Fc1cncc([C@H]2Cc3n[nH]c(-c4cccnc4)c3C2)c1

$$$$
