
     RDKit          3D

 35 38  0  0  0  0  0  0  0  0999 V2000
    5.0296    1.8265   16.9016 H   0  0  0  0  0  0  0  0  0  0  0  0
    5.4011    1.3032   17.7810 C   0  0  0  0  0  0  0  0  0  0  0  0
    6.5483    0.6262   17.6266 N   0  0  0  0  0  0  0  0  0  0  0  0
    7.0401    0.0109   18.7094 C   0  0  0  0  0  0  0  0  0  0  0  0
    7.9657   -0.5394   18.5557 H   0  0  0  0  0  0  0  0  0  0  0  0
    6.4382    0.0108   19.9814 C   0  0  0  0  0  0  0  0  0  0  0  0
    7.2096   -0.5735   21.1007 C   0  0  0  0  0  0  0  0  0  0  0  0
    8.5690   -0.5203   21.3350 C   0  0  0  0  0  0  0  0  0  0  0  0
    8.7773   -1.1283   22.5642 C   0  0  0  0  0  0  0  0  0  0  0  0
    7.6614   -1.5906   23.0978 N   0  0  0  0  0  0  0  0  0  0  0  0
    6.7095   -1.2314   22.1921 N   0  0  0  0  0  0  0  0  0  0  0  0
    5.7622   -1.5564   22.3364 H   0  0  0  0  0  0  0  0  0  0  0  0
   10.2233   -1.1477   22.9676 C   0  0  0  0  0  0  0  0  0  0  0  0
   10.3621   -0.7367   23.9715 H   0  0  0  0  0  0  0  0  0  0  0  0
   10.6121   -2.1722   22.9909 H   0  0  0  0  0  0  0  0  0  0  0  0
   10.9250   -0.2905   21.8516 C   0  0  2  0  0  0  0  0  0  0  0  0
   11.7660   -0.8600   21.4438 H   0  0  0  0  0  0  0  0  0  0  0  0
   11.4634    1.0322   22.3751 C   0  0  0  0  0  0  0  0  0  0  0  0
   12.8293    1.3621   22.3044 C   0  0  0  0  0  0  0  0  0  0  0  0
   13.5794    0.6717   21.9313 H   0  0  0  0  0  0  0  0  0  0  0  0
   13.2390    2.6283   22.7136 C   0  0  0  0  0  0  0  0  0  0  0  0
   14.5170    2.9953   22.5497 F   0  0  0  0  0  0  0  0  0  0  0  0
   12.3677    3.5602   23.2584 C   0  0  0  0  0  0  0  0  0  0  0  0
   12.7250    4.5288   23.5802 H   0  0  0  0  0  0  0  0  0  0  0  0
   11.0287    3.2013   23.3476 C   0  0  0  0  0  0  0  0  0  0  0  0
   10.1661    4.0814   23.8790 F   0  0  0  0  0  0  0  0  0  0  0  0
   10.5588    1.9709   22.9000 C   0  0  0  0  0  0  0  0  0  0  0  0
    9.4942    1.7661   22.9509 H   0  0  0  0  0  0  0  0  0  0  0  0
    9.8513   -0.0666   20.7220 C   0  0  0  0  0  0  0  0  0  0  0  0
    9.8120    0.9749   20.3748 H   0  0  0  0  0  0  0  0  0  0  0  0
   10.0820   -0.6730   19.8422 H   0  0  0  0  0  0  0  0  0  0  0  0
    5.2066    0.6796   20.1045 C   0  0  0  0  0  0  0  0  0  0  0  0
    4.6810    0.6977   21.0602 H   0  0  0  0  0  0  0  0  0  0  0  0
    4.6931    1.3464   18.9881 C   0  0  0  0  0  0  0  0  0  0  0  0
    3.7713    1.9145   19.0462 H   0  0  0  0  0  0  0  0  0  0  0  0
  1  2  1  0
  2  3  2  0
  3  4  1  0
  4  5  1  0
  4  6  2  0
  6  7  1  0
  7  8  2  0
  8  9  1  0
  9 10  2  0
 10 11  1  0
 11 12  1  0
  9 13  1  0
 13 14  1  0
 13 15  1  0
 13 16  1  0
 16 17  1  6
 16 18  1  0
 18 19  2  0
 19 20  1  0
 19 21  1  0
 21 22  1  0
 21 23  2  0
 23 24  1  0
 23 25  1  0
 25 26  1  0
 25 27  2  0
 27 28  1  0
 16 29  1  0
 29 30  1  0
 29 31  1  0
  6 32  1  0
 32 33  1  0
 32 34  2  0
 34 35  1  0
 34  2  1  0
 11  7  1  0
 27 18  1  0
 29  8  1  0
M  END
>  <cnnaffinity>  (1) 
-5.38018

>  <filename>  (1) 
Fc1cc(F)cc([C@H]2Cc3n[nH]c(-c4cccnc4)c3C2)c1

$$$$
