
     RDKit          3D

 31 33  0  0  0  0  0  0  0  0999 V2000
    4.9250    1.7999   16.9789 H   0  0  0  0  0  0  0  0  0  0  0  0
    5.3911    1.3031   17.8295 C   0  0  0  0  0  0  0  0  0  0  0  0
    6.5522    0.6834   17.5731 N   0  0  0  0  0  0  0  0  0  0  0  0
    7.1473    0.0585   18.5972 C   0  0  0  0  0  0  0  0  0  0  0  0
    8.0978   -0.4167   18.3575 H   0  0  0  0  0  0  0  0  0  0  0  0
    6.6308   -0.0152   19.9024 C   0  0  0  0  0  0  0  0  0  0  0  0
    7.4170   -0.7007   21.0044 C   0  0  0  0  0  0  0  0  0  0  0  0
    7.8249   -1.6576   20.6575 H   0  0  0  0  0  0  0  0  0  0  0  0
    6.7566   -0.9405   21.8464 H   0  0  0  0  0  0  0  0  0  0  0  0
    8.5580    0.1703   21.4699 C   0  0  0  0  0  0  0  0  0  0  0  0
    9.9234    0.1130   21.1124 C   0  0  0  0  0  0  0  0  0  0  0  0
   10.4313   -0.6385   20.5173 H   0  0  0  0  0  0  0  0  0  0  0  0
   10.6046    1.1620   21.5539 N   0  0  0  0  0  0  0  0  0  0  0  0
    9.6869    1.9063   22.1937 N   0  0  0  0  0  0  0  0  0  0  0  0
    9.9520    2.7774   22.6300 H   0  0  0  0  0  0  0  0  0  0  0  0
    8.4407    1.3559   22.1776 C   0  0  0  0  0  0  0  0  0  0  0  0
    7.2457    2.0000   22.7776 C   0  0  0  0  0  0  0  0  0  0  0  0
    6.4088    1.3457   23.6978 C   0  0  0  0  0  0  0  0  0  0  0  0
    6.7447    0.1135   24.1380 F   0  0  0  0  0  0  0  0  0  0  0  0
    5.2386    1.9043   24.2164 C   0  0  0  0  0  0  0  0  0  0  0  0
    4.6827    1.3164   24.9385 H   0  0  0  0  0  0  0  0  0  0  0  0
    4.8473    3.1785   23.7883 C   0  0  0  0  0  0  0  0  0  0  0  0
    3.9440    3.6440   24.1845 H   0  0  0  0  0  0  0  0  0  0  0  0
    5.6408    3.8770   22.8717 C   0  0  0  0  0  0  0  0  0  0  0  0
    5.4083    4.8687   22.4917 H   0  0  0  0  0  0  0  0  0  0  0  0
    6.8258    3.2976   22.4300 C   0  0  0  0  0  0  0  0  0  0  0  0
    7.6177    4.0533   21.6501 F   0  0  0  0  0  0  0  0  0  0  0  0
    5.4243    0.6501   20.1459 C   0  0  0  0  0  0  0  0  0  0  0  0
    5.0118    0.6482   21.1582 H   0  0  0  0  0  0  0  0  0  0  0  0
    4.7936    1.3207   19.0929 C   0  0  0  0  0  0  0  0  0  0  0  0
    3.8643    1.8553   19.2322 H   0  0  0  0  0  0  0  0  0  0  0  0
  1  2  1  0
  2  3  2  0
  3  4  1  0
  4  5  1  0
  4  6  2  0
  6  7  1  0
  7  8  1  0
  7  9  1  0
  7 10  1  0
 10 11  1  0
 11 12  1  0
 11 13  2  0
 13 14  1  0
 14 15  1  0
 14 16  1  0
 16 17  1  0
 17 18  2  0
 18 19  1  0
 18 20  1  0
 20 21  1  0
 20 22  2  0
 22 23  1  0
 22 24  1  0
 24 25  1  0
 24 26  2  0
 26 27  1  0
  6 28  1  0
 28 29  1  0
 28 30  2  0
 30 31  1  0
 30  2  1  0
 16 10  2  0
 26 17  1  0
M  END
>  <cnnaffinity>  (1) 
-5.09087

>  <filename>  (1) 
Fc1cccc(F)c1-c1[nH]ncc1Cc1cccnc1

$$$$
