
     RDKit          3D

 35 38  0  0  0  0  0  0  0  0999 V2000
    4.9478    1.8194   16.9773 H   0  0  0  0  0  0  0  0  0  0  0  0
    5.4021    1.2958   17.8148 C   0  0  0  0  0  0  0  0  0  0  0  0
    6.5625    0.6679   17.5613 N   0  0  0  0  0  0  0  0  0  0  0  0
    7.1512    0.0226   18.5698 C   0  0  0  0  0  0  0  0  0  0  0  0
    8.1052   -0.4508   18.3362 H   0  0  0  0  0  0  0  0  0  0  0  0
    6.6231   -0.0295   19.8719 C   0  0  0  0  0  0  0  0  0  0  0  0
    7.3576   -0.6924   20.9518 C   0  0  0  0  0  0  0  0  0  0  0  0
    8.0804   -1.7894   20.7321 N   0  0  0  0  0  0  0  0  0  0  0  0
    8.5577   -2.0896   21.9384 N   0  0  0  0  0  0  0  0  0  0  0  0
    8.2295   -1.2577   22.9200 C   0  0  0  0  0  0  0  0  0  0  0  0
    7.4481   -0.2897   22.3223 C   0  0  0  0  0  0  0  0  0  0  0  0
    7.0855    0.9573   22.9704 C   0  0  0  0  0  0  0  0  0  0  0  0
    6.6088    0.9131   24.2852 C   0  0  0  0  0  0  0  0  0  0  0  0
    6.4649   -0.0297   24.8042 H   0  0  0  0  0  0  0  0  0  0  0  0
    6.3008    2.1056   24.9133 C   0  0  0  0  0  0  0  0  0  0  0  0
    5.8258    2.0750   26.1678 F   0  0  0  0  0  0  0  0  0  0  0  0
    6.4729    3.3355   24.2858 C   0  0  0  0  0  0  0  0  0  0  0  0
    6.2216    4.2550   24.7870 H   0  0  0  0  0  0  0  0  0  0  0  0
    6.9735    3.3445   22.9870 C   0  0  0  0  0  0  0  0  0  0  0  0
    7.1545    4.5186   22.3653 F   0  0  0  0  0  0  0  0  0  0  0  0
    7.2886    2.1796   22.3134 C   0  0  0  0  0  0  0  0  0  0  0  0
    7.6789    2.2201   21.3029 H   0  0  0  0  0  0  0  0  0  0  0  0
    9.0708   -1.5033   24.1517 C   0  0  0  0  0  0  0  0  0  0  0  0
    9.6712   -0.6095   24.3637 H   0  0  0  0  0  0  0  0  0  0  0  0
    8.4667   -1.7027   25.0450 H   0  0  0  0  0  0  0  0  0  0  0  0
    9.9415   -2.7227   23.7267 C   0  0  0  0  0  0  0  0  0  0  0  0
    9.7587   -3.5978   24.3494 H   0  0  0  0  0  0  0  0  0  0  0  0
   11.0034   -2.4994   23.7809 H   0  0  0  0  0  0  0  0  0  0  0  0
    9.5673   -3.0533   22.2570 C   0  0  0  0  0  0  0  0  0  0  0  0
   10.3991   -2.8948   21.5676 H   0  0  0  0  0  0  0  0  0  0  0  0
    9.1396   -4.0519   22.1491 H   0  0  0  0  0  0  0  0  0  0  0  0
    5.4076    0.6272   20.1189 C   0  0  0  0  0  0  0  0  0  0  0  0
    4.9893    0.6490   21.1275 H   0  0  0  0  0  0  0  0  0  0  0  0
    4.7890    1.2988   19.0718 C   0  0  0  0  0  0  0  0  0  0  0  0
    3.8640    1.8460   19.2241 H   0  0  0  0  0  0  0  0  0  0  0  0
  1  2  1  0
  2  3  2  0
  3  4  1  0
  4  5  1  0
  4  6  2  0
  6  7  1  0
  7  8  2  0
  8  9  1  0
  9 10  1  0
 10 11  2  0
 11 12  1  0
 12 13  2  0
 13 14  1  0
 13 15  1  0
 15 16  1  0
 15 17  2  0
 17 18  1  0
 17 19  1  0
 19 20  1  0
 19 21  2  0
 21 22  1  0
 10 23  1  0
 23 24  1  0
 23 25  1  0
 23 26  1  0
 26 27  1  0
 26 28  1  0
 26 29  1  0
 29 30  1  0
 29 31  1  0
  6 32  1  0
 32 33  1  0
 32 34  2  0
 34 35  1  0
 34  2  1  0
 11  7  1  0
 21 12  1  0
 29  9  1  0
M  END
>  <cnnaffinity>  (1) 
-5.68809

>  <filename>  (1) 
Fc1cc(F)cc(-c2c(-c3cccnc3)nn3c2CCC3)c1

$$$$
