
     RDKit          3D

 28 30  0  0  0  0  0  0  0  0999 V2000
    4.9645    1.8438   17.0016 H   0  0  0  0  0  0  0  0  0  0  0  0
    5.4287    1.2968   17.8215 C   0  0  0  0  0  0  0  0  0  0  0  0
    6.5766    0.6571   17.5458 N   0  0  0  0  0  0  0  0  0  0  0  0
    7.1853   -0.0010   18.5425 C   0  0  0  0  0  0  0  0  0  0  0  0
    8.1030   -0.5288   18.2878 H   0  0  0  0  0  0  0  0  0  0  0  0
    6.6844   -0.0444   19.8602 C   0  0  0  0  0  0  0  0  0  0  0  0
    7.3394   -0.7769   20.9241 N   0  0  0  0  0  0  0  0  0  0  0  0
    8.2941   -0.3709   21.8691 C   0  0  0  0  0  0  0  0  0  0  0  0
    8.8186    1.0010   22.1151 C   0  0  0  0  0  0  0  0  0  0  0  0
    8.2591    2.1623   21.5463 C   0  0  0  0  0  0  0  0  0  0  0  0
    7.4777    2.0997   20.7935 H   0  0  0  0  0  0  0  0  0  0  0  0
    8.7055    3.4263   21.9279 C   0  0  0  0  0  0  0  0  0  0  0  0
    8.2471    4.3253   21.5285 H   0  0  0  0  0  0  0  0  0  0  0  0
    9.7677    3.5379   22.8180 C   0  0  0  0  0  0  0  0  0  0  0  0
   10.2019    4.7631   23.1576 F   0  0  0  0  0  0  0  0  0  0  0  0
   10.4024    2.4189   23.3452 C   0  0  0  0  0  0  0  0  0  0  0  0
   11.2845    2.5480   23.9692 H   0  0  0  0  0  0  0  0  0  0  0  0
    9.9032    1.1583   23.0146 C   0  0  0  0  0  0  0  0  0  0  0  0
   10.3480    0.2886   23.4919 H   0  0  0  0  0  0  0  0  0  0  0  0
    8.6560   -1.3862   22.6071 N   0  0  0  0  0  0  0  0  0  0  0  0
    7.9103   -2.4254   22.1607 N   0  0  0  0  0  0  0  0  0  0  0  0
    7.8761   -3.3242   22.6231 H   0  0  0  0  0  0  0  0  0  0  0  0
    7.0414   -2.1096   21.1881 C   0  0  0  0  0  0  0  0  0  0  0  0
    5.9009   -3.1285   20.5389 S   0  0  0  0  0  0  0  0  0  0  0  0
    5.4634    0.5743   20.1214 C   0  0  0  0  0  0  0  0  0  0  0  0
    5.0461    0.5237   21.1281 H   0  0  0  0  0  0  0  0  0  0  0  0
    4.8331    1.2734   19.0852 C   0  0  0  0  0  0  0  0  0  0  0  0
    3.9090    1.8098   19.2565 H   0  0  0  0  0  0  0  0  0  0  0  0
  1  2  1  0
  2  3  2  0
  3  4  1  0
  4  5  1  0
  4  6  2  0
  6  7  1  0
  7  8  1  0
  8  9  1  0
  9 10  2  0
 10 11  1  0
 10 12  1  0
 12 13  1  0
 12 14  2  0
 14 15  1  0
 14 16  1  0
 16 17  1  0
 16 18  2  0
 18 19  1  0
  8 20  2  0
 20 21  1  0
 21 22  1  0
 21 23  1  0
 23 24  2  0
  6 25  1  0
 25 26  1  0
 25 27  2  0
 27 28  1  0
 27  2  1  0
 23  7  1  0
 18  9  1  0
M  END
>  <cnnaffinity>  (1) 
-4.95685

>  <filename>  (1) 
Fc1ccc(-c2n[nH]c(=S)n2-c2cccnc2)cc1

$$$$
