
     RDKit          3D

 36 39  0  0  0  0  0  0  0  0999 V2000
    4.9560    1.8284   16.9637 H   0  0  0  0  0  0  0  0  0  0  0  0
    5.3965    1.2960   17.8043 C   0  0  0  0  0  0  0  0  0  0  0  0
    6.5456    0.6450   17.5624 N   0  0  0  0  0  0  0  0  0  0  0  0
    7.1257    0.0050   18.5806 C   0  0  0  0  0  0  0  0  0  0  0  0
    8.0648   -0.4989   18.3582 H   0  0  0  0  0  0  0  0  0  0  0  0
    6.6163   -0.0053   19.8874 C   0  0  0  0  0  0  0  0  0  0  0  0
    7.3934   -0.6530   20.9415 C   0  0  0  0  0  0  0  0  0  0  0  0
    7.8865   -1.9319   20.8020 N   0  0  0  0  0  0  0  0  0  0  0  0
    8.4745   -2.1625   21.9403 C   0  0  0  0  0  0  0  0  0  0  0  0
    8.5003   -1.0797   22.7578 N   0  0  0  0  0  0  0  0  0  0  0  0
    7.7642   -0.1005   22.1575 C   0  0  0  0  0  0  0  0  0  0  0  0
    7.5682    1.2361   22.8083 C   0  0  0  0  0  0  0  0  0  0  0  0
    6.9063    1.8242   22.1704 H   0  0  0  0  0  0  0  0  0  0  0  0
    8.5279    1.7673   22.8122 H   0  0  0  0  0  0  0  0  0  0  0  0
    6.9982    1.1898   24.2225 C   0  0  0  0  0  0  0  0  0  0  0  0
    7.7645    1.5367   25.3477 C   0  0  0  0  0  0  0  0  0  0  0  0
    8.7897    1.8783   25.2245 H   0  0  0  0  0  0  0  0  0  0  0  0
    7.2223    1.4642   26.6361 C   0  0  0  0  0  0  0  0  0  0  0  0
    7.8149    1.7736   27.4929 H   0  0  0  0  0  0  0  0  0  0  0  0
    5.9128    1.0140   26.8241 C   0  0  0  0  0  0  0  0  0  0  0  0
    5.4568    0.9433   27.8038 H   0  0  0  0  0  0  0  0  0  0  0  0
    5.1620    0.6719   25.7050 C   0  0  0  0  0  0  0  0  0  0  0  0
    3.9064    0.2243   25.8790 F   0  0  0  0  0  0  0  0  0  0  0  0
    5.6670    0.7914   24.4150 C   0  0  0  0  0  0  0  0  0  0  0  0
    5.0012    0.6079   23.5797 H   0  0  0  0  0  0  0  0  0  0  0  0
    9.2369   -1.1866   23.9978 C   0  0  0  0  0  0  0  0  0  0  0  0
    8.5408   -1.3407   24.8269 H   0  0  0  0  0  0  0  0  0  0  0  0
    9.8035   -0.2724   24.1922 H   0  0  0  0  0  0  0  0  0  0  0  0
   10.1580   -2.3965   23.7774 C   0  0  0  0  0  0  0  0  0  0  0  0
   10.4624   -2.8933   24.7029 H   0  0  0  0  0  0  0  0  0  0  0  0
   11.0441   -2.1077   23.2058 H   0  0  0  0  0  0  0  0  0  0  0  0
    9.2136   -3.5524   22.7192 S   0  0  0  0  0  0  0  0  0  0  0  0
    5.3984    0.6578   20.1165 C   0  0  0  0  0  0  0  0  0  0  0  0
    4.9420    0.6598   21.1070 H   0  0  0  0  0  0  0  0  0  0  0  0
    4.7766    1.3123   19.0571 C   0  0  0  0  0  0  0  0  0  0  0  0
    3.8528    1.8595   19.1972 H   0  0  0  0  0  0  0  0  0  0  0  0
  1  2  1  0
  2  3  2  0
  3  4  1  0
  4  5  1  0
  4  6  2  0
  6  7  1  0
  7  8  1  0
  8  9  2  0
  9 10  1  0
 10 11  1  0
 11 12  1  0
 12 13  1  0
 12 14  1  0
 12 15  1  0
 15 16  2  0
 16 17  1  0
 16 18  1  0
 18 19  1  0
 18 20  2  0
 20 21  1  0
 20 22  1  0
 22 23  1  0
 22 24  2  0
 24 25  1  0
 10 26  1  0
 26 27  1  0
 26 28  1  0
 26 29  1  0
 29 30  1  0
 29 31  1  0
 29 32  1  0
  6 33  1  0
 33 34  1  0
 33 35  2  0
 35 36  1  0
 35  2  1  0
 11  7  2  0
 24 15  1  0
 32  9  1  0
M  END
>  <cnnaffinity>  (1) 
-5.49656

>  <filename>  (1) 
Fc1cccc(Cc2c(-c3cccnc3)nc3n2CCS3)c1

$$$$
