
     RDKit          3D

 28 30  0  0  0  0  0  0  0  0999 V2000
    4.9209    1.8108   16.9646 H   0  0  0  0  0  0  0  0  0  0  0  0
    5.3850    1.3056   17.8128 C   0  0  0  0  0  0  0  0  0  0  0  0
    6.5463    0.6849   17.5558 N   0  0  0  0  0  0  0  0  0  0  0  0
    7.1627    0.0748   18.5767 C   0  0  0  0  0  0  0  0  0  0  0  0
    8.0998   -0.4178   18.3238 H   0  0  0  0  0  0  0  0  0  0  0  0
    6.6711    0.0242   19.8925 C   0  0  0  0  0  0  0  0  0  0  0  0
    7.4064   -0.6962   20.9639 C   0  0  0  0  0  0  0  0  0  0  0  0
    8.7653   -0.7780   21.0805 C   0  0  0  0  0  0  0  0  0  0  0  0
    9.4937   -0.3145   20.4334 H   0  0  0  0  0  0  0  0  0  0  0  0
    9.2571   -1.7050   22.4422 S   0  0  0  0  0  0  0  0  0  0  0  0
    7.6091   -1.9992   22.9183 C   0  0  0  0  0  0  0  0  0  0  0  0
    7.2277   -2.7639   24.1236 C   0  0  0  0  0  0  0  0  0  0  0  0
    6.0015   -2.5219   24.7742 C   0  0  0  0  0  0  0  0  0  0  0  0
    5.3781   -1.7147   24.4123 H   0  0  0  0  0  0  0  0  0  0  0  0
    5.6024   -3.2444   25.8992 C   0  0  0  0  0  0  0  0  0  0  0  0
    4.6382   -3.0253   26.3495 H   0  0  0  0  0  0  0  0  0  0  0  0
    6.4465   -4.2251   26.4336 C   0  0  0  0  0  0  0  0  0  0  0  0
    6.1540   -4.7788   27.3260 H   0  0  0  0  0  0  0  0  0  0  0  0
    7.6800   -4.4791   25.8216 C   0  0  0  0  0  0  0  0  0  0  0  0
    8.3874   -5.2129   26.1927 H   0  0  0  0  0  0  0  0  0  0  0  0
    8.0491   -3.7582   24.6867 C   0  0  0  0  0  0  0  0  0  0  0  0
    9.2324   -4.0246   24.1243 F   0  0  0  0  0  0  0  0  0  0  0  0
    6.7672   -1.4200   22.0108 C   0  0  0  0  0  0  0  0  0  0  0  0
    5.6972   -1.5587   22.0081 H   0  0  0  0  0  0  0  0  0  0  0  0
    5.4431    0.6644   20.1332 C   0  0  0  0  0  0  0  0  0  0  0  0
    5.0252    0.6554   21.1408 H   0  0  0  0  0  0  0  0  0  0  0  0
    4.7974    1.3191   19.0830 C   0  0  0  0  0  0  0  0  0  0  0  0
    3.8642    1.8485   19.2287 H   0  0  0  0  0  0  0  0  0  0  0  0
  1  2  1  0
  2  3  2  0
  3  4  1  0
  4  5  1  0
  4  6  2  0
  6  7  1  0
  7  8  2  0
  8  9  1  0
  8 10  1  0
 10 11  1  0
 11 12  1  0
 12 13  2  0
 13 14  1  0
 13 15  1  0
 15 16  1  0
 15 17  2  0
 17 18  1  0
 17 19  1  0
 19 20  1  0
 19 21  2  0
 21 22  1  0
 11 23  2  0
 23 24  1  0
  6 25  1  0
 25 26  1  0
 25 27  2  0
 27 28  1  0
 27  2  1  0
 23  7  1  0
 21 12  1  0
M  END
>  <cnnaffinity>  (1) 
-5.02932

>  <filename>  (1) 
Fc1ccccc1-c1cc(-c2cccnc2)cs1

$$$$
