
     RDKit          3D

 28 31  0  0  0  0  0  0  0  0999 V2000
    4.9160    1.7754   17.0023 H   0  0  0  0  0  0  0  0  0  0  0  0
    5.4044    1.2899   17.8431 C   0  0  0  0  0  0  0  0  0  0  0  0
    6.5699    0.6779   17.5780 N   0  0  0  0  0  0  0  0  0  0  0  0
    7.1751    0.0566   18.5905 C   0  0  0  0  0  0  0  0  0  0  0  0
    8.1247   -0.4346   18.3744 H   0  0  0  0  0  0  0  0  0  0  0  0
    6.6478    0.0112   19.8916 C   0  0  0  0  0  0  0  0  0  0  0  0
    7.4024   -0.6997   20.9195 C   0  0  0  0  0  0  0  0  0  0  0  0
    8.3289   -1.6005   20.7017 N   0  0  0  0  0  0  0  0  0  0  0  0
    8.8280   -2.0326   21.9094 N   0  0  0  0  0  0  0  0  0  0  0  0
    8.1922   -1.3494   22.8224 C   0  0  0  0  0  0  0  0  0  0  0  0
    8.2568   -1.0891   24.5379 S   0  0  0  0  0  0  0  0  0  0  0  0
    7.0273    0.1807   24.3255 C   0  0  0  0  0  0  0  0  0  0  0  0
    6.5472    0.9563   25.4845 C   0  0  0  0  0  0  0  0  0  0  0  0
    5.5798    1.9609   25.2931 C   0  0  0  0  0  0  0  0  0  0  0  0
    5.1895    2.1621   24.3022 H   0  0  0  0  0  0  0  0  0  0  0  0
    5.0978    2.7049   26.2976 N   0  0  0  0  0  0  0  0  0  0  0  0
    5.5552    2.4882   27.5370 C   0  0  0  0  0  0  0  0  0  0  0  0
    5.1587    3.0977   28.3455 H   0  0  0  0  0  0  0  0  0  0  0  0
    6.5168    1.5103   27.8125 C   0  0  0  0  0  0  0  0  0  0  0  0
    6.9450    1.3275   29.0671 F   0  0  0  0  0  0  0  0  0  0  0  0
    7.0285    0.7277   26.7902 C   0  0  0  0  0  0  0  0  0  0  0  0
    7.7768   -0.0273   27.0260 H   0  0  0  0  0  0  0  0  0  0  0  0
    6.6137    0.3647   23.1109 N   0  0  0  0  0  0  0  0  0  0  0  0
    7.2652   -0.5142   22.2824 N   0  0  0  0  0  0  0  0  0  0  0  0
    5.4332    0.6525   20.1621 C   0  0  0  0  0  0  0  0  0  0  0  0
    5.0092    0.6358   21.1695 H   0  0  0  0  0  0  0  0  0  0  0  0
    4.8046    1.3086   19.1090 C   0  0  0  0  0  0  0  0  0  0  0  0
    3.8739    1.8438   19.2617 H   0  0  0  0  0  0  0  0  0  0  0  0
  1  2  1  0
  2  3  2  0
  3  4  1  0
  4  5  1  0
  4  6  2  0
  6  7  1  0
  7  8  2  0
  8  9  1  0
  9 10  2  0
 10 11  1  0
 11 12  1  0
 12 13  1  0
 13 14  2  0
 14 15  1  0
 14 16  1  0
 16 17  2  0
 17 18  1  0
 17 19  1  0
 19 20  1  0
 19 21  2  0
 21 22  1  0
 12 23  2  0
 23 24  1  0
  6 25  1  0
 25 26  1  0
 25 27  2  0
 27 28  1  0
 27  2  1  0
 24  7  1  0
 24 10  1  0
 21 13  1  0
M  END
>  <cnnaffinity>  (1) 
-5.32172

>  <filename>  (1) 
Fc1cncc(-c2nn3c(-c4cccnc4)nnc3s2)c1

$$$$
