
     RDKit          3D

 32 34  0  0  0  0  0  0  0  0999 V2000
    9.3931    0.9038   20.3908 H   0  0  0  0  0  0  0  0  0  0  0  0
    9.6923    0.0758   21.0369 C   0  0  0  0  0  0  0  0  0  0  0  0
    8.7492   -0.8188   21.4023 C   0  0  0  0  0  0  0  0  0  0  0  0
    7.3067   -0.7829   21.0287 C   0  0  0  0  0  0  0  0  0  0  0  0
    6.6866    0.0083   19.9368 C   0  0  0  0  0  0  0  0  0  0  0  0
    7.2523    0.0413   18.6574 C   0  0  0  0  0  0  0  0  0  0  0  0
    8.1912   -0.4782   18.4634 H   0  0  0  0  0  0  0  0  0  0  0  0
    6.6962    0.6622   17.6076 N   0  0  0  0  0  0  0  0  0  0  0  0
    5.5303    1.2923   17.8151 C   0  0  0  0  0  0  0  0  0  0  0  0
    5.1003    1.8047   16.9564 H   0  0  0  0  0  0  0  0  0  0  0  0
    4.8741    1.3174   19.0528 C   0  0  0  0  0  0  0  0  0  0  0  0
    3.9289    1.8432   19.1512 H   0  0  0  0  0  0  0  0  0  0  0  0
    5.4507    0.6497   20.1301 C   0  0  0  0  0  0  0  0  0  0  0  0
    4.9470    0.5907   21.0980 H   0  0  0  0  0  0  0  0  0  0  0  0
    6.5695   -1.5384   21.7548 N   0  0  0  0  0  0  0  0  0  0  0  0
    7.3794   -2.1837   22.7806 C   0  0  0  0  0  0  0  0  0  0  0  0
    7.1278   -1.7389   23.7528 H   0  0  0  0  0  0  0  0  0  0  0  0
    7.1039   -3.2382   22.8272 H   0  0  0  0  0  0  0  0  0  0  0  0
    8.8666   -1.9466   22.4178 C   0  0  0  0  0  0  0  0  0  0  0  0
    9.3174   -2.8400   21.9759 H   0  0  0  0  0  0  0  0  0  0  0  0
    9.4740   -1.6599   23.2791 H   0  0  0  0  0  0  0  0  0  0  0  0
   11.1232    0.1000   21.4412 C   0  0  0  0  0  0  0  0  0  0  0  0
   11.9414   -1.0404   21.5605 C   0  0  0  0  0  0  0  0  0  0  0  0
   11.4048   -2.2353   21.2892 F   0  0  0  0  0  0  0  0  0  0  0  0
   13.2741   -1.0359   21.9589 C   0  0  0  0  0  0  0  0  0  0  0  0
   13.7930   -1.9860   22.0249 H   0  0  0  0  0  0  0  0  0  0  0  0
   13.8654    0.1780   22.2934 C   0  0  0  0  0  0  0  0  0  0  0  0
   14.9041    0.1998   22.6211 H   0  0  0  0  0  0  0  0  0  0  0  0
   13.1148    1.3568   22.2091 C   0  0  0  0  0  0  0  0  0  0  0  0
   13.5442    2.3191   22.4604 H   0  0  0  0  0  0  0  0  0  0  0  0
   11.7950    1.3012   21.7612 C   0  0  0  0  0  0  0  0  0  0  0  0
   11.1055    2.4558   21.7291 F   0  0  0  0  0  0  0  0  0  0  0  0
  1  2  1  0
  2  3  2  3
  3  4  1  0
  4  5  1  0
  5  6  2  0
  6  7  1  0
  6  8  1  0
  8  9  2  0
  9 10  1  0
  9 11  1  0
 11 12  1  0
 11 13  2  0
 13 14  1  0
  4 15  2  0
 15 16  1  0
 16 17  1  0
 16 18  1  0
 16 19  1  0
 19 20  1  0
 19 21  1  0
  2 22  1  0
 22 23  2  0
 23 24  1  0
 23 25  1  0
 25 26  1  0
 25 27  2  0
 27 28  1  0
 27 29  1  0
 29 30  1  0
 29 31  2  0
 31 32  1  0
 19  3  1  0
 31 22  1  0
 13  5  1  0
M  END
>  <cnnaffinity>  (1) 
-5.95237

>  <filename>  (1) 
Fc1cccc(F)c1C=C1CCN=C1c1cccnc1

$$$$
