
     RDKit          3D

 31 34  0  0  0  0  0  0  0  0999 V2000
    5.0361    1.8960   17.1223 H   0  0  0  0  0  0  0  0  0  0  0  0
    5.4934    1.2606   17.8804 C   0  0  0  0  0  0  0  0  0  0  0  0
    6.6129    0.6180   17.5153 N   0  0  0  0  0  0  0  0  0  0  0  0
    7.2283   -0.1308   18.4398 C   0  0  0  0  0  0  0  0  0  0  0  0
    8.1487   -0.6229   18.1185 H   0  0  0  0  0  0  0  0  0  0  0  0
    6.7514   -0.2942   19.7532 C   0  0  0  0  0  0  0  0  0  0  0  0
    7.5742   -0.9826   20.7609 C   0  0  0  0  0  0  0  0  0  0  0  0
    8.8665   -0.7162   21.0318 C   0  0  0  0  0  0  0  0  0  0  0  0
    9.5081   -0.0810   20.4354 H   0  0  0  0  0  0  0  0  0  0  0  0
    9.4124   -1.4342   22.5224 S   0  0  0  0  0  0  0  0  0  0  0  0
    7.8263   -2.1154   22.7659 C   0  0  0  0  0  0  0  0  0  0  0  0
    7.1838   -2.7898   23.7000 N   0  0  0  0  0  0  0  0  0  0  0  0
    5.9502   -2.8904   23.1368 C   0  0  0  0  0  0  0  0  0  0  0  0
    4.8955   -3.4980   23.6892 O   0  0  0  0  0  0  0  0  0  0  0  0
    4.8020   -3.8838   25.0216 C   0  0  0  0  0  0  0  0  0  0  0  0
    3.8109   -4.8464   25.2646 C   0  0  0  0  0  0  0  0  0  0  0  0
    3.2347   -5.2101   24.4186 H   0  0  0  0  0  0  0  0  0  0  0  0
    3.5825   -5.3150   26.5581 C   0  0  0  0  0  0  0  0  0  0  0  0
    2.8162   -6.0478   26.7812 H   0  0  0  0  0  0  0  0  0  0  0  0
    4.3506   -4.8097   27.6043 C   0  0  0  0  0  0  0  0  0  0  0  0
    4.1513   -5.2737   28.8494 F   0  0  0  0  0  0  0  0  0  0  0  0
    5.3069   -3.8281   27.3848 C   0  0  0  0  0  0  0  0  0  0  0  0
    5.8462   -3.4443   28.2417 H   0  0  0  0  0  0  0  0  0  0  0  0
    5.5459   -3.3537   26.0860 C   0  0  0  0  0  0  0  0  0  0  0  0
    6.2979   -2.5937   25.9182 H   0  0  0  0  0  0  0  0  0  0  0  0
    5.7829   -2.3663   21.9337 N   0  0  0  0  0  0  0  0  0  0  0  0
    7.0288   -1.8377   21.7172 N   0  0  0  0  0  0  0  0  0  0  0  0
    5.5410    0.3311   20.0975 C   0  0  0  0  0  0  0  0  0  0  0  0
    5.1280    0.1786   21.0951 H   0  0  0  0  0  0  0  0  0  0  0  0
    4.9169    1.1425   19.1522 C   0  0  0  0  0  0  0  0  0  0  0  0
    4.0141    1.6922   19.3914 H   0  0  0  0  0  0  0  0  0  0  0  0
  1  2  1  0
  2  3  2  0
  3  4  1  0
  4  5  1  0
  4  6  2  0
  6  7  1  0
  7  8  2  0
  8  9  1  0
  8 10  1  0
 10 11  1  0
 11 12  2  0
 12 13  1  0
 13 14  1  0
 14 15  1  0
 15 16  2  0
 16 17  1  0
 16 18  1  0
 18 19  1  0
 18 20  2  0
 20 21  1  0
 20 22  1  0
 22 23  1  0
 22 24  2  0
 24 25  1  0
 13 26  2  0
 26 27  1  0
  6 28  1  0
 28 29  1  0
 28 30  2  0
 30 31  1  0
 30  2  1  0
 27  7  1  0
 27 11  1  0
 24 15  1  0
M  END
>  <cnnaffinity>  (1) 
-5.29943

>  <filename>  (1) 
Fc1ccc(Oc2nc3scc(-c4cccnc4)n3n2)cc1

$$$$
