
     RDKit          3D

 29 31  0  0  0  0  0  0  0  0999 V2000
    8.6142   -3.6941   21.4347 H   0  0  0  0  0  0  0  0  0  0  0  0
    8.3354   -2.6666   21.6556 C   0  0  0  0  0  0  0  0  0  0  0  0
    8.6151   -2.2241   22.8800 N   0  0  0  0  0  0  0  0  0  0  0  0
    8.2699   -0.9653   23.1295 C   0  0  0  0  0  0  0  0  0  0  0  0
    8.5158   -0.5874   24.1223 H   0  0  0  0  0  0  0  0  0  0  0  0
    7.6615   -0.1286   22.1997 C   0  0  0  0  0  0  0  0  0  0  0  0
    7.3861    1.2973   22.5286 C   0  0  0  0  0  0  0  0  0  0  0  0
    6.6623    1.6091   23.6863 C   0  0  0  0  0  0  0  0  0  0  0  0
    6.2846    0.8415   24.3526 H   0  0  0  0  0  0  0  0  0  0  0  0
    6.3969    2.9451   23.9726 C   0  0  0  0  0  0  0  0  0  0  0  0
    5.7061    3.2638   25.0750 F   0  0  0  0  0  0  0  0  0  0  0  0
    6.8384    3.9825   23.1693 C   0  0  0  0  0  0  0  0  0  0  0  0
    6.6414    5.0258   23.3888 H   0  0  0  0  0  0  0  0  0  0  0  0
    7.5864    3.6445   22.0532 C   0  0  0  0  0  0  0  0  0  0  0  0
    8.0634    4.6874   21.3621 F   0  0  0  0  0  0  0  0  0  0  0  0
    7.8599    2.3255   21.6908 C   0  0  0  0  0  0  0  0  0  0  0  0
    8.4146    2.0778   20.7922 H   0  0  0  0  0  0  0  0  0  0  0  0
    7.3901   -0.7258   20.9545 C   0  0  0  0  0  0  0  0  0  0  0  0
    6.6487   -0.0112   19.9050 C   0  0  0  0  0  0  0  0  0  0  0  0
    7.1734    0.0401   18.6111 C   0  0  0  0  0  0  0  0  0  0  0  0
    8.1221   -0.4395   18.3751 H   0  0  0  0  0  0  0  0  0  0  0  0
    6.5770    0.6730   17.5968 N   0  0  0  0  0  0  0  0  0  0  0  0
    5.4097    1.2869   17.8493 C   0  0  0  0  0  0  0  0  0  0  0  0
    4.9256    1.7757   17.0048 H   0  0  0  0  0  0  0  0  0  0  0  0
    4.8073    1.3013   19.1120 C   0  0  0  0  0  0  0  0  0  0  0  0
    3.8789    1.8398   19.2582 H   0  0  0  0  0  0  0  0  0  0  0  0
    5.4346    0.6410   20.1645 C   0  0  0  0  0  0  0  0  0  0  0  0
    5.0069    0.6410   21.1720 H   0  0  0  0  0  0  0  0  0  0  0  0
    7.7597   -1.9786   20.6779 N   0  0  0  0  0  0  0  0  0  0  0  0
  1  2  1  0
  2  3  2  0
  3  4  1  0
  4  5  1  0
  4  6  2  0
  6  7  1  0
  7  8  2  0
  8  9  1  0
  8 10  1  0
 10 11  1  0
 10 12  2  0
 12 13  1  0
 12 14  1  0
 14 15  1  0
 14 16  2  0
 16 17  1  0
  6 18  1  0
 18 19  1  0
 19 20  2  0
 20 21  1  0
 20 22  1  0
 22 23  2  0
 23 24  1  0
 23 25  1  0
 25 26  1  0
 25 27  2  0
 27 28  1  0
 18 29  2  0
 29  2  1  0
 16  7  1  0
 27 19  1  0
M  END
>  <cnnaffinity>  (1) 
-4.66776

>  <filename>  (1) 
Fc1cc(F)cc(-c2cncnc2-c2cccnc2)c1

$$$$
