
     RDKit          3D

 29 31  0  0  0  0  0  0  0  0999 V2000
    4.9340    1.7958   16.9968 H   0  0  0  0  0  0  0  0  0  0  0  0
    5.3984    1.2894   17.8382 C   0  0  0  0  0  0  0  0  0  0  0  0
    6.5534    0.6593   17.5724 N   0  0  0  0  0  0  0  0  0  0  0  0
    7.1698    0.0416   18.5855 C   0  0  0  0  0  0  0  0  0  0  0  0
    8.1254   -0.4319   18.3643 H   0  0  0  0  0  0  0  0  0  0  0  0
    6.6499   -0.0040   19.8953 C   0  0  0  0  0  0  0  0  0  0  0  0
    7.3330   -0.6875   20.9433 N   0  0  0  0  0  0  0  0  0  0  0  0
    6.7343   -1.6048   21.7974 C   0  0  0  0  0  0  0  0  0  0  0  0
    5.6864   -1.8402   21.7010 H   0  0  0  0  0  0  0  0  0  0  0  0
    7.6764   -2.0638   22.6566 C   0  0  0  0  0  0  0  0  0  0  0  0
    7.5618   -3.0113   23.7769 C   0  0  0  0  0  0  0  0  0  0  0  0
    8.6756   -3.6782   24.3214 C   0  0  0  0  0  0  0  0  0  0  0  0
    9.6844   -3.5320   23.9532 H   0  0  0  0  0  0  0  0  0  0  0  0
    8.4751   -4.5818   25.3602 C   0  0  0  0  0  0  0  0  0  0  0  0
    9.5372   -5.2179   25.8766 F   0  0  0  0  0  0  0  0  0  0  0  0
    7.2169   -4.8595   25.8888 C   0  0  0  0  0  0  0  0  0  0  0  0
    7.0847   -5.5694   26.6969 H   0  0  0  0  0  0  0  0  0  0  0  0
    6.1371   -4.1827   25.3332 C   0  0  0  0  0  0  0  0  0  0  0  0
    4.9085   -4.4268   25.8124 F   0  0  0  0  0  0  0  0  0  0  0  0
    6.2828   -3.2680   24.2981 C   0  0  0  0  0  0  0  0  0  0  0  0
    5.4061   -2.7591   23.9201 H   0  0  0  0  0  0  0  0  0  0  0  0
    8.8484   -1.4143   22.2969 N   0  0  0  0  0  0  0  0  0  0  0  0
    9.7519   -1.4049   22.7425 H   0  0  0  0  0  0  0  0  0  0  0  0
    8.6548   -0.5191   21.3007 C   0  0  0  0  0  0  0  0  0  0  0  0
    9.8170    0.5355   20.7708 S   0  0  0  0  0  0  0  0  0  0  0  0
    5.4404    0.6427   20.1600 C   0  0  0  0  0  0  0  0  0  0  0  0
    5.0308    0.6326   21.1711 H   0  0  0  0  0  0  0  0  0  0  0  0
    4.8100    1.3079   19.1070 C   0  0  0  0  0  0  0  0  0  0  0  0
    3.8809    1.8391   19.2615 H   0  0  0  0  0  0  0  0  0  0  0  0
  1  2  1  0
  2  3  2  0
  3  4  1  0
  4  5  1  0
  4  6  2  0
  6  7  1  0
  7  8  1  0
  8  9  1  0
  8 10  2  0
 10 11  1  0
 11 12  2  0
 12 13  1  0
 12 14  1  0
 14 15  1  0
 14 16  2  0
 16 17  1  0
 16 18  1  0
 18 19  1  0
 18 20  2  0
 20 21  1  0
 10 22  1  0
 22 23  1  0
 22 24  1  0
 24 25  2  0
  6 26  1  0
 26 27  1  0
 26 28  2  0
 28 29  1  0
 28  2  1  0
 24  7  1  0
 20 11  1  0
M  END
>  <cnnaffinity>  (1) 
-5.6237

>  <filename>  (1) 
Fc1cc(F)cc(-c2cn(-c3cccnc3)c(=S)[nH]2)c1

$$$$
