
     RDKit          3D

 38 40  0  0  0  0  0  0  0  0999 V2000
    4.9069    1.7967   16.9819 H   0  0  0  0  0  0  0  0  0  0  0  0
    5.3864    1.3060   17.8227 C   0  0  0  0  0  0  0  0  0  0  0  0
    6.5525    0.6957   17.5523 N   0  0  0  0  0  0  0  0  0  0  0  0
    7.1717    0.0872   18.5678 C   0  0  0  0  0  0  0  0  0  0  0  0
    8.1132   -0.4175   18.3563 H   0  0  0  0  0  0  0  0  0  0  0  0
    6.6716    0.0075   19.8884 C   0  0  0  0  0  0  0  0  0  0  0  0
    7.3813   -0.7378   20.8547 N   0  0  0  0  0  0  0  0  0  0  0  0
    6.6876   -1.6751   21.7255 C   0  0  0  0  0  0  0  0  0  0  0  0
    7.2291   -2.6339   21.7326 H   0  0  0  0  0  0  0  0  0  0  0  0
    5.6984   -1.8687   21.2929 H   0  0  0  0  0  0  0  0  0  0  0  0
    6.5304   -1.2226   23.1932 C   0  0  0  0  0  0  0  0  0  0  0  0
    5.8461   -1.9108   23.7028 H   0  0  0  0  0  0  0  0  0  0  0  0
    6.0902   -0.2122   23.2095 H   0  0  0  0  0  0  0  0  0  0  0  0
    7.7618   -1.2351   23.9527 N   0  0  0  0  0  0  0  0  0  0  0  0
    8.0636   -2.3685   24.7364 C   0  0  0  0  0  0  0  0  0  0  0  0
    7.2897   -2.6408   25.8770 C   0  0  0  0  0  0  0  0  0  0  0  0
    6.4790   -1.9446   26.0839 H   0  0  0  0  0  0  0  0  0  0  0  0
    7.5670   -3.7259   26.7071 C   0  0  0  0  0  0  0  0  0  0  0  0
    6.9553   -3.8951   27.5869 H   0  0  0  0  0  0  0  0  0  0  0  0
    8.6199   -4.5923   26.3902 C   0  0  0  0  0  0  0  0  0  0  0  0
    8.8385   -5.4410   27.0317 H   0  0  0  0  0  0  0  0  0  0  0  0
    9.3914   -4.3704   25.2426 C   0  0  0  0  0  0  0  0  0  0  0  0
   10.2193   -5.0186   24.9683 H   0  0  0  0  0  0  0  0  0  0  0  0
    9.1043   -3.2732   24.4357 C   0  0  0  0  0  0  0  0  0  0  0  0
    9.8468   -3.0712   23.3240 F   0  0  0  0  0  0  0  0  0  0  0  0
    8.6979   -0.1298   23.8647 C   0  0  0  0  0  0  0  0  0  0  0  0
    9.6991   -0.5464   24.0320 H   0  0  0  0  0  0  0  0  0  0  0  0
    8.5104    0.5872   24.6847 H   0  0  0  0  0  0  0  0  0  0  0  0
    8.6992    0.6247   22.5264 C   0  0  0  0  0  0  0  0  0  0  0  0
    7.8370    1.3027   22.4672 H   0  0  0  0  0  0  0  0  0  0  0  0
    9.5868    1.2716   22.5164 H   0  0  0  0  0  0  0  0  0  0  0  0
    8.7059   -0.2891   21.2830 C   0  0  0  0  0  0  0  0  0  0  0  0
    9.3378   -1.1725   21.4686 H   0  0  0  0  0  0  0  0  0  0  0  0
    9.1460    0.2539   20.4392 H   0  0  0  0  0  0  0  0  0  0  0  0
    5.4438    0.6456   20.1479 C   0  0  0  0  0  0  0  0  0  0  0  0
    5.0223    0.6141   21.1535 H   0  0  0  0  0  0  0  0  0  0  0  0
    4.8087    1.3150   19.0964 C   0  0  0  0  0  0  0  0  0  0  0  0
    3.8756    1.8391   19.2540 H   0  0  0  0  0  0  0  0  0  0  0  0
  1  2  1  0
  2  3  2  0
  3  4  1  0
  4  5  1  0
  4  6  2  0
  6  7  1  0
  7  8  1  0
  8  9  1  0
  8 10  1  0
  8 11  1  0
 11 12  1  0
 11 13  1  0
 11 14  1  0
 14 15  1  0
 15 16  2  0
 16 17  1  0
 16 18  1  0
 18 19  1  0
 18 20  2  0
 20 21  1  0
 20 22  1  0
 22 23  1  0
 22 24  2  0
 24 25  1  0
 14 26  1  0
 26 27  1  0
 26 28  1  0
 26 29  1  0
 29 30  1  0
 29 31  1  0
 29 32  1  0
 32 33  1  0
 32 34  1  0
  6 35  1  0
 35 36  1  0
 35 37  2  0
 37 38  1  0
 37  2  1  0
 32  7  1  0
 24 15  1  0
M  END
>  <cnnaffinity>  (1) 
-5.31554

>  <filename>  (1) 
Fc1ccccc1N1CCCN(c2cccnc2)CC1

$$$$
