
     RDKit          3D

 28 31  0  0  0  0  0  0  0  0999 V2000
    4.9290    1.7760   16.9992 H   0  0  0  0  0  0  0  0  0  0  0  0
    5.4053    1.2881   17.8451 C   0  0  0  0  0  0  0  0  0  0  0  0
    6.5685    0.6695   17.5936 N   0  0  0  0  0  0  0  0  0  0  0  0
    7.1742    0.0563   18.6120 C   0  0  0  0  0  0  0  0  0  0  0  0
    8.1211   -0.4257   18.3718 H   0  0  0  0  0  0  0  0  0  0  0  0
    6.6493    0.0123   19.9150 C   0  0  0  0  0  0  0  0  0  0  0  0
    7.3537   -0.6871   20.9926 C   0  0  0  0  0  0  0  0  0  0  0  0
    6.8812   -0.7322   22.2020 N   0  0  0  0  0  0  0  0  0  0  0  0
    7.7259   -1.4404   22.9949 N   0  0  0  0  0  0  0  0  0  0  0  0
    7.7982   -1.8301   24.3231 C   0  0  0  0  0  0  0  0  0  0  0  0
    6.8218   -1.5271   25.3791 C   0  0  0  0  0  0  0  0  0  0  0  0
    7.0551   -2.0020   26.6851 C   0  0  0  0  0  0  0  0  0  0  0  0
    7.9463   -2.5789   26.9095 H   0  0  0  0  0  0  0  0  0  0  0  0
    6.2209   -1.7739   27.7032 N   0  0  0  0  0  0  0  0  0  0  0  0
    5.1105   -1.0662   27.4653 C   0  0  0  0  0  0  0  0  0  0  0  0
    4.4363   -0.8821   28.2977 H   0  0  0  0  0  0  0  0  0  0  0  0
    4.8066   -0.5595   26.1977 C   0  0  0  0  0  0  0  0  0  0  0  0
    3.6827    0.1442   26.0115 F   0  0  0  0  0  0  0  0  0  0  0  0
    5.6709   -0.7645   25.1358 C   0  0  0  0  0  0  0  0  0  0  0  0
    5.4904   -0.3119   24.1691 H   0  0  0  0  0  0  0  0  0  0  0  0
    8.8973   -2.5237   24.4886 N   0  0  0  0  0  0  0  0  0  0  0  0
    9.5714   -2.6086   23.2920 N   0  0  0  0  0  0  0  0  0  0  0  0
    8.8537   -1.9547   22.4271 C   0  0  0  0  0  0  0  0  0  0  0  0
    8.8961   -1.5263   20.7436 S   0  0  0  0  0  0  0  0  0  0  0  0
    5.4259    0.6589   20.1646 C   0  0  0  0  0  0  0  0  0  0  0  0
    4.9947    0.6404   21.1673 H   0  0  0  0  0  0  0  0  0  0  0  0
    4.8022    1.3117   19.1064 C   0  0  0  0  0  0  0  0  0  0  0  0
    3.8721    1.8451   19.2544 H   0  0  0  0  0  0  0  0  0  0  0  0
  1  2  1  0
  2  3  2  0
  3  4  1  0
  4  5  1  0
  4  6  2  0
  6  7  1  0
  7  8  2  0
  8  9  1  0
  9 10  1  0
 10 11  1  0
 11 12  2  0
 12 13  1  0
 12 14  1  0
 14 15  2  0
 15 16  1  0
 15 17  1  0
 17 18  1  0
 17 19  2  0
 19 20  1  0
 10 21  2  0
 21 22  1  0
 22 23  2  0
 23 24  1  0
  6 25  1  0
 25 26  1  0
 25 27  2  0
 27 28  1  0
 27  2  1  0
 24  7  1  0
 23  9  1  0
 19 11  1  0
M  END
>  <cnnaffinity>  (1) 
-5.07185

>  <filename>  (1) 
Fc1cncc(-c2nnc3sc(-c4cccnc4)nn23)c1

$$$$
