
     RDKit          3D

 29 31  0  0  0  0  0  0  0  0999 V2000
    4.9111    1.7777   16.9998 H   0  0  0  0  0  0  0  0  0  0  0  0
    5.4031    1.2921   17.8418 C   0  0  0  0  0  0  0  0  0  0  0  0
    6.5656    0.6740   17.5817 N   0  0  0  0  0  0  0  0  0  0  0  0
    7.1871    0.0562   18.5976 C   0  0  0  0  0  0  0  0  0  0  0  0
    8.1270   -0.4367   18.3718 H   0  0  0  0  0  0  0  0  0  0  0  0
    6.6873    0.0154   19.9155 C   0  0  0  0  0  0  0  0  0  0  0  0
    7.2864   -0.6863   20.9427 O   0  0  0  0  0  0  0  0  0  0  0  0
    8.6547   -0.7611   21.0815 C   0  0  0  0  0  0  0  0  0  0  0  0
    9.6776    0.0778   20.6160 C   0  0  0  0  0  0  0  0  0  0  0  0
    9.5593    0.9418   19.9910 H   0  0  0  0  0  0  0  0  0  0  0  0
   10.8701   -0.3180   21.0546 N   0  0  0  0  0  0  0  0  0  0  0  0
   10.6081   -1.3899   21.8012 N   0  0  0  0  0  0  0  0  0  0  0  0
   11.3630   -1.8899   22.2437 H   0  0  0  0  0  0  0  0  0  0  0  0
    9.2897   -1.7069   21.8678 C   0  0  0  0  0  0  0  0  0  0  0  0
    8.7331   -2.8349   22.6170 C   0  0  0  0  0  0  0  0  0  0  0  0
    7.6309   -3.5287   22.0905 C   0  0  0  0  0  0  0  0  0  0  0  0
    7.2301   -3.2141   21.1317 H   0  0  0  0  0  0  0  0  0  0  0  0
    7.0609   -4.5967   22.7795 C   0  0  0  0  0  0  0  0  0  0  0  0
    6.2091   -5.1174   22.3582 H   0  0  0  0  0  0  0  0  0  0  0  0
    7.5890   -4.9826   24.0140 C   0  0  0  0  0  0  0  0  0  0  0  0
    7.1485   -5.8106   24.5573 H   0  0  0  0  0  0  0  0  0  0  0  0
    8.6810   -4.3094   24.5668 C   0  0  0  0  0  0  0  0  0  0  0  0
    9.1070   -4.5895   25.5248 H   0  0  0  0  0  0  0  0  0  0  0  0
    9.2333   -3.2452   23.8649 C   0  0  0  0  0  0  0  0  0  0  0  0
   10.2764   -2.5897   24.4166 F   0  0  0  0  0  0  0  0  0  0  0  0
    5.4584    0.6426   20.1703 C   0  0  0  0  0  0  0  0  0  0  0  0
    5.0242    0.6170   21.1712 H   0  0  0  0  0  0  0  0  0  0  0  0
    4.8162    1.3035   19.1148 C   0  0  0  0  0  0  0  0  0  0  0  0
    3.8809    1.8372   19.2675 H   0  0  0  0  0  0  0  0  0  0  0  0
  1  2  1  0
  2  3  2  0
  3  4  1  0
  4  5  1  0
  4  6  2  0
  6  7  1  0
  7  8  1  0
  8  9  1  0
  9 10  1  0
  9 11  2  0
 11 12  1  0
 12 13  1  0
 12 14  1  0
 14 15  1  0
 15 16  2  0
 16 17  1  0
 16 18  1  0
 18 19  1  0
 18 20  2  0
 20 21  1  0
 20 22  1  0
 22 23  1  0
 22 24  2  0
 24 25  1  0
  6 26  1  0
 26 27  1  0
 26 28  2  0
 28 29  1  0
 28  2  1  0
 14  8  2  0
 24 15  1  0
M  END
>  <cnnaffinity>  (1) 
-5.45452

>  <filename>  (1) 
Fc1ccccc1-c1[nH]ncc1Oc1cccnc1

$$$$
