
     RDKit          3D

 34 37  0  0  0  0  0  0  0  0999 V2000
    4.9730    1.8488   16.9091 H   0  0  0  0  0  0  0  0  0  0  0  0
    5.4134    1.2951   17.7396 C   0  0  0  0  0  0  0  0  0  0  0  0
    6.5596    0.6406   17.4923 N   0  0  0  0  0  0  0  0  0  0  0  0
    7.1445    0.0003   18.5111 C   0  0  0  0  0  0  0  0  0  0  0  0
    8.0715   -0.5163   18.2714 H   0  0  0  0  0  0  0  0  0  0  0  0
    6.6214   -0.0342   19.8177 C   0  0  0  0  0  0  0  0  0  0  0  0
    7.3750   -0.6311   20.9341 C   0  0  0  0  0  0  0  0  0  0  0  0
    8.5203   -1.3032   20.7260 N   0  0  0  0  0  0  0  0  0  0  0  0
    8.9433   -1.5553   21.9819 N   0  0  0  0  0  0  0  0  0  0  0  0
   10.0939   -2.1109   22.5258 C   0  0  0  0  0  0  0  0  0  0  0  0
   10.8498   -2.5429   21.8987 H   0  0  0  0  0  0  0  0  0  0  0  0
   10.0021   -1.9237   23.8653 C   0  0  0  0  0  0  0  0  0  0  0  0
   10.6741   -2.1682   24.6731 H   0  0  0  0  0  0  0  0  0  0  0  0
    8.8097   -1.2697   24.1417 N   0  0  0  0  0  0  0  0  0  0  0  0
    8.4585   -0.8521   25.4141 N   0  0  0  0  0  0  0  0  0  0  0  0
    8.9509   -0.0050   25.6724 H   0  0  0  0  0  0  0  0  0  0  0  0
    7.0935   -0.6701   25.7481 C   0  0  0  0  0  0  0  0  0  0  0  0
    6.0954   -1.5897   25.4048 C   0  0  0  0  0  0  0  0  0  0  0  0
    6.3549   -2.4408   24.7814 H   0  0  0  0  0  0  0  0  0  0  0  0
    4.7796   -1.3820   25.8341 C   0  0  0  0  0  0  0  0  0  0  0  0
    3.9924   -2.0870   25.5857 H   0  0  0  0  0  0  0  0  0  0  0  0
    4.4765   -0.2424   26.5785 C   0  0  0  0  0  0  0  0  0  0  0  0
    3.2166   -0.0564   27.0089 F   0  0  0  0  0  0  0  0  0  0  0  0
    5.4523    0.7010   26.9045 C   0  0  0  0  0  0  0  0  0  0  0  0
    5.1842    1.5895   27.4705 H   0  0  0  0  0  0  0  0  0  0  0  0
    6.7648    0.4735   26.4887 C   0  0  0  0  0  0  0  0  0  0  0  0
    7.5447    1.2009   26.7241 H   0  0  0  0  0  0  0  0  0  0  0  0
    8.1533   -1.0503   22.9437 C   0  0  0  0  0  0  0  0  0  0  0  0
    7.0654   -0.4724   22.3040 C   0  0  0  0  0  0  0  0  0  0  0  0
    6.1854   -0.0544   22.7594 H   0  0  0  0  0  0  0  0  0  0  0  0
    5.3995    0.6183   20.0449 C   0  0  0  0  0  0  0  0  0  0  0  0
    4.9350    0.5983   21.0316 H   0  0  0  0  0  0  0  0  0  0  0  0
    4.7909    1.2970   18.9924 C   0  0  0  0  0  0  0  0  0  0  0  0
    3.8744    1.8568   19.1446 H   0  0  0  0  0  0  0  0  0  0  0  0
  1  2  1  0
  2  3  2  0
  3  4  1  0
  4  5  1  0
  4  6  2  0
  6  7  1  0
  7  8  2  0
  8  9  1  0
  9 10  1  0
 10 11  1  0
 10 12  2  0
 12 13  1  0
 12 14  1  0
 14 15  1  0
 15 16  1  0
 15 17  1  0
 17 18  2  0
 18 19  1  0
 18 20  1  0
 20 21  1  0
 20 22  2  0
 22 23  1  0
 22 24  1  0
 24 25  1  0
 24 26  2  0
 26 27  1  0
 14 28  1  0
 28 29  2  0
 29 30  1  0
  6 31  1  0
 31 32  1  0
 31 33  2  0
 33 34  1  0
 33  2  1  0
 29  7  1  0
 28  9  1  0
 26 17  1  0
M  END
>  <cnnaffinity>  (1) 
-5.63999

>  <filename>  (1) 
Fc1ccc(Nn2ccn3nc(-c4cccnc4)cc23)cc1

$$$$
