
     RDKit          3D

 28 30  0  0  0  0  0  0  0  0999 V2000
    8.6094   -3.7117   21.4281 H   0  0  0  0  0  0  0  0  0  0  0  0
    8.3304   -2.6867   21.6513 C   0  0  0  0  0  0  0  0  0  0  0  0
    8.6110   -2.2465   22.8786 N   0  0  0  0  0  0  0  0  0  0  0  0
    8.2639   -0.9878   23.1323 C   0  0  0  0  0  0  0  0  0  0  0  0
    8.5082   -0.6001   24.1218 H   0  0  0  0  0  0  0  0  0  0  0  0
    7.6573   -0.1437   22.2034 C   0  0  0  0  0  0  0  0  0  0  0  0
    7.3830    1.2900   22.5424 C   0  0  0  0  0  0  0  0  0  0  0  0
    7.8294    2.3587   21.7273 C   0  0  0  0  0  0  0  0  0  0  0  0
    8.3916    2.1177   20.8263 H   0  0  0  0  0  0  0  0  0  0  0  0
    7.6034    3.6481   21.9996 N   0  0  0  0  0  0  0  0  0  0  0  0
    6.9024    3.9378   23.1052 C   0  0  0  0  0  0  0  0  0  0  0  0
    6.7149    4.9847   23.3245 H   0  0  0  0  0  0  0  0  0  0  0  0
    6.4243    2.9478   23.9729 C   0  0  0  0  0  0  0  0  0  0  0  0
    5.7407    3.2980   25.0725 F   0  0  0  0  0  0  0  0  0  0  0  0
    6.6666    1.6050   23.7063 C   0  0  0  0  0  0  0  0  0  0  0  0
    6.2862    0.8340   24.3748 H   0  0  0  0  0  0  0  0  0  0  0  0
    7.3847   -0.7454   20.9537 C   0  0  0  0  0  0  0  0  0  0  0  0
    6.6524   -0.0132   19.9050 C   0  0  0  0  0  0  0  0  0  0  0  0
    7.1747    0.0422   18.6101 C   0  0  0  0  0  0  0  0  0  0  0  0
    8.1244   -0.4386   18.3761 H   0  0  0  0  0  0  0  0  0  0  0  0
    6.5770    0.6748   17.5961 N   0  0  0  0  0  0  0  0  0  0  0  0
    5.4086    1.2879   17.8498 C   0  0  0  0  0  0  0  0  0  0  0  0
    4.9201    1.7743   17.0055 H   0  0  0  0  0  0  0  0  0  0  0  0
    4.8081    1.3033   19.1130 C   0  0  0  0  0  0  0  0  0  0  0  0
    3.8771    1.8417   19.2613 H   0  0  0  0  0  0  0  0  0  0  0  0
    5.4401    0.6449   20.1652 C   0  0  0  0  0  0  0  0  0  0  0  0
    5.0088    0.6386   21.1704 H   0  0  0  0  0  0  0  0  0  0  0  0
    7.7541   -1.9974   20.6746 N   0  0  0  0  0  0  0  0  0  0  0  0
  1  2  1  0
  2  3  2  0
  3  4  1  0
  4  5  1  0
  4  6  2  0
  6  7  1  0
  7  8  2  0
  8  9  1  0
  8 10  1  0
 10 11  2  0
 11 12  1  0
 11 13  1  0
 13 14  1  0
 13 15  2  0
 15 16  1  0
  6 17  1  0
 17 18  1  0
 18 19  2  0
 19 20  1  0
 19 21  1  0
 21 22  2  0
 22 23  1  0
 22 24  1  0
 24 25  1  0
 24 26  2  0
 26 27  1  0
 17 28  2  0
 28  2  1  0
 15  7  1  0
 26 18  1  0
M  END
>  <cnnaffinity>  (1) 
-5.03351

>  <filename>  (1) 
Fc1cncc(-c2cncnc2-c2cccnc2)c1

$$$$
