
     RDKit          3D

 27 29  0  0  0  0  0  0  0  0999 V2000
    4.9158    1.7790   16.9978 H   0  0  0  0  0  0  0  0  0  0  0  0
    5.4030    1.2906   17.8421 C   0  0  0  0  0  0  0  0  0  0  0  0
    6.5704    0.6757   17.5863 N   0  0  0  0  0  0  0  0  0  0  0  0
    7.1818    0.0534   18.5982 C   0  0  0  0  0  0  0  0  0  0  0  0
    8.1284   -0.4368   18.3768 H   0  0  0  0  0  0  0  0  0  0  0  0
    6.6535    0.0181   19.9053 C   0  0  0  0  0  0  0  0  0  0  0  0
    7.3511   -0.6338   20.9740 N   0  0  0  0  0  0  0  0  0  0  0  0
    8.1262   -1.7266   20.7338 N   0  0  0  0  0  0  0  0  0  0  0  0
    8.6076   -2.0988   21.8542 N   0  0  0  0  0  0  0  0  0  0  0  0
    8.1909   -1.3037   22.8707 N   0  0  0  0  0  0  0  0  0  0  0  0
    7.4207   -0.4017   22.3114 C   0  0  0  0  0  0  0  0  0  0  0  0
    6.8066    0.6503   22.8699 O   0  0  0  0  0  0  0  0  0  0  0  0
    6.6639    0.7929   24.2507 C   0  0  0  0  0  0  0  0  0  0  0  0
    6.4964   -0.3030   25.0939 C   0  0  0  0  0  0  0  0  0  0  0  0
    6.5128   -1.3190   24.7174 H   0  0  0  0  0  0  0  0  0  0  0  0
    6.3198   -0.0488   26.4497 C   0  0  0  0  0  0  0  0  0  0  0  0
    6.1921   -1.0933   27.2736 F   0  0  0  0  0  0  0  0  0  0  0  0
    6.2760    1.2248   27.0026 C   0  0  0  0  0  0  0  0  0  0  0  0
    6.1424    1.3799   28.0686 H   0  0  0  0  0  0  0  0  0  0  0  0
    6.4081    2.2793   26.1047 C   0  0  0  0  0  0  0  0  0  0  0  0
    6.3523    3.5212   26.5997 F   0  0  0  0  0  0  0  0  0  0  0  0
    6.5913    2.1050   24.7353 C   0  0  0  0  0  0  0  0  0  0  0  0
    6.6716    2.9704   24.0903 H   0  0  0  0  0  0  0  0  0  0  0  0
    5.4360    0.6487   20.1666 C   0  0  0  0  0  0  0  0  0  0  0  0
    5.0091    0.6353   21.1677 H   0  0  0  0  0  0  0  0  0  0  0  0
    4.8061    1.3048   19.1051 C   0  0  0  0  0  0  0  0  0  0  0  0
    3.8763    1.8404   19.2627 H   0  0  0  0  0  0  0  0  0  0  0  0
  1  2  1  0
  2  3  2  0
  3  4  1  0
  4  5  1  0
  4  6  2  0
  6  7  1  0
  7  8  1  0
  8  9  2  0
  9 10  1  0
 10 11  2  0
 11 12  1  0
 12 13  1  0
 13 14  2  0
 14 15  1  0
 14 16  1  0
 16 17  1  0
 16 18  2  0
 18 19  1  0
 18 20  1  0
 20 21  1  0
 20 22  2  0
 22 23  1  0
  6 24  1  0
 24 25  1  0
 24 26  2  0
 26 27  1  0
 26  2  1  0
 11  7  1  0
 22 13  1  0
M  END
>  <cnnaffinity>  (1) 
-5.17692

>  <filename>  (1) 
Fc1cc(F)cc(Oc2nnnn2-c2cccnc2)c1

$$$$
