
     RDKit          3D

 32 34  0  0  0  0  0  0  0  0999 V2000
    4.9221    1.8151   16.9771 H   0  0  0  0  0  0  0  0  0  0  0  0
    5.3921    1.3075   17.8156 C   0  0  0  0  0  0  0  0  0  0  0  0
    6.5577    0.6923   17.5588 N   0  0  0  0  0  0  0  0  0  0  0  0
    7.1699    0.0759   18.5775 C   0  0  0  0  0  0  0  0  0  0  0  0
    8.1208   -0.3984   18.3271 H   0  0  0  0  0  0  0  0  0  0  0  0
    6.6629    0.0307   19.8938 C   0  0  0  0  0  0  0  0  0  0  0  0
    7.3657   -0.6568   20.9967 C   0  0  0  0  0  0  0  0  0  0  0  0
    7.5251   -0.3075   22.3372 C   0  0  0  0  0  0  0  0  0  0  0  0
    6.9370    0.8396   22.9011 N   0  0  0  0  0  0  0  0  0  0  0  0
    7.0509    1.6145   22.2393 H   0  0  0  0  0  0  0  0  0  0  0  0
    7.3976    1.2559   24.1737 N   0  0  0  0  0  0  0  0  0  0  0  0
    7.6283    0.4738   24.7802 H   0  0  0  0  0  0  0  0  0  0  0  0
    6.7335    2.3058   24.8210 C   0  0  0  0  0  0  0  0  0  0  0  0
    7.2238    2.6858   26.0876 C   0  0  0  0  0  0  0  0  0  0  0  0
    8.0172    2.0938   26.5347 H   0  0  0  0  0  0  0  0  0  0  0  0
    6.7438    3.8236   26.7422 C   0  0  0  0  0  0  0  0  0  0  0  0
    7.1441    4.1365   27.6990 H   0  0  0  0  0  0  0  0  0  0  0  0
    5.7379    4.5782   26.1415 C   0  0  0  0  0  0  0  0  0  0  0  0
    5.2832    5.6828   26.7589 F   0  0  0  0  0  0  0  0  0  0  0  0
    5.1948    4.2086   24.9166 C   0  0  0  0  0  0  0  0  0  0  0  0
    4.4126    4.8140   24.4694 H   0  0  0  0  0  0  0  0  0  0  0  0
    5.6813    3.0687   24.2687 C   0  0  0  0  0  0  0  0  0  0  0  0
    5.2417    2.7717   23.3233 H   0  0  0  0  0  0  0  0  0  0  0  0
    8.2760   -1.3764   22.8997 C   0  0  0  0  0  0  0  0  0  0  0  0
    8.6421   -1.5117   23.9115 H   0  0  0  0  0  0  0  0  0  0  0  0
    8.5443   -2.3149   21.9979 N   0  0  0  0  0  0  0  0  0  0  0  0
    7.9982   -1.8524   20.8642 N   0  0  0  0  0  0  0  0  0  0  0  0
    7.9806   -2.4341   20.0387 H   0  0  0  0  0  0  0  0  0  0  0  0
    5.4321    0.6747   20.1298 C   0  0  0  0  0  0  0  0  0  0  0  0
    4.9909    0.6392   21.1247 H   0  0  0  0  0  0  0  0  0  0  0  0
    4.7889    1.3213   19.0759 C   0  0  0  0  0  0  0  0  0  0  0  0
    3.8514    1.8479   19.2166 H   0  0  0  0  0  0  0  0  0  0  0  0
  1  2  1  0
  2  3  2  0
  3  4  1  0
  4  5  1  0
  4  6  2  0
  6  7  1  0
  7  8  2  0
  8  9  1  0
  9 10  1  0
  9 11  1  0
 11 12  1  0
 11 13  1  0
 13 14  2  0
 14 15  1  0
 14 16  1  0
 16 17  1  0
 16 18  2  0
 18 19  1  0
 18 20  1  0
 20 21  1  0
 20 22  2  0
 22 23  1  0
  8 24  1  0
 24 25  1  0
 24 26  2  0
 26 27  1  0
 27 28  1  0
  6 29  1  0
 29 30  1  0
 29 31  2  0
 31 32  1  0
 31  2  1  0
 27  7  1  0
 22 13  1  0
M  END
>  <cnnaffinity>  (1) 
-5.17637

>  <filename>  (1) 
Fc1ccc(NNc2cn[nH]c2-c2cccnc2)cc1

$$$$
