
     RDKit          3D

 39 41  0  0  0  0  0  0  0  0999 V2000
    4.9077    1.7861   16.9905 H   0  0  0  0  0  0  0  0  0  0  0  0
    5.3947    1.2994   17.8311 C   0  0  0  0  0  0  0  0  0  0  0  0
    6.5597    0.6856   17.5625 N   0  0  0  0  0  0  0  0  0  0  0  0
    7.1750    0.0784   18.5824 C   0  0  0  0  0  0  0  0  0  0  0  0
    8.1149   -0.4261   18.3668 H   0  0  0  0  0  0  0  0  0  0  0  0
    6.6745    0.0039   19.9065 C   0  0  0  0  0  0  0  0  0  0  0  0
    7.3808   -0.7317   20.8870 N   0  0  0  0  0  0  0  0  0  0  0  0
    6.6433   -1.5979   21.8057 C   0  0  0  0  0  0  0  0  0  0  0  0
    6.3072   -1.0847   22.7284 H   0  0  0  0  0  0  0  0  0  0  0  0
    5.7363   -1.9348   21.2915 H   0  0  0  0  0  0  0  0  0  0  0  0
    7.5083   -2.8044   22.1694 C   0  0  0  0  0  0  0  0  0  0  0  0
    6.9744   -3.4357   22.8859 H   0  0  0  0  0  0  0  0  0  0  0  0
    7.6624   -3.4007   21.2623 H   0  0  0  0  0  0  0  0  0  0  0  0
    8.8616   -2.3577   22.7255 C   0  0  0  0  0  0  0  0  0  0  0  0
    8.7174   -1.8419   23.6865 H   0  0  0  0  0  0  0  0  0  0  0  0
    9.4941   -3.2271   22.9276 H   0  0  0  0  0  0  0  0  0  0  0  0
    9.5645   -1.4194   21.7384 C   0  0  0  0  0  0  0  0  0  0  0  0
   10.5161   -1.0604   22.1448 H   0  0  0  0  0  0  0  0  0  0  0  0
    9.8055   -1.9722   20.8233 H   0  0  0  0  0  0  0  0  0  0  0  0
    8.6860   -0.2233   21.3405 C   0  0  2  0  0  0  0  0  0  0  0  0
    9.1550    0.2573   20.4731 H   0  0  0  0  0  0  0  0  0  0  0  0
    8.5671    0.8710   22.4312 C   0  0  0  0  0  0  0  0  0  0  0  0
    8.1406    0.4217   23.3348 H   0  0  0  0  0  0  0  0  0  0  0  0
    7.8390    1.6152   22.0833 H   0  0  0  0  0  0  0  0  0  0  0  0
    9.8851    1.5417   22.7445 C   0  0  0  0  0  0  0  0  0  0  0  0
   10.4114    2.5010   21.8647 C   0  0  0  0  0  0  0  0  0  0  0  0
    9.8413    2.7710   20.9809 H   0  0  0  0  0  0  0  0  0  0  0  0
   11.6396    3.1157   22.1123 C   0  0  0  0  0  0  0  0  0  0  0  0
   12.0461    3.8712   21.4456 H   0  0  0  0  0  0  0  0  0  0  0  0
   12.3482    2.7442   23.2525 C   0  0  0  0  0  0  0  0  0  0  0  0
   13.5297    3.3337   23.4951 F   0  0  0  0  0  0  0  0  0  0  0  0
   11.8714    1.7829   24.1433 C   0  0  0  0  0  0  0  0  0  0  0  0
   12.4542    1.5147   25.0178 H   0  0  0  0  0  0  0  0  0  0  0  0
   10.6371    1.1846   23.8734 C   0  0  0  0  0  0  0  0  0  0  0  0
   10.2519    0.4227   24.5479 H   0  0  0  0  0  0  0  0  0  0  0  0
    5.4457    0.6475   20.1600 C   0  0  0  0  0  0  0  0  0  0  0  0
    5.0215    0.6200   21.1675 H   0  0  0  0  0  0  0  0  0  0  0  0
    4.8101    1.3125   19.1047 C   0  0  0  0  0  0  0  0  0  0  0  0
    3.8739    1.8419   19.2596 H   0  0  0  0  0  0  0  0  0  0  0  0
  1  2  1  0
  2  3  2  0
  3  4  1  0
  4  5  1  0
  4  6  2  0
  6  7  1  0
  7  8  1  0
  8  9  1  0
  8 10  1  0
  8 11  1  0
 11 12  1  0
 11 13  1  0
 11 14  1  0
 14 15  1  0
 14 16  1  0
 14 17  1  0
 17 18  1  0
 17 19  1  0
 17 20  1  0
 20 21  1  6
 20 22  1  0
 22 23  1  0
 22 24  1  0
 22 25  1  0
 25 26  2  0
 26 27  1  0
 26 28  1  0
 28 29  1  0
 28 30  2  0
 30 31  1  0
 30 32  1  0
 32 33  1  0
 32 34  2  0
 34 35  1  0
  6 36  1  0
 36 37  1  0
 36 38  2  0
 38 39  1  0
 38  2  1  0
 20  7  1  0
 34 25  1  0
M  END
>  <cnnaffinity>  (1) 
-5.38449

>  <filename>  (1) 
Fc1ccc(C[C@H]2CCCCN2c2cccnc2)cc1

$$$$
