
     RDKit          3D

 35 38  0  0  0  0  0  0  0  0999 V2000
    4.9215    1.8406   16.9428 H   0  0  0  0  0  0  0  0  0  0  0  0
    5.4079    1.3263   17.7697 C   0  0  0  0  0  0  0  0  0  0  0  0
    6.5646    0.7082   17.4875 N   0  0  0  0  0  0  0  0  0  0  0  0
    7.1874    0.0898   18.4990 C   0  0  0  0  0  0  0  0  0  0  0  0
    8.1207   -0.4127   18.2429 H   0  0  0  0  0  0  0  0  0  0  0  0
    6.7169    0.0472   19.8264 C   0  0  0  0  0  0  0  0  0  0  0  0
    7.4783   -0.6578   20.9328 C   0  0  1  0  0  0  0  0  0  0  0  0
    8.4205   -1.0218   20.5099 H   0  0  0  0  0  0  0  0  0  0  0  0
    7.8448    0.2855   22.1369 C   0  0  0  0  0  0  0  0  0  0  0  0
    8.9250    0.4660   22.1740 H   0  0  0  0  0  0  0  0  0  0  0  0
    7.3732    1.2751   22.0642 H   0  0  0  0  0  0  0  0  0  0  0  0
    7.3696   -0.4915   23.3273 C   0  0  0  0  0  0  0  0  0  0  0  0
    7.3227   -0.2555   24.6267 N   0  0  0  0  0  0  0  0  0  0  0  0
    6.7566   -1.3802   25.1236 N   0  0  0  0  0  0  0  0  0  0  0  0
    6.5183   -1.4023   26.1077 H   0  0  0  0  0  0  0  0  0  0  0  0
    6.4333   -2.3121   24.1745 C   0  0  0  0  0  0  0  0  0  0  0  0
    5.8214   -3.6446   24.4169 C   0  0  0  0  0  0  0  0  0  0  0  0
    6.2505   -4.5457   25.4108 C   0  0  0  0  0  0  0  0  0  0  0  0
    7.2188   -4.1558   26.2562 F   0  0  0  0  0  0  0  0  0  0  0  0
    5.7220   -5.8242   25.5785 C   0  0  0  0  0  0  0  0  0  0  0  0
    6.1410   -6.4634   26.3462 H   0  0  0  0  0  0  0  0  0  0  0  0
    4.6705   -6.2331   24.7567 C   0  0  0  0  0  0  0  0  0  0  0  0
    4.1940   -7.1923   24.9356 H   0  0  0  0  0  0  0  0  0  0  0  0
    4.2058   -5.3912   23.7491 C   0  0  0  0  0  0  0  0  0  0  0  0
    3.3980   -5.6782   23.0853 H   0  0  0  0  0  0  0  0  0  0  0  0
    4.8021   -4.1456   23.5872 C   0  0  0  0  0  0  0  0  0  0  0  0
    4.3606   -3.3947   22.5589 F   0  0  0  0  0  0  0  0  0  0  0  0
    6.8215   -1.7238   22.9840 C   0  0  0  0  0  0  0  0  0  0  0  0
    6.7211   -1.9100   21.5052 C   0  0  0  0  0  0  0  0  0  0  0  0
    7.1750   -2.8465   21.1572 H   0  0  0  0  0  0  0  0  0  0  0  0
    5.6732   -1.9444   21.1709 H   0  0  0  0  0  0  0  0  0  0  0  0
    5.4916    0.6799   20.0838 C   0  0  0  0  0  0  0  0  0  0  0  0
    5.0665    0.6671   21.0898 H   0  0  0  0  0  0  0  0  0  0  0  0
    4.8259    1.3275   19.0417 C   0  0  0  0  0  0  0  0  0  0  0  0
    3.8837    1.8398   19.2075 H   0  0  0  0  0  0  0  0  0  0  0  0
  1  2  1  0
  2  3  2  0
  3  4  1  0
  4  5  1  0
  4  6  2  0
  6  7  1  0
  7  8  1  6
  7  9  1  0
  9 10  1  0
  9 11  1  0
  9 12  1  0
 12 13  2  0
 13 14  1  0
 14 15  1  0
 14 16  1  0
 16 17  1  0
 17 18  2  0
 18 19  1  0
 18 20  1  0
 20 21  1  0
 20 22  2  0
 22 23  1  0
 22 24  1  0
 24 25  1  0
 24 26  2  0
 26 27  1  0
 16 28  2  0
 28 29  1  0
 29 30  1  0
 29 31  1  0
  6 32  1  0
 32 33  1  0
 32 34  2  0
 34 35  1  0
 34  2  1  0
 29  7  1  0
 28 12  1  0
 26 17  1  0
M  END
>  <cnnaffinity>  (1) 
-5.46338

>  <filename>  (1) 
Fc1cccc(F)c1-c1[nH]nc2c1C[C@@H](c1cccnc1)C2

$$$$
