
     RDKit          3D

 28 30  0  0  0  0  0  0  0  0999 V2000
    4.9180    1.7792   16.9996 H   0  0  0  0  0  0  0  0  0  0  0  0
    5.4025    1.2936   17.8414 C   0  0  0  0  0  0  0  0  0  0  0  0
    6.5683    0.6809   17.5787 N   0  0  0  0  0  0  0  0  0  0  0  0
    7.1697    0.0553   18.5916 C   0  0  0  0  0  0  0  0  0  0  0  0
    8.1178   -0.4346   18.3735 H   0  0  0  0  0  0  0  0  0  0  0  0
    6.6467    0.0157   19.8915 C   0  0  0  0  0  0  0  0  0  0  0  0
    7.3784   -0.7181   20.9111 C   0  0  0  0  0  0  0  0  0  0  0  0
    7.9737   -1.8519   20.6908 N   0  0  0  0  0  0  0  0  0  0  0  0
    8.4699   -2.1952   21.9076 N   0  0  0  0  0  0  0  0  0  0  0  0
    9.0149   -3.0274   22.0540 H   0  0  0  0  0  0  0  0  0  0  0  0
    8.2517   -1.2916   22.8817 C   0  0  0  0  0  0  0  0  0  0  0  0
    8.8068   -1.3671   24.4435 S   0  0  0  0  0  0  0  0  0  0  0  0
    7.5056   -0.3221   22.2336 N   0  0  0  0  0  0  0  0  0  0  0  0
    7.1165    0.9294   22.8170 C   0  0  0  0  0  0  0  0  0  0  0  0
    7.5107    2.1344   22.2247 C   0  0  0  0  0  0  0  0  0  0  0  0
    8.0807    2.1548   21.3053 H   0  0  0  0  0  0  0  0  0  0  0  0
    7.1095    3.3319   22.8131 C   0  0  0  0  0  0  0  0  0  0  0  0
    7.4622    4.4890   22.2364 F   0  0  0  0  0  0  0  0  0  0  0  0
    6.3532    3.3919   23.9782 C   0  0  0  0  0  0  0  0  0  0  0  0
    6.0592    4.3386   24.4228 H   0  0  0  0  0  0  0  0  0  0  0  0
    5.9982    2.1703   24.5412 C   0  0  0  0  0  0  0  0  0  0  0  0
    5.2769    2.1909   25.6701 F   0  0  0  0  0  0  0  0  0  0  0  0
    6.3555    0.9411   23.9890 C   0  0  0  0  0  0  0  0  0  0  0  0
    6.0537    0.0252   24.4812 H   0  0  0  0  0  0  0  0  0  0  0  0
    5.4261    0.6529   20.1545 C   0  0  0  0  0  0  0  0  0  0  0  0
    5.0099    0.6349   21.1658 H   0  0  0  0  0  0  0  0  0  0  0  0
    4.7996    1.3109   19.1044 C   0  0  0  0  0  0  0  0  0  0  0  0
    3.8709    1.8453   19.2579 H   0  0  0  0  0  0  0  0  0  0  0  0
  1  2  1  0
  2  3  2  0
  3  4  1  0
  4  5  1  0
  4  6  2  0
  6  7  1  0
  7  8  2  0
  8  9  1  0
  9 10  1  0
  9 11  1  0
 11 12  2  0
 11 13  1  0
 13 14  1  0
 14 15  2  0
 15 16  1  0
 15 17  1  0
 17 18  1  0
 17 19  2  0
 19 20  1  0
 19 21  1  0
 21 22  1  0
 21 23  2  0
 23 24  1  0
  6 25  1  0
 25 26  1  0
 25 27  2  0
 27 28  1  0
 27  2  1  0
 13  7  1  0
 23 14  1  0
M  END
>  <cnnaffinity>  (1) 
-5.32235

>  <filename>  (1) 
Fc1cc(F)cc(-n2c(-c3cccnc3)n[nH]c2=S)c1

$$$$
