
     RDKit          3D

 29 31  0  0  0  0  0  0  0  0999 V2000
    4.9174    1.7826   16.9918 H   0  0  0  0  0  0  0  0  0  0  0  0
    5.4014    1.2942   17.8354 C   0  0  0  0  0  0  0  0  0  0  0  0
    6.5648    0.6748   17.5790 N   0  0  0  0  0  0  0  0  0  0  0  0
    7.1773    0.0649   18.5960 C   0  0  0  0  0  0  0  0  0  0  0  0
    8.1143   -0.4324   18.3658 H   0  0  0  0  0  0  0  0  0  0  0  0
    6.6648    0.0119   19.9043 C   0  0  0  0  0  0  0  0  0  0  0  0
    7.3707   -0.6721   20.9256 N   0  0  0  0  0  0  0  0  0  0  0  0
    8.7499   -0.7979   21.0429 C   0  0  0  0  0  0  0  0  0  0  0  0
    9.4054   -0.3234   20.3235 H   0  0  0  0  0  0  0  0  0  0  0  0
    9.0228   -1.5096   22.1758 C   0  0  0  0  0  0  0  0  0  0  0  0
    9.9950   -1.7857   22.5603 H   0  0  0  0  0  0  0  0  0  0  0  0
    7.7760   -1.8593   22.7780 C   0  0  0  0  0  0  0  0  0  0  0  0
    7.5800   -2.6458   24.0060 C   0  0  0  0  0  0  0  0  0  0  0  0
    8.4346   -2.5345   25.1150 C   0  0  0  0  0  0  0  0  0  0  0  0
    9.4638   -1.6701   25.0525 F   0  0  0  0  0  0  0  0  0  0  0  0
    8.2789   -3.2618   26.2851 C   0  0  0  0  0  0  0  0  0  0  0  0
    8.9872   -3.1170   27.0929 H   0  0  0  0  0  0  0  0  0  0  0  0
    7.2110   -4.1545   26.3720 C   0  0  0  0  0  0  0  0  0  0  0  0
    7.0689   -4.7302   27.2753 H   0  0  0  0  0  0  0  0  0  0  0  0
    6.3246   -4.3165   25.3076 C   0  0  0  0  0  0  0  0  0  0  0  0
    5.4831   -4.9998   25.3451 H   0  0  0  0  0  0  0  0  0  0  0  0
    6.5310   -3.5678   24.1586 C   0  0  0  0  0  0  0  0  0  0  0  0
    5.6747   -3.7533   23.1353 F   0  0  0  0  0  0  0  0  0  0  0  0
    6.7912   -1.3337   21.9829 C   0  0  0  0  0  0  0  0  0  0  0  0
    5.7202   -1.4110   22.0847 H   0  0  0  0  0  0  0  0  0  0  0  0
    5.4386    0.6485   20.1634 C   0  0  0  0  0  0  0  0  0  0  0  0
    5.0113    0.6439   21.1695 H   0  0  0  0  0  0  0  0  0  0  0  0
    4.8094    1.3094   19.1046 C   0  0  0  0  0  0  0  0  0  0  0  0
    3.8758    1.8410   19.2608 H   0  0  0  0  0  0  0  0  0  0  0  0
  1  2  1  0
  2  3  2  0
  3  4  1  0
  4  5  1  0
  4  6  2  0
  6  7  1  0
  7  8  1  0
  8  9  1  0
  8 10  2  0
 10 11  1  0
 10 12  1  0
 12 13  1  0
 13 14  2  0
 14 15  1  0
 14 16  1  0
 16 17  1  0
 16 18  2  0
 18 19  1  0
 18 20  1  0
 20 21  1  0
 20 22  2  0
 22 23  1  0
 12 24  2  0
 24 25  1  0
  6 26  1  0
 26 27  1  0
 26 28  2  0
 28 29  1  0
 28  2  1  0
 24  7  1  0
 22 13  1  0
M  END
>  <cnnaffinity>  (1) 
-5.26341

>  <filename>  (1) 
Fc1cccc(F)c1-c1ccn(-c2cccnc2)c1

$$$$
