
     RDKit          3D

 30 33  0  0  0  0  0  0  0  0999 V2000
    4.9223    1.7780   17.0009 H   0  0  0  0  0  0  0  0  0  0  0  0
    5.4066    1.2909   17.8423 C   0  0  0  0  0  0  0  0  0  0  0  0
    6.5708    0.6742   17.5834 N   0  0  0  0  0  0  0  0  0  0  0  0
    7.1698    0.0444   18.5952 C   0  0  0  0  0  0  0  0  0  0  0  0
    8.1199   -0.4365   18.3718 H   0  0  0  0  0  0  0  0  0  0  0  0
    6.6487    0.0042   19.8968 C   0  0  0  0  0  0  0  0  0  0  0  0
    7.3741   -0.6876   20.9485 C   0  0  0  0  0  0  0  0  0  0  0  0
    8.0249   -1.8711   20.7137 N   0  0  0  0  0  0  0  0  0  0  0  0
    8.4678   -2.2164   21.8887 C   0  0  0  0  0  0  0  0  0  0  0  0
    9.4101   -3.5130   22.5531 S   0  0  0  0  0  0  0  0  0  0  0  0
    9.4531   -2.7442   24.1092 C   0  0  0  0  0  0  0  0  0  0  0  0
   10.0068   -3.2233   24.9047 H   0  0  0  0  0  0  0  0  0  0  0  0
    8.7484   -1.6003   24.1236 C   0  0  0  0  0  0  0  0  0  0  0  0
    8.6174   -0.9178   24.9522 H   0  0  0  0  0  0  0  0  0  0  0  0
    8.1716   -1.3279   22.8876 N   0  0  0  0  0  0  0  0  0  0  0  0
    7.4790   -0.2988   22.2849 C   0  0  0  0  0  0  0  0  0  0  0  0
    7.0900    0.9322   22.9597 C   0  0  0  0  0  0  0  0  0  0  0  0
    6.4735    0.9397   24.2309 C   0  0  0  0  0  0  0  0  0  0  0  0
    6.2772   -0.0057   24.7281 H   0  0  0  0  0  0  0  0  0  0  0  0
    6.0843    2.0522   24.8648 N   0  0  0  0  0  0  0  0  0  0  0  0
    6.3019    3.2211   24.2445 C   0  0  0  0  0  0  0  0  0  0  0  0
    5.9930    4.1261   24.7548 H   0  0  0  0  0  0  0  0  0  0  0  0
    6.9054    3.3099   22.9851 C   0  0  0  0  0  0  0  0  0  0  0  0
    7.0917    4.5080   22.4145 F   0  0  0  0  0  0  0  0  0  0  0  0
    7.3118    2.1668   22.3192 C   0  0  0  0  0  0  0  0  0  0  0  0
    7.7704    2.2280   21.3324 H   0  0  0  0  0  0  0  0  0  0  0  0
    5.4268    0.6499   20.1535 C   0  0  0  0  0  0  0  0  0  0  0  0
    5.0010    0.6400   21.1616 H   0  0  0  0  0  0  0  0  0  0  0  0
    4.8026    1.3092   19.1041 C   0  0  0  0  0  0  0  0  0  0  0  0
    3.8733    1.8433   19.2577 H   0  0  0  0  0  0  0  0  0  0  0  0
  1  2  1  0
  2  3  2  0
  3  4  1  0
  4  5  1  0
  4  6  2  0
  6  7  1  0
  7  8  1  0
  8  9  2  0
  9 10  1  0
 10 11  1  0
 11 12  1  0
 11 13  2  0
 13 14  1  0
 13 15  1  0
 15 16  1  0
 16 17  1  0
 17 18  2  0
 18 19  1  0
 18 20  1  0
 20 21  2  0
 21 22  1  0
 21 23  1  0
 23 24  1  0
 23 25  2  0
 25 26  1  0
  6 27  1  0
 27 28  1  0
 27 29  2  0
 29 30  1  0
 29  2  1  0
 16  7  2  0
 25 17  1  0
 15  9  1  0
M  END
>  <cnnaffinity>  (1) 
-5.72142

>  <filename>  (1) 
Fc1cncc(-c2c(-c3cccnc3)nc3sccn23)c1

$$$$
