
     RDKit          3D

 28 30  0  0  0  0  0  0  0  0999 V2000
    4.9154    1.8040   16.9741 H   0  0  0  0  0  0  0  0  0  0  0  0
    5.3844    1.3011   17.8186 C   0  0  0  0  0  0  0  0  0  0  0  0
    6.5490    0.6816   17.5582 N   0  0  0  0  0  0  0  0  0  0  0  0
    7.1574    0.0632   18.5751 C   0  0  0  0  0  0  0  0  0  0  0  0
    8.1150   -0.3979   18.3265 H   0  0  0  0  0  0  0  0  0  0  0  0
    6.6487    0.0151   19.8917 C   0  0  0  0  0  0  0  0  0  0  0  0
    7.3505   -0.6447   20.9997 C   0  0  0  0  0  0  0  0  0  0  0  0
    7.4122   -0.3686   22.3577 C   0  0  0  0  0  0  0  0  0  0  0  0
    6.8142    0.7358   22.9125 O   0  0  0  0  0  0  0  0  0  0  0  0
    6.5744    0.8423   24.2619 C   0  0  0  0  0  0  0  0  0  0  0  0
    6.1983   -0.2426   25.0810 C   0  0  0  0  0  0  0  0  0  0  0  0
    6.1209   -1.2460   24.6766 H   0  0  0  0  0  0  0  0  0  0  0  0
    5.9196   -0.0986   26.3862 N   0  0  0  0  0  0  0  0  0  0  0  0
    5.9850    1.1243   26.9288 C   0  0  0  0  0  0  0  0  0  0  0  0
    5.7639    1.2244   27.9859 H   0  0  0  0  0  0  0  0  0  0  0  0
    6.3197    2.2509   26.1615 C   0  0  0  0  0  0  0  0  0  0  0  0
    6.3446    3.4575   26.7456 F   0  0  0  0  0  0  0  0  0  0  0  0
    6.6132    2.1330   24.8099 C   0  0  0  0  0  0  0  0  0  0  0  0
    6.8533    3.0135   24.2156 H   0  0  0  0  0  0  0  0  0  0  0  0
    8.2538   -1.3586   22.9182 C   0  0  0  0  0  0  0  0  0  0  0  0
    8.5850   -1.4855   23.9426 H   0  0  0  0  0  0  0  0  0  0  0  0
    8.6730   -2.2014   21.9772 N   0  0  0  0  0  0  0  0  0  0  0  0
    8.1313   -1.7520   20.8446 N   0  0  0  0  0  0  0  0  0  0  0  0
    8.2607   -2.2691   19.9856 H   0  0  0  0  0  0  0  0  0  0  0  0
    5.4295    0.6669   20.1379 C   0  0  0  0  0  0  0  0  0  0  0  0
    5.0258    0.6550   21.1474 H   0  0  0  0  0  0  0  0  0  0  0  0
    4.7901    1.3156   19.0843 C   0  0  0  0  0  0  0  0  0  0  0  0
    3.8596    1.8522   19.2339 H   0  0  0  0  0  0  0  0  0  0  0  0
  1  2  1  0
  2  3  2  0
  3  4  1  0
  4  5  1  0
  4  6  2  0
  6  7  1  0
  7  8  2  0
  8  9  1  0
  9 10  1  0
 10 11  2  0
 11 12  1  0
 11 13  1  0
 13 14  2  0
 14 15  1  0
 14 16  1  0
 16 17  1  0
 16 18  2  0
 18 19  1  0
  8 20  1  0
 20 21  1  0
 20 22  2  0
 22 23  1  0
 23 24  1  0
  6 25  1  0
 25 26  1  0
 25 27  2  0
 27 28  1  0
 27  2  1  0
 23  7  1  0
 18 10  1  0
M  END
>  <cnnaffinity>  (1) 
-5.34726

>  <filename>  (1) 
Fc1cncc(Oc2cn[nH]c2-c2cccnc2)c1

$$$$
