
     RDKit          3D

 35 38  0  0  0  0  0  0  0  0999 V2000
    4.9947    1.8380   16.9220 H   0  0  0  0  0  0  0  0  0  0  0  0
    5.3916    1.3049   17.7845 C   0  0  0  0  0  0  0  0  0  0  0  0
    6.5449    0.6466   17.5920 N   0  0  0  0  0  0  0  0  0  0  0  0
    7.0743    0.0294   18.6580 C   0  0  0  0  0  0  0  0  0  0  0  0
    8.0097   -0.4966   18.4774 H   0  0  0  0  0  0  0  0  0  0  0  0
    6.4955    0.0006   19.9469 C   0  0  0  0  0  0  0  0  0  0  0  0
    7.2548   -0.6125   21.0577 C   0  0  0  0  0  0  0  0  0  0  0  0
    8.6109   -0.5604   21.2969 C   0  0  0  0  0  0  0  0  0  0  0  0
    8.8186   -1.1671   22.5247 C   0  0  0  0  0  0  0  0  0  0  0  0
    7.7025   -1.6119   23.0687 N   0  0  0  0  0  0  0  0  0  0  0  0
    6.7554   -1.2519   22.1629 N   0  0  0  0  0  0  0  0  0  0  0  0
    5.7952   -1.5082   22.3643 H   0  0  0  0  0  0  0  0  0  0  0  0
   10.2490   -1.1302   22.9611 C   0  0  0  0  0  0  0  0  0  0  0  0
   10.3575   -0.6665   23.9451 H   0  0  0  0  0  0  0  0  0  0  0  0
   10.6629   -2.1384   23.0394 H   0  0  0  0  0  0  0  0  0  0  0  0
   10.9506   -0.2874   21.8376 C   0  0  2  0  0  0  0  0  0  0  0  0
   11.7698   -0.8813   21.4293 H   0  0  0  0  0  0  0  0  0  0  0  0
   11.4989    1.0183   22.3723 C   0  0  0  0  0  0  0  0  0  0  0  0
   10.6174    2.0018   22.8543 C   0  0  0  0  0  0  0  0  0  0  0  0
    9.5448    1.8000   22.8514 H   0  0  0  0  0  0  0  0  0  0  0  0
   11.0786    3.2351   23.3149 C   0  0  0  0  0  0  0  0  0  0  0  0
   10.3950    3.9988   23.6651 H   0  0  0  0  0  0  0  0  0  0  0  0
   12.4465    3.4912   23.2693 C   0  0  0  0  0  0  0  0  0  0  0  0
   12.8967    4.6979   23.6436 F   0  0  0  0  0  0  0  0  0  0  0  0
   13.3668    2.5425   22.8398 C   0  0  0  0  0  0  0  0  0  0  0  0
   14.4237    2.7676   22.7821 H   0  0  0  0  0  0  0  0  0  0  0  0
   12.8695    1.3084   22.4318 C   0  0  0  0  0  0  0  0  0  0  0  0
   13.7636    0.3677   22.0689 F   0  0  0  0  0  0  0  0  0  0  0  0
    9.8822   -0.0561   20.7120 C   0  0  0  0  0  0  0  0  0  0  0  0
   10.1520   -0.6274   19.8246 H   0  0  0  0  0  0  0  0  0  0  0  0
    9.8055    0.9922   20.4000 H   0  0  0  0  0  0  0  0  0  0  0  0
    5.2657    0.6664   20.1145 C   0  0  0  0  0  0  0  0  0  0  0  0
    4.7662    0.6991   21.0882 H   0  0  0  0  0  0  0  0  0  0  0  0
    4.7226    1.3344   19.0153 C   0  0  0  0  0  0  0  0  0  0  0  0
    3.8050    1.9041   19.1002 H   0  0  0  0  0  0  0  0  0  0  0  0
  1  2  1  0
  2  3  2  0
  3  4  1  0
  4  5  1  0
  4  6  2  0
  6  7  1  0
  7  8  2  0
  8  9  1  0
  9 10  2  0
 10 11  1  0
 11 12  1  0
  9 13  1  0
 13 14  1  0
 13 15  1  0
 13 16  1  0
 16 17  1  6
 16 18  1  0
 18 19  2  0
 19 20  1  0
 19 21  1  0
 21 22  1  0
 21 23  2  0
 23 24  1  0
 23 25  1  0
 25 26  1  0
 25 27  2  0
 27 28  1  0
 16 29  1  0
 29 30  1  0
 29 31  1  0
  6 32  1  0
 32 33  1  0
 32 34  2  0
 34 35  1  0
 34  2  1  0
 11  7  1  0
 27 18  1  0
 29  8  1  0
M  END
>  <cnnaffinity>  (1) 
-5.82684

>  <filename>  (1) 
Fc1ccc([C@H]2Cc3n[nH]c(-c4cccnc4)c3C2)c(F)c1

$$$$
