
     RDKit          3D

 27 29  0  0  0  0  0  0  0  0999 V2000
    4.9108    1.7818   16.9999 H   0  0  0  0  0  0  0  0  0  0  0  0
    5.3986    1.2919   17.8432 C   0  0  0  0  0  0  0  0  0  0  0  0
    6.5563    0.6718   17.5777 N   0  0  0  0  0  0  0  0  0  0  0  0
    7.1880    0.0594   18.5859 C   0  0  0  0  0  0  0  0  0  0  0  0
    8.1361   -0.4248   18.3632 H   0  0  0  0  0  0  0  0  0  0  0  0
    6.6895    0.0212   19.9021 C   0  0  0  0  0  0  0  0  0  0  0  0
    7.2971   -0.6905   20.9518 O   0  0  0  0  0  0  0  0  0  0  0  0
    8.6316   -0.7852   21.0824 C   0  0  0  0  0  0  0  0  0  0  0  0
    9.5540   -0.0878   20.4623 N   0  0  0  0  0  0  0  0  0  0  0  0
   10.7279   -0.5273   20.9755 N   0  0  0  0  0  0  0  0  0  0  0  0
   10.5555   -1.4436   21.8417 N   0  0  0  0  0  0  0  0  0  0  0  0
    9.2095   -1.6511   21.9404 N   0  0  0  0  0  0  0  0  0  0  0  0
    8.6520   -2.6250   22.8236 C   0  0  0  0  0  0  0  0  0  0  0  0
    7.4234   -3.2178   22.5113 C   0  0  0  0  0  0  0  0  0  0  0  0
    6.8770   -2.9803   21.6093 H   0  0  0  0  0  0  0  0  0  0  0  0
    6.8949   -4.1385   23.4100 C   0  0  0  0  0  0  0  0  0  0  0  0
    5.7148   -4.6986   23.1213 F   0  0  0  0  0  0  0  0  0  0  0  0
    7.5259   -4.5076   24.5907 C   0  0  0  0  0  0  0  0  0  0  0  0
    7.0889   -5.2304   25.2737 H   0  0  0  0  0  0  0  0  0  0  0  0
    8.7516   -3.9013   24.8476 C   0  0  0  0  0  0  0  0  0  0  0  0
    9.3937   -4.2427   25.9700 F   0  0  0  0  0  0  0  0  0  0  0  0
    9.3368   -2.9689   23.9971 C   0  0  0  0  0  0  0  0  0  0  0  0
   10.3015   -2.5403   24.2478 H   0  0  0  0  0  0  0  0  0  0  0  0
    5.4654    0.6414   20.1715 C   0  0  0  0  0  0  0  0  0  0  0  0
    5.0331    0.6128   21.1726 H   0  0  0  0  0  0  0  0  0  0  0  0
    4.8200    1.3017   19.1166 C   0  0  0  0  0  0  0  0  0  0  0  0
    3.8854    1.8334   19.2687 H   0  0  0  0  0  0  0  0  0  0  0  0
  1  2  1  0
  2  3  2  0
  3  4  1  0
  4  5  1  0
  4  6  2  0
  6  7  1  0
  7  8  1  0
  8  9  2  0
  9 10  1  0
 10 11  2  0
 11 12  1  0
 12 13  1  0
 13 14  2  0
 14 15  1  0
 14 16  1  0
 16 17  1  0
 16 18  2  0
 18 19  1  0
 18 20  1  0
 20 21  1  0
 20 22  2  0
 22 23  1  0
  6 24  1  0
 24 25  1  0
 24 26  2  0
 26 27  1  0
 26  2  1  0
 12  8  1  0
 22 13  1  0
M  END
>  <cnnaffinity>  (1) 
-5.41225

>  <filename>  (1) 
Fc1cc(F)cc(-n2nnnc2Oc2cccnc2)c1

$$$$
