
     RDKit          3D

 26 28  0  0  0  0  0  0  0  0999 V2000
    4.9196    1.7797   16.9994 H   0  0  0  0  0  0  0  0  0  0  0  0
    5.4063    1.2930   17.8406 C   0  0  0  0  0  0  0  0  0  0  0  0
    6.5712    0.6811   17.5777 N   0  0  0  0  0  0  0  0  0  0  0  0
    7.1726    0.0533   18.5887 C   0  0  0  0  0  0  0  0  0  0  0  0
    8.1196   -0.4326   18.3684 H   0  0  0  0  0  0  0  0  0  0  0  0
    6.6501   -0.0063   19.8858 C   0  0  0  0  0  0  0  0  0  0  0  0
    7.3804   -0.7366   20.9306 C   0  0  0  0  0  0  0  0  0  0  0  0
    7.9486   -1.8913   20.6992 N   0  0  0  0  0  0  0  0  0  0  0  0
    8.4401   -2.3279   21.9104 O   0  0  0  0  0  0  0  0  0  0  0  0
    8.1685   -1.4174   22.8416 C   0  0  0  0  0  0  0  0  0  0  0  0
    8.5194   -1.6165   23.8438 H   0  0  0  0  0  0  0  0  0  0  0  0
    7.5155   -0.3527   22.3096 C   0  0  0  0  0  0  0  0  0  0  0  0
    7.1288    0.8949   22.9925 C   0  0  0  0  0  0  0  0  0  0  0  0
    6.6512    0.8895   24.3200 C   0  0  0  0  0  0  0  0  0  0  0  0
    6.5504   -0.0612   24.8333 H   0  0  0  0  0  0  0  0  0  0  0  0
    6.3024    1.9891   24.9990 N   0  0  0  0  0  0  0  0  0  0  0  0
    6.4267    3.1612   24.3600 C   0  0  0  0  0  0  0  0  0  0  0  0
    6.1500    4.0551   24.9039 H   0  0  0  0  0  0  0  0  0  0  0  0
    6.8965    3.2627   23.0459 C   0  0  0  0  0  0  0  0  0  0  0  0
    6.9956    4.4670   22.4674 F   0  0  0  0  0  0  0  0  0  0  0  0
    7.2644    2.1303   22.3374 C   0  0  0  0  0  0  0  0  0  0  0  0
    7.6287    2.2010   21.3156 H   0  0  0  0  0  0  0  0  0  0  0  0
    5.4305    0.6380   20.1503 C   0  0  0  0  0  0  0  0  0  0  0  0
    5.0020    0.6349   21.1569 H   0  0  0  0  0  0  0  0  0  0  0  0
    4.8048    1.3066   19.1048 C   0  0  0  0  0  0  0  0  0  0  0  0
    3.8734    1.8436   19.2588 H   0  0  0  0  0  0  0  0  0  0  0  0
  1  2  1  0
  2  3  2  0
  3  4  1  0
  4  5  1  0
  4  6  2  0
  6  7  1  0
  7  8  2  0
  8  9  1  0
  9 10  1  0
 10 11  1  0
 10 12  2  0
 12 13  1  0
 13 14  2  0
 14 15  1  0
 14 16  1  0
 16 17  2  0
 17 18  1  0
 17 19  1  0
 19 20  1  0
 19 21  2  0
 21 22  1  0
  6 23  1  0
 23 24  1  0
 23 25  2  0
 25 26  1  0
 25  2  1  0
 12  7  1  0
 21 13  1  0
M  END
>  <cnnaffinity>  (1) 
-5.14179

>  <filename>  (1) 
Fc1cncc(-c2conc2-c2cccnc2)c1

$$$$
