
     RDKit          3D

 29 31  0  0  0  0  0  0  0  0999 V2000
    4.9151    1.8229   16.9228 H   0  0  0  0  0  0  0  0  0  0  0  0
    5.3856    1.3366   17.7776 C   0  0  0  0  0  0  0  0  0  0  0  0
    6.5417    0.6944   17.5414 N   0  0  0  0  0  0  0  0  0  0  0  0
    7.1297    0.0846   18.5803 C   0  0  0  0  0  0  0  0  0  0  0  0
    8.0615   -0.4361   18.3533 H   0  0  0  0  0  0  0  0  0  0  0  0
    6.6310    0.0967   19.8982 C   0  0  0  0  0  0  0  0  0  0  0  0
    7.3191   -0.6303   21.0210 C   0  0  0  0  0  0  0  0  0  0  0  0
    7.7386   -0.0228   22.2355 C   0  0  0  0  0  0  0  0  0  0  0  0
    7.5621    1.4170   22.5295 C   0  0  0  0  0  0  0  0  0  0  0  0
    6.9357    1.7319   23.7454 C   0  0  0  0  0  0  0  0  0  0  0  0
    6.6132    0.9307   24.4063 H   0  0  0  0  0  0  0  0  0  0  0  0
    6.6611    2.9787   24.1319 N   0  0  0  0  0  0  0  0  0  0  0  0
    7.0535    3.9743   23.3268 C   0  0  0  0  0  0  0  0  0  0  0  0
    6.8063    4.9917   23.6217 H   0  0  0  0  0  0  0  0  0  0  0  0
    7.7339    3.7496   22.1248 C   0  0  0  0  0  0  0  0  0  0  0  0
    8.1445    4.8199   21.4373 F   0  0  0  0  0  0  0  0  0  0  0  0
    7.9829    2.4547   21.6769 C   0  0  0  0  0  0  0  0  0  0  0  0
    8.4788    2.2687   20.7204 H   0  0  0  0  0  0  0  0  0  0  0  0
    8.2958   -0.7189   23.2420 N   0  0  0  0  0  0  0  0  0  0  0  0
    8.5450   -2.0144   23.0679 C   0  0  0  0  0  0  0  0  0  0  0  0
    9.0355   -2.5314   23.8930 H   0  0  0  0  0  0  0  0  0  0  0  0
    8.1765   -2.7105   21.9152 C   0  0  0  0  0  0  0  0  0  0  0  0
    8.4144   -3.7621   21.8146 H   0  0  0  0  0  0  0  0  0  0  0  0
    7.5133   -2.0155   20.9111 C   0  0  0  0  0  0  0  0  0  0  0  0
    7.1007   -2.5428   20.0541 H   0  0  0  0  0  0  0  0  0  0  0  0
    5.4200    0.7674   20.1167 C   0  0  0  0  0  0  0  0  0  0  0  0
    4.9945    0.7876   21.1218 H   0  0  0  0  0  0  0  0  0  0  0  0
    4.7814    1.3814   19.0369 C   0  0  0  0  0  0  0  0  0  0  0  0
    3.8279    1.8771   19.1552 H   0  0  0  0  0  0  0  0  0  0  0  0
  1  2  1  0
  2  3  2  0
  3  4  1  0
  4  5  1  0
  4  6  2  0
  6  7  1  0
  7  8  1  0
  8  9  1  0
  9 10  2  0
 10 11  1  0
 10 12  1  0
 12 13  2  0
 13 14  1  0
 13 15  1  0
 15 16  1  0
 15 17  2  0
 17 18  1  0
  8 19  2  0
 19 20  1  0
 20 21  1  0
 20 22  2  0
 22 23  1  0
 22 24  1  0
 24 25  1  0
  6 26  1  0
 26 27  1  0
 26 28  2  0
 28 29  1  0
 28  2  1  0
 24  7  2  0
 17  9  1  0
M  END
>  <cnnaffinity>  (1) 
-4.49198

>  <filename>  (1) 
Fc1cncc(-c2ncccc2-c2cccnc2)c1

$$$$
