
     RDKit          3D

 30 32  0  0  0  0  0  0  0  0999 V2000
    4.9118    1.7850   16.9949 H   0  0  0  0  0  0  0  0  0  0  0  0
    5.3962    1.2975   17.8375 C   0  0  0  0  0  0  0  0  0  0  0  0
    6.5603    0.6830   17.5719 N   0  0  0  0  0  0  0  0  0  0  0  0
    7.1722    0.0611   18.5896 C   0  0  0  0  0  0  0  0  0  0  0  0
    8.1199   -0.4291   18.3738 H   0  0  0  0  0  0  0  0  0  0  0  0
    6.6641   -0.0099   19.9112 C   0  0  0  0  0  0  0  0  0  0  0  0
    7.3233   -0.7151   20.9259 N   0  0  0  0  0  0  0  0  0  0  0  0
    6.7709   -1.0688   21.6976 H   0  0  0  0  0  0  0  0  0  0  0  0
    8.7105   -0.7645   21.1045 C   0  0  0  0  0  0  0  0  0  0  0  0
    9.6990    0.1453   20.6698 C   0  0  0  0  0  0  0  0  0  0  0  0
    9.5312    1.0237   20.0703 H   0  0  0  0  0  0  0  0  0  0  0  0
   10.9100   -0.1794   21.1034 N   0  0  0  0  0  0  0  0  0  0  0  0
   10.7084   -1.2972   21.8124 N   0  0  0  0  0  0  0  0  0  0  0  0
   11.4996   -1.7535   22.2385 H   0  0  0  0  0  0  0  0  0  0  0  0
    9.4115   -1.7095   21.8376 C   0  0  0  0  0  0  0  0  0  0  0  0
    8.9405   -2.9005   22.5326 C   0  0  0  0  0  0  0  0  0  0  0  0
    7.8831   -3.6512   21.9856 C   0  0  0  0  0  0  0  0  0  0  0  0
    7.4551   -3.3498   21.0338 H   0  0  0  0  0  0  0  0  0  0  0  0
    7.3987   -4.7806   22.6444 C   0  0  0  0  0  0  0  0  0  0  0  0
    6.5834   -5.3763   22.2455 H   0  0  0  0  0  0  0  0  0  0  0  0
    7.9885   -5.1230   23.8594 C   0  0  0  0  0  0  0  0  0  0  0  0
    7.5220   -6.1667   24.5394 F   0  0  0  0  0  0  0  0  0  0  0  0
    9.0416   -4.4136   24.4271 C   0  0  0  0  0  0  0  0  0  0  0  0
    9.4618   -4.7469   25.3718 H   0  0  0  0  0  0  0  0  0  0  0  0
    9.5154   -3.2952   23.7546 C   0  0  0  0  0  0  0  0  0  0  0  0
   10.3211   -2.7144   24.1947 H   0  0  0  0  0  0  0  0  0  0  0  0
    5.4432    0.6346   20.1628 C   0  0  0  0  0  0  0  0  0  0  0  0
    5.0197    0.6216   21.1682 H   0  0  0  0  0  0  0  0  0  0  0  0
    4.8111    1.3068   19.1092 C   0  0  0  0  0  0  0  0  0  0  0  0
    3.8798    1.8393   19.2638 H   0  0  0  0  0  0  0  0  0  0  0  0
  1  2  1  0
  2  3  2  0
  3  4  1  0
  4  5  1  0
  4  6  2  0
  6  7  1  0
  7  8  1  0
  7  9  1  0
  9 10  1  0
 10 11  1  0
 10 12  2  0
 12 13  1  0
 13 14  1  0
 13 15  1  0
 15 16  1  0
 16 17  2  0
 17 18  1  0
 17 19  1  0
 19 20  1  0
 19 21  2  0
 21 22  1  0
 21 23  1  0
 23 24  1  0
 23 25  2  0
 25 26  1  0
  6 27  1  0
 27 28  1  0
 27 29  2  0
 29 30  1  0
 29  2  1  0
 15  9  2  0
 25 16  1  0
M  END
>  <cnnaffinity>  (1) 
-5.49464

>  <filename>  (1) 
Fc1ccc(-c2[nH]ncc2Nc2cccnc2)cc1

$$$$
