
     RDKit          3D

 29 32  0  0  0  0  0  0  0  0999 V2000
    4.9184    1.7772   17.0004 H   0  0  0  0  0  0  0  0  0  0  0  0
    5.4052    1.2901   17.8410 C   0  0  0  0  0  0  0  0  0  0  0  0
    6.5698    0.6772   17.5742 N   0  0  0  0  0  0  0  0  0  0  0  0
    7.1727    0.0563   18.5888 C   0  0  0  0  0  0  0  0  0  0  0  0
    8.1226   -0.4336   18.3724 H   0  0  0  0  0  0  0  0  0  0  0  0
    6.6461    0.0111   19.8912 C   0  0  0  0  0  0  0  0  0  0  0  0
    7.4025   -0.6967   20.9234 C   0  0  0  0  0  0  0  0  0  0  0  0
    8.3290   -1.5977   20.7070 N   0  0  0  0  0  0  0  0  0  0  0  0
    8.8295   -2.0273   21.9148 N   0  0  0  0  0  0  0  0  0  0  0  0
    8.2010   -1.3403   22.8317 C   0  0  0  0  0  0  0  0  0  0  0  0
    8.2818   -1.0887   24.5517 S   0  0  0  0  0  0  0  0  0  0  0  0
    7.0520    0.1822   24.3304 C   0  0  0  0  0  0  0  0  0  0  0  0
    6.5463    1.0055   25.4468 C   0  0  0  0  0  0  0  0  0  0  0  0
    5.6562    2.0677   25.1929 C   0  0  0  0  0  0  0  0  0  0  0  0
    5.3584    2.2555   24.1671 H   0  0  0  0  0  0  0  0  0  0  0  0
    5.1642    2.8641   26.2240 C   0  0  0  0  0  0  0  0  0  0  0  0
    4.4791    3.6726   25.9940 H   0  0  0  0  0  0  0  0  0  0  0  0
    5.5530    2.6198   27.5444 C   0  0  0  0  0  0  0  0  0  0  0  0
    5.1676    3.2418   28.3470 H   0  0  0  0  0  0  0  0  0  0  0  0
    6.4338    1.5770   27.8339 C   0  0  0  0  0  0  0  0  0  0  0  0
    6.7484    1.3671   28.8517 H   0  0  0  0  0  0  0  0  0  0  0  0
    6.9155    0.7872   26.7890 C   0  0  0  0  0  0  0  0  0  0  0  0
    7.7510   -0.2054   27.0939 F   0  0  0  0  0  0  0  0  0  0  0  0
    6.6320    0.3612   23.1136 N   0  0  0  0  0  0  0  0  0  0  0  0
    7.2721   -0.5134   22.2867 N   0  0  0  0  0  0  0  0  0  0  0  0
    5.4316    0.6520   20.1622 C   0  0  0  0  0  0  0  0  0  0  0  0
    5.0085    0.6359   21.1706 H   0  0  0  0  0  0  0  0  0  0  0  0
    4.8047    1.3078   19.1075 C   0  0  0  0  0  0  0  0  0  0  0  0
    3.8738    1.8433   19.2601 H   0  0  0  0  0  0  0  0  0  0  0  0
  1  2  1  0
  2  3  2  0
  3  4  1  0
  4  5  1  0
  4  6  2  0
  6  7  1  0
  7  8  2  0
  8  9  1  0
  9 10  2  0
 10 11  1  0
 11 12  1  0
 12 13  1  0
 13 14  2  0
 14 15  1  0
 14 16  1  0
 16 17  1  0
 16 18  2  0
 18 19  1  0
 18 20  1  0
 20 21  1  0
 20 22  2  0
 22 23  1  0
 12 24  2  0
 24 25  1  0
  6 26  1  0
 26 27  1  0
 26 28  2  0
 28 29  1  0
 28  2  1  0
 25  7  1  0
 25 10  1  0
 22 13  1  0
M  END
>  <cnnaffinity>  (1) 
-5.26014

>  <filename>  (1) 
Fc1ccccc1-c1nn2c(-c3cccnc3)nnc2s1

$$$$
