
     RDKit          3D

 40 43  0  0  0  0  0  0  0  0999 V2000
    2.0647   -0.5883   26.1176 F   0  0  0  0  0  0  0  0  0  0  0  0
    3.3756   -0.8588   26.1862 C   0  0  0  0  0  0  0  0  0  0  0  0
    3.8090   -1.7462   27.1949 C   0  0  0  0  0  0  0  0  0  0  0  0
    5.1533   -2.0565   27.2767 C   0  0  0  0  0  0  0  0  0  0  0  0
    6.0698   -1.5716   26.3163 C   0  0  0  0  0  0  0  0  0  0  0  0
    7.3990   -1.9790   26.3776 N   0  0  0  0  0  0  0  0  0  0  0  0
    8.1551   -1.5330   25.4016 C   0  0  0  0  0  0  0  0  0  0  0  0
    7.6524   -0.6860   24.2874 C   0  0  0  0  0  0  0  0  0  0  0  0
    8.4711   -0.3617   23.2412 N   0  0  0  0  0  0  0  0  0  0  0  0
    9.9199   -0.5144   23.3067 C   0  0  0  0  0  0  0  0  0  0  0  0
   10.4193    0.0553   21.9790 C   0  0  0  0  0  0  0  0  0  0  0  0
    9.2665    0.9190   21.4582 C   0  0  0  0  0  0  0  0  0  0  0  0
    7.9923    0.2698   22.0124 C   0  0  0  0  0  0  0  0  0  0  0  0
    7.3428   -0.7264   21.0111 C   0  0  0  0  0  0  0  0  0  0  0  0
    6.6363   -0.0347   19.8491 C   0  0  0  0  0  0  0  0  0  0  0  0
    5.4264    0.6380   20.0933 C   0  0  0  0  0  0  0  0  0  0  0  0
    4.7937    1.3116   19.0507 C   0  0  0  0  0  0  0  0  0  0  0  0
    5.3907    1.3105   17.7878 C   0  0  0  0  0  0  0  0  0  0  0  0
    6.5406    0.6754   17.5181 N   0  0  0  0  0  0  0  0  0  0  0  0
    7.1388    0.0287   18.5316 C   0  0  0  0  0  0  0  0  0  0  0  0
    8.0826   -0.4570   18.2717 H   0  0  0  0  0  0  0  0  0  0  0  0
    4.9274    1.8498   16.9639 H   0  0  0  0  0  0  0  0  0  0  0  0
    3.8691    1.8526   19.2131 H   0  0  0  0  0  0  0  0  0  0  0  0
    5.0048    0.6466   21.1017 H   0  0  0  0  0  0  0  0  0  0  0  0
    8.1186   -1.4195   20.6564 H   0  0  0  0  0  0  0  0  0  0  0  0
    6.6191   -1.3252   21.5780 H   0  0  0  0  0  0  0  0  0  0  0  0
    7.2433    1.0239   22.2786 H   0  0  0  0  0  0  0  0  0  0  0  0
    9.3439    1.9475   21.8215 H   0  0  0  0  0  0  0  0  0  0  0  0
    9.2452    0.9593   20.3665 H   0  0  0  0  0  0  0  0  0  0  0  0
   11.3379    0.6300   22.1124 H   0  0  0  0  0  0  0  0  0  0  0  0
   10.6408   -0.7592   21.2831 H   0  0  0  0  0  0  0  0  0  0  0  0
   10.3276    0.0368   24.1665 H   0  0  0  0  0  0  0  0  0  0  0  0
   10.2032   -1.5685   23.4296 H   0  0  0  0  0  0  0  0  0  0  0  0
    6.4055   -0.2352   24.2684 N   0  0  0  0  0  0  0  0  0  0  0  0
    5.5986   -0.6839   25.2889 C   0  0  0  0  0  0  0  0  0  0  0  0
    4.2437   -0.2787   25.2942 C   0  0  0  0  0  0  0  0  0  0  0  0
    3.9352    0.4371   24.5461 H   0  0  0  0  0  0  0  0  0  0  0  0
    9.2077   -1.8052   25.4305 H   0  0  0  0  0  0  0  0  0  0  0  0
    5.5564   -2.7106   28.0384 H   0  0  0  0  0  0  0  0  0  0  0  0
    3.0735   -2.1700   27.8720 H   0  0  0  0  0  0  0  0  0  0  0  0
  1  2  1  0
  2  3  2  0
  3  4  1  0
  4  5  2  0
  5  6  1  0
  6  7  2  0
  7  8  1  0
  8  9  1  0
  9 10  1  0
 10 11  1  0
 11 12  1  0
 12 13  1  0
 13 14  1  0
 14 15  1  0
 15 16  2  0
 16 17  1  0
 17 18  2  0
 18 19  1  0
 19 20  2  0
 20 21  1  0
 18 22  1  0
 17 23  1  0
 16 24  1  0
 14 25  1  0
 14 26  1  0
 13 27  1  0
 12 28  1  0
 12 29  1  0
 11 30  1  0
 11 31  1  0
 10 32  1  0
 10 33  1  0
  8 34  2  0
 34 35  1  0
 35 36  2  0
 36 37  1  0
  7 38  1  0
  4 39  1  0
  3 40  1  0
 36  2  1  0
 35  5  1  0
 13  9  1  0
 20 15  1  0
M  END
>  <cnnaffinity>  (1) 
-5.68621

>  <filename>  (1) 
Fc1ccc2ncc(N3CCCC3Cc3cccnc3)nc2c1

$$$$
