
     RDKit          3D

 38 40  0  0  0  0  0  0  0  0999 V2000
    4.9133    1.8124   16.9798 H   0  0  0  0  0  0  0  0  0  0  0  0
    5.3944    1.3103   17.8168 C   0  0  0  0  0  0  0  0  0  0  0  0
    6.5619    0.7038   17.5491 N   0  0  0  0  0  0  0  0  0  0  0  0
    7.1871    0.0828   18.5599 C   0  0  0  0  0  0  0  0  0  0  0  0
    8.1306   -0.4003   18.3109 H   0  0  0  0  0  0  0  0  0  0  0  0
    6.6942   -0.0102   19.8888 C   0  0  0  0  0  0  0  0  0  0  0  0
    7.3865   -0.7187   20.9021 N   0  0  0  0  0  0  0  0  0  0  0  0
    6.6958   -1.6737   21.7574 C   0  0  0  0  0  0  0  0  0  0  0  0
    5.7044   -1.8453   21.3279 H   0  0  0  0  0  0  0  0  0  0  0  0
    7.2301   -2.6435   21.7544 H   0  0  0  0  0  0  0  0  0  0  0  0
    6.4665   -1.2351   23.2244 C   0  0  0  0  0  0  0  0  0  0  0  0
    6.0271   -0.2184   23.2247 H   0  0  0  0  0  0  0  0  0  0  0  0
    5.7406   -1.9459   23.6348 H   0  0  0  0  0  0  0  0  0  0  0  0
    7.5989   -1.2688   24.1189 N   0  0  0  0  0  0  0  0  0  0  0  0
    7.6062   -2.2080   25.1533 C   0  0  0  0  0  0  0  0  0  0  0  0
    8.6710   -3.1030   25.2903 C   0  0  0  0  0  0  0  0  0  0  0  0
    9.4811   -3.1023   24.5733 H   0  0  0  0  0  0  0  0  0  0  0  0
    8.6288   -4.0195   26.3277 C   0  0  0  0  0  0  0  0  0  0  0  0
    9.6503   -4.8800   26.4582 F   0  0  0  0  0  0  0  0  0  0  0  0
    7.5777   -4.0712   27.2413 C   0  0  0  0  0  0  0  0  0  0  0  0
    7.5814   -4.7712   28.0625 H   0  0  0  0  0  0  0  0  0  0  0  0
    6.5276   -3.1715   27.0641 C   0  0  0  0  0  0  0  0  0  0  0  0
    5.4935   -3.1880   27.9206 F   0  0  0  0  0  0  0  0  0  0  0  0
    6.5087   -2.2568   26.0274 C   0  0  0  0  0  0  0  0  0  0  0  0
    5.6801   -1.5702   25.8974 H   0  0  0  0  0  0  0  0  0  0  0  0
    8.7624   -0.5010   23.7361 C   0  0  0  0  0  0  0  0  0  0  0  0
    9.4888   -0.5442   24.5609 H   0  0  0  0  0  0  0  0  0  0  0  0
    8.4630    0.5598   23.6420 H   0  0  0  0  0  0  0  0  0  0  0  0
    9.4101   -0.9577   22.4139 C   0  0  0  0  0  0  0  0  0  0  0  0
    9.3998   -2.0552   22.3619 H   0  0  0  0  0  0  0  0  0  0  0  0
   10.4593   -0.6412   22.4095 H   0  0  0  0  0  0  0  0  0  0  0  0
    8.7858   -0.3866   21.1323 C   0  0  0  0  0  0  0  0  0  0  0  0
    9.3926   -0.7179   20.2691 H   0  0  0  0  0  0  0  0  0  0  0  0
    8.8679    0.7150   21.1373 H   0  0  0  0  0  0  0  0  0  0  0  0
    5.4640    0.6333   20.1338 C   0  0  0  0  0  0  0  0  0  0  0  0
    5.0431    0.5992   21.1391 H   0  0  0  0  0  0  0  0  0  0  0  0
    4.8148    1.3087   19.0920 C   0  0  0  0  0  0  0  0  0  0  0  0
    3.8742    1.8299   19.2522 H   0  0  0  0  0  0  0  0  0  0  0  0
  1  2  1  0
  2  3  2  0
  3  4  1  0
  4  5  1  0
  4  6  2  0
  6  7  1  0
  7  8  1  0
  8  9  1  0
  8 10  1  0
  8 11  1  0
 11 12  1  0
 11 13  1  0
 11 14  1  0
 14 15  1  0
 15 16  2  0
 16 17  1  0
 16 18  1  0
 18 19  1  0
 18 20  2  0
 20 21  1  0
 20 22  1  0
 22 23  1  0
 22 24  2  0
 24 25  1  0
 14 26  1  0
 26 27  1  0
 26 28  1  0
 26 29  1  0
 29 30  1  0
 29 31  1  0
 29 32  1  0
 32 33  1  0
 32 34  1  0
  6 35  1  0
 35 36  1  0
 35 37  2  0
 37 38  1  0
 37  2  1  0
 32  7  1  0
 24 15  1  0
M  END
>  <cnnaffinity>  (1) 
-5.21624

>  <filename>  (1) 
Fc1cc(F)cc(N2CCCN(c3cccnc3)CC2)c1

$$$$
