
     RDKit          3D

 29 32  0  0  0  0  0  0  0  0999 V2000
    4.9220    1.7717   17.0044 H   0  0  0  0  0  0  0  0  0  0  0  0
    5.4090    1.2859   17.8475 C   0  0  0  0  0  0  0  0  0  0  0  0
    6.5743    0.6692   17.5957 N   0  0  0  0  0  0  0  0  0  0  0  0
    7.1817    0.0537   18.6148 C   0  0  0  0  0  0  0  0  0  0  0  0
    8.1273   -0.4334   18.3843 H   0  0  0  0  0  0  0  0  0  0  0  0
    6.6480    0.0151   19.9105 C   0  0  0  0  0  0  0  0  0  0  0  0
    7.3626   -0.6891   20.9680 C   0  0  0  0  0  0  0  0  0  0  0  0
    8.5474   -1.3266   20.7595 N   0  0  0  0  0  0  0  0  0  0  0  0
    8.7970   -1.8151   21.9581 C   0  0  0  0  0  0  0  0  0  0  0  0
    9.9884   -2.8175   22.7301 S   0  0  0  0  0  0  0  0  0  0  0  0
    9.0713   -2.7671   24.2088 C   0  0  0  0  0  0  0  0  0  0  0  0
    9.4577   -3.2879   25.0749 H   0  0  0  0  0  0  0  0  0  0  0  0
    7.9518   -2.0196   24.1228 C   0  0  0  0  0  0  0  0  0  0  0  0
    6.9653   -1.7527   25.1937 C   0  0  0  0  0  0  0  0  0  0  0  0
    6.7492   -2.7155   26.2042 C   0  0  0  0  0  0  0  0  0  0  0  0
    7.2911   -3.6576   26.1865 H   0  0  0  0  0  0  0  0  0  0  0  0
    5.8797   -2.5568   27.2116 N   0  0  0  0  0  0  0  0  0  0  0  0
    5.1820   -1.4137   27.2598 C   0  0  0  0  0  0  0  0  0  0  0  0
    4.4768   -1.2808   28.0745 H   0  0  0  0  0  0  0  0  0  0  0  0
    5.3389   -0.4036   26.3026 C   0  0  0  0  0  0  0  0  0  0  0  0
    4.6169    0.7212   26.3970 F   0  0  0  0  0  0  0  0  0  0  0  0
    6.2328   -0.5514   25.2545 C   0  0  0  0  0  0  0  0  0  0  0  0
    6.3537    0.2308   24.5068 H   0  0  0  0  0  0  0  0  0  0  0  0
    7.8305   -1.4806   22.8363 N   0  0  0  0  0  0  0  0  0  0  0  0
    6.8792   -0.7496   22.2059 N   0  0  0  0  0  0  0  0  0  0  0  0
    5.4284    0.6578   20.1669 C   0  0  0  0  0  0  0  0  0  0  0  0
    5.0008    0.6329   21.1737 H   0  0  0  0  0  0  0  0  0  0  0  0
    4.8046    1.3102   19.1103 C   0  0  0  0  0  0  0  0  0  0  0  0
    3.8739    1.8435   19.2610 H   0  0  0  0  0  0  0  0  0  0  0  0
  1  2  1  0
  2  3  2  0
  3  4  1  0
  4  5  1  0
  4  6  2  0
  6  7  1  0
  7  8  1  0
  8  9  2  0
  9 10  1  0
 10 11  1  0
 11 12  1  0
 11 13  2  0
 13 14  1  0
 14 15  2  0
 15 16  1  0
 15 17  1  0
 17 18  2  0
 18 19  1  0
 18 20  1  0
 20 21  1  0
 20 22  2  0
 22 23  1  0
 13 24  1  0
 24 25  1  0
  6 26  1  0
 26 27  1  0
 26 28  2  0
 28 29  1  0
 28  2  1  0
 25  7  2  0
 24  9  1  0
 22 14  1  0
M  END
>  <cnnaffinity>  (1) 
-5.64115

>  <filename>  (1) 
Fc1cncc(-c2csc3nc(-c4cccnc4)nn23)c1

$$$$
