
     RDKit          3D

 29 32  0  0  0  0  0  0  0  0999 V2000
    4.9163    1.7756   17.0021 H   0  0  0  0  0  0  0  0  0  0  0  0
    5.4046    1.2899   17.8428 C   0  0  0  0  0  0  0  0  0  0  0  0
    6.5701    0.6778   17.5773 N   0  0  0  0  0  0  0  0  0  0  0  0
    7.1748    0.0565   18.5904 C   0  0  0  0  0  0  0  0  0  0  0  0
    8.1245   -0.4346   18.3740 H   0  0  0  0  0  0  0  0  0  0  0  0
    6.6476    0.0112   19.8915 C   0  0  0  0  0  0  0  0  0  0  0  0
    7.4032   -0.7007   20.9187 C   0  0  0  0  0  0  0  0  0  0  0  0
    8.3297   -1.6004   20.6995 N   0  0  0  0  0  0  0  0  0  0  0  0
    8.8302   -2.0342   21.9060 N   0  0  0  0  0  0  0  0  0  0  0  0
    8.1963   -1.3534   22.8198 C   0  0  0  0  0  0  0  0  0  0  0  0
    8.2628   -1.0953   24.5363 S   0  0  0  0  0  0  0  0  0  0  0  0
    7.0336    0.1736   24.3245 C   0  0  0  0  0  0  0  0  0  0  0  0
    6.5357    0.9660   25.4739 C   0  0  0  0  0  0  0  0  0  0  0  0
    7.0091    0.7471   26.7823 C   0  0  0  0  0  0  0  0  0  0  0  0
    7.7576   -0.0134   26.9928 H   0  0  0  0  0  0  0  0  0  0  0  0
    6.5246    1.5093   27.8461 C   0  0  0  0  0  0  0  0  0  0  0  0
    6.8798    1.3508   28.8575 H   0  0  0  0  0  0  0  0  0  0  0  0
    5.5684    2.4911   27.6140 C   0  0  0  0  0  0  0  0  0  0  0  0
    5.0997    3.2252   28.6305 F   0  0  0  0  0  0  0  0  0  0  0  0
    5.0916    2.7167   26.3184 C   0  0  0  0  0  0  0  0  0  0  0  0
    4.1705    3.6638   26.1041 F   0  0  0  0  0  0  0  0  0  0  0  0
    5.5659    1.9655   25.2533 C   0  0  0  0  0  0  0  0  0  0  0  0
    5.1822    2.1611   24.2573 H   0  0  0  0  0  0  0  0  0  0  0  0
    6.6210    0.3557   23.1075 N   0  0  0  0  0  0  0  0  0  0  0  0
    7.2691   -0.5187   22.2807 N   0  0  0  0  0  0  0  0  0  0  0  0
    5.4328    0.6523   20.1620 C   0  0  0  0  0  0  0  0  0  0  0  0
    5.0087    0.6353   21.1691 H   0  0  0  0  0  0  0  0  0  0  0  0
    4.8048    1.3084   19.1087 C   0  0  0  0  0  0  0  0  0  0  0  0
    3.8741    1.8435   19.2616 H   0  0  0  0  0  0  0  0  0  0  0  0
  1  2  1  0
  2  3  2  0
  3  4  1  0
  4  5  1  0
  4  6  2  0
  6  7  1  0
  7  8  2  0
  8  9  1  0
  9 10  2  0
 10 11  1  0
 11 12  1  0
 12 13  1  0
 13 14  2  0
 14 15  1  0
 14 16  1  0
 16 17  1  0
 16 18  2  0
 18 19  1  0
 18 20  1  0
 20 21  1  0
 20 22  2  0
 22 23  1  0
 12 24  2  0
 24 25  1  0
  6 26  1  0
 26 27  1  0
 26 28  2  0
 28 29  1  0
 28  2  1  0
 25  7  1  0
 25 10  1  0
 22 13  1  0
M  END
>  <cnnaffinity>  (1) 
-5.44042

>  <filename>  (1) 
Fc1ccc(-c2nn3c(-c4cccnc4)nnc3s2)cc1F

$$$$
