
     RDKit          3D

 40 43  0  0  0  0  0  0  0  0999 V2000
    4.6708   -3.0177   27.2396 F   0  0  0  0  0  0  0  0  0  0  0  0
    5.9766   -3.1886   27.0099 C   0  0  0  0  0  0  0  0  0  0  0  0
    6.6686   -4.0903   27.7830 C   0  0  0  0  0  0  0  0  0  0  0  0
    8.0610   -4.2485   27.5951 C   0  0  0  0  0  0  0  0  0  0  0  0
    8.7310   -3.5215   26.6298 C   0  0  0  0  0  0  0  0  0  0  0  0
    8.0311   -2.6001   25.8094 C   0  0  0  0  0  0  0  0  0  0  0  0
    8.7439   -1.8891   24.8652 N   0  0  0  0  0  0  0  0  0  0  0  0
    8.0482   -1.0703   24.0914 C   0  0  0  0  0  0  0  0  0  0  0  0
    8.7281   -0.3620   23.1289 N   0  0  0  0  0  0  0  0  0  0  0  0
   10.1737   -0.1596   23.2140 C   0  0  0  0  0  0  0  0  0  0  0  0
   10.4438    0.9943   22.2362 C   0  0  0  0  0  0  0  0  0  0  0  0
    9.2672    0.9805   21.2488 C   0  0  0  0  0  0  0  0  0  0  0  0
    8.0993    0.2784   21.9665 C   0  0  0  0  0  0  0  0  0  0  0  0
    7.3697   -0.7188   21.0268 C   0  0  0  0  0  0  0  0  0  0  0  0
    6.6366   -0.0282   19.8869 C   0  0  0  0  0  0  0  0  0  0  0  0
    5.4289    0.6432   20.1264 C   0  0  0  0  0  0  0  0  0  0  0  0
    4.7926    1.3152   19.0786 C   0  0  0  0  0  0  0  0  0  0  0  0
    5.3901    1.3076   17.8132 C   0  0  0  0  0  0  0  0  0  0  0  0
    6.5481    0.6855   17.5570 N   0  0  0  0  0  0  0  0  0  0  0  0
    7.1495    0.0521   18.5745 C   0  0  0  0  0  0  0  0  0  0  0  0
    8.1019   -0.4165   18.3270 H   0  0  0  0  0  0  0  0  0  0  0  0
    4.9222    1.8188   16.9710 H   0  0  0  0  0  0  0  0  0  0  0  0
    3.8638    1.8551   19.2285 H   0  0  0  0  0  0  0  0  0  0  0  0
    5.0050    0.6457   21.1339 H   0  0  0  0  0  0  0  0  0  0  0  0
    8.1206   -1.4231   20.6475 H   0  0  0  0  0  0  0  0  0  0  0  0
    6.6678   -1.3118   21.6233 H   0  0  0  0  0  0  0  0  0  0  0  0
    7.3654    1.0234   22.3151 H   0  0  0  0  0  0  0  0  0  0  0  0
    8.9773    1.9828   20.9204 H   0  0  0  0  0  0  0  0  0  0  0  0
    9.5192    0.4272   20.3337 H   0  0  0  0  0  0  0  0  0  0  0  0
   10.4831    1.9496   22.7729 H   0  0  0  0  0  0  0  0  0  0  0  0
   11.4057    0.8754   21.7286 H   0  0  0  0  0  0  0  0  0  0  0  0
   10.7039   -1.0848   22.9446 H   0  0  0  0  0  0  0  0  0  0  0  0
   10.4804    0.0765   24.2434 H   0  0  0  0  0  0  0  0  0  0  0  0
    6.5928   -0.9008   24.2879 C   0  0  0  0  0  0  0  0  0  0  0  0
    5.9041   -1.5390   25.2059 N   0  0  0  0  0  0  0  0  0  0  0  0
    6.6149   -2.4256   25.9919 C   0  0  0  0  0  0  0  0  0  0  0  0
    6.0473   -0.2064   23.6571 H   0  0  0  0  0  0  0  0  0  0  0  0
    9.7959   -3.6152   26.4600 H   0  0  0  0  0  0  0  0  0  0  0  0
    8.6033   -4.9356   28.2379 H   0  0  0  0  0  0  0  0  0  0  0  0
    6.1208   -4.6048   28.5661 H   0  0  0  0  0  0  0  0  0  0  0  0
  1  2  1  0
  2  3  2  0
  3  4  1  0
  4  5  2  0
  5  6  1  0
  6  7  2  0
  7  8  1  0
  8  9  1  0
  9 10  1  0
 10 11  1  0
 11 12  1  0
 12 13  1  0
 13 14  1  0
 14 15  1  0
 15 16  2  0
 16 17  1  0
 17 18  2  0
 18 19  1  0
 19 20  2  0
 20 21  1  0
 18 22  1  0
 17 23  1  0
 16 24  1  0
 14 25  1  0
 14 26  1  0
 13 27  1  0
 12 28  1  0
 12 29  1  0
 11 30  1  0
 11 31  1  0
 10 32  1  0
 10 33  1  0
  8 34  2  0
 34 35  1  0
 35 36  2  0
 34 37  1  0
  5 38  1  0
  4 39  1  0
  3 40  1  0
 36  2  1  0
 36  6  1  0
 13  9  1  0
 20 15  1  0
M  END
>  <cnnaffinity>  (1) 
-5.68075

>  <filename>  (1) 
Fc1cccc2nc(N3CCCC3Cc3cccnc3)cnc12

$$$$
