
     RDKit          3D

 32 34  0  0  0  0  0  0  0  0999 V2000
    4.9015    1.8385   17.0119 H   0  0  0  0  0  0  0  0  0  0  0  0
    5.3928    1.3004   17.8205 C   0  0  0  0  0  0  0  0  0  0  0  0
    6.5433    0.6818   17.5153 N   0  0  0  0  0  0  0  0  0  0  0  0
    7.1806    0.0411   18.5084 C   0  0  0  0  0  0  0  0  0  0  0  0
    8.1181   -0.4510   18.2456 H   0  0  0  0  0  0  0  0  0  0  0  0
    6.7173   -0.0345   19.8496 C   0  0  0  0  0  0  0  0  0  0  0  0
    7.4105   -0.7491   20.8756 N   0  0  0  0  0  0  0  0  0  0  0  0
    6.7318   -1.2514   21.4415 H   0  0  0  0  0  0  0  0  0  0  0  0
    8.2571   -0.0037   21.8447 C   0  0  0  0  0  0  0  0  0  0  0  0
    7.4601    0.9663   22.6976 C   0  0  0  0  0  0  0  0  0  0  0  0
    7.3699    2.3180   22.3262 C   0  0  0  0  0  0  0  0  0  0  0  0
    7.8993    2.6716   21.4445 H   0  0  0  0  0  0  0  0  0  0  0  0
    6.6883    3.2412   23.0170 N   0  0  0  0  0  0  0  0  0  0  0  0
    6.0415    2.8484   24.1220 C   0  0  0  0  0  0  0  0  0  0  0  0
    5.5013    3.5981   24.6881 H   0  0  0  0  0  0  0  0  0  0  0  0
    6.0549    1.5214   24.5648 C   0  0  0  0  0  0  0  0  0  0  0  0
    5.4048    1.1848   25.6901 F   0  0  0  0  0  0  0  0  0  0  0  0
    6.7622    0.5606   23.8565 C   0  0  0  0  0  0  0  0  0  0  0  0
    6.7847   -0.4602   24.2314 H   0  0  0  0  0  0  0  0  0  0  0  0
    9.1051   -1.0195   22.6391 C   0  0  0  0  0  0  0  0  0  0  0  0
    8.8008   -2.0545   22.4606 H   0  0  0  0  0  0  0  0  0  0  0  0
    9.1155   -0.8327   23.7133 H   0  0  0  0  0  0  0  0  0  0  0  0
   10.3905   -0.5457   21.9217 C   0  0  0  0  0  0  0  0  0  0  0  0
   10.8547   -1.2951   21.2722 H   0  0  0  0  0  0  0  0  0  0  0  0
   11.1600   -0.1446   22.5910 H   0  0  0  0  0  0  0  0  0  0  0  0
    9.5526    0.5240   21.1757 C   0  0  0  0  0  0  0  0  0  0  0  0
    9.8205    1.5551   21.4150 H   0  0  0  0  0  0  0  0  0  0  0  0
    9.5283    0.4031   20.0924 H   0  0  0  0  0  0  0  0  0  0  0  0
    5.4854    0.5924   20.1259 C   0  0  0  0  0  0  0  0  0  0  0  0
    5.1127    0.5843   21.1522 H   0  0  0  0  0  0  0  0  0  0  0  0
    4.8211    1.2766   19.0994 C   0  0  0  0  0  0  0  0  0  0  0  0
    3.8877    1.8061   19.2755 H   0  0  0  0  0  0  0  0  0  0  0  0
  1  2  1  0
  2  3  2  0
  3  4  1  0
  4  5  1  0
  4  6  2  0
  6  7  1  0
  7  8  1  0
  7  9  1  0
  9 10  1  0
 10 11  2  0
 11 12  1  0
 11 13  1  0
 13 14  2  0
 14 15  1  0
 14 16  1  0
 16 17  1  0
 16 18  2  0
 18 19  1  0
  9 20  1  0
 20 21  1  0
 20 22  1  0
 20 23  1  0
 23 24  1  0
 23 25  1  0
 23 26  1  0
 26 27  1  0
 26 28  1  0
  6 29  1  0
 29 30  1  0
 29 31  2  0
 31 32  1  0
 31  2  1  0
 26  9  1  0
 18 10  1  0
M  END
>  <cnnaffinity>  (1) 
-5.18724

>  <filename>  (1) 
Fc1cncc(C2(Nc3cccnc3)CCC2)c1

$$$$
