
     RDKit          3D

 30 32  0  0  0  0  0  0  0  0999 V2000
    4.9309    1.7744   16.9986 H   0  0  0  0  0  0  0  0  0  0  0  0
    5.4101    1.2866   17.8464 C   0  0  0  0  0  0  0  0  0  0  0  0
    6.5705    0.6643   17.6021 N   0  0  0  0  0  0  0  0  0  0  0  0
    7.1693    0.0528   18.6268 C   0  0  0  0  0  0  0  0  0  0  0  0
    8.1122   -0.4313   18.3769 H   0  0  0  0  0  0  0  0  0  0  0  0
    6.6455    0.0004   19.9243 C   0  0  0  0  0  0  0  0  0  0  0  0
    7.3704   -0.7205   21.0016 C   0  0  0  0  0  0  0  0  0  0  0  0
    6.6077   -1.3080   21.9370 N   0  0  0  0  0  0  0  0  0  0  0  0
    7.1998   -1.9610   22.9390 C   0  0  0  0  0  0  0  0  0  0  0  0
    6.3072   -2.6023   23.9597 C   0  0  0  0  0  0  0  0  0  0  0  0
    6.5581   -2.5468   25.3383 C   0  0  0  0  0  0  0  0  0  0  0  0
    7.6317   -1.8684   25.7876 F   0  0  0  0  0  0  0  0  0  0  0  0
    5.7544   -3.1511   26.2991 C   0  0  0  0  0  0  0  0  0  0  0  0
    6.0208   -3.0625   27.3483 H   0  0  0  0  0  0  0  0  0  0  0  0
    4.6257   -3.8528   25.8813 C   0  0  0  0  0  0  0  0  0  0  0  0
    3.9801   -4.3266   26.6125 H   0  0  0  0  0  0  0  0  0  0  0  0
    4.3216   -3.9437   24.5247 C   0  0  0  0  0  0  0  0  0  0  0  0
    3.4470   -4.4700   24.1635 H   0  0  0  0  0  0  0  0  0  0  0  0
    5.1602   -3.3254   23.5976 C   0  0  0  0  0  0  0  0  0  0  0  0
    4.8387   -3.4546   22.3070 F   0  0  0  0  0  0  0  0  0  0  0  0
    8.5987   -2.0640   23.0496 C   0  0  0  0  0  0  0  0  0  0  0  0
    9.0257   -2.6161   23.8757 H   0  0  0  0  0  0  0  0  0  0  0  0
    9.4014   -1.4489   22.0876 C   0  0  0  0  0  0  0  0  0  0  0  0
   10.4889   -1.4977   22.1529 H   0  0  0  0  0  0  0  0  0  0  0  0
    8.7738   -0.7635   21.0476 C   0  0  0  0  0  0  0  0  0  0  0  0
    9.3478   -0.2374   20.2969 H   0  0  0  0  0  0  0  0  0  0  0  0
    5.4263    0.6505   20.1671 C   0  0  0  0  0  0  0  0  0  0  0  0
    4.9944    0.6257   21.1691 H   0  0  0  0  0  0  0  0  0  0  0  0
    4.8083    1.3128   19.1088 C   0  0  0  0  0  0  0  0  0  0  0  0
    3.8751    1.8447   19.2549 H   0  0  0  0  0  0  0  0  0  0  0  0
  1  2  1  0
  2  3  2  0
  3  4  1  0
  4  5  1  0
  4  6  2  0
  6  7  1  0
  7  8  2  0
  8  9  1  0
  9 10  1  0
 10 11  2  0
 11 12  1  0
 11 13  1  0
 13 14  1  0
 13 15  2  0
 15 16  1  0
 15 17  1  0
 17 18  1  0
 17 19  2  0
 19 20  1  0
  9 21  2  0
 21 22  1  0
 21 23  1  0
 23 24  1  0
 23 25  2  0
 25 26  1  0
  6 27  1  0
 27 28  1  0
 27 29  2  0
 29 30  1  0
 29  2  1  0
 25  7  1  0
 19 10  1  0
M  END
>  <cnnaffinity>  (1) 
-5.06797

>  <filename>  (1) 
Fc1cccc(F)c1-c1cccc(-c2cccnc2)n1

$$$$
