
     RDKit          3D

 26 28  0  0  0  0  0  0  0  0999 V2000
    4.9140    1.7848   17.0000 H   0  0  0  0  0  0  0  0  0  0  0  0
    5.3974    1.2912   17.8409 C   0  0  0  0  0  0  0  0  0  0  0  0
    6.5538    0.6679   17.5761 N   0  0  0  0  0  0  0  0  0  0  0  0
    7.1890    0.0579   18.5837 C   0  0  0  0  0  0  0  0  0  0  0  0
    8.1365   -0.4215   18.3566 H   0  0  0  0  0  0  0  0  0  0  0  0
    6.6872    0.0261   19.9001 C   0  0  0  0  0  0  0  0  0  0  0  0
    7.2962   -0.6679   20.9576 O   0  0  0  0  0  0  0  0  0  0  0  0
    8.6307   -0.7627   21.0808 C   0  0  0  0  0  0  0  0  0  0  0  0
    9.5540   -0.0805   20.4568 N   0  0  0  0  0  0  0  0  0  0  0  0
   10.7298   -0.5468   20.9440 N   0  0  0  0  0  0  0  0  0  0  0  0
   10.5537   -1.4722   21.8047 N   0  0  0  0  0  0  0  0  0  0  0  0
    9.2059   -1.6460   21.9318 N   0  0  0  0  0  0  0  0  0  0  0  0
    8.6464   -2.5946   22.8409 C   0  0  0  0  0  0  0  0  0  0  0  0
    9.3645   -3.7466   23.2174 C   0  0  0  0  0  0  0  0  0  0  0  0
   10.3758   -3.8838   22.8659 H   0  0  0  0  0  0  0  0  0  0  0  0
    8.8638   -4.6864   24.0218 N   0  0  0  0  0  0  0  0  0  0  0  0
    7.6387   -4.4991   24.5318 C   0  0  0  0  0  0  0  0  0  0  0  0
    7.2392   -5.2559   25.2037 H   0  0  0  0  0  0  0  0  0  0  0  0
    6.8846   -3.3613   24.2245 C   0  0  0  0  0  0  0  0  0  0  0  0
    5.6655   -3.2123   24.7505 F   0  0  0  0  0  0  0  0  0  0  0  0
    7.3710   -2.3802   23.3701 C   0  0  0  0  0  0  0  0  0  0  0  0
    6.7712   -1.5016   23.1436 H   0  0  0  0  0  0  0  0  0  0  0  0
    5.4649    0.6428   20.1709 C   0  0  0  0  0  0  0  0  0  0  0  0
    5.0373    0.6105   21.1746 H   0  0  0  0  0  0  0  0  0  0  0  0
    4.8210    1.3007   19.1166 C   0  0  0  0  0  0  0  0  0  0  0  0
    3.8886    1.8298   19.2687 H   0  0  0  0  0  0  0  0  0  0  0  0
  1  2  1  0
  2  3  2  0
  3  4  1  0
  4  5  1  0
  4  6  2  0
  6  7  1  0
  7  8  1  0
  8  9  2  0
  9 10  1  0
 10 11  2  0
 11 12  1  0
 12 13  1  0
 13 14  2  0
 14 15  1  0
 14 16  1  0
 16 17  2  0
 17 18  1  0
 17 19  1  0
 19 20  1  0
 19 21  2  0
 21 22  1  0
  6 23  1  0
 23 24  1  0
 23 25  2  0
 25 26  1  0
 25  2  1  0
 12  8  1  0
 21 13  1  0
M  END
>  <cnnaffinity>  (1) 
-5.26653

>  <filename>  (1) 
Fc1cncc(-n2nnnc2Oc2cccnc2)c1

$$$$
