
     RDKit          3D

 32 34  0  0  0  0  0  0  0  0999 V2000
    5.6619   -1.6576   21.7106 H   0  0  0  0  0  0  0  0  0  0  0  0
    6.7257   -1.5345   21.7945 C   0  0  0  0  0  0  0  0  0  0  0  0
    7.3867   -0.7138   20.9579 C   0  0  0  0  0  0  0  0  0  0  0  0
    6.7001    0.0429   19.9116 C   0  0  0  0  0  0  0  0  0  0  0  0
    7.1987    0.0812   18.5998 C   0  0  0  0  0  0  0  0  0  0  0  0
    8.1306   -0.4297   18.3483 H   0  0  0  0  0  0  0  0  0  0  0  0
    6.5663    0.6739   17.5801 N   0  0  0  0  0  0  0  0  0  0  0  0
    5.4031    1.2897   17.8434 C   0  0  0  0  0  0  0  0  0  0  0  0
    4.9213    1.7787   17.0004 H   0  0  0  0  0  0  0  0  0  0  0  0
    4.8154    1.3104   19.1111 C   0  0  0  0  0  0  0  0  0  0  0  0
    3.8836    1.8334   19.2590 H   0  0  0  0  0  0  0  0  0  0  0  0
    5.4577    0.6584   20.1597 C   0  0  0  0  0  0  0  0  0  0  0  0
    5.0228    0.6277   21.1605 H   0  0  0  0  0  0  0  0  0  0  0  0
    8.7679   -0.5983   21.0978 N   0  0  0  0  0  0  0  0  0  0  0  0
    9.3208    0.0529   20.5697 H   0  0  0  0  0  0  0  0  0  0  0  0
    9.5165   -1.3194   21.9690 C   0  0  0  0  0  0  0  0  0  0  0  0
   11.1719   -1.1646   22.0466 S   0  0  0  0  0  0  0  0  0  0  0  0
    8.8440   -2.1807   22.7469 N   0  0  0  0  0  0  0  0  0  0  0  0
    9.4403   -2.6425   23.4099 H   0  0  0  0  0  0  0  0  0  0  0  0
    7.3875   -2.1771   22.9502 C   0  0  1  0  0  0  0  0  0  0  0  0
    7.0749   -3.2300   23.0026 H   0  0  0  0  0  0  0  0  0  0  0  0
    6.9865   -1.5228   24.2867 C   0  0  0  0  0  0  0  0  0  0  0  0
    7.3672   -0.2062   24.5643 C   0  0  0  0  0  0  0  0  0  0  0  0
    7.9721    0.3459   23.8479 H   0  0  0  0  0  0  0  0  0  0  0  0
    6.9754    0.4122   25.7538 C   0  0  0  0  0  0  0  0  0  0  0  0
    7.2651    1.4303   25.9900 H   0  0  0  0  0  0  0  0  0  0  0  0
    6.1914   -0.2919   26.6647 C   0  0  0  0  0  0  0  0  0  0  0  0
    5.8117    0.2926   27.8083 F   0  0  0  0  0  0  0  0  0  0  0  0
    5.7983   -1.6069   26.3886 C   0  0  0  0  0  0  0  0  0  0  0  0
    5.0422   -2.2748   27.2698 F   0  0  0  0  0  0  0  0  0  0  0  0
    6.1911   -2.2228   25.2042 C   0  0  0  0  0  0  0  0  0  0  0  0
    5.8583   -3.2412   25.0208 H   0  0  0  0  0  0  0  0  0  0  0  0
  1  2  1  0
  2  3  2  0
  3  4  1  0
  4  5  2  0
  5  6  1  0
  5  7  1  0
  7  8  2  0
  8  9  1  0
  8 10  1  0
 10 11  1  0
 10 12  2  0
 12 13  1  0
  3 14  1  0
 14 15  1  0
 14 16  1  0
 16 17  2  0
 16 18  1  0
 18 19  1  0
 18 20  1  0
 20 21  1  1
 20 22  1  0
 22 23  2  0
 23 24  1  0
 23 25  1  0
 25 26  1  0
 25 27  2  0
 27 28  1  0
 27 29  1  0
 29 30  1  0
 29 31  2  0
 31 32  1  0
 20  2  1  0
 31 22  1  0
 12  4  1  0
M  END
>  <cnnaffinity>  (1) 
-5.26424

>  <filename>  (1) 
Fc1ccc([C@H]2C=C(c3cccnc3)NC(=S)N2)cc1F

$$$$
