
     RDKit          3D

 35 37  0  0  0  0  0  0  0  0999 V2000
    8.3390    1.1118   23.7302 H   0  0  0  0  0  0  0  0  0  0  0  0
    8.0434    0.9757   22.6858 C   0  0  0  0  0  0  0  0  0  0  0  0
    7.8681   -0.2814   22.2549 C   0  0  0  0  0  0  0  0  0  0  0  0
    7.3289   -0.8055   20.9775 C   0  0  0  0  0  0  0  0  0  0  0  0
    6.6300   -0.0165   19.9331 C   0  0  0  0  0  0  0  0  0  0  0  0
    7.1581   -0.0428   18.6397 C   0  0  0  0  0  0  0  0  0  0  0  0
    8.0544   -0.6228   18.4236 H   0  0  0  0  0  0  0  0  0  0  0  0
    6.6197    0.6134   17.6081 N   0  0  0  0  0  0  0  0  0  0  0  0
    5.4906    1.3040   17.8347 C   0  0  0  0  0  0  0  0  0  0  0  0
    5.0745    1.8275   16.9763 H   0  0  0  0  0  0  0  0  0  0  0  0
    4.8510    1.3503   19.0774 C   0  0  0  0  0  0  0  0  0  0  0  0
    3.9274    1.9065   19.1903 H   0  0  0  0  0  0  0  0  0  0  0  0
    5.4305    0.6728   20.1527 C   0  0  0  0  0  0  0  0  0  0  0  0
    4.9577    0.6642   21.1358 H   0  0  0  0  0  0  0  0  0  0  0  0
    7.4875   -2.0680   20.8119 N   0  0  0  0  0  0  0  0  0  0  0  0
    8.0920   -2.6510   22.0120 C   0  0  0  0  0  0  0  0  0  0  0  0
    9.0303   -3.1293   21.7160 H   0  0  0  0  0  0  0  0  0  0  0  0
    7.4264   -3.4312   22.3952 H   0  0  0  0  0  0  0  0  0  0  0  0
    8.3084   -1.5114   23.0358 C   0  0  0  0  0  0  0  0  0  0  0  0
    9.3549   -1.4253   23.3509 H   0  0  0  0  0  0  0  0  0  0  0  0
    7.6965   -1.6446   23.9357 H   0  0  0  0  0  0  0  0  0  0  0  0
    7.9027    2.2417   21.8670 C   0  0  0  0  0  0  0  0  0  0  0  0
    6.8358    2.4693   21.7546 H   0  0  0  0  0  0  0  0  0  0  0  0
    8.2572    2.0516   20.8443 H   0  0  0  0  0  0  0  0  0  0  0  0
    8.6023    3.4516   22.4943 C   0  0  0  0  0  0  0  0  0  0  0  0
   10.0028    3.5724   22.4855 C   0  0  0  0  0  0  0  0  0  0  0  0
   10.5894    2.7845   22.0226 H   0  0  0  0  0  0  0  0  0  0  0  0
   10.6344    4.7063   23.0237 C   0  0  0  0  0  0  0  0  0  0  0  0
   11.7172    4.7982   22.9801 H   0  0  0  0  0  0  0  0  0  0  0  0
    9.8798    5.7434   23.5865 C   0  0  0  0  0  0  0  0  0  0  0  0
   10.3249    6.6608   23.9588 H   0  0  0  0  0  0  0  0  0  0  0  0
    8.4978    5.5844   23.6477 C   0  0  0  0  0  0  0  0  0  0  0  0
    7.7553    6.5368   24.2434 F   0  0  0  0  0  0  0  0  0  0  0  0
    7.8596    4.4519   23.1405 C   0  0  0  0  0  0  0  0  0  0  0  0
    6.7840    4.3718   23.2552 H   0  0  0  0  0  0  0  0  0  0  0  0
  1  2  1  0
  2  3  2  3
  3  4  1  0
  4  5  1  0
  5  6  2  0
  6  7  1  0
  6  8  1  0
  8  9  2  0
  9 10  1  0
  9 11  1  0
 11 12  1  0
 11 13  2  0
 13 14  1  0
  4 15  2  0
 15 16  1  0
 16 17  1  0
 16 18  1  0
 16 19  1  0
 19 20  1  0
 19 21  1  0
  2 22  1  0
 22 23  1  0
 22 24  1  0
 22 25  1  0
 25 26  2  0
 26 27  1  0
 26 28  1  0
 28 29  1  0
 28 30  2  0
 30 31  1  0
 30 32  1  0
 32 33  1  0
 32 34  2  0
 34 35  1  0
 19  3  1  0
 34 25  1  0
 13  5  1  0
M  END
>  <cnnaffinity>  (1) 
-5.44584

>  <filename>  (1) 
Fc1cccc(CC=C2CCN=C2c2cccnc2)c1

$$$$
