
     RDKit          3D

 30 33  0  0  0  0  0  0  0  0999 V2000
    4.9497    1.7797   16.9785 H   0  0  0  0  0  0  0  0  0  0  0  0
    5.4039    1.2864   17.8331 C   0  0  0  0  0  0  0  0  0  0  0  0
    6.5631    0.6542   17.6001 N   0  0  0  0  0  0  0  0  0  0  0  0
    7.1577    0.0783   18.6478 C   0  0  0  0  0  0  0  0  0  0  0  0
    8.1035   -0.4159   18.4283 H   0  0  0  0  0  0  0  0  0  0  0  0
    6.6546    0.1037   19.9662 C   0  0  0  0  0  0  0  0  0  0  0  0
    7.4290   -0.5866   21.0161 C   0  0  0  0  0  0  0  0  0  0  0  0
    8.2938   -1.6118   20.8523 C   0  0  0  0  0  0  0  0  0  0  0  0
    8.7125   -1.9761   19.9350 H   0  0  0  0  0  0  0  0  0  0  0  0
    8.8666   -2.2953   22.3441 S   0  0  0  0  0  0  0  0  0  0  0  0
    8.0754   -1.0238   23.2109 C   0  0  0  0  0  0  0  0  0  0  0  0
    8.0966   -0.5150   24.4178 N   0  0  0  0  0  0  0  0  0  0  0  0
    7.3305    0.6005   24.2571 C   0  0  0  0  0  0  0  0  0  0  0  0
    7.0912    1.5316   25.3642 C   0  0  0  0  0  0  0  0  0  0  0  0
    7.6433    1.3025   26.6370 C   0  0  0  0  0  0  0  0  0  0  0  0
    8.2662    0.4257   26.7833 H   0  0  0  0  0  0  0  0  0  0  0  0
    7.4105    2.1692   27.6985 C   0  0  0  0  0  0  0  0  0  0  0  0
    7.8285    1.9892   28.6815 H   0  0  0  0  0  0  0  0  0  0  0  0
    6.6156    3.2897   27.4728 C   0  0  0  0  0  0  0  0  0  0  0  0
    6.3774    4.1322   28.4841 F   0  0  0  0  0  0  0  0  0  0  0  0
    6.0560    3.5704   26.2347 C   0  0  0  0  0  0  0  0  0  0  0  0
    5.4431    4.4458   26.0626 H   0  0  0  0  0  0  0  0  0  0  0  0
    6.3066    2.6801   25.1970 C   0  0  0  0  0  0  0  0  0  0  0  0
    5.7664    2.9563   24.0143 F   0  0  0  0  0  0  0  0  0  0  0  0
    6.8390    0.7998   23.0335 N   0  0  0  0  0  0  0  0  0  0  0  0
    7.3267   -0.2744   22.3732 N   0  0  0  0  0  0  0  0  0  0  0  0
    5.4202    0.7493   20.1841 C   0  0  0  0  0  0  0  0  0  0  0  0
    4.9923    0.7969   21.1892 H   0  0  0  0  0  0  0  0  0  0  0  0
    4.7876    1.3379   19.0882 C   0  0  0  0  0  0  0  0  0  0  0  0
    3.8377    1.8492   19.1947 H   0  0  0  0  0  0  0  0  0  0  0  0
  1  2  1  0
  2  3  2  0
  3  4  1  0
  4  5  1  0
  4  6  2  0
  6  7  1  0
  7  8  2  0
  8  9  1  0
  8 10  1  0
 10 11  1  0
 11 12  2  0
 12 13  1  0
 13 14  1  0
 14 15  2  0
 15 16  1  0
 15 17  1  0
 17 18  1  0
 17 19  2  0
 19 20  1  0
 19 21  1  0
 21 22  1  0
 21 23  2  0
 23 24  1  0
 13 25  2  0
 25 26  1  0
  6 27  1  0
 27 28  1  0
 27 29  2  0
 29 30  1  0
 29  2  1  0
 26  7  1  0
 26 11  1  0
 23 14  1  0
M  END
>  <cnnaffinity>  (1) 
-5.35738

>  <filename>  (1) 
Fc1ccc(-c2nc3scc(-c4cccnc4)n3n2)c(F)c1

$$$$
