
     RDKit          3D

 30 32  0  0  0  0  0  0  0  0999 V2000
    4.9120    1.7783   16.9970 H   0  0  0  0  0  0  0  0  0  0  0  0
    5.4021    1.2938   17.8369 C   0  0  0  0  0  0  0  0  0  0  0  0
    6.5647    0.6776   17.5713 N   0  0  0  0  0  0  0  0  0  0  0  0
    7.1742    0.0710   18.5953 C   0  0  0  0  0  0  0  0  0  0  0  0
    8.1143   -0.4285   18.3751 H   0  0  0  0  0  0  0  0  0  0  0  0
    6.6555    0.0175   19.8963 C   0  0  0  0  0  0  0  0  0  0  0  0
    7.3795   -0.6933   20.9628 C   0  0  0  0  0  0  0  0  0  0  0  0
    8.7559   -0.5470   21.1165 C   0  0  0  0  0  0  0  0  0  0  0  0
    9.3208    0.1089   20.4671 H   0  0  0  0  0  0  0  0  0  0  0  0
    9.3759   -1.2328   22.1574 C   0  0  0  0  0  0  0  0  0  0  0  0
   10.4426   -1.1177   22.3083 H   0  0  0  0  0  0  0  0  0  0  0  0
    8.7298   -2.0336   23.0114 N   0  0  0  0  0  0  0  0  0  0  0  0
    7.4083   -2.1848   22.8518 C   0  0  0  0  0  0  0  0  0  0  0  0
    6.7002   -3.0877   23.8022 C   0  0  0  0  0  0  0  0  0  0  0  0
    5.7323   -4.0208   23.3988 C   0  0  0  0  0  0  0  0  0  0  0  0
    5.4379   -4.1445   22.0923 F   0  0  0  0  0  0  0  0  0  0  0  0
    5.0581   -4.8645   24.2793 C   0  0  0  0  0  0  0  0  0  0  0  0
    4.3243   -5.5701   23.9037 H   0  0  0  0  0  0  0  0  0  0  0  0
    5.3556   -4.7803   25.6385 C   0  0  0  0  0  0  0  0  0  0  0  0
    4.8489   -5.4290   26.3447 H   0  0  0  0  0  0  0  0  0  0  0  0
    6.3045   -3.8712   26.1007 C   0  0  0  0  0  0  0  0  0  0  0  0
    6.5567   -3.7942   27.1525 H   0  0  0  0  0  0  0  0  0  0  0  0
    6.9512   -3.0489   25.1810 C   0  0  0  0  0  0  0  0  0  0  0  0
    7.8380   -2.1770   25.6650 F   0  0  0  0  0  0  0  0  0  0  0  0
    6.6965   -1.5289   21.8423 C   0  0  0  0  0  0  0  0  0  0  0  0
    5.6283   -1.6745   21.7431 H   0  0  0  0  0  0  0  0  0  0  0  0
    5.4331    0.6525   20.1508 C   0  0  0  0  0  0  0  0  0  0  0  0
    5.0134    0.6324   21.1623 H   0  0  0  0  0  0  0  0  0  0  0  0
    4.8018    1.3178   19.1035 C   0  0  0  0  0  0  0  0  0  0  0  0
    3.8693    1.8469   19.2607 H   0  0  0  0  0  0  0  0  0  0  0  0
  1  2  1  0
  2  3  2  0
  3  4  1  0
  4  5  1  0
  4  6  2  0
  6  7  1  0
  7  8  2  0
  8  9  1  0
  8 10  1  0
 10 11  1  0
 10 12  2  0
 12 13  1  0
 13 14  1  0
 14 15  2  0
 15 16  1  0
 15 17  1  0
 17 18  1  0
 17 19  2  0
 19 20  1  0
 19 21  1  0
 21 22  1  0
 21 23  2  0
 23 24  1  0
 13 25  2  0
 25 26  1  0
  6 27  1  0
 27 28  1  0
 27 29  2  0
 29 30  1  0
 29  2  1  0
 25  7  1  0
 23 14  1  0
M  END
>  <cnnaffinity>  (1) 
-5.22328

>  <filename>  (1) 
Fc1cccc(F)c1-c1cc(-c2cccnc2)ccn1

$$$$
