
     RDKit          3D

 30 32  0  0  0  0  0  0  0  0999 V2000
    4.9709    1.8287   17.0027 H   0  0  0  0  0  0  0  0  0  0  0  0
    5.4263    1.2866   17.8277 C   0  0  0  0  0  0  0  0  0  0  0  0
    6.5761    0.6432   17.5633 N   0  0  0  0  0  0  0  0  0  0  0  0
    7.1741   -0.0134   18.5735 C   0  0  0  0  0  0  0  0  0  0  0  0
    8.0853   -0.5497   18.3109 H   0  0  0  0  0  0  0  0  0  0  0  0
    6.6748   -0.0429   19.9051 C   0  0  0  0  0  0  0  0  0  0  0  0
    7.2932   -0.6593   21.0057 N   0  0  0  0  0  0  0  0  0  0  0  0
    6.7093   -0.6876   21.8365 H   0  0  0  0  0  0  0  0  0  0  0  0
    8.6600   -0.5822   21.3158 C   0  0  0  0  0  0  0  0  0  0  0  0
    9.6672    0.2360   20.7424 C   0  0  0  0  0  0  0  0  0  0  0  0
    9.5298    0.9909   19.9832 H   0  0  0  0  0  0  0  0  0  0  0  0
   10.8633   -0.0160   21.2589 N   0  0  0  0  0  0  0  0  0  0  0  0
   10.6358   -0.9876   22.1560 N   0  0  0  0  0  0  0  0  0  0  0  0
   11.4144   -1.3672   22.6793 H   0  0  0  0  0  0  0  0  0  0  0  0
    9.3273   -1.3549   22.2620 C   0  0  0  0  0  0  0  0  0  0  0  0
    8.8418   -2.3802   23.2086 C   0  0  0  0  0  0  0  0  0  0  0  0
    9.5450   -3.5825   23.4254 C   0  0  0  0  0  0  0  0  0  0  0  0
   10.5233   -3.6974   22.9680 H   0  0  0  0  0  0  0  0  0  0  0  0
    9.0096   -4.6354   24.1625 C   0  0  0  0  0  0  0  0  0  0  0  0
    9.5487   -5.5682   24.3010 H   0  0  0  0  0  0  0  0  0  0  0  0
    7.7630   -4.4622   24.7559 C   0  0  0  0  0  0  0  0  0  0  0  0
    7.2284   -5.4819   25.4390 F   0  0  0  0  0  0  0  0  0  0  0  0
    7.0682   -3.2565   24.6821 C   0  0  0  0  0  0  0  0  0  0  0  0
    6.1360   -3.1082   25.2112 H   0  0  0  0  0  0  0  0  0  0  0  0
    7.6227   -2.2553   23.8943 C   0  0  0  0  0  0  0  0  0  0  0  0
    6.9405   -1.0856   23.8142 F   0  0  0  0  0  0  0  0  0  0  0  0
    5.4449    0.5839   20.1302 C   0  0  0  0  0  0  0  0  0  0  0  0
    5.0118    0.5379   21.1307 H   0  0  0  0  0  0  0  0  0  0  0  0
    4.8169    1.2680   19.0884 C   0  0  0  0  0  0  0  0  0  0  0  0
    3.8784    1.7901   19.2484 H   0  0  0  0  0  0  0  0  0  0  0  0
  1  2  1  0
  2  3  2  0
  3  4  1  0
  4  5  1  0
  4  6  2  0
  6  7  1  0
  7  8  1  0
  7  9  1  0
  9 10  1  0
 10 11  1  0
 10 12  2  0
 12 13  1  0
 13 14  1  0
 13 15  1  0
 15 16  1  0
 16 17  2  0
 17 18  1  0
 17 19  1  0
 19 20  1  0
 19 21  2  0
 21 22  1  0
 21 23  1  0
 23 24  1  0
 23 25  2  0
 25 26  1  0
  6 27  1  0
 27 28  1  0
 27 29  2  0
 29 30  1  0
 29  2  1  0
 15  9  2  0
 25 16  1  0
M  END
>  <cnnaffinity>  (1) 
-5.60296

>  <filename>  (1) 
Fc1ccc(-c2[nH]ncc2Nc2cccnc2)c(F)c1

$$$$
