
     RDKit          3D

 28 30  0  0  0  0  0  0  0  0999 V2000
    4.9194    1.7804   16.9985 H   0  0  0  0  0  0  0  0  0  0  0  0
    5.4021    1.2939   17.8406 C   0  0  0  0  0  0  0  0  0  0  0  0
    6.5678    0.6815   17.5776 N   0  0  0  0  0  0  0  0  0  0  0  0
    7.1683    0.0544   18.5902 C   0  0  0  0  0  0  0  0  0  0  0  0
    8.1164   -0.4343   18.3721 H   0  0  0  0  0  0  0  0  0  0  0  0
    6.6455    0.0126   19.8907 C   0  0  0  0  0  0  0  0  0  0  0  0
    7.3766   -0.7225   20.9102 C   0  0  0  0  0  0  0  0  0  0  0  0
    7.9755   -1.8546   20.6908 N   0  0  0  0  0  0  0  0  0  0  0  0
    8.4709   -2.1974   21.9082 N   0  0  0  0  0  0  0  0  0  0  0  0
    9.0154   -3.0288   22.0551 H   0  0  0  0  0  0  0  0  0  0  0  0
    8.2519   -1.2950   22.8835 C   0  0  0  0  0  0  0  0  0  0  0  0
    8.8078   -1.3749   24.4449 S   0  0  0  0  0  0  0  0  0  0  0  0
    7.5039   -0.3262   22.2340 N   0  0  0  0  0  0  0  0  0  0  0  0
    7.1155    0.9296   22.8166 C   0  0  0  0  0  0  0  0  0  0  0  0
    7.5071    2.1402   22.2339 C   0  0  0  0  0  0  0  0  0  0  0  0
    8.0793    2.1314   21.3138 H   0  0  0  0  0  0  0  0  0  0  0  0
    7.1210    3.3620   22.8004 C   0  0  0  0  0  0  0  0  0  0  0  0
    7.3924    4.3142   22.3524 H   0  0  0  0  0  0  0  0  0  0  0  0
    6.3629    3.3750   23.9655 C   0  0  0  0  0  0  0  0  0  0  0  0
    5.9958    4.5388   24.5237 F   0  0  0  0  0  0  0  0  0  0  0  0
    5.9862    2.1627   24.5572 C   0  0  0  0  0  0  0  0  0  0  0  0
    5.2654    2.1853   25.6850 F   0  0  0  0  0  0  0  0  0  0  0  0
    6.3528    0.9439   23.9886 C   0  0  0  0  0  0  0  0  0  0  0  0
    6.0505    0.0275   24.4823 H   0  0  0  0  0  0  0  0  0  0  0  0
    5.4252    0.6525   20.1546 C   0  0  0  0  0  0  0  0  0  0  0  0
    5.0109    0.6360   21.1672 H   0  0  0  0  0  0  0  0  0  0  0  0
    4.7995    1.3107   19.1037 C   0  0  0  0  0  0  0  0  0  0  0  0
    3.8710    1.8450   19.2567 H   0  0  0  0  0  0  0  0  0  0  0  0
  1  2  1  0
  2  3  2  0
  3  4  1  0
  4  5  1  0
  4  6  2  0
  6  7  1  0
  7  8  2  0
  8  9  1  0
  9 10  1  0
  9 11  1  0
 11 12  2  0
 11 13  1  0
 13 14  1  0
 14 15  2  0
 15 16  1  0
 15 17  1  0
 17 18  1  0
 17 19  2  0
 19 20  1  0
 19 21  1  0
 21 22  1  0
 21 23  2  0
 23 24  1  0
  6 25  1  0
 25 26  1  0
 25 27  2  0
 27 28  1  0
 27  2  1  0
 13  7  1  0
 23 14  1  0
M  END
>  <cnnaffinity>  (1) 
-5.40991

>  <filename>  (1) 
Fc1ccc(-n2c(-c3cccnc3)n[nH]c2=S)cc1F

$$$$
