
     RDKit          3D

 31 33  0  0  0  0  0  0  0  0999 V2000
    6.6921   -1.3622   21.6057 H   0  0  0  0  0  0  0  0  0  0  0  0
    7.3214   -0.7074   21.0001 C   0  0  0  0  0  0  0  0  0  0  0  0
    8.6057   -0.5216   21.3398 C   0  0  0  0  0  0  0  0  0  0  0  0
    9.3693   -1.1574   22.4198 C   0  0  0  0  0  0  0  0  0  0  0  0
    8.8735   -2.3683   23.1794 C   0  0  0  0  0  0  0  0  0  0  0  0
    7.9648   -3.2009   22.6173 N   0  0  0  0  0  0  0  0  0  0  0  0
    7.6056   -4.3028   23.2868 C   0  0  0  0  0  0  0  0  0  0  0  0
    6.8819   -4.9631   22.8187 H   0  0  0  0  0  0  0  0  0  0  0  0
    8.1057   -4.6092   24.5562 C   0  0  0  0  0  0  0  0  0  0  0  0
    7.6945   -5.7175   25.1855 F   0  0  0  0  0  0  0  0  0  0  0  0
    9.0242   -3.7641   25.1682 C   0  0  0  0  0  0  0  0  0  0  0  0
    9.4230   -4.0042   26.1524 H   0  0  0  0  0  0  0  0  0  0  0  0
    9.4049   -2.6271   24.4594 C   0  0  0  0  0  0  0  0  0  0  0  0
   10.1292   -1.9383   24.8732 H   0  0  0  0  0  0  0  0  0  0  0  0
   10.4814   -0.5634   22.6865 N   0  0  0  0  0  0  0  0  0  0  0  0
   10.6824    0.5475   21.7549 C   0  0  0  0  0  0  0  0  0  0  0  0
   10.7151    1.4821   22.3220 H   0  0  0  0  0  0  0  0  0  0  0  0
   11.6499    0.4312   21.2626 H   0  0  0  0  0  0  0  0  0  0  0  0
    9.4968    0.5474   20.7658 C   0  0  0  0  0  0  0  0  0  0  0  0
    8.9981    1.5180   20.6846 H   0  0  0  0  0  0  0  0  0  0  0  0
    9.7463    0.2392   19.7515 H   0  0  0  0  0  0  0  0  0  0  0  0
    6.6457   -0.0047   19.8970 C   0  0  0  0  0  0  0  0  0  0  0  0
    7.1679    0.0698   18.5884 C   0  0  0  0  0  0  0  0  0  0  0  0
    8.1101   -0.4287   18.3747 H   0  0  0  0  0  0  0  0  0  0  0  0
    6.5636    0.6861   17.5671 N   0  0  0  0  0  0  0  0  0  0  0  0
    5.4014    1.2986   17.8335 C   0  0  0  0  0  0  0  0  0  0  0  0
    4.9136    1.7839   16.9928 H   0  0  0  0  0  0  0  0  0  0  0  0
    4.7998    1.3146   19.1005 C   0  0  0  0  0  0  0  0  0  0  0  0
    3.8675    1.8490   19.2565 H   0  0  0  0  0  0  0  0  0  0  0  0
    5.4220    0.6393   20.1462 C   0  0  0  0  0  0  0  0  0  0  0  0
    5.0071    0.6240   21.1592 H   0  0  0  0  0  0  0  0  0  0  0  0
  1  2  1  0
  2  3  2  3
  3  4  1  0
  4  5  1  0
  5  6  2  0
  6  7  1  0
  7  8  1  0
  7  9  2  0
  9 10  1  0
  9 11  1  0
 11 12  1  0
 11 13  2  0
 13 14  1  0
  4 15  2  0
 15 16  1  0
 16 17  1  0
 16 18  1  0
 16 19  1  0
 19 20  1  0
 19 21  1  0
  2 22  1  0
 22 23  2  0
 23 24  1  0
 23 25  1  0
 25 26  2  0
 26 27  1  0
 26 28  1  0
 28 29  1  0
 28 30  2  0
 30 31  1  0
 19  3  1  0
 30 22  1  0
 13  5  1  0
M  END
>  <cnnaffinity>  (1) 
-5.43394

>  <filename>  (1) 
Fc1ccc(C2=NCCC2=Cc2cccnc2)nc1

$$$$
