
     RDKit          3D

 29 31  0  0  0  0  0  0  0  0999 V2000
    4.9343    1.7978   16.9973 H   0  0  0  0  0  0  0  0  0  0  0  0
    5.3983    1.2892   17.8360 C   0  0  0  0  0  0  0  0  0  0  0  0
    6.5533    0.6586   17.5698 N   0  0  0  0  0  0  0  0  0  0  0  0
    7.1709    0.0414   18.5830 C   0  0  0  0  0  0  0  0  0  0  0  0
    8.1253   -0.4334   18.3636 H   0  0  0  0  0  0  0  0  0  0  0  0
    6.6500   -0.0032   19.8923 C   0  0  0  0  0  0  0  0  0  0  0  0
    7.3324   -0.6878   20.9457 N   0  0  0  0  0  0  0  0  0  0  0  0
    6.7338   -1.6069   21.7971 C   0  0  0  0  0  0  0  0  0  0  0  0
    5.6851   -1.8407   21.6977 H   0  0  0  0  0  0  0  0  0  0  0  0
    7.6762   -2.0686   22.6581 C   0  0  0  0  0  0  0  0  0  0  0  0
    7.5646   -3.0132   23.7747 C   0  0  0  0  0  0  0  0  0  0  0  0
    8.6719   -3.6838   24.3271 C   0  0  0  0  0  0  0  0  0  0  0  0
    9.6675   -3.5042   23.9283 H   0  0  0  0  0  0  0  0  0  0  0  0
    8.5060   -4.5989   25.3746 C   0  0  0  0  0  0  0  0  0  0  0  0
    9.3389   -5.1344   25.8250 H   0  0  0  0  0  0  0  0  0  0  0  0
    7.2279   -4.8451   25.8715 C   0  0  0  0  0  0  0  0  0  0  0  0
    7.0492   -5.7198   26.8697 F   0  0  0  0  0  0  0  0  0  0  0  0
    6.1212   -4.1808   25.3326 C   0  0  0  0  0  0  0  0  0  0  0  0
    4.8969   -4.4305   25.8146 F   0  0  0  0  0  0  0  0  0  0  0  0
    6.2829   -3.2709   24.3001 C   0  0  0  0  0  0  0  0  0  0  0  0
    5.4020   -2.7631   23.9242 H   0  0  0  0  0  0  0  0  0  0  0  0
    8.8505   -1.4149   22.3019 N   0  0  0  0  0  0  0  0  0  0  0  0
    9.7483   -1.4022   22.7446 H   0  0  0  0  0  0  0  0  0  0  0  0
    8.6523   -0.5179   21.3036 C   0  0  0  0  0  0  0  0  0  0  0  0
    9.8124    0.5409   20.7804 S   0  0  0  0  0  0  0  0  0  0  0  0
    5.4402    0.6442   20.1566 C   0  0  0  0  0  0  0  0  0  0  0  0
    5.0316    0.6335   21.1698 H   0  0  0  0  0  0  0  0  0  0  0  0
    4.8075    1.3091   19.1046 C   0  0  0  0  0  0  0  0  0  0  0  0
    3.8770    1.8420   19.2612 H   0  0  0  0  0  0  0  0  0  0  0  0
  1  2  1  0
  2  3  2  0
  3  4  1  0
  4  5  1  0
  4  6  2  0
  6  7  1  0
  7  8  1  0
  8  9  1  0
  8 10  2  0
 10 11  1  0
 11 12  2  0
 12 13  1  0
 12 14  1  0
 14 15  1  0
 14 16  2  0
 16 17  1  0
 16 18  1  0
 18 19  1  0
 18 20  2  0
 20 21  1  0
 10 22  1  0
 22 23  1  0
 22 24  1  0
 24 25  2  0
  6 26  1  0
 26 27  1  0
 26 28  2  0
 28 29  1  0
 28  2  1  0
 24  7  1  0
 20 11  1  0
M  END
>  <cnnaffinity>  (1) 
-5.65549

>  <filename>  (1) 
Fc1ccc(-c2cn(-c3cccnc3)c(=S)[nH]2)cc1F

$$$$
