
     RDKit          3D

 34 37  0  0  0  0  0  0  0  0999 V2000
    4.9424    1.8025   16.9837 H   0  0  0  0  0  0  0  0  0  0  0  0
    5.3999    1.2947   17.8329 C   0  0  0  0  0  0  0  0  0  0  0  0
    6.5526    0.6561   17.5772 N   0  0  0  0  0  0  0  0  0  0  0  0
    7.1509    0.0281   18.5923 C   0  0  0  0  0  0  0  0  0  0  0  0
    8.0946   -0.4606   18.3625 H   0  0  0  0  0  0  0  0  0  0  0  0
    6.6513    0.0038   19.9002 C   0  0  0  0  0  0  0  0  0  0  0  0
    7.4281   -0.6730   20.9358 C   0  0  0  0  0  0  0  0  0  0  0  0
    7.8589   -1.9722   20.7979 N   0  0  0  0  0  0  0  0  0  0  0  0
    8.4338   -2.2243   21.9439 C   0  0  0  0  0  0  0  0  0  0  0  0
    9.2188   -3.5899   22.6896 S   0  0  0  0  0  0  0  0  0  0  0  0
    9.6822   -2.5980   24.0595 C   0  0  0  0  0  0  0  0  0  0  0  0
   10.3153   -3.0243   24.8284 H   0  0  0  0  0  0  0  0  0  0  0  0
    9.1808   -1.3521   23.9717 C   0  0  0  0  0  0  0  0  0  0  0  0
    9.2399   -0.5325   24.6790 H   0  0  0  0  0  0  0  0  0  0  0  0
    8.4707   -1.1507   22.7927 N   0  0  0  0  0  0  0  0  0  0  0  0
    7.8248   -0.1168   22.1439 C   0  0  0  0  0  0  0  0  0  0  0  0
    7.6553    1.2576   22.7101 C   0  0  0  0  0  0  0  0  0  0  0  0
    7.6876    1.9743   21.8839 H   0  0  0  0  0  0  0  0  0  0  0  0
    8.5098    1.4994   23.3611 H   0  0  0  0  0  0  0  0  0  0  0  0
    6.3495    1.4813   23.4752 C   0  0  0  0  0  0  0  0  0  0  0  0
    5.9991    0.6472   24.5473 C   0  0  0  0  0  0  0  0  0  0  0  0
    6.6617   -0.1749   24.8063 H   0  0  0  0  0  0  0  0  0  0  0  0
    4.8088    0.8488   25.2542 C   0  0  0  0  0  0  0  0  0  0  0  0
    4.5573    0.1832   26.0796 H   0  0  0  0  0  0  0  0  0  0  0  0
    3.9464    1.8926   24.9009 C   0  0  0  0  0  0  0  0  0  0  0  0
    3.0161    2.0923   25.4198 H   0  0  0  0  0  0  0  0  0  0  0  0
    4.3079    2.7179   23.8376 C   0  0  0  0  0  0  0  0  0  0  0  0
    3.4807    3.7198   23.4882 F   0  0  0  0  0  0  0  0  0  0  0  0
    5.4866    2.5299   23.1242 C   0  0  0  0  0  0  0  0  0  0  0  0
    5.6902    3.1763   22.2740 H   0  0  0  0  0  0  0  0  0  0  0  0
    5.4357    0.6648   20.1517 C   0  0  0  0  0  0  0  0  0  0  0  0
    4.9908    0.6546   21.1476 H   0  0  0  0  0  0  0  0  0  0  0  0
    4.8001    1.3189   19.0979 C   0  0  0  0  0  0  0  0  0  0  0  0
    3.8638    1.8522   19.2325 H   0  0  0  0  0  0  0  0  0  0  0  0
  1  2  1  0
  2  3  2  0
  3  4  1  0
  4  5  1  0
  4  6  2  0
  6  7  1  0
  7  8  1  0
  8  9  2  0
  9 10  1  0
 10 11  1  0
 11 12  1  0
 11 13  2  0
 13 14  1  0
 13 15  1  0
 15 16  1  0
 16 17  1  0
 17 18  1  0
 17 19  1  0
 17 20  1  0
 20 21  2  0
 21 22  1  0
 21 23  1  0
 23 24  1  0
 23 25  2  0
 25 26  1  0
 25 27  1  0
 27 28  1  0
 27 29  2  0
 29 30  1  0
  6 31  1  0
 31 32  1  0
 31 33  2  0
 33 34  1  0
 33  2  1  0
 16  7  2  0
 29 20  1  0
 15  9  1  0
M  END
>  <cnnaffinity>  (1) 
-5.5723

>  <filename>  (1) 
Fc1cccc(Cc2c(-c3cccnc3)nc3sccn23)c1

$$$$
