
     RDKit          3D

 27 29  0  0  0  0  0  0  0  0999 V2000
    4.9446    1.7973   16.9929 H   0  0  0  0  0  0  0  0  0  0  0  0
    5.4023    1.2871   17.8390 C   0  0  0  0  0  0  0  0  0  0  0  0
    6.5655    0.6622   17.6001 N   0  0  0  0  0  0  0  0  0  0  0  0
    7.1751    0.0531   18.6219 C   0  0  0  0  0  0  0  0  0  0  0  0
    8.1260   -0.4215   18.3839 H   0  0  0  0  0  0  0  0  0  0  0  0
    6.6605    0.0331   19.9316 C   0  0  0  0  0  0  0  0  0  0  0  0
    7.3547   -0.6419   20.9815 N   0  0  0  0  0  0  0  0  0  0  0  0
    7.5983   -0.2669   22.2856 C   0  0  0  0  0  0  0  0  0  0  0  0
    7.3490    1.0780   22.7819 C   0  0  0  0  0  0  0  0  0  0  0  0
    6.8808    1.2098   24.0961 C   0  0  0  0  0  0  0  0  0  0  0  0
    6.7010    0.3297   24.7168 H   0  0  0  0  0  0  0  0  0  0  0  0
    6.6137    2.4011   24.6379 N   0  0  0  0  0  0  0  0  0  0  0  0
    6.8326    3.5029   23.9055 C   0  0  0  0  0  0  0  0  0  0  0  0
    6.6281    4.4646   24.3688 H   0  0  0  0  0  0  0  0  0  0  0  0
    7.3153    3.4506   22.5928 C   0  0  0  0  0  0  0  0  0  0  0  0
    7.5151    4.5883   21.9138 F   0  0  0  0  0  0  0  0  0  0  0  0
    7.5763    2.2279   21.9992 C   0  0  0  0  0  0  0  0  0  0  0  0
    7.9196    2.1754   20.9660 H   0  0  0  0  0  0  0  0  0  0  0  0
    8.1191   -1.2461   22.9849 N   0  0  0  0  0  0  0  0  0  0  0  0
    8.2489   -2.2954   22.1145 C   0  0  0  0  0  0  0  0  0  0  0  0
    8.7043   -3.2212   22.4394 H   0  0  0  0  0  0  0  0  0  0  0  0
    7.7526   -1.9531   20.8921 C   0  0  0  0  0  0  0  0  0  0  0  0
    7.4292   -2.4926   20.0259 H   0  0  0  0  0  0  0  0  0  0  0  0
    5.4308    0.6581   20.1640 C   0  0  0  0  0  0  0  0  0  0  0  0
    5.0099    0.6532   21.1682 H   0  0  0  0  0  0  0  0  0  0  0  0
    4.7983    1.3045   19.1000 C   0  0  0  0  0  0  0  0  0  0  0  0
    3.8661    1.8412   19.2384 H   0  0  0  0  0  0  0  0  0  0  0  0
  1  2  1  0
  2  3  2  0
  3  4  1  0
  4  5  1  0
  4  6  2  0
  6  7  1  0
  7  8  1  0
  8  9  1  0
  9 10  2  0
 10 11  1  0
 10 12  1  0
 12 13  2  0
 13 14  1  0
 13 15  1  0
 15 16  1  0
 15 17  2  0
 17 18  1  0
  8 19  2  0
 19 20  1  0
 20 21  1  0
 20 22  2  0
 22 23  1  0
  6 24  1  0
 24 25  1  0
 24 26  2  0
 26 27  1  0
 26  2  1  0
 22  7  1  0
 17  9  1  0
M  END
>  <cnnaffinity>  (1) 
-4.98901

>  <filename>  (1) 
Fc1cncc(-c2nccn2-c2cccnc2)c1

$$$$
