
     RDKit          3D

 35 38  0  0  0  0  0  0  0  0999 V2000
    4.9127    1.8371   16.9530 H   0  0  0  0  0  0  0  0  0  0  0  0
    5.4024    1.3238   17.7790 C   0  0  0  0  0  0  0  0  0  0  0  0
    6.5592    0.7090   17.4961 N   0  0  0  0  0  0  0  0  0  0  0  0
    7.1775    0.0881   18.5097 C   0  0  0  0  0  0  0  0  0  0  0  0
    8.1124   -0.4082   18.2555 H   0  0  0  0  0  0  0  0  0  0  0  0
    6.7018    0.0375   19.8350 C   0  0  0  0  0  0  0  0  0  0  0  0
    7.4622   -0.6716   20.9375 C   0  0  1  0  0  0  0  0  0  0  0  0
    8.3955   -1.0586   20.5150 H   0  0  0  0  0  0  0  0  0  0  0  0
    7.8492    0.2699   22.1298 C   0  0  0  0  0  0  0  0  0  0  0  0
    7.3988    1.2652   22.0552 H   0  0  0  0  0  0  0  0  0  0  0  0
    8.9339    0.4012   22.1741 H   0  0  0  0  0  0  0  0  0  0  0  0
    7.3453   -0.4673   23.3300 C   0  0  0  0  0  0  0  0  0  0  0  0
    7.3265   -0.2128   24.6245 N   0  0  0  0  0  0  0  0  0  0  0  0
    6.7386   -1.3208   25.1468 N   0  0  0  0  0  0  0  0  0  0  0  0
    6.5313   -1.3286   26.1385 H   0  0  0  0  0  0  0  0  0  0  0  0
    6.3795   -2.2558   24.2071 C   0  0  0  0  0  0  0  0  0  0  0  0
    5.8040   -3.6054   24.4549 C   0  0  0  0  0  0  0  0  0  0  0  0
    6.2804   -4.4624   25.4733 C   0  0  0  0  0  0  0  0  0  0  0  0
    7.0623   -4.1162   26.1488 H   0  0  0  0  0  0  0  0  0  0  0  0
    5.7812   -5.7608   25.6197 C   0  0  0  0  0  0  0  0  0  0  0  0
    6.2036   -6.4181   26.3748 H   0  0  0  0  0  0  0  0  0  0  0  0
    4.7497   -6.2225   24.7940 C   0  0  0  0  0  0  0  0  0  0  0  0
    4.3312   -7.2169   24.9381 H   0  0  0  0  0  0  0  0  0  0  0  0
    4.2538   -5.4057   23.7749 C   0  0  0  0  0  0  0  0  0  0  0  0
    3.4553   -5.7278   23.1101 H   0  0  0  0  0  0  0  0  0  0  0  0
    4.8112   -4.1380   23.6056 C   0  0  0  0  0  0  0  0  0  0  0  0
    4.3541   -3.4168   22.5587 F   0  0  0  0  0  0  0  0  0  0  0  0
    6.7656   -1.6860   23.0095 C   0  0  0  0  0  0  0  0  0  0  0  0
    6.6893   -1.8980   21.5321 C   0  0  0  0  0  0  0  0  0  0  0  0
    5.6482   -1.9380   21.1884 H   0  0  0  0  0  0  0  0  0  0  0  0
    7.1544   -2.8382   21.2209 H   0  0  0  0  0  0  0  0  0  0  0  0
    5.4791    0.6733   20.0961 C   0  0  0  0  0  0  0  0  0  0  0  0
    5.0456    0.6710   21.1012 H   0  0  0  0  0  0  0  0  0  0  0  0
    4.8205    1.3240   19.0513 C   0  0  0  0  0  0  0  0  0  0  0  0
    3.8812    1.8383   19.2118 H   0  0  0  0  0  0  0  0  0  0  0  0
  1  2  1  0
  2  3  2  0
  3  4  1  0
  4  5  1  0
  4  6  2  0
  6  7  1  0
  7  8  1  6
  7  9  1  0
  9 10  1  0
  9 11  1  0
  9 12  1  0
 12 13  2  0
 13 14  1  0
 14 15  1  0
 14 16  1  0
 16 17  1  0
 17 18  2  0
 18 19  1  0
 18 20  1  0
 20 21  1  0
 20 22  2  0
 22 23  1  0
 22 24  1  0
 24 25  1  0
 24 26  2  0
 26 27  1  0
 16 28  2  0
 28 29  1  0
 29 30  1  0
 29 31  1  0
  6 32  1  0
 32 33  1  0
 32 34  2  0
 34 35  1  0
 34  2  1  0
 29  7  1  0
 28 12  1  0
 26 17  1  0
M  END
>  <cnnaffinity>  (1) 
-5.24152

>  <filename>  (1) 
Fc1ccccc1-c1[nH]nc2c1C[C@@H](c1cccnc1)C2

$$$$
