
     RDKit          3D

 31 33  0  0  0  0  0  0  0  0999 V2000
    4.9145    1.7932   16.9816 H   0  0  0  0  0  0  0  0  0  0  0  0
    5.3926    1.3034   17.8238 C   0  0  0  0  0  0  0  0  0  0  0  0
    6.5520    0.6827   17.5539 N   0  0  0  0  0  0  0  0  0  0  0  0
    7.1561    0.0689   18.5782 C   0  0  0  0  0  0  0  0  0  0  0  0
    8.1043   -0.4180   18.3659 H   0  0  0  0  0  0  0  0  0  0  0  0
    6.6577    0.0427   19.8902 C   0  0  0  0  0  0  0  0  0  0  0  0
    7.3913   -0.6976   20.9280 C   0  0  0  0  0  0  0  0  0  0  0  0
    7.6437   -2.0430   20.9895 C   0  0  0  0  0  0  0  0  0  0  0  0
    7.2782   -2.7621   20.2751 H   0  0  0  0  0  0  0  0  0  0  0  0
    8.3618   -2.2210   22.1826 C   0  0  0  0  0  0  0  0  0  0  0  0
    8.7631   -3.1451   22.5817 H   0  0  0  0  0  0  0  0  0  0  0  0
    8.5418   -1.0674   22.8172 N   0  0  0  0  0  0  0  0  0  0  0  0
    7.9481   -0.1428   22.0391 N   0  0  0  0  0  0  0  0  0  0  0  0
    7.9340    1.2605   22.4186 C   0  0  0  0  0  0  0  0  0  0  0  0
    8.8349    1.4235   23.0093 H   0  0  0  0  0  0  0  0  0  0  0  0
    8.0157    1.8452   21.5036 H   0  0  0  0  0  0  0  0  0  0  0  0
    6.7015    1.6970   23.1878 C   0  0  0  0  0  0  0  0  0  0  0  0
    5.9108    2.7744   22.7670 C   0  0  0  0  0  0  0  0  0  0  0  0
    6.1615    3.3086   21.8512 H   0  0  0  0  0  0  0  0  0  0  0  0
    4.7648    3.1504   23.4780 C   0  0  0  0  0  0  0  0  0  0  0  0
    4.1308    3.9763   23.1680 H   0  0  0  0  0  0  0  0  0  0  0  0
    4.4268    2.4495   24.6314 C   0  0  0  0  0  0  0  0  0  0  0  0
    3.3401    2.7924   25.3345 F   0  0  0  0  0  0  0  0  0  0  0  0
    5.2247    1.3845   25.0673 C   0  0  0  0  0  0  0  0  0  0  0  0
    4.8919    0.7248   26.1834 F   0  0  0  0  0  0  0  0  0  0  0  0
    6.3564    1.0100   24.3583 C   0  0  0  0  0  0  0  0  0  0  0  0
    6.9512    0.1770   24.7184 H   0  0  0  0  0  0  0  0  0  0  0  0
    5.4319    0.6738   20.1464 C   0  0  0  0  0  0  0  0  0  0  0  0
    5.0112    0.6280   21.1550 H   0  0  0  0  0  0  0  0  0  0  0  0
    4.7942    1.3258   19.0905 C   0  0  0  0  0  0  0  0  0  0  0  0
    3.8587    1.8525   19.2437 H   0  0  0  0  0  0  0  0  0  0  0  0
  1  2  1  0
  2  3  2  0
  3  4  1  0
  4  5  1  0
  4  6  2  0
  6  7  1  0
  7  8  2  0
  8  9  1  0
  8 10  1  0
 10 11  1  0
 10 12  2  0
 12 13  1  0
 13 14  1  0
 14 15  1  0
 14 16  1  0
 14 17  1  0
 17 18  2  0
 18 19  1  0
 18 20  1  0
 20 21  1  0
 20 22  2  0
 22 23  1  0
 22 24  1  0
 24 25  1  0
 24 26  2  0
 26 27  1  0
  6 28  1  0
 28 29  1  0
 28 30  2  0
 30 31  1  0
 30  2  1  0
 13  7  1  0
 26 17  1  0
M  END
>  <cnnaffinity>  (1) 
-4.99634

>  <filename>  (1) 
Fc1ccc(Cn2nccc2-c2cccnc2)cc1F

$$$$
