
     RDKit          3D

 38 41  0  0  0  0  0  0  0  0999 V2000
    4.9533    1.8136   16.9535 H   0  0  0  0  0  0  0  0  0  0  0  0
    5.4056    1.3146   17.8094 C   0  0  0  0  0  0  0  0  0  0  0  0
    6.5630    0.6769   17.5834 N   0  0  0  0  0  0  0  0  0  0  0  0
    7.1458    0.0744   18.6313 C   0  0  0  0  0  0  0  0  0  0  0  0
    8.0874   -0.4216   18.3851 H   0  0  0  0  0  0  0  0  0  0  0  0
    6.6443    0.0630   19.9518 C   0  0  0  0  0  0  0  0  0  0  0  0
    7.4564   -0.5314   21.1517 C   0  0  2  0  0  0  0  0  0  0  0  0
    8.3142    0.6029   21.7284 C   0  0  0  0  0  0  0  0  0  0  0  0
    9.4497    0.9932   20.9921 C   0  0  0  0  0  0  0  0  0  0  0  0
    9.6842    0.4751   20.0664 H   0  0  0  0  0  0  0  0  0  0  0  0
   10.2807    2.0244   21.4164 C   0  0  0  0  0  0  0  0  0  0  0  0
   11.1692    2.3189   20.8708 H   0  0  0  0  0  0  0  0  0  0  0  0
    9.9701    2.6971   22.5897 C   0  0  0  0  0  0  0  0  0  0  0  0
   10.7636    3.6849   23.0233 F   0  0  0  0  0  0  0  0  0  0  0  0
    8.8334    2.3452   23.3190 C   0  0  0  0  0  0  0  0  0  0  0  0
    8.5331    3.0174   24.4403 F   0  0  0  0  0  0  0  0  0  0  0  0
    8.0061    1.3117   22.8986 C   0  0  0  0  0  0  0  0  0  0  0  0
    7.1302    1.0980   23.5018 H   0  0  0  0  0  0  0  0  0  0  0  0
    8.3960   -1.7388   20.7452 C   0  0  0  0  0  0  0  0  0  0  0  0
    8.2393   -1.8639   19.6913 H   0  0  0  0  0  0  0  0  0  0  0  0
    9.4624   -1.5413   20.9154 H   0  0  0  0  0  0  0  0  0  0  0  0
    7.9792   -2.9516   21.6032 C   0  0  2  0  0  0  0  0  0  0  0  0
    8.7633   -3.7091   21.6833 H   0  0  0  0  0  0  0  0  0  0  0  0
    6.6263   -3.5072   21.1324 C   0  0  0  0  0  0  0  0  0  0  0  0
    6.3432   -4.3916   21.7188 H   0  0  0  0  0  0  0  0  0  0  0  0
    6.6232   -3.8020   20.0783 H   0  0  0  0  0  0  0  0  0  0  0  0
    5.6683   -2.3222   21.4332 C   0  0  0  0  0  0  0  0  0  0  0  0
    4.7807   -2.6319   21.9936 H   0  0  0  0  0  0  0  0  0  0  0  0
    5.3351   -1.8772   20.4925 H   0  0  0  0  0  0  0  0  0  0  0  0
    6.5763   -1.3078   22.2014 C   0  0  1  0  0  0  0  0  0  0  0  0
    6.0511   -0.6310   22.8753 H   0  0  0  0  0  0  0  0  0  0  0  0
    7.5686   -2.2546   22.9063 C   0  0  0  0  0  0  0  0  0  0  0  0
    8.4018   -1.7461   23.4070 H   0  0  0  0  0  0  0  0  0  0  0  0
    7.0842   -2.9194   23.6389 H   0  0  0  0  0  0  0  0  0  0  0  0
    5.4196    0.7278   20.1443 C   0  0  0  0  0  0  0  0  0  0  0  0
    4.9414    0.7421   21.1244 H   0  0  0  0  0  0  0  0  0  0  0  0
    4.7909    1.3553   19.0612 C   0  0  0  0  0  0  0  0  0  0  0  0
    3.8438    1.8731   19.1804 H   0  0  0  0  0  0  0  0  0  0  0  0
  1  2  1  0
  2  3  2  0
  3  4  1  0
  4  5  1  0
  4  6  2  0
  7  6  1  6
  7  8  1  0
  8  9  2  0
  9 10  1  0
  9 11  1  0
 11 12  1  0
 11 13  2  0
 13 14  1  0
 13 15  1  0
 15 16  1  0
 15 17  2  0
 17 18  1  0
  7 19  1  0
 19 20  1  0
 19 21  1  0
 19 22  1  0
 22 23  1  1
 22 24  1  0
 24 25  1  0
 24 26  1  0
 24 27  1  0
 27 28  1  0
 27 29  1  0
 27 30  1  0
 30 31  1  1
 30 32  1  0
 32 33  1  0
 32 34  1  0
  6 35  1  0
 35 36  1  0
 35 37  2  0
 37 38  1  0
 37  2  1  0
 30  7  1  0
 17  8  1  0
 32 22  1  0
M  END
>  <cnnaffinity>  (1) 
-4.99248

>  <filename>  (1) 
Fc1ccc([C@@]2(c3cccnc3)C[C@@H]3CC[C@H]2C3)cc1F

$$$$
