
     RDKit          3D

 36 38  0  0  0  0  0  0  0  0999 V2000
    5.0690    1.7884   16.9476 H   0  0  0  0  0  0  0  0  0  0  0  0
    5.5088    1.2854   17.8060 C   0  0  0  0  0  0  0  0  0  0  0  0
    6.6575    0.6390   17.5825 N   0  0  0  0  0  0  0  0  0  0  0  0
    7.2299    0.0127   18.6234 C   0  0  0  0  0  0  0  0  0  0  0  0
    8.1619   -0.5010   18.3744 H   0  0  0  0  0  0  0  0  0  0  0  0
    6.7090   -0.0018   19.9353 C   0  0  0  0  0  0  0  0  0  0  0  0
    7.3575   -0.7603   21.1286 C   0  0  0  0  0  0  0  0  0  0  0  0
    6.5335   -2.0371   21.4571 C   0  0  0  0  0  0  0  0  0  0  0  0
    6.1511   -2.8662   20.3889 C   0  0  0  0  0  0  0  0  0  0  0  0
    6.4040   -2.5919   19.3653 H   0  0  0  0  0  0  0  0  0  0  0  0
    5.4996   -4.0263   20.5216 N   0  0  0  0  0  0  0  0  0  0  0  0
    5.1531   -4.4130   21.7542 C   0  0  0  0  0  0  0  0  0  0  0  0
    4.6125   -5.3491   21.8443 H   0  0  0  0  0  0  0  0  0  0  0  0
    5.4740   -3.6703   22.8902 C   0  0  0  0  0  0  0  0  0  0  0  0
    5.0984   -4.1163   24.1030 F   0  0  0  0  0  0  0  0  0  0  0  0
    6.2044   -2.4928   22.7549 C   0  0  0  0  0  0  0  0  0  0  0  0
    6.4854   -1.9556   23.6570 H   0  0  0  0  0  0  0  0  0  0  0  0
    8.8190   -1.2178   20.8237 C   0  0  0  0  0  0  0  0  0  0  0  0
    9.1273   -1.9073   21.6203 H   0  0  0  0  0  0  0  0  0  0  0  0
    8.8344   -1.8022   19.9043 H   0  0  0  0  0  0  0  0  0  0  0  0
    9.8458   -0.0854   20.7076 C   0  0  0  0  0  0  0  0  0  0  0  0
   10.8445   -0.5204   20.5667 H   0  0  0  0  0  0  0  0  0  0  0  0
    9.6092    0.5078   19.8151 H   0  0  0  0  0  0  0  0  0  0  0  0
    9.8395    0.8490   21.9173 C   0  0  0  0  0  0  0  0  0  0  0  0
   10.5350    1.6831   21.7615 H   0  0  0  0  0  0  0  0  0  0  0  0
   10.2046    0.3039   22.7985 H   0  0  0  0  0  0  0  0  0  0  0  0
    8.4210    1.3570   22.1900 C   0  0  0  0  0  0  0  0  0  0  0  0
    8.0874    1.9796   21.3471 H   0  0  0  0  0  0  0  0  0  0  0  0
    8.4115    1.9974   23.0820 H   0  0  0  0  0  0  0  0  0  0  0  0
    7.4606    0.1737   22.3733 C   0  0  0  0  0  0  0  0  0  0  0  0
    7.8383   -0.4283   23.2094 H   0  0  0  0  0  0  0  0  0  0  0  0
    6.4688    0.5283   22.6627 H   0  0  0  0  0  0  0  0  0  0  0  0
    5.4771    0.6471   20.1179 C   0  0  0  0  0  0  0  0  0  0  0  0
    4.9874    0.6109   21.0902 H   0  0  0  0  0  0  0  0  0  0  0  0
    4.8734    1.3055   19.0475 C   0  0  0  0  0  0  0  0  0  0  0  0
    3.9323    1.8283   19.1637 H   0  0  0  0  0  0  0  0  0  0  0  0
  1  2  1  0
  2  3  2  0
  3  4  1  0
  4  5  1  0
  4  6  2  0
  6  7  1  0
  7  8  1  0
  8  9  2  0
  9 10  1  0
  9 11  1  0
 11 12  2  0
 12 13  1  0
 12 14  1  0
 14 15  1  0
 14 16  2  0
 16 17  1  0
  7 18  1  0
 18 19  1  0
 18 20  1  0
 18 21  1  0
 21 22  1  0
 21 23  1  0
 21 24  1  0
 24 25  1  0
 24 26  1  0
 24 27  1  0
 27 28  1  0
 27 29  1  0
 27 30  1  0
 30 31  1  0
 30 32  1  0
  6 33  1  0
 33 34  1  0
 33 35  2  0
 35 36  1  0
 35  2  1  0
 30  7  1  0
 16  8  1  0
M  END
>  <cnnaffinity>  (1) 
-4.58759

>  <filename>  (1) 
Fc1cncc(C2(c3cccnc3)CCCCC2)c1

$$$$
