
     RDKit          3D

 39 41  0  0  0  0  0  0  0  0999 V2000
    4.9078    1.7860   16.9897 H   0  0  0  0  0  0  0  0  0  0  0  0
    5.3952    1.2992   17.8298 C   0  0  0  0  0  0  0  0  0  0  0  0
    6.5604    0.6851   17.5611 N   0  0  0  0  0  0  0  0  0  0  0  0
    7.1741    0.0791   18.5830 C   0  0  0  0  0  0  0  0  0  0  0  0
    8.1159   -0.4246   18.3710 H   0  0  0  0  0  0  0  0  0  0  0  0
    6.6696    0.0063   19.9062 C   0  0  0  0  0  0  0  0  0  0  0  0
    7.3698   -0.7180   20.8907 N   0  0  0  0  0  0  0  0  0  0  0  0
    8.6966   -0.2703   21.3064 C   0  0  0  0  0  0  0  0  0  0  0  0
    8.6599    0.4319   22.1612 H   0  0  0  0  0  0  0  0  0  0  0  0
    9.1478    0.2948   20.4849 H   0  0  0  0  0  0  0  0  0  0  0  0
    9.5703   -1.4799   21.6368 C   0  0  0  0  0  0  0  0  0  0  0  0
    9.7508   -2.0408   20.7116 H   0  0  0  0  0  0  0  0  0  0  0  0
   10.5484   -1.1427   21.9984 H   0  0  0  0  0  0  0  0  0  0  0  0
    8.9036   -2.4041   22.6691 C   0  0  0  0  0  0  0  0  0  0  0  0
    9.4999   -3.3235   22.7274 H   0  0  0  0  0  0  0  0  0  0  0  0
    8.8996   -1.7754   24.0824 C   0  0  0  0  0  0  0  0  0  0  0  0
    9.9178   -1.4384   24.3169 H   0  0  0  0  0  0  0  0  0  0  0  0
    8.2774   -0.8713   24.0974 H   0  0  0  0  0  0  0  0  0  0  0  0
    8.4359   -2.7345   25.1526 C   0  0  0  0  0  0  0  0  0  0  0  0
    7.1336   -2.6742   25.6730 C   0  0  0  0  0  0  0  0  0  0  0  0
    6.4501   -1.9046   25.3188 H   0  0  0  0  0  0  0  0  0  0  0  0
    6.6929   -3.5895   26.6322 C   0  0  0  0  0  0  0  0  0  0  0  0
    5.6900   -3.5449   27.0454 H   0  0  0  0  0  0  0  0  0  0  0  0
    7.5778   -4.5773   27.0608 C   0  0  0  0  0  0  0  0  0  0  0  0
    7.1670   -5.4593   27.9865 F   0  0  0  0  0  0  0  0  0  0  0  0
    8.8743   -4.6801   26.5600 C   0  0  0  0  0  0  0  0  0  0  0  0
    9.5306   -5.4694   26.9173 H   0  0  0  0  0  0  0  0  0  0  0  0
    9.2912   -3.7554   25.6014 C   0  0  0  0  0  0  0  0  0  0  0  0
   10.2950   -3.8270   25.1880 H   0  0  0  0  0  0  0  0  0  0  0  0
    7.4955   -2.7872   22.1768 C   0  0  0  0  0  0  0  0  0  0  0  0
    6.9711   -3.3980   22.9184 H   0  0  0  0  0  0  0  0  0  0  0  0
    7.5836   -3.3987   21.2715 H   0  0  0  0  0  0  0  0  0  0  0  0
    6.6472   -1.5586   21.8357 C   0  0  0  0  0  0  0  0  0  0  0  0
    6.3500   -1.0213   22.7578 H   0  0  0  0  0  0  0  0  0  0  0  0
    5.7147   -1.8831   21.3602 H   0  0  0  0  0  0  0  0  0  0  0  0
    5.4403    0.6454   20.1577 C   0  0  0  0  0  0  0  0  0  0  0  0
    5.0203    0.6191   21.1672 H   0  0  0  0  0  0  0  0  0  0  0  0
    4.8082    1.3120   19.1028 C   0  0  0  0  0  0  0  0  0  0  0  0
    3.8729    1.8423   19.2598 H   0  0  0  0  0  0  0  0  0  0  0  0
  1  2  1  0
  2  3  2  0
  3  4  1  0
  4  5  1  0
  4  6  2  0
  6  7  1  0
  7  8  1  0
  8  9  1  0
  8 10  1  0
  8 11  1  0
 11 12  1  0
 11 13  1  0
 11 14  1  0
 14 15  1  0
 14 16  1  0
 16 17  1  0
 16 18  1  0
 16 19  1  0
 19 20  2  0
 20 21  1  0
 20 22  1  0
 22 23  1  0
 22 24  2  0
 24 25  1  0
 24 26  1  0
 26 27  1  0
 26 28  2  0
 28 29  1  0
 14 30  1  0
 30 31  1  0
 30 32  1  0
 30 33  1  0
 33 34  1  0
 33 35  1  0
  6 36  1  0
 36 37  1  0
 36 38  2  0
 38 39  1  0
 38  2  1  0
 33  7  1  0
 28 19  1  0
M  END
>  <cnnaffinity>  (1) 
-5.33034

>  <filename>  (1) 
Fc1ccc(CC2CCN(c3cccnc3)CC2)cc1

$$$$
