
     RDKit          3D

 30 32  0  0  0  0  0  0  0  0999 V2000
    4.9198    1.7780   16.9996 H   0  0  0  0  0  0  0  0  0  0  0  0
    5.4047    1.2912   17.8423 C   0  0  0  0  0  0  0  0  0  0  0  0
    6.5706    0.6774   17.5829 N   0  0  0  0  0  0  0  0  0  0  0  0
    7.1726    0.0467   18.5940 C   0  0  0  0  0  0  0  0  0  0  0  0
    8.1226   -0.4346   18.3747 H   0  0  0  0  0  0  0  0  0  0  0  0
    6.6526   -0.0031   19.8966 C   0  0  0  0  0  0  0  0  0  0  0  0
    7.3791   -0.7009   20.9479 C   0  0  0  0  0  0  0  0  0  0  0  0
    8.1149   -1.8452   20.7428 N   0  0  0  0  0  0  0  0  0  0  0  0
    8.5823   -2.1830   21.9117 C   0  0  0  0  0  0  0  0  0  0  0  0
    9.2156   -3.0378   22.1051 H   0  0  0  0  0  0  0  0  0  0  0  0
    8.2015   -1.3044   22.8841 N   0  0  0  0  0  0  0  0  0  0  0  0
    8.4813   -1.2958   23.8462 H   0  0  0  0  0  0  0  0  0  0  0  0
    7.4554   -0.3306   22.2799 C   0  0  0  0  0  0  0  0  0  0  0  0
    7.0153    0.7873   22.9555 N   0  0  0  0  0  0  0  0  0  0  0  0
    6.9314    1.6182   22.3895 H   0  0  0  0  0  0  0  0  0  0  0  0
    6.6787    0.9187   24.3076 C   0  0  0  0  0  0  0  0  0  0  0  0
    6.8023    2.1696   24.9318 C   0  0  0  0  0  0  0  0  0  0  0  0
    7.1548    3.0244   24.3604 H   0  0  0  0  0  0  0  0  0  0  0  0
    6.4984    2.3164   26.2891 C   0  0  0  0  0  0  0  0  0  0  0  0
    6.5966    3.2718   26.7927 H   0  0  0  0  0  0  0  0  0  0  0  0
    6.0498    1.2082   27.0054 C   0  0  0  0  0  0  0  0  0  0  0  0
    5.7489    1.3413   28.3084 F   0  0  0  0  0  0  0  0  0  0  0  0
    5.8934   -0.0348   26.4006 C   0  0  0  0  0  0  0  0  0  0  0  0
    5.5354   -0.8776   26.9792 H   0  0  0  0  0  0  0  0  0  0  0  0
    6.2031   -0.1726   25.0469 C   0  0  0  0  0  0  0  0  0  0  0  0
    6.0644   -1.1220   24.5419 H   0  0  0  0  0  0  0  0  0  0  0  0
    5.4370    0.6560   20.1570 C   0  0  0  0  0  0  0  0  0  0  0  0
    5.0035    0.6278   21.1606 H   0  0  0  0  0  0  0  0  0  0  0  0
    4.8033    1.3107   19.1066 C   0  0  0  0  0  0  0  0  0  0  0  0
    3.8721    1.8437   19.2590 H   0  0  0  0  0  0  0  0  0  0  0  0
  1  2  1  0
  2  3  2  0
  3  4  1  0
  4  5  1  0
  4  6  2  0
  6  7  1  0
  7  8  1  0
  8  9  2  0
  9 10  1  0
  9 11  1  0
 11 12  1  0
 11 13  1  0
 13 14  1  0
 14 15  1  0
 14 16  1  0
 16 17  2  0
 17 18  1  0
 17 19  1  0
 19 20  1  0
 19 21  2  0
 21 22  1  0
 21 23  1  0
 23 24  1  0
 23 25  2  0
 25 26  1  0
  6 27  1  0
 27 28  1  0
 27 29  2  0
 29 30  1  0
 29  2  1  0
 13  7  2  0
 25 16  1  0
M  END
>  <cnnaffinity>  (1) 
-5.22721

>  <filename>  (1) 
Fc1ccc(Nc2[nH]cnc2-c2cccnc2)cc1

$$$$
