
     RDKit          3D

 31 33  0  0  0  0  0  0  0  0999 V2000
    7.0167    1.7395   22.1326 H   0  0  0  0  0  0  0  0  0  0  0  0
    7.2919    0.9344   22.8219 C   0  0  0  0  0  0  0  0  0  0  0  0
    7.5153   -0.3020   22.3368 C   0  0  0  0  0  0  0  0  0  0  0  0
    7.3784   -0.7598   20.9359 C   0  0  0  0  0  0  0  0  0  0  0  0
    6.6566    0.0141   19.9067 C   0  0  0  0  0  0  0  0  0  0  0  0
    7.1748    0.0550   18.6059 C   0  0  0  0  0  0  0  0  0  0  0  0
    8.1174   -0.4354   18.3818 H   0  0  0  0  0  0  0  0  0  0  0  0
    6.5731    0.6781   17.5889 N   0  0  0  0  0  0  0  0  0  0  0  0
    5.4060    1.2907   17.8446 C   0  0  0  0  0  0  0  0  0  0  0  0
    4.9164    1.7748   17.0026 H   0  0  0  0  0  0  0  0  0  0  0  0
    4.8010    1.3105   19.1075 C   0  0  0  0  0  0  0  0  0  0  0  0
    3.8690    1.8460   19.2615 H   0  0  0  0  0  0  0  0  0  0  0  0
    5.4380    0.6585   20.1625 C   0  0  0  0  0  0  0  0  0  0  0  0
    5.0010    0.6369   21.1658 H   0  0  0  0  0  0  0  0  0  0  0  0
    7.9437   -1.8810   20.6873 N   0  0  0  0  0  0  0  0  0  0  0  0
    8.5272   -2.4049   21.9200 C   0  0  0  0  0  0  0  0  0  0  0  0
    9.6077   -2.4753   21.7849 H   0  0  0  0  0  0  0  0  0  0  0  0
    8.1458   -3.4102   22.1025 H   0  0  0  0  0  0  0  0  0  0  0  0
    8.1703   -1.4400   23.0732 C   0  0  0  0  0  0  0  0  0  0  0  0
    7.4786   -1.9122   23.7784 H   0  0  0  0  0  0  0  0  0  0  0  0
    9.0488   -1.0948   23.6235 H   0  0  0  0  0  0  0  0  0  0  0  0
    7.5142    1.3567   24.2166 C   0  0  0  0  0  0  0  0  0  0  0  0
    7.0856    0.6044   25.3308 C   0  0  0  0  0  0  0  0  0  0  0  0
    6.5262   -0.3112   25.1653 H   0  0  0  0  0  0  0  0  0  0  0  0
    7.2902    0.9699   26.6047 N   0  0  0  0  0  0  0  0  0  0  0  0
    7.9523    2.1128   26.8252 C   0  0  0  0  0  0  0  0  0  0  0  0
    8.1159    2.4143   27.8547 H   0  0  0  0  0  0  0  0  0  0  0  0
    8.4159    2.9273   25.7827 C   0  0  0  0  0  0  0  0  0  0  0  0
    9.0567    4.0731   26.0590 F   0  0  0  0  0  0  0  0  0  0  0  0
    8.1962    2.5621   24.4637 C   0  0  0  0  0  0  0  0  0  0  0  0
    8.5595    3.1844   23.6476 H   0  0  0  0  0  0  0  0  0  0  0  0
  1  2  1  0
  2  3  2  3
  3  4  1  0
  4  5  1  0
  5  6  2  0
  6  7  1  0
  6  8  1  0
  8  9  2  0
  9 10  1  0
  9 11  1  0
 11 12  1  0
 11 13  2  0
 13 14  1  0
  4 15  2  0
 15 16  1  0
 16 17  1  0
 16 18  1  0
 16 19  1  0
 19 20  1  0
 19 21  1  0
  2 22  1  0
 22 23  2  0
 23 24  1  0
 23 25  1  0
 25 26  2  0
 26 27  1  0
 26 28  1  0
 28 29  1  0
 28 30  2  0
 30 31  1  0
 19  3  1  0
 30 22  1  0
 13  5  1  0
M  END
>  <cnnaffinity>  (1) 
-5.21224

>  <filename>  (1) 
Fc1cncc(C=C2CCN=C2c2cccnc2)c1

$$$$
