
     RDKit          3D

 35 38  0  0  0  0  0  0  0  0999 V2000
    4.9115    1.8321   16.9640 H   0  0  0  0  0  0  0  0  0  0  0  0
    5.3878    1.3170   17.7958 C   0  0  0  0  0  0  0  0  0  0  0  0
    6.5451    0.6981   17.5183 N   0  0  0  0  0  0  0  0  0  0  0  0
    7.1684    0.0803   18.5295 C   0  0  0  0  0  0  0  0  0  0  0  0
    8.1126   -0.4045   18.2767 H   0  0  0  0  0  0  0  0  0  0  0  0
    6.6924    0.0236   19.8531 C   0  0  0  0  0  0  0  0  0  0  0  0
    7.4560   -0.6987   20.9546 C   0  0  1  0  0  0  0  0  0  0  0  0
    8.3885   -1.0916   20.5252 H   0  0  0  0  0  0  0  0  0  0  0  0
    7.8513    0.2489   22.1483 C   0  0  0  0  0  0  0  0  0  0  0  0
    7.4494    1.2614   22.0535 H   0  0  0  0  0  0  0  0  0  0  0  0
    8.9389    0.3594   22.2120 H   0  0  0  0  0  0  0  0  0  0  0  0
    7.2778   -0.4419   23.3473 C   0  0  0  0  0  0  0  0  0  0  0  0
    7.2718   -0.1919   24.6422 N   0  0  0  0  0  0  0  0  0  0  0  0
    6.6508   -1.2798   25.1611 N   0  0  0  0  0  0  0  0  0  0  0  0
    6.6066   -1.3588   26.1660 H   0  0  0  0  0  0  0  0  0  0  0  0
    6.2503   -2.1948   24.2256 C   0  0  0  0  0  0  0  0  0  0  0  0
    5.6268   -3.5159   24.4752 C   0  0  0  0  0  0  0  0  0  0  0  0
    6.0125   -4.3215   25.5620 C   0  0  0  0  0  0  0  0  0  0  0  0
    6.7392   -3.9429   26.2758 H   0  0  0  0  0  0  0  0  0  0  0  0
    5.5022   -5.6162   25.6937 C   0  0  0  0  0  0  0  0  0  0  0  0
    5.8378   -6.2359   26.5202 H   0  0  0  0  0  0  0  0  0  0  0  0
    4.5980   -6.1257   24.7573 C   0  0  0  0  0  0  0  0  0  0  0  0
    4.1956   -7.1312   24.8228 H   0  0  0  0  0  0  0  0  0  0  0  0
    4.2191   -5.3163   23.6910 C   0  0  0  0  0  0  0  0  0  0  0  0
    3.3671   -5.8111   22.7769 F   0  0  0  0  0  0  0  0  0  0  0  0
    4.7144   -4.0257   23.5315 C   0  0  0  0  0  0  0  0  0  0  0  0
    4.3857   -3.4380   22.6811 H   0  0  0  0  0  0  0  0  0  0  0  0
    6.6578   -1.6425   23.0262 C   0  0  0  0  0  0  0  0  0  0  0  0
    6.6568   -1.9137   21.5558 C   0  0  0  0  0  0  0  0  0  0  0  0
    5.6303   -1.9489   21.1653 H   0  0  0  0  0  0  0  0  0  0  0  0
    7.1236   -2.8694   21.2757 H   0  0  0  0  0  0  0  0  0  0  0  0
    5.4665    0.6658   20.1058 C   0  0  0  0  0  0  0  0  0  0  0  0
    5.0359    0.6631   21.1080 H   0  0  0  0  0  0  0  0  0  0  0  0
    4.8024    1.3216   19.0650 C   0  0  0  0  0  0  0  0  0  0  0  0
    3.8623    1.8454   19.2207 H   0  0  0  0  0  0  0  0  0  0  0  0
  1  2  1  0
  2  3  2  0
  3  4  1  0
  4  5  1  0
  4  6  2  0
  6  7  1  0
  7  8  1  6
  7  9  1  0
  9 10  1  0
  9 11  1  0
  9 12  1  0
 12 13  2  0
 13 14  1  0
 14 15  1  0
 14 16  1  0
 16 17  1  0
 17 18  2  0
 18 19  1  0
 18 20  1  0
 20 21  1  0
 20 22  2  0
 22 23  1  0
 22 24  1  0
 24 25  1  0
 24 26  2  0
 26 27  1  0
 16 28  2  0
 28 29  1  0
 29 30  1  0
 29 31  1  0
  6 32  1  0
 32 33  1  0
 32 34  2  0
 34 35  1  0
 34  2  1  0
 29  7  1  0
 28 12  1  0
 26 17  1  0
M  END
>  <cnnaffinity>  (1) 
-5.29389

>  <filename>  (1) 
Fc1cccc(-c2[nH]nc3c2C[C@@H](c2cccnc2)C3)c1

$$$$
