
     RDKit          3D

 31 34  0  0  0  0  0  0  0  0999 V2000
    4.9562    1.8045   16.9783 H   0  0  0  0  0  0  0  0  0  0  0  0
    5.4029    1.2888   17.8265 C   0  0  0  0  0  0  0  0  0  0  0  0
    6.5599    0.6558   17.5811 N   0  0  0  0  0  0  0  0  0  0  0  0
    7.1523    0.0249   18.5979 C   0  0  0  0  0  0  0  0  0  0  0  0
    8.1005   -0.4548   18.3634 H   0  0  0  0  0  0  0  0  0  0  0  0
    6.6388   -0.0013   19.9040 C   0  0  0  0  0  0  0  0  0  0  0  0
    7.3900   -0.6741   20.9605 C   0  0  0  0  0  0  0  0  0  0  0  0
    8.0568   -1.8533   20.7376 N   0  0  0  0  0  0  0  0  0  0  0  0
    8.4631   -2.2084   21.9257 C   0  0  0  0  0  0  0  0  0  0  0  0
    9.3378   -3.5424   22.6096 S   0  0  0  0  0  0  0  0  0  0  0  0
    9.4301   -2.7359   24.1571 C   0  0  0  0  0  0  0  0  0  0  0  0
   10.0083   -3.2098   24.9400 H   0  0  0  0  0  0  0  0  0  0  0  0
    8.7421   -1.5784   24.1569 C   0  0  0  0  0  0  0  0  0  0  0  0
    8.5894   -0.8522   24.9476 H   0  0  0  0  0  0  0  0  0  0  0  0
    8.1640   -1.3173   22.9170 N   0  0  0  0  0  0  0  0  0  0  0  0
    7.4891   -0.2841   22.2956 C   0  0  0  0  0  0  0  0  0  0  0  0
    7.0955    0.9353   22.9787 C   0  0  0  0  0  0  0  0  0  0  0  0
    7.3070    2.1798   22.3587 C   0  0  0  0  0  0  0  0  0  0  0  0
    7.7554    2.2005   21.3693 H   0  0  0  0  0  0  0  0  0  0  0  0
    6.9110    3.3677   22.9822 C   0  0  0  0  0  0  0  0  0  0  0  0
    7.0525    4.3476   22.5326 H   0  0  0  0  0  0  0  0  0  0  0  0
    6.2951    3.2983   24.2280 C   0  0  0  0  0  0  0  0  0  0  0  0
    5.9087    4.4201   24.8492 F   0  0  0  0  0  0  0  0  0  0  0  0
    6.0684    2.0613   24.8462 C   0  0  0  0  0  0  0  0  0  0  0  0
    5.4751    2.0279   26.0467 F   0  0  0  0  0  0  0  0  0  0  0  0
    6.4585    0.8821   24.2332 C   0  0  0  0  0  0  0  0  0  0  0  0
    6.2390   -0.0655   24.7159 H   0  0  0  0  0  0  0  0  0  0  0  0
    5.4128    0.6502   20.1445 C   0  0  0  0  0  0  0  0  0  0  0  0
    4.9861    0.6715   21.1499 H   0  0  0  0  0  0  0  0  0  0  0  0
    4.7924    1.3050   19.0845 C   0  0  0  0  0  0  0  0  0  0  0  0
    3.8653    1.8461   19.2215 H   0  0  0  0  0  0  0  0  0  0  0  0
  1  2  1  0
  2  3  2  0
  3  4  1  0
  4  5  1  0
  4  6  2  0
  6  7  1  0
  7  8  1  0
  8  9  2  0
  9 10  1  0
 10 11  1  0
 11 12  1  0
 11 13  2  0
 13 14  1  0
 13 15  1  0
 15 16  1  0
 16 17  1  0
 17 18  2  0
 18 19  1  0
 18 20  1  0
 20 21  1  0
 20 22  2  0
 22 23  1  0
 22 24  1  0
 24 25  1  0
 24 26  2  0
 26 27  1  0
  6 28  1  0
 28 29  1  0
 28 30  2  0
 30 31  1  0
 30  2  1  0
 16  7  2  0
 26 17  1  0
 15  9  1  0
M  END
>  <cnnaffinity>  (1) 
-5.86383

>  <filename>  (1) 
Fc1ccc(-c2c(-c3cccnc3)nc3sccn23)cc1F

$$$$
