
     RDKit          3D

 29 31  0  0  0  0  0  0  0  0999 V2000
    4.9188    1.8022   16.9688 H   0  0  0  0  0  0  0  0  0  0  0  0
    5.3919    1.3043   17.8155 C   0  0  0  0  0  0  0  0  0  0  0  0
    6.5569    0.6857   17.5621 N   0  0  0  0  0  0  0  0  0  0  0  0
    7.1707    0.0708   18.5819 C   0  0  0  0  0  0  0  0  0  0  0  0
    8.1068   -0.4223   18.3267 H   0  0  0  0  0  0  0  0  0  0  0  0
    6.6664    0.0160   19.8949 C   0  0  0  0  0  0  0  0  0  0  0  0
    7.3374   -0.7065   20.9816 C   0  0  0  0  0  0  0  0  0  0  0  0
    6.8200   -1.2315   22.1098 C   0  0  0  0  0  0  0  0  0  0  0  0
    5.8029   -1.3007   22.4128 H   0  0  0  0  0  0  0  0  0  0  0  0
    7.8416   -1.7883   22.8639 N   0  0  0  0  0  0  0  0  0  0  0  0
    7.6412   -2.4446   24.1150 C   0  0  0  0  0  0  0  0  0  0  0  0
    8.2490   -3.6805   24.3591 C   0  0  0  0  0  0  0  0  0  0  0  0
    8.8763   -4.1191   23.5908 H   0  0  0  0  0  0  0  0  0  0  0  0
    8.0639   -4.3025   25.5969 C   0  0  0  0  0  0  0  0  0  0  0  0
    8.5542   -5.2512   25.7967 H   0  0  0  0  0  0  0  0  0  0  0  0
    7.2723   -3.7064   26.5835 C   0  0  0  0  0  0  0  0  0  0  0  0
    7.1113   -4.1599   27.5545 H   0  0  0  0  0  0  0  0  0  0  0  0
    6.6682   -2.4858   26.2992 C   0  0  0  0  0  0  0  0  0  0  0  0
    5.8947   -1.9090   27.2305 F   0  0  0  0  0  0  0  0  0  0  0  0
    6.8271   -1.8409   25.0794 C   0  0  0  0  0  0  0  0  0  0  0  0
    6.3349   -0.8895   24.9109 H   0  0  0  0  0  0  0  0  0  0  0  0
    9.0377   -1.6071   22.2047 C   0  0  0  0  0  0  0  0  0  0  0  0
   10.6057   -1.9786   22.6020 S   0  0  0  0  0  0  0  0  0  0  0  0
    8.6919   -0.9774   21.0479 N   0  0  0  0  0  0  0  0  0  0  0  0
    9.4272   -0.6720   20.4351 H   0  0  0  0  0  0  0  0  0  0  0  0
    5.4397    0.6647   20.1325 C   0  0  0  0  0  0  0  0  0  0  0  0
    5.0092    0.6607   21.1339 H   0  0  0  0  0  0  0  0  0  0  0  0
    4.7981    1.3218   19.0819 C   0  0  0  0  0  0  0  0  0  0  0  0
    3.8643    1.8519   19.2309 H   0  0  0  0  0  0  0  0  0  0  0  0
  1  2  1  0
  2  3  2  0
  3  4  1  0
  4  5  1  0
  4  6  2  0
  6  7  1  0
  7  8  2  0
  8  9  1  0
  8 10  1  0
 10 11  1  0
 11 12  2  0
 12 13  1  0
 12 14  1  0
 14 15  1  0
 14 16  2  0
 16 17  1  0
 16 18  1  0
 18 19  1  0
 18 20  2  0
 20 21  1  0
 10 22  1  0
 22 23  2  0
 22 24  1  0
 24 25  1  0
  6 26  1  0
 26 27  1  0
 26 28  2  0
 28 29  1  0
 28  2  1  0
 24  7  1  0
 20 11  1  0
M  END
>  <cnnaffinity>  (1) 
-5.59796

>  <filename>  (1) 
Fc1cccc(-n2cc(-c3cccnc3)[nH]c2=S)c1

$$$$
