
     RDKit          3D

 29 31  0  0  0  0  0  0  0  0999 V2000
    4.9215    1.8032   16.9686 H   0  0  0  0  0  0  0  0  0  0  0  0
    5.3940    1.3043   17.8154 C   0  0  0  0  0  0  0  0  0  0  0  0
    6.5584    0.6844   17.5638 N   0  0  0  0  0  0  0  0  0  0  0  0
    7.1714    0.0690   18.5825 C   0  0  0  0  0  0  0  0  0  0  0  0
    8.1071   -0.4231   18.3248 H   0  0  0  0  0  0  0  0  0  0  0  0
    6.6662    0.0148   19.8951 C   0  0  0  0  0  0  0  0  0  0  0  0
    7.3376   -0.7072   20.9810 C   0  0  0  0  0  0  0  0  0  0  0  0
    6.8210   -1.2344   22.1083 C   0  0  0  0  0  0  0  0  0  0  0  0
    5.8037   -1.3099   22.4168 H   0  0  0  0  0  0  0  0  0  0  0  0
    7.8418   -1.7907   22.8620 N   0  0  0  0  0  0  0  0  0  0  0  0
    7.6446   -2.4422   24.1142 C   0  0  0  0  0  0  0  0  0  0  0  0
    6.8292   -1.8383   25.0797 C   0  0  0  0  0  0  0  0  0  0  0  0
    6.3374   -0.8876   24.9088 H   0  0  0  0  0  0  0  0  0  0  0  0
    6.6696   -2.4837   26.2986 C   0  0  0  0  0  0  0  0  0  0  0  0
    5.8982   -1.9099   27.2309 F   0  0  0  0  0  0  0  0  0  0  0  0
    7.2714   -3.7036   26.5850 C   0  0  0  0  0  0  0  0  0  0  0  0
    7.1359   -4.1893   27.5401 H   0  0  0  0  0  0  0  0  0  0  0  0
    8.0538   -4.2753   25.5871 C   0  0  0  0  0  0  0  0  0  0  0  0
    8.6501   -5.4485   25.8286 F   0  0  0  0  0  0  0  0  0  0  0  0
    8.2540   -3.6765   24.3507 C   0  0  0  0  0  0  0  0  0  0  0  0
    8.8880   -4.1483   23.6107 H   0  0  0  0  0  0  0  0  0  0  0  0
    9.0375   -1.6101   22.2043 C   0  0  0  0  0  0  0  0  0  0  0  0
   10.6064   -1.9845   22.6059 S   0  0  0  0  0  0  0  0  0  0  0  0
    8.6937   -0.9783   21.0488 N   0  0  0  0  0  0  0  0  0  0  0  0
    9.4336   -0.6749   20.4429 H   0  0  0  0  0  0  0  0  0  0  0  0
    5.4412    0.6651   20.1314 C   0  0  0  0  0  0  0  0  0  0  0  0
    5.0090    0.6636   21.1324 H   0  0  0  0  0  0  0  0  0  0  0  0
    4.7999    1.3210   19.0820 C   0  0  0  0  0  0  0  0  0  0  0  0
    3.8648    1.8518   19.2284 H   0  0  0  0  0  0  0  0  0  0  0  0
  1  2  1  0
  2  3  2  0
  3  4  1  0
  4  5  1  0
  4  6  2  0
  6  7  1  0
  7  8  2  0
  8  9  1  0
  8 10  1  0
 10 11  1  0
 11 12  2  0
 12 13  1  0
 12 14  1  0
 14 15  1  0
 14 16  2  0
 16 17  1  0
 16 18  1  0
 18 19  1  0
 18 20  2  0
 20 21  1  0
 10 22  1  0
 22 23  2  0
 22 24  1  0
 24 25  1  0
  6 26  1  0
 26 27  1  0
 26 28  2  0
 28 29  1  0
 28  2  1  0
 24  7  1  0
 20 11  1  0
M  END
>  <cnnaffinity>  (1) 
-5.7453

>  <filename>  (1) 
Fc1cc(F)cc(-n2cc(-c3cccnc3)[nH]c2=S)c1

$$$$
