
     RDKit          3D

 29 32  0  0  0  0  0  0  0  0999 V2000
    4.9134    1.7735   17.0041 H   0  0  0  0  0  0  0  0  0  0  0  0
    5.4048    1.2896   17.8444 C   0  0  0  0  0  0  0  0  0  0  0  0
    6.5712    0.6786   17.5789 N   0  0  0  0  0  0  0  0  0  0  0  0
    7.1770    0.0574   18.5915 C   0  0  0  0  0  0  0  0  0  0  0  0
    8.1266   -0.4356   18.3764 H   0  0  0  0  0  0  0  0  0  0  0  0
    6.6484    0.0110   19.8909 C   0  0  0  0  0  0  0  0  0  0  0  0
    7.4035   -0.7043   20.9174 C   0  0  0  0  0  0  0  0  0  0  0  0
    8.3317   -1.6018   20.6980 N   0  0  0  0  0  0  0  0  0  0  0  0
    8.8307   -2.0329   21.9055 N   0  0  0  0  0  0  0  0  0  0  0  0
    8.1917   -1.3528   22.8199 C   0  0  0  0  0  0  0  0  0  0  0  0
    8.2638   -1.0926   24.5340 S   0  0  0  0  0  0  0  0  0  0  0  0
    7.0329    0.1747   24.3199 C   0  0  0  0  0  0  0  0  0  0  0  0
    6.5354    0.9669   25.4750 C   0  0  0  0  0  0  0  0  0  0  0  0
    7.0155    0.7401   26.7820 C   0  0  0  0  0  0  0  0  0  0  0  0
    7.7630   -0.0156   27.0112 H   0  0  0  0  0  0  0  0  0  0  0  0
    6.5131    1.5167   27.8223 C   0  0  0  0  0  0  0  0  0  0  0  0
    6.9654    1.3047   29.0638 F   0  0  0  0  0  0  0  0  0  0  0  0
    5.5566    2.5081   27.6305 C   0  0  0  0  0  0  0  0  0  0  0  0
    5.1783    3.1004   28.4548 H   0  0  0  0  0  0  0  0  0  0  0  0
    5.1056    2.7051   26.3315 C   0  0  0  0  0  0  0  0  0  0  0  0
    4.1847    3.6508   26.1115 F   0  0  0  0  0  0  0  0  0  0  0  0
    5.5673    1.9634   25.2495 C   0  0  0  0  0  0  0  0  0  0  0  0
    5.1855    2.1562   24.2526 H   0  0  0  0  0  0  0  0  0  0  0  0
    6.6186    0.3592   23.1030 N   0  0  0  0  0  0  0  0  0  0  0  0
    7.2636   -0.5204   22.2775 N   0  0  0  0  0  0  0  0  0  0  0  0
    5.4349    0.6522   20.1620 C   0  0  0  0  0  0  0  0  0  0  0  0
    5.0089    0.6335   21.1672 H   0  0  0  0  0  0  0  0  0  0  0  0
    4.8046    1.3090   19.1105 C   0  0  0  0  0  0  0  0  0  0  0  0
    3.8733    1.8441   19.2642 H   0  0  0  0  0  0  0  0  0  0  0  0
  1  2  1  0
  2  3  2  0
  3  4  1  0
  4  5  1  0
  4  6  2  0
  6  7  1  0
  7  8  2  0
  8  9  1  0
  9 10  2  0
 10 11  1  0
 11 12  1  0
 12 13  1  0
 13 14  2  0
 14 15  1  0
 14 16  1  0
 16 17  1  0
 16 18  2  0
 18 19  1  0
 18 20  1  0
 20 21  1  0
 20 22  2  0
 22 23  1  0
 12 24  2  0
 24 25  1  0
  6 26  1  0
 26 27  1  0
 26 28  2  0
 28 29  1  0
 28  2  1  0
 25  7  1  0
 25 10  1  0
 22 13  1  0
M  END
>  <cnnaffinity>  (1) 
-5.42036

>  <filename>  (1) 
Fc1cc(F)cc(-c2nn3c(-c4cccnc4)nnc3s2)c1

$$$$
