
     RDKit          3D

 35 38  0  0  0  0  0  0  0  0999 V2000
    4.9982    1.8396   16.9129 H   0  0  0  0  0  0  0  0  0  0  0  0
    5.3907    1.3073   17.7816 C   0  0  0  0  0  0  0  0  0  0  0  0
    6.5423    0.6463   17.5951 N   0  0  0  0  0  0  0  0  0  0  0  0
    7.0672    0.0276   18.6629 C   0  0  0  0  0  0  0  0  0  0  0  0
    8.0029   -0.4978   18.4840 H   0  0  0  0  0  0  0  0  0  0  0  0
    6.4879   -0.0015   19.9490 C   0  0  0  0  0  0  0  0  0  0  0  0
    7.2501   -0.6100   21.0657 C   0  0  0  0  0  0  0  0  0  0  0  0
    8.6059   -0.5476   21.3063 C   0  0  0  0  0  0  0  0  0  0  0  0
    8.8136   -1.1612   22.5349 C   0  0  0  0  0  0  0  0  0  0  0  0
    7.6976   -1.6119   23.0733 N   0  0  0  0  0  0  0  0  0  0  0  0
    6.7497   -1.2609   22.1638 N   0  0  0  0  0  0  0  0  0  0  0  0
    5.7910   -1.5130   22.3624 H   0  0  0  0  0  0  0  0  0  0  0  0
   10.2480   -1.1405   22.9673 C   0  0  0  0  0  0  0  0  0  0  0  0
   10.6619   -2.1524   23.0405 H   0  0  0  0  0  0  0  0  0  0  0  0
   10.3646   -0.6832   23.9553 H   0  0  0  0  0  0  0  0  0  0  0  0
   10.9540   -0.2976   21.8420 C   0  0  2  0  0  0  0  0  0  0  0  0
   11.7758   -0.8870   21.4296 H   0  0  0  0  0  0  0  0  0  0  0  0
   11.5044    1.0100   22.3770 C   0  0  0  0  0  0  0  0  0  0  0  0
   10.6237    1.9960   22.8561 C   0  0  0  0  0  0  0  0  0  0  0  0
    9.5518    1.7892   22.8536 H   0  0  0  0  0  0  0  0  0  0  0  0
   11.0959    3.2308   23.3069 C   0  0  0  0  0  0  0  0  0  0  0  0
   10.3893    3.9812   23.6452 H   0  0  0  0  0  0  0  0  0  0  0  0
   12.4659    3.5140   23.2678 C   0  0  0  0  0  0  0  0  0  0  0  0
   12.8302    4.4992   23.5478 H   0  0  0  0  0  0  0  0  0  0  0  0
   13.3669    2.5361   22.8402 C   0  0  0  0  0  0  0  0  0  0  0  0
   14.4344    2.7159   22.7839 H   0  0  0  0  0  0  0  0  0  0  0  0
   12.8753    1.2975   22.4383 C   0  0  0  0  0  0  0  0  0  0  0  0
   13.7714    0.3469   22.0957 F   0  0  0  0  0  0  0  0  0  0  0  0
    9.8810   -0.0596   20.7179 C   0  0  0  0  0  0  0  0  0  0  0  0
   10.1323   -0.6404   19.8289 H   0  0  0  0  0  0  0  0  0  0  0  0
    9.8182    0.9890   20.4003 H   0  0  0  0  0  0  0  0  0  0  0  0
    5.2609    0.6667   20.1129 C   0  0  0  0  0  0  0  0  0  0  0  0
    4.7592    0.7003   21.0840 H   0  0  0  0  0  0  0  0  0  0  0  0
    4.7198    1.3350   19.0104 C   0  0  0  0  0  0  0  0  0  0  0  0
    3.8025    1.9043   19.0918 H   0  0  0  0  0  0  0  0  0  0  0  0
  1  2  1  0
  2  3  2  0
  3  4  1  0
  4  5  1  0
  4  6  2  0
  6  7  1  0
  7  8  2  0
  8  9  1  0
  9 10  2  0
 10 11  1  0
 11 12  1  0
  9 13  1  0
 13 14  1  0
 13 15  1  0
 13 16  1  0
 16 17  1  6
 16 18  1  0
 18 19  2  0
 19 20  1  0
 19 21  1  0
 21 22  1  0
 21 23  2  0
 23 24  1  0
 23 25  1  0
 25 26  1  0
 25 27  2  0
 27 28  1  0
 16 29  1  0
 29 30  1  0
 29 31  1  0
  6 32  1  0
 32 33  1  0
 32 34  2  0
 34 35  1  0
 34  2  1  0
 11  7  1  0
 27 18  1  0
 29  8  1  0
M  END
>  <cnnaffinity>  (1) 
-5.6824

>  <filename>  (1) 
Fc1ccccc1[C@H]1Cc2n[nH]c(-c3cccnc3)c2C1

$$$$
