
     RDKit          3D

 32 34  0  0  0  0  0  0  0  0999 V2000
    4.9248    1.7825   16.9950 H   0  0  0  0  0  0  0  0  0  0  0  0
    5.4055    1.2903   17.8383 C   0  0  0  0  0  0  0  0  0  0  0  0
    6.5650    0.6681   17.5829 N   0  0  0  0  0  0  0  0  0  0  0  0
    7.1552    0.0330   18.6048 C   0  0  0  0  0  0  0  0  0  0  0  0
    8.1150   -0.4254   18.3739 H   0  0  0  0  0  0  0  0  0  0  0  0
    6.6410   -0.0345   19.9076 C   0  0  0  0  0  0  0  0  0  0  0  0
    7.3394   -0.8289   20.9897 C   0  0  0  0  0  0  0  0  0  0  0  0
    6.8276   -2.1870   20.9558 N   0  0  0  0  0  0  0  0  0  0  0  0
    6.3947   -2.4488   20.0853 H   0  0  0  0  0  0  0  0  0  0  0  0
    6.6614   -3.0620   22.0368 C   0  0  0  0  0  0  0  0  0  0  0  0
    7.7017   -3.4467   22.9270 C   0  0  0  0  0  0  0  0  0  0  0  0
    8.7045   -3.0720   22.7545 H   0  0  0  0  0  0  0  0  0  0  0  0
    7.5392   -4.2641   23.9822 N   0  0  0  0  0  0  0  0  0  0  0  0
    6.3106   -4.7433   24.2148 C   0  0  0  0  0  0  0  0  0  0  0  0
    6.1735   -5.4034   25.0685 H   0  0  0  0  0  0  0  0  0  0  0  0
    5.2281   -4.4239   23.3839 C   0  0  0  0  0  0  0  0  0  0  0  0
    4.0209   -4.9404   23.6496 F   0  0  0  0  0  0  0  0  0  0  0  0
    5.3801   -3.5950   22.2777 C   0  0  0  0  0  0  0  0  0  0  0  0
    4.5254   -3.3370   21.6574 H   0  0  0  0  0  0  0  0  0  0  0  0
    8.8958   -0.7377   20.9920 C   0  0  0  0  0  0  0  0  0  0  0  0
    9.3010   -0.0628   20.2359 H   0  0  0  0  0  0  0  0  0  0  0  0
    9.3911   -1.7072   20.8931 H   0  0  0  0  0  0  0  0  0  0  0  0
    8.8725   -0.1196   22.4093 C   0  0  0  0  0  0  0  0  0  0  0  0
    9.3186   -0.7483   23.1878 H   0  0  0  0  0  0  0  0  0  0  0  0
    9.3108    0.8805   22.4789 H   0  0  0  0  0  0  0  0  0  0  0  0
    7.3274   -0.1428   22.3888 C   0  0  0  0  0  0  0  0  0  0  0  0
    6.8334   -0.7265   23.1688 H   0  0  0  0  0  0  0  0  0  0  0  0
    6.8839    0.8535   22.3727 H   0  0  0  0  0  0  0  0  0  0  0  0
    5.4315    0.6368   20.1515 C   0  0  0  0  0  0  0  0  0  0  0  0
    5.0040    0.6378   21.1580 H   0  0  0  0  0  0  0  0  0  0  0  0
    4.8050    1.3074   19.1023 C   0  0  0  0  0  0  0  0  0  0  0  0
    3.8772    1.8459   19.2570 H   0  0  0  0  0  0  0  0  0  0  0  0
  1  2  1  0
  2  3  2  0
  3  4  1  0
  4  5  1  0
  4  6  2  0
  6  7  1  0
  7  8  1  0
  8  9  1  0
  8 10  1  0
 10 11  2  0
 11 12  1  0
 11 13  1  0
 13 14  2  0
 14 15  1  0
 14 16  1  0
 16 17  1  0
 16 18  2  0
 18 19  1  0
  7 20  1  0
 20 21  1  0
 20 22  1  0
 20 23  1  0
 23 24  1  0
 23 25  1  0
 23 26  1  0
 26 27  1  0
 26 28  1  0
  6 29  1  0
 29 30  1  0
 29 31  2  0
 31 32  1  0
 31  2  1  0
 26  7  1  0
 18 10  1  0
M  END
>  <cnnaffinity>  (1) 
-5.20284

>  <filename>  (1) 
Fc1cncc(NC2(c3cccnc3)CCC2)c1

$$$$
