
     RDKit          3D

 29 31  0  0  0  0  0  0  0  0999 V2000
    4.9348    1.8052   16.9921 H   0  0  0  0  0  0  0  0  0  0  0  0
    5.3964    1.2901   17.8303 C   0  0  0  0  0  0  0  0  0  0  0  0
    6.5501    0.6568   17.5632 N   0  0  0  0  0  0  0  0  0  0  0  0
    7.1715    0.0425   18.5787 C   0  0  0  0  0  0  0  0  0  0  0  0
    8.1250   -0.4342   18.3581 H   0  0  0  0  0  0  0  0  0  0  0  0
    6.6546    0.0034   19.8885 C   0  0  0  0  0  0  0  0  0  0  0  0
    7.3335   -0.6714   20.9473 N   0  0  0  0  0  0  0  0  0  0  0  0
    6.7265   -1.5931   21.7920 C   0  0  0  0  0  0  0  0  0  0  0  0
    5.6789   -1.8326   21.6903 H   0  0  0  0  0  0  0  0  0  0  0  0
    7.6630   -2.0587   22.6529 C   0  0  0  0  0  0  0  0  0  0  0  0
    7.5360   -2.9828   23.7867 C   0  0  0  0  0  0  0  0  0  0  0  0
    6.3084   -3.0552   24.4701 C   0  0  0  0  0  0  0  0  0  0  0  0
    5.5140   -2.3810   24.1503 H   0  0  0  0  0  0  0  0  0  0  0  0
    6.1046   -3.9332   25.5333 C   0  0  0  0  0  0  0  0  0  0  0  0
    5.1609   -3.9992   26.0598 H   0  0  0  0  0  0  0  0  0  0  0  0
    7.1572   -4.7558   25.9233 C   0  0  0  0  0  0  0  0  0  0  0  0
    6.9718   -5.6019   26.9451 F   0  0  0  0  0  0  0  0  0  0  0  0
    8.3971   -4.7222   25.2922 C   0  0  0  0  0  0  0  0  0  0  0  0
    9.2096   -5.3635   25.6124 H   0  0  0  0  0  0  0  0  0  0  0  0
    8.5666   -3.8268   24.2403 C   0  0  0  0  0  0  0  0  0  0  0  0
    9.7739   -3.7812   23.6438 F   0  0  0  0  0  0  0  0  0  0  0  0
    8.8355   -1.4072   22.3118 N   0  0  0  0  0  0  0  0  0  0  0  0
    9.7509   -1.4734   22.7298 H   0  0  0  0  0  0  0  0  0  0  0  0
    8.6517   -0.5042   21.3208 C   0  0  0  0  0  0  0  0  0  0  0  0
    9.8154    0.5555   20.8087 S   0  0  0  0  0  0  0  0  0  0  0  0
    5.4409    0.6478   20.1502 C   0  0  0  0  0  0  0  0  0  0  0  0
    5.0367    0.6381   21.1648 H   0  0  0  0  0  0  0  0  0  0  0  0
    4.8039    1.3111   19.0986 C   0  0  0  0  0  0  0  0  0  0  0  0
    3.8736    1.8451   19.2569 H   0  0  0  0  0  0  0  0  0  0  0  0
  1  2  1  0
  2  3  2  0
  3  4  1  0
  4  5  1  0
  4  6  2  0
  6  7  1  0
  7  8  1  0
  8  9  1  0
  8 10  2  0
 10 11  1  0
 11 12  2  0
 12 13  1  0
 12 14  1  0
 14 15  1  0
 14 16  2  0
 16 17  1  0
 16 18  1  0
 18 19  1  0
 18 20  2  0
 20 21  1  0
 10 22  1  0
 22 23  1  0
 22 24  1  0
 24 25  2  0
  6 26  1  0
 26 27  1  0
 26 28  2  0
 28 29  1  0
 28  2  1  0
 24  7  1  0
 20 11  1  0
M  END
>  <cnnaffinity>  (1) 
-5.6893

>  <filename>  (1) 
Fc1ccc(-c2cn(-c3cccnc3)c(=S)[nH]2)c(F)c1

$$$$
