
     RDKit          3D

 26 28  0  0  0  0  0  0  0  0999 V2000
    4.9239    1.7987   16.9868 H   0  0  0  0  0  0  0  0  0  0  0  0
    5.3958    1.2993   17.8297 C   0  0  0  0  0  0  0  0  0  0  0  0
    6.5583    0.6825   17.5640 N   0  0  0  0  0  0  0  0  0  0  0  0
    7.1650    0.0615   18.5779 C   0  0  0  0  0  0  0  0  0  0  0  0
    8.1168   -0.4067   18.3436 H   0  0  0  0  0  0  0  0  0  0  0  0
    6.6590   -0.0028   19.9020 C   0  0  0  0  0  0  0  0  0  0  0  0
    7.3645   -0.7157   20.9911 C   0  0  0  0  0  0  0  0  0  0  0  0
    8.0693   -2.2544   20.8370 S   0  0  0  0  0  0  0  0  0  0  0  0
    8.4838   -2.3690   22.4585 N   0  0  0  0  0  0  0  0  0  0  0  0
    8.1352   -1.3257   23.0947 N   0  0  0  0  0  0  0  0  0  0  0  0
    7.5336   -0.3632   22.3304 C   0  0  0  0  0  0  0  0  0  0  0  0
    7.1692    0.9156   22.9543 C   0  0  0  0  0  0  0  0  0  0  0  0
    7.3837    2.1282   22.2776 C   0  0  0  0  0  0  0  0  0  0  0  0
    7.8013    2.1203   21.2767 H   0  0  0  0  0  0  0  0  0  0  0  0
    7.0106    3.3396   22.8641 C   0  0  0  0  0  0  0  0  0  0  0  0
    7.1478    4.2966   22.3701 H   0  0  0  0  0  0  0  0  0  0  0  0
    6.4377    3.3254   24.1283 C   0  0  0  0  0  0  0  0  0  0  0  0
    6.0906    4.4766   24.7156 F   0  0  0  0  0  0  0  0  0  0  0  0
    6.2268    2.1192   24.8057 C   0  0  0  0  0  0  0  0  0  0  0  0
    5.6916    2.1381   26.0331 F   0  0  0  0  0  0  0  0  0  0  0  0
    6.5876    0.9137   24.2308 C   0  0  0  0  0  0  0  0  0  0  0  0
    6.4201   -0.0087   24.7831 H   0  0  0  0  0  0  0  0  0  0  0  0
    5.4337    0.6390   20.1485 C   0  0  0  0  0  0  0  0  0  0  0  0
    5.0267    0.6330   21.1622 H   0  0  0  0  0  0  0  0  0  0  0  0
    4.8027    1.3035   19.0971 C   0  0  0  0  0  0  0  0  0  0  0  0
    3.8747    1.8399   19.2471 H   0  0  0  0  0  0  0  0  0  0  0  0
  1  2  1  0
  2  3  2  0
  3  4  1  0
  4  5  1  0
  4  6  2  0
  6  7  1  0
  7  8  1  0
  8  9  1  0
  9 10  2  0
 10 11  1  0
 11 12  1  0
 12 13  2  0
 13 14  1  0
 13 15  1  0
 15 16  1  0
 15 17  2  0
 17 18  1  0
 17 19  1  0
 19 20  1  0
 19 21  2  0
 21 22  1  0
  6 23  1  0
 23 24  1  0
 23 25  2  0
 25 26  1  0
 25  2  1  0
 11  7  2  0
 21 12  1  0
M  END
>  <cnnaffinity>  (1) 
-5.08748

>  <filename>  (1) 
Fc1ccc(-c2nnsc2-c2cccnc2)cc1F

$$$$
