
     RDKit          3D

 30 33  0  0  0  0  0  0  0  0999 V2000
    4.9125    1.8076   16.9746 H   0  0  0  0  0  0  0  0  0  0  0  0
    5.3802    1.3033   17.8210 C   0  0  0  0  0  0  0  0  0  0  0  0
    6.5434    0.6845   17.5643 N   0  0  0  0  0  0  0  0  0  0  0  0
    7.1533    0.0753   18.5851 C   0  0  0  0  0  0  0  0  0  0  0  0
    8.1039   -0.3946   18.3407 H   0  0  0  0  0  0  0  0  0  0  0  0
    6.6611    0.0274   19.9110 C   0  0  0  0  0  0  0  0  0  0  0  0
    7.4118   -0.6773   20.9657 C   0  0  0  0  0  0  0  0  0  0  0  0
    8.3163   -1.7122   20.9078 C   0  0  0  0  0  0  0  0  0  0  0  0
    8.7159   -2.1277   20.0058 H   0  0  0  0  0  0  0  0  0  0  0  0
    8.7715   -2.1271   22.1277 N   0  0  0  0  0  0  0  0  0  0  0  0
    8.1722   -1.3070   22.9534 C   0  0  0  0  0  0  0  0  0  0  0  0
    8.2669   -0.9516   24.6343 S   0  0  0  0  0  0  0  0  0  0  0  0
    7.1300    0.3734   24.3112 C   0  0  0  0  0  0  0  0  0  0  0  0
    6.6388    1.2560   25.3690 C   0  0  0  0  0  0  0  0  0  0  0  0
    7.3225    1.3912   26.5893 C   0  0  0  0  0  0  0  0  0  0  0  0
    8.4486    0.7011   26.7783 F   0  0  0  0  0  0  0  0  0  0  0  0
    6.8745    2.2107   27.6190 C   0  0  0  0  0  0  0  0  0  0  0  0
    7.4641    2.2476   28.5269 H   0  0  0  0  0  0  0  0  0  0  0  0
    5.6913    2.9345   27.4437 C   0  0  0  0  0  0  0  0  0  0  0  0
    5.3231    3.5807   28.2387 H   0  0  0  0  0  0  0  0  0  0  0  0
    4.9765    2.8291   26.2477 C   0  0  0  0  0  0  0  0  0  0  0  0
    4.0585    3.3718   26.0591 H   0  0  0  0  0  0  0  0  0  0  0  0
    5.4533    2.0002   25.2365 C   0  0  0  0  0  0  0  0  0  0  0  0
    4.7277    1.9163   24.1172 F   0  0  0  0  0  0  0  0  0  0  0  0
    6.7403    0.5158   23.0828 N   0  0  0  0  0  0  0  0  0  0  0  0
    7.3375   -0.4232   22.3309 N   0  0  0  0  0  0  0  0  0  0  0  0
    5.4312    0.6662   20.1495 C   0  0  0  0  0  0  0  0  0  0  0  0
    5.0201    0.6529   21.1570 H   0  0  0  0  0  0  0  0  0  0  0  0
    4.7911    1.3148   19.0893 C   0  0  0  0  0  0  0  0  0  0  0  0
    3.8599    1.8494   19.2341 H   0  0  0  0  0  0  0  0  0  0  0  0
  1  2  1  0
  2  3  2  0
  3  4  1  0
  4  5  1  0
  4  6  2  0
  6  7  1  0
  7  8  2  0
  8  9  1  0
  8 10  1  0
 10 11  2  0
 11 12  1  0
 12 13  1  0
 13 14  1  0
 14 15  2  0
 15 16  1  0
 15 17  1  0
 17 18  1  0
 17 19  2  0
 19 20  1  0
 19 21  1  0
 21 22  1  0
 21 23  2  0
 23 24  1  0
 13 25  2  0
 25 26  1  0
  6 27  1  0
 27 28  1  0
 27 29  2  0
 29 30  1  0
 29  2  1  0
 26  7  1  0
 26 11  1  0
 23 14  1  0
M  END
>  <cnnaffinity>  (1) 
-5.44493

>  <filename>  (1) 
Fc1cccc(F)c1-c1nn2c(-c3cccnc3)cnc2s1

$$$$
