
     RDKit          3D

 22 23  0  0  0  0  0  0  0  0999 V2000
    4.9120    1.7820   16.9949 H   0  0  0  0  0  0  0  0  0  0  0  0
    5.3997    1.2943   17.8364 C   0  0  0  0  0  0  0  0  0  0  0  0
    6.5641    0.6820   17.5724 N   0  0  0  0  0  0  0  0  0  0  0  0
    7.1658    0.0521   18.5877 C   0  0  0  0  0  0  0  0  0  0  0  0
    8.1172   -0.4295   18.3713 H   0  0  0  0  0  0  0  0  0  0  0  0
    6.6343   -0.0263   19.8866 C   0  0  0  0  0  0  0  0  0  0  0  0
    7.5459   -0.8287   21.1983 S   0  0  0  0  0  0  0  0  0  0  0  0
    8.4672    0.6049   21.7068 C   0  0  0  0  0  0  0  0  0  0  0  0
    7.9296    1.4814   22.6520 C   0  0  0  0  0  0  0  0  0  0  0  0
    6.9648    1.2964   23.1137 H   0  0  0  0  0  0  0  0  0  0  0  0
    8.6626    2.6084   22.9935 C   0  0  0  0  0  0  0  0  0  0  0  0
    8.1669    3.4394   23.9158 F   0  0  0  0  0  0  0  0  0  0  0  0
    9.8983    2.9089   22.4290 C   0  0  0  0  0  0  0  0  0  0  0  0
   10.4522    3.7935   22.7126 H   0  0  0  0  0  0  0  0  0  0  0  0
   10.3809    2.0243   21.4704 C   0  0  0  0  0  0  0  0  0  0  0  0
   11.5637    2.2823   20.9022 F   0  0  0  0  0  0  0  0  0  0  0  0
    9.6905    0.8824   21.0925 C   0  0  0  0  0  0  0  0  0  0  0  0
   10.0877    0.2027   20.3514 H   0  0  0  0  0  0  0  0  0  0  0  0
    5.4308    0.6412   20.1524 C   0  0  0  0  0  0  0  0  0  0  0  0
    5.0048    0.6304   21.1622 H   0  0  0  0  0  0  0  0  0  0  0  0
    4.8016    1.3123   19.1025 C   0  0  0  0  0  0  0  0  0  0  0  0
    3.8710    1.8470   19.2610 H   0  0  0  0  0  0  0  0  0  0  0  0
  1  2  1  0
  2  3  2  0
  3  4  1  0
  4  5  1  0
  4  6  2  0
  6  7  1  0
  7  8  1  0
  8  9  2  0
  9 10  1  0
  9 11  1  0
 11 12  1  0
 11 13  2  0
 13 14  1  0
 13 15  1  0
 15 16  1  0
 15 17  2  0
 17 18  1  0
  6 19  1  0
 19 20  1  0
 19 21  2  0
 21 22  1  0
 21  2  1  0
 17  8  1  0
M  END
>  <cnnaffinity>  (1) 
-4.5687

>  <filename>  (1) 
Fc1cc(F)cc(Sc2cccnc2)c1

$$$$
