
     RDKit          3D

 30 32  0  0  0  0  0  0  0  0999 V2000
    4.9114    1.7973   16.9809 H   0  0  0  0  0  0  0  0  0  0  0  0
    5.3885    1.3046   17.8218 C   0  0  0  0  0  0  0  0  0  0  0  0
    6.5540    0.6902   17.5531 N   0  0  0  0  0  0  0  0  0  0  0  0
    7.1583    0.0646   18.5689 C   0  0  0  0  0  0  0  0  0  0  0  0
    8.1164   -0.4016   18.3372 H   0  0  0  0  0  0  0  0  0  0  0  0
    6.6503    0.0135   19.8837 C   0  0  0  0  0  0  0  0  0  0  0  0
    7.3679   -0.6545   20.9741 C   0  0  0  0  0  0  0  0  0  0  0  0
    7.5136   -0.3197   22.3155 C   0  0  0  0  0  0  0  0  0  0  0  0
    7.0358    0.8370   22.9353 N   0  0  0  0  0  0  0  0  0  0  0  0
    6.9812    1.6548   22.3514 H   0  0  0  0  0  0  0  0  0  0  0  0
    6.8199    1.0298   24.2956 C   0  0  0  0  0  0  0  0  0  0  0  0
    6.3554   -0.0176   25.0992 C   0  0  0  0  0  0  0  0  0  0  0  0
    6.1779   -0.9726   24.6203 H   0  0  0  0  0  0  0  0  0  0  0  0
    6.1407    0.1701   26.4649 C   0  0  0  0  0  0  0  0  0  0  0  0
    5.7908   -0.6345   27.0996 H   0  0  0  0  0  0  0  0  0  0  0  0
    6.3773    1.4138   27.0317 C   0  0  0  0  0  0  0  0  0  0  0  0
    6.1658    1.6066   28.3405 F   0  0  0  0  0  0  0  0  0  0  0  0
    6.8263    2.4683   26.2251 C   0  0  0  0  0  0  0  0  0  0  0  0
    7.0389    3.6676   26.7793 F   0  0  0  0  0  0  0  0  0  0  0  0
    7.0402    2.2940   24.8616 C   0  0  0  0  0  0  0  0  0  0  0  0
    7.3965    3.1360   24.2768 H   0  0  0  0  0  0  0  0  0  0  0  0
    8.2879   -1.3749   22.8622 C   0  0  0  0  0  0  0  0  0  0  0  0
    8.6234   -1.4634   23.8849 H   0  0  0  0  0  0  0  0  0  0  0  0
    8.6028   -2.2875   21.9514 N   0  0  0  0  0  0  0  0  0  0  0  0
    8.0467   -1.8218   20.8232 N   0  0  0  0  0  0  0  0  0  0  0  0
    8.1320   -2.3601   19.9767 H   0  0  0  0  0  0  0  0  0  0  0  0
    5.4321    0.6617   20.1423 C   0  0  0  0  0  0  0  0  0  0  0  0
    5.0164    0.6262   21.1523 H   0  0  0  0  0  0  0  0  0  0  0  0
    4.7951    1.3187   19.0894 C   0  0  0  0  0  0  0  0  0  0  0  0
    3.8652    1.8484   19.2462 H   0  0  0  0  0  0  0  0  0  0  0  0
  1  2  1  0
  2  3  2  0
  3  4  1  0
  4  5  1  0
  4  6  2  0
  6  7  1  0
  7  8  2  0
  8  9  1  0
  9 10  1  0
  9 11  1  0
 11 12  2  0
 12 13  1  0
 12 14  1  0
 14 15  1  0
 14 16  2  0
 16 17  1  0
 16 18  1  0
 18 19  1  0
 18 20  2  0
 20 21  1  0
  8 22  1  0
 22 23  1  0
 22 24  2  0
 24 25  1  0
 25 26  1  0
  6 27  1  0
 27 28  1  0
 27 29  2  0
 29 30  1  0
 29  2  1  0
 25  7  1  0
 20 11  1  0
M  END
>  <cnnaffinity>  (1) 
-5.58239

>  <filename>  (1) 
Fc1ccc(Nc2cn[nH]c2-c2cccnc2)cc1F

$$$$
