
     RDKit          3D

 35 38  0  0  0  0  0  0  0  0999 V2000
    4.9946    1.8448   16.9158 H   0  0  0  0  0  0  0  0  0  0  0  0
    5.3892    1.3080   17.7822 C   0  0  0  0  0  0  0  0  0  0  0  0
    6.5412    0.6481   17.5928 N   0  0  0  0  0  0  0  0  0  0  0  0
    7.0664    0.0268   18.6583 C   0  0  0  0  0  0  0  0  0  0  0  0
    8.0068   -0.4921   18.4726 H   0  0  0  0  0  0  0  0  0  0  0  0
    6.4856   -0.0082   19.9467 C   0  0  0  0  0  0  0  0  0  0  0  0
    7.2385   -0.6208   21.0657 C   0  0  0  0  0  0  0  0  0  0  0  0
    8.5926   -0.5550   21.3031 C   0  0  0  0  0  0  0  0  0  0  0  0
    8.8064   -1.1592   22.5361 C   0  0  0  0  0  0  0  0  0  0  0  0
    7.6962   -1.6236   23.0726 N   0  0  0  0  0  0  0  0  0  0  0  0
    6.7450   -1.2751   22.1656 N   0  0  0  0  0  0  0  0  0  0  0  0
    5.7859   -1.5236   22.3740 H   0  0  0  0  0  0  0  0  0  0  0  0
   10.2431   -1.1208   22.9610 C   0  0  0  0  0  0  0  0  0  0  0  0
   10.6586   -2.1288   23.0404 H   0  0  0  0  0  0  0  0  0  0  0  0
   10.3803   -0.6506   23.9397 H   0  0  0  0  0  0  0  0  0  0  0  0
   10.9367   -0.2881   21.8224 C   0  0  2  0  0  0  0  0  0  0  0  0
   11.7447   -0.8974   21.4088 H   0  0  0  0  0  0  0  0  0  0  0  0
   11.5185    1.0182   22.3285 C   0  0  0  0  0  0  0  0  0  0  0  0
   10.6581    1.9994   22.8529 C   0  0  0  0  0  0  0  0  0  0  0  0
    9.5890    1.8000   22.8910 H   0  0  0  0  0  0  0  0  0  0  0  0
   11.1472    3.2196   23.3217 C   0  0  0  0  0  0  0  0  0  0  0  0
   10.4863    3.9796   23.7239 H   0  0  0  0  0  0  0  0  0  0  0  0
   12.5191    3.4547   23.2552 C   0  0  0  0  0  0  0  0  0  0  0  0
   12.9969    4.6301   23.6971 F   0  0  0  0  0  0  0  0  0  0  0  0
   13.4054    2.5075   22.7540 C   0  0  0  0  0  0  0  0  0  0  0  0
   14.4625    2.7432   22.6918 H   0  0  0  0  0  0  0  0  0  0  0  0
   12.8977    1.2838   22.3047 C   0  0  0  0  0  0  0  0  0  0  0  0
   13.5880    0.5316   21.9294 H   0  0  0  0  0  0  0  0  0  0  0  0
    9.8627   -0.0663   20.7018 C   0  0  0  0  0  0  0  0  0  0  0  0
    9.7957    0.9772   20.3761 H   0  0  0  0  0  0  0  0  0  0  0  0
   10.1194   -0.6440   19.8138 H   0  0  0  0  0  0  0  0  0  0  0  0
    5.2600    0.6653   20.1077 C   0  0  0  0  0  0  0  0  0  0  0  0
    4.7629    0.7078   21.0817 H   0  0  0  0  0  0  0  0  0  0  0  0
    4.7168    1.3365   19.0095 C   0  0  0  0  0  0  0  0  0  0  0  0
    3.8022    1.9095   19.0939 H   0  0  0  0  0  0  0  0  0  0  0  0
  1  2  1  0
  2  3  2  0
  3  4  1  0
  4  5  1  0
  4  6  2  0
  6  7  1  0
  7  8  2  0
  8  9  1  0
  9 10  2  0
 10 11  1  0
 11 12  1  0
  9 13  1  0
 13 14  1  0
 13 15  1  0
 13 16  1  0
 16 17  1  6
 16 18  1  0
 18 19  2  0
 19 20  1  0
 19 21  1  0
 21 22  1  0
 21 23  2  0
 23 24  1  0
 23 25  1  0
 25 26  1  0
 25 27  2  0
 27 28  1  0
 16 29  1  0
 29 30  1  0
 29 31  1  0
  6 32  1  0
 32 33  1  0
 32 34  2  0
 34 35  1  0
 34  2  1  0
 11  7  1  0
 27 18  1  0
 29  8  1  0
M  END
>  <cnnaffinity>  (1) 
-5.55635

>  <filename>  (1) 
Fc1ccc([C@H]2Cc3n[nH]c(-c4cccnc4)c3C2)cc1

$$$$
