
     RDKit          3D

 28 30  0  0  0  0  0  0  0  0999 V2000
    9.3867   -0.3243   20.3657 H   0  0  0  0  0  0  0  0  0  0  0  0
    8.7415   -0.8074   21.0873 C   0  0  0  0  0  0  0  0  0  0  0  0
    9.3415   -1.4707   22.0744 N   0  0  0  0  0  0  0  0  0  0  0  0
    8.5872   -2.0855   22.9944 N   0  0  0  0  0  0  0  0  0  0  0  0
    7.2484   -2.0173   22.9151 C   0  0  0  0  0  0  0  0  0  0  0  0
    6.4574   -2.7144   23.9680 C   0  0  0  0  0  0  0  0  0  0  0  0
    6.9607   -2.9782   25.2585 C   0  0  0  0  0  0  0  0  0  0  0  0
    8.2178   -2.6839   25.5746 F   0  0  0  0  0  0  0  0  0  0  0  0
    6.1933   -3.5359   26.2811 C   0  0  0  0  0  0  0  0  0  0  0  0
    6.6761   -3.7416   27.2350 H   0  0  0  0  0  0  0  0  0  0  0  0
    4.8466   -3.8073   26.0415 C   0  0  0  0  0  0  0  0  0  0  0  0
    4.2217   -4.1672   26.8531 H   0  0  0  0  0  0  0  0  0  0  0  0
    4.3056   -3.5882   24.7727 C   0  0  0  0  0  0  0  0  0  0  0  0
    3.2578   -3.7580   24.5561 H   0  0  0  0  0  0  0  0  0  0  0  0
    5.1354   -3.1373   23.7453 C   0  0  0  0  0  0  0  0  0  0  0  0
    4.6223   -3.1463   22.5067 F   0  0  0  0  0  0  0  0  0  0  0  0
    6.5855   -1.3455   21.9453 N   0  0  0  0  0  0  0  0  0  0  0  0
    7.3250   -0.7432   21.0166 C   0  0  0  0  0  0  0  0  0  0  0  0
    6.6219   -0.0117   19.9300 C   0  0  0  0  0  0  0  0  0  0  0  0
    7.1547    0.0350   18.6274 C   0  0  0  0  0  0  0  0  0  0  0  0
    8.0981   -0.4552   18.3898 H   0  0  0  0  0  0  0  0  0  0  0  0
    6.5654    0.6579   17.6028 N   0  0  0  0  0  0  0  0  0  0  0  0
    5.4093    1.2911   17.8429 C   0  0  0  0  0  0  0  0  0  0  0  0
    4.9500    1.7926   16.9930 H   0  0  0  0  0  0  0  0  0  0  0  0
    4.7979    1.3193   19.1015 C   0  0  0  0  0  0  0  0  0  0  0  0
    3.8668    1.8588   19.2353 H   0  0  0  0  0  0  0  0  0  0  0  0
    5.4098    0.6527   20.1625 C   0  0  0  0  0  0  0  0  0  0  0  0
    4.9719    0.6336   21.1615 H   0  0  0  0  0  0  0  0  0  0  0  0
  1  2  1  0
  2  3  2  0
  3  4  1  0
  4  5  2  0
  5  6  1  0
  6  7  2  0
  7  8  1  0
  7  9  1  0
  9 10  1  0
  9 11  2  0
 11 12  1  0
 11 13  1  0
 13 14  1  0
 13 15  2  0
 15 16  1  0
  5 17  1  0
 17 18  2  0
 18 19  1  0
 19 20  2  0
 20 21  1  0
 20 22  1  0
 22 23  2  0
 23 24  1  0
 23 25  1  0
 25 26  1  0
 25 27  2  0
 27 28  1  0
 18  2  1  0
 27 19  1  0
 15  6  1  0
M  END
>  <cnnaffinity>  (1) 
-5.22267

>  <filename>  (1) 
Fc1cccc(F)c1-c1nncc(-c2cccnc2)n1

$$$$
