
     RDKit          3D

 29 31  0  0  0  0  0  0  0  0999 V2000
    5.6843   -1.7742   21.6264 H   0  0  0  0  0  0  0  0  0  0  0  0
    6.7254   -1.5251   21.8467 C   0  0  0  0  0  0  0  0  0  0  0  0
    7.3167   -2.1204   22.9006 N   0  0  0  0  0  0  0  0  0  0  0  0
    8.6162   -1.8215   23.0901 C   0  0  0  0  0  0  0  0  0  0  0  0
    9.1143   -2.2780   23.9406 H   0  0  0  0  0  0  0  0  0  0  0  0
    9.3321   -0.9465   22.2256 C   0  0  0  0  0  0  0  0  0  0  0  0
   10.7955   -0.7107   22.3570 C   0  0  0  0  0  0  0  0  0  0  0  0
   11.6759   -1.7864   22.2768 C   0  0  0  0  0  0  0  0  0  0  0  0
   11.1681   -3.0243   22.3517 F   0  0  0  0  0  0  0  0  0  0  0  0
   13.0531   -1.6473   22.1647 C   0  0  0  0  0  0  0  0  0  0  0  0
   13.6412   -2.5451   22.0264 H   0  0  0  0  0  0  0  0  0  0  0  0
   13.5993   -0.3658   22.2693 C   0  0  0  0  0  0  0  0  0  0  0  0
   14.6732   -0.2363   22.2068 H   0  0  0  0  0  0  0  0  0  0  0  0
   12.7649    0.7465   22.4298 C   0  0  0  0  0  0  0  0  0  0  0  0
   13.1529    1.7520   22.5430 H   0  0  0  0  0  0  0  0  0  0  0  0
   11.3814    0.5561   22.4343 C   0  0  0  0  0  0  0  0  0  0  0  0
   10.5851    1.6262   22.5328 F   0  0  0  0  0  0  0  0  0  0  0  0
    8.7403   -0.3744   21.1658 N   0  0  0  0  0  0  0  0  0  0  0  0
    7.4261   -0.6306   20.9997 C   0  0  0  0  0  0  0  0  0  0  0  0
    6.7606    0.0721   19.8898 C   0  0  0  0  0  0  0  0  0  0  0  0
    7.3944    0.1191   18.6410 C   0  0  0  0  0  0  0  0  0  0  0  0
    8.3805   -0.3275   18.5189 H   0  0  0  0  0  0  0  0  0  0  0  0
    6.8404    0.6735   17.5579 N   0  0  0  0  0  0  0  0  0  0  0  0
    5.6411    1.2586   17.7046 C   0  0  0  0  0  0  0  0  0  0  0  0
    5.2091    1.7040   16.8085 H   0  0  0  0  0  0  0  0  0  0  0  0
    4.9518    1.3119   18.9213 C   0  0  0  0  0  0  0  0  0  0  0  0
    4.0034    1.8319   18.9815 H   0  0  0  0  0  0  0  0  0  0  0  0
    5.5178    0.6994   20.0394 C   0  0  0  0  0  0  0  0  0  0  0  0
    5.0259    0.7364   21.0147 H   0  0  0  0  0  0  0  0  0  0  0  0
  1  2  1  0
  2  3  2  0
  3  4  1  0
  4  5  1  0
  4  6  2  0
  6  7  1  0
  7  8  2  0
  8  9  1  0
  8 10  1  0
 10 11  1  0
 10 12  2  0
 12 13  1  0
 12 14  1  0
 14 15  1  0
 14 16  2  0
 16 17  1  0
  6 18  1  0
 18 19  2  0
 19 20  1  0
 20 21  2  0
 21 22  1  0
 21 23  1  0
 23 24  2  0
 24 25  1  0
 24 26  1  0
 26 27  1  0
 26 28  2  0
 28 29  1  0
 19  2  1  0
 28 20  1  0
 16  7  1  0
M  END
>  <cnnaffinity>  (1) 
-5.49518

>  <filename>  (1) 
Fc1cccc(F)c1-c1cncc(-c2cccnc2)n1

$$$$
