
     RDKit          3D

 32 35  0  0  0  0  0  0  0  0999 V2000
    4.9373    1.8024   16.9507 H   0  0  0  0  0  0  0  0  0  0  0  0
    5.4214    1.3068   17.7863 C   0  0  0  0  0  0  0  0  0  0  0  0
    6.5840    0.6912   17.5272 N   0  0  0  0  0  0  0  0  0  0  0  0
    7.2175    0.1017   18.5460 C   0  0  0  0  0  0  0  0  0  0  0  0
    8.1523   -0.3981   18.2981 H   0  0  0  0  0  0  0  0  0  0  0  0
    6.7188    0.0832   19.8610 C   0  0  0  0  0  0  0  0  0  0  0  0
    7.4123   -0.6709   20.9188 C   0  0  0  0  0  0  0  0  0  0  0  0
    8.6357   -1.1986   20.7529 N   0  0  0  0  0  0  0  0  0  0  0  0
    8.8102   -1.8954   21.8996 N   0  0  0  0  0  0  0  0  0  0  0  0
    9.7736   -2.7729   22.3789 C   0  0  0  0  0  0  0  0  0  0  0  0
   10.7215   -2.8841   21.8780 H   0  0  0  0  0  0  0  0  0  0  0  0
    9.2349   -3.3480   23.4830 C   0  0  0  0  0  0  0  0  0  0  0  0
    9.6168   -4.1321   24.1170 H   0  0  0  0  0  0  0  0  0  0  0  0
    7.9814   -2.7785   23.7433 N   0  0  0  0  0  0  0  0  0  0  0  0
    7.0630   -3.0727   24.7825 C   0  0  0  0  0  0  0  0  0  0  0  0
    6.8731   -4.4000   25.1912 C   0  0  0  0  0  0  0  0  0  0  0  0
    7.4226   -5.2142   24.7333 H   0  0  0  0  0  0  0  0  0  0  0  0
    5.8916   -4.6687   26.1405 C   0  0  0  0  0  0  0  0  0  0  0  0
    5.6791   -5.9453   26.4865 F   0  0  0  0  0  0  0  0  0  0  0  0
    5.1013   -3.6765   26.7135 C   0  0  0  0  0  0  0  0  0  0  0  0
    4.3313   -3.9130   27.4368 H   0  0  0  0  0  0  0  0  0  0  0  0
    5.3289   -2.3701   26.2910 C   0  0  0  0  0  0  0  0  0  0  0  0
    4.5608   -1.3942   26.7961 F   0  0  0  0  0  0  0  0  0  0  0  0
    6.2919   -2.0378   25.3457 C   0  0  0  0  0  0  0  0  0  0  0  0
    6.4074   -1.0079   25.0237 H   0  0  0  0  0  0  0  0  0  0  0  0
    7.7544   -1.8539   22.7345 C   0  0  0  0  0  0  0  0  0  0  0  0
    6.8381   -0.9898   22.1661 C   0  0  0  0  0  0  0  0  0  0  0  0
    5.9348   -0.5639   22.5492 H   0  0  0  0  0  0  0  0  0  0  0  0
    5.4840    0.7126   20.1020 C   0  0  0  0  0  0  0  0  0  0  0  0
    5.0296    0.7113   21.0932 H   0  0  0  0  0  0  0  0  0  0  0  0
    4.8241    1.3320   19.0495 C   0  0  0  0  0  0  0  0  0  0  0  0
    3.8749    1.8346   19.2005 H   0  0  0  0  0  0  0  0  0  0  0  0
  1  2  1  0
  2  3  2  0
  3  4  1  0
  4  5  1  0
  4  6  2  0
  6  7  1  0
  7  8  2  0
  8  9  1  0
  9 10  1  0
 10 11  1  0
 10 12  2  0
 12 13  1  0
 12 14  1  0
 14 15  1  0
 15 16  2  0
 16 17  1  0
 16 18  1  0
 18 19  1  0
 18 20  2  0
 20 21  1  0
 20 22  1  0
 22 23  1  0
 22 24  2  0
 24 25  1  0
 14 26  1  0
 26 27  2  0
 27 28  1  0
  6 29  1  0
 29 30  1  0
 29 31  2  0
 31 32  1  0
 31  2  1  0
 27  7  1  0
 26  9  1  0
 24 15  1  0
M  END
>  <cnnaffinity>  (1) 
-5.75682

>  <filename>  (1) 
Fc1cc(F)cc(-n2ccn3nc(-c4cccnc4)cc23)c1

$$$$
