
     RDKit          3D

 30 32  0  0  0  0  0  0  0  0999 V2000
    4.9300    1.7790   17.0017 H   0  0  0  0  0  0  0  0  0  0  0  0
    5.4107    1.2871   17.8459 C   0  0  0  0  0  0  0  0  0  0  0  0
    6.5760    0.6717   17.5922 N   0  0  0  0  0  0  0  0  0  0  0  0
    7.1674    0.0335   18.6077 C   0  0  0  0  0  0  0  0  0  0  0  0
    8.1178   -0.4400   18.3701 H   0  0  0  0  0  0  0  0  0  0  0  0
    6.6449   -0.0202   19.9040 C   0  0  0  0  0  0  0  0  0  0  0  0
    7.3965   -0.7377   20.9608 C   0  0  0  0  0  0  0  0  0  0  0  0
    7.7626   -1.9947   20.6635 N   0  0  0  0  0  0  0  0  0  0  0  0
    8.3380   -2.7226   21.6203 C   0  0  0  0  0  0  0  0  0  0  0  0
    8.5913   -3.7423   21.3463 H   0  0  0  0  0  0  0  0  0  0  0  0
    8.6257   -2.2398   22.8999 C   0  0  0  0  0  0  0  0  0  0  0  0
    9.1164   -2.8795   23.6253 H   0  0  0  0  0  0  0  0  0  0  0  0
    8.2871   -0.9277   23.2055 C   0  0  0  0  0  0  0  0  0  0  0  0
    8.5106   -0.4897   24.1831 H   0  0  0  0  0  0  0  0  0  0  0  0
    7.6782   -0.1399   22.2204 C   0  0  0  0  0  0  0  0  0  0  0  0
    7.3943    1.2966   22.5202 C   0  0  0  0  0  0  0  0  0  0  0  0
    7.8702    2.3201   21.6849 C   0  0  0  0  0  0  0  0  0  0  0  0
    8.4318    2.0504   20.7953 H   0  0  0  0  0  0  0  0  0  0  0  0
    7.6158    3.6615   21.9806 C   0  0  0  0  0  0  0  0  0  0  0  0
    7.9743    4.4832   21.3680 H   0  0  0  0  0  0  0  0  0  0  0  0
    6.8682    3.9822   23.1071 C   0  0  0  0  0  0  0  0  0  0  0  0
    6.6123    5.2631   23.3957 F   0  0  0  0  0  0  0  0  0  0  0  0
    6.3902    2.9708   23.9489 C   0  0  0  0  0  0  0  0  0  0  0  0
    5.6904    3.3001   25.0412 F   0  0  0  0  0  0  0  0  0  0  0  0
    6.6564    1.6372   23.6647 C   0  0  0  0  0  0  0  0  0  0  0  0
    6.2683    0.8802   24.3403 H   0  0  0  0  0  0  0  0  0  0  0  0
    5.4349    0.6381   20.1658 C   0  0  0  0  0  0  0  0  0  0  0  0
    5.0098    0.6446   21.1747 H   0  0  0  0  0  0  0  0  0  0  0  0
    4.8083    1.2989   19.1098 C   0  0  0  0  0  0  0  0  0  0  0  0
    3.8789    1.8393   19.2547 H   0  0  0  0  0  0  0  0  0  0  0  0
  1  2  1  0
  2  3  2  0
  3  4  1  0
  4  5  1  0
  4  6  2  0
  6  7  1  0
  7  8  2  0
  8  9  1  0
  9 10  1  0
  9 11  2  0
 11 12  1  0
 11 13  1  0
 13 14  1  0
 13 15  2  0
 15 16  1  0
 16 17  2  0
 17 18  1  0
 17 19  1  0
 19 20  1  0
 19 21  2  0
 21 22  1  0
 21 23  1  0
 23 24  1  0
 23 25  2  0
 25 26  1  0
  6 27  1  0
 27 28  1  0
 27 29  2  0
 29 30  1  0
 29  2  1  0
 15  7  1  0
 25 16  1  0
M  END
>  <cnnaffinity>  (1) 
-5.00799

>  <filename>  (1) 
Fc1ccc(-c2cccnc2-c2cccnc2)cc1F

$$$$
