
     RDKit          3D

 26 28  0  0  0  0  0  0  0  0999 V2000
    8.8488   -3.1980   22.2099 H   0  0  0  0  0  0  0  0  0  0  0  0
    8.3493   -2.2821   21.9217 C   0  0  0  0  0  0  0  0  0  0  0  0
    7.9428   -1.9404   20.7486 N   0  0  0  0  0  0  0  0  0  0  0  0
    7.3611   -0.6999   20.9438 C   0  0  0  0  0  0  0  0  0  0  0  0
    6.6451   -0.0006   19.8901 C   0  0  0  0  0  0  0  0  0  0  0  0
    7.1677    0.0415   18.5882 C   0  0  0  0  0  0  0  0  0  0  0  0
    8.1190   -0.4366   18.3693 H   0  0  0  0  0  0  0  0  0  0  0  0
    6.5688    0.6745   17.5775 N   0  0  0  0  0  0  0  0  0  0  0  0
    5.4063    1.2926   17.8377 C   0  0  0  0  0  0  0  0  0  0  0  0
    4.9246    1.7829   16.9957 H   0  0  0  0  0  0  0  0  0  0  0  0
    4.8012    1.3099   19.0999 C   0  0  0  0  0  0  0  0  0  0  0  0
    3.8722    1.8445   19.2534 H   0  0  0  0  0  0  0  0  0  0  0  0
    5.4263    0.6465   20.1494 C   0  0  0  0  0  0  0  0  0  0  0  0
    5.0047    0.6383   21.1587 H   0  0  0  0  0  0  0  0  0  0  0  0
    7.5103   -0.3363   22.2622 C   0  0  0  0  0  0  0  0  0  0  0  0
    7.2008    0.9009   22.9733 C   0  0  0  0  0  0  0  0  0  0  0  0
    6.7664    0.8975   24.3148 C   0  0  0  0  0  0  0  0  0  0  0  0
    6.6825   -0.0359   24.8566 H   0  0  0  0  0  0  0  0  0  0  0  0
    6.4209    2.0050   24.9801 N   0  0  0  0  0  0  0  0  0  0  0  0
    6.5083    3.1740   24.3327 C   0  0  0  0  0  0  0  0  0  0  0  0
    6.2411    4.0723   24.8802 H   0  0  0  0  0  0  0  0  0  0  0  0
    6.9310    3.2715   23.0032 C   0  0  0  0  0  0  0  0  0  0  0  0
    6.9941    4.4727   22.4142 F   0  0  0  0  0  0  0  0  0  0  0  0
    7.2856    2.1341   22.2963 C   0  0  0  0  0  0  0  0  0  0  0  0
    7.6033    2.2181   21.2571 H   0  0  0  0  0  0  0  0  0  0  0  0
    8.1220   -1.3772   22.8979 O   0  0  0  0  0  0  0  0  0  0  0  0
  1  2  1  0
  2  3  2  0
  3  4  1  0
  4  5  1  0
  5  6  2  0
  6  7  1  0
  6  8  1  0
  8  9  2  0
  9 10  1  0
  9 11  1  0
 11 12  1  0
 11 13  2  0
 13 14  1  0
  4 15  2  0
 15 16  1  0
 16 17  2  0
 17 18  1  0
 17 19  1  0
 19 20  2  0
 20 21  1  0
 20 22  1  0
 22 23  1  0
 22 24  2  0
 24 25  1  0
 15 26  1  0
 26  2  1  0
 13  5  1  0
 24 16  1  0
M  END
>  <cnnaffinity>  (1) 
-4.96729

>  <filename>  (1) 
Fc1cncc(-c2ocnc2-c2cccnc2)c1

$$$$
