
     RDKit          3D

 34 37  0  0  0  0  0  0  0  0999 V2000
    4.8954    1.9049   16.6005 H   0  0  0  0  0  0  0  0  0  0  0  0
    5.2490    1.4819   17.5363 C   0  0  0  0  0  0  0  0  0  0  0  0
    6.4115    0.8149   17.4630 N   0  0  0  0  0  0  0  0  0  0  0  0
    6.8938    0.3064   18.6022 C   0  0  0  0  0  0  0  0  0  0  0  0
    7.8442   -0.2252   18.5102 H   0  0  0  0  0  0  0  0  0  0  0  0
    6.2676    0.4323   19.8574 C   0  0  0  0  0  0  0  0  0  0  0  0
    6.9323   -0.1092   21.0961 C   0  0  1  0  0  0  0  0  0  0  0  0
    6.3173    0.1472   21.9666 H   0  0  0  0  0  0  0  0  0  0  0  0
    7.0697   -1.6618   21.0699 C   0  0  0  0  0  0  0  0  0  0  0  0
    6.3982   -2.1497   21.7775 H   0  0  0  0  0  0  0  0  0  0  0  0
    6.8529   -2.0902   20.0867 H   0  0  0  0  0  0  0  0  0  0  0  0
    8.4921   -1.8771   21.4301 C   0  0  0  0  0  0  0  0  0  0  0  0
    9.1927   -2.9671   21.6449 N   0  0  0  0  0  0  0  0  0  0  0  0
   10.4287   -2.4840   21.8990 N   0  0  0  0  0  0  0  0  0  0  0  0
   11.1500   -3.1609   22.1045 H   0  0  0  0  0  0  0  0  0  0  0  0
   10.5217   -1.1205   21.8396 C   0  0  0  0  0  0  0  0  0  0  0  0
   11.7609   -0.3555   22.0645 C   0  0  0  0  0  0  0  0  0  0  0  0
   13.0306   -0.9667   22.1731 C   0  0  0  0  0  0  0  0  0  0  0  0
   13.1472   -2.0416   22.0351 H   0  0  0  0  0  0  0  0  0  0  0  0
   14.1602   -0.2945   22.4269 N   0  0  0  0  0  0  0  0  0  0  0  0
   14.0857    1.0383   22.5786 C   0  0  0  0  0  0  0  0  0  0  0  0
   15.0055    1.5868   22.7800 H   0  0  0  0  0  0  0  0  0  0  0  0
   12.8772    1.7316   22.4322 C   0  0  0  0  0  0  0  0  0  0  0  0
   12.8520    3.0667   22.5520 F   0  0  0  0  0  0  0  0  0  0  0  0
   11.7005    1.0483   22.1633 C   0  0  0  0  0  0  0  0  0  0  0  0
   10.7693    1.5992   22.0418 H   0  0  0  0  0  0  0  0  0  0  0  0
    9.2341   -0.7062   21.5432 C   0  0  0  0  0  0  0  0  0  0  0  0
    8.3649    0.4978   21.3167 C   0  0  0  0  0  0  0  0  0  0  0  0
    8.6857    1.0696   20.4354 H   0  0  0  0  0  0  0  0  0  0  0  0
    8.3522    1.2130   22.1508 H   0  0  0  0  0  0  0  0  0  0  0  0
    5.0342    1.0929   19.8976 C   0  0  0  0  0  0  0  0  0  0  0  0
    4.5071    1.1869   20.8490 H   0  0  0  0  0  0  0  0  0  0  0  0
    4.5164    1.6308   18.7176 C   0  0  0  0  0  0  0  0  0  0  0  0
    3.5814    2.1804   18.7062 H   0  0  0  0  0  0  0  0  0  0  0  0
  1  2  1  0
  2  3  2  0
  3  4  1  0
  4  5  1  0
  4  6  2  0
  6  7  1  0
  7  8  1  1
  7  9  1  0
  9 10  1  0
  9 11  1  0
  9 12  1  0
 12 13  2  0
 13 14  1  0
 14 15  1  0
 14 16  1  0
 16 17  1  0
 17 18  2  0
 18 19  1  0
 18 20  1  0
 20 21  2  0
 21 22  1  0
 21 23  1  0
 23 24  1  0
 23 25  2  0
 25 26  1  0
 16 27  2  0
 27 28  1  0
 28 29  1  0
 28 30  1  0
  6 31  1  0
 31 32  1  0
 31 33  2  0
 33 34  1  0
 33  2  1  0
 28  7  1  0
 27 12  1  0
 25 17  1  0
M  END
>  <cnnaffinity>  (1) 
-5.82805

>  <filename>  (1) 
Fc1cncc(-c2[nH]nc3c2C[C@@H](c2cccnc2)C3)c1

$$$$
