
     RDKit          3D

 32 34  0  0  0  0  0  0  0  0999 V2000
    6.6849   -1.3613   21.6053 H   0  0  0  0  0  0  0  0  0  0  0  0
    7.3212   -0.7134   20.9947 C   0  0  0  0  0  0  0  0  0  0  0  0
    8.6027   -0.5204   21.3465 C   0  0  0  0  0  0  0  0  0  0  0  0
    9.3513   -1.1366   22.4495 C   0  0  0  0  0  0  0  0  0  0  0  0
    8.8133   -2.2787   23.2253 C   0  0  0  0  0  0  0  0  0  0  0  0
    8.8422   -2.2654   24.6233 C   0  0  0  0  0  0  0  0  0  0  0  0
    9.3182   -1.1870   25.2535 F   0  0  0  0  0  0  0  0  0  0  0  0
    8.3860   -3.3256   25.3982 C   0  0  0  0  0  0  0  0  0  0  0  0
    8.4449   -3.2455   26.4763 H   0  0  0  0  0  0  0  0  0  0  0  0
    7.8818   -4.4587   24.7601 C   0  0  0  0  0  0  0  0  0  0  0  0
    7.5259   -5.2934   25.3538 H   0  0  0  0  0  0  0  0  0  0  0  0
    7.8393   -4.5292   23.3676 C   0  0  0  0  0  0  0  0  0  0  0  0
    7.4551   -5.3960   22.8445 H   0  0  0  0  0  0  0  0  0  0  0  0
    8.3060   -3.4435   22.6352 C   0  0  0  0  0  0  0  0  0  0  0  0
    8.2783   -3.5375   21.2954 F   0  0  0  0  0  0  0  0  0  0  0  0
   10.4853   -0.5933   22.6948 N   0  0  0  0  0  0  0  0  0  0  0  0
   10.7115    0.4948   21.7425 C   0  0  0  0  0  0  0  0  0  0  0  0
   10.7853    1.4334   22.3011 H   0  0  0  0  0  0  0  0  0  0  0  0
   11.6731    0.3289   21.2523 H   0  0  0  0  0  0  0  0  0  0  0  0
    9.5152    0.5239   20.7534 C   0  0  0  0  0  0  0  0  0  0  0  0
    9.0368    1.5058   20.6791 H   0  0  0  0  0  0  0  0  0  0  0  0
    9.7458    0.2067   19.7371 H   0  0  0  0  0  0  0  0  0  0  0  0
    6.6433   -0.0112   19.8967 C   0  0  0  0  0  0  0  0  0  0  0  0
    7.1638    0.0664   18.5893 C   0  0  0  0  0  0  0  0  0  0  0  0
    8.1074   -0.4281   18.3710 H   0  0  0  0  0  0  0  0  0  0  0  0
    6.5617    0.6865   17.5682 N   0  0  0  0  0  0  0  0  0  0  0  0
    5.3980    1.3002   17.8330 C   0  0  0  0  0  0  0  0  0  0  0  0
    4.9152    1.7869   16.9905 H   0  0  0  0  0  0  0  0  0  0  0  0
    4.7983    1.3144   19.0992 C   0  0  0  0  0  0  0  0  0  0  0  0
    3.8692    1.8486   19.2536 H   0  0  0  0  0  0  0  0  0  0  0  0
    5.4195    0.6366   20.1453 C   0  0  0  0  0  0  0  0  0  0  0  0
    5.0059    0.6244   21.1583 H   0  0  0  0  0  0  0  0  0  0  0  0
  1  2  1  0
  2  3  2  3
  3  4  1  0
  4  5  1  0
  5  6  2  0
  6  7  1  0
  6  8  1  0
  8  9  1  0
  8 10  2  0
 10 11  1  0
 10 12  1  0
 12 13  1  0
 12 14  2  0
 14 15  1  0
  4 16  2  0
 16 17  1  0
 17 18  1  0
 17 19  1  0
 17 20  1  0
 20 21  1  0
 20 22  1  0
  2 23  1  0
 23 24  2  0
 24 25  1  0
 24 26  1  0
 26 27  2  0
 27 28  1  0
 27 29  1  0
 29 30  1  0
 29 31  2  0
 31 32  1  0
 20  3  1  0
 31 23  1  0
 14  5  1  0
M  END
>  <cnnaffinity>  (1) 
-5.43047

>  <filename>  (1) 
Fc1cccc(F)c1C1=NCCC1=Cc1cccnc1

$$$$
