
     RDKit          3D

 32 35  0  0  0  0  0  0  0  0999 V2000
    4.9789    1.8586   16.9009 H   0  0  0  0  0  0  0  0  0  0  0  0
    5.4149    1.3048   17.7304 C   0  0  0  0  0  0  0  0  0  0  0  0
    6.5608    0.6528   17.4777 N   0  0  0  0  0  0  0  0  0  0  0  0
    7.1373    0.0025   18.4939 C   0  0  0  0  0  0  0  0  0  0  0  0
    8.0726   -0.5083   18.2709 H   0  0  0  0  0  0  0  0  0  0  0  0
    6.6079   -0.0366   19.7985 C   0  0  0  0  0  0  0  0  0  0  0  0
    7.3619   -0.6559   20.9030 C   0  0  0  0  0  0  0  0  0  0  0  0
    8.4937   -1.3422   20.6780 N   0  0  0  0  0  0  0  0  0  0  0  0
    8.9316   -1.6176   21.9261 N   0  0  0  0  0  0  0  0  0  0  0  0
   10.0590   -2.2216   22.4707 C   0  0  0  0  0  0  0  0  0  0  0  0
   10.8052   -2.6729   21.8415 H   0  0  0  0  0  0  0  0  0  0  0  0
    9.9367   -2.0816   23.8178 C   0  0  0  0  0  0  0  0  0  0  0  0
   10.5753   -2.4309   24.6109 H   0  0  0  0  0  0  0  0  0  0  0  0
    8.7627   -1.3888   24.1132 N   0  0  0  0  0  0  0  0  0  0  0  0
    8.2689   -1.0051   25.3857 C   0  0  0  0  0  0  0  0  0  0  0  0
    9.1361   -0.6206   26.4195 C   0  0  0  0  0  0  0  0  0  0  0  0
   10.2147   -0.6100   26.2740 H   0  0  0  0  0  0  0  0  0  0  0  0
    8.6143   -0.1777   27.6410 C   0  0  0  0  0  0  0  0  0  0  0  0
    9.2644    0.0858   28.4707 H   0  0  0  0  0  0  0  0  0  0  0  0
    7.2364   -0.0523   27.8023 C   0  0  0  0  0  0  0  0  0  0  0  0
    6.7401    0.4832   28.9270 F   0  0  0  0  0  0  0  0  0  0  0  0
    6.3760   -0.4423   26.7714 C   0  0  0  0  0  0  0  0  0  0  0  0
    5.0557   -0.2602   26.9075 F   0  0  0  0  0  0  0  0  0  0  0  0
    6.8754   -0.9655   25.5888 C   0  0  0  0  0  0  0  0  0  0  0  0
    6.1962   -1.2765   24.8007 H   0  0  0  0  0  0  0  0  0  0  0  0
    8.1469   -1.1197   22.9005 C   0  0  0  0  0  0  0  0  0  0  0  0
    7.0748   -0.5065   22.2784 C   0  0  0  0  0  0  0  0  0  0  0  0
    6.2128   -0.0322   22.7075 H   0  0  0  0  0  0  0  0  0  0  0  0
    5.3889    0.6200   20.0340 C   0  0  0  0  0  0  0  0  0  0  0  0
    4.9276    0.6175   21.0251 H   0  0  0  0  0  0  0  0  0  0  0  0
    4.7889    1.3034   18.9823 C   0  0  0  0  0  0  0  0  0  0  0  0
    3.8729    1.8629   19.1319 H   0  0  0  0  0  0  0  0  0  0  0  0
  1  2  1  0
  2  3  2  0
  3  4  1  0
  4  5  1  0
  4  6  2  0
  6  7  1  0
  7  8  2  0
  8  9  1  0
  9 10  1  0
 10 11  1  0
 10 12  2  0
 12 13  1  0
 12 14  1  0
 14 15  1  0
 15 16  2  0
 16 17  1  0
 16 18  1  0
 18 19  1  0
 18 20  2  0
 20 21  1  0
 20 22  1  0
 22 23  1  0
 22 24  2  0
 24 25  1  0
 14 26  1  0
 26 27  2  0
 27 28  1  0
  6 29  1  0
 29 30  1  0
 29 31  2  0
 31 32  1  0
 31  2  1  0
 27  7  1  0
 26  9  1  0
 24 15  1  0
M  END
>  <cnnaffinity>  (1) 
-5.59514

>  <filename>  (1) 
Fc1ccc(-n2ccn3nc(-c4cccnc4)cc23)cc1F

$$$$
