
     RDKit          3D

 27 28  0  0  0  0  0  0  0  0999 V2000
    4.9734    1.7646   16.8954 H   0  0  0  0  0  0  0  0  0  0  0  0
    5.4201    1.3223   17.7801 C   0  0  0  0  0  0  0  0  0  0  0  0
    6.6010    0.6926   17.6556 N   0  0  0  0  0  0  0  0  0  0  0  0
    7.1450    0.1540   18.7609 C   0  0  0  0  0  0  0  0  0  0  0  0
    8.0862   -0.3795   18.6738 H   0  0  0  0  0  0  0  0  0  0  0  0
    6.5437    0.2234   20.0271 C   0  0  0  0  0  0  0  0  0  0  0  0
    7.2201   -0.3968   21.2201 C   0  0  2  0  0  0  0  0  0  0  0  0
    6.6623   -0.1830   22.1349 H   0  0  0  0  0  0  0  0  0  0  0  0
    9.0438    0.3725   21.3943 Br  0  0  0  0  0  0  0  0  0  0  0  0
    7.2794   -1.9056   21.0179 C   0  0  0  0  0  0  0  0  0  0  0  0
    7.9691   -2.1066   20.2046 H   0  0  0  0  0  0  0  0  0  0  0  0
    6.2965   -2.2905   20.7291 H   0  0  0  0  0  0  0  0  0  0  0  0
    7.7354   -2.6353   22.2410 C   0  0  0  0  0  0  0  0  0  0  0  0
    9.0997   -2.8426   22.4513 C   0  0  0  0  0  0  0  0  0  0  0  0
    9.8065   -2.3996   21.7575 H   0  0  0  0  0  0  0  0  0  0  0  0
    9.5317   -3.6034   23.5450 C   0  0  0  0  0  0  0  0  0  0  0  0
   10.5857   -3.7885   23.7190 H   0  0  0  0  0  0  0  0  0  0  0  0
    8.6068   -4.1313   24.4504 C   0  0  0  0  0  0  0  0  0  0  0  0
    9.0549   -4.8401   25.5159 F   0  0  0  0  0  0  0  0  0  0  0  0
    7.2324   -3.9182   24.2407 C   0  0  0  0  0  0  0  0  0  0  0  0
    6.3132   -4.4435   25.0855 F   0  0  0  0  0  0  0  0  0  0  0  0
    6.8025   -3.1629   23.1403 C   0  0  0  0  0  0  0  0  0  0  0  0
    5.7395   -3.0037   22.9714 H   0  0  0  0  0  0  0  0  0  0  0  0
    5.3070    0.8540   20.1488 C   0  0  0  0  0  0  0  0  0  0  0  0
    4.7957    0.9085   21.1086 H   0  0  0  0  0  0  0  0  0  0  0  0
    4.7449    1.4085   19.0020 C   0  0  0  0  0  0  0  0  0  0  0  0
    3.7898    1.9153   19.0436 H   0  0  0  0  0  0  0  0  0  0  0  0
  1  2  1  0
  2  3  2  0
  3  4  1  0
  4  5  1  0
  4  6  2  0
  6  7  1  0
  7  8  1  1
  7  9  1  0
  7 10  1  0
 10 11  1  0
 10 12  1  0
 10 13  1  0
 13 14  2  0
 14 15  1  0
 14 16  1  0
 16 17  1  0
 16 18  2  0
 18 19  1  0
 18 20  1  0
 20 21  1  0
 20 22  2  0
 22 23  1  0
  6 24  1  0
 24 25  1  0
 24 26  2  0
 26 27  1  0
 26  2  1  0
 22 13  1  0
M  END
>  <cnnaffinity>  (1) 
-5.23186

>  <filename>  (1) 
Fc1ccc(C[C@@H](Br)c2cccnc2)cc1F

$$$$
