
     RDKit          3D

 29 31  0  0  0  0  0  0  0  0999 V2000
    4.9250    1.7826   17.0008 H   0  0  0  0  0  0  0  0  0  0  0  0
    5.4055    1.2879   17.8422 C   0  0  0  0  0  0  0  0  0  0  0  0
    6.5654    0.6651   17.5848 N   0  0  0  0  0  0  0  0  0  0  0  0
    7.1923    0.0528   18.5992 C   0  0  0  0  0  0  0  0  0  0  0  0
    8.1291   -0.4378   18.3552 H   0  0  0  0  0  0  0  0  0  0  0  0
    6.6910    0.0204   19.9141 C   0  0  0  0  0  0  0  0  0  0  0  0
    7.2847   -0.6599   20.9501 O   0  0  0  0  0  0  0  0  0  0  0  0
    8.6446   -0.7522   21.0662 C   0  0  0  0  0  0  0  0  0  0  0  0
    9.6698    0.0950   20.6085 C   0  0  0  0  0  0  0  0  0  0  0  0
    9.5927    0.9646   19.9797 H   0  0  0  0  0  0  0  0  0  0  0  0
   10.8558   -0.2954   21.0624 N   0  0  0  0  0  0  0  0  0  0  0  0
   10.5950   -1.3713   21.8052 N   0  0  0  0  0  0  0  0  0  0  0  0
   11.3502   -1.8594   22.2649 H   0  0  0  0  0  0  0  0  0  0  0  0
    9.2756   -1.6991   21.8577 C   0  0  0  0  0  0  0  0  0  0  0  0
    8.7380   -2.8210   22.6317 C   0  0  0  0  0  0  0  0  0  0  0  0
    7.7275   -3.6444   22.1101 C   0  0  0  0  0  0  0  0  0  0  0  0
    7.2775   -3.4253   20.8674 F   0  0  0  0  0  0  0  0  0  0  0  0
    7.1581   -4.6959   22.8137 C   0  0  0  0  0  0  0  0  0  0  0  0
    6.3816   -5.2723   22.3226 H   0  0  0  0  0  0  0  0  0  0  0  0
    7.6002   -4.9486   24.1121 C   0  0  0  0  0  0  0  0  0  0  0  0
    7.1602   -5.7609   24.6770 H   0  0  0  0  0  0  0  0  0  0  0  0
    8.6017   -4.1612   24.6901 C   0  0  0  0  0  0  0  0  0  0  0  0
    8.9752   -4.3272   25.6956 H   0  0  0  0  0  0  0  0  0  0  0  0
    9.1452   -3.1260   23.9446 C   0  0  0  0  0  0  0  0  0  0  0  0
   10.1013   -2.3731   24.5206 F   0  0  0  0  0  0  0  0  0  0  0  0
    5.4640    0.6422   20.1753 C   0  0  0  0  0  0  0  0  0  0  0  0
    5.0439    0.6040   21.1799 H   0  0  0  0  0  0  0  0  0  0  0  0
    4.8265    1.2970   19.1167 C   0  0  0  0  0  0  0  0  0  0  0  0
    3.8935    1.8244   19.2664 H   0  0  0  0  0  0  0  0  0  0  0  0
  1  2  1  0
  2  3  2  0
  3  4  1  0
  4  5  1  0
  4  6  2  0
  6  7  1  0
  7  8  1  0
  8  9  1  0
  9 10  1  0
  9 11  2  0
 11 12  1  0
 12 13  1  0
 12 14  1  0
 14 15  1  0
 15 16  2  0
 16 17  1  0
 16 18  1  0
 18 19  1  0
 18 20  2  0
 20 21  1  0
 20 22  1  0
 22 23  1  0
 22 24  2  0
 24 25  1  0
  6 26  1  0
 26 27  1  0
 26 28  2  0
 28 29  1  0
 28  2  1  0
 14  8  2  0
 24 15  1  0
M  END
>  <cnnaffinity>  (1) 
-5.63822

>  <filename>  (1) 
Fc1cccc(F)c1-c1[nH]ncc1Oc1cccnc1

$$$$
