
     RDKit          3D

 27 29  0  0  0  0  0  0  0  0999 V2000
    4.9187    1.7801   16.9989 H   0  0  0  0  0  0  0  0  0  0  0  0
    5.4023    1.2941   17.8408 C   0  0  0  0  0  0  0  0  0  0  0  0
    6.5678    0.6816   17.5770 N   0  0  0  0  0  0  0  0  0  0  0  0
    7.1691    0.0549   18.5894 C   0  0  0  0  0  0  0  0  0  0  0  0
    8.1172   -0.4344   18.3720 H   0  0  0  0  0  0  0  0  0  0  0  0
    6.6475    0.0129   19.8894 C   0  0  0  0  0  0  0  0  0  0  0  0
    7.3814   -0.7252   20.9044 C   0  0  0  0  0  0  0  0  0  0  0  0
    7.9731   -1.8612   20.6852 N   0  0  0  0  0  0  0  0  0  0  0  0
    8.4715   -2.2056   21.9020 N   0  0  0  0  0  0  0  0  0  0  0  0
    9.0140   -3.0390   22.0513 H   0  0  0  0  0  0  0  0  0  0  0  0
    8.2629   -1.3020   22.8759 C   0  0  0  0  0  0  0  0  0  0  0  0
    8.8085   -1.3739   24.4396 S   0  0  0  0  0  0  0  0  0  0  0  0
    7.5117   -0.3251   22.2308 N   0  0  0  0  0  0  0  0  0  0  0  0
    7.1233    0.9366   22.8114 C   0  0  0  0  0  0  0  0  0  0  0  0
    6.3682    1.0072   24.0009 C   0  0  0  0  0  0  0  0  0  0  0  0
    6.0676    0.0927   24.5027 H   0  0  0  0  0  0  0  0  0  0  0  0
    5.9975    2.1616   24.5713 N   0  0  0  0  0  0  0  0  0  0  0  0
    6.3604    3.3124   23.9868 C   0  0  0  0  0  0  0  0  0  0  0  0
    6.0564    4.2484   24.4572 H   0  0  0  0  0  0  0  0  0  0  0  0
    7.1102    3.3269   22.8077 C   0  0  0  0  0  0  0  0  0  0  0  0
    7.4399    4.5014   22.2521 F   0  0  0  0  0  0  0  0  0  0  0  0
    7.5123    2.1374   22.2034 C   0  0  0  0  0  0  0  0  0  0  0  0
    8.0786    2.1605   21.2754 H   0  0  0  0  0  0  0  0  0  0  0  0
    5.4275    0.6531   20.1550 C   0  0  0  0  0  0  0  0  0  0  0  0
    5.0112    0.6352   21.1665 H   0  0  0  0  0  0  0  0  0  0  0  0
    4.8006    1.3111   19.1044 C   0  0  0  0  0  0  0  0  0  0  0  0
    3.8716    1.8449   19.2572 H   0  0  0  0  0  0  0  0  0  0  0  0
  1  2  1  0
  2  3  2  0
  3  4  1  0
  4  5  1  0
  4  6  2  0
  6  7  1  0
  7  8  2  0
  8  9  1  0
  9 10  1  0
  9 11  1  0
 11 12  2  0
 11 13  1  0
 13 14  1  0
 14 15  2  0
 15 16  1  0
 15 17  1  0
 17 18  2  0
 18 19  1  0
 18 20  1  0
 20 21  1  0
 20 22  2  0
 22 23  1  0
  6 24  1  0
 24 25  1  0
 24 26  2  0
 26 27  1  0
 26  2  1  0
 13  7  1  0
 22 14  1  0
M  END
>  <cnnaffinity>  (1) 
-5.27087

>  <filename>  (1) 
Fc1cncc(-n2c(-c3cccnc3)n[nH]c2=S)c1

$$$$
