
     RDKit          3D

 30 32  0  0  0  0  0  0  0  0999 V2000
    4.9695    1.8060   17.0661 H   0  0  0  0  0  0  0  0  0  0  0  0
    5.4224    1.2488   17.8821 C   0  0  0  0  0  0  0  0  0  0  0  0
    6.5708    0.6107   17.5991 N   0  0  0  0  0  0  0  0  0  0  0  0
    7.1631   -0.0584   18.5951 C   0  0  0  0  0  0  0  0  0  0  0  0
    8.1190   -0.5233   18.3571 H   0  0  0  0  0  0  0  0  0  0  0  0
    6.6323   -0.1580   19.9071 C   0  0  0  0  0  0  0  0  0  0  0  0
    7.3719   -0.8145   20.9743 N   0  0  0  0  0  0  0  0  0  0  0  0
    7.0160   -1.8202   21.8803 C   0  0  0  0  0  0  0  0  0  0  0  0
    5.8313   -2.4795   21.8319 N   0  0  0  0  0  0  0  0  0  0  0  0
    5.1997   -2.1081   21.1402 H   0  0  0  0  0  0  0  0  0  0  0  0
    5.2422   -3.2046   22.9111 C   0  0  0  0  0  0  0  0  0  0  0  0
    5.4445   -2.9054   24.2722 C   0  0  0  0  0  0  0  0  0  0  0  0
    6.2043   -2.1813   24.5516 H   0  0  0  0  0  0  0  0  0  0  0  0
    4.6662   -3.5343   25.2551 C   0  0  0  0  0  0  0  0  0  0  0  0
    4.7858   -3.3064   26.3136 H   0  0  0  0  0  0  0  0  0  0  0  0
    3.7137   -4.4755   24.8719 C   0  0  0  0  0  0  0  0  0  0  0  0
    2.9748   -5.0885   25.8113 F   0  0  0  0  0  0  0  0  0  0  0  0
    3.5375   -4.8393   23.5391 C   0  0  0  0  0  0  0  0  0  0  0  0
    2.8063   -5.5993   23.2763 H   0  0  0  0  0  0  0  0  0  0  0  0
    4.3346   -4.2189   22.5744 C   0  0  0  0  0  0  0  0  0  0  0  0
    4.3004   -4.5559   21.5512 H   0  0  0  0  0  0  0  0  0  0  0  0
    7.9778   -2.1181   22.7071 N   0  0  0  0  0  0  0  0  0  0  0  0
    8.9606   -1.2263   22.3629 N   0  0  0  0  0  0  0  0  0  0  0  0
    9.8480   -1.1778   22.8358 H   0  0  0  0  0  0  0  0  0  0  0  0
    8.6477   -0.4052   21.3559 C   0  0  0  0  0  0  0  0  0  0  0  0
    9.5977    0.8243   20.7674 S   0  0  0  0  0  0  0  0  0  0  0  0
    5.4401    0.5156   20.1831 C   0  0  0  0  0  0  0  0  0  0  0  0
    5.0283    0.5104   21.1946 H   0  0  0  0  0  0  0  0  0  0  0  0
    4.8268    1.2347   19.1451 C   0  0  0  0  0  0  0  0  0  0  0  0
    3.9165    1.8002   19.3172 H   0  0  0  0  0  0  0  0  0  0  0  0
  1  2  1  0
  2  3  2  0
  3  4  1  0
  4  5  1  0
  4  6  2  0
  6  7  1  0
  7  8  1  0
  8  9  1  0
  9 10  1  0
  9 11  1  0
 11 12  2  0
 12 13  1  0
 12 14  1  0
 14 15  1  0
 14 16  2  0
 16 17  1  0
 16 18  1  0
 18 19  1  0
 18 20  2  0
 20 21  1  0
  8 22  2  0
 22 23  1  0
 23 24  1  0
 23 25  1  0
 25 26  2  0
  6 27  1  0
 27 28  1  0
 27 29  2  0
 29 30  1  0
 29  2  1  0
 25  7  1  0
 20 11  1  0
M  END
>  <cnnaffinity>  (1) 
-4.79067

>  <filename>  (1) 
Fc1ccc(Nc2n[nH]c(=S)n2-c2cccnc2)cc1

$$$$
