
     RDKit          3D

 35 38  0  0  0  0  0  0  0  0999 V2000
    5.0005    1.8471   16.8933 H   0  0  0  0  0  0  0  0  0  0  0  0
    5.4309    1.2936   17.7274 C   0  0  0  0  0  0  0  0  0  0  0  0
    6.5739    0.6342   17.4856 N   0  0  0  0  0  0  0  0  0  0  0  0
    7.1491   -0.0059   18.5095 C   0  0  0  0  0  0  0  0  0  0  0  0
    8.0736   -0.5329   18.2857 H   0  0  0  0  0  0  0  0  0  0  0  0
    6.6237   -0.0243   19.8152 C   0  0  0  0  0  0  0  0  0  0  0  0
    7.3748   -0.6496   20.9169 C   0  0  0  0  0  0  0  0  0  0  0  0
    8.5481   -1.2617   20.6888 N   0  0  0  0  0  0  0  0  0  0  0  0
    8.9366   -1.6309   21.9279 N   0  0  0  0  0  0  0  0  0  0  0  0
   10.0562   -2.2398   22.4795 C   0  0  0  0  0  0  0  0  0  0  0  0
   10.8573   -2.5996   21.8565 H   0  0  0  0  0  0  0  0  0  0  0  0
    9.8574   -2.2245   23.8223 C   0  0  0  0  0  0  0  0  0  0  0  0
   10.5001   -2.5716   24.6205 H   0  0  0  0  0  0  0  0  0  0  0  0
    8.6230   -1.6345   24.1116 N   0  0  0  0  0  0  0  0  0  0  0  0
    8.2407   -0.9654   25.3622 C   0  0  0  0  0  0  0  0  0  0  0  0
    8.7211   -1.4984   26.1912 H   0  0  0  0  0  0  0  0  0  0  0  0
    7.1570   -1.0692   25.4822 H   0  0  0  0  0  0  0  0  0  0  0  0
    8.6592    0.5014   25.3489 C   0  0  0  0  0  0  0  0  0  0  0  0
    7.7506    1.5503   25.1308 C   0  0  0  0  0  0  0  0  0  0  0  0
    6.6831    1.3334   25.0548 H   0  0  0  0  0  0  0  0  0  0  0  0
    8.1968    2.8662   24.9218 C   0  0  0  0  0  0  0  0  0  0  0  0
    7.5035    3.6881   24.7656 H   0  0  0  0  0  0  0  0  0  0  0  0
    9.5692    3.1006   24.8967 C   0  0  0  0  0  0  0  0  0  0  0  0
   10.0332    4.3377   24.6340 F   0  0  0  0  0  0  0  0  0  0  0  0
   10.4944    2.0870   25.1326 C   0  0  0  0  0  0  0  0  0  0  0  0
   11.5532    2.3203   25.1071 H   0  0  0  0  0  0  0  0  0  0  0  0
   10.0315    0.7953   25.3723 C   0  0  0  0  0  0  0  0  0  0  0  0
   10.7485   -0.0115   25.5340 H   0  0  0  0  0  0  0  0  0  0  0  0
    8.0756   -1.2688   22.9001 C   0  0  0  0  0  0  0  0  0  0  0  0
    7.0115   -0.6328   22.2846 C   0  0  0  0  0  0  0  0  0  0  0  0
    6.1191   -0.2201   22.7202 H   0  0  0  0  0  0  0  0  0  0  0  0
    5.4005    0.6287   20.0364 C   0  0  0  0  0  0  0  0  0  0  0  0
    4.9313    0.6181   21.0222 H   0  0  0  0  0  0  0  0  0  0  0  0
    4.8009    1.3023   18.9763 C   0  0  0  0  0  0  0  0  0  0  0  0
    3.8807    1.8568   19.1159 H   0  0  0  0  0  0  0  0  0  0  0  0
  1  2  1  0
  2  3  2  0
  3  4  1  0
  4  5  1  0
  4  6  2  0
  6  7  1  0
  7  8  2  0
  8  9  1  0
  9 10  1  0
 10 11  1  0
 10 12  2  0
 12 13  1  0
 12 14  1  0
 14 15  1  0
 15 16  1  0
 15 17  1  0
 15 18  1  0
 18 19  2  0
 19 20  1  0
 19 21  1  0
 21 22  1  0
 21 23  2  0
 23 24  1  0
 23 25  1  0
 25 26  1  0
 25 27  2  0
 27 28  1  0
 14 29  1  0
 29 30  2  0
 30 31  1  0
  6 32  1  0
 32 33  1  0
 32 34  2  0
 34 35  1  0
 34  2  1  0
 30  7  1  0
 29  9  1  0
 27 18  1  0
M  END
>  <cnnaffinity>  (1) 
-5.72764

>  <filename>  (1) 
Fc1ccc(Cn2ccn3nc(-c4cccnc4)cc23)cc1

$$$$
