
     RDKit          3D

 23 24  0  0  0  0  0  0  0  0999 V2000
    4.9255    1.7769   17.0061 H   0  0  0  0  0  0  0  0  0  0  0  0
    5.4111    1.2836   17.8512 C   0  0  0  0  0  0  0  0  0  0  0  0
    6.5758    0.6672   17.5994 N   0  0  0  0  0  0  0  0  0  0  0  0
    7.1913    0.0467   18.6196 C   0  0  0  0  0  0  0  0  0  0  0  0
    8.1314   -0.4363   18.3678 H   0  0  0  0  0  0  0  0  0  0  0  0
    6.6950   -0.0291   19.9569 C   0  0  0  0  0  0  0  0  0  0  0  0
    7.3523   -0.6991   20.9751 N   0  0  0  0  0  0  0  0  0  0  0  0
    6.9434   -1.0509   22.3363 C   0  0  0  0  0  0  0  0  0  0  0  0
    6.0586   -1.7013   22.3880 H   0  0  0  0  0  0  0  0  0  0  0  0
    6.8205   -0.1860   23.0073 H   0  0  0  0  0  0  0  0  0  0  0  0
    8.2890   -1.7919   22.4976 C   0  0  0  0  0  0  0  0  0  0  0  0
    8.9517   -1.3957   23.2649 H   0  0  0  0  0  0  0  0  0  0  0  0
    8.2278   -2.8653   22.6504 H   0  0  0  0  0  0  0  0  0  0  0  0
    8.6572   -1.3624   21.0654 C   0  0  2  0  0  0  0  0  0  0  0  0
    8.8023   -2.1964   20.3667 H   0  0  0  0  0  0  0  0  0  0  0  0
    9.8337   -0.4073   20.9776 C   0  0  0  0  0  0  0  0  0  0  0  0
    9.6826    0.4337   21.6623 H   0  0  0  0  0  0  0  0  0  0  0  0
    9.9012   -0.0215   19.9581 H   0  0  0  0  0  0  0  0  0  0  0  0
   11.0017   -1.0674   21.3343 F   0  0  0  0  0  0  0  0  0  0  0  0
    5.4614    0.6252   20.1846 C   0  0  0  0  0  0  0  0  0  0  0  0
    5.0158    0.6169   21.1796 H   0  0  0  0  0  0  0  0  0  0  0  0
    4.8308    1.2890   19.1241 C   0  0  0  0  0  0  0  0  0  0  0  0
    3.9002    1.8224   19.2709 H   0  0  0  0  0  0  0  0  0  0  0  0
  1  2  1  0
  2  3  2  0
  3  4  1  0
  4  5  1  0
  4  6  2  0
  6  7  1  0
  7  8  1  0
  8  9  1  0
  8 10  1  0
  8 11  1  0
 11 12  1  0
 11 13  1  0
 11 14  1  0
 14 15  1  6
 14 16  1  0
 16 17  1  0
 16 18  1  0
 16 19  1  0
  6 20  1  0
 20 21  1  0
 20 22  2  0
 22 23  1  0
 22  2  1  0
 14  7  1  0
M  END
>  <cnnaffinity>  (1) 
-3.73976

>  <filename>  (1) 
FC[C@H]1CCN1c1cccnc1

$$$$
