
     RDKit          3D

 22 23  0  0  0  0  0  0  0  0999 V2000
    4.9304    1.7841   16.9963 H   0  0  0  0  0  0  0  0  0  0  0  0
    5.4050    1.2903   17.8414 C   0  0  0  0  0  0  0  0  0  0  0  0
    6.5676    0.6726   17.5804 N   0  0  0  0  0  0  0  0  0  0  0  0
    7.1866    0.0664   18.5968 C   0  0  0  0  0  0  0  0  0  0  0  0
    8.1259   -0.4372   18.3614 H   0  0  0  0  0  0  0  0  0  0  0  0
    6.6705    0.0216   19.9049 C   0  0  0  0  0  0  0  0  0  0  0  0
    7.3723   -0.6807   20.9291 N   0  0  0  0  0  0  0  0  0  0  0  0
    8.7254   -0.5012   21.2167 C   0  0  0  0  0  0  0  0  0  0  0  0
    9.3320    0.1841   20.6434 H   0  0  0  0  0  0  0  0  0  0  0  0
    9.0430   -1.2937   22.2643 C   0  0  0  0  0  0  0  0  0  0  0  0
   10.3494   -1.4627   22.9723 C   0  0  0  0  0  0  0  0  0  0  0  0
   11.1744   -1.2832   22.2761 H   0  0  0  0  0  0  0  0  0  0  0  0
   10.4682   -2.4674   23.3947 H   0  0  0  0  0  0  0  0  0  0  0  0
   10.4772   -0.5515   24.0136 F   0  0  0  0  0  0  0  0  0  0  0  0
    7.8642   -1.9594   22.5949 N   0  0  0  0  0  0  0  0  0  0  0  0
    7.6802   -2.6328   23.3175 H   0  0  0  0  0  0  0  0  0  0  0  0
    6.8618   -1.6895   21.7189 C   0  0  0  0  0  0  0  0  0  0  0  0
    5.4676   -2.5909   21.6095 S   0  0  0  0  0  0  0  0  0  0  0  0
    5.4479    0.6466   20.1693 C   0  0  0  0  0  0  0  0  0  0  0  0
    5.0212    0.6095   21.1730 H   0  0  0  0  0  0  0  0  0  0  0  0
    4.8164    1.3068   19.1102 C   0  0  0  0  0  0  0  0  0  0  0  0
    3.8834    1.8345   19.2550 H   0  0  0  0  0  0  0  0  0  0  0  0
  1  2  1  0
  2  3  2  0
  3  4  1  0
  4  5  1  0
  4  6  2  0
  6  7  1  0
  7  8  1  0
  8  9  1  0
  8 10  2  0
 10 11  1  0
 11 12  1  0
 11 13  1  0
 11 14  1  0
 10 15  1  0
 15 16  1  0
 15 17  1  0
 17 18  2  0
  6 19  1  0
 19 20  1  0
 19 21  2  0
 21 22  1  0
 21  2  1  0
 17  7  1  0
M  END
>  <cnnaffinity>  (1) 
-4.70969

>  <filename>  (1) 
FCc1cn(-c2cccnc2)c(=S)[nH]1

$$$$
