
     RDKit          3D

 19 20  0  0  0  0  0  0  0  0999 V2000
    4.8892    1.7918   17.0128 H   0  0  0  0  0  0  0  0  0  0  0  0
    5.4042    1.2942   17.8293 C   0  0  0  0  0  0  0  0  0  0  0  0
    6.5785    0.6783   17.5847 N   0  0  0  0  0  0  0  0  0  0  0  0
    7.2049    0.0630   18.6127 C   0  0  0  0  0  0  0  0  0  0  0  0
    8.1389   -0.4459   18.3976 H   0  0  0  0  0  0  0  0  0  0  0  0
    6.6846    0.0107   19.9243 C   0  0  0  0  0  0  0  0  0  0  0  0
    7.2602   -0.6944   20.9650 O   0  0  0  0  0  0  0  0  0  0  0  0
    8.6383   -0.7623   21.1021 C   0  0  0  0  0  0  0  0  0  0  0  0
    9.6993    0.0957   20.5977 C   0  0  0  0  0  0  0  0  0  0  0  0
    9.5209    0.9478   19.9528 H   0  0  0  0  0  0  0  0  0  0  0  0
   10.8906   -0.2685   21.0379 N   0  0  0  0  0  0  0  0  0  0  0  0
   10.6402   -1.3635   21.8107 N   0  0  0  0  0  0  0  0  0  0  0  0
   11.3575   -1.8912   22.3079 H   0  0  0  0  0  0  0  0  0  0  0  0
    9.2929   -1.6737   21.8781 C   0  0  0  0  0  0  0  0  0  0  0  0
    8.3941   -3.3406   23.0751 I   0  0  0  0  0  0  0  0  0  0  0  0
    5.4607    0.6474   20.1608 C   0  0  0  0  0  0  0  0  0  0  0  0
    5.0179    0.6223   21.1571 H   0  0  0  0  0  0  0  0  0  0  0  0
    4.8241    1.3066   19.1039 C   0  0  0  0  0  0  0  0  0  0  0  0
    3.8863    1.8289   19.2611 H   0  0  0  0  0  0  0  0  0  0  0  0
  1  2  1  0
  2  3  2  0
  3  4  1  0
  4  5  1  0
  4  6  2  0
  6  7  1  0
  7  8  1  0
  8  9  1  0
  9 10  1  0
  9 11  2  0
 11 12  1  0
 12 13  1  0
 12 14  1  0
 14 15  1  0
  6 16  1  0
 16 17  1  0
 16 18  2  0
 18 19  1  0
 18  2  1  0
 14  8  2  0
M  END
>  <cnnaffinity>  (1) 
-4.5093

>  <filename>  (1) 
Ic1[nH]ncc1Oc1cccnc1

$$$$
