
     RDKit          3D

 31 33  0  0  0  0  0  0  0  0999 V2000
    8.3459   -5.1910   23.6497 I   0  0  0  0  0  0  0  0  0  0  0  0
    6.7201   -3.9515   24.6045 C   0  0  0  0  0  0  0  0  0  0  0  0
    5.5461   -4.6022   25.0099 C   0  0  0  0  0  0  0  0  0  0  0  0
    4.4949   -3.8897   25.5934 C   0  0  0  0  0  0  0  0  0  0  0  0
    4.6169   -2.5098   25.7719 C   0  0  0  0  0  0  0  0  0  0  0  0
    5.7829   -1.8458   25.3733 C   0  0  0  0  0  0  0  0  0  0  0  0
    6.8457   -2.5571   24.7894 C   0  0  0  0  0  0  0  0  0  0  0  0
    8.0790   -1.8034   24.3434 C   0  0  0  0  0  0  0  0  0  0  0  0
    8.0006   -1.5073   22.9043 N   0  0  0  0  0  0  0  0  0  0  0  0
    8.8716   -1.9256   21.9055 C   0  0  0  0  0  0  0  0  0  0  0  0
    8.5208   -1.4492   20.7304 N   0  0  0  0  0  0  0  0  0  0  0  0
    7.3789   -0.6941   20.9629 C   0  0  0  0  0  0  0  0  0  0  0  0
    6.6562    0.0097   19.9137 C   0  0  0  0  0  0  0  0  0  0  0  0
    5.4411    0.6527   20.1674 C   0  0  0  0  0  0  0  0  0  0  0  0
    4.8191    1.3063   19.1061 C   0  0  0  0  0  0  0  0  0  0  0  0
    5.4073    1.2901   17.8346 C   0  0  0  0  0  0  0  0  0  0  0  0
    6.5755    0.6658   17.5916 N   0  0  0  0  0  0  0  0  0  0  0  0
    7.1868    0.0451   18.6160 C   0  0  0  0  0  0  0  0  0  0  0  0
    8.1335   -0.4447   18.4060 H   0  0  0  0  0  0  0  0  0  0  0  0
    4.8940    1.7894   17.0167 H   0  0  0  0  0  0  0  0  0  0  0  0
    3.8828    1.8322   19.2606 H   0  0  0  0  0  0  0  0  0  0  0  0
    4.9967    0.6415   21.1638 H   0  0  0  0  0  0  0  0  0  0  0  0
    7.0536   -0.7142   22.2919 C   0  0  0  0  0  0  0  0  0  0  0  0
    6.2146   -0.2131   22.7701 H   0  0  0  0  0  0  0  0  0  0  0  0
    9.7374   -2.5574   22.0912 H   0  0  0  0  0  0  0  0  0  0  0  0
    8.1715   -0.8637   24.9018 H   0  0  0  0  0  0  0  0  0  0  0  0
    8.9752   -2.3941   24.5589 H   0  0  0  0  0  0  0  0  0  0  0  0
    5.8602   -0.7694   25.5066 H   0  0  0  0  0  0  0  0  0  0  0  0
    3.8024   -1.9508   26.2185 H   0  0  0  0  0  0  0  0  0  0  0  0
    3.5923   -4.4115   25.9025 H   0  0  0  0  0  0  0  0  0  0  0  0
    5.4601   -5.6737   24.8623 H   0  0  0  0  0  0  0  0  0  0  0  0
  1  2  1  0
  2  3  2  0
  3  4  1  0
  4  5  2  0
  5  6  1  0
  6  7  2  0
  7  8  1  0
  8  9  1  0
  9 10  1  0
 10 11  2  0
 11 12  1  0
 12 13  1  0
 13 14  2  0
 14 15  1  0
 15 16  2  0
 16 17  1  0
 17 18  2  0
 18 19  1  0
 16 20  1  0
 15 21  1  0
 14 22  1  0
 12 23  2  0
 23 24  1  0
 10 25  1  0
  8 26  1  0
  8 27  1  0
  6 28  1  0
  5 29  1  0
  4 30  1  0
  3 31  1  0
  7  2  1  0
 23  9  1  0
 18 13  1  0
M  END
>  <cnnaffinity>  (1) 
-5.44938

>  <filename>  (1) 
Ic1ccccc1Cn1cnc(-c2cccnc2)c1

$$$$
