
     RDKit          3D

 23 24  0  0  0  0  0  0  0  0999 V2000
    7.5229   -3.0113   26.8390 I   0  0  0  0  0  0  0  0  0  0  0  0
    8.2057   -3.1789   24.7099 C   0  0  0  0  0  0  0  0  0  0  0  0
    9.4859   -3.6471   24.3963 C   0  0  0  0  0  0  0  0  0  0  0  0
    9.8918   -3.7209   23.1172 N   0  0  0  0  0  0  0  0  0  0  0  0
    9.0693   -3.3808   22.1105 N   0  0  0  0  0  0  0  0  0  0  0  0
    7.8224   -2.9448   22.3508 C   0  0  0  0  0  0  0  0  0  0  0  0
    6.7917   -2.4696   21.0063 S   0  0  0  0  0  0  0  0  0  0  0  0
    7.3729   -0.7289   20.9801 C   0  0  0  0  0  0  0  0  0  0  0  0
    6.6528    0.0081   19.8902 C   0  0  0  0  0  0  0  0  0  0  0  0
    5.4436    0.6498   20.1601 C   0  0  0  0  0  0  0  0  0  0  0  0
    4.8189    1.3085   19.1022 C   0  0  0  0  0  0  0  0  0  0  0  0
    5.4023    1.2963   17.8273 C   0  0  0  0  0  0  0  0  0  0  0  0
    6.5685    0.6784   17.5680 N   0  0  0  0  0  0  0  0  0  0  0  0
    7.1794    0.0526   18.5888 C   0  0  0  0  0  0  0  0  0  0  0  0
    8.1267   -0.4419   18.3982 H   0  0  0  0  0  0  0  0  0  0  0  0
    4.8876    1.7964   17.0127 H   0  0  0  0  0  0  0  0  0  0  0  0
    3.8825    1.8327   19.2598 H   0  0  0  0  0  0  0  0  0  0  0  0
    5.0073    0.6337   21.1605 H   0  0  0  0  0  0  0  0  0  0  0  0
    8.4552   -0.6977   20.8065 H   0  0  0  0  0  0  0  0  0  0  0  0
    7.1703   -0.2535   21.9475 H   0  0  0  0  0  0  0  0  0  0  0  0
    7.3609   -2.8149   23.6609 C   0  0  0  0  0  0  0  0  0  0  0  0
    6.3646   -2.4332   23.8507 H   0  0  0  0  0  0  0  0  0  0  0  0
   10.1577   -3.9449   25.1953 H   0  0  0  0  0  0  0  0  0  0  0  0
  1  2  1  0
  2  3  2  0
  3  4  1  0
  4  5  2  0
  5  6  1  0
  6  7  1  0
  7  8  1  0
  8  9  1  0
  9 10  2  0
 10 11  1  0
 11 12  2  0
 12 13  1  0
 13 14  2  0
 14 15  1  0
 12 16  1  0
 11 17  1  0
 10 18  1  0
  8 19  1  0
  8 20  1  0
  6 21  2  0
 21 22  1  0
  3 23  1  0
 21  2  1  0
 14  9  1  0
M  END
>  <cnnaffinity>  (1) 
-4.8885

>  <filename>  (1) 
Ic1cnnc(SCc2cccnc2)c1

$$$$
