
     RDKit          3D

 34 36  0  0  0  0  0  0  0  0999 V2000
   10.3926   -4.9661   26.0186 I   0  0  0  0  0  0  0  0  0  0  0  0
   10.1090   -3.7827   24.1395 C   0  0  0  0  0  0  0  0  0  0  0  0
   11.2135   -3.3248   23.3896 C   0  0  0  0  0  0  0  0  0  0  0  0
   11.0830   -2.5514   22.2942 N   0  0  0  0  0  0  0  0  0  0  0  0
    9.8065   -2.2656   21.9517 C   0  0  0  0  0  0  0  0  0  0  0  0
    8.6858   -2.7145   22.7089 C   0  0  0  0  0  0  0  0  0  0  0  0
    7.3618   -2.4192   22.3798 N   0  0  0  0  0  0  0  0  0  0  0  0
    6.2871   -3.2282   22.9779 C   0  0  0  0  0  0  0  0  0  0  0  0
    5.3306   -3.4539   21.8230 C   0  0  0  0  0  0  0  0  0  0  0  0
    5.5762   -2.2635   20.9082 C   0  0  0  0  0  0  0  0  0  0  0  0
    7.0154   -1.8582   21.0699 C   0  0  0  0  0  0  0  0  0  0  0  0
    7.1555   -0.3308   20.9693 C   0  0  0  0  0  0  0  0  0  0  0  0
    6.4668    0.2741   19.7447 C   0  0  0  0  0  0  0  0  0  0  0  0
    5.2263    0.9084   19.8839 C   0  0  0  0  0  0  0  0  0  0  0  0
    4.6763    1.5398   18.7672 C   0  0  0  0  0  0  0  0  0  0  0  0
    5.3535    1.5088   17.5447 C   0  0  0  0  0  0  0  0  0  0  0  0
    6.5167    0.8513   17.3836 N   0  0  0  0  0  0  0  0  0  0  0  0
    7.0557    0.2526   18.4635 C   0  0  0  0  0  0  0  0  0  0  0  0
    8.0038   -0.2596   18.3367 H   0  0  0  0  0  0  0  0  0  0  0  0
    4.9312    2.0434   16.6994 H   0  0  0  0  0  0  0  0  0  0  0  0
    3.7386    2.0809   18.8366 H   0  0  0  0  0  0  0  0  0  0  0  0
    4.7114    0.9340   20.8431 H   0  0  0  0  0  0  0  0  0  0  0  0
    6.7165    0.1090   21.8695 H   0  0  0  0  0  0  0  0  0  0  0  0
    8.2178   -0.0725   20.9687 H   0  0  0  0  0  0  0  0  0  0  0  0
    7.6260   -2.3343   20.3092 H   0  0  0  0  0  0  0  0  0  0  0  0
    5.3513   -2.4888   19.8635 H   0  0  0  0  0  0  0  0  0  0  0  0
    4.9661   -1.4193   21.2303 H   0  0  0  0  0  0  0  0  0  0  0  0
    5.5795   -4.3827   21.3019 H   0  0  0  0  0  0  0  0  0  0  0  0
    4.2932   -3.5042   22.1663 H   0  0  0  0  0  0  0  0  0  0  0  0
    5.8054   -2.6870   23.7960 H   0  0  0  0  0  0  0  0  0  0  0  0
    6.6616   -4.1781   23.3756 H   0  0  0  0  0  0  0  0  0  0  0  0
    8.8519   -3.4757   23.7979 N   0  0  0  0  0  0  0  0  0  0  0  0
    9.6303   -1.7091   21.0385 H   0  0  0  0  0  0  0  0  0  0  0  0
   12.2061   -3.6336   23.6812 H   0  0  0  0  0  0  0  0  0  0  0  0
  1  2  1  0
  2  3  2  0
  3  4  1  0
  4  5  2  0
  5  6  1  0
  6  7  1  0
  7  8  1  0
  8  9  1  0
  9 10  1  0
 10 11  1  0
 11 12  1  0
 12 13  1  0
 13 14  2  0
 14 15  1  0
 15 16  2  0
 16 17  1  0
 17 18  2  0
 18 19  1  0
 16 20  1  0
 15 21  1  0
 14 22  1  0
 12 23  1  0
 12 24  1  0
 11 25  1  0
 10 26  1  0
 10 27  1  0
  9 28  1  0
  9 29  1  0
  8 30  1  0
  8 31  1  0
  6 32  2  0
  5 33  1  0
  3 34  1  0
 32  2  1  0
 11  7  1  0
 18 13  1  0
M  END
>  <cnnaffinity>  (1) 
-5.42832

>  <filename>  (1) 
Ic1cncc(N2CCCC2Cc2cccnc2)n1

$$$$
