
     RDKit          3D

 32 34  0  0  0  0  0  0  0  0999 V2000
    5.8860   -5.1307   19.8013 I   0  0  0  0  0  0  0  0  0  0  0  0
    6.2190   -5.2229   22.0140 C   0  0  0  0  0  0  0  0  0  0  0  0
    5.3738   -6.0238   22.7938 C   0  0  0  0  0  0  0  0  0  0  0  0
    5.5525   -6.0945   24.1789 C   0  0  0  0  0  0  0  0  0  0  0  0
    6.6210   -5.4146   24.7798 C   0  0  0  0  0  0  0  0  0  0  0  0
    7.4940   -4.6493   23.9894 C   0  0  0  0  0  0  0  0  0  0  0  0
    7.2790   -4.5140   22.6078 C   0  0  0  0  0  0  0  0  0  0  0  0
    8.2077   -3.6771   21.7592 C   0  0  0  0  0  0  0  0  0  0  0  0
    7.5566   -2.4478   21.2604 N   0  0  0  0  0  0  0  0  0  0  0  0
    7.6691   -1.2372   21.9207 C   0  0  0  0  0  0  0  0  0  0  0  0
    8.2160   -1.0676   23.0939 N   0  0  0  0  0  0  0  0  0  0  0  0
    8.0499    0.2463   23.4544 N   0  0  0  0  0  0  0  0  0  0  0  0
    7.4279    0.8453   22.4656 C   0  0  0  0  0  0  0  0  0  0  0  0
    7.1843   -0.0405   21.4363 N   0  0  0  0  0  0  0  0  0  0  0  0
    6.5833    0.2656   20.2005 C   0  0  0  0  0  0  0  0  0  0  0  0
    5.4240    1.0348   20.2090 C   0  0  0  0  0  0  0  0  0  0  0  0
    4.8655    1.4013   18.9871 C   0  0  0  0  0  0  0  0  0  0  0  0
    5.4760    1.0010   17.7939 C   0  0  0  0  0  0  0  0  0  0  0  0
    6.5812    0.2360   17.7653 N   0  0  0  0  0  0  0  0  0  0  0  0
    7.1175   -0.1320   18.9491 C   0  0  0  0  0  0  0  0  0  0  0  0
    8.0162   -0.7424   18.9510 H   0  0  0  0  0  0  0  0  0  0  0  0
    5.0347    1.3098   16.8526 H   0  0  0  0  0  0  0  0  0  0  0  0
    3.9706    2.0081   18.9526 H   0  0  0  0  0  0  0  0  0  0  0  0
    4.9821    1.3350   21.1583 H   0  0  0  0  0  0  0  0  0  0  0  0
    7.1551    1.8957   22.4545 H   0  0  0  0  0  0  0  0  0  0  0  0
    7.2518   -2.3974   20.2930 H   0  0  0  0  0  0  0  0  0  0  0  0
    8.4993   -4.2851   20.9004 H   0  0  0  0  0  0  0  0  0  0  0  0
    9.1242   -3.4532   22.3221 H   0  0  0  0  0  0  0  0  0  0  0  0
    8.3479   -4.1503   24.4423 H   0  0  0  0  0  0  0  0  0  0  0  0
    6.7785   -5.4956   25.8566 H   0  0  0  0  0  0  0  0  0  0  0  0
    4.8728   -6.7018   24.7746 H   0  0  0  0  0  0  0  0  0  0  0  0
    4.5829   -6.6036   22.3206 H   0  0  0  0  0  0  0  0  0  0  0  0
  1  2  1  0
  2  3  2  0
  3  4  1  0
  4  5  2  0
  5  6  1  0
  6  7  2  0
  7  8  1  0
  8  9  1  0
  9 10  1  0
 10 11  2  0
 11 12  1  0
 12 13  2  0
 13 14  1  0
 14 15  1  0
 15 16  2  0
 16 17  1  0
 17 18  2  0
 18 19  1  0
 19 20  2  0
 20 21  1  0
 18 22  1  0
 17 23  1  0
 16 24  1  0
 13 25  1  0
  9 26  1  0
  8 27  1  0
  8 28  1  0
  6 29  1  0
  5 30  1  0
  4 31  1  0
  3 32  1  0
  7  2  1  0
 14 10  1  0
 20 15  1  0
M  END
>  <cnnaffinity>  (1) 
-5.13629

>  <filename>  (1) 
Ic1ccccc1CNc1nncn1-c1cccnc1

$$$$
