
     RDKit          3D

 31 33  0  0  0  0  0  0  0  0999 V2000
    9.8720    0.7680   21.2248 I   0  0  0  0  0  0  0  0  0  0  0  0
    9.3614    1.0561   23.3883 C   0  0  0  0  0  0  0  0  0  0  0  0
   10.3837    0.9934   24.3400 C   0  0  0  0  0  0  0  0  0  0  0  0
   10.0948    1.1652   25.6943 C   0  0  0  0  0  0  0  0  0  0  0  0
    8.7921    1.4892   26.0853 C   0  0  0  0  0  0  0  0  0  0  0  0
    7.7568    1.5363   25.1452 C   0  0  0  0  0  0  0  0  0  0  0  0
    8.0359    1.2798   23.7956 C   0  0  0  0  0  0  0  0  0  0  0  0
    6.9058    1.0956   22.8117 C   0  0  0  0  0  0  0  0  0  0  0  0
    6.8097   -0.3308   22.4554 N   0  0  0  0  0  0  0  0  0  0  0  0
    7.2537   -1.3292   23.2851 N   0  0  0  0  0  0  0  0  0  0  0  0
    7.5591   -2.3372   22.5092 C   0  0  0  0  0  0  0  0  0  0  0  0
    7.2441   -2.0266   21.1369 C   0  0  0  0  0  0  0  0  0  0  0  0
    6.7562   -0.7632   21.1329 C   0  0  0  0  0  0  0  0  0  0  0  0
    6.3098   -0.0337   19.9462 C   0  0  0  0  0  0  0  0  0  0  0  0
    5.4074    1.0198   20.0788 C   0  0  0  0  0  0  0  0  0  0  0  0
    5.0145    1.6857   18.9203 C   0  0  0  0  0  0  0  0  0  0  0  0
    5.5349    1.2975   17.6819 C   0  0  0  0  0  0  0  0  0  0  0  0
    6.4039    0.2802   17.5461 N   0  0  0  0  0  0  0  0  0  0  0  0
    6.7741   -0.3784   18.6619 C   0  0  0  0  0  0  0  0  0  0  0  0
    7.4831   -1.1951   18.5629 H   0  0  0  0  0  0  0  0  0  0  0  0
    5.2193    1.8347   16.7944 H   0  0  0  0  0  0  0  0  0  0  0  0
    4.3134    2.5107   18.9626 H   0  0  0  0  0  0  0  0  0  0  0  0
    5.0169    1.3036   21.0556 H   0  0  0  0  0  0  0  0  0  0  0  0
    7.3507   -2.6787   20.2874 H   0  0  0  0  0  0  0  0  0  0  0  0
    8.0021   -3.2686   22.8544 H   0  0  0  0  0  0  0  0  0  0  0  0
    5.9576    1.4613   23.2104 H   0  0  0  0  0  0  0  0  0  0  0  0
    7.1312    1.6539   21.9015 H   0  0  0  0  0  0  0  0  0  0  0  0
    6.7372    1.7309   25.4691 H   0  0  0  0  0  0  0  0  0  0  0  0
    8.5768    1.6828   27.1282 H   0  0  0  0  0  0  0  0  0  0  0  0
   10.8728    1.0540   26.4448 H   0  0  0  0  0  0  0  0  0  0  0  0
   11.4009    0.7889   24.0241 H   0  0  0  0  0  0  0  0  0  0  0  0
  1  2  1  0
  2  3  2  0
  3  4  1  0
  4  5  2  0
  5  6  1  0
  6  7  2  0
  7  8  1  0
  8  9  1  0
  9 10  1  0
 10 11  2  0
 11 12  1  0
 12 13  2  0
 13 14  1  0
 14 15  2  0
 15 16  1  0
 16 17  2  0
 17 18  1  0
 18 19  2  0
 19 20  1  0
 17 21  1  0
 16 22  1  0
 15 23  1  0
 12 24  1  0
 11 25  1  0
  8 26  1  0
  8 27  1  0
  6 28  1  0
  5 29  1  0
  4 30  1  0
  3 31  1  0
  7  2  1  0
 13  9  1  0
 19 14  1  0
M  END
>  <cnnaffinity>  (1) 
-5.16896

>  <filename>  (1) 
Ic1ccccc1Cn1nccc1-c1cccnc1

$$$$
