
     RDKit          3D

 30 32  0  0  0  0  0  0  0  0999 V2000
    4.9169    1.8112   16.9748 H   0  0  0  0  0  0  0  0  0  0  0  0
    5.3772    1.3029   17.8204 C   0  0  0  0  0  0  0  0  0  0  0  0
    6.5353    0.6726   17.5599 N   0  0  0  0  0  0  0  0  0  0  0  0
    7.1457    0.0567   18.5769 C   0  0  0  0  0  0  0  0  0  0  0  0
    8.1075   -0.4083   18.3763 H   0  0  0  0  0  0  0  0  0  0  0  0
    6.6323    0.0019   19.8853 C   0  0  0  0  0  0  0  0  0  0  0  0
    7.3609   -0.6770   20.8922 N   0  0  0  0  0  0  0  0  0  0  0  0
    8.7728   -0.6906   21.1503 C   0  0  0  0  0  0  0  0  0  0  0  0
    9.5929   -0.0735   20.4924 O   0  0  0  0  0  0  0  0  0  0  0  0
    8.8902   -1.5460   22.3171 C   0  0  0  0  0  0  0  0  0  0  0  0
    9.7446   -1.9430   22.8314 H   0  0  0  0  0  0  0  0  0  0  0  0
    7.6557   -1.8928   22.7450 C   0  0  0  0  0  0  0  0  0  0  0  0
    7.3365   -2.6632   23.9422 C   0  0  0  0  0  0  0  0  0  0  0  0
    6.1744   -2.4154   24.7080 C   0  0  0  0  0  0  0  0  0  0  0  0
    5.5455   -1.5741   24.4268 H   0  0  0  0  0  0  0  0  0  0  0  0
    5.8399   -3.1692   25.8362 C   0  0  0  0  0  0  0  0  0  0  0  0
    4.9503   -2.8979   26.4229 H   0  0  0  0  0  0  0  0  0  0  0  0
    6.6744   -4.2470   26.1937 C   0  0  0  0  0  0  0  0  0  0  0  0
    6.3951   -4.8392   27.0729 H   0  0  0  0  0  0  0  0  0  0  0  0
    7.8106   -4.5181   25.4427 C   0  0  0  0  0  0  0  0  0  0  0  0
    8.4830   -5.3579   25.5544 H   0  0  0  0  0  0  0  0  0  0  0  0
    8.2946   -3.6813   24.3589 C   0  0  0  0  0  0  0  0  0  0  0  0
    9.5781   -4.1164   23.4868 C   0  0  0  0  0  0  0  0  0  0  0  0
    9.5781   -4.1163   23.4869 N   0  0  0  0  0  0  0  0  0  0  0  0
    6.7215   -1.3481   21.9143 N   0  0  0  0  0  0  0  0  0  0  0  0
    5.7384   -1.5649   21.8754 H   0  0  0  0  0  0  0  0  0  0  0  0
    5.4161    0.6523   20.1461 C   0  0  0  0  0  0  0  0  0  0  0  0
    5.0115    0.6505   21.1586 H   0  0  0  0  0  0  0  0  0  0  0  0
    4.7860    1.3188   19.0912 C   0  0  0  0  0  0  0  0  0  0  0  0
    3.8576    1.8590   19.2393 H   0  0  0  0  0  0  0  0  0  0  0  0
  1  2  1  0
  2  3  2  0
  3  4  1  0
  4  5  1  0
  4  6  2  0
  6  7  1  0
  7  8  1  0
  8  9  2  0
  8 10  1  0
 10 11  1  0
 10 12  2  0
 12 13  1  0
 13 14  2  0
 14 15  1  0
 14 16  1  0
 16 17  1  0
 16 18  2  0
 18 19  1  0
 18 20  1  0
 20 21  1  0
 20 22  2  0
 22 23  1  0
 23 24  3  0
 12 25  1  0
 25 26  1  0
  6 27  1  0
 27 28  1  0
 27 29  2  0
 29 30  1  0
 29  2  1  0
 25  7  1  0
 22 13  1  0
M  END
>  <cnnaffinity>  (1) 
-5.12575

>  <filename>  (1) 
N#Cc1ccccc1-c1cc(=O)n(-c2cccnc2)[nH]1

$$$$
