
     RDKit          3D

 36 39  0  0  0  0  0  0  0  0999 V2000
    4.9737    1.8549   16.9048 H   0  0  0  0  0  0  0  0  0  0  0  0
    5.4014    1.3055   17.7430 C   0  0  0  0  0  0  0  0  0  0  0  0
    6.5427    0.6458   17.4957 N   0  0  0  0  0  0  0  0  0  0  0  0
    7.1263    0.0162   18.5205 C   0  0  0  0  0  0  0  0  0  0  0  0
    8.0358   -0.5290   18.2817 H   0  0  0  0  0  0  0  0  0  0  0  0
    6.6346    0.0311   19.8406 C   0  0  0  0  0  0  0  0  0  0  0  0
    7.4083   -0.5859   20.9307 C   0  0  0  0  0  0  0  0  0  0  0  0
    8.1519   -1.6738   20.7283 N   0  0  0  0  0  0  0  0  0  0  0  0
    8.6325   -1.9499   21.9391 N   0  0  0  0  0  0  0  0  0  0  0  0
    8.2673   -1.1239   22.9164 C   0  0  0  0  0  0  0  0  0  0  0  0
    7.4488   -0.1880   22.3101 C   0  0  0  0  0  0  0  0  0  0  0  0
    6.9590    1.0285   22.9602 C   0  0  0  0  0  0  0  0  0  0  0  0
    7.2675    2.2647   22.3658 C   0  0  0  0  0  0  0  0  0  0  0  0
    7.7781    2.2582   21.4049 H   0  0  0  0  0  0  0  0  0  0  0  0
    6.9607    3.4560   22.9998 C   0  0  0  0  0  0  0  0  0  0  0  0
    7.2685    4.3959   22.5505 H   0  0  0  0  0  0  0  0  0  0  0  0
    6.2933    3.4429   24.2281 C   0  0  0  0  0  0  0  0  0  0  0  0
    6.0597    4.3801   24.7229 H   0  0  0  0  0  0  0  0  0  0  0  0
    5.9485    2.2319   24.8232 C   0  0  0  0  0  0  0  0  0  0  0  0
    5.4350    2.2240   25.7815 H   0  0  0  0  0  0  0  0  0  0  0  0
    6.2886    1.0168   24.2111 C   0  0  0  0  0  0  0  0  0  0  0  0
    5.9335   -0.2172   24.8926 C   0  0  0  0  0  0  0  0  0  0  0  0
    5.7038   -1.2089   25.4455 N   0  0  0  0  0  0  0  0  0  0  0  0
    9.0667   -1.4061   24.1697 C   0  0  0  0  0  0  0  0  0  0  0  0
    9.6272   -0.5281   24.5050 H   0  0  0  0  0  0  0  0  0  0  0  0
    8.4115   -1.7032   24.9873 H   0  0  0  0  0  0  0  0  0  0  0  0
   10.0195   -2.5461   23.7197 C   0  0  0  0  0  0  0  0  0  0  0  0
   11.0233   -2.1529   23.5998 H   0  0  0  0  0  0  0  0  0  0  0  0
   10.0594   -3.3588   24.4487 H   0  0  0  0  0  0  0  0  0  0  0  0
    9.5541   -2.9880   22.3078 C   0  0  0  0  0  0  0  0  0  0  0  0
    9.0426   -3.9506   22.2705 H   0  0  0  0  0  0  0  0  0  0  0  0
   10.3738   -2.9632   21.5948 H   0  0  0  0  0  0  0  0  0  0  0  0
    5.3920    0.6553   20.0616 C   0  0  0  0  0  0  0  0  0  0  0  0
    4.9144    0.6354   21.0438 H   0  0  0  0  0  0  0  0  0  0  0  0
    4.7783    1.3090   18.9938 C   0  0  0  0  0  0  0  0  0  0  0  0
    3.8418    1.8393   19.1152 H   0  0  0  0  0  0  0  0  0  0  0  0
  1  2  1  0
  2  3  2  0
  3  4  1  0
  4  5  1  0
  4  6  2  0
  6  7  1  0
  7  8  2  0
  8  9  1  0
  9 10  1  0
 10 11  2  0
 11 12  1  0
 12 13  2  0
 13 14  1  0
 13 15  1  0
 15 16  1  0
 15 17  2  0
 17 18  1  0
 17 19  1  0
 19 20  1  0
 19 21  2  0
 21 22  1  0
 22 23  3  0
 10 24  1  0
 24 25  1  0
 24 26  1  0
 24 27  1  0
 27 28  1  0
 27 29  1  0
 27 30  1  0
 30 31  1  0
 30 32  1  0
  6 33  1  0
 33 34  1  0
 33 35  2  0
 35 36  1  0
 35  2  1  0
 11  7  1  0
 21 12  1  0
 30  9  1  0
M  END
>  <cnnaffinity>  (1) 
-5.36894

>  <filename>  (1) 
N#Cc1ccccc1-c1c(-c2cccnc2)nn2c1CCC2

$$$$
