
     RDKit          3D

 31 33  0  0  0  0  0  0  0  0999 V2000
    5.0037    1.7844   17.0062 H   0  0  0  0  0  0  0  0  0  0  0  0
    5.4394    1.2541   17.8497 C   0  0  0  0  0  0  0  0  0  0  0  0
    6.5859    0.5998   17.6021 N   0  0  0  0  0  0  0  0  0  0  0  0
    7.1672   -0.0330   18.6342 C   0  0  0  0  0  0  0  0  0  0  0  0
    8.0876   -0.5673   18.4098 H   0  0  0  0  0  0  0  0  0  0  0  0
    6.6602   -0.0375   19.9627 C   0  0  0  0  0  0  0  0  0  0  0  0
    7.3044   -0.6305   21.0597 N   0  0  0  0  0  0  0  0  0  0  0  0
    6.7337   -0.6821   21.8947 H   0  0  0  0  0  0  0  0  0  0  0  0
    8.6747   -0.5462   21.3462 C   0  0  0  0  0  0  0  0  0  0  0  0
    9.6891    0.2563   20.7630 C   0  0  0  0  0  0  0  0  0  0  0  0
    9.5663    0.9849   19.9805 H   0  0  0  0  0  0  0  0  0  0  0  0
   10.8769    0.0382   21.3126 N   0  0  0  0  0  0  0  0  0  0  0  0
   10.6332   -0.9095   22.2306 N   0  0  0  0  0  0  0  0  0  0  0  0
   11.3843   -1.1838   22.8451 H   0  0  0  0  0  0  0  0  0  0  0  0
    9.3245   -1.2796   22.3291 C   0  0  0  0  0  0  0  0  0  0  0  0
    8.8033   -2.2962   23.2847 C   0  0  0  0  0  0  0  0  0  0  0  0
    9.4502   -3.5445   23.3978 C   0  0  0  0  0  0  0  0  0  0  0  0
   10.3878   -3.6917   22.8711 H   0  0  0  0  0  0  0  0  0  0  0  0
    8.8859   -4.5846   24.1310 C   0  0  0  0  0  0  0  0  0  0  0  0
    9.3785   -5.5500   24.2018 H   0  0  0  0  0  0  0  0  0  0  0  0
    7.6666   -4.3993   24.7907 C   0  0  0  0  0  0  0  0  0  0  0  0
    7.2016   -5.2362   25.3065 H   0  0  0  0  0  0  0  0  0  0  0  0
    7.0608   -3.1439   24.7848 C   0  0  0  0  0  0  0  0  0  0  0  0
    6.1401   -2.9665   25.3339 H   0  0  0  0  0  0  0  0  0  0  0  0
    7.6356   -2.0834   24.0642 C   0  0  0  0  0  0  0  0  0  0  0  0
    7.0331   -0.7727   24.2202 C   0  0  0  0  0  0  0  0  0  0  0  0
    6.5245    0.2461   24.4395 N   0  0  0  0  0  0  0  0  0  0  0  0
    5.4275    0.5903   20.1772 C   0  0  0  0  0  0  0  0  0  0  0  0
    4.9921    0.5769   21.1816 H   0  0  0  0  0  0  0  0  0  0  0  0
    4.8186    1.2568   19.1062 C   0  0  0  0  0  0  0  0  0  0  0  0
    3.8864    1.7938   19.2350 H   0  0  0  0  0  0  0  0  0  0  0  0
  1  2  1  0
  2  3  2  0
  3  4  1  0
  4  5  1  0
  4  6  2  0
  6  7  1  0
  7  8  1  0
  7  9  1  0
  9 10  1  0
 10 11  1  0
 10 12  2  0
 12 13  1  0
 13 14  1  0
 13 15  1  0
 15 16  1  0
 16 17  2  0
 17 18  1  0
 17 19  1  0
 19 20  1  0
 19 21  2  0
 21 22  1  0
 21 23  1  0
 23 24  1  0
 23 25  2  0
 25 26  1  0
 26 27  3  0
  6 28  1  0
 28 29  1  0
 28 30  2  0
 30 31  1  0
 30  2  1  0
 15  9  2  0
 25 16  1  0
M  END
>  <cnnaffinity>  (1) 
-5.6024

>  <filename>  (1) 
N#Cc1ccccc1-c1[nH]ncc1Nc1cccnc1

$$$$
