
     RDKit          3D

 33 35  0  0  0  0  0  0  0  0999 V2000
    4.9318    1.8290   16.9591 H   0  0  0  0  0  0  0  0  0  0  0  0
    5.4028    1.3141   17.7960 C   0  0  0  0  0  0  0  0  0  0  0  0
    6.5682    0.6995   17.5381 N   0  0  0  0  0  0  0  0  0  0  0  0
    7.1677    0.0635   18.5542 C   0  0  0  0  0  0  0  0  0  0  0  0
    8.1267   -0.4002   18.3142 H   0  0  0  0  0  0  0  0  0  0  0  0
    6.6469   -0.0103   19.8640 C   0  0  0  0  0  0  0  0  0  0  0  0
    7.3800   -0.6930   21.0179 C   0  0  2  0  0  0  0  0  0  0  0  0
    8.1752   -1.3125   20.5873 H   0  0  0  0  0  0  0  0  0  0  0  0
    6.5203   -1.6753   21.8362 C   0  0  0  0  0  0  0  0  0  0  0  0
    5.8116   -2.5755   21.4387 O   0  0  0  0  0  0  0  0  0  0  0  0
    6.6955   -1.3776   23.1455 N   0  0  0  0  0  0  0  0  0  0  0  0
    6.0821   -1.8622   23.7771 H   0  0  0  0  0  0  0  0  0  0  0  0
    7.5556   -0.2633   23.4641 C   0  0  0  0  0  0  0  0  0  0  0  0
    7.0423    0.4928   24.0770 H   0  0  0  0  0  0  0  0  0  0  0  0
    8.4384   -0.5963   24.0341 H   0  0  0  0  0  0  0  0  0  0  0  0
    7.9548    0.3025   22.0729 C   0  0  1  0  0  0  0  0  0  0  0  0
    7.4583    1.2714   21.9435 H   0  0  0  0  0  0  0  0  0  0  0  0
    9.4505    0.5297   21.9269 C   0  0  0  0  0  0  0  0  0  0  0  0
    9.9729    1.7916   21.5994 C   0  0  0  0  0  0  0  0  0  0  0  0
    9.2972    2.6183   21.3837 H   0  0  0  0  0  0  0  0  0  0  0  0
   11.3558    2.0018   21.5440 C   0  0  0  0  0  0  0  0  0  0  0  0
   11.7460    2.9810   21.2739 H   0  0  0  0  0  0  0  0  0  0  0  0
   12.2299    0.9446   21.7918 C   0  0  0  0  0  0  0  0  0  0  0  0
   13.3046    1.1046   21.8266 H   0  0  0  0  0  0  0  0  0  0  0  0
   11.7221   -0.3576   21.9593 C   0  0  0  0  0  0  0  0  0  0  0  0
   12.6680   -1.4459   21.9344 C   0  0  0  0  0  0  0  0  0  0  0  0
   13.5304   -2.2163   21.8537 N   0  0  0  0  0  0  0  0  0  0  0  0
   10.3368   -0.5479   22.0770 C   0  0  0  0  0  0  0  0  0  0  0  0
    9.9466   -1.5339   22.3166 H   0  0  0  0  0  0  0  0  0  0  0  0
    5.4314    0.6392   20.1034 C   0  0  0  0  0  0  0  0  0  0  0  0
    5.0051    0.6373   21.1075 H   0  0  0  0  0  0  0  0  0  0  0  0
    4.7983    1.3109   19.0556 C   0  0  0  0  0  0  0  0  0  0  0  0
    3.8706    1.8468   19.2074 H   0  0  0  0  0  0  0  0  0  0  0  0
  1  2  1  0
  2  3  2  0
  3  4  1  0
  4  5  1  0
  4  6  2  0
  6  7  1  0
  7  8  1  6
  7  9  1  0
  9 10  2  0
  9 11  1  0
 11 12  1  0
 11 13  1  0
 13 14  1  0
 13 15  1  0
 13 16  1  0
 16 17  1  6
 16 18  1  0
 18 19  2  0
 19 20  1  0
 19 21  1  0
 21 22  1  0
 21 23  2  0
 23 24  1  0
 23 25  1  0
 25 26  1  0
 26 27  3  0
 25 28  2  0
 28 29  1  0
  6 30  1  0
 30 31  1  0
 30 32  2  0
 32 33  1  0
 32  2  1  0
 16  7  1  0
 28 18  1  0
M  END
>  <cnnaffinity>  (1) 
-5.69186

>  <filename>  (1) 
N#Cc1cccc([C@@H]2CNC(=O)[C@H]2c2cccnc2)c1

$$$$
