
     RDKit          3D

 24 25  0  0  0  0  0  0  0  0999 V2000
    4.9692    1.7718   16.9887 H   0  0  0  0  0  0  0  0  0  0  0  0
    5.4447    1.2922   17.8409 C   0  0  0  0  0  0  0  0  0  0  0  0
    6.6224    0.6902   17.5948 N   0  0  0  0  0  0  0  0  0  0  0  0
    7.2396    0.0901   18.6163 C   0  0  0  0  0  0  0  0  0  0  0  0
    8.2068   -0.3704   18.4205 H   0  0  0  0  0  0  0  0  0  0  0  0
    6.6891    0.0241   19.9072 C   0  0  0  0  0  0  0  0  0  0  0  0
    7.3780   -0.6809   20.9419 N   0  0  0  0  0  0  0  0  0  0  0  0
    8.7098   -0.3718   21.0690 N   0  0  0  0  0  0  0  0  0  0  0  0
    9.4000   -0.9517   22.0094 C   0  0  0  0  0  0  0  0  0  0  0  0
   10.8363   -0.5006   22.1641 C   0  0  0  0  0  0  0  0  0  0  0  0
   10.8927    0.5397   21.8399 H   0  0  0  0  0  0  0  0  0  0  0  0
   11.1233   -0.5384   23.2183 H   0  0  0  0  0  0  0  0  0  0  0  0
   11.8382   -1.2601   21.4071 C   0  0  0  0  0  0  0  0  0  0  0  0
   12.7175   -1.7791   20.8618 N   0  0  0  0  0  0  0  0  0  0  0  0
    8.8159   -1.9189   22.9043 C   0  0  0  0  0  0  0  0  0  0  0  0
    9.4359   -2.3583   23.6831 H   0  0  0  0  0  0  0  0  0  0  0  0
    7.5112   -2.2744   22.7431 C   0  0  0  0  0  0  0  0  0  0  0  0
    6.9880   -3.0099   23.3439 H   0  0  0  0  0  0  0  0  0  0  0  0
    6.6927   -1.7122   21.6762 C   0  0  0  0  0  0  0  0  0  0  0  0
    5.5641   -2.0879   21.3974 O   0  0  0  0  0  0  0  0  0  0  0  0
    5.4610    0.6446   20.1580 C   0  0  0  0  0  0  0  0  0  0  0  0
    5.0186    0.6001   21.1520 H   0  0  0  0  0  0  0  0  0  0  0  0
    4.8340    1.3087   19.0990 C   0  0  0  0  0  0  0  0  0  0  0  0
    3.8866    1.8253   19.2321 H   0  0  0  0  0  0  0  0  0  0  0  0
  1  2  1  0
  2  3  2  0
  3  4  1  0
  4  5  1  0
  4  6  2  0
  6  7  1  0
  7  8  1  0
  8  9  2  0
  9 10  1  0
 10 11  1  0
 10 12  1  0
 10 13  1  0
 13 14  3  0
  9 15  1  0
 15 16  1  0
 15 17  2  0
 17 18  1  0
 17 19  1  0
 19 20  2  0
  6 21  1  0
 21 22  1  0
 21 23  2  0
 23 24  1  0
 23  2  1  0
 19  7  1  0
M  END
>  <cnnaffinity>  (1) 
-5.06202

>  <filename>  (1) 
N#CCc1ccc(=O)n(-c2cccnc2)n1

$$$$
