
     RDKit          3D

 31 33  0  0  0  0  0  0  0  0999 V2000
    5.0599    1.7101   16.9552 H   0  0  0  0  0  0  0  0  0  0  0  0
    5.5443    1.2519   17.8153 C   0  0  0  0  0  0  0  0  0  0  0  0
    6.7338    0.6717   17.5885 N   0  0  0  0  0  0  0  0  0  0  0  0
    7.3554    0.1037   18.6313 C   0  0  0  0  0  0  0  0  0  0  0  0
    8.3299   -0.3387   18.4282 H   0  0  0  0  0  0  0  0  0  0  0  0
    6.8032    0.0482   19.9208 C   0  0  0  0  0  0  0  0  0  0  0  0
    7.5062   -0.6769   21.0112 C   0  0  0  0  0  0  0  0  0  0  0  0
    8.8138   -0.5863   21.0502 N   0  0  0  0  0  0  0  0  0  0  0  0
    9.4945   -1.2368   22.0481 N   0  0  0  0  0  0  0  0  0  0  0  0
   10.9107   -1.0226   22.0997 C   0  0  0  0  0  0  0  0  0  0  0  0
   11.7536   -2.1355   22.2202 C   0  0  0  0  0  0  0  0  0  0  0  0
   11.3331   -3.1221   22.3815 H   0  0  0  0  0  0  0  0  0  0  0  0
   13.1355   -1.9645   22.1365 C   0  0  0  0  0  0  0  0  0  0  0  0
   13.7878   -2.8372   22.0826 H   0  0  0  0  0  0  0  0  0  0  0  0
   13.6928   -0.6831   22.1875 C   0  0  0  0  0  0  0  0  0  0  0  0
   14.7645   -0.5390   22.2644 H   0  0  0  0  0  0  0  0  0  0  0  0
   12.8636    0.4364   22.1516 C   0  0  0  0  0  0  0  0  0  0  0  0
   13.2839    1.4400   22.1385 H   0  0  0  0  0  0  0  0  0  0  0  0
   11.4710    0.2782   22.0221 C   0  0  0  0  0  0  0  0  0  0  0  0
   10.6684    1.4675   21.8866 C   0  0  0  0  0  0  0  0  0  0  0  0
   10.0921    2.4670   21.7945 N   0  0  0  0  0  0  0  0  0  0  0  0
    8.8670   -2.0753   23.0430 C   0  0  0  0  0  0  0  0  0  0  0  0
    9.5161   -2.6876   23.8768 O   0  0  0  0  0  0  0  0  0  0  0  0
    7.4131   -2.0920   22.9631 C   0  0  0  0  0  0  0  0  0  0  0  0
    6.9176   -2.6688   23.7374 H   0  0  0  0  0  0  0  0  0  0  0  0
    6.7607   -1.4316   21.9737 C   0  0  0  0  0  0  0  0  0  0  0  0
    5.6820   -1.4803   21.8563 H   0  0  0  0  0  0  0  0  0  0  0  0
    5.5630    0.6670   20.1422 C   0  0  0  0  0  0  0  0  0  0  0  0
    5.1150    0.6847   21.1380 H   0  0  0  0  0  0  0  0  0  0  0  0
    4.9259    1.2851   19.0703 C   0  0  0  0  0  0  0  0  0  0  0  0
    3.9711    1.7848   19.1979 H   0  0  0  0  0  0  0  0  0  0  0  0
  1  2  1  0
  2  3  2  0
  3  4  1  0
  4  5  1  0
  4  6  2  0
  6  7  1  0
  7  8  2  0
  8  9  1  0
  9 10  1  0
 10 11  2  0
 11 12  1  0
 11 13  1  0
 13 14  1  0
 13 15  2  0
 15 16  1  0
 15 17  1  0
 17 18  1  0
 17 19  2  0
 19 20  1  0
 20 21  3  0
  9 22  1  0
 22 23  2  0
 22 24  1  0
 24 25  1  0
 24 26  2  0
 26 27  1  0
  6 28  1  0
 28 29  1  0
 28 30  2  0
 30 31  1  0
 30  2  1  0
 26  7  1  0
 19 10  1  0
M  END
>  <cnnaffinity>  (1) 
-5.69068

>  <filename>  (1) 
N#Cc1ccccc1-n1nc(-c2cccnc2)ccc1=O

$$$$
