
     RDKit          3D

 24 25  0  0  0  0  0  0  0  0999 V2000
    9.5066   -5.5536   23.9576 H   0  0  0  0  0  0  0  0  0  0  0  0
    9.2290   -4.6307   23.6148 N   0  0  0  0  0  0  0  0  0  0  0  0
    8.6382   -4.9326   22.5235 N   0  0  0  0  0  4  0  0  0  0  0  0
    8.1167   -4.1380   21.6772 N   0  0  0  0  0  0  0  0  0  0  0  0
    8.1132   -2.7328   21.9125 C   0  0  0  0  0  0  0  0  0  0  0  0
    8.6554   -2.0218   23.0380 C   0  0  0  0  0  0  0  0  0  0  0  0
    9.2055   -2.5510   23.8034 H   0  0  0  0  0  0  0  0  0  0  0  0
    8.4474   -0.6765   23.1336 C   0  0  0  0  0  0  0  0  0  0  0  0
    8.7837   -0.0927   23.9821 H   0  0  0  0  0  0  0  0  0  0  0  0
    7.7449    0.1189   22.1326 C   0  0  0  0  0  0  0  0  0  0  0  0
    7.5281    1.3076   22.2584 O   0  0  0  0  0  0  0  0  0  0  0  0
    7.3444   -0.6355   20.9641 N   0  0  0  0  0  0  0  0  0  0  0  0
    6.6559    0.0159   19.8703 C   0  0  0  0  0  0  0  0  0  0  0  0
    7.1649    0.0425   18.5541 C   0  0  0  0  0  0  0  0  0  0  0  0
    8.1103   -0.4473   18.3263 H   0  0  0  0  0  0  0  0  0  0  0  0
    6.5534    0.6672   17.5421 N   0  0  0  0  0  0  0  0  0  0  0  0
    5.3990    1.3014   17.8018 C   0  0  0  0  0  0  0  0  0  0  0  0
    4.9321    1.8203   16.9659 H   0  0  0  0  0  0  0  0  0  0  0  0
    4.8014    1.3124   19.0656 C   0  0  0  0  0  0  0  0  0  0  0  0
    3.8685    1.8451   19.2167 H   0  0  0  0  0  0  0  0  0  0  0  0
    5.4438    0.6648   20.1229 C   0  0  0  0  0  0  0  0  0  0  0  0
    5.0373    0.6683   21.1343 H   0  0  0  0  0  0  0  0  0  0  0  0
    7.4833   -2.0056   20.9364 C   0  0  0  0  0  0  0  0  0  0  0  0
    7.0473   -2.5250   20.0936 H   0  0  0  0  0  0  0  0  0  0  0  0
  1  2  1  0
  2  3  2  0
  3  4  2  0
  4  5  1  0
  5  6  1  0
  6  7  1  0
  6  8  2  0
  8  9  1  0
  8 10  1  0
 10 11  2  0
 10 12  1  0
 12 13  1  0
 13 14  2  0
 14 15  1  0
 14 16  1  0
 16 17  2  0
 17 18  1  0
 17 19  1  0
 19 20  1  0
 19 21  2  0
 21 22  1  0
 12 23  1  0
 23 24  1  0
 23  5  2  0
 21 13  1  0
M  CHG  1   3   1
M  END
>  <cnnaffinity>  (1) 
-4.69232

>  <filename>  (1) 
N=[N+]=Nc1ccc(=O)n(-c2cccnc2)c1

$$$$
