
     RDKit          3D

 21 22  0  0  0  0  0  0  0  0999 V2000
    4.5920   -3.8920   24.2483 H   0  0  0  0  0  0  0  0  0  0  0  0
    4.5926   -3.6060   23.2689 N   0  0  0  0  0  0  0  0  0  0  0  0
    5.6603   -2.9861   23.0528 N   0  0  0  0  0  4  0  0  0  0  0  0
    5.8574   -2.3661   21.9237 N   0  0  0  0  0  0  0  0  0  0  0  0
    7.0740   -1.7430   21.8520 C   0  0  0  0  0  0  0  0  0  0  0  0
    8.2317   -1.9175   22.5998 C   0  0  0  0  0  0  0  0  0  0  0  0
    8.3699   -2.5483   23.4663 H   0  0  0  0  0  0  0  0  0  0  0  0
    9.2508   -1.1718   22.1036 N   0  0  0  0  0  0  0  0  0  0  0  0
    8.7612   -0.5388   21.0705 C   0  0  0  0  0  0  0  0  0  0  0  0
    9.2809    0.1969   20.4644 H   0  0  0  0  0  0  0  0  0  0  0  0
    7.4485   -0.8451   20.8282 N   0  0  0  0  0  0  0  0  0  0  0  0
    6.6772   -0.1625   19.8320 C   0  0  0  0  0  0  0  0  0  0  0  0
    7.1710   -0.0375   18.5130 C   0  0  0  0  0  0  0  0  0  0  0  0
    8.1132   -0.5155   18.2444 H   0  0  0  0  0  0  0  0  0  0  0  0
    6.5660    0.6546   17.5469 N   0  0  0  0  0  0  0  0  0  0  0  0
    5.4222    1.2836   17.8639 C   0  0  0  0  0  0  0  0  0  0  0  0
    4.9493    1.8534   17.0652 H   0  0  0  0  0  0  0  0  0  0  0  0
    4.8570    1.2352   19.1386 C   0  0  0  0  0  0  0  0  0  0  0  0
    3.9507    1.7951   19.3372 H   0  0  0  0  0  0  0  0  0  0  0  0
    5.4847    0.5007   20.1518 C   0  0  0  0  0  0  0  0  0  0  0  0
    5.0830    0.4789   21.1650 H   0  0  0  0  0  0  0  0  0  0  0  0
  1  2  1  0
  2  3  2  0
  3  4  2  0
  4  5  1  0
  5  6  2  0
  6  7  1  0
  6  8  1  0
  8  9  2  0
  9 10  1  0
  9 11  1  0
 11 12  1  0
 12 13  2  0
 13 14  1  0
 13 15  1  0
 15 16  2  0
 16 17  1  0
 16 18  1  0
 18 19  1  0
 18 20  2  0
 20 21  1  0
 11  5  1  0
 20 12  1  0
M  CHG  1   3   1
M  END
>  <cnnaffinity>  (1) 
-4.16082

>  <filename>  (1) 
N=[N+]=Nc1cncn1-c1cccnc1

$$$$
