
     RDKit          3D

 23 24  0  0  0  0  0  0  0  0999 V2000
   11.5241    1.8448   20.4118 H   0  0  0  0  0  0  0  0  0  0  0  0
   11.7449    1.4901   21.3544 N   0  0  0  0  0  0  0  0  0  0  0  0
   11.1195    0.5018   21.6485 N   0  0  0  0  0  4  0  0  0  0  0  0
   10.6721   -0.4769   22.1894 N   0  0  0  0  0  0  0  0  0  0  0  0
    9.3534   -0.9250   21.9327 C   0  0  0  0  0  0  0  0  0  0  0  0
    8.6484   -0.4342   20.9552 N   0  0  0  0  0  0  0  0  0  0  0  0
    7.3258   -0.7816   20.8685 N   0  0  0  0  0  0  0  0  0  0  0  0
    6.6249   -0.0293   19.8685 C   0  0  0  0  0  0  0  0  0  0  0  0
    7.2177    0.1157   18.5993 C   0  0  0  0  0  0  0  0  0  0  0  0
    8.2074   -0.3059   18.4440 H   0  0  0  0  0  0  0  0  0  0  0  0
    6.6354    0.7429   17.5813 N   0  0  0  0  0  0  0  0  0  0  0  0
    5.4457    1.3263   17.8123 C   0  0  0  0  0  0  0  0  0  0  0  0
    4.9855    1.8284   16.9621 H   0  0  0  0  0  0  0  0  0  0  0  0
    4.8201    1.3132   19.0621 C   0  0  0  0  0  0  0  0  0  0  0  0
    3.8913    1.8590   19.1917 H   0  0  0  0  0  0  0  0  0  0  0  0
    5.4136    0.6197   20.1253 C   0  0  0  0  0  0  0  0  0  0  0  0
    4.9692    0.6128   21.1230 H   0  0  0  0  0  0  0  0  0  0  0  0
    6.6791   -1.8039   21.6705 C   0  0  0  0  0  0  0  0  0  0  0  0
    5.5561   -2.2074   21.4480 O   0  0  0  0  0  0  0  0  0  0  0  0
    7.5521   -2.3031   22.7508 C   0  0  0  0  0  0  0  0  0  0  0  0
    7.0628   -2.9907   23.4357 H   0  0  0  0  0  0  0  0  0  0  0  0
    8.8433   -1.9023   22.8587 C   0  0  0  0  0  0  0  0  0  0  0  0
    9.5269   -2.2613   23.6328 H   0  0  0  0  0  0  0  0  0  0  0  0
  1  2  1  0
  2  3  2  0
  3  4  2  0
  4  5  1  0
  5  6  2  0
  6  7  1  0
  7  8  1  0
  8  9  2  0
  9 10  1  0
  9 11  1  0
 11 12  2  0
 12 13  1  0
 12 14  1  0
 14 15  1  0
 14 16  2  0
 16 17  1  0
  7 18  1  0
 18 19  2  0
 18 20  1  0
 20 21  1  0
 20 22  2  0
 22 23  1  0
 22  5  1  0
 16  8  1  0
M  CHG  1   3   1
M  END
>  <cnnaffinity>  (1) 
-4.58845

>  <filename>  (1) 
N=[N+]=Nc1ccc(=O)n(-c2cccnc2)n1

$$$$
