
     RDKit          3D

 28 30  0  0  0  0  0  0  0  0999 V2000
    9.8676    0.1153   20.4595 H   0  0  0  0  0  0  0  0  0  0  0  0
    9.6749    0.8709   21.1066 N   0  0  0  0  0  0  0  0  0  0  0  0
    8.5723    0.6361   21.6925 C   0  0  0  0  0  0  0  0  0  0  0  0
    7.5959   -0.8141   21.1788 S   0  0  0  0  0  0  0  0  0  0  0  0
    6.6295   -0.0381   19.8761 C   0  0  0  0  0  0  0  0  0  0  0  0
    7.1391    0.0293   18.5659 C   0  0  0  0  0  0  0  0  0  0  0  0
    8.0976   -0.4361   18.3387 H   0  0  0  0  0  0  0  0  0  0  0  0
    6.5417    0.6736   17.5578 N   0  0  0  0  0  0  0  0  0  0  0  0
    5.3847    1.3010   17.8226 C   0  0  0  0  0  0  0  0  0  0  0  0
    4.9172    1.8088   16.9802 H   0  0  0  0  0  0  0  0  0  0  0  0
    4.7929    1.3063   19.0902 C   0  0  0  0  0  0  0  0  0  0  0  0
    3.8704    1.8529   19.2464 H   0  0  0  0  0  0  0  0  0  0  0  0
    5.4225    0.6207   20.1355 C   0  0  0  0  0  0  0  0  0  0  0  0
    5.0057    0.6262   21.1425 H   0  0  0  0  0  0  0  0  0  0  0  0
    7.9853    1.5602   22.6976 C   0  0  0  0  0  0  0  0  0  0  0  0
    6.8515    1.2139   23.4992 C   0  0  0  0  0  0  0  0  0  0  0  0
    6.3749    0.2430   23.3838 H   0  0  0  0  0  0  0  0  0  0  0  0
    6.3313    2.0874   24.4362 C   0  0  0  0  0  0  0  0  0  0  0  0
    5.4844    1.8151   25.0545 H   0  0  0  0  0  0  0  0  0  0  0  0
    6.9633    3.3475   24.5663 C   0  0  0  0  0  0  0  0  0  0  0  0
    8.0662    3.7158   23.7675 C   0  0  0  0  0  0  0  0  0  0  0  0
    8.4000    5.0324   24.2083 C   0  0  0  0  0  0  0  0  0  0  0  0
    9.1959    5.6778   23.8518 H   0  0  0  0  0  0  0  0  0  0  0  0
    7.5970    5.4286   25.1728 N   0  0  0  0  0  0  0  0  0  0  0  0
    6.7317    4.4091   25.3830 N   0  0  0  0  0  0  0  0  0  0  0  0
    6.0102    4.4985   26.0805 H   0  0  0  0  0  0  0  0  0  0  0  0
    8.5784    2.8176   22.8167 C   0  0  0  0  0  0  0  0  0  0  0  0
    9.4177    3.0689   22.1752 H   0  0  0  0  0  0  0  0  0  0  0  0
  1  2  1  0
  2  3  2  3
  3  4  1  0
  4  5  1  0
  5  6  2  0
  6  7  1  0
  6  8  1  0
  8  9  2  0
  9 10  1  0
  9 11  1  0
 11 12  1  0
 11 13  2  0
 13 14  1  0
  3 15  1  0
 15 16  2  0
 16 17  1  0
 16 18  1  0
 18 19  1  0
 18 20  2  0
 20 21  1  0
 21 22  1  0
 22 23  1  0
 22 24  2  0
 24 25  1  0
 25 26  1  0
 21 27  2  0
 27 28  1  0
 13  5  1  0
 27 15  1  0
 25 20  1  0
M  END
>  <cnnaffinity>  (1) 
-4.44894

>  <filename>  (1) 
N=C(Sc1cccnc1)c1ccc2[nH]ncc2c1

$$$$
