
     RDKit          3D

 25 26  0  0  0  0  0  0  0  0999 V2000
    8.7428   -1.9890   21.4147 H   0  0  0  0  0  0  0  0  0  0  0  0
    8.3238   -1.5742   20.5903 N   0  0  0  0  0  0  0  0  0  0  0  0
    7.4112   -0.7699   20.9288 C   0  0  0  0  0  0  0  0  0  0  0  0
    7.0752   -0.3582   22.6767 S   0  0  0  0  0  0  0  0  0  0  0  0
    8.2097    1.0167   22.8101 C   0  0  0  0  0  0  0  0  0  0  0  0
    9.5476    0.7558   23.1317 C   0  0  0  0  0  0  0  0  0  0  0  0
    9.8808   -0.2554   23.3478 H   0  0  0  0  0  0  0  0  0  0  0  0
   10.4495    1.8143   23.1569 C   0  0  0  0  0  0  0  0  0  0  0  0
   12.0994    1.5046   23.5774 Cl  0  0  0  0  0  0  0  0  0  0  0  0
   10.0550    3.1213   22.8612 C   0  0  0  0  0  0  0  0  0  0  0  0
   10.7640    3.9380   22.8896 H   0  0  0  0  0  0  0  0  0  0  0  0
    8.7173    3.3462   22.5225 C   0  0  0  0  0  0  0  0  0  0  0  0
    8.1998    4.9555   22.1554 Cl  0  0  0  0  0  0  0  0  0  0  0  0
    7.7880    2.3110   22.4899 C   0  0  0  0  0  0  0  0  0  0  0  0
    6.7562    2.5076   22.2066 H   0  0  0  0  0  0  0  0  0  0  0  0
    6.6513   -0.0095   19.9150 C   0  0  0  0  0  0  0  0  0  0  0  0
    7.1769    0.0489   18.6143 C   0  0  0  0  0  0  0  0  0  0  0  0
    8.1191   -0.4310   18.3829 H   0  0  0  0  0  0  0  0  0  0  0  0
    6.5737    0.6707   17.5994 N   0  0  0  0  0  0  0  0  0  0  0  0
    5.4103    1.2869   17.8480 C   0  0  0  0  0  0  0  0  0  0  0  0
    4.9274    1.7741   17.0027 H   0  0  0  0  0  0  0  0  0  0  0  0
    4.8116    1.3075   19.1112 C   0  0  0  0  0  0  0  0  0  0  0  0
    3.8787    1.8392   19.2605 H   0  0  0  0  0  0  0  0  0  0  0  0
    5.4399    0.6495   20.1659 C   0  0  0  0  0  0  0  0  0  0  0  0
    4.9885    0.6372   21.1610 H   0  0  0  0  0  0  0  0  0  0  0  0
  1  2  1  0
  2  3  2  3
  3  4  1  0
  4  5  1  0
  5  6  2  0
  6  7  1  0
  6  8  1  0
  8  9  1  0
  8 10  2  0
 10 11  1  0
 10 12  1  0
 12 13  1  0
 12 14  2  0
 14 15  1  0
  3 16  1  0
 16 17  2  0
 17 18  1  0
 17 19  1  0
 19 20  2  0
 20 21  1  0
 20 22  1  0
 22 23  1  0
 22 24  2  0
 24 25  1  0
 14  5  1  0
 24 16  1  0
M  END
>  <cnnaffinity>  (1) 
-5.21981

>  <filename>  (1) 
N=C(Sc1cc(Cl)cc(Cl)c1)c1cccnc1

$$$$
