
     RDKit          3D

 28 29  0  0  0  0  0  0  0  0999 V2000
    5.8544   -1.5261   21.7370 H   0  0  0  0  0  0  0  0  0  0  0  0
    6.8559   -1.5357   21.8937 N   0  0  0  0  0  0  0  0  0  0  0  0
    7.4043   -0.7702   21.0414 C   0  0  0  0  0  0  0  0  0  0  0  0
    6.7091   -0.0187   19.9648 C   0  0  0  0  0  0  0  0  0  0  0  0
    7.2558   -0.0230   18.6764 C   0  0  0  0  0  0  0  0  0  0  0  0
    8.1812   -0.5526   18.4508 H   0  0  0  0  0  0  0  0  0  0  0  0
    6.6972    0.5874   17.6258 N   0  0  0  0  0  0  0  0  0  0  0  0
    5.5578    1.2640   17.8296 C   0  0  0  0  0  0  0  0  0  0  0  0
    5.1316    1.7618   16.9582 H   0  0  0  0  0  0  0  0  0  0  0  0
    4.9293    1.3410   19.0763 C   0  0  0  0  0  0  0  0  0  0  0  0
    4.0103    1.9120   19.1724 H   0  0  0  0  0  0  0  0  0  0  0  0
    5.5031    0.6791   20.1622 C   0  0  0  0  0  0  0  0  0  0  0  0
    5.0335    0.7372   21.1487 H   0  0  0  0  0  0  0  0  0  0  0  0
    8.7686   -0.5971   21.0652 N   0  0  0  0  0  0  0  0  0  0  0  0
    9.0038    0.3073   20.6909 H   0  0  0  0  0  0  0  0  0  0  0  0
    9.5058   -0.9461   22.2885 C   0  0  0  0  0  0  0  0  0  0  0  0
    9.3556   -2.0188   22.4689 H   0  0  0  0  0  0  0  0  0  0  0  0
    9.1060   -0.4266   23.1729 H   0  0  0  0  0  0  0  0  0  0  0  0
   11.0041   -0.6802   22.1987 C   0  0  0  0  0  0  0  0  0  0  0  0
   11.6581    0.3144   22.9435 C   0  0  0  0  0  0  0  0  0  0  0  0
   11.0946    1.0348   23.5255 H   0  0  0  0  0  0  0  0  0  0  0  0
   13.0580    0.3692   22.9469 C   0  0  0  0  0  0  0  0  0  0  0  0
   13.5726    1.1333   23.5293 H   0  0  0  0  0  0  0  0  0  0  0  0
   13.8414   -0.4886   22.2805 N   0  0  0  0  0  0  0  0  0  0  0  0
   13.2262   -1.4342   21.5565 C   0  0  0  0  0  0  0  0  0  0  0  0
   13.8788   -2.1440   21.0417 H   0  0  0  0  0  0  0  0  0  0  0  0
   11.8347   -1.5371   21.4645 C   0  0  0  0  0  0  0  0  0  0  0  0
   11.3821   -2.2785   20.8286 H   0  0  0  0  0  0  0  0  0  0  0  0
  1  2  1  0
  2  3  2  3
  3  4  1  0
  4  5  2  0
  5  6  1  0
  5  7  1  0
  7  8  2  0
  8  9  1  0
  8 10  1  0
 10 11  1  0
 10 12  2  0
 12 13  1  0
  3 14  1  0
 14 15  1  0
 14 16  1  0
 16 17  1  0
 16 18  1  0
 16 19  1  0
 19 20  2  0
 20 21  1  0
 20 22  1  0
 22 23  1  0
 22 24  2  0
 24 25  1  0
 25 26  1  0
 25 27  2  0
 27 28  1  0
 12  4  1  0
 27 19  1  0
M  END
>  <cnnaffinity>  (1) 
-4.75243

>  <filename>  (1) 
N=C(NCc1ccncc1)c1cccnc1

$$$$
