
     RDKit          3D

 31 33  0  0  0  0  0  0  0  0999 V2000
    8.5199    0.1899   24.5529 H   0  0  0  0  0  0  0  0  0  0  0  0
    8.8033   -0.7671   24.3344 N   0  0  0  0  0  0  0  0  0  0  0  0
    8.4079   -0.9526   23.1420 C   0  0  0  0  0  0  0  0  0  0  0  0
    8.6107   -2.4865   22.3105 S   0  0  0  0  0  0  0  0  0  0  0  0
    7.6978   -1.9121   20.9629 C   0  0  0  0  0  0  0  0  0  0  0  0
    7.3574   -2.5942   20.2000 H   0  0  0  0  0  0  0  0  0  0  0  0
    7.3448   -0.6238   21.0581 C   0  0  0  0  0  0  0  0  0  0  0  0
    6.6427    0.1052   19.9753 C   0  0  0  0  0  0  0  0  0  0  0  0
    7.1592    0.0918   18.6614 C   0  0  0  0  0  0  0  0  0  0  0  0
    8.1072   -0.4024   18.4381 H   0  0  0  0  0  0  0  0  0  0  0  0
    6.5696    0.6891   17.6164 N   0  0  0  0  0  0  0  0  0  0  0  0
    5.4018    1.3132   17.8388 C   0  0  0  0  0  0  0  0  0  0  0  0
    4.9319    1.7864   16.9749 H   0  0  0  0  0  0  0  0  0  0  0  0
    4.7868    1.3624   19.0946 C   0  0  0  0  0  0  0  0  0  0  0  0
    3.8297    1.8580   19.2029 H   0  0  0  0  0  0  0  0  0  0  0  0
    5.4175    0.7527   20.1810 C   0  0  0  0  0  0  0  0  0  0  0  0
    4.9817    0.7549   21.1843 H   0  0  0  0  0  0  0  0  0  0  0  0
    7.7102   -0.0605   22.2963 N   0  0  0  0  0  0  0  0  0  0  0  0
    7.4377    1.2471   22.7224 N   0  0  0  0  0  0  0  0  0  0  0  0
    7.4529    1.9102   21.9534 H   0  0  0  0  0  0  0  0  0  0  0  0
    6.3999    1.4934   23.6559 C   0  0  0  0  0  0  0  0  0  0  0  0
    5.6572    0.4841   24.2856 C   0  0  0  0  0  0  0  0  0  0  0  0
    5.8729   -0.5566   24.0565 H   0  0  0  0  0  0  0  0  0  0  0  0
    4.6878    0.8019   25.2414 C   0  0  0  0  0  0  0  0  0  0  0  0
    4.0964    0.0258   25.7135 H   0  0  0  0  0  0  0  0  0  0  0  0
    4.5019    2.1313   25.6191 C   0  0  0  0  0  0  0  0  0  0  0  0
    3.3708    2.5271   26.8825 Cl  0  0  0  0  0  0  0  0  0  0  0  0
    5.2475    3.1439   25.0166 C   0  0  0  0  0  0  0  0  0  0  0  0
    5.1207    4.1684   25.3412 H   0  0  0  0  0  0  0  0  0  0  0  0
    6.1702    2.8270   24.0156 C   0  0  0  0  0  0  0  0  0  0  0  0
    6.7443    3.6059   23.5222 H   0  0  0  0  0  0  0  0  0  0  0  0
  1  2  1  0
  2  3  2  3
  3  4  1  0
  4  5  1  0
  5  6  1  0
  5  7  2  0
  7  8  1  0
  8  9  2  0
  9 10  1  0
  9 11  1  0
 11 12  2  0
 12 13  1  0
 12 14  1  0
 14 15  1  0
 14 16  2  0
 16 17  1  0
  7 18  1  0
 18 19  1  0
 19 20  1  0
 19 21  1  0
 21 22  2  0
 22 23  1  0
 22 24  1  0
 24 25  1  0
 24 26  2  0
 26 27  1  0
 26 28  1  0
 28 29  1  0
 28 30  2  0
 30 31  1  0
 18  3  1  0
 30 21  1  0
 16  8  1  0
M  END
>  <cnnaffinity>  (1) 
-4.97827

>  <filename>  (1) 
N=c1scc(-c2cccnc2)n1Nc1ccc(Cl)cc1

$$$$
