
     RDKit          3D

 33 34  0  0  0  0  0  0  0  0999 V2000
    5.0394    1.8154   17.0686 H   0  0  0  0  0  0  0  0  0  0  0  0
    5.4696    1.2514   17.8921 C   0  0  0  0  0  0  0  0  0  0  0  0
    6.6420    0.6536   17.6305 N   0  0  0  0  0  0  0  0  0  0  0  0
    7.2167   -0.0008   18.6435 C   0  0  0  0  0  0  0  0  0  0  0  0
    8.1806   -0.4649   18.4360 H   0  0  0  0  0  0  0  0  0  0  0  0
    6.6681   -0.1279   19.9251 C   0  0  0  0  0  0  0  0  0  0  0  0
    7.5376   -0.7428   21.0069 C   0  0  2  0  0  0  0  0  0  0  0  0
    8.3576   -1.2694   20.4888 H   0  0  0  0  0  0  0  0  0  0  0  0
    6.8037   -1.9034   21.8059 C   0  0  0  0  0  0  0  0  0  0  0  0
    6.6495   -1.9299   23.0203 O   0  0  0  0  0  0  0  0  0  0  0  0
    6.3828   -2.9347   21.0206 N   0  0  0  0  0  0  0  0  0  0  0  0
    6.5188   -2.9433   20.0282 H   0  0  0  0  0  0  0  0  0  0  0  0
    5.9685   -4.2046   21.3855 C   0  0  0  0  0  0  0  0  0  0  0  0
    5.7980   -4.9969   20.4811 O   0  0  0  0  0  0  0  0  0  0  0  0
    5.8008   -4.3624   22.7062 N   0  0  0  0  0  0  0  0  0  0  0  0
    5.9799   -3.5118   23.2245 H   0  0  0  0  0  0  0  0  0  0  0  0
    5.4111   -5.5022   23.3674 C   0  0  0  0  0  0  0  0  0  0  0  0
    4.8695   -5.3618   24.6453 C   0  0  0  0  0  0  0  0  0  0  0  0
    4.7761   -4.3859   25.1022 H   0  0  0  0  0  0  0  0  0  0  0  0
    4.4210   -6.5064   25.2963 C   0  0  0  0  0  0  0  0  0  0  0  0
    3.9397   -6.4359   26.2723 H   0  0  0  0  0  0  0  0  0  0  0  0
    4.5386   -7.7409   24.7919 N   0  0  0  0  0  0  0  0  0  0  0  0
    5.1164   -7.8414   23.5899 C   0  0  0  0  0  0  0  0  0  0  0  0
    5.2952   -8.8402   23.2153 H   0  0  0  0  0  0  0  0  0  0  0  0
    5.5461   -6.7721   22.8198 C   0  0  0  0  0  0  0  0  0  0  0  0
    5.9476   -6.9432   21.8348 H   0  0  0  0  0  0  0  0  0  0  0  0
    8.1466    0.4067   21.7000 N   0  0  0  0  0  0  0  0  0  0  0  0
    8.6697    0.1288   22.5304 H   0  0  0  0  0  0  0  0  0  0  0  0
    7.3960    1.0145   22.0290 H   0  0  0  0  0  0  0  0  0  0  0  0
    5.4127    0.4531   20.1663 C   0  0  0  0  0  0  0  0  0  0  0  0
    4.9325    0.3608   21.1456 H   0  0  0  0  0  0  0  0  0  0  0  0
    4.8114    1.1739   19.1276 C   0  0  0  0  0  0  0  0  0  0  0  0
    3.8697    1.6991   19.2659 H   0  0  0  0  0  0  0  0  0  0  0  0
  1  2  1  0
  2  3  2  0
  3  4  1  0
  4  5  1  0
  4  6  2  0
  6  7  1  0
  7  8  1  6
  7  9  1  0
  9 10  2  0
  9 11  1  0
 11 12  1  0
 11 13  1  0
 13 14  2  0
 13 15  1  0
 15 16  1  0
 15 17  1  0
 17 18  2  0
 18 19  1  0
 18 20  1  0
 20 21  1  0
 20 22  2  0
 22 23  1  0
 23 24  1  0
 23 25  2  0
 25 26  1  0
  7 27  1  0
 27 28  1  0
 27 29  1  0
  6 30  1  0
 30 31  1  0
 30 32  2  0
 32 33  1  0
 32  2  1  0
 25 17  1  0
M  END
>  <cnnaffinity>  (1) 
-4.36992

>  <filename>  (1) 
N[C@@H](C(=O)NC(=O)Nc1ccncc1)c1cccnc1

$$$$
