
     RDKit          3D

 33 34  0  0  0  0  0  0  0  0999 V2000
    4.9304    1.7998   16.9792 H   0  0  0  0  0  0  0  0  0  0  0  0
    5.4087    1.2994   17.8194 C   0  0  0  0  0  0  0  0  0  0  0  0
    6.5747    0.6796   17.5631 N   0  0  0  0  0  0  0  0  0  0  0  0
    7.2084    0.0811   18.5840 C   0  0  0  0  0  0  0  0  0  0  0  0
    8.1455   -0.4195   18.3329 H   0  0  0  0  0  0  0  0  0  0  0  0
    6.7048    0.0420   19.9067 C   0  0  0  0  0  0  0  0  0  0  0  0
    7.3359   -0.6174   21.0057 N   0  0  0  0  0  0  0  0  0  0  0  0
    8.3449   -0.6838   21.0603 H   0  0  0  0  0  0  0  0  0  0  0  0
    6.7096   -1.5594   21.8085 C   0  0  0  0  0  0  0  0  0  0  0  0
    5.6039   -1.9955   21.5484 O   0  0  0  0  0  0  0  0  0  0  0  0
    7.6042   -2.0232   23.0471 C   0  0  1  0  0  0  0  0  0  0  0  0
    7.7388   -1.1051   23.6320 H   0  0  0  0  0  0  0  0  0  0  0  0
    6.8749   -3.0731   23.8756 C   0  0  0  0  0  0  0  0  0  0  0  0
    6.4765   -4.2375   23.2069 C   0  0  0  0  0  0  0  0  0  0  0  0
    6.6338   -4.2908   22.1355 H   0  0  0  0  0  0  0  0  0  0  0  0
    5.8429   -5.2858   23.8709 C   0  0  0  0  0  0  0  0  0  0  0  0
    5.5507   -6.1709   23.3141 H   0  0  0  0  0  0  0  0  0  0  0  0
    5.5789   -5.1805   25.2362 C   0  0  0  0  0  0  0  0  0  0  0  0
    5.0780   -5.9884   25.7605 H   0  0  0  0  0  0  0  0  0  0  0  0
    5.9612   -4.0303   25.9276 C   0  0  0  0  0  0  0  0  0  0  0  0
    5.7548   -3.9512   26.9926 H   0  0  0  0  0  0  0  0  0  0  0  0
    6.6127   -2.9763   25.2643 C   0  0  0  0  0  0  0  0  0  0  0  0
    7.0227   -1.7510   26.0637 C   0  0  0  0  0  0  0  0  0  0  0  0
    8.3545   -1.5349   25.9954 F   0  0  0  0  0  0  0  0  0  0  0  0
    6.4243   -0.6302   25.6049 F   0  0  0  0  0  0  0  0  0  0  0  0
    6.7158   -1.8382   27.3696 F   0  0  0  0  0  0  0  0  0  0  0  0
    8.9898   -2.4563   22.6591 N   0  0  0  0  0  0  0  0  0  0  0  0
    8.9615   -3.3207   22.1157 H   0  0  0  0  0  0  0  0  0  0  0  0
    9.5087   -2.6883   23.5070 H   0  0  0  0  0  0  0  0  0  0  0  0
    5.4711    0.6650   20.1376 C   0  0  0  0  0  0  0  0  0  0  0  0
    5.0381    0.6082   21.1323 H   0  0  0  0  0  0  0  0  0  0  0  0
    4.8190    1.3165   19.0864 C   0  0  0  0  0  0  0  0  0  0  0  0
    3.8765    1.8360   19.2436 H   0  0  0  0  0  0  0  0  0  0  0  0
  1  2  1  0
  2  3  2  0
  3  4  1  0
  4  5  1  0
  4  6  2  0
  6  7  1  0
  7  8  1  0
  7  9  1  0
  9 10  2  0
  9 11  1  0
 11 12  1  1
 11 13  1  0
 13 14  2  0
 14 15  1  0
 14 16  1  0
 16 17  1  0
 16 18  2  0
 18 19  1  0
 18 20  1  0
 20 21  1  0
 20 22  2  0
 22 23  1  0
 23 24  1  0
 23 25  1  0
 23 26  1  0
 11 27  1  0
 27 28  1  0
 27 29  1  0
  6 30  1  0
 30 31  1  0
 30 32  2  0
 32 33  1  0
 32  2  1  0
 22 13  1  0
M  END
>  <cnnaffinity>  (1) 
-4.84217

>  <filename>  (1) 
N[C@@H](C(=O)Nc1cccnc1)c1ccccc1C(F)(F)F

$$$$
