
     RDKit          3D

 28 29  0  0  0  0  0  0  0  0999 V2000
    4.9077    1.7578   16.9260 H   0  0  0  0  0  0  0  0  0  0  0  0
    5.3979    1.2816   17.7727 C   0  0  0  0  0  0  0  0  0  0  0  0
    6.5462    0.6409   17.5054 N   0  0  0  0  0  0  0  0  0  0  0  0
    7.1643    0.0375   18.5341 C   0  0  0  0  0  0  0  0  0  0  0  0
    8.0969   -0.4736   18.2898 H   0  0  0  0  0  0  0  0  0  0  0  0
    6.6962    0.0732   19.8560 C   0  0  0  0  0  0  0  0  0  0  0  0
    7.3514   -0.6952   20.9738 C   0  0  2  0  0  0  0  0  0  0  0  0
    6.7866   -0.4729   21.8965 H   0  0  0  0  0  0  0  0  0  0  0  0
    8.8202   -0.2515   21.3630 C   0  0  0  0  0  0  0  0  0  0  0  0
    9.3570    0.7241   20.8853 O   0  0  0  0  0  0  0  0  0  0  0  0
    9.4801   -1.1623   22.3690 C   0  0  0  0  0  0  0  0  0  0  0  0
    8.7322   -1.7532   23.4154 C   0  0  0  0  0  0  0  0  0  0  0  0
    7.7060   -1.4520   23.6053 H   0  0  0  0  0  0  0  0  0  0  0  0
    9.2421   -2.7989   24.1823 C   0  0  0  0  0  0  0  0  0  0  0  0
    8.6485   -3.2542   24.9667 H   0  0  0  0  0  0  0  0  0  0  0  0
   10.5125   -3.2975   23.8969 C   0  0  0  0  0  0  0  0  0  0  0  0
   11.1548   -4.6434   24.7880 Cl  0  0  0  0  0  0  0  0  0  0  0  0
   11.2831   -2.7165   22.8952 C   0  0  0  0  0  0  0  0  0  0  0  0
   12.2865   -3.0572   22.6645 H   0  0  0  0  0  0  0  0  0  0  0  0
   10.7916   -1.6258   22.1838 C   0  0  0  0  0  0  0  0  0  0  0  0
   11.8668   -0.9162   21.0343 Cl  0  0  0  0  0  0  0  0  0  0  0  0
    7.1942   -2.1485   20.7072 N   0  0  0  0  0  0  0  0  0  0  0  0
    6.2175   -2.3176   20.4831 H   0  0  0  0  0  0  0  0  0  0  0  0
    7.6962   -2.3995   19.8553 H   0  0  0  0  0  0  0  0  0  0  0  0
    5.4837    0.7263   20.1033 C   0  0  0  0  0  0  0  0  0  0  0  0
    5.0724    0.7352   21.1149 H   0  0  0  0  0  0  0  0  0  0  0  0
    4.8205    1.3473   19.0465 C   0  0  0  0  0  0  0  0  0  0  0  0
    3.8770    1.8626   19.2003 H   0  0  0  0  0  0  0  0  0  0  0  0
  1  2  1  0
  2  3  2  0
  3  4  1  0
  4  5  1  0
  4  6  2  0
  6  7  1  0
  7  8  1  1
  7  9  1  0
  9 10  2  0
  9 11  1  0
 11 12  2  0
 12 13  1  0
 12 14  1  0
 14 15  1  0
 14 16  2  0
 16 17  1  0
 16 18  1  0
 18 19  1  0
 18 20  2  0
 20 21  1  0
  7 22  1  0
 22 23  1  0
 22 24  1  0
  6 25  1  0
 25 26  1  0
 25 27  2  0
 27 28  1  0
 27  2  1  0
 20 11  1  0
M  END
>  <cnnaffinity>  (1) 
-5.09129

>  <filename>  (1) 
N[C@@H](C(=O)c1ccc(Cl)cc1Cl)c1cccnc1

$$$$
