
     RDKit          3D

 34 36  0  0  0  0  0  0  0  0999 V2000
    4.9315    1.7885   16.9901 H   0  0  0  0  0  0  0  0  0  0  0  0
    5.3968    1.2935   17.8394 C   0  0  0  0  0  0  0  0  0  0  0  0
    6.5528    0.6660   17.5858 N   0  0  0  0  0  0  0  0  0  0  0  0
    7.1490    0.0423   18.6058 C   0  0  0  0  0  0  0  0  0  0  0  0
    8.1129   -0.4166   18.3876 H   0  0  0  0  0  0  0  0  0  0  0  0
    6.6192   -0.0128   19.9059 C   0  0  0  0  0  0  0  0  0  0  0  0
    7.3173   -0.7367   20.9818 C   0  0  0  0  0  0  0  0  0  0  0  0
    6.5873   -1.5088   21.7641 N   0  0  0  0  0  0  0  0  0  0  0  0
    7.1764   -2.2035   22.8038 C   0  0  0  0  0  0  0  0  0  0  0  0
    6.2839   -3.0444   23.6771 C   0  0  0  0  0  0  0  0  0  0  0  0
    6.6209   -3.3080   25.0210 C   0  0  0  0  0  0  0  0  0  0  0  0
    7.5162   -2.8752   25.4581 H   0  0  0  0  0  0  0  0  0  0  0  0
    5.7975   -4.1094   25.8170 C   0  0  0  0  0  0  0  0  0  0  0  0
    6.0776   -4.3109   26.8482 H   0  0  0  0  0  0  0  0  0  0  0  0
    4.6214   -4.6518   25.2968 C   0  0  0  0  0  0  0  0  0  0  0  0
    4.0213   -5.3041   25.9306 H   0  0  0  0  0  0  0  0  0  0  0  0
    4.2436   -4.3873   23.9649 C   0  0  0  0  0  0  0  0  0  0  0  0
    2.9869   -4.9723   23.3561 C   0  0  0  0  0  0  0  0  0  0  0  0
    2.8191   -5.1372   22.1608 O   0  0  0  0  0  0  0  0  0  0  0  0
    1.9947   -5.3557   24.1975 N   0  0  0  0  0  0  0  0  0  0  0  0
    1.9365   -5.0770   25.1587 H   0  0  0  0  0  0  0  0  0  0  0  0
    1.2092   -5.7147   23.6840 H   0  0  0  0  0  0  0  0  0  0  0  0
    5.0922   -3.5935   23.1691 C   0  0  0  0  0  0  0  0  0  0  0  0
    4.8348   -3.3930   22.1320 H   0  0  0  0  0  0  0  0  0  0  0  0
    8.5302   -2.1308   23.0260 C   0  0  0  0  0  0  0  0  0  0  0  0
    9.0409   -2.6876   23.8017 H   0  0  0  0  0  0  0  0  0  0  0  0
    9.3016   -1.3329   22.2176 N   0  0  0  0  0  0  0  0  0  0  0  0
   10.2998   -1.1718   22.3021 H   0  0  0  0  0  0  0  0  0  0  0  0
    8.8072   -0.5642   21.1748 C   0  0  0  0  0  0  0  0  0  0  0  0
    9.6072    0.1299   20.5683 O   0  0  0  0  0  0  0  0  0  0  0  0
    5.4061    0.6451   20.1546 C   0  0  0  0  0  0  0  0  0  0  0  0
    4.9725    0.6344   21.1571 H   0  0  0  0  0  0  0  0  0  0  0  0
    4.7946    1.3202   19.1022 C   0  0  0  0  0  0  0  0  0  0  0  0
    3.8663    1.8584   19.2435 H   0  0  0  0  0  0  0  0  0  0  0  0
  1  2  1  0
  2  3  2  0
  3  4  1  0
  4  5  1  0
  4  6  2  0
  6  7  1  0
  7  8  2  0
  8  9  1  0
  9 10  1  0
 10 11  2  0
 11 12  1  0
 11 13  1  0
 13 14  1  0
 13 15  2  0
 15 16  1  0
 15 17  1  0
 17 18  1  0
 18 19  2  0
 18 20  1  0
 20 21  1  0
 20 22  1  0
 17 23  2  0
 23 24  1  0
  9 25  2  0
 25 26  1  0
 25 27  1  0
 27 28  1  0
 27 29  1  0
 29 30  2  0
  6 31  1  0
 31 32  1  0
 31 33  2  0
 33 34  1  0
 33  2  1  0
 29  7  1  0
 23 10  1  0
M  END
>  <cnnaffinity>  (1) 
-5.43776

>  <filename>  (1) 
NC(=O)c1cccc(-c2c[nH]c(=O)c(-c3cccnc3)n2)c1

$$$$
