
     RDKit          3D

 34 36  0  0  0  0  0  0  0  0999 V2000
    4.9664    1.8508   16.9595 H   0  0  0  0  0  0  0  0  0  0  0  0
    5.3970    1.3326   17.8139 C   0  0  0  0  0  0  0  0  0  0  0  0
    6.5644    0.7096   17.5897 N   0  0  0  0  0  0  0  0  0  0  0  0
    7.1232    0.0613   18.6199 C   0  0  0  0  0  0  0  0  0  0  0  0
    8.0891   -0.4077   18.4258 H   0  0  0  0  0  0  0  0  0  0  0  0
    6.5514   -0.0275   19.9098 C   0  0  0  0  0  0  0  0  0  0  0  0
    7.2022   -0.7573   21.0255 C   0  0  0  0  0  0  0  0  0  0  0  0
    7.5650   -2.1251   21.1572 C   0  0  0  0  0  0  0  0  0  0  0  0
    7.3433   -2.9214   20.4641 H   0  0  0  0  0  0  0  0  0  0  0  0
    8.1893   -2.3944   22.2921 N   0  0  0  0  0  0  0  0  0  0  0  0
    8.2448   -1.1915   22.9133 N   0  0  0  0  0  0  0  0  0  0  0  0
    8.5477   -1.0941   23.8679 H   0  0  0  0  0  0  0  0  0  0  0  0
    7.6100   -0.2108   22.2313 C   0  0  0  0  0  0  0  0  0  0  0  0
    7.3803    1.0619   22.7322 N   0  0  0  0  0  0  0  0  0  0  0  0
    6.4024    1.3357   22.5900 H   0  0  0  0  0  0  0  0  0  0  0  0
    7.7801    1.5175   23.9890 C   0  0  0  0  0  0  0  0  0  0  0  0
    9.1180    1.4673   24.4024 C   0  0  0  0  0  0  0  0  0  0  0  0
    9.8526    1.0810   23.7044 H   0  0  0  0  0  0  0  0  0  0  0  0
    9.4904    1.9025   25.6770 C   0  0  0  0  0  0  0  0  0  0  0  0
   10.5293    1.8458   25.9940 H   0  0  0  0  0  0  0  0  0  0  0  0
    8.5006    2.3835   26.5391 C   0  0  0  0  0  0  0  0  0  0  0  0
    8.7252    2.7318   27.5339 H   0  0  0  0  0  0  0  0  0  0  0  0
    7.1767    2.4514   26.1302 C   0  0  0  0  0  0  0  0  0  0  0  0
    6.4352    2.7943   26.8484 H   0  0  0  0  0  0  0  0  0  0  0  0
    6.7905    2.0779   24.8269 C   0  0  0  0  0  0  0  0  0  0  0  0
    5.3849    2.2332   24.3583 C   0  0  0  0  0  0  0  0  0  0  0  0
    4.8795    1.7071   23.3638 O   0  0  0  0  0  0  0  0  0  0  0  0
    4.5543    3.0158   25.1063 N   0  0  0  0  0  0  0  0  0  0  0  0
    4.9442    3.8497   25.5089 H   0  0  0  0  0  0  0  0  0  0  0  0
    3.6903    3.1087   24.5967 H   0  0  0  0  0  0  0  0  0  0  0  0
    5.3434    0.6565   20.1206 C   0  0  0  0  0  0  0  0  0  0  0  0
    4.8802    0.6561   21.1101 H   0  0  0  0  0  0  0  0  0  0  0  0
    4.7535    1.3384   19.0542 C   0  0  0  0  0  0  0  0  0  0  0  0
    3.8389    1.9031   19.1931 H   0  0  0  0  0  0  0  0  0  0  0  0
  1  2  1  0
  2  3  2  0
  3  4  1  0
  4  5  1  0
  4  6  2  0
  6  7  1  0
  7  8  1  0
  8  9  1  0
  8 10  2  0
 10 11  1  0
 11 12  1  0
 11 13  1  0
 13 14  1  0
 14 15  1  0
 14 16  1  0
 16 17  2  0
 17 18  1  0
 17 19  1  0
 19 20  1  0
 19 21  2  0
 21 22  1  0
 21 23  1  0
 23 24  1  0
 23 25  2  0
 25 26  1  0
 26 27  2  0
 26 28  1  0
 28 29  1  0
 28 30  1  0
  6 31  1  0
 31 32  1  0
 31 33  2  0
 33 34  1  0
 33  2  1  0
 13  7  2  0
 25 16  1  0
M  END
>  <cnnaffinity>  (1) 
-4.7715

>  <filename>  (1) 
NC(=O)c1ccccc1Nc1[nH]ncc1-c1cccnc1

$$$$
