
     RDKit          3D

 35 37  0  0  0  0  0  0  0  0999 V2000
    4.9037    1.8367   16.9482 H   0  0  0  0  0  0  0  0  0  0  0  0
    5.3859    1.3379   17.7860 C   0  0  0  0  0  0  0  0  0  0  0  0
    6.5523    0.7305   17.5147 N   0  0  0  0  0  0  0  0  0  0  0  0
    7.1763    0.1114   18.5246 C   0  0  0  0  0  0  0  0  0  0  0  0
    8.1181   -0.3744   18.2658 H   0  0  0  0  0  0  0  0  0  0  0  0
    6.6723    0.0257   19.8450 C   0  0  0  0  0  0  0  0  0  0  0  0
    7.4084   -0.6874   20.9412 C   0  0  0  0  0  0  0  0  0  0  0  0
    8.7082   -0.4102   21.2056 C   0  0  0  0  0  0  0  0  0  0  0  0
    9.2806    0.3172   20.6280 H   0  0  0  0  0  0  0  0  0  0  0  0
    9.4284   -1.0397   22.2127 N   0  0  0  0  0  0  0  0  0  0  0  0
   10.8261   -0.7299   22.3643 C   0  0  0  0  0  0  0  0  0  0  0  0
   11.7863   -1.7348   22.2165 C   0  0  0  0  0  0  0  0  0  0  0  0
   11.4661   -2.7629   22.1137 H   0  0  0  0  0  0  0  0  0  0  0  0
   13.1434   -1.4063   22.2826 C   0  0  0  0  0  0  0  0  0  0  0  0
   13.9004   -2.1717   22.1157 H   0  0  0  0  0  0  0  0  0  0  0  0
   13.5286   -0.1072   22.6179 C   0  0  0  0  0  0  0  0  0  0  0  0
   14.5777    0.0895   22.8395 H   0  0  0  0  0  0  0  0  0  0  0  0
   12.5620    0.9111   22.7578 C   0  0  0  0  0  0  0  0  0  0  0  0
   12.9067    2.3453   23.0794 C   0  0  0  0  0  0  0  0  0  0  0  0
   12.1544    3.1274   23.6337 O   0  0  0  0  0  0  0  0  0  0  0  0
   14.1304    2.7686   22.6991 N   0  0  0  0  0  0  0  0  0  0  0  0
   14.8017    2.1589   22.2718 H   0  0  0  0  0  0  0  0  0  0  0  0
   14.3684    3.6936   23.0096 H   0  0  0  0  0  0  0  0  0  0  0  0
   11.2042    0.5882   22.6091 C   0  0  0  0  0  0  0  0  0  0  0  0
   10.4358    1.3571   22.6882 H   0  0  0  0  0  0  0  0  0  0  0  0
    8.8356   -1.9981   23.0507 C   0  0  0  0  0  0  0  0  0  0  0  0
    9.4058   -2.6207   23.9183 O   0  0  0  0  0  0  0  0  0  0  0  0
    7.5093   -2.1986   22.8226 N   0  0  0  0  0  0  0  0  0  0  0  0
    7.0954   -2.9365   23.3617 H   0  0  0  0  0  0  0  0  0  0  0  0
    6.7450   -1.7454   21.7646 C   0  0  0  0  0  0  0  0  0  0  0  0
    5.6618   -2.2588   21.5909 O   0  0  0  0  0  0  0  0  0  0  0  0
    5.4415    0.6606   20.0894 C   0  0  0  0  0  0  0  0  0  0  0  0
    5.0105    0.6125   21.0884 H   0  0  0  0  0  0  0  0  0  0  0  0
    4.7935    1.3361   19.0503 C   0  0  0  0  0  0  0  0  0  0  0  0
    3.8505    1.8547   19.2002 H   0  0  0  0  0  0  0  0  0  0  0  0
  1  2  1  0
  2  3  2  0
  3  4  1  0
  4  5  1  0
  4  6  2  0
  6  7  1  0
  7  8  2  0
  8  9  1  0
  8 10  1  0
 10 11  1  0
 11 12  2  0
 12 13  1  0
 12 14  1  0
 14 15  1  0
 14 16  2  0
 16 17  1  0
 16 18  1  0
 18 19  1  0
 19 20  2  0
 19 21  1  0
 21 22  1  0
 21 23  1  0
 18 24  2  0
 24 25  1  0
 10 26  1  0
 26 27  2  0
 26 28  1  0
 28 29  1  0
 28 30  1  0
 30 31  2  0
  6 32  1  0
 32 33  1  0
 32 34  2  0
 34 35  1  0
 34  2  1  0
 30  7  1  0
 24 11  1  0
M  END
>  <cnnaffinity>  (1) 
-5.83157

>  <filename>  (1) 
NC(=O)c1cccc(-n2cc(-c3cccnc3)c(=O)[nH]c2=O)c1

$$$$
