
     RDKit          3D

 34 36  0  0  0  0  0  0  0  0999 V2000
    4.9950    1.8598   16.9573 H   0  0  0  0  0  0  0  0  0  0  0  0
    5.3990    1.3457   17.8276 C   0  0  0  0  0  0  0  0  0  0  0  0
    6.5528    0.6845   17.6427 N   0  0  0  0  0  0  0  0  0  0  0  0
    7.0885    0.0556   18.6953 C   0  0  0  0  0  0  0  0  0  0  0  0
    8.0388   -0.4489   18.5376 H   0  0  0  0  0  0  0  0  0  0  0  0
    6.4949    0.0249   19.9788 C   0  0  0  0  0  0  0  0  0  0  0  0
    7.0968   -0.6781   21.0891 N   0  0  0  0  0  0  0  0  0  0  0  0
    7.8278   -0.1943   22.1714 C   0  0  0  0  0  0  0  0  0  0  0  0
    7.5937    1.0884   22.5562 N   0  0  0  0  0  0  0  0  0  0  0  0
    6.6076    1.3001   22.3950 H   0  0  0  0  0  0  0  0  0  0  0  0
    7.9876    1.5865   23.7967 C   0  0  0  0  0  0  0  0  0  0  0  0
    9.2822    1.3867   24.2933 C   0  0  0  0  0  0  0  0  0  0  0  0
    9.9611    0.7706   23.7147 H   0  0  0  0  0  0  0  0  0  0  0  0
    9.6497    1.9431   25.5204 C   0  0  0  0  0  0  0  0  0  0  0  0
   10.6471    1.7774   25.9142 H   0  0  0  0  0  0  0  0  0  0  0  0
    8.7141    2.6812   26.2516 C   0  0  0  0  0  0  0  0  0  0  0  0
    8.9476    3.1496   27.1933 H   0  0  0  0  0  0  0  0  0  0  0  0
    7.4309    2.8601   25.7674 C   0  0  0  0  0  0  0  0  0  0  0  0
    6.7036    3.3878   26.3787 H   0  0  0  0  0  0  0  0  0  0  0  0
    7.0512    2.3608   24.5103 C   0  0  0  0  0  0  0  0  0  0  0  0
    5.7027    2.6302   23.9601 C   0  0  0  0  0  0  0  0  0  0  0  0
    5.1493    2.0045   23.0579 O   0  0  0  0  0  0  0  0  0  0  0  0
    4.9844    3.6384   24.5284 N   0  0  0  0  0  0  0  0  0  0  0  0
    4.1589    3.7957   23.9760 H   0  0  0  0  0  0  0  0  0  0  0  0
    5.4931    4.4497   24.8368 H   0  0  0  0  0  0  0  0  0  0  0  0
    8.5501   -1.0904   22.7586 N   0  0  0  0  0  0  0  0  0  0  0  0
    8.2072   -2.2547   22.0765 N   0  0  0  0  0  0  0  0  0  0  0  0
    8.2787   -3.1499   22.5250 H   0  0  0  0  0  0  0  0  0  0  0  0
    7.1894   -2.0723   21.1832 C   0  0  0  0  0  0  0  0  0  0  0  0
    6.5294   -2.9201   20.6168 O   0  0  0  0  0  0  0  0  0  0  0  0
    5.2815    0.6970   20.1472 C   0  0  0  0  0  0  0  0  0  0  0  0
    4.7943    0.6964   21.1208 H   0  0  0  0  0  0  0  0  0  0  0  0
    4.7289    1.3821   19.0532 C   0  0  0  0  0  0  0  0  0  0  0  0
    3.8144    1.9580   19.1506 H   0  0  0  0  0  0  0  0  0  0  0  0
  1  2  1  0
  2  3  2  0
  3  4  1  0
  4  5  1  0
  4  6  2  0
  6  7  1  0
  7  8  1  0
  8  9  1  0
  9 10  1  0
  9 11  1  0
 11 12  2  0
 12 13  1  0
 12 14  1  0
 14 15  1  0
 14 16  2  0
 16 17  1  0
 16 18  1  0
 18 19  1  0
 18 20  2  0
 20 21  1  0
 21 22  2  0
 21 23  1  0
 23 24  1  0
 23 25  1  0
  8 26  2  0
 26 27  1  0
 27 28  1  0
 27 29  1  0
 29 30  2  0
  6 31  1  0
 31 32  1  0
 31 33  2  0
 33 34  1  0
 33  2  1  0
 29  7  1  0
 20 11  1  0
M  END
>  <cnnaffinity>  (1) 
-4.99779

>  <filename>  (1) 
NC(=O)c1ccccc1Nc1n[nH]c(=O)n1-c1cccnc1

$$$$
