
     RDKit          3D

 38 41  0  0  0  0  0  0  0  0999 V2000
    5.0237    1.7869   16.8524 H   0  0  0  0  0  0  0  0  0  0  0  0
    5.4866    1.3152   17.7170 C   0  0  0  0  0  0  0  0  0  0  0  0
    6.6603    0.7028   17.4977 N   0  0  0  0  0  0  0  0  0  0  0  0
    7.2632    0.1301   18.5454 C   0  0  0  0  0  0  0  0  0  0  0  0
    8.2080   -0.3650   18.3332 H   0  0  0  0  0  0  0  0  0  0  0  0
    6.7323    0.1234   19.8521 C   0  0  0  0  0  0  0  0  0  0  0  0
    7.4023   -0.6184   20.9400 C   0  0  0  0  0  0  0  0  0  0  0  0
    8.5987   -1.1988   20.7486 N   0  0  0  0  0  0  0  0  0  0  0  0
    8.7905   -1.8679   21.9007 N   0  0  0  0  0  0  0  0  0  0  0  0
    9.7586   -2.7407   22.3563 C   0  0  0  0  0  0  0  0  0  0  0  0
   10.6997   -2.7938   21.8397 H   0  0  0  0  0  0  0  0  0  0  0  0
    9.2516   -3.3164   23.4725 C   0  0  0  0  0  0  0  0  0  0  0  0
    9.6106   -4.1105   24.1120 H   0  0  0  0  0  0  0  0  0  0  0  0
    8.0113   -2.7321   23.7495 N   0  0  0  0  0  0  0  0  0  0  0  0
    7.0045   -3.2440   24.5491 N   0  0  0  0  0  0  0  0  0  0  0  0
    6.1874   -3.5506   24.0171 H   0  0  0  0  0  0  0  0  0  0  0  0
    7.2050   -4.0274   25.6785 C   0  0  0  0  0  0  0  0  0  0  0  0
    8.3375   -3.8730   26.4889 C   0  0  0  0  0  0  0  0  0  0  0  0
    9.0528   -3.1109   26.1989 H   0  0  0  0  0  0  0  0  0  0  0  0
    8.5251   -4.6801   27.6104 C   0  0  0  0  0  0  0  0  0  0  0  0
    9.4358   -4.5738   28.1912 H   0  0  0  0  0  0  0  0  0  0  0  0
    7.5646   -5.6372   27.9620 C   0  0  0  0  0  0  0  0  0  0  0  0
    7.7119   -6.2697   28.8355 H   0  0  0  0  0  0  0  0  0  0  0  0
    6.4123   -5.7655   27.1907 C   0  0  0  0  0  0  0  0  0  0  0  0
    5.6733   -6.5100   27.4824 H   0  0  0  0  0  0  0  0  0  0  0  0
    6.1974   -4.9530   26.0556 C   0  0  0  0  0  0  0  0  0  0  0  0
    4.9458   -5.0191   25.2608 C   0  0  0  0  0  0  0  0  0  0  0  0
    4.8160   -4.6167   24.1050 O   0  0  0  0  0  0  0  0  0  0  0  0
    3.8446   -5.5872   25.8365 N   0  0  0  0  0  0  0  0  0  0  0  0
    3.6863   -5.3608   26.8052 H   0  0  0  0  0  0  0  0  0  0  0  0
    3.0712   -5.4131   25.2170 H   0  0  0  0  0  0  0  0  0  0  0  0
    7.7546   -1.7994   22.7643 C   0  0  0  0  0  0  0  0  0  0  0  0
    6.8510   -0.8955   22.2159 C   0  0  0  0  0  0  0  0  0  0  0  0
    5.9934   -0.4398   22.6721 H   0  0  0  0  0  0  0  0  0  0  0  0
    5.5011    0.7715   20.0570 C   0  0  0  0  0  0  0  0  0  0  0  0
    5.0354    0.8013   21.0446 H   0  0  0  0  0  0  0  0  0  0  0  0
    4.8691    1.3730   18.9718 C   0  0  0  0  0  0  0  0  0  0  0  0
    3.9198    1.8892   19.0823 H   0  0  0  0  0  0  0  0  0  0  0  0
  1  2  1  0
  2  3  2  0
  3  4  1  0
  4  5  1  0
  4  6  2  0
  6  7  1  0
  7  8  2  0
  8  9  1  0
  9 10  1  0
 10 11  1  0
 10 12  2  0
 12 13  1  0
 12 14  1  0
 14 15  1  0
 15 16  1  0
 15 17  1  0
 17 18  2  0
 18 19  1  0
 18 20  1  0
 20 21  1  0
 20 22  2  0
 22 23  1  0
 22 24  1  0
 24 25  1  0
 24 26  2  0
 26 27  1  0
 27 28  2  0
 27 29  1  0
 29 30  1  0
 29 31  1  0
 14 32  1  0
 32 33  2  0
 33 34  1  0
  6 35  1  0
 35 36  1  0
 35 37  2  0
 37 38  1  0
 37  2  1  0
 33  7  1  0
 32  9  1  0
 26 17  1  0
M  END
>  <cnnaffinity>  (1) 
-5.60013

>  <filename>  (1) 
NC(=O)c1ccccc1Nn1ccn2nc(-c3cccnc3)cc12

$$$$
