
     RDKit          3D

 36 39  0  0  0  0  0  0  0  0999 V2000
    4.9876    1.8675   16.8848 H   0  0  0  0  0  0  0  0  0  0  0  0
    5.4171    1.3064   17.7143 C   0  0  0  0  0  0  0  0  0  0  0  0
    6.5605    0.6492   17.4659 N   0  0  0  0  0  0  0  0  0  0  0  0
    7.1326   -0.0038   18.4844 C   0  0  0  0  0  0  0  0  0  0  0  0
    8.0644   -0.5185   18.2585 H   0  0  0  0  0  0  0  0  0  0  0  0
    6.6009   -0.0378   19.7877 C   0  0  0  0  0  0  0  0  0  0  0  0
    7.3543   -0.6444   20.8995 C   0  0  0  0  0  0  0  0  0  0  0  0
    8.4901   -1.3264   20.6845 N   0  0  0  0  0  0  0  0  0  0  0  0
    8.9206   -1.5882   21.9359 N   0  0  0  0  0  0  0  0  0  0  0  0
   10.0336   -2.2053   22.4856 C   0  0  0  0  0  0  0  0  0  0  0  0
   10.7783   -2.6771   21.8719 H   0  0  0  0  0  0  0  0  0  0  0  0
    9.8978   -2.0782   23.8306 C   0  0  0  0  0  0  0  0  0  0  0  0
   10.5119   -2.4408   24.6363 H   0  0  0  0  0  0  0  0  0  0  0  0
    8.7260   -1.3776   24.1189 N   0  0  0  0  0  0  0  0  0  0  0  0
    8.2515   -0.9880   25.4010 C   0  0  0  0  0  0  0  0  0  0  0  0
    9.1557   -0.6336   26.4162 C   0  0  0  0  0  0  0  0  0  0  0  0
   10.2291   -0.6627   26.2396 H   0  0  0  0  0  0  0  0  0  0  0  0
    8.6672   -0.2074   27.6538 C   0  0  0  0  0  0  0  0  0  0  0  0
    9.3548   -0.0116   28.4719 H   0  0  0  0  0  0  0  0  0  0  0  0
    7.2952   -0.0781   27.8727 C   0  0  0  0  0  0  0  0  0  0  0  0
    6.9546    0.3198   28.8265 H   0  0  0  0  0  0  0  0  0  0  0  0
    6.3778   -0.4623   26.8809 C   0  0  0  0  0  0  0  0  0  0  0  0
    4.8880   -0.3712   27.1043 C   0  0  0  0  0  0  0  0  0  0  0  0
    4.0559   -0.9964   26.4773 O   0  0  0  0  0  0  0  0  0  0  0  0
    4.4645    0.4709   28.1139 N   0  0  0  0  0  0  0  0  0  0  0  0
    3.4566    0.5221   28.0408 H   0  0  0  0  0  0  0  0  0  0  0  0
    4.9277    1.3662   28.1401 H   0  0  0  0  0  0  0  0  0  0  0  0
    6.8692   -0.9348   25.6498 C   0  0  0  0  0  0  0  0  0  0  0  0
    6.1816   -1.2364   24.8636 H   0  0  0  0  0  0  0  0  0  0  0  0
    8.1255   -1.0934   22.9056 C   0  0  0  0  0  0  0  0  0  0  0  0
    7.0544   -0.4890   22.2729 C   0  0  0  0  0  0  0  0  0  0  0  0
    6.1775   -0.0348   22.6925 H   0  0  0  0  0  0  0  0  0  0  0  0
    5.3808    0.6187   20.0158 C   0  0  0  0  0  0  0  0  0  0  0  0
    4.9149    0.6118   21.0035 H   0  0  0  0  0  0  0  0  0  0  0  0
    4.7854    1.3050   18.9625 C   0  0  0  0  0  0  0  0  0  0  0  0
    3.8701    1.8646   19.1114 H   0  0  0  0  0  0  0  0  0  0  0  0
  1  2  1  0
  2  3  2  0
  3  4  1  0
  4  5  1  0
  4  6  2  0
  6  7  1  0
  7  8  2  0
  8  9  1  0
  9 10  1  0
 10 11  1  0
 10 12  2  0
 12 13  1  0
 12 14  1  0
 14 15  1  0
 15 16  2  0
 16 17  1  0
 16 18  1  0
 18 19  1  0
 18 20  2  0
 20 21  1  0
 20 22  1  0
 22 23  1  0
 23 24  2  0
 23 25  1  0
 25 26  1  0
 25 27  1  0
 22 28  2  0
 28 29  1  0
 14 30  1  0
 30 31  2  0
 31 32  1  0
  6 33  1  0
 33 34  1  0
 33 35  2  0
 35 36  1  0
 35  2  1  0
 31  7  1  0
 30  9  1  0
 28 15  1  0
M  END
>  <cnnaffinity>  (1) 
-5.23683

>  <filename>  (1) 
NC(=O)c1cccc(-n2ccn3nc(-c4cccnc4)cc23)c1

$$$$
