
     RDKit          3D

 35 37  0  0  0  0  0  0  0  0999 V2000
    5.0085    1.7703   16.9913 H   0  0  0  0  0  0  0  0  0  0  0  0
    5.4600    1.2620   17.8426 C   0  0  0  0  0  0  0  0  0  0  0  0
    6.6178    0.6313   17.6057 N   0  0  0  0  0  0  0  0  0  0  0  0
    7.2016    0.0192   18.6381 C   0  0  0  0  0  0  0  0  0  0  0  0
    8.1528   -0.4640   18.4452 H   0  0  0  0  0  0  0  0  0  0  0  0
    6.6594   -0.0274   19.9315 C   0  0  0  0  0  0  0  0  0  0  0  0
    7.4017   -0.7672   20.9776 C   0  0  0  0  0  0  0  0  0  0  0  0
    8.7468   -0.7137   20.9018 N   0  0  0  0  0  0  0  0  0  0  0  0
    9.4963   -1.2871   21.8410 N   0  0  0  0  0  0  0  0  0  0  0  0
    8.9282   -1.9650   22.8417 C   0  0  0  0  0  0  0  0  0  0  0  0
    9.6079   -2.4025   23.5694 H   0  0  0  0  0  0  0  0  0  0  0  0
    7.5212   -2.1092   22.9471 C   0  0  0  0  0  0  0  0  0  0  0  0
    6.8309   -2.7513   23.9857 N   0  0  0  0  0  0  0  0  0  0  0  0
    6.3067   -2.0957   24.5624 H   0  0  0  0  0  0  0  0  0  0  0  0
    7.3162   -3.8234   24.7350 C   0  0  0  0  0  0  0  0  0  0  0  0
    8.0275   -4.8446   24.0963 C   0  0  0  0  0  0  0  0  0  0  0  0
    8.1641   -4.7625   23.0220 H   0  0  0  0  0  0  0  0  0  0  0  0
    8.5740   -5.8981   24.8288 C   0  0  0  0  0  0  0  0  0  0  0  0
    9.1663   -6.6587   24.3197 H   0  0  0  0  0  0  0  0  0  0  0  0
    8.3707   -5.9549   26.2147 C   0  0  0  0  0  0  0  0  0  0  0  0
    8.7842   -6.7849   26.7867 H   0  0  0  0  0  0  0  0  0  0  0  0
    7.6283   -4.9628   26.8520 C   0  0  0  0  0  0  0  0  0  0  0  0
    7.5117   -5.0187   27.9385 H   0  0  0  0  0  0  0  0  0  0  0  0
    7.0771   -3.8854   26.1213 C   0  0  0  0  0  0  0  0  0  0  0  0
    6.3142   -2.7842   26.7664 C   0  0  0  0  0  0  0  0  0  0  0  0
    6.2896   -1.6220   26.3745 O   0  0  0  0  0  0  0  0  0  0  0  0
    5.5809   -3.1177   27.8454 N   0  0  0  0  0  0  0  0  0  0  0  0
    5.1897   -2.3431   28.3454 H   0  0  0  0  0  0  0  0  0  0  0  0
    5.5316   -4.0627   28.1651 H   0  0  0  0  0  0  0  0  0  0  0  0
    6.7500   -1.4981   21.9740 C   0  0  0  0  0  0  0  0  0  0  0  0
    5.6777   -1.6595   21.9587 H   0  0  0  0  0  0  0  0  0  0  0  0
    5.4524    0.6412   20.1712 C   0  0  0  0  0  0  0  0  0  0  0  0
    5.0113    0.6843   21.1699 H   0  0  0  0  0  0  0  0  0  0  0  0
    4.8425    1.2954   19.0984 C   0  0  0  0  0  0  0  0  0  0  0  0
    3.9115    1.8361   19.2185 H   0  0  0  0  0  0  0  0  0  0  0  0
  1  2  1  0
  2  3  2  0
  3  4  1  0
  4  5  1  0
  4  6  2  0
  6  7  1  0
  7  8  2  0
  8  9  1  0
  9 10  2  0
 10 11  1  0
 10 12  1  0
 12 13  1  0
 13 14  1  0
 13 15  1  0
 15 16  2  0
 16 17  1  0
 16 18  1  0
 18 19  1  0
 18 20  2  0
 20 21  1  0
 20 22  1  0
 22 23  1  0
 22 24  2  0
 24 25  1  0
 25 26  2  0
 25 27  1  0
 27 28  1  0
 27 29  1  0
 12 30  2  0
 30 31  1  0
  6 32  1  0
 32 33  1  0
 32 34  2  0
 34 35  1  0
 34  2  1  0
 30  7  1  0
 24 15  1  0
M  END
>  <cnnaffinity>  (1) 
-5.41544

>  <filename>  (1) 
NC(=O)c1ccccc1Nc1cnnc(-c2cccnc2)c1

$$$$
