
     RDKit          3D

 39 42  0  0  0  0  0  0  0  0999 V2000
    4.9110    1.8288   16.9662 H   0  0  0  0  0  0  0  0  0  0  0  0
    5.3890    1.3155   17.7980 C   0  0  0  0  0  0  0  0  0  0  0  0
    6.5459    0.6979   17.5204 N   0  0  0  0  0  0  0  0  0  0  0  0
    7.1692    0.0805   18.5322 C   0  0  0  0  0  0  0  0  0  0  0  0
    8.1128   -0.4055   18.2821 H   0  0  0  0  0  0  0  0  0  0  0  0
    6.6914    0.0248   19.8557 C   0  0  0  0  0  0  0  0  0  0  0  0
    7.4519   -0.6995   20.9564 C   0  0  1  0  0  0  0  0  0  0  0  0
    8.3843   -1.0923   20.5281 H   0  0  0  0  0  0  0  0  0  0  0  0
    7.8425    0.2456   22.1515 C   0  0  0  0  0  0  0  0  0  0  0  0
    7.4523    1.2622   22.0492 H   0  0  0  0  0  0  0  0  0  0  0  0
    8.9295    0.3489   22.2255 H   0  0  0  0  0  0  0  0  0  0  0  0
    7.2583   -0.4400   23.3455 C   0  0  0  0  0  0  0  0  0  0  0  0
    7.2631   -0.2015   24.6435 N   0  0  0  0  0  0  0  0  0  0  0  0
    6.6462   -1.2938   25.1578 N   0  0  0  0  0  0  0  0  0  0  0  0
    6.6037   -1.3791   26.1625 H   0  0  0  0  0  0  0  0  0  0  0  0
    6.2323   -2.1973   24.2148 C   0  0  0  0  0  0  0  0  0  0  0  0
    5.6183   -3.5159   24.4633 C   0  0  0  0  0  0  0  0  0  0  0  0
    4.7060   -4.0473   23.5304 C   0  0  0  0  0  0  0  0  0  0  0  0
    4.3940   -3.4400   22.6867 H   0  0  0  0  0  0  0  0  0  0  0  0
    4.1973   -5.3331   23.6846 C   0  0  0  0  0  0  0  0  0  0  0  0
    3.5190   -5.7548   22.9467 H   0  0  0  0  0  0  0  0  0  0  0  0
    4.5726   -6.1171   24.7897 C   0  0  0  0  0  0  0  0  0  0  0  0
    3.9868   -7.4935   24.9440 C   0  0  0  0  0  0  0  0  0  0  0  0
    3.6898   -8.2151   24.0127 O   0  0  0  0  0  0  0  0  0  0  0  0
    3.7363   -7.9079   26.2239 N   0  0  0  0  0  0  0  0  0  0  0  0
    3.6127   -8.9083   26.2538 H   0  0  0  0  0  0  0  0  0  0  0  0
    4.3057   -7.5145   26.9511 H   0  0  0  0  0  0  0  0  0  0  0  0
    5.5153   -5.6004   25.6992 C   0  0  0  0  0  0  0  0  0  0  0  0
    5.9002   -6.2145   26.5134 H   0  0  0  0  0  0  0  0  0  0  0  0
    6.0223   -4.3190   25.5459 C   0  0  0  0  0  0  0  0  0  0  0  0
    6.7592   -3.9535   26.2566 H   0  0  0  0  0  0  0  0  0  0  0  0
    6.6335   -1.6367   23.0198 C   0  0  0  0  0  0  0  0  0  0  0  0
    6.6478   -1.9123   21.5510 C   0  0  0  0  0  0  0  0  0  0  0  0
    7.1226   -2.8675   21.2864 H   0  0  0  0  0  0  0  0  0  0  0  0
    5.6279   -1.9558   21.1428 H   0  0  0  0  0  0  0  0  0  0  0  0
    5.4665    0.6650   20.1097 C   0  0  0  0  0  0  0  0  0  0  0  0
    5.0367    0.6597   21.1123 H   0  0  0  0  0  0  0  0  0  0  0  0
    4.8037    1.3208   19.0682 C   0  0  0  0  0  0  0  0  0  0  0  0
    3.8645    1.8445   19.2240 H   0  0  0  0  0  0  0  0  0  0  0  0
  1  2  1  0
  2  3  2  0
  3  4  1  0
  4  5  1  0
  4  6  2  0
  6  7  1  0
  7  8  1  6
  7  9  1  0
  9 10  1  0
  9 11  1  0
  9 12  1  0
 12 13  2  0
 13 14  1  0
 14 15  1  0
 14 16  1  0
 16 17  1  0
 17 18  2  0
 18 19  1  0
 18 20  1  0
 20 21  1  0
 20 22  2  0
 22 23  1  0
 23 24  2  0
 23 25  1  0
 25 26  1  0
 25 27  1  0
 22 28  1  0
 28 29  1  0
 28 30  2  0
 30 31  1  0
 16 32  2  0
 32 33  1  0
 33 34  1  0
 33 35  1  0
  6 36  1  0
 36 37  1  0
 36 38  2  0
 38 39  1  0
 38  2  1  0
 33  7  1  0
 32 12  1  0
 30 17  1  0
M  END
>  <cnnaffinity>  (1) 
-5.36757

>  <filename>  (1) 
NC(=O)c1ccc(-c2[nH]nc3c2C[C@@H](c2cccnc2)C3)cc1

$$$$
