
     RDKit          3D

 33 35  0  0  0  0  0  0  0  0999 V2000
    4.9193    1.7890   16.9956 H   0  0  0  0  0  0  0  0  0  0  0  0
    5.3948    1.2919   17.8373 C   0  0  0  0  0  0  0  0  0  0  0  0
    6.5533    0.6686   17.5713 N   0  0  0  0  0  0  0  0  0  0  0  0
    7.1738    0.0540   18.5839 C   0  0  0  0  0  0  0  0  0  0  0  0
    8.1280   -0.4207   18.3667 H   0  0  0  0  0  0  0  0  0  0  0  0
    6.6662    0.0055   19.9009 C   0  0  0  0  0  0  0  0  0  0  0  0
    7.3603   -0.6733   20.9416 N   0  0  0  0  0  0  0  0  0  0  0  0
    6.7690   -1.4455   21.9351 C   0  0  0  0  0  0  0  0  0  0  0  0
    5.7045   -1.6034   21.9555 H   0  0  0  0  0  0  0  0  0  0  0  0
    7.7338   -1.9407   22.7449 C   0  0  0  0  0  0  0  0  0  0  0  0
    7.6146   -2.7839   23.9397 C   0  0  0  0  0  0  0  0  0  0  0  0
    6.3747   -2.8484   24.6016 C   0  0  0  0  0  0  0  0  0  0  0  0
    5.5498   -2.2461   24.2361 H   0  0  0  0  0  0  0  0  0  0  0  0
    6.1999   -3.6638   25.7196 C   0  0  0  0  0  0  0  0  0  0  0  0
    5.2315   -3.7031   26.2136 H   0  0  0  0  0  0  0  0  0  0  0  0
    7.2678   -4.4216   26.2055 C   0  0  0  0  0  0  0  0  0  0  0  0
    7.0974   -5.0790   27.0589 H   0  0  0  0  0  0  0  0  0  0  0  0
    8.5274   -4.3606   25.5724 C   0  0  0  0  0  0  0  0  0  0  0  0
    9.7139   -5.1670   26.0407 C   0  0  0  0  0  0  0  0  0  0  0  0
   10.6401   -5.5071   25.3250 O   0  0  0  0  0  0  0  0  0  0  0  0
    9.7335   -5.5220   27.3429 N   0  0  0  0  0  0  0  0  0  0  0  0
   10.4934   -6.1476   27.5432 H   0  0  0  0  0  0  0  0  0  0  0  0
    9.0664   -5.2397   28.0303 H   0  0  0  0  0  0  0  0  0  0  0  0
    8.6808   -3.5535   24.4347 C   0  0  0  0  0  0  0  0  0  0  0  0
    9.6406   -3.5619   23.9207 H   0  0  0  0  0  0  0  0  0  0  0  0
    8.9374   -1.4767   22.2255 N   0  0  0  0  0  0  0  0  0  0  0  0
    9.8720   -1.5743   22.5719 H   0  0  0  0  0  0  0  0  0  0  0  0
    8.7533   -0.6764   21.1321 C   0  0  0  0  0  0  0  0  0  0  0  0
    9.6253   -0.1185   20.4998 O   0  0  0  0  0  0  0  0  0  0  0  0
    5.4474    0.6446   20.1608 C   0  0  0  0  0  0  0  0  0  0  0  0
    5.0289    0.6349   21.1681 H   0  0  0  0  0  0  0  0  0  0  0  0
    4.8107    1.3076   19.1080 C   0  0  0  0  0  0  0  0  0  0  0  0
    3.8799    1.8389   19.2613 H   0  0  0  0  0  0  0  0  0  0  0  0
  1  2  1  0
  2  3  2  0
  3  4  1  0
  4  5  1  0
  4  6  2  0
  6  7  1  0
  7  8  1  0
  8  9  1  0
  8 10  2  0
 10 11  1  0
 11 12  2  0
 12 13  1  0
 12 14  1  0
 14 15  1  0
 14 16  2  0
 16 17  1  0
 16 18  1  0
 18 19  1  0
 19 20  2  0
 19 21  1  0
 21 22  1  0
 21 23  1  0
 18 24  2  0
 24 25  1  0
 10 26  1  0
 26 27  1  0
 26 28  1  0
 28 29  2  0
  6 30  1  0
 30 31  1  0
 30 32  2  0
 32 33  1  0
 32  2  1  0
 28  7  1  0
 24 11  1  0
M  END
>  <cnnaffinity>  (1) 
-5.24403

>  <filename>  (1) 
NC(=O)c1cccc(-c2cn(-c3cccnc3)c(=O)[nH]2)c1

$$$$
