
     RDKit          3D

 36 38  0  0  0  0  0  0  0  0999 V2000
    4.9235    1.8336   16.9663 H   0  0  0  0  0  0  0  0  0  0  0  0
    5.3914    1.3122   17.7979 C   0  0  0  0  0  0  0  0  0  0  0  0
    6.5528    0.6962   17.5306 N   0  0  0  0  0  0  0  0  0  0  0  0
    7.1588    0.0677   18.5461 C   0  0  0  0  0  0  0  0  0  0  0  0
    8.1124   -0.4043   18.3003 H   0  0  0  0  0  0  0  0  0  0  0  0
    6.6471   -0.0064   19.8579 C   0  0  0  0  0  0  0  0  0  0  0  0
    7.3947   -0.7108   20.9738 C   0  0  2  0  0  0  0  0  0  0  0  0
    8.2997   -1.1460   20.5294 H   0  0  0  0  0  0  0  0  0  0  0  0
    6.5913   -1.8486   21.6767 C   0  0  0  0  0  0  0  0  0  0  0  0
    7.0761   -2.8288   21.5529 H   0  0  0  0  0  0  0  0  0  0  0  0
    5.5764   -1.9410   21.2612 H   0  0  0  0  0  0  0  0  0  0  0  0
    6.5673   -1.4713   23.0795 N   0  0  0  0  0  0  0  0  0  0  0  0
    5.8357   -1.7270   23.7273 H   0  0  0  0  0  0  0  0  0  0  0  0
    7.0726   -0.2377   23.3598 C   0  0  0  0  0  0  0  0  0  0  0  0
    6.9344    0.3098   24.4294 O   0  0  0  0  0  0  0  0  0  0  0  0
    7.8077    0.2645   22.1230 C   0  0  1  0  0  0  0  0  0  0  0  0
    7.4570    1.2874   21.9509 H   0  0  0  0  0  0  0  0  0  0  0  0
    9.3077    0.2994   22.3435 C   0  0  0  0  0  0  0  0  0  0  0  0
    9.9630   -0.8880   22.6869 C   0  0  0  0  0  0  0  0  0  0  0  0
    9.3624   -1.7600   22.9253 H   0  0  0  0  0  0  0  0  0  0  0  0
   11.3519   -0.9428   22.7496 C   0  0  0  0  0  0  0  0  0  0  0  0
   11.8493   -1.8952   22.8683 H   0  0  0  0  0  0  0  0  0  0  0  0
   12.1012    0.2230   22.6083 C   0  0  0  0  0  0  0  0  0  0  0  0
   13.1773    0.2222   22.7741 H   0  0  0  0  0  0  0  0  0  0  0  0
   11.4656    1.4277   22.2573 C   0  0  0  0  0  0  0  0  0  0  0  0
   12.3472    2.6293   22.0358 C   0  0  0  0  0  0  0  0  0  0  0  0
   13.3156    2.8899   22.7264 O   0  0  0  0  0  0  0  0  0  0  0  0
   12.0577    3.4045   20.9483 N   0  0  0  0  0  0  0  0  0  0  0  0
   12.5337    4.2894   21.0208 H   0  0  0  0  0  0  0  0  0  0  0  0
   11.0972    3.4420   20.6500 H   0  0  0  0  0  0  0  0  0  0  0  0
   10.0641    1.4496   22.1006 C   0  0  0  0  0  0  0  0  0  0  0  0
    9.5478    2.3608   21.7800 H   0  0  0  0  0  0  0  0  0  0  0  0
    5.4325    0.6448   20.1070 C   0  0  0  0  0  0  0  0  0  0  0  0
    5.0026    0.6408   21.1094 H   0  0  0  0  0  0  0  0  0  0  0  0
    4.7948    1.3126   19.0618 C   0  0  0  0  0  0  0  0  0  0  0  0
    3.8662    1.8457   19.2185 H   0  0  0  0  0  0  0  0  0  0  0  0
  1  2  1  0
  2  3  2  0
  3  4  1  0
  4  5  1  0
  4  6  2  0
  6  7  1  0
  7  8  1  6
  7  9  1  0
  9 10  1  0
  9 11  1  0
  9 12  1  0
 12 13  1  0
 12 14  1  0
 14 15  2  0
 14 16  1  0
 16 17  1  6
 16 18  1  0
 18 19  2  0
 19 20  1  0
 19 21  1  0
 21 22  1  0
 21 23  2  0
 23 24  1  0
 23 25  1  0
 25 26  1  0
 26 27  2  0
 26 28  1  0
 28 29  1  0
 28 30  1  0
 25 31  2  0
 31 32  1  0
  6 33  1  0
 33 34  1  0
 33 35  2  0
 35 36  1  0
 35  2  1  0
 16  7  1  0
 31 18  1  0
M  END
>  <cnnaffinity>  (1) 
-5.50973

>  <filename>  (1) 
NC(=O)c1cccc([C@@H]2C(=O)NC[C@H]2c2cccnc2)c1

$$$$
