
     RDKit          3D

 33 35  0  0  0  0  0  0  0  0999 V2000
    4.9168    1.7999   16.9707 H   0  0  0  0  0  0  0  0  0  0  0  0
    5.3912    1.3040   17.8170 C   0  0  0  0  0  0  0  0  0  0  0  0
    6.5571    0.6861   17.5615 N   0  0  0  0  0  0  0  0  0  0  0  0
    7.1711    0.0745   18.5831 C   0  0  0  0  0  0  0  0  0  0  0  0
    8.1078   -0.4212   18.3296 H   0  0  0  0  0  0  0  0  0  0  0  0
    6.6685    0.0245   19.8984 C   0  0  0  0  0  0  0  0  0  0  0  0
    7.3368   -0.6962   20.9878 C   0  0  0  0  0  0  0  0  0  0  0  0
    6.8147   -1.2390   22.1070 C   0  0  0  0  0  0  0  0  0  0  0  0
    5.7966   -1.2951   22.4081 H   0  0  0  0  0  0  0  0  0  0  0  0
    7.8235   -1.8416   22.8409 N   0  0  0  0  0  0  0  0  0  0  0  0
    7.6233   -2.5027   24.0985 C   0  0  0  0  0  0  0  0  0  0  0  0
    8.4649   -2.2075   25.1750 C   0  0  0  0  0  0  0  0  0  0  0  0
    9.2660   -1.4902   25.0310 H   0  0  0  0  0  0  0  0  0  0  0  0
    8.2697   -2.8656   26.3916 C   0  0  0  0  0  0  0  0  0  0  0  0
    8.9345   -2.6537   27.2220 H   0  0  0  0  0  0  0  0  0  0  0  0
    7.2477   -3.8055   26.5387 C   0  0  0  0  0  0  0  0  0  0  0  0
    7.1090   -4.2697   27.5150 H   0  0  0  0  0  0  0  0  0  0  0  0
    6.3908   -4.1100   25.4617 C   0  0  0  0  0  0  0  0  0  0  0  0
    5.2346   -5.0853   25.5954 C   0  0  0  0  0  0  0  0  0  0  0  0
    4.2427   -5.0813   24.8865 O   0  0  0  0  0  0  0  0  0  0  0  0
    5.3028   -6.0001   26.5995 N   0  0  0  0  0  0  0  0  0  0  0  0
    4.4978   -6.6038   26.5828 H   0  0  0  0  0  0  0  0  0  0  0  0
    6.1498   -6.2447   27.0774 H   0  0  0  0  0  0  0  0  0  0  0  0
    6.5824   -3.4288   24.2427 C   0  0  0  0  0  0  0  0  0  0  0  0
    5.9024   -3.6085   23.4131 H   0  0  0  0  0  0  0  0  0  0  0  0
    9.0159   -1.6863   22.1677 C   0  0  0  0  0  0  0  0  0  0  0  0
   10.5639   -2.1849   22.5013 S   0  0  0  0  0  0  0  0  0  0  0  0
    8.6865   -0.9949   21.0409 N   0  0  0  0  0  0  0  0  0  0  0  0
    9.4141   -0.7213   20.4072 H   0  0  0  0  0  0  0  0  0  0  0  0
    5.4392    0.6676   20.1348 C   0  0  0  0  0  0  0  0  0  0  0  0
    5.0094    0.6583   21.1371 H   0  0  0  0  0  0  0  0  0  0  0  0
    4.7978    1.3221   19.0842 C   0  0  0  0  0  0  0  0  0  0  0  0
    3.8632    1.8520   19.2339 H   0  0  0  0  0  0  0  0  0  0  0  0
  1  2  1  0
  2  3  2  0
  3  4  1  0
  4  5  1  0
  4  6  2  0
  6  7  1  0
  7  8  2  0
  8  9  1  0
  8 10  1  0
 10 11  1  0
 11 12  2  0
 12 13  1  0
 12 14  1  0
 14 15  1  0
 14 16  2  0
 16 17  1  0
 16 18  1  0
 18 19  1  0
 19 20  2  0
 19 21  1  0
 21 22  1  0
 21 23  1  0
 18 24  2  0
 24 25  1  0
 10 26  1  0
 26 27  2  0
 26 28  1  0
 28 29  1  0
  6 30  1  0
 30 31  1  0
 30 32  2  0
 32 33  1  0
 32  2  1  0
 28  7  1  0
 24 11  1  0
M  END
>  <cnnaffinity>  (1) 
-5.49729

>  <filename>  (1) 
NC(=O)c1cccc(-n2cc(-c3cccnc3)[nH]c2=S)c1

$$$$
