
     RDKit          3D

 36 38  0  0  0  0  0  0  0  0999 V2000
    9.1693    0.6292   20.2342 H   0  0  0  0  0  0  0  0  0  0  0  0
    9.4599   -0.1387   20.9532 C   0  0  0  0  0  0  0  0  0  0  0  0
    8.5418   -1.0398   21.3345 C   0  0  0  0  0  0  0  0  0  0  0  0
    7.0990   -1.0252   20.9818 C   0  0  0  0  0  0  0  0  0  0  0  0
    6.5397   -0.2126   19.8826 C   0  0  0  0  0  0  0  0  0  0  0  0
    7.1923   -0.1506   18.6456 C   0  0  0  0  0  0  0  0  0  0  0  0
    8.1183   -0.7043   18.4846 H   0  0  0  0  0  0  0  0  0  0  0  0
    6.7536    0.5704   17.6077 N   0  0  0  0  0  0  0  0  0  0  0  0
    5.6246    1.2730   17.7818 C   0  0  0  0  0  0  0  0  0  0  0  0
    5.2918    1.8626   16.9307 H   0  0  0  0  0  0  0  0  0  0  0  0
    4.8867    1.2626   18.9715 C   0  0  0  0  0  0  0  0  0  0  0  0
    3.9820    1.8542   19.0469 H   0  0  0  0  0  0  0  0  0  0  0  0
    5.3429    0.4974   20.0413 C   0  0  0  0  0  0  0  0  0  0  0  0
    4.7973    0.4376   20.9854 H   0  0  0  0  0  0  0  0  0  0  0  0
    6.3693   -1.7429   21.7472 N   0  0  0  0  0  0  0  0  0  0  0  0
    7.2104   -2.3709   22.7735 C   0  0  0  0  0  0  0  0  0  0  0  0
    6.9780   -1.9105   23.7430 H   0  0  0  0  0  0  0  0  0  0  0  0
    6.9503   -3.4291   22.8519 H   0  0  0  0  0  0  0  0  0  0  0  0
    8.6885   -2.1306   22.3693 C   0  0  0  0  0  0  0  0  0  0  0  0
    9.3268   -1.8431   23.2105 H   0  0  0  0  0  0  0  0  0  0  0  0
    9.1024   -3.0325   21.9040 H   0  0  0  0  0  0  0  0  0  0  0  0
   10.8112    0.0831   21.5003 C   0  0  0  0  0  0  0  0  0  0  0  0
   11.7467   -0.9239   21.7922 C   0  0  0  0  0  0  0  0  0  0  0  0
   11.4960   -1.9624   21.5873 H   0  0  0  0  0  0  0  0  0  0  0  0
   12.9997   -0.5885   22.3259 C   0  0  0  0  0  0  0  0  0  0  0  0
   13.7265   -1.3676   22.5439 H   0  0  0  0  0  0  0  0  0  0  0  0
   13.3201    0.7476   22.5804 C   0  0  0  0  0  0  0  0  0  0  0  0
   14.2886    1.0212   22.9929 H   0  0  0  0  0  0  0  0  0  0  0  0
   12.4013    1.7759   22.2845 C   0  0  0  0  0  0  0  0  0  0  0  0
   12.7706    3.2128   22.5737 C   0  0  0  0  0  0  0  0  0  0  0  0
   13.7076    3.5530   23.2681 O   0  0  0  0  0  0  0  0  0  0  0  0
   11.9840    4.1839   22.0242 N   0  0  0  0  0  0  0  0  0  0  0  0
   11.4016    3.9797   21.2314 H   0  0  0  0  0  0  0  0  0  0  0  0
   12.4680    5.0659   22.0496 H   0  0  0  0  0  0  0  0  0  0  0  0
   11.1616    1.4213   21.7431 C   0  0  0  0  0  0  0  0  0  0  0  0
   10.4057    2.1796   21.5421 H   0  0  0  0  0  0  0  0  0  0  0  0
  1  2  1  0
  2  3  2  3
  3  4  1  0
  4  5  1  0
  5  6  2  0
  6  7  1  0
  6  8  1  0
  8  9  2  0
  9 10  1  0
  9 11  1  0
 11 12  1  0
 11 13  2  0
 13 14  1  0
  4 15  2  0
 15 16  1  0
 16 17  1  0
 16 18  1  0
 16 19  1  0
 19 20  1  0
 19 21  1  0
  2 22  1  0
 22 23  2  0
 23 24  1  0
 23 25  1  0
 25 26  1  0
 25 27  2  0
 27 28  1  0
 27 29  1  0
 29 30  1  0
 30 31  2  0
 30 32  1  0
 32 33  1  0
 32 34  1  0
 29 35  2  0
 35 36  1  0
 19  3  1  0
 35 22  1  0
 13  5  1  0
M  END
>  <cnnaffinity>  (1) 
-6.1568

>  <filename>  (1) 
NC(=O)c1cccc(C=C2CCN=C2c2cccnc2)c1

$$$$
