
     RDKit          3D

 36 38  0  0  0  0  0  0  0  0999 V2000
    4.9910    1.8885   16.8975 H   0  0  0  0  0  0  0  0  0  0  0  0
    5.4229    1.3514   17.7397 C   0  0  0  0  0  0  0  0  0  0  0  0
    6.5895    0.7265   17.5092 N   0  0  0  0  0  0  0  0  0  0  0  0
    7.1445    0.0703   18.5338 C   0  0  0  0  0  0  0  0  0  0  0  0
    8.1032   -0.4065   18.3214 H   0  0  0  0  0  0  0  0  0  0  0  0
    6.5763   -0.0319   19.8194 C   0  0  0  0  0  0  0  0  0  0  0  0
    7.2893   -0.7541   20.9577 C   0  0  2  0  0  0  0  0  0  0  0  0
    8.1070   -1.3376   20.5135 H   0  0  0  0  0  0  0  0  0  0  0  0
    6.4243   -1.7769   21.7128 C   0  0  0  0  0  0  0  0  0  0  0  0
    5.7385   -2.6702   21.2610 O   0  0  0  0  0  0  0  0  0  0  0  0
    6.5794   -1.5463   23.0493 N   0  0  0  0  0  0  0  0  0  0  0  0
    5.8445   -1.9825   23.5908 H   0  0  0  0  0  0  0  0  0  0  0  0
    7.0743   -0.2138   23.3528 C   0  0  0  0  0  0  0  0  0  0  0  0
    7.7193   -0.2378   24.2425 H   0  0  0  0  0  0  0  0  0  0  0  0
    6.2509    0.4903   23.5689 H   0  0  0  0  0  0  0  0  0  0  0  0
    7.8306    0.2109   22.0594 C   0  0  1  0  0  0  0  0  0  0  0  0
    7.5594    1.2432   21.8081 H   0  0  0  0  0  0  0  0  0  0  0  0
    9.3500    0.1973   22.2067 C   0  0  0  0  0  0  0  0  0  0  0  0
   10.0351   -1.0111   22.4145 C   0  0  0  0  0  0  0  0  0  0  0  0
    9.4862   -1.9452   22.4531 H   0  0  0  0  0  0  0  0  0  0  0  0
   11.4200   -1.0278   22.6013 C   0  0  0  0  0  0  0  0  0  0  0  0
   11.9427   -1.9757   22.7100 H   0  0  0  0  0  0  0  0  0  0  0  0
   12.1305    0.1669   22.6463 C   0  0  0  0  0  0  0  0  0  0  0  0
   13.1972    0.1646   22.8697 H   0  0  0  0  0  0  0  0  0  0  0  0
   11.4779    1.4022   22.4424 C   0  0  0  0  0  0  0  0  0  0  0  0
   12.3535    2.6344   22.5467 C   0  0  0  0  0  0  0  0  0  0  0  0
   13.2968    2.7041   23.3155 O   0  0  0  0  0  0  0  0  0  0  0  0
   12.1453    3.6800   21.6918 N   0  0  0  0  0  0  0  0  0  0  0  0
   11.2079    3.9006   21.3971 H   0  0  0  0  0  0  0  0  0  0  0  0
   12.7426    4.4414   21.9836 H   0  0  0  0  0  0  0  0  0  0  0  0
   10.0843    1.3981   22.2244 C   0  0  0  0  0  0  0  0  0  0  0  0
    9.5316    2.3295   22.0738 H   0  0  0  0  0  0  0  0  0  0  0  0
    5.3617    0.6330   20.0347 C   0  0  0  0  0  0  0  0  0  0  0  0
    4.8892    0.6207   21.0191 H   0  0  0  0  0  0  0  0  0  0  0  0
    4.7760    1.3314   18.9777 C   0  0  0  0  0  0  0  0  0  0  0  0
    3.8502    1.8808   19.1034 H   0  0  0  0  0  0  0  0  0  0  0  0
  1  2  1  0
  2  3  2  0
  3  4  1  0
  4  5  1  0
  4  6  2  0
  6  7  1  0
  7  8  1  6
  7  9  1  0
  9 10  2  0
  9 11  1  0
 11 12  1  0
 11 13  1  0
 13 14  1  0
 13 15  1  0
 13 16  1  0
 16 17  1  6
 16 18  1  0
 18 19  2  0
 19 20  1  0
 19 21  1  0
 21 22  1  0
 21 23  2  0
 23 24  1  0
 23 25  1  0
 25 26  1  0
 26 27  2  0
 26 28  1  0
 28 29  1  0
 28 30  1  0
 25 31  2  0
 31 32  1  0
  6 33  1  0
 33 34  1  0
 33 35  2  0
 35 36  1  0
 35  2  1  0
 16  7  1  0
 31 18  1  0
M  END
>  <cnnaffinity>  (1) 
-5.56883

>  <filename>  (1) 
NC(=O)c1cccc([C@@H]2CNC(=O)[C@H]2c2cccnc2)c1

$$$$
