
     RDKit          3D

 34 36  0  0  0  0  0  0  0  0999 V2000
    4.9121    1.8052   16.9760 H   0  0  0  0  0  0  0  0  0  0  0  0
    5.3856    1.3062   17.8198 C   0  0  0  0  0  0  0  0  0  0  0  0
    6.5484    0.6892   17.5561 N   0  0  0  0  0  0  0  0  0  0  0  0
    7.1591    0.0654   18.5678 C   0  0  0  0  0  0  0  0  0  0  0  0
    8.1153   -0.3987   18.3262 H   0  0  0  0  0  0  0  0  0  0  0  0
    6.6544    0.0138   19.8830 C   0  0  0  0  0  0  0  0  0  0  0  0
    7.3762   -0.6581   20.9712 C   0  0  0  0  0  0  0  0  0  0  0  0
    7.5159   -0.3210   22.3136 C   0  0  0  0  0  0  0  0  0  0  0  0
    7.0267    0.8395   22.9242 N   0  0  0  0  0  0  0  0  0  0  0  0
    6.9846    1.6597   22.3379 H   0  0  0  0  0  0  0  0  0  0  0  0
    6.8278    1.0341   24.2932 C   0  0  0  0  0  0  0  0  0  0  0  0
    6.3559   -0.0136   25.0935 C   0  0  0  0  0  0  0  0  0  0  0  0
    6.1708   -0.9709   24.6140 H   0  0  0  0  0  0  0  0  0  0  0  0
    6.1466    0.1915   26.4560 C   0  0  0  0  0  0  0  0  0  0  0  0
    5.7802   -0.6290   27.0666 H   0  0  0  0  0  0  0  0  0  0  0  0
    6.4006    1.4398   27.0298 C   0  0  0  0  0  0  0  0  0  0  0  0
    6.2103    1.6009   28.0872 H   0  0  0  0  0  0  0  0  0  0  0  0
    6.8729    2.5112   26.2438 C   0  0  0  0  0  0  0  0  0  0  0  0
    7.0936    3.8596   26.9118 C   0  0  0  0  0  0  0  0  0  0  0  0
    6.5643    4.2082   27.9538 O   0  0  0  0  0  0  0  0  0  0  0  0
    7.9146    4.7406   26.2843 N   0  0  0  0  0  0  0  0  0  0  0  0
    8.5545    4.4793   25.5603 H   0  0  0  0  0  0  0  0  0  0  0  0
    7.9891    5.5926   26.8109 H   0  0  0  0  0  0  0  0  0  0  0  0
    7.0635    2.2919   24.8624 C   0  0  0  0  0  0  0  0  0  0  0  0
    7.3805    3.0899   24.1926 H   0  0  0  0  0  0  0  0  0  0  0  0
    8.2909   -1.3751   22.8671 C   0  0  0  0  0  0  0  0  0  0  0  0
    8.6294   -1.4728   23.8928 H   0  0  0  0  0  0  0  0  0  0  0  0
    8.6065   -2.2892   21.9535 N   0  0  0  0  0  0  0  0  0  0  0  0
    8.0524   -1.8292   20.8226 N   0  0  0  0  0  0  0  0  0  0  0  0
    8.1280   -2.3713   19.9708 H   0  0  0  0  0  0  0  0  0  0  0  0
    5.4345    0.6619   20.1363 C   0  0  0  0  0  0  0  0  0  0  0  0
    5.0172    0.6304   21.1439 H   0  0  0  0  0  0  0  0  0  0  0  0
    4.7923    1.3189   19.0870 C   0  0  0  0  0  0  0  0  0  0  0  0
    3.8615    1.8510   19.2385 H   0  0  0  0  0  0  0  0  0  0  0  0
  1  2  1  0
  2  3  2  0
  3  4  1  0
  4  5  1  0
  4  6  2  0
  6  7  1  0
  7  8  2  0
  8  9  1  0
  9 10  1  0
  9 11  1  0
 11 12  2  0
 12 13  1  0
 12 14  1  0
 14 15  1  0
 14 16  2  0
 16 17  1  0
 16 18  1  0
 18 19  1  0
 19 20  2  0
 19 21  1  0
 21 22  1  0
 21 23  1  0
 18 24  2  0
 24 25  1  0
  8 26  1  0
 26 27  1  0
 26 28  2  0
 28 29  1  0
 29 30  1  0
  6 31  1  0
 31 32  1  0
 31 33  2  0
 33 34  1  0
 33  2  1  0
 29  7  1  0
 24 11  1  0
M  END
>  <cnnaffinity>  (1) 
-5.28565

>  <filename>  (1) 
NC(=O)c1cccc(Nc2cn[nH]c2-c2cccnc2)c1

$$$$
