
     RDKit          3D

 35 36  0  0  0  0  0  0  0  0999 V2000
    5.0025    1.7711   16.9719 H   0  0  0  0  0  0  0  0  0  0  0  0
    5.4436    1.2505   17.8180 C   0  0  0  0  0  0  0  0  0  0  0  0
    6.6027    0.6149   17.5771 N   0  0  0  0  0  0  0  0  0  0  0  0
    7.1821   -0.0107   18.6124 C   0  0  0  0  0  0  0  0  0  0  0  0
    8.1159   -0.5203   18.3929 H   0  0  0  0  0  0  0  0  0  0  0  0
    6.6623   -0.0390   19.9333 C   0  0  0  0  0  0  0  0  0  0  0  0
    7.2788   -0.7047   21.0291 N   0  0  0  0  0  0  0  0  0  0  0  0
    8.0603   -1.3166   20.8933 H   0  0  0  0  0  0  0  0  0  0  0  0
    7.4466   -0.1512   22.2799 C   0  0  0  0  0  0  0  0  0  0  0  0
    6.9641    0.9392   22.6749 N   0  0  0  0  0  0  0  0  0  0  0  0
    7.1942    1.5118   23.9811 C   0  0  0  0  0  0  0  0  0  0  0  0
    6.6011    1.0121   24.7676 H   0  0  0  0  0  0  0  0  0  0  0  0
    8.2541    1.4982   24.2929 H   0  0  0  0  0  0  0  0  0  0  0  0
    6.7350    2.9774   23.9369 C   0  0  0  0  0  0  0  0  0  0  0  0
    7.3618    3.5542   23.2399 H   0  0  0  0  0  0  0  0  0  0  0  0
    5.6974    3.0317   23.5744 H   0  0  0  0  0  0  0  0  0  0  0  0
    6.8328    3.5167   25.2542 O   0  0  0  0  0  0  0  0  0  0  0  0
    6.4428    4.8006   25.4956 C   0  0  0  0  0  0  0  0  0  0  0  0
    5.9539    5.6970   24.5361 C   0  0  0  0  0  0  0  0  0  0  0  0
    5.8561    5.3842   23.4997 H   0  0  0  0  0  0  0  0  0  0  0  0
    5.5953    6.9940   24.9195 C   0  0  0  0  0  0  0  0  0  0  0  0
    5.2180    7.6859   24.1689 H   0  0  0  0  0  0  0  0  0  0  0  0
    5.7174    7.4043   26.2467 C   0  0  0  0  0  0  0  0  0  0  0  0
    5.4387    8.4118   26.5391 H   0  0  0  0  0  0  0  0  0  0  0  0
    6.2035    6.5044   27.2026 C   0  0  0  0  0  0  0  0  0  0  0  0
    6.3026    6.8100   28.2408 H   0  0  0  0  0  0  0  0  0  0  0  0
    6.5644    5.2113   26.8353 C   0  0  0  0  0  0  0  0  0  0  0  0
    6.9430    4.4876   27.5468 H   0  0  0  0  0  0  0  0  0  0  0  0
    8.2223   -1.0396   23.0085 N   0  0  0  0  0  0  0  0  0  0  0  0
    7.8163   -1.9284   22.7616 H   0  0  0  0  0  0  0  0  0  0  0  0
    8.0446   -0.8380   23.9820 H   0  0  0  0  0  0  0  0  0  0  0  0
    5.4466    0.6290   20.1547 C   0  0  0  0  0  0  0  0  0  0  0  0
    5.0177    0.6417   21.1570 H   0  0  0  0  0  0  0  0  0  0  0  0
    4.8321    1.2743   19.0765 C   0  0  0  0  0  0  0  0  0  0  0  0
    3.9001    1.8182   19.2099 H   0  0  0  0  0  0  0  0  0  0  0  0
  1  2  1  0
  2  3  2  0
  3  4  1  0
  4  5  1  0
  4  6  2  0
  6  7  1  0
  7  8  1  0
  7  9  1  0
  9 10  2  3
 10 11  1  0
 11 12  1  0
 11 13  1  0
 11 14  1  0
 14 15  1  0
 14 16  1  0
 14 17  1  0
 17 18  1  0
 18 19  2  0
 19 20  1  0
 19 21  1  0
 21 22  1  0
 21 23  2  0
 23 24  1  0
 23 25  1  0
 25 26  1  0
 25 27  2  0
 27 28  1  0
  9 29  1  0
 29 30  1  0
 29 31  1  0
  6 32  1  0
 32 33  1  0
 32 34  2  0
 34 35  1  0
 34  2  1  0
 27 18  1  0
M  END
>  <cnnaffinity>  (1) 
-4.32532

>  <filename>  (1) 
NC(=NCCOc1ccccc1)Nc1cccnc1

$$$$
