
     RDKit          3D

 35 37  0  0  0  0  0  0  0  0999 V2000
    5.0193    1.9170   16.9306 H   0  0  0  0  0  0  0  0  0  0  0  0
    5.4488    1.3597   17.7614 C   0  0  0  0  0  0  0  0  0  0  0  0
    6.5998    0.7155   17.5044 N   0  0  0  0  0  0  0  0  0  0  0  0
    7.1654    0.0429   18.5127 C   0  0  0  0  0  0  0  0  0  0  0  0
    8.1097   -0.4597   18.3055 H   0  0  0  0  0  0  0  0  0  0  0  0
    6.6081   -0.0535   19.8033 C   0  0  0  0  0  0  0  0  0  0  0  0
    7.3163   -0.7305   20.8609 N   0  0  0  0  0  0  0  0  0  0  0  0
    8.5639   -0.2443   21.1909 C   0  0  0  0  0  0  0  0  0  0  0  0
    8.8703    0.6475   20.6521 H   0  0  0  0  0  0  0  0  0  0  0  0
    9.3590   -0.8188   22.1406 C   0  0  0  0  0  0  0  0  0  0  0  0
   10.7472   -0.3255   22.3534 C   0  0  0  0  0  0  0  0  0  0  0  0
   11.8533   -1.1857   22.2430 C   0  0  0  0  0  0  0  0  0  0  0  0
   11.6858   -2.2310   22.0003 H   0  0  0  0  0  0  0  0  0  0  0  0
   13.1552   -0.6921   22.3831 C   0  0  0  0  0  0  0  0  0  0  0  0
   13.9997   -1.3711   22.2958 H   0  0  0  0  0  0  0  0  0  0  0  0
   13.3710    0.6724   22.6031 C   0  0  0  0  0  0  0  0  0  0  0  0
   14.3927    1.0531   22.6277 H   0  0  0  0  0  0  0  0  0  0  0  0
   12.2742    1.5495   22.7299 C   0  0  0  0  0  0  0  0  0  0  0  0
   12.4137    3.0415   22.9059 C   0  0  0  0  0  0  0  0  0  0  0  0
   11.5114    3.8350   22.7044 O   0  0  0  0  0  0  0  0  0  0  0  0
   13.6269    3.5431   23.2810 N   0  0  0  0  0  0  0  0  0  0  0  0
   13.5203    4.5271   23.4650 H   0  0  0  0  0  0  0  0  0  0  0  0
   14.2477    3.0255   23.8757 H   0  0  0  0  0  0  0  0  0  0  0  0
   10.9722    1.0314   22.6104 C   0  0  0  0  0  0  0  0  0  0  0  0
   10.1175    1.7010   22.6925 H   0  0  0  0  0  0  0  0  0  0  0  0
    8.8133   -1.8928   22.9086 C   0  0  0  0  0  0  0  0  0  0  0  0
    9.4122   -2.3042   23.7217 H   0  0  0  0  0  0  0  0  0  0  0  0
    7.5599   -2.3572   22.6524 C   0  0  0  0  0  0  0  0  0  0  0  0
    7.0893   -3.1509   23.2126 H   0  0  0  0  0  0  0  0  0  0  0  0
    6.7281   -1.8374   21.5722 C   0  0  0  0  0  0  0  0  0  0  0  0
    5.6477   -2.3105   21.2752 O   0  0  0  0  0  0  0  0  0  0  0  0
    5.3951    0.5943   20.0521 C   0  0  0  0  0  0  0  0  0  0  0  0
    4.9445    0.5316   21.0418 H   0  0  0  0  0  0  0  0  0  0  0  0
    4.8146    1.3253   19.0084 C   0  0  0  0  0  0  0  0  0  0  0  0
    3.8927    1.8767   19.1514 H   0  0  0  0  0  0  0  0  0  0  0  0
  1  2  1  0
  2  3  2  0
  3  4  1  0
  4  5  1  0
  4  6  2  0
  6  7  1  0
  7  8  1  0
  8  9  1  0
  8 10  2  0
 10 11  1  0
 11 12  2  0
 12 13  1  0
 12 14  1  0
 14 15  1  0
 14 16  2  0
 16 17  1  0
 16 18  1  0
 18 19  1  0
 19 20  2  0
 19 21  1  0
 21 22  1  0
 21 23  1  0
 18 24  2  0
 24 25  1  0
 10 26  1  0
 26 27  1  0
 26 28  2  0
 28 29  1  0
 28 30  1  0
 30 31  2  0
  6 32  1  0
 32 33  1  0
 32 34  2  0
 34 35  1  0
 34  2  1  0
 30  7  1  0
 24 11  1  0
M  END
>  <cnnaffinity>  (1) 
-5.67017

>  <filename>  (1) 
NC(=O)c1cccc(-c2ccc(=O)n(-c3cccnc3)c2)c1

$$$$
