
     RDKit          3D

 31 34  0  0  0  0  0  0  0  0999 V2000
    4.9333    1.7885   16.9900 H   0  0  0  0  0  0  0  0  0  0  0  0
    5.4030    1.2926   17.8378 C   0  0  0  0  0  0  0  0  0  0  0  0
    6.5646    0.6682   17.5868 N   0  0  0  0  0  0  0  0  0  0  0  0
    7.1631    0.0422   18.6044 C   0  0  0  0  0  0  0  0  0  0  0  0
    8.1100   -0.4449   18.3777 H   0  0  0  0  0  0  0  0  0  0  0  0
    6.6497    0.0155   19.9097 C   0  0  0  0  0  0  0  0  0  0  0  0
    7.3857   -0.6854   20.9511 C   0  0  0  0  0  0  0  0  0  0  0  0
    7.9332   -1.9232   20.7365 N   0  0  0  0  0  0  0  0  0  0  0  0
    8.3961   -2.2605   21.9100 C   0  0  0  0  0  0  0  0  0  0  0  0
    9.1843   -3.6469   22.6001 S   0  0  0  0  0  0  0  0  0  0  0  0
    9.3459   -2.8223   24.1319 C   0  0  0  0  0  0  0  0  0  0  0  0
    9.8594   -3.3255   24.9411 H   0  0  0  0  0  0  0  0  0  0  0  0
    8.7776   -1.6061   24.1096 C   0  0  0  0  0  0  0  0  0  0  0  0
    8.6927   -0.8759   24.9050 H   0  0  0  0  0  0  0  0  0  0  0  0
    8.2336   -1.2986   22.8690 N   0  0  0  0  0  0  0  0  0  0  0  0
    7.6022   -0.2395   22.2443 C   0  0  0  0  0  0  0  0  0  0  0  0
    7.3008    1.0449   22.9272 C   0  0  2  0  0  0  0  0  0  0  0  0
    6.9930    1.7602   22.1571 H   0  0  0  0  0  0  0  0  0  0  0  0
    8.4386    1.6233   23.6358 N   0  0  0  0  0  0  0  0  0  0  0  0
    8.0310    1.7949   24.8275 C   0  0  0  0  0  0  0  0  0  0  0  0
    8.8186    2.2655   25.7873 N   0  0  0  0  0  0  0  0  0  0  0  0
    9.7298    2.4758   25.4358 H   0  0  0  0  0  0  0  0  0  0  0  0
    8.4517    2.3914   26.7067 H   0  0  0  0  0  0  0  0  0  0  0  0
    6.7821    1.4830   25.1886 O   0  0  0  0  0  0  0  0  0  0  0  0
    6.1806    0.9259   23.9986 C   0  0  0  0  0  0  0  0  0  0  0  0
    5.8931   -0.1121   24.2022 H   0  0  0  0  0  0  0  0  0  0  0  0
    5.2900    1.5138   23.7553 H   0  0  0  0  0  0  0  0  0  0  0  0
    5.4296    0.6634   20.1549 C   0  0  0  0  0  0  0  0  0  0  0  0
    4.9769    0.6374   21.1478 H   0  0  0  0  0  0  0  0  0  0  0  0
    4.7981    1.3144   19.0994 C   0  0  0  0  0  0  0  0  0  0  0  0
    3.8663    1.8463   19.2455 H   0  0  0  0  0  0  0  0  0  0  0  0
  1  2  1  0
  2  3  2  0
  3  4  1  0
  4  5  1  0
  4  6  2  0
  6  7  1  0
  7  8  1  0
  8  9  2  0
  9 10  1  0
 10 11  1  0
 11 12  1  0
 11 13  2  0
 13 14  1  0
 13 15  1  0
 15 16  1  0
 16 17  1  0
 17 18  1  6
 17 19  1  0
 19 20  2  0
 20 21  1  0
 21 22  1  0
 21 23  1  0
 20 24  1  0
 24 25  1  0
 25 26  1  0
 25 27  1  0
  6 28  1  0
 28 29  1  0
 28 30  2  0
 30 31  1  0
 30  2  1  0
 16  7  2  0
 25 17  1  0
 15  9  1  0
M  END
>  <cnnaffinity>  (1) 
-5.21694

>  <filename>  (1) 
NC1=N[C@@H](c2c(-c3cccnc3)nc3sccn23)CO1

$$$$
