
     RDKit          3D

 26 28  0  0  0  0  0  0  0  0999 V2000
    5.0638    1.8175   16.7853 H   0  0  0  0  0  0  0  0  0  0  0  0
    5.4496    1.3433   17.6838 C   0  0  0  0  0  0  0  0  0  0  0  0
    6.6081    0.6821   17.5394 N   0  0  0  0  0  0  0  0  0  0  0  0
    7.1107    0.0720   18.6167 C   0  0  0  0  0  0  0  0  0  0  0  0
    8.0484   -0.4596   18.4651 H   0  0  0  0  0  0  0  0  0  0  0  0
    6.4854    0.1025   19.8708 C   0  0  0  0  0  0  0  0  0  0  0  0
    7.0686   -0.5902   21.0108 C   0  0  0  0  0  0  0  0  0  0  0  0
    6.6596   -0.5805   22.2388 N   0  0  0  0  0  0  0  0  0  0  0  0
    7.5374   -1.3802   22.9522 N   0  0  0  0  0  0  0  0  0  0  0  0
    8.3936   -1.8314   22.1034 C   0  0  0  0  0  0  0  0  0  0  0  0
    9.6240   -2.6584   22.3402 C   0  0  2  0  0  0  0  0  0  0  0  0
   10.0260   -2.8198   21.3422 H   0  0  0  0  0  0  0  0  0  0  0  0
    9.4439   -3.9282   23.0439 N   0  0  0  0  0  0  0  0  0  0  0  0
    9.9315   -3.7325   24.2003 C   0  0  0  0  0  0  0  0  0  0  0  0
    9.8671   -4.6111   25.2203 N   0  0  0  0  0  0  0  0  0  0  0  0
   10.5519   -4.3928   25.9183 H   0  0  0  0  0  0  0  0  0  0  0  0
    9.9111   -5.5385   24.8354 H   0  0  0  0  0  0  0  0  0  0  0  0
   10.5499   -2.5790   24.4839 O   0  0  0  0  0  0  0  0  0  0  0  0
   10.6352   -1.8810   23.2281 C   0  0  0  0  0  0  0  0  0  0  0  0
   10.4144   -0.8176   23.3923 H   0  0  0  0  0  0  0  0  0  0  0  0
   11.6451   -1.9806   22.8146 H   0  0  0  0  0  0  0  0  0  0  0  0
    8.1769   -1.3523   20.8442 O   0  0  0  0  0  0  0  0  0  0  0  0
    5.2843    0.8103   20.0183 C   0  0  0  0  0  0  0  0  0  0  0  0
    4.8070    0.8622   21.0007 H   0  0  0  0  0  0  0  0  0  0  0  0
    4.7492    1.4275   18.8931 C   0  0  0  0  0  0  0  0  0  0  0  0
    3.8093    1.9638   18.9378 H   0  0  0  0  0  0  0  0  0  0  0  0
  1  2  1  0
  2  3  2  0
  3  4  1  0
  4  5  1  0
  4  6  2  0
  6  7  1  0
  7  8  2  0
  8  9  1  0
  9 10  2  0
 10 11  1  0
 11 12  1  6
 11 13  1  0
 13 14  2  0
 14 15  1  0
 15 16  1  0
 15 17  1  0
 14 18  1  0
 18 19  1  0
 19 20  1  0
 19 21  1  0
 10 22  1  0
  6 23  1  0
 23 24  1  0
 23 25  2  0
 25 26  1  0
 25  2  1  0
 22  7  1  0
 19 11  1  0
M  END
>  <cnnaffinity>  (1) 
-4.67464

>  <filename>  (1) 
NC1=N[C@@H](c2nnc(-c3cccnc3)o2)CO1

$$$$
