
     RDKit          3D

 29 31  0  0  0  0  0  0  0  0999 V2000
   10.3999   -1.5298   22.2016 H   0  0  0  0  0  0  0  0  0  0  0  0
    9.3224   -1.4602   22.0809 C   0  0  0  0  0  0  0  0  0  0  0  0
    8.6013   -2.0932   23.0052 N   0  0  0  0  0  0  0  0  0  0  0  0
    7.2752   -1.9481   22.9378 C   0  0  0  0  0  0  0  0  0  0  0  0
    6.4417   -2.6161   24.0467 C   0  0  2  0  0  0  0  0  0  0  0  0
    5.4284   -2.2442   23.9161 H   0  0  0  0  0  0  0  0  0  0  0  0
    6.8288   -2.3860   25.4494 N   0  0  0  0  0  0  0  0  0  0  0  0
    7.1318   -3.5386   25.9056 C   0  0  0  0  0  0  0  0  0  0  0  0
    7.6654   -3.7065   27.1068 N   0  0  0  0  0  0  0  0  0  0  0  0
    7.7884   -2.8265   27.5643 H   0  0  0  0  0  0  0  0  0  0  0  0
    7.8491   -4.6243   27.4466 H   0  0  0  0  0  0  0  0  0  0  0  0
    6.9604   -4.6351   25.1646 O   0  0  0  0  0  0  0  0  0  0  0  0
    6.4477   -4.1715   23.8997 C   0  0  0  0  0  0  0  0  0  0  0  0
    7.0975   -4.5690   23.1087 H   0  0  0  0  0  0  0  0  0  0  0  0
    5.4357   -4.5745   23.7732 H   0  0  0  0  0  0  0  0  0  0  0  0
    6.6183   -1.3297   21.9489 N   0  0  0  0  0  0  0  0  0  0  0  0
    7.3544   -0.7307   21.0025 C   0  0  0  0  0  0  0  0  0  0  0  0
    6.6346   -0.0084   19.9312 C   0  0  0  0  0  0  0  0  0  0  0  0
    7.1669    0.0441   18.6334 C   0  0  0  0  0  0  0  0  0  0  0  0
    8.1117   -0.4409   18.3852 H   0  0  0  0  0  0  0  0  0  0  0  0
    6.5729    0.6596   17.6049 N   0  0  0  0  0  0  0  0  0  0  0  0
    5.4119    1.2857   17.8465 C   0  0  0  0  0  0  0  0  0  0  0  0
    4.9468    1.7780   16.9950 H   0  0  0  0  0  0  0  0  0  0  0  0
    4.8045    1.3144   19.1067 C   0  0  0  0  0  0  0  0  0  0  0  0
    3.8719    1.8497   19.2443 H   0  0  0  0  0  0  0  0  0  0  0  0
    5.4199    0.6531   20.1659 C   0  0  0  0  0  0  0  0  0  0  0  0
    4.9781    0.6393   21.1643 H   0  0  0  0  0  0  0  0  0  0  0  0
    8.7475   -0.7594   21.0361 C   0  0  0  0  0  0  0  0  0  0  0  0
    9.3534   -0.2414   20.3072 H   0  0  0  0  0  0  0  0  0  0  0  0
  1  2  1  0
  2  3  2  0
  3  4  1  0
  4  5  1  0
  5  6  1  1
  5  7  1  0
  7  8  2  0
  8  9  1  0
  9 10  1  0
  9 11  1  0
  8 12  1  0
 12 13  1  0
 13 14  1  0
 13 15  1  0
  4 16  2  0
 16 17  1  0
 17 18  1  0
 18 19  2  0
 19 20  1  0
 19 21  1  0
 21 22  2  0
 22 23  1  0
 22 24  1  0
 24 25  1  0
 24 26  2  0
 26 27  1  0
 17 28  2  0
 28 29  1  0
 28  2  1  0
 13  5  1  0
 26 18  1  0
M  END
>  <cnnaffinity>  (1) 
-4.60346

>  <filename>  (1) 
NC1=N[C@@H](c2nccc(-c3cccnc3)n2)CO1

$$$$
