
     RDKit          3D

 27 29  0  0  0  0  0  0  0  0999 V2000
    4.9329    1.7862   16.9920 H   0  0  0  0  0  0  0  0  0  0  0  0
    5.4031    1.2864   17.8385 C   0  0  0  0  0  0  0  0  0  0  0  0
    6.5687    0.6660   17.5920 N   0  0  0  0  0  0  0  0  0  0  0  0
    7.1803    0.0510   18.6067 C   0  0  0  0  0  0  0  0  0  0  0  0
    8.1235   -0.4394   18.3775 H   0  0  0  0  0  0  0  0  0  0  0  0
    6.6599    0.0285   19.9167 C   0  0  0  0  0  0  0  0  0  0  0  0
    7.3757   -0.6170   20.9835 N   0  0  0  0  0  0  0  0  0  0  0  0
    8.1214   -1.7299   20.7612 N   0  0  0  0  0  0  0  0  0  0  0  0
    8.5859   -2.1051   21.8914 N   0  0  0  0  0  0  0  0  0  0  0  0
    8.1875   -1.2834   22.9020 N   0  0  0  0  0  0  0  0  0  0  0  0
    7.4505   -0.3692   22.3203 C   0  0  0  0  0  0  0  0  0  0  0  0
    6.7805    0.6389   22.8613 O   0  0  0  0  0  0  0  0  0  0  0  0
    6.9550    0.9090   24.2675 C   0  0  2  0  0  0  0  0  0  0  0  0
    6.4376    1.8650   24.3702 H   0  0  0  0  0  0  0  0  0  0  0  0
    8.3234    0.9905   24.6533 N   0  0  0  0  0  0  0  0  0  0  0  0
    8.4487    0.1442   25.6008 C   0  0  0  0  0  0  0  0  0  0  0  0
    9.5836   -0.0542   26.2407 N   0  0  0  0  0  0  0  0  0  0  0  0
   10.2944    0.5901   25.9506 H   0  0  0  0  0  0  0  0  0  0  0  0
    9.5964   -0.6899   27.0086 H   0  0  0  0  0  0  0  0  0  0  0  0
    7.4053   -0.5812   26.0164 O   0  0  0  0  0  0  0  0  0  0  0  0
    6.3195   -0.1946   25.1475 C   0  0  0  0  0  0  0  0  0  0  0  0
    5.4889    0.1784   25.7518 H   0  0  0  0  0  0  0  0  0  0  0  0
    5.9988   -1.0534   24.5505 H   0  0  0  0  0  0  0  0  0  0  0  0
    5.4342    0.6536   20.1653 C   0  0  0  0  0  0  0  0  0  0  0  0
    5.0115    0.6442   21.1674 H   0  0  0  0  0  0  0  0  0  0  0  0
    4.8018    1.3009   19.1000 C   0  0  0  0  0  0  0  0  0  0  0  0
    3.8721    1.8385   19.2491 H   0  0  0  0  0  0  0  0  0  0  0  0
  1  2  1  0
  2  3  2  0
  3  4  1  0
  4  5  1  0
  4  6  2  0
  6  7  1  0
  7  8  1  0
  8  9  2  0
  9 10  1  0
 10 11  2  0
 11 12  1  0
 12 13  1  0
 13 14  1  1
 13 15  1  0
 15 16  2  0
 16 17  1  0
 17 18  1  0
 17 19  1  0
 16 20  1  0
 20 21  1  0
 21 22  1  0
 21 23  1  0
  6 24  1  0
 24 25  1  0
 24 26  2  0
 26 27  1  0
 26  2  1  0
 11  7  1  0
 21 13  1  0
M  END
>  <cnnaffinity>  (1) 
-4.38141

>  <filename>  (1) 
NC1=N[C@@H](Oc2nnnn2-c2cccnc2)CO1

$$$$
