
     RDKit          3D

 31 33  0  0  0  0  0  0  0  0999 V2000
    4.9782    1.8109   16.9583 H   0  0  0  0  0  0  0  0  0  0  0  0
    5.4179    1.3025   17.8145 C   0  0  0  0  0  0  0  0  0  0  0  0
    6.5745    0.6575   17.5950 N   0  0  0  0  0  0  0  0  0  0  0  0
    7.1416    0.0481   18.6448 C   0  0  0  0  0  0  0  0  0  0  0  0
    8.0761   -0.4726   18.4368 H   0  0  0  0  0  0  0  0  0  0  0  0
    6.6022    0.0230   19.9467 C   0  0  0  0  0  0  0  0  0  0  0  0
    7.3073   -0.6712   21.0467 C   0  0  0  0  0  0  0  0  0  0  0  0
    8.6291   -0.6112   21.4456 C   0  0  0  0  0  0  0  0  0  0  0  0
    9.6984    0.2640   20.8783 C   0  0  0  0  0  0  0  0  0  0  0  0
    9.6582    0.2197   19.7857 H   0  0  0  0  0  0  0  0  0  0  0  0
   10.6893   -0.1006   21.1497 H   0  0  0  0  0  0  0  0  0  0  0  0
    9.6318    1.7442   21.2590 C   0  0  2  0  0  0  0  0  0  0  0  0
    8.7524    2.1767   20.7634 H   0  0  0  0  0  0  0  0  0  0  0  0
   10.8520    2.4054   20.7861 N   0  0  0  0  0  0  0  0  0  0  0  0
   11.2279    3.1336   21.7491 C   0  0  0  0  0  0  0  0  0  0  0  0
   12.2206    4.0643   21.7076 N   0  0  0  0  0  0  0  0  0  0  0  0
   12.3634    4.2691   20.7298 H   0  0  0  0  0  0  0  0  0  0  0  0
   11.8892    4.8528   22.2455 H   0  0  0  0  0  0  0  0  0  0  0  0
   10.5845    3.0959   22.9303 O   0  0  0  0  0  0  0  0  0  0  0  0
    9.5371    2.1215   22.7638 C   0  0  0  0  0  0  0  0  0  0  0  0
    8.5843    2.5996   23.0222 H   0  0  0  0  0  0  0  0  0  0  0  0
    9.7107    1.2928   23.4606 H   0  0  0  0  0  0  0  0  0  0  0  0
    8.7226   -1.5116   22.5330 C   0  0  0  0  0  0  0  0  0  0  0  0
    9.5921   -1.7543   23.1393 H   0  0  0  0  0  0  0  0  0  0  0  0
    7.5544   -2.0846   22.7994 N   0  0  0  0  0  0  0  0  0  0  0  0
    6.7123   -1.5478   21.8992 N   0  0  0  0  0  0  0  0  0  0  0  0
    5.7474   -1.8514   21.8851 H   0  0  0  0  0  0  0  0  0  0  0  0
    5.3758    0.6814   20.1430 C   0  0  0  0  0  0  0  0  0  0  0  0
    4.9089    0.6993   21.1307 H   0  0  0  0  0  0  0  0  0  0  0  0
    4.7847    1.3315   19.0613 C   0  0  0  0  0  0  0  0  0  0  0  0
    3.8507    1.8687   19.1700 H   0  0  0  0  0  0  0  0  0  0  0  0
  1  2  1  0
  2  3  2  0
  3  4  1  0
  4  5  1  0
  4  6  2  0
  6  7  1  0
  7  8  2  0
  8  9  1  0
  9 10  1  0
  9 11  1  0
  9 12  1  0
 12 13  1  6
 12 14  1  0
 14 15  2  0
 15 16  1  0
 16 17  1  0
 16 18  1  0
 15 19  1  0
 19 20  1  0
 20 21  1  0
 20 22  1  0
  8 23  1  0
 23 24  1  0
 23 25  2  0
 25 26  1  0
 26 27  1  0
  6 28  1  0
 28 29  1  0
 28 30  2  0
 30 31  1  0
 30  2  1  0
 26  7  1  0
 20 12  1  0
M  END
>  <cnnaffinity>  (1) 
-5.11777

>  <filename>  (1) 
NC1=N[C@@H](Cc2cn[nH]c2-c2cccnc2)CO1

$$$$
