
     RDKit          3D

 30 33  0  0  0  0  0  0  0  0999 V2000
    4.9481    1.7868   16.9794 H   0  0  0  0  0  0  0  0  0  0  0  0
    5.4065    1.2858   17.8302 C   0  0  0  0  0  0  0  0  0  0  0  0
    6.5661    0.6562   17.5891 N   0  0  0  0  0  0  0  0  0  0  0  0
    7.1662    0.0708   18.6303 C   0  0  0  0  0  0  0  0  0  0  0  0
    8.1125   -0.4154   18.3991 H   0  0  0  0  0  0  0  0  0  0  0  0
    6.6679    0.0786   19.9505 C   0  0  0  0  0  0  0  0  0  0  0  0
    7.4472   -0.5913   21.0104 C   0  0  0  0  0  0  0  0  0  0  0  0
    8.3195   -1.6088   20.8534 C   0  0  0  0  0  0  0  0  0  0  0  0
    8.7510   -1.9781   19.9385 H   0  0  0  0  0  0  0  0  0  0  0  0
    8.8941   -2.2677   22.3584 S   0  0  0  0  0  0  0  0  0  0  0  0
    8.0871   -1.0015   23.2171 C   0  0  0  0  0  0  0  0  0  0  0  0
    8.0835   -0.5037   24.4413 N   0  0  0  0  0  0  0  0  0  0  0  0
    7.2875    0.5950   24.2788 C   0  0  0  0  0  0  0  0  0  0  0  0
    7.0690    1.6126   25.3875 C   0  0  2  0  0  0  0  0  0  0  0  0
    7.3932    1.1077   26.3014 H   0  0  0  0  0  0  0  0  0  0  0  0
    5.7038    2.1146   25.5648 N   0  0  0  0  0  0  0  0  0  0  0  0
    5.7690    3.3492   25.2458 C   0  0  0  0  0  0  0  0  0  0  0  0
    4.7175    4.1371   25.0882 N   0  0  0  0  0  0  0  0  0  0  0  0
    4.8781    5.0886   24.8436 H   0  0  0  0  0  0  0  0  0  0  0  0
    3.8393    3.6771   25.1851 H   0  0  0  0  0  0  0  0  0  0  0  0
    6.9468    3.9395   25.0228 O   0  0  0  0  0  0  0  0  0  0  0  0
    7.9332    2.9023   25.1479 C   0  0  0  0  0  0  0  0  0  0  0  0
    8.5208    2.8904   24.2232 H   0  0  0  0  0  0  0  0  0  0  0  0
    8.6036    3.1424   25.9821 H   0  0  0  0  0  0  0  0  0  0  0  0
    6.8306    0.8041   23.0488 N   0  0  0  0  0  0  0  0  0  0  0  0
    7.3434   -0.2587   22.3711 N   0  0  0  0  0  0  0  0  0  0  0  0
    5.4332    0.7182   20.1753 C   0  0  0  0  0  0  0  0  0  0  0  0
    5.0055    0.7545   21.1801 H   0  0  0  0  0  0  0  0  0  0  0  0
    4.7965    1.3219   19.0893 C   0  0  0  0  0  0  0  0  0  0  0  0
    3.8498    1.8374   19.2059 H   0  0  0  0  0  0  0  0  0  0  0  0
  1  2  1  0
  2  3  2  0
  3  4  1  0
  4  5  1  0
  4  6  2  0
  6  7  1  0
  7  8  2  0
  8  9  1  0
  8 10  1  0
 10 11  1  0
 11 12  2  0
 12 13  1  0
 13 14  1  0
 14 15  1  1
 14 16  1  0
 16 17  2  0
 17 18  1  0
 18 19  1  0
 18 20  1  0
 17 21  1  0
 21 22  1  0
 22 23  1  0
 22 24  1  0
 13 25  2  0
 25 26  1  0
  6 27  1  0
 27 28  1  0
 27 29  2  0
 29 30  1  0
 29  2  1  0
 26  7  1  0
 26 11  1  0
 22 14  1  0
M  END
>  <cnnaffinity>  (1) 
-4.96173

>  <filename>  (1) 
NC1=N[C@@H](c2nc3scc(-c4cccnc4)n3n2)CO1

$$$$
