
     RDKit          3D

 28 30  0  0  0  0  0  0  0  0999 V2000
    4.9666    1.8015   16.9739 H   0  0  0  0  0  0  0  0  0  0  0  0
    5.4133    1.2827   17.8189 C   0  0  0  0  0  0  0  0  0  0  0  0
    6.5733    0.6487   17.5797 N   0  0  0  0  0  0  0  0  0  0  0  0
    7.1563    0.0173   18.6025 C   0  0  0  0  0  0  0  0  0  0  0  0
    8.1019   -0.4804   18.3854 H   0  0  0  0  0  0  0  0  0  0  0  0
    6.6319   -0.0046   19.9028 C   0  0  0  0  0  0  0  0  0  0  0  0
    7.3685   -0.6953   20.9621 C   0  0  0  0  0  0  0  0  0  0  0  0
    7.8819   -1.9550   20.7723 N   0  0  0  0  0  0  0  0  0  0  0  0
    8.3476   -2.3330   21.9328 C   0  0  0  0  0  0  0  0  0  0  0  0
    8.7789   -3.3020   22.1572 H   0  0  0  0  0  0  0  0  0  0  0  0
    8.2057   -1.3605   22.8693 N   0  0  0  0  0  0  0  0  0  0  0  0
    8.4534   -1.4527   23.8438 H   0  0  0  0  0  0  0  0  0  0  0  0
    7.6014   -0.2818   22.2561 C   0  0  0  0  0  0  0  0  0  0  0  0
    7.3252    1.0559   22.8718 C   0  0  2  0  0  0  0  0  0  0  0  0
    6.3044    1.0179   23.2963 H   0  0  0  0  0  0  0  0  0  0  0  0
    7.3846    2.1348   21.8912 N   0  0  0  0  0  0  0  0  0  0  0  0
    8.0340    3.0613   22.4598 C   0  0  0  0  0  0  0  0  0  0  0  0
    8.1552    4.3217   21.9914 N   0  0  0  0  0  0  0  0  0  0  0  0
    7.9845    4.2666   20.9985 H   0  0  0  0  0  0  0  0  0  0  0  0
    9.0664    4.6710   22.2259 H   0  0  0  0  0  0  0  0  0  0  0  0
    8.6620    2.8493   23.6201 O   0  0  0  0  0  0  0  0  0  0  0  0
    8.3140    1.5031   23.9917 C   0  0  0  0  0  0  0  0  0  0  0  0
    9.2348    0.9142   24.0310 H   0  0  0  0  0  0  0  0  0  0  0  0
    7.8469    1.5275   24.9796 H   0  0  0  0  0  0  0  0  0  0  0  0
    5.4080    0.6449   20.1321 C   0  0  0  0  0  0  0  0  0  0  0  0
    4.9674    0.6688   21.1296 H   0  0  0  0  0  0  0  0  0  0  0  0
    4.7898    1.2959   19.0692 C   0  0  0  0  0  0  0  0  0  0  0  0
    3.8606    1.8324   19.2109 H   0  0  0  0  0  0  0  0  0  0  0  0
  1  2  1  0
  2  3  2  0
  3  4  1  0
  4  5  1  0
  4  6  2  0
  6  7  1  0
  7  8  1  0
  8  9  2  0
  9 10  1  0
  9 11  1  0
 11 12  1  0
 11 13  1  0
 13 14  1  0
 14 15  1  1
 14 16  1  0
 16 17  2  0
 17 18  1  0
 18 19  1  0
 18 20  1  0
 17 21  1  0
 21 22  1  0
 22 23  1  0
 22 24  1  0
  6 25  1  0
 25 26  1  0
 25 27  2  0
 27 28  1  0
 27  2  1  0
 13  7  2  0
 22 14  1  0
M  END
>  <cnnaffinity>  (1) 
-4.54773

>  <filename>  (1) 
NC1=N[C@@H](c2[nH]cnc2-c2cccnc2)CO1

$$$$
