
     RDKit          3D

 33 35  0  0  0  0  0  0  0  0999 V2000
    4.9098    1.8460   16.9421 H   0  0  0  0  0  0  0  0  0  0  0  0
    5.3929    1.3432   17.7781 C   0  0  0  0  0  0  0  0  0  0  0  0
    6.5587    0.7387   17.5014 N   0  0  0  0  0  0  0  0  0  0  0  0
    7.1767    0.1151   18.5143 C   0  0  0  0  0  0  0  0  0  0  0  0
    8.1195   -0.3668   18.2540 H   0  0  0  0  0  0  0  0  0  0  0  0
    6.6715    0.0200   19.8364 C   0  0  0  0  0  0  0  0  0  0  0  0
    7.4122   -0.6898   20.9321 C   0  0  0  0  0  0  0  0  0  0  0  0
    8.7096   -0.4093   21.1929 C   0  0  0  0  0  0  0  0  0  0  0  0
    9.2650    0.3314   20.6159 H   0  0  0  0  0  0  0  0  0  0  0  0
    9.4333   -1.0261   22.2076 N   0  0  0  0  0  0  0  0  0  0  0  0
   10.8305   -0.7213   22.3637 C   0  0  0  0  0  0  0  0  0  0  0  0
   11.7900   -1.7261   22.2094 C   0  0  0  0  0  0  0  0  0  0  0  0
   11.4670   -2.7539   22.0947 H   0  0  0  0  0  0  0  0  0  0  0  0
   13.1437   -1.3785   22.2626 C   0  0  0  0  0  0  0  0  0  0  0  0
   13.8952   -2.1417   22.0849 H   0  0  0  0  0  0  0  0  0  0  0  0
   13.5328   -0.0818   22.6087 C   0  0  0  0  0  0  0  0  0  0  0  0
   14.5730    0.1895   22.7681 H   0  0  0  0  0  0  0  0  0  0  0  0
   12.5594    0.9041   22.8167 C   0  0  0  0  0  0  0  0  0  0  0  0
   12.9298    2.1669   23.2677 N   0  0  0  0  0  0  0  0  0  0  0  0
   13.8830    2.4068   23.0431 H   0  0  0  0  0  0  0  0  0  0  0  0
   12.3020    2.8957   22.9678 H   0  0  0  0  0  0  0  0  0  0  0  0
   11.2085    0.5950   22.6211 C   0  0  0  0  0  0  0  0  0  0  0  0
   10.4578    1.3742   22.7041 H   0  0  0  0  0  0  0  0  0  0  0  0
    8.8490   -1.9866   23.0449 C   0  0  0  0  0  0  0  0  0  0  0  0
    9.4268   -2.6153   23.9023 O   0  0  0  0  0  0  0  0  0  0  0  0
    7.5215   -2.1804   22.8273 N   0  0  0  0  0  0  0  0  0  0  0  0
    7.1288   -2.9323   23.3558 H   0  0  0  0  0  0  0  0  0  0  0  0
    6.7588   -1.7467   21.7607 C   0  0  0  0  0  0  0  0  0  0  0  0
    5.6894   -2.2896   21.5823 O   0  0  0  0  0  0  0  0  0  0  0  0
    5.4372    0.6474   20.0851 C   0  0  0  0  0  0  0  0  0  0  0  0
    5.0074    0.6102   21.0860 H   0  0  0  0  0  0  0  0  0  0  0  0
    4.8005    1.3299   19.0422 C   0  0  0  0  0  0  0  0  0  0  0  0
    3.8624    1.8495   19.1925 H   0  0  0  0  0  0  0  0  0  0  0  0
  1  2  1  0
  2  3  2  0
  3  4  1  0
  4  5  1  0
  4  6  2  0
  6  7  1  0
  7  8  2  0
  8  9  1  0
  8 10  1  0
 10 11  1  0
 11 12  2  0
 12 13  1  0
 12 14  1  0
 14 15  1  0
 14 16  2  0
 16 17  1  0
 16 18  1  0
 18 19  1  0
 19 20  1  0
 19 21  1  0
 18 22  2  0
 22 23  1  0
 10 24  1  0
 24 25  2  0
 24 26  1  0
 26 27  1  0
 26 28  1  0
 28 29  2  0
  6 30  1  0
 30 31  1  0
 30 32  2  0
 32 33  1  0
 32  2  1  0
 28  7  1  0
 22 11  1  0
M  END
>  <cnnaffinity>  (1) 
-5.17783

>  <filename>  (1) 
Nc1cccc(-n2cc(-c3cccnc3)c(=O)[nH]c2=O)c1

$$$$
