
     RDKit          3D

 21 22  0  0  0  0  0  0  0  0999 V2000
    4.9424    1.7994   16.9841 H   0  0  0  0  0  0  0  0  0  0  0  0
    5.4110    1.2908   17.8245 C   0  0  0  0  0  0  0  0  0  0  0  0
    6.5630    0.6523   17.5718 N   0  0  0  0  0  0  0  0  0  0  0  0
    7.1772    0.0340   18.5888 C   0  0  0  0  0  0  0  0  0  0  0  0
    8.1182   -0.4570   18.3543 H   0  0  0  0  0  0  0  0  0  0  0  0
    6.6591   -0.0034   19.9037 C   0  0  0  0  0  0  0  0  0  0  0  0
    7.3092   -0.6866   20.9761 N   0  0  0  0  0  0  0  0  0  0  0  0
    6.6800   -1.6534   21.7866 C   0  0  0  0  0  0  0  0  0  0  0  0
    5.6405   -1.9043   21.6917 H   0  0  0  0  0  0  0  0  0  0  0  0
    7.6138   -2.1161   22.6357 C   0  0  0  0  0  0  0  0  0  0  0  0
    7.6681   -3.1429   23.5538 N   0  0  0  0  0  0  0  0  0  0  0  0
    6.7910   -3.2836   24.0380 H   0  0  0  0  0  0  0  0  0  0  0  0
    8.4035   -2.9796   24.2299 H   0  0  0  0  0  0  0  0  0  0  0  0
    8.7639   -1.4244   22.3951 N   0  0  0  0  0  0  0  0  0  0  0  0
    9.6363   -1.5351   22.8718 H   0  0  0  0  0  0  0  0  0  0  0  0
    8.6096   -0.5110   21.3960 C   0  0  0  0  0  0  0  0  0  0  0  0
    9.7708    0.5585   20.8924 S   0  0  0  0  0  0  0  0  0  0  0  0
    5.4525    0.6557   20.1499 C   0  0  0  0  0  0  0  0  0  0  0  0
    5.0425    0.6537   21.1605 H   0  0  0  0  0  0  0  0  0  0  0  0
    4.8221    1.3148   19.0920 C   0  0  0  0  0  0  0  0  0  0  0  0
    3.8936    1.8496   19.2416 H   0  0  0  0  0  0  0  0  0  0  0  0
  1  2  1  0
  2  3  2  0
  3  4  1  0
  4  5  1  0
  4  6  2  0
  6  7  1  0
  7  8  1  0
  8  9  1  0
  8 10  2  0
 10 11  1  0
 11 12  1  0
 11 13  1  0
 10 14  1  0
 14 15  1  0
 14 16  1  0
 16 17  2  0
  6 18  1  0
 18 19  1  0
 18 20  2  0
 20 21  1  0
 20  2  1  0
 16  7  1  0
M  END
>  <cnnaffinity>  (1) 
-4.29185

>  <filename>  (1) 
Nc1cn(-c2cccnc2)c(=S)[nH]1

$$$$
