
     RDKit          3D

 29 31  0  0  0  0  0  0  0  0999 V2000
    9.6926   -3.9211   26.7541 N   0  0  0  0  0  0  0  0  0  0  0  0
    9.1607   -2.7885   26.2095 C   0  0  0  0  0  0  0  0  0  0  0  0
    9.0525   -2.6267   24.8325 C   0  0  0  0  0  0  0  0  0  0  0  0
    8.3509   -1.5268   24.3538 C   0  0  0  0  0  0  0  0  0  0  0  0
    8.1167   -1.3478   22.9111 C   0  0  0  0  0  0  0  0  0  0  0  0
    7.2501   -0.4809   22.2811 C   0  0  0  0  0  0  0  0  0  0  0  0
    7.3571   -0.6723   20.9431 N   0  0  0  0  0  0  0  0  0  0  0  0
    6.6549   -0.0026   19.9129 C   0  0  0  0  0  0  0  0  0  0  0  0
    5.4329    0.6405   20.1591 C   0  0  0  0  0  0  0  0  0  0  0  0
    4.8137    1.2971   19.0958 C   0  0  0  0  0  0  0  0  0  0  0  0
    5.4256    1.2828   17.8390 C   0  0  0  0  0  0  0  0  0  0  0  0
    6.5896    0.6555   17.5963 N   0  0  0  0  0  0  0  0  0  0  0  0
    7.1886    0.0314   18.6128 C   0  0  0  0  0  0  0  0  0  0  0  0
    8.1357   -0.4613   18.3983 H   0  0  0  0  0  0  0  0  0  0  0  0
    4.9687    1.7902   16.9937 H   0  0  0  0  0  0  0  0  0  0  0  0
    3.8805    1.8321   19.2410 H   0  0  0  0  0  0  0  0  0  0  0  0
    4.9740    0.6250   21.1476 H   0  0  0  0  0  0  0  0  0  0  0  0
    8.2727   -1.6151   20.6531 N   0  0  0  0  0  0  0  0  0  0  0  0
    8.7218   -2.0320   21.8198 C   0  0  0  0  0  0  0  0  0  0  0  0
    9.4777   -2.8074   21.8279 H   0  0  0  0  0  0  0  0  0  0  0  0
    6.5702    0.2645   22.6679 H   0  0  0  0  0  0  0  0  0  0  0  0
    7.8497   -0.6149   25.3043 C   0  0  0  0  0  0  0  0  0  0  0  0
    8.1035   -0.8429   26.6534 C   0  0  0  0  0  0  0  0  0  0  0  0
    8.7667   -1.9073   27.1250 N   0  0  0  0  0  0  0  0  0  0  0  0
    7.7336   -0.1436   27.4036 H   0  0  0  0  0  0  0  0  0  0  0  0
    7.2688    0.2467   25.0023 H   0  0  0  0  0  0  0  0  0  0  0  0
    9.4970   -3.3838   24.1980 H   0  0  0  0  0  0  0  0  0  0  0  0
   10.4332   -4.3117   26.1976 H   0  0  0  0  0  0  0  0  0  0  0  0
   10.0070   -3.6259   27.6626 H   0  0  0  0  0  0  0  0  0  0  0  0
  1  2  1  0
  2  3  2  0
  3  4  1  0
  4  5  1  0
  5  6  2  0
  6  7  1  0
  7  8  1  0
  8  9  2  0
  9 10  1  0
 10 11  2  0
 11 12  1  0
 12 13  2  0
 13 14  1  0
 11 15  1  0
 10 16  1  0
  9 17  1  0
  7 18  1  0
 18 19  2  0
 19 20  1  0
  6 21  1  0
  4 22  2  0
 22 23  1  0
 23 24  2  0
 23 25  1  0
 22 26  1  0
  3 27  1  0
  1 28  1  0
  1 29  1  0
 24  2  1  0
 19  5  1  0
 13  8  1  0
M  END
>  <cnnaffinity>  (1) 
-4.86749

>  <filename>  (1) 
Nc1cc(-c2cnn(-c3cccnc3)c2)ccn1

$$$$
