
     RDKit          3D

 22 23  0  0  0  0  0  0  0  0999 V2000
    4.9331    1.7776   16.9990 H   0  0  0  0  0  0  0  0  0  0  0  0
    5.4127    1.2836   17.8431 C   0  0  0  0  0  0  0  0  0  0  0  0
    6.5777    0.6646   17.5843 N   0  0  0  0  0  0  0  0  0  0  0  0
    7.2162    0.0862   18.6083 C   0  0  0  0  0  0  0  0  0  0  0  0
    8.1538   -0.4132   18.3762 H   0  0  0  0  0  0  0  0  0  0  0  0
    6.7043    0.0555   19.9198 C   0  0  0  0  0  0  0  0  0  0  0  0
    7.4042   -0.6360   20.9552 N   0  0  0  0  0  0  0  0  0  0  0  0
    8.7621   -0.3371   21.0593 N   0  0  0  0  0  0  0  0  0  0  0  0
    9.4200   -0.9117   22.0316 C   0  0  0  0  0  0  0  0  0  0  0  0
   10.7148   -0.5676   22.1948 N   0  0  0  0  0  0  0  0  0  0  0  0
   11.2677   -0.9983   22.9044 H   0  0  0  0  0  0  0  0  0  0  0  0
   11.0658    0.1272   21.5625 H   0  0  0  0  0  0  0  0  0  0  0  0
    8.8419   -1.8979   22.9181 C   0  0  0  0  0  0  0  0  0  0  0  0
    9.4910   -2.3326   23.6744 H   0  0  0  0  0  0  0  0  0  0  0  0
    7.5468   -2.2471   22.7612 C   0  0  0  0  0  0  0  0  0  0  0  0
    7.0218   -2.9885   23.3555 H   0  0  0  0  0  0  0  0  0  0  0  0
    6.7200   -1.6492   21.7053 C   0  0  0  0  0  0  0  0  0  0  0  0
    5.5786   -2.0044   21.4618 O   0  0  0  0  0  0  0  0  0  0  0  0
    5.4658    0.6558   20.1731 C   0  0  0  0  0  0  0  0  0  0  0  0
    5.0178    0.6013   21.1632 H   0  0  0  0  0  0  0  0  0  0  0  0
    4.8286    1.3043   19.1125 C   0  0  0  0  0  0  0  0  0  0  0  0
    3.8917    1.8263   19.2590 H   0  0  0  0  0  0  0  0  0  0  0  0
  1  2  1  0
  2  3  2  0
  3  4  1  0
  4  5  1  0
  4  6  2  0
  6  7  1  0
  7  8  1  0
  8  9  2  0
  9 10  1  0
 10 11  1  0
 10 12  1  0
  9 13  1  0
 13 14  1  0
 13 15  2  0
 15 16  1  0
 15 17  1  0
 17 18  2  0
  6 19  1  0
 19 20  1  0
 19 21  2  0
 21 22  1  0
 21  2  1  0
 17  7  1  0
M  END
>  <cnnaffinity>  (1) 
-4.08946

>  <filename>  (1) 
Nc1ccc(=O)n(-c2cccnc2)n1

$$$$
