
     RDKit          3D

 31 33  0  0  0  0  0  0  0  0999 V2000
    4.9428    1.8061   16.9638 H   0  0  0  0  0  0  0  0  0  0  0  0
    5.4005    1.2967   17.8064 C   0  0  0  0  0  0  0  0  0  0  0  0
    6.5624    0.6703   17.5573 N   0  0  0  0  0  0  0  0  0  0  0  0
    7.1606    0.0555   18.5842 C   0  0  0  0  0  0  0  0  0  0  0  0
    8.1172   -0.4092   18.3469 H   0  0  0  0  0  0  0  0  0  0  0  0
    6.6382    0.0149   19.8919 C   0  0  0  0  0  0  0  0  0  0  0  0
    7.3330   -0.6306   21.0037 C   0  0  0  0  0  0  0  0  0  0  0  0
    7.2312   -0.4121   22.3374 C   0  0  0  0  0  0  0  0  0  0  0  0
    6.6384    0.2778   22.9213 H   0  0  0  0  0  0  0  0  0  0  0  0
    8.0884   -1.2924   22.9962 N   0  0  0  0  0  0  0  0  0  0  0  0
    8.2859   -1.3893   24.3991 C   0  0  0  0  0  0  0  0  0  0  0  0
    8.4870   -2.6405   25.0062 C   0  0  0  0  0  0  0  0  0  0  0  0
    8.5106   -3.5229   24.3787 H   0  0  0  0  0  0  0  0  0  0  0  0
    8.6673   -2.7053   26.3920 C   0  0  0  0  0  0  0  0  0  0  0  0
    8.8161   -3.6718   26.8776 H   0  0  0  0  0  0  0  0  0  0  0  0
    8.6463   -1.5323   27.1496 C   0  0  0  0  0  0  0  0  0  0  0  0
    8.8326   -1.5263   28.2130 H   0  0  0  0  0  0  0  0  0  0  0  0
    8.3864   -0.2934   26.5488 C   0  0  0  0  0  0  0  0  0  0  0  0
    8.1767    0.8249   27.3382 N   0  0  0  0  0  0  0  0  0  0  0  0
    8.3341    1.6970   26.8654 H   0  0  0  0  0  0  0  0  0  0  0  0
    8.6709    0.7843   28.2164 H   0  0  0  0  0  0  0  0  0  0  0  0
    8.2489   -0.2208   25.1614 C   0  0  0  0  0  0  0  0  0  0  0  0
    8.1014    0.7419   24.6848 H   0  0  0  0  0  0  0  0  0  0  0  0
    8.7278   -2.0993   22.0609 C   0  0  0  0  0  0  0  0  0  0  0  0
    9.4860   -3.0323   22.2315 O   0  0  0  0  0  0  0  0  0  0  0  0
    8.2899   -1.6313   20.8475 N   0  0  0  0  0  0  0  0  0  0  0  0
    8.5382   -2.1823   20.0467 H   0  0  0  0  0  0  0  0  0  0  0  0
    5.4113    0.6675   20.1203 C   0  0  0  0  0  0  0  0  0  0  0  0
    4.9631    0.6567   21.1144 H   0  0  0  0  0  0  0  0  0  0  0  0
    4.7852    1.3179   19.0616 C   0  0  0  0  0  0  0  0  0  0  0  0
    3.8546    1.8584   19.2032 H   0  0  0  0  0  0  0  0  0  0  0  0
  1  2  1  0
  2  3  2  0
  3  4  1  0
  4  5  1  0
  4  6  2  0
  6  7  1  0
  7  8  2  0
  8  9  1  0
  8 10  1  0
 10 11  1  0
 11 12  2  0
 12 13  1  0
 12 14  1  0
 14 15  1  0
 14 16  2  0
 16 17  1  0
 16 18  1  0
 18 19  1  0
 19 20  1  0
 19 21  1  0
 18 22  2  0
 22 23  1  0
 10 24  1  0
 24 25  2  0
 24 26  1  0
 26 27  1  0
  6 28  1  0
 28 29  1  0
 28 30  2  0
 30 31  1  0
 30  2  1  0
 26  7  1  0
 22 11  1  0
M  END
>  <cnnaffinity>  (1) 
-5.2204

>  <filename>  (1) 
Nc1cccc(-n2cc(-c3cccnc3)[nH]c2=O)c1

$$$$
