
     RDKit          3D

 33 35  0  0  0  0  0  0  0  0999 V2000
    7.0580    1.7406   22.1424 H   0  0  0  0  0  0  0  0  0  0  0  0
    7.3111    0.9318   22.8376 C   0  0  0  0  0  0  0  0  0  0  0  0
    7.5302   -0.3048   22.3575 C   0  0  0  0  0  0  0  0  0  0  0  0
    7.3786   -0.7505   20.9552 C   0  0  0  0  0  0  0  0  0  0  0  0
    6.6423    0.0140   19.9215 C   0  0  0  0  0  0  0  0  0  0  0  0
    7.1603    0.0378   18.6192 C   0  0  0  0  0  0  0  0  0  0  0  0
    8.0997   -0.4624   18.3904 H   0  0  0  0  0  0  0  0  0  0  0  0
    6.5725    0.6656   17.5981 N   0  0  0  0  0  0  0  0  0  0  0  0
    5.4120    1.2953   17.8410 C   0  0  0  0  0  0  0  0  0  0  0  0
    4.9527    1.7990   16.9924 H   0  0  0  0  0  0  0  0  0  0  0  0
    4.7963    1.3157   19.0959 C   0  0  0  0  0  0  0  0  0  0  0  0
    3.8600    1.8479   19.2295 H   0  0  0  0  0  0  0  0  0  0  0  0
    5.4238    0.6704   20.1610 C   0  0  0  0  0  0  0  0  0  0  0  0
    4.9858    0.6761   21.1608 H   0  0  0  0  0  0  0  0  0  0  0  0
    7.9497   -1.8673   20.6975 N   0  0  0  0  0  0  0  0  0  0  0  0
    8.5435   -2.4149   21.9191 C   0  0  0  0  0  0  0  0  0  0  0  0
    9.6244   -2.4947   21.7667 H   0  0  0  0  0  0  0  0  0  0  0  0
    8.1621   -3.4288   22.0738 H   0  0  0  0  0  0  0  0  0  0  0  0
    8.1847   -1.4613   23.0893 C   0  0  0  0  0  0  0  0  0  0  0  0
    9.0550   -1.1312   23.6661 H   0  0  0  0  0  0  0  0  0  0  0  0
    7.4840   -1.9358   23.7859 H   0  0  0  0  0  0  0  0  0  0  0  0
    7.5146    1.3575   24.2260 C   0  0  0  0  0  0  0  0  0  0  0  0
    7.1042    0.6080   25.3440 C   0  0  0  0  0  0  0  0  0  0  0  0
    6.5567   -0.3233   25.1964 H   0  0  0  0  0  0  0  0  0  0  0  0
    7.2811    0.9816   26.6168 N   0  0  0  0  0  0  0  0  0  0  0  0
    7.8473    2.1691   26.7959 C   0  0  0  0  0  0  0  0  0  0  0  0
    7.8155    2.5998   28.0841 N   0  0  0  0  0  0  0  0  0  0  0  0
    8.5552    3.2427   28.2867 H   0  0  0  0  0  0  0  0  0  0  0  0
    7.8166    1.7565   28.6387 H   0  0  0  0  0  0  0  0  0  0  0  0
    8.3947    2.9721   25.7866 C   0  0  0  0  0  0  0  0  0  0  0  0
    8.9320    3.8673   26.0869 H   0  0  0  0  0  0  0  0  0  0  0  0
    8.1877    2.5774   24.4807 C   0  0  0  0  0  0  0  0  0  0  0  0
    8.5465    3.1868   23.6507 H   0  0  0  0  0  0  0  0  0  0  0  0
  1  2  1  0
  2  3  2  3
  3  4  1  0
  4  5  1  0
  5  6  2  0
  6  7  1  0
  6  8  1  0
  8  9  2  0
  9 10  1  0
  9 11  1  0
 11 12  1  0
 11 13  2  0
 13 14  1  0
  4 15  2  0
 15 16  1  0
 16 17  1  0
 16 18  1  0
 16 19  1  0
 19 20  1  0
 19 21  1  0
  2 22  1  0
 22 23  2  0
 23 24  1  0
 23 25  1  0
 25 26  2  0
 26 27  1  0
 27 28  1  0
 27 29  1  0
 26 30  1  0
 30 31  1  0
 30 32  2  0
 32 33  1  0
 19  3  1  0
 32 22  1  0
 13  5  1  0
M  END
>  <cnnaffinity>  (1) 
-5.0925

>  <filename>  (1) 
Nc1ccc(C=C2CCN=C2c2cccnc2)cn1

$$$$
