
     RDKit          3D

 31 33  0  0  0  0  0  0  0  0999 V2000
    4.9631    1.7924   16.9445 H   0  0  0  0  0  0  0  0  0  0  0  0
    5.4623    1.3257   17.7930 C   0  0  0  0  0  0  0  0  0  0  0  0
    6.6556    0.7637   17.5403 N   0  0  0  0  0  0  0  0  0  0  0  0
    7.2752    0.1596   18.5607 C   0  0  0  0  0  0  0  0  0  0  0  0
    8.2481   -0.2780   18.3460 H   0  0  0  0  0  0  0  0  0  0  0  0
    6.7195    0.0308   19.8479 C   0  0  0  0  0  0  0  0  0  0  0  0
    7.4518   -0.7590   20.8837 C   0  0  0  0  0  0  0  0  0  0  0  0
    8.7224   -0.4698   20.9916 N   0  0  0  0  0  0  0  0  0  0  0  0
    9.4461   -1.1265   21.9452 N   0  0  0  0  0  0  0  0  0  0  0  0
   10.8298   -0.8414   21.9802 C   0  0  0  0  0  0  0  0  0  0  0  0
   11.2703    0.4762   21.8416 C   0  0  0  0  0  0  0  0  0  0  0  0
   10.5328    1.2421   21.6067 H   0  0  0  0  0  0  0  0  0  0  0  0
   12.5446    0.8491   21.9880 N   0  0  0  0  0  0  0  0  0  0  0  0
   13.4229   -0.1226   22.2271 C   0  0  0  0  0  0  0  0  0  0  0  0
   14.6792    0.3473   22.4476 N   0  0  0  0  0  0  0  0  0  0  0  0
   15.3792   -0.3226   22.1952 H   0  0  0  0  0  0  0  0  0  0  0  0
   14.7065    1.2433   21.9790 H   0  0  0  0  0  0  0  0  0  0  0  0
   13.1129   -1.4916   22.2248 C   0  0  0  0  0  0  0  0  0  0  0  0
   13.9130   -2.2170   22.2881 H   0  0  0  0  0  0  0  0  0  0  0  0
   11.7783   -1.8662   22.1369 C   0  0  0  0  0  0  0  0  0  0  0  0
   11.4434   -2.9077   22.1697 H   0  0  0  0  0  0  0  0  0  0  0  0
    8.8737   -1.9132   22.9144 C   0  0  0  0  0  0  0  0  0  0  0  0
    9.5578   -2.2396   23.6978 H   0  0  0  0  0  0  0  0  0  0  0  0
    7.5761   -2.2457   22.8802 C   0  0  0  0  0  0  0  0  0  0  0  0
    7.1170   -2.8538   23.6450 H   0  0  0  0  0  0  0  0  0  0  0  0
    6.7701   -1.8277   21.7411 C   0  0  0  0  0  0  0  0  0  0  0  0
    5.6688   -2.3142   21.5175 O   0  0  0  0  0  0  0  0  0  0  0  0
    5.4936    0.6614   20.1061 C   0  0  0  0  0  0  0  0  0  0  0  0
    5.0528    0.6227   21.1050 H   0  0  0  0  0  0  0  0  0  0  0  0
    4.8566    1.3193   19.0534 C   0  0  0  0  0  0  0  0  0  0  0  0
    3.9037    1.8171   19.1930 H   0  0  0  0  0  0  0  0  0  0  0  0
  1  2  1  0
  2  3  2  0
  3  4  1  0
  4  5  1  0
  4  6  2  0
  6  7  1  0
  7  8  2  0
  8  9  1  0
  9 10  1  0
 10 11  2  0
 11 12  1  0
 11 13  1  0
 13 14  2  0
 14 15  1  0
 15 16  1  0
 15 17  1  0
 14 18  1  0
 18 19  1  0
 18 20  2  0
 20 21  1  0
  9 22  1  0
 22 23  1  0
 22 24  2  0
 24 25  1  0
 24 26  1  0
 26 27  2  0
  6 28  1  0
 28 29  1  0
 28 30  2  0
 30 31  1  0
 30  2  1  0
 26  7  1  0
 20 10  1  0
M  END
>  <cnnaffinity>  (1) 
-5.95256

>  <filename>  (1) 
Nc1ccc(-n2ccc(=O)c(-c3cccnc3)n2)cn1

$$$$
