
     RDKit          3D

 34 37  0  0  0  0  0  0  0  0999 V2000
    5.0026    1.8515   16.8541 H   0  0  0  0  0  0  0  0  0  0  0  0
    5.4263    1.3014   17.6932 C   0  0  0  0  0  0  0  0  0  0  0  0
    6.5654    0.6337   17.4563 N   0  0  0  0  0  0  0  0  0  0  0  0
    7.1341   -0.0157   18.4768 C   0  0  0  0  0  0  0  0  0  0  0  0
    8.0550   -0.5480   18.2493 H   0  0  0  0  0  0  0  0  0  0  0  0
    6.6117   -0.0284   19.7816 C   0  0  0  0  0  0  0  0  0  0  0  0
    7.3837   -0.6174   20.8927 C   0  0  0  0  0  0  0  0  0  0  0  0
    8.5240   -1.2930   20.6746 N   0  0  0  0  0  0  0  0  0  0  0  0
    8.9501   -1.5640   21.9237 N   0  0  0  0  0  0  0  0  0  0  0  0
   10.0525   -2.2148   22.4625 C   0  0  0  0  0  0  0  0  0  0  0  0
   10.7898   -2.6809   21.8372 H   0  0  0  0  0  0  0  0  0  0  0  0
    9.9158   -2.1075   23.8076 C   0  0  0  0  0  0  0  0  0  0  0  0
   10.5235   -2.4889   24.6094 H   0  0  0  0  0  0  0  0  0  0  0  0
    8.7468   -1.4135   24.1103 N   0  0  0  0  0  0  0  0  0  0  0  0
    8.2756   -1.0332   25.3962 C   0  0  0  0  0  0  0  0  0  0  0  0
    6.8922   -0.9398   25.6225 C   0  0  0  0  0  0  0  0  0  0  0  0
    6.2144   -1.2590   24.8347 H   0  0  0  0  0  0  0  0  0  0  0  0
    6.3908   -0.4159   26.8134 C   0  0  0  0  0  0  0  0  0  0  0  0
    5.3231   -0.2979   26.9645 H   0  0  0  0  0  0  0  0  0  0  0  0
    7.2644    0.0242   27.8200 C   0  0  0  0  0  0  0  0  0  0  0  0
    6.8001    0.6661   28.9408 N   0  0  0  0  0  0  0  0  0  0  0  0
    5.8217    0.6433   29.1670 H   0  0  0  0  0  0  0  0  0  0  0  0
    7.4565    0.8945   29.6676 H   0  0  0  0  0  0  0  0  0  0  0  0
    8.6413   -0.1721   27.6402 C   0  0  0  0  0  0  0  0  0  0  0  0
    9.2935    0.0585   28.4755 H   0  0  0  0  0  0  0  0  0  0  0  0
    9.1464   -0.6840   26.4438 C   0  0  0  0  0  0  0  0  0  0  0  0
   10.2213   -0.7729   26.3251 H   0  0  0  0  0  0  0  0  0  0  0  0
    8.1504   -1.0906   22.8976 C   0  0  0  0  0  0  0  0  0  0  0  0
    7.0762   -0.4781   22.2680 C   0  0  0  0  0  0  0  0  0  0  0  0
    6.1994   -0.0258   22.6992 H   0  0  0  0  0  0  0  0  0  0  0  0
    5.3841    0.6238   19.9933 C   0  0  0  0  0  0  0  0  0  0  0  0
    4.9011    0.5935   20.9700 H   0  0  0  0  0  0  0  0  0  0  0  0
    4.7901    1.3100   18.9381 C   0  0  0  0  0  0  0  0  0  0  0  0
    3.8666    1.8638   19.0722 H   0  0  0  0  0  0  0  0  0  0  0  0
  1  2  1  0
  2  3  2  0
  3  4  1  0
  4  5  1  0
  4  6  2  0
  6  7  1  0
  7  8  2  0
  8  9  1  0
  9 10  1  0
 10 11  1  0
 10 12  2  0
 12 13  1  0
 12 14  1  0
 14 15  1  0
 15 16  2  0
 16 17  1  0
 16 18  1  0
 18 19  1  0
 18 20  2  0
 20 21  1  0
 21 22  1  0
 21 23  1  0
 20 24  1  0
 24 25  1  0
 24 26  2  0
 26 27  1  0
 14 28  1  0
 28 29  2  0
 29 30  1  0
  6 31  1  0
 31 32  1  0
 31 33  2  0
 33 34  1  0
 33  2  1  0
 29  7  1  0
 28  9  1  0
 26 15  1  0
M  END
>  <cnnaffinity>  (1) 
-5.24241

>  <filename>  (1) 
Nc1ccc(-n2ccn3nc(-c4cccnc4)cc23)cc1

$$$$
