
     RDKit          3D

 28 29  0  0  0  0  0  0  0  0999 V2000
    5.6565   -2.7485   24.4074 H   0  0  0  0  0  0  0  0  0  0  0  0
    4.8612   -3.3392   23.9541 C   0  0  0  0  0  0  0  0  0  0  0  0
    3.9830   -3.8950   24.8089 N   0  0  0  0  0  0  0  0  0  0  0  0
    3.0302   -4.6736   24.2885 C   0  0  0  0  0  0  0  0  0  0  0  0
    2.1300   -5.0615   25.2508 N   0  0  0  0  0  0  0  0  0  0  0  0
    2.6068   -4.8321   26.1167 H   0  0  0  0  0  0  0  0  0  0  0  0
    1.7753   -6.0009   25.1836 H   0  0  0  0  0  0  0  0  0  0  0  0
    3.0172   -4.9782   22.8900 C   0  0  0  0  0  0  0  0  0  0  0  0
    2.2848   -5.6726   22.4918 H   0  0  0  0  0  0  0  0  0  0  0  0
    3.8880   -4.4238   22.0532 N   0  0  0  0  0  0  0  0  0  0  0  0
    4.7871   -3.5340   22.5667 C   0  0  0  0  0  0  0  0  0  0  0  0
    5.6716   -2.7103   21.6493 C   0  0  0  0  0  0  0  0  0  0  0  0
    5.7200   -2.7918   20.4429 O   0  0  0  0  0  0  0  0  0  0  0  0
    6.4595   -1.7601   22.2986 N   0  0  0  0  0  0  0  0  0  0  0  0
    6.1283   -1.1431   23.0215 H   0  0  0  0  0  0  0  0  0  0  0  0
    7.4738   -0.8748   21.3599 S   0  0  0  0  0  0  0  0  0  0  0  0
    7.8604    0.1802   22.2735 O   0  0  0  0  0  0  0  0  0  0  0  0
    8.4072   -1.7899   20.7488 O   0  0  0  0  0  0  0  0  0  0  0  0
    6.4675   -0.2116   20.1142 C   0  0  0  0  0  0  0  0  0  0  0  0
    7.0826   -0.2599   18.8719 C   0  0  0  0  0  0  0  0  0  0  0  0
    7.9653   -0.8713   18.7023 H   0  0  0  0  0  0  0  0  0  0  0  0
    6.6343    0.4251   17.8251 N   0  0  0  0  0  0  0  0  0  0  0  0
    5.5273    1.1594   17.9953 C   0  0  0  0  0  0  0  0  0  0  0  0
    5.1929    1.7204   17.1241 H   0  0  0  0  0  0  0  0  0  0  0  0
    4.8061    1.2039   19.1917 C   0  0  0  0  0  0  0  0  0  0  0  0
    3.9088    1.8118   19.2404 H   0  0  0  0  0  0  0  0  0  0  0  0
    5.2655    0.4884   20.2973 C   0  0  0  0  0  0  0  0  0  0  0  0
    4.6725    0.4969   21.2167 H   0  0  0  0  0  0  0  0  0  0  0  0
  1  2  1  0
  2  3  2  0
  3  4  1  0
  4  5  1  0
  5  6  1  0
  5  7  1  0
  4  8  2  0
  8  9  1  0
  8 10  1  0
 10 11  2  0
 11 12  1  0
 12 13  2  0
 12 14  1  0
 14 15  1  0
 14 16  1  0
 16 17  2  0
 16 18  2  0
 16 19  1  0
 19 20  2  0
 20 21  1  0
 20 22  1  0
 22 23  2  0
 23 24  1  0
 23 25  1  0
 25 26  1  0
 25 27  2  0
 27 28  1  0
 11  2  1  0
 27 19  1  0
M  END
>  <cnnaffinity>  (1) 
-4.98499

>  <filename>  (1) 
Nc1cnc(C(=O)NS(=O)(=O)c2cccnc2)cn1

$$$$
