
     RDKit          3D

 32 34  0  0  0  0  0  0  0  0999 V2000
    4.9997    1.7987   16.9377 H   0  0  0  0  0  0  0  0  0  0  0  0
    5.4358    1.3018   17.8002 C   0  0  0  0  0  0  0  0  0  0  0  0
    6.6062    0.6713   17.5913 N   0  0  0  0  0  0  0  0  0  0  0  0
    7.1654    0.0425   18.6316 C   0  0  0  0  0  0  0  0  0  0  0  0
    8.1337   -0.4364   18.4893 H   0  0  0  0  0  0  0  0  0  0  0  0
    6.5700   -0.0294   19.9028 C   0  0  0  0  0  0  0  0  0  0  0  0
    7.2259   -0.7644   20.9312 N   0  0  0  0  0  0  0  0  0  0  0  0
    8.5882   -0.6393   20.9318 N   0  0  0  0  0  0  0  0  0  0  0  0
    9.2770   -1.2274   21.8753 C   0  0  0  0  0  0  0  0  0  0  0  0
   10.7327   -0.9253   21.8771 C   0  0  0  0  0  0  0  0  0  0  0  0
   11.1709    0.4120   21.8553 C   0  0  0  0  0  0  0  0  0  0  0  0
   10.4516    1.2025   21.6546 H   0  0  0  0  0  0  0  0  0  0  0  0
   12.5054    0.7080   22.0961 C   0  0  0  0  0  0  0  0  0  0  0  0
   12.8534    1.7325   22.2097 H   0  0  0  0  0  0  0  0  0  0  0  0
   13.4396   -0.3293   22.2327 C   0  0  0  0  0  0  0  0  0  0  0  0
   14.7454   -0.0261   22.5591 N   0  0  0  0  0  0  0  0  0  0  0  0
   15.1303    0.7728   22.0771 H   0  0  0  0  0  0  0  0  0  0  0  0
   15.3536   -0.8298   22.5145 H   0  0  0  0  0  0  0  0  0  0  0  0
   13.0267   -1.6654   22.1222 C   0  0  0  0  0  0  0  0  0  0  0  0
   13.7610   -2.4628   22.1823 H   0  0  0  0  0  0  0  0  0  0  0  0
   11.6741   -1.9541   22.0245 C   0  0  0  0  0  0  0  0  0  0  0  0
   11.3236   -2.9744   22.1359 H   0  0  0  0  0  0  0  0  0  0  0  0
    8.6519   -2.1078   22.9350 C   0  0  0  0  0  0  0  0  0  0  0  0
    9.2677   -2.7112   23.8087 O   0  0  0  0  0  0  0  0  0  0  0  0
    7.1941   -2.1857   22.8361 C   0  0  0  0  0  0  0  0  0  0  0  0
    6.6752   -2.7747   23.5806 H   0  0  0  0  0  0  0  0  0  0  0  0
    6.5473   -1.5249   21.8576 C   0  0  0  0  0  0  0  0  0  0  0  0
    5.4660   -1.5637   21.7118 H   0  0  0  0  0  0  0  0  0  0  0  0
    5.3741    0.6634   20.1238 C   0  0  0  0  0  0  0  0  0  0  0  0
    4.9551    0.7025   21.1282 H   0  0  0  0  0  0  0  0  0  0  0  0
    4.7950    1.3338   19.0428 C   0  0  0  0  0  0  0  0  0  0  0  0
    3.8669    1.8813   19.1574 H   0  0  0  0  0  0  0  0  0  0  0  0
  1  2  1  0
  2  3  2  0
  3  4  1  0
  4  5  1  0
  4  6  2  0
  6  7  1  0
  7  8  1  0
  8  9  2  0
  9 10  1  0
 10 11  2  0
 11 12  1  0
 11 13  1  0
 13 14  1  0
 13 15  2  0
 15 16  1  0
 16 17  1  0
 16 18  1  0
 15 19  1  0
 19 20  1  0
 19 21  2  0
 21 22  1  0
  9 23  1  0
 23 24  2  0
 23 25  1  0
 25 26  1  0
 25 27  2  0
 27 28  1  0
  6 29  1  0
 29 30  1  0
 29 31  2  0
 31 32  1  0
 31  2  1  0
 27  7  1  0
 21 10  1  0
M  END
>  <cnnaffinity>  (1) 
-5.79384

>  <filename>  (1) 
Nc1ccc(-c2nn(-c3cccnc3)ccc2=O)cc1

$$$$
