
     RDKit          3D

 34 37  0  0  0  0  0  0  0  0999 V2000
    4.9818    1.8537   16.8887 H   0  0  0  0  0  0  0  0  0  0  0  0
    5.4176    1.3029   17.7224 C   0  0  0  0  0  0  0  0  0  0  0  0
    6.5633    0.6464   17.4807 N   0  0  0  0  0  0  0  0  0  0  0  0
    7.1386   -0.0005   18.4999 C   0  0  0  0  0  0  0  0  0  0  0  0
    8.0679   -0.5161   18.2683 H   0  0  0  0  0  0  0  0  0  0  0  0
    6.6098   -0.0344   19.8013 C   0  0  0  0  0  0  0  0  0  0  0  0
    7.3660   -0.6468   20.9057 C   0  0  0  0  0  0  0  0  0  0  0  0
    8.4971   -1.3368   20.6861 N   0  0  0  0  0  0  0  0  0  0  0  0
    8.9226   -1.6118   21.9350 N   0  0  0  0  0  0  0  0  0  0  0  0
   10.0472   -2.2164   22.4793 C   0  0  0  0  0  0  0  0  0  0  0  0
   10.7967   -2.6657   21.8534 H   0  0  0  0  0  0  0  0  0  0  0  0
    9.9185   -2.0855   23.8233 C   0  0  0  0  0  0  0  0  0  0  0  0
   10.5553   -2.4280   24.6217 H   0  0  0  0  0  0  0  0  0  0  0  0
    8.7355   -1.4078   24.1176 N   0  0  0  0  0  0  0  0  0  0  0  0
    8.2503   -1.0091   25.3920 C   0  0  0  0  0  0  0  0  0  0  0  0
    9.1343   -0.6316   26.4185 C   0  0  0  0  0  0  0  0  0  0  0  0
   10.2083   -0.6468   26.2639 H   0  0  0  0  0  0  0  0  0  0  0  0
    8.6206   -0.1866   27.6393 C   0  0  0  0  0  0  0  0  0  0  0  0
    9.2909    0.0438   28.4640 H   0  0  0  0  0  0  0  0  0  0  0  0
    7.2457   -0.0424   27.8250 C   0  0  0  0  0  0  0  0  0  0  0  0
    6.8642    0.3607   28.7590 H   0  0  0  0  0  0  0  0  0  0  0  0
    6.3622   -0.3938   26.7976 C   0  0  0  0  0  0  0  0  0  0  0  0
    5.0024   -0.1157   26.9152 N   0  0  0  0  0  0  0  0  0  0  0  0
    4.7193   -0.0676   27.8823 H   0  0  0  0  0  0  0  0  0  0  0  0
    4.4465   -0.7920   26.4140 H   0  0  0  0  0  0  0  0  0  0  0  0
    6.8633   -0.9343   25.6066 C   0  0  0  0  0  0  0  0  0  0  0  0
    6.1695   -1.2467   24.8312 H   0  0  0  0  0  0  0  0  0  0  0  0
    8.1258   -1.1256   22.9051 C   0  0  0  0  0  0  0  0  0  0  0  0
    7.0609   -0.5018   22.2790 C   0  0  0  0  0  0  0  0  0  0  0  0
    6.2046   -0.0235   22.7196 H   0  0  0  0  0  0  0  0  0  0  0  0
    5.3900    0.6255   20.0252 C   0  0  0  0  0  0  0  0  0  0  0  0
    4.9220    0.6095   21.0100 H   0  0  0  0  0  0  0  0  0  0  0  0
    4.7891    1.3077   18.9719 C   0  0  0  0  0  0  0  0  0  0  0  0
    3.8680    1.8626   19.1176 H   0  0  0  0  0  0  0  0  0  0  0  0
  1  2  1  0
  2  3  2  0
  3  4  1  0
  4  5  1  0
  4  6  2  0
  6  7  1  0
  7  8  2  0
  8  9  1  0
  9 10  1  0
 10 11  1  0
 10 12  2  0
 12 13  1  0
 12 14  1  0
 14 15  1  0
 15 16  2  0
 16 17  1  0
 16 18  1  0
 18 19  1  0
 18 20  2  0
 20 21  1  0
 20 22  1  0
 22 23  1  0
 23 24  1  0
 23 25  1  0
 22 26  2  0
 26 27  1  0
 14 28  1  0
 28 29  2  0
 29 30  1  0
  6 31  1  0
 31 32  1  0
 31 33  2  0
 33 34  1  0
 33  2  1  0
 29  7  1  0
 28  9  1  0
 26 15  1  0
M  END
>  <cnnaffinity>  (1) 
-5.2622

>  <filename>  (1) 
Nc1cccc(-n2ccn3nc(-c4cccnc4)cc23)c1

$$$$
