
     RDKit          3D

 37 40  0  0  0  0  0  0  0  0999 V2000
    4.9116    1.8360   16.9575 H   0  0  0  0  0  0  0  0  0  0  0  0
    5.3944    1.3203   17.7856 C   0  0  0  0  0  0  0  0  0  0  0  0
    6.5506    0.7038   17.5054 N   0  0  0  0  0  0  0  0  0  0  0  0
    7.1722    0.0845   18.5173 C   0  0  0  0  0  0  0  0  0  0  0  0
    8.1105   -0.4043   18.2601 H   0  0  0  0  0  0  0  0  0  0  0  0
    6.6967    0.0308   19.8428 C   0  0  0  0  0  0  0  0  0  0  0  0
    7.4568   -0.6863   20.9421 C   0  0  1  0  0  0  0  0  0  0  0  0
    8.3907   -1.0736   20.5233 H   0  0  0  0  0  0  0  0  0  0  0  0
    7.8442    0.2442   22.1433 C   0  0  0  0  0  0  0  0  0  0  0  0
    8.9280    0.3747   22.2076 H   0  0  0  0  0  0  0  0  0  0  0  0
    7.4168    1.2473   22.0677 H   0  0  0  0  0  0  0  0  0  0  0  0
    7.3113   -0.4772   23.3403 C   0  0  0  0  0  0  0  0  0  0  0  0
    7.2792   -0.2163   24.6328 N   0  0  0  0  0  0  0  0  0  0  0  0
    6.6528   -1.3011   25.1499 N   0  0  0  0  0  0  0  0  0  0  0  0
    6.5225   -1.3535   26.1535 H   0  0  0  0  0  0  0  0  0  0  0  0
    6.2763   -2.2252   24.2124 C   0  0  0  0  0  0  0  0  0  0  0  0
    5.6345   -3.5279   24.4820 C   0  0  0  0  0  0  0  0  0  0  0  0
    5.9981   -4.3427   25.5725 C   0  0  0  0  0  0  0  0  0  0  0  0
    6.7146   -3.9791   26.3057 H   0  0  0  0  0  0  0  0  0  0  0  0
    5.5016   -5.6412   25.6988 C   0  0  0  0  0  0  0  0  0  0  0  0
    5.8178   -6.2913   26.5086 H   0  0  0  0  0  0  0  0  0  0  0  0
    4.6227   -6.1615   24.7349 C   0  0  0  0  0  0  0  0  0  0  0  0
    4.2649   -7.5016   24.7924 N   0  0  0  0  0  0  0  0  0  0  0  0
    3.4054   -7.7245   24.3155 H   0  0  0  0  0  0  0  0  0  0  0  0
    4.2825   -7.8780   25.7266 H   0  0  0  0  0  0  0  0  0  0  0  0
    4.2027   -5.3444   23.6747 C   0  0  0  0  0  0  0  0  0  0  0  0
    3.5149   -5.7510   22.9399 H   0  0  0  0  0  0  0  0  0  0  0  0
    4.7123   -4.0496   23.5537 C   0  0  0  0  0  0  0  0  0  0  0  0
    4.4022   -3.4265   22.7189 H   0  0  0  0  0  0  0  0  0  0  0  0
    6.7100   -1.6862   23.0146 C   0  0  0  0  0  0  0  0  0  0  0  0
    6.6745   -1.9078   21.5348 C   0  0  0  0  0  0  0  0  0  0  0  0
    7.1257   -2.8588   21.2311 H   0  0  0  0  0  0  0  0  0  0  0  0
    5.6425   -1.9410   21.1642 H   0  0  0  0  0  0  0  0  0  0  0  0
    5.4733    0.6686   20.1021 C   0  0  0  0  0  0  0  0  0  0  0  0
    5.0445    0.6663   21.1069 H   0  0  0  0  0  0  0  0  0  0  0  0
    4.8156    1.3215   19.0581 C   0  0  0  0  0  0  0  0  0  0  0  0
    3.8780    1.8371   19.2160 H   0  0  0  0  0  0  0  0  0  0  0  0
  1  2  1  0
  2  3  2  0
  3  4  1  0
  4  5  1  0
  4  6  2  0
  6  7  1  0
  7  8  1  6
  7  9  1  0
  9 10  1  0
  9 11  1  0
  9 12  1  0
 12 13  2  0
 13 14  1  0
 14 15  1  0
 14 16  1  0
 16 17  1  0
 17 18  2  0
 18 19  1  0
 18 20  1  0
 20 21  1  0
 20 22  2  0
 22 23  1  0
 23 24  1  0
 23 25  1  0
 22 26  1  0
 26 27  1  0
 26 28  2  0
 28 29  1  0
 16 30  2  0
 30 31  1  0
 31 32  1  0
 31 33  1  0
  6 34  1  0
 34 35  1  0
 34 36  2  0
 36 37  1  0
 36  2  1  0
 31  7  1  0
 30 12  1  0
 28 17  1  0
M  END
>  <cnnaffinity>  (1) 
-5.23967

>  <filename>  (1) 
Nc1ccc(-c2[nH]nc3c2C[C@@H](c2cccnc2)C3)cc1

$$$$
