
     RDKit          3D

 32 35  0  0  0  0  0  0  0  0999 V2000
    5.0221    1.7789   16.9800 H   0  0  0  0  0  0  0  0  0  0  0  0
    5.4520    1.2686   17.8410 C   0  0  0  0  0  0  0  0  0  0  0  0
    6.6091    0.6262   17.6287 N   0  0  0  0  0  0  0  0  0  0  0  0
    7.1732    0.0047   18.6680 C   0  0  0  0  0  0  0  0  0  0  0  0
    8.1142   -0.5006   18.4656 H   0  0  0  0  0  0  0  0  0  0  0  0
    6.6187   -0.0160   19.9571 C   0  0  0  0  0  0  0  0  0  0  0  0
    7.3578   -0.7097   21.0164 C   0  0  0  0  0  0  0  0  0  0  0  0
    8.5527   -1.3289   20.7826 N   0  0  0  0  0  0  0  0  0  0  0  0
    8.8558   -1.7792   21.9811 C   0  0  0  0  0  0  0  0  0  0  0  0
   10.1458   -2.6589   22.7455 S   0  0  0  0  0  0  0  0  0  0  0  0
    9.3143   -2.5405   24.2788 C   0  0  0  0  0  0  0  0  0  0  0  0
    9.7452   -3.0119   25.1558 H   0  0  0  0  0  0  0  0  0  0  0  0
    8.1421   -1.8730   24.2118 C   0  0  0  0  0  0  0  0  0  0  0  0
    7.1668   -1.5923   25.3078 C   0  0  0  0  0  0  0  0  0  0  0  0
    7.5979   -1.1721   26.5841 C   0  0  0  0  0  0  0  0  0  0  0  0
    8.6572   -1.1150   26.8249 H   0  0  0  0  0  0  0  0  0  0  0  0
    6.6616   -0.7986   27.5529 C   0  0  0  0  0  0  0  0  0  0  0  0
    6.9940   -0.3972   28.5060 H   0  0  0  0  0  0  0  0  0  0  0  0
    5.2936   -0.8972   27.2877 C   0  0  0  0  0  0  0  0  0  0  0  0
    4.5533   -0.6379   28.0368 H   0  0  0  0  0  0  0  0  0  0  0  0
    4.8509   -1.3649   26.0477 C   0  0  0  0  0  0  0  0  0  0  0  0
    3.4887   -1.4864   25.7743 N   0  0  0  0  0  0  0  0  0  0  0  0
    2.9341   -0.9031   26.3876 H   0  0  0  0  0  0  0  0  0  0  0  0
    3.2895   -1.2571   24.8093 H   0  0  0  0  0  0  0  0  0  0  0  0
    5.7880   -1.7339   25.0772 C   0  0  0  0  0  0  0  0  0  0  0  0
    5.4456   -2.1579   24.1427 H   0  0  0  0  0  0  0  0  0  0  0  0
    7.9059   -1.4648   22.8843 N   0  0  0  0  0  0  0  0  0  0  0  0
    6.9169   -0.7642   22.2672 N   0  0  0  0  0  0  0  0  0  0  0  0
    5.4003    0.6542   20.1694 C   0  0  0  0  0  0  0  0  0  0  0  0
    4.9359    0.6757   21.1567 H   0  0  0  0  0  0  0  0  0  0  0  0
    4.8127    1.3014   19.0848 C   0  0  0  0  0  0  0  0  0  0  0  0
    3.8821    1.8470   19.1857 H   0  0  0  0  0  0  0  0  0  0  0  0
  1  2  1  0
  2  3  2  0
  3  4  1  0
  4  5  1  0
  4  6  2  0
  6  7  1  0
  7  8  1  0
  8  9  2  0
  9 10  1  0
 10 11  1  0
 11 12  1  0
 11 13  2  0
 13 14  1  0
 14 15  2  0
 15 16  1  0
 15 17  1  0
 17 18  1  0
 17 19  2  0
 19 20  1  0
 19 21  1  0
 21 22  1  0
 22 23  1  0
 22 24  1  0
 21 25  2  0
 25 26  1  0
 13 27  1  0
 27 28  1  0
  6 29  1  0
 29 30  1  0
 29 31  2  0
 31 32  1  0
 31  2  1  0
 28  7  2  0
 27  9  1  0
 25 14  1  0
M  END
>  <cnnaffinity>  (1) 
-5.44527

>  <filename>  (1) 
Nc1cccc(-c2csc3nc(-c4cccnc4)nn23)c1

$$$$
