
     RDKit          3D

 30 32  0  0  0  0  0  0  0  0999 V2000
    5.8324   -0.4331   27.1959 H   0  0  0  0  0  0  0  0  0  0  0  0
    6.1659    0.2979   26.4556 C   0  0  0  0  0  0  0  0  0  0  0  0
    6.3438    1.5227   26.9206 N   0  0  0  0  0  0  0  0  0  0  0  0
    6.7379    2.4037   26.0013 C   0  0  0  0  0  0  0  0  0  0  0  0
    6.9567    3.5976   26.5053 N   0  0  0  0  0  0  0  0  0  0  0  0
    6.7431    3.6232   27.4762 H   0  0  0  0  0  0  0  0  0  0  0  0
    7.2099    4.3309   25.8821 H   0  0  0  0  0  0  0  0  0  0  0  0
    6.9269    2.2597   24.7079 N   0  0  0  0  0  0  0  0  0  0  0  0
    6.7716    1.0049   24.3263 C   0  0  0  0  0  0  0  0  0  0  0  0
    6.9978    0.8526   23.0040 N   0  0  0  0  0  0  0  0  0  0  0  0
    7.1527    1.7940   22.6616 H   0  0  0  0  0  0  0  0  0  0  0  0
    7.5359   -0.2751   22.3586 C   0  0  0  0  0  0  0  0  0  0  0  0
    8.2962   -1.3492   22.9054 C   0  0  0  0  0  0  0  0  0  0  0  0
    8.6304   -1.4818   23.9250 H   0  0  0  0  0  0  0  0  0  0  0  0
    8.6019   -2.2543   21.9849 N   0  0  0  0  0  0  0  0  0  0  0  0
    8.0601   -1.7668   20.8614 N   0  0  0  0  0  0  0  0  0  0  0  0
    8.0900   -2.3230   20.0217 H   0  0  0  0  0  0  0  0  0  0  0  0
    7.3920   -0.5909   21.0163 C   0  0  0  0  0  0  0  0  0  0  0  0
    6.6674    0.0696   19.9105 C   0  0  0  0  0  0  0  0  0  0  0  0
    7.1620    0.0874   18.5858 C   0  0  0  0  0  0  0  0  0  0  0  0
    8.1108   -0.3916   18.3378 H   0  0  0  0  0  0  0  0  0  0  0  0
    6.5487    0.6868   17.5585 N   0  0  0  0  0  0  0  0  0  0  0  0
    5.3848    1.3076   17.8153 C   0  0  0  0  0  0  0  0  0  0  0  0
    4.9177    1.8114   16.9714 H   0  0  0  0  0  0  0  0  0  0  0  0
    4.7870    1.3317   19.0787 C   0  0  0  0  0  0  0  0  0  0  0  0
    3.8443    1.8508   19.2127 H   0  0  0  0  0  0  0  0  0  0  0  0
    5.4338    0.7029   20.1439 C   0  0  0  0  0  0  0  0  0  0  0  0
    4.9956    0.6793   21.1423 H   0  0  0  0  0  0  0  0  0  0  0  0
    6.3703   -0.0446   25.1383 C   0  0  0  0  0  0  0  0  0  0  0  0
    6.2052   -1.0102   24.7024 H   0  0  0  0  0  0  0  0  0  0  0  0
  1  2  1  0
  2  3  2  0
  3  4  1  0
  4  5  1  0
  5  6  1  0
  5  7  1  0
  4  8  2  0
  8  9  1  0
  9 10  1  0
 10 11  1  0
 10 12  1  0
 12 13  1  0
 13 14  1  0
 13 15  2  0
 15 16  1  0
 16 17  1  0
 16 18  1  0
 18 19  1  0
 19 20  2  0
 20 21  1  0
 20 22  1  0
 22 23  2  0
 23 24  1  0
 23 25  1  0
 25 26  1  0
 25 27  2  0
 27 28  1  0
  9 29  2  0
 29 30  1  0
 29  2  1  0
 18 12  2  0
 27 19  1  0
M  END
>  <cnnaffinity>  (1) 
-5.16017

>  <filename>  (1) 
Nc1nccc(Nc2cn[nH]c2-c2cccnc2)n1

$$$$
