
     RDKit          3D

 29 31  0  0  0  0  0  0  0  0999 V2000
    4.9164    1.7973   16.9741 H   0  0  0  0  0  0  0  0  0  0  0  0
    5.3933    1.3022   17.8206 C   0  0  0  0  0  0  0  0  0  0  0  0
    6.5589    0.6840   17.5657 N   0  0  0  0  0  0  0  0  0  0  0  0
    7.1717    0.0719   18.5886 C   0  0  0  0  0  0  0  0  0  0  0  0
    8.1080   -0.4219   18.3334 H   0  0  0  0  0  0  0  0  0  0  0  0
    6.6672    0.0184   19.9050 C   0  0  0  0  0  0  0  0  0  0  0  0
    7.3353   -0.7023   20.9969 C   0  0  0  0  0  0  0  0  0  0  0  0
    6.8221   -1.2428   22.1196 C   0  0  0  0  0  0  0  0  0  0  0  0
    5.8029   -1.2918   22.4193 H   0  0  0  0  0  0  0  0  0  0  0  0
    7.8305   -1.8425   22.8597 N   0  0  0  0  0  0  0  0  0  0  0  0
    7.6039   -2.4989   24.1260 C   0  0  0  0  0  0  0  0  0  0  0  0
    6.5519   -3.4032   24.3505 C   0  0  0  0  0  0  0  0  0  0  0  0
    5.8452   -3.6373   23.5487 H   0  0  0  0  0  0  0  0  0  0  0  0
    6.3601   -4.0491   25.4946 N   0  0  0  0  0  0  0  0  0  0  0  0
    7.2385   -3.7580   26.4504 C   0  0  0  0  0  0  0  0  0  0  0  0
    7.0616   -4.3761   27.5989 N   0  0  0  0  0  0  0  0  0  0  0  0
    7.7467   -4.1559   28.2860 H   0  0  0  0  0  0  0  0  0  0  0  0
    6.2913   -5.0057   27.6094 H   0  0  0  0  0  0  0  0  0  0  0  0
    8.2670   -2.9182   26.4063 N   0  0  0  0  0  0  0  0  0  0  0  0
    8.4356   -2.3017   25.2428 C   0  0  0  0  0  0  0  0  0  0  0  0
    9.2784   -1.6108   25.1696 H   0  0  0  0  0  0  0  0  0  0  0  0
    9.0305   -1.6833   22.1625 C   0  0  0  0  0  0  0  0  0  0  0  0
   10.5780   -2.1816   22.4976 S   0  0  0  0  0  0  0  0  0  0  0  0
    8.6845   -0.9944   21.0431 N   0  0  0  0  0  0  0  0  0  0  0  0
    9.4040   -0.7152   20.4003 H   0  0  0  0  0  0  0  0  0  0  0  0
    5.4398    0.6639   20.1392 C   0  0  0  0  0  0  0  0  0  0  0  0
    5.0089    0.6559   21.1397 H   0  0  0  0  0  0  0  0  0  0  0  0
    4.7983    1.3204   19.0881 C   0  0  0  0  0  0  0  0  0  0  0  0
    3.8637    1.8518   19.2372 H   0  0  0  0  0  0  0  0  0  0  0  0
  1  2  1  0
  2  3  2  0
  3  4  1  0
  4  5  1  0
  4  6  2  0
  6  7  1  0
  7  8  2  0
  8  9  1  0
  8 10  1  0
 10 11  1  0
 11 12  2  0
 12 13  1  0
 12 14  1  0
 14 15  2  0
 15 16  1  0
 16 17  1  0
 16 18  1  0
 15 19  1  0
 19 20  2  0
 20 21  1  0
 10 22  1  0
 22 23  2  0
 22 24  1  0
 24 25  1  0
  6 26  1  0
 26 27  1  0
 26 28  2  0
 28 29  1  0
 28  2  1  0
 24  7  1  0
 20 11  1  0
M  END
>  <cnnaffinity>  (1) 
-5.33578

>  <filename>  (1) 
Nc1ncc(-n2cc(-c3cccnc3)[nH]c2=S)cn1

$$$$
