
     RDKit          3D

 30 32  0  0  0  0  0  0  0  0999 V2000
    4.9391    1.7899   16.9938 H   0  0  0  0  0  0  0  0  0  0  0  0
    5.3988    1.2900   17.8445 C   0  0  0  0  0  0  0  0  0  0  0  0
    6.5543    0.6581   17.5965 N   0  0  0  0  0  0  0  0  0  0  0  0
    7.1448    0.0315   18.6192 C   0  0  0  0  0  0  0  0  0  0  0  0
    8.1102   -0.4222   18.3986 H   0  0  0  0  0  0  0  0  0  0  0  0
    6.6080   -0.0346   19.9201 C   0  0  0  0  0  0  0  0  0  0  0  0
    7.2944   -0.7680   21.0057 C   0  0  0  0  0  0  0  0  0  0  0  0
    6.5662   -1.5429   21.7922 N   0  0  0  0  0  0  0  0  0  0  0  0
    7.1718   -2.2243   22.8321 C   0  0  0  0  0  0  0  0  0  0  0  0
    6.2798   -3.0584   23.6851 C   0  0  0  0  0  0  0  0  0  0  0  0
    6.5706   -3.4013   25.0155 C   0  0  0  0  0  0  0  0  0  0  0  0
    7.4797   -3.0398   25.5089 H   0  0  0  0  0  0  0  0  0  0  0  0
    5.7950   -4.1540   25.7826 N   0  0  0  0  0  0  0  0  0  0  0  0
    4.6811   -4.5819   25.1962 C   0  0  0  0  0  0  0  0  0  0  0  0
    3.9052   -5.3344   25.9405 N   0  0  0  0  0  0  0  0  0  0  0  0
    4.2562   -5.4895   26.8613 H   0  0  0  0  0  0  0  0  0  0  0  0
    3.0704   -5.6370   25.4873 H   0  0  0  0  0  0  0  0  0  0  0  0
    4.2523   -4.3470   23.9587 N   0  0  0  0  0  0  0  0  0  0  0  0
    5.0524   -3.5772   23.2307 C   0  0  0  0  0  0  0  0  0  0  0  0
    4.7073   -3.3683   22.2136 H   0  0  0  0  0  0  0  0  0  0  0  0
    8.5263   -2.1454   23.0544 C   0  0  0  0  0  0  0  0  0  0  0  0
    9.0484   -2.6996   23.8271 H   0  0  0  0  0  0  0  0  0  0  0  0
    9.2894   -1.3440   22.2362 N   0  0  0  0  0  0  0  0  0  0  0  0
   10.2858   -1.1733   22.3075 H   0  0  0  0  0  0  0  0  0  0  0  0
    8.7870   -0.5838   21.1927 C   0  0  0  0  0  0  0  0  0  0  0  0
    9.5840    0.1144   20.5816 O   0  0  0  0  0  0  0  0  0  0  0  0
    5.3991    0.6358   20.1590 C   0  0  0  0  0  0  0  0  0  0  0  0
    4.9600    0.6357   21.1586 H   0  0  0  0  0  0  0  0  0  0  0  0
    4.7913    1.3155   19.1048 C   0  0  0  0  0  0  0  0  0  0  0  0
    3.8652    1.8628   19.2416 H   0  0  0  0  0  0  0  0  0  0  0  0
  1  2  1  0
  2  3  2  0
  3  4  1  0
  4  5  1  0
  4  6  2  0
  6  7  1  0
  7  8  2  0
  8  9  1  0
  9 10  1  0
 10 11  2  0
 11 12  1  0
 11 13  1  0
 13 14  2  0
 14 15  1  0
 15 16  1  0
 15 17  1  0
 14 18  1  0
 18 19  2  0
 19 20  1  0
  9 21  2  0
 21 22  1  0
 21 23  1  0
 23 24  1  0
 23 25  1  0
 25 26  2  0
  6 27  1  0
 27 28  1  0
 27 29  2  0
 29 30  1  0
 29  2  1  0
 25  7  1  0
 19 10  1  0
M  END
>  <cnnaffinity>  (1) 
-5.00585

>  <filename>  (1) 
Nc1ncc(-c2c[nH]c(=O)c(-c3cccnc3)n2)cn1

$$$$
