
     RDKit          3D

 32 35  0  0  0  0  0  0  0  0999 V2000
    4.9912    1.8312   16.9250 H   0  0  0  0  0  0  0  0  0  0  0  0
    5.4250    1.2883   17.7647 C   0  0  0  0  0  0  0  0  0  0  0  0
    6.5744    0.6366   17.5273 N   0  0  0  0  0  0  0  0  0  0  0  0
    7.1490   -0.0021   18.5521 C   0  0  0  0  0  0  0  0  0  0  0  0
    8.0857   -0.5067   18.3300 H   0  0  0  0  0  0  0  0  0  0  0  0
    6.6119   -0.0368   19.8510 C   0  0  0  0  0  0  0  0  0  0  0  0
    7.3591   -0.6559   20.9573 C   0  0  0  0  0  0  0  0  0  0  0  0
    8.4833   -1.3553   20.7329 N   0  0  0  0  0  0  0  0  0  0  0  0
    8.9160   -1.6268   21.9813 N   0  0  0  0  0  0  0  0  0  0  0  0
   10.0531   -2.2128   22.5233 C   0  0  0  0  0  0  0  0  0  0  0  0
   10.8005   -2.6580   21.8931 H   0  0  0  0  0  0  0  0  0  0  0  0
    9.9482   -2.0485   23.8682 C   0  0  0  0  0  0  0  0  0  0  0  0
   10.5849   -2.3503   24.6835 H   0  0  0  0  0  0  0  0  0  0  0  0
    8.7637   -1.3744   24.1584 N   0  0  0  0  0  0  0  0  0  0  0  0
    8.3128   -0.9146   25.4052 C   0  0  0  0  0  0  0  0  0  0  0  0
    6.9493   -0.8800   25.7245 C   0  0  0  0  0  0  0  0  0  0  0  0
    6.2421   -1.2895   24.9963 H   0  0  0  0  0  0  0  0  0  0  0  0
    6.4761   -0.3682   26.8550 N   0  0  0  0  0  0  0  0  0  0  0  0
    7.4029    0.1777   27.6344 C   0  0  0  0  0  0  0  0  0  0  0  0
    6.9677    0.8785   28.6799 N   0  0  0  0  0  0  0  0  0  0  0  0
    7.7217    0.8597   29.3399 H   0  0  0  0  0  0  0  0  0  0  0  0
    6.0644    0.5282   28.9254 H   0  0  0  0  0  0  0  0  0  0  0  0
    8.7247    0.1050   27.5242 N   0  0  0  0  0  0  0  0  0  0  0  0
    9.1675   -0.4039   26.3865 C   0  0  0  0  0  0  0  0  0  0  0  0
   10.2466   -0.3827   26.2049 H   0  0  0  0  0  0  0  0  0  0  0  0
    8.1297   -1.1247   22.9525 C   0  0  0  0  0  0  0  0  0  0  0  0
    7.0638   -0.4995   22.3322 C   0  0  0  0  0  0  0  0  0  0  0  0
    6.2180    0.0050   22.7714 H   0  0  0  0  0  0  0  0  0  0  0  0
    5.3922    0.6230   20.0732 C   0  0  0  0  0  0  0  0  0  0  0  0
    4.9242    0.6228   21.0593 H   0  0  0  0  0  0  0  0  0  0  0  0
    4.7933    1.2970   19.0139 C   0  0  0  0  0  0  0  0  0  0  0  0
    3.8727    1.8543   19.1548 H   0  0  0  0  0  0  0  0  0  0  0  0
  1  2  1  0
  2  3  2  0
  3  4  1  0
  4  5  1  0
  4  6  2  0
  6  7  1  0
  7  8  2  0
  8  9  1  0
  9 10  1  0
 10 11  1  0
 10 12  2  0
 12 13  1  0
 12 14  1  0
 14 15  1  0
 15 16  2  0
 16 17  1  0
 16 18  1  0
 18 19  2  0
 19 20  1  0
 20 21  1  0
 20 22  1  0
 19 23  1  0
 23 24  2  0
 24 25  1  0
 14 26  1  0
 26 27  2  0
 27 28  1  0
  6 29  1  0
 29 30  1  0
 29 31  2  0
 31 32  1  0
 31  2  1  0
 27  7  1  0
 26  9  1  0
 24 15  1  0
M  END
>  <cnnaffinity>  (1) 
-5.48592

>  <filename>  (1) 
Nc1ncc(-n2ccn3nc(-c4cccnc4)cc23)cn1

$$$$
