
     RDKit          3D

 29 31  0  0  0  0  0  0  0  0999 V2000
    4.9195    1.7955   16.9762 H   0  0  0  0  0  0  0  0  0  0  0  0
    5.3953    1.3004   17.8230 C   0  0  0  0  0  0  0  0  0  0  0  0
    6.5615    0.6815   17.5698 N   0  0  0  0  0  0  0  0  0  0  0  0
    7.1719    0.0681   18.5932 C   0  0  0  0  0  0  0  0  0  0  0  0
    8.1092   -0.4247   18.3381 H   0  0  0  0  0  0  0  0  0  0  0  0
    6.6636    0.0125   19.9068 C   0  0  0  0  0  0  0  0  0  0  0  0
    7.3348   -0.7052   20.9930 C   0  0  0  0  0  0  0  0  0  0  0  0
    6.8288   -1.2420   22.1217 C   0  0  0  0  0  0  0  0  0  0  0  0
    5.8053   -1.3050   22.4045 H   0  0  0  0  0  0  0  0  0  0  0  0
    7.8444   -1.8212   22.8788 N   0  0  0  0  0  0  0  0  0  0  0  0
    7.6392   -2.4896   24.1407 C   0  0  0  0  0  0  0  0  0  0  0  0
    8.4178   -3.5930   24.5432 C   0  0  0  0  0  0  0  0  0  0  0  0
    9.1968   -3.9563   23.8694 H   0  0  0  0  0  0  0  0  0  0  0  0
    8.2780   -4.2211   25.7030 N   0  0  0  0  0  0  0  0  0  0  0  0
    7.3351   -3.7237   26.4980 C   0  0  0  0  0  0  0  0  0  0  0  0
    7.1987   -4.3259   27.6560 N   0  0  0  0  0  0  0  0  0  0  0  0
    6.4742   -3.9550   28.2306 H   0  0  0  0  0  0  0  0  0  0  0  0
    7.8231   -5.0918   27.7914 H   0  0  0  0  0  0  0  0  0  0  0  0
    6.5131   -2.7014   26.2706 N   0  0  0  0  0  0  0  0  0  0  0  0
    6.6733   -2.1037   25.0941 C   0  0  0  0  0  0  0  0  0  0  0  0
    6.0120   -1.2518   24.9042 H   0  0  0  0  0  0  0  0  0  0  0  0
    9.0655   -1.6288   22.1640 C   0  0  0  0  0  0  0  0  0  0  0  0
   10.1996   -1.9494   22.4492 O   0  0  0  0  0  0  0  0  0  0  0  0
    8.6920   -0.9764   21.0198 N   0  0  0  0  0  0  0  0  0  0  0  0
    9.4196   -0.6758   20.4036 H   0  0  0  0  0  0  0  0  0  0  0  0
    5.4374    0.6613   20.1401 C   0  0  0  0  0  0  0  0  0  0  0  0
    5.0032    0.6569   21.1399 H   0  0  0  0  0  0  0  0  0  0  0  0
    4.7994    1.3186   19.0893 C   0  0  0  0  0  0  0  0  0  0  0  0
    3.8653    1.8505   19.2374 H   0  0  0  0  0  0  0  0  0  0  0  0
  1  2  1  0
  2  3  2  0
  3  4  1  0
  4  5  1  0
  4  6  2  0
  6  7  1  0
  7  8  2  0
  8  9  1  0
  8 10  1  0
 10 11  1  0
 11 12  2  0
 12 13  1  0
 12 14  1  0
 14 15  2  0
 15 16  1  0
 16 17  1  0
 16 18  1  0
 15 19  1  0
 19 20  2  0
 20 21  1  0
 10 22  1  0
 22 23  2  0
 22 24  1  0
 24 25  1  0
  6 26  1  0
 26 27  1  0
 26 28  2  0
 28 29  1  0
 28  2  1  0
 24  7  1  0
 20 11  1  0
M  END
>  <cnnaffinity>  (1) 
-5.1171

>  <filename>  (1) 
Nc1ncc(-n2cc(-c3cccnc3)[nH]c2=O)cn1

$$$$
