
     RDKit          3D

 30 32  0  0  0  0  0  0  0  0999 V2000
    9.5588   -5.3258   24.7859 H   0  0  0  0  0  0  0  0  0  0  0  0
    9.0368   -4.7516   24.0148 C   0  0  0  0  0  0  0  0  0  0  0  0
    7.8679   -5.2349   23.6053 N   0  0  0  0  0  0  0  0  0  0  0  0
    7.2932   -4.5333   22.6436 C   0  0  0  0  0  0  0  0  0  0  0  0
    6.2007   -5.0844   22.0906 N   0  0  0  0  0  0  0  0  0  0  0  0
    5.8126   -5.6702   22.8076 H   0  0  0  0  0  0  0  0  0  0  0  0
    5.6610   -4.3127   21.7463 H   0  0  0  0  0  0  0  0  0  0  0  0
    7.6186   -3.3539   22.1626 N   0  0  0  0  0  0  0  0  0  0  0  0
    8.8366   -2.9356   22.5213 C   0  0  0  0  0  0  0  0  0  0  0  0
    9.3615   -1.7584   21.8433 C   0  0  0  0  0  0  0  0  0  0  0  0
    8.6865   -0.7711   21.1378 C   0  0  0  0  0  0  0  0  0  0  0  0
    7.3129   -0.7355   20.9287 N   0  0  0  0  0  0  0  0  0  0  0  0
    6.8206   -1.4597   21.4494 H   0  0  0  0  0  0  0  0  0  0  0  0
    6.6581   -0.0496   19.8850 C   0  0  0  0  0  0  0  0  0  0  0  0
    7.1627    0.0313   18.5605 C   0  0  0  0  0  0  0  0  0  0  0  0
    8.0948   -0.4757   18.3190 H   0  0  0  0  0  0  0  0  0  0  0  0
    6.5591    0.6811   17.5533 N   0  0  0  0  0  0  0  0  0  0  0  0
    5.4052    1.3080   17.8303 C   0  0  0  0  0  0  0  0  0  0  0  0
    4.9438    1.8476   17.0073 H   0  0  0  0  0  0  0  0  0  0  0  0
    4.8111    1.2884   19.0980 C   0  0  0  0  0  0  0  0  0  0  0  0
    3.8803    1.8206   19.2612 H   0  0  0  0  0  0  0  0  0  0  0  0
    5.4398    0.5970   20.1404 C   0  0  0  0  0  0  0  0  0  0  0  0
    5.0270    0.5742   21.1505 H   0  0  0  0  0  0  0  0  0  0  0  0
    9.6928    0.1488   20.7623 C   0  0  0  0  0  0  0  0  0  0  0  0
    9.5817    1.0733   20.2170 H   0  0  0  0  0  0  0  0  0  0  0  0
   10.8950   -0.2565   21.1531 N   0  0  0  0  0  0  0  0  0  0  0  0
   10.6826   -1.4042   21.8037 N   0  0  0  0  0  0  0  0  0  0  0  0
   11.5011   -1.9404   22.0756 H   0  0  0  0  0  0  0  0  0  0  0  0
    9.6050   -3.6019   23.4891 C   0  0  0  0  0  0  0  0  0  0  0  0
   10.5714   -3.2491   23.8266 H   0  0  0  0  0  0  0  0  0  0  0  0
  1  2  1  0
  2  3  2  0
  3  4  1  0
  4  5  1  0
  5  6  1  0
  5  7  1  0
  4  8  2  0
  8  9  1  0
  9 10  1  0
 10 11  2  0
 11 12  1  0
 12 13  1  0
 12 14  1  0
 14 15  2  0
 15 16  1  0
 15 17  1  0
 17 18  2  0
 18 19  1  0
 18 20  1  0
 20 21  1  0
 20 22  2  0
 22 23  1  0
 11 24  1  0
 24 25  1  0
 24 26  2  0
 26 27  1  0
 27 28  1  0
  9 29  2  0
 29 30  1  0
 29  2  1  0
 27 10  1  0
 22 14  1  0
M  END
>  <cnnaffinity>  (1) 
-5.53184

>  <filename>  (1) 
Nc1nccc(-c2[nH]ncc2Nc2cccnc2)n1

$$$$
