
     RDKit          3D

 31 34  0  0  0  0  0  0  0  0999 V2000
    4.9371    1.7922   16.9892 H   0  0  0  0  0  0  0  0  0  0  0  0
    5.4063    1.2896   17.8340 C   0  0  0  0  0  0  0  0  0  0  0  0
    6.5672    0.6640   17.5809 N   0  0  0  0  0  0  0  0  0  0  0  0
    7.1631    0.0336   18.5965 C   0  0  0  0  0  0  0  0  0  0  0  0
    8.1112   -0.4487   18.3645 H   0  0  0  0  0  0  0  0  0  0  0  0
    6.6438    0.0029   19.9008 C   0  0  0  0  0  0  0  0  0  0  0  0
    7.3717   -0.6716   20.9610 C   0  0  0  0  0  0  0  0  0  0  0  0
    8.0237   -1.8543   20.7327 N   0  0  0  0  0  0  0  0  0  0  0  0
    8.4492   -2.1927   21.9193 C   0  0  0  0  0  0  0  0  0  0  0  0
    9.3498   -3.5225   22.5749 S   0  0  0  0  0  0  0  0  0  0  0  0
    9.4240   -2.7417   24.1264 C   0  0  0  0  0  0  0  0  0  0  0  0
    9.9888   -3.2162   24.9178 H   0  0  0  0  0  0  0  0  0  0  0  0
    8.7415   -1.5841   24.1423 C   0  0  0  0  0  0  0  0  0  0  0  0
    8.6100   -0.8916   24.9633 H   0  0  0  0  0  0  0  0  0  0  0  0
    8.1637   -1.2931   22.9081 N   0  0  0  0  0  0  0  0  0  0  0  0
    7.4758   -0.2591   22.2994 C   0  0  0  0  0  0  0  0  0  0  0  0
    7.0869    0.9683   22.9931 C   0  0  0  0  0  0  0  0  0  0  0  0
    6.4728    0.9998   24.2610 C   0  0  0  0  0  0  0  0  0  0  0  0
    6.2585    0.0619   24.7793 H   0  0  0  0  0  0  0  0  0  0  0  0
    6.0912    2.1113   24.8788 N   0  0  0  0  0  0  0  0  0  0  0  0
    6.3472    3.2266   24.2014 C   0  0  0  0  0  0  0  0  0  0  0  0
    5.9916    4.3381   24.7936 N   0  0  0  0  0  0  0  0  0  0  0  0
    5.5668    4.1942   25.6827 H   0  0  0  0  0  0  0  0  0  0  0  0
    6.1801    5.1464   24.2405 H   0  0  0  0  0  0  0  0  0  0  0  0
    6.9129    3.3792   23.0115 N   0  0  0  0  0  0  0  0  0  0  0  0
    7.2637    2.2419   22.4239 C   0  0  0  0  0  0  0  0  0  0  0  0
    7.7110    2.3297   21.4304 H   0  0  0  0  0  0  0  0  0  0  0  0
    5.4228    0.6499   20.1488 C   0  0  0  0  0  0  0  0  0  0  0  0
    4.9883    0.6451   21.1486 H   0  0  0  0  0  0  0  0  0  0  0  0
    4.7985    1.3075   19.0948 C   0  0  0  0  0  0  0  0  0  0  0  0
    3.8687    1.8458   19.2402 H   0  0  0  0  0  0  0  0  0  0  0  0
  1  2  1  0
  2  3  2  0
  3  4  1  0
  4  5  1  0
  4  6  2  0
  6  7  1  0
  7  8  1  0
  8  9  2  0
  9 10  1  0
 10 11  1  0
 11 12  1  0
 11 13  2  0
 13 14  1  0
 13 15  1  0
 15 16  1  0
 16 17  1  0
 17 18  2  0
 18 19  1  0
 18 20  1  0
 20 21  2  0
 21 22  1  0
 22 23  1  0
 22 24  1  0
 21 25  1  0
 25 26  2  0
 26 27  1  0
  6 28  1  0
 28 29  1  0
 28 30  2  0
 30 31  1  0
 30  2  1  0
 16  7  2  0
 26 17  1  0
 15  9  1  0
M  END
>  <cnnaffinity>  (1) 
-5.52865

>  <filename>  (1) 
Nc1ncc(-c2c(-c3cccnc3)nc3sccn23)cn1

$$$$
