
     RDKit          3D

 40 43  0  0  0  0  0  0  0  0999 V2000
    4.9112    1.8359   16.9608 H   0  0  0  0  0  0  0  0  0  0  0  0
    5.3902    1.3206   17.7893 C   0  0  0  0  0  0  0  0  0  0  0  0
    6.5467    0.7023   17.5097 N   0  0  0  0  0  0  0  0  0  0  0  0
    7.1705    0.0824   18.5194 C   0  0  0  0  0  0  0  0  0  0  0  0
    8.1116   -0.4045   18.2631 H   0  0  0  0  0  0  0  0  0  0  0  0
    6.6953    0.0260   19.8451 C   0  0  0  0  0  0  0  0  0  0  0  0
    7.4594   -0.6937   20.9443 C   0  0  1  0  0  0  0  0  0  0  0  0
    8.3948   -1.0819   20.5196 H   0  0  0  0  0  0  0  0  0  0  0  0
    7.8497    0.2448   22.1410 C   0  0  0  0  0  0  0  0  0  0  0  0
    7.4321    1.2504   22.0608 H   0  0  0  0  0  0  0  0  0  0  0  0
    8.9338    0.3688   22.1990 H   0  0  0  0  0  0  0  0  0  0  0  0
    7.3018   -0.4571   23.3409 C   0  0  0  0  0  0  0  0  0  0  0  0
    7.2709   -0.1928   24.6353 N   0  0  0  0  0  0  0  0  0  0  0  0
    6.6585   -1.2839   25.1545 N   0  0  0  0  0  0  0  0  0  0  0  0
    6.5545   -1.3260   26.1599 H   0  0  0  0  0  0  0  0  0  0  0  0
    6.2719   -2.2099   24.2222 C   0  0  0  0  0  0  0  0  0  0  0  0
    5.6490   -3.5286   24.4924 C   0  0  0  0  0  0  0  0  0  0  0  0
    6.0255   -4.3288   25.5893 C   0  0  0  0  0  0  0  0  0  0  0  0
    6.7350   -3.9519   26.3235 H   0  0  0  0  0  0  0  0  0  0  0  0
    5.5170   -5.6210   25.7202 C   0  0  0  0  0  0  0  0  0  0  0  0
    5.8401   -6.2482   26.5467 H   0  0  0  0  0  0  0  0  0  0  0  0
    4.6234   -6.1296   24.7737 C   0  0  0  0  0  0  0  0  0  0  0  0
    4.2668   -7.1534   24.8749 H   0  0  0  0  0  0  0  0  0  0  0  0
    4.2076   -5.3489   23.6826 C   0  0  0  0  0  0  0  0  0  0  0  0
    3.1740   -5.8830   22.7018 C   0  0  0  0  0  0  0  0  0  0  0  0
    3.3880   -5.5090   21.6995 H   0  0  0  0  0  0  0  0  0  0  0  0
    3.2544   -6.9722   22.6220 H   0  0  0  0  0  0  0  0  0  0  0  0
    1.7761   -5.5619   23.0124 N   0  0  0  0  0  0  0  0  0  0  0  0
    1.6862   -4.5519   23.0846 H   0  0  0  0  0  0  0  0  0  0  0  0
    1.5664   -5.9123   23.9444 H   0  0  0  0  0  0  0  0  0  0  0  0
    4.7425   -4.0563   23.5531 C   0  0  0  0  0  0  0  0  0  0  0  0
    4.4568   -3.4288   22.7108 H   0  0  0  0  0  0  0  0  0  0  0  0
    6.6955   -1.6676   23.0245 C   0  0  0  0  0  0  0  0  0  0  0  0
    6.6713   -1.9103   21.5476 C   0  0  0  0  0  0  0  0  0  0  0  0
    7.1348   -2.8589   21.2492 H   0  0  0  0  0  0  0  0  0  0  0  0
    5.6371   -1.9405   21.1814 H   0  0  0  0  0  0  0  0  0  0  0  0
    5.4705    0.6673   20.1006 C   0  0  0  0  0  0  0  0  0  0  0  0
    5.0405    0.6683   21.1037 H   0  0  0  0  0  0  0  0  0  0  0  0
    4.8087    1.3220   19.0605 C   0  0  0  0  0  0  0  0  0  0  0  0
    3.8698    1.8420   19.2154 H   0  0  0  0  0  0  0  0  0  0  0  0
  1  2  1  0
  2  3  2  0
  3  4  1  0
  4  5  1  0
  4  6  2  0
  6  7  1  0
  7  8  1  6
  7  9  1  0
  9 10  1  0
  9 11  1  0
  9 12  1  0
 12 13  2  0
 13 14  1  0
 14 15  1  0
 14 16  1  0
 16 17  1  0
 17 18  2  0
 18 19  1  0
 18 20  1  0
 20 21  1  0
 20 22  2  0
 22 23  1  0
 22 24  1  0
 24 25  1  0
 25 26  1  0
 25 27  1  0
 25 28  1  0
 28 29  1  0
 28 30  1  0
 24 31  2  0
 31 32  1  0
 16 33  2  0
 33 34  1  0
 34 35  1  0
 34 36  1  0
  6 37  1  0
 37 38  1  0
 37 39  2  0
 39 40  1  0
 39  2  1  0
 34  7  1  0
 33 12  1  0
 31 17  1  0
M  END
>  <cnnaffinity>  (1) 
-5.27009

>  <filename>  (1) 
NCc1cccc(-c2[nH]nc3c2C[C@@H](c2cccnc2)C3)c1

$$$$
