
     RDKit          3D

 23 24  0  0  0  0  0  0  0  0999 V2000
    4.9332    1.7829   16.9943 H   0  0  0  0  0  0  0  0  0  0  0  0
    5.4081    1.2897   17.8425 C   0  0  0  0  0  0  0  0  0  0  0  0
    6.5728    0.6656   17.5980 N   0  0  0  0  0  0  0  0  0  0  0  0
    7.1718    0.0335   18.6119 C   0  0  0  0  0  0  0  0  0  0  0  0
    8.1181   -0.4439   18.3755 H   0  0  0  0  0  0  0  0  0  0  0  0
    6.6546   -0.0036   19.9189 C   0  0  0  0  0  0  0  0  0  0  0  0
    7.3850   -0.6786   20.9394 N   0  0  0  0  0  0  0  0  0  0  0  0
    7.7412   -1.9688   20.7731 N   0  0  0  0  0  0  0  0  0  0  0  0
    8.3635   -2.3078   21.8907 C   0  0  0  0  0  0  0  0  0  0  0  0
    8.7558   -3.3098   22.0025 H   0  0  0  0  0  0  0  0  0  0  0  0
    8.4334   -1.2338   22.7977 C   0  0  0  0  0  0  0  0  0  0  0  0
    8.9527   -1.1747   23.7481 H   0  0  0  0  0  0  0  0  0  0  0  0
    7.8075   -0.1899   22.1522 C   0  0  0  0  0  0  0  0  0  0  0  0
    7.7553    1.2630   22.5166 C   0  0  0  0  0  0  0  0  0  0  0  0
    7.8873    1.3266   23.5986 H   0  0  0  0  0  0  0  0  0  0  0  0
    6.7755    1.7050   22.3134 H   0  0  0  0  0  0  0  0  0  0  0  0
    8.7799    2.0789   21.8511 N   0  0  0  0  0  0  0  0  0  0  0  0
    9.6717    1.6184   22.0153 H   0  0  0  0  0  0  0  0  0  0  0  0
    8.6466    1.9721   20.8499 H   0  0  0  0  0  0  0  0  0  0  0  0
    5.4369    0.6459   20.1729 C   0  0  0  0  0  0  0  0  0  0  0  0
    4.9930    0.6303   21.1711 H   0  0  0  0  0  0  0  0  0  0  0  0
    4.8098    1.3013   19.1066 C   0  0  0  0  0  0  0  0  0  0  0  0
    3.8804    1.8364   19.2583 H   0  0  0  0  0  0  0  0  0  0  0  0
  1  2  1  0
  2  3  2  0
  3  4  1  0
  4  5  1  0
  4  6  2  0
  6  7  1  0
  7  8  1  0
  8  9  2  0
  9 10  1  0
  9 11  1  0
 11 12  1  0
 11 13  2  0
 13 14  1  0
 14 15  1  0
 14 16  1  0
 14 17  1  0
 17 18  1  0
 17 19  1  0
  6 20  1  0
 20 21  1  0
 20 22  2  0
 22 23  1  0
 22  2  1  0
 13  7  1  0
M  END
>  <cnnaffinity>  (1) 
-4.27749

>  <filename>  (1) 
NCc1ccnn1-c1cccnc1

$$$$
