
     RDKit          3D

 35 38  0  0  0  0  0  0  0  0999 V2000
    4.9262    1.7725   17.0029 H   0  0  0  0  0  0  0  0  0  0  0  0
    5.4109    1.2853   17.8465 C   0  0  0  0  0  0  0  0  0  0  0  0
    6.5749    0.6669   17.5946 N   0  0  0  0  0  0  0  0  0  0  0  0
    7.1802    0.0537   18.6159 C   0  0  0  0  0  0  0  0  0  0  0  0
    8.1255   -0.4320   18.3844 H   0  0  0  0  0  0  0  0  0  0  0  0
    6.6455    0.0163   19.9116 C   0  0  0  0  0  0  0  0  0  0  0  0
    7.3617   -0.6876   20.9680 C   0  0  0  0  0  0  0  0  0  0  0  0
    8.5486   -1.3218   20.7560 N   0  0  0  0  0  0  0  0  0  0  0  0
    8.8030   -1.8139   21.9518 C   0  0  0  0  0  0  0  0  0  0  0  0
   10.0017   -2.8107   22.7293 S   0  0  0  0  0  0  0  0  0  0  0  0
    9.0816   -2.7607   24.2022 C   0  0  0  0  0  0  0  0  0  0  0  0
    9.4629   -3.2798   25.0718 H   0  0  0  0  0  0  0  0  0  0  0  0
    7.9577   -2.0168   24.1178 C   0  0  0  0  0  0  0  0  0  0  0  0
    6.9692   -1.7709   25.1949 C   0  0  0  0  0  0  0  0  0  0  0  0
    6.7674   -2.7606   26.1790 C   0  0  0  0  0  0  0  0  0  0  0  0
    7.3163   -3.6997   26.1284 H   0  0  0  0  0  0  0  0  0  0  0  0
    5.8544   -2.5548   27.2125 C   0  0  0  0  0  0  0  0  0  0  0  0
    5.7115   -3.3238   27.9686 H   0  0  0  0  0  0  0  0  0  0  0  0
    5.1302   -1.3610   27.2765 C   0  0  0  0  0  0  0  0  0  0  0  0
    4.4307   -1.1974   28.0921 H   0  0  0  0  0  0  0  0  0  0  0  0
    5.3112   -0.3599   26.3056 C   0  0  0  0  0  0  0  0  0  0  0  0
    4.5607    0.9509   26.3919 C   0  0  0  0  0  0  0  0  0  0  0  0
    3.5788    0.7705   26.8404 H   0  0  0  0  0  0  0  0  0  0  0  0
    4.3805    1.3322   25.3703 H   0  0  0  0  0  0  0  0  0  0  0  0
    5.2832    1.8927   27.2536 N   0  0  0  0  0  0  0  0  0  0  0  0
    6.1389    2.1538   26.7705 H   0  0  0  0  0  0  0  0  0  0  0  0
    4.7455    2.7478   27.3545 H   0  0  0  0  0  0  0  0  0  0  0  0
    6.2390   -0.5725   25.2776 C   0  0  0  0  0  0  0  0  0  0  0  0
    6.4058    0.1927   24.5214 H   0  0  0  0  0  0  0  0  0  0  0  0
    7.8358   -1.4822   22.8310 N   0  0  0  0  0  0  0  0  0  0  0  0
    6.8817   -0.7516   22.2067 N   0  0  0  0  0  0  0  0  0  0  0  0
    5.4258    0.6586   20.1683 C   0  0  0  0  0  0  0  0  0  0  0  0
    4.9988    0.6337   21.1768 H   0  0  0  0  0  0  0  0  0  0  0  0
    4.8044    1.3098   19.1093 C   0  0  0  0  0  0  0  0  0  0  0  0
    3.8736    1.8433   19.2588 H   0  0  0  0  0  0  0  0  0  0  0  0
  1  2  1  0
  2  3  2  0
  3  4  1  0
  4  5  1  0
  4  6  2  0
  6  7  1  0
  7  8  1  0
  8  9  2  0
  9 10  1  0
 10 11  1  0
 11 12  1  0
 11 13  2  0
 13 14  1  0
 14 15  2  0
 15 16  1  0
 15 17  1  0
 17 18  1  0
 17 19  2  0
 19 20  1  0
 19 21  1  0
 21 22  1  0
 22 23  1  0
 22 24  1  0
 22 25  1  0
 25 26  1  0
 25 27  1  0
 21 28  2  0
 28 29  1  0
 13 30  1  0
 30 31  1  0
  6 32  1  0
 32 33  1  0
 32 34  2  0
 34 35  1  0
 34  2  1  0
 31  7  2  0
 30  9  1  0
 28 14  1  0
M  END
>  <cnnaffinity>  (1) 
-5.35908

>  <filename>  (1) 
NCc1cccc(-c2csc3nc(-c4cccnc4)nn23)c1

$$$$
