
     RDKit          3D

 35 38  0  0  0  0  0  0  0  0999 V2000
    4.9446    1.7785   16.9730 H   0  0  0  0  0  0  0  0  0  0  0  0
    5.4029    1.2923   17.8322 C   0  0  0  0  0  0  0  0  0  0  0  0
    6.5643    0.6621   17.6014 N   0  0  0  0  0  0  0  0  0  0  0  0
    7.1577    0.0868   18.6497 C   0  0  0  0  0  0  0  0  0  0  0  0
    8.1005   -0.4109   18.4316 H   0  0  0  0  0  0  0  0  0  0  0  0
    6.6569    0.1040   19.9684 C   0  0  0  0  0  0  0  0  0  0  0  0
    7.4382   -0.5902   21.0123 C   0  0  0  0  0  0  0  0  0  0  0  0
    8.3058   -1.6063   20.8328 C   0  0  0  0  0  0  0  0  0  0  0  0
    8.7251   -1.9506   19.9101 H   0  0  0  0  0  0  0  0  0  0  0  0
    8.8785   -2.3047   22.3200 S   0  0  0  0  0  0  0  0  0  0  0  0
    8.0799   -1.0477   23.2030 C   0  0  0  0  0  0  0  0  0  0  0  0
    8.1081   -0.5577   24.4176 N   0  0  0  0  0  0  0  0  0  0  0  0
    7.3463    0.5677   24.2763 C   0  0  0  0  0  0  0  0  0  0  0  0
    7.0985    1.5128   25.3816 C   0  0  0  0  0  0  0  0  0  0  0  0
    7.6538    1.2956   26.6573 C   0  0  0  0  0  0  0  0  0  0  0  0
    8.2821    0.4229   26.8291 H   0  0  0  0  0  0  0  0  0  0  0  0
    7.3842    2.1921   27.6902 C   0  0  0  0  0  0  0  0  0  0  0  0
    7.8084    2.0129   28.6755 H   0  0  0  0  0  0  0  0  0  0  0  0
    6.5778    3.3149   27.4636 C   0  0  0  0  0  0  0  0  0  0  0  0
    6.3614    3.9947   28.2864 H   0  0  0  0  0  0  0  0  0  0  0  0
    6.0460    3.5713   26.1838 C   0  0  0  0  0  0  0  0  0  0  0  0
    5.2528    4.8389   25.8861 C   0  0  0  0  0  0  0  0  0  0  0  0
    4.5069    4.6342   25.1083 H   0  0  0  0  0  0  0  0  0  0  0  0
    4.6857    5.1415   26.7729 H   0  0  0  0  0  0  0  0  0  0  0  0
    6.0498    5.9925   25.4432 N   0  0  0  0  0  0  0  0  0  0  0  0
    6.5324    5.7371   24.5850 H   0  0  0  0  0  0  0  0  0  0  0  0
    6.7964    6.1421   26.1164 H   0  0  0  0  0  0  0  0  0  0  0  0
    6.3032    2.6496   25.1596 C   0  0  0  0  0  0  0  0  0  0  0  0
    5.8957    2.7999   24.1599 H   0  0  0  0  0  0  0  0  0  0  0  0
    6.8555    0.7793   23.0562 N   0  0  0  0  0  0  0  0  0  0  0  0
    7.3333   -0.2877   22.3737 N   0  0  0  0  0  0  0  0  0  0  0  0
    5.4232    0.7496   20.1867 C   0  0  0  0  0  0  0  0  0  0  0  0
    4.9877    0.7921   21.1883 H   0  0  0  0  0  0  0  0  0  0  0  0
    4.7901    1.3395   19.0902 C   0  0  0  0  0  0  0  0  0  0  0  0
    3.8378    1.8491   19.1935 H   0  0  0  0  0  0  0  0  0  0  0  0
  1  2  1  0
  2  3  2  0
  3  4  1  0
  4  5  1  0
  4  6  2  0
  6  7  1  0
  7  8  2  0
  8  9  1  0
  8 10  1  0
 10 11  1  0
 11 12  2  0
 12 13  1  0
 13 14  1  0
 14 15  2  0
 15 16  1  0
 15 17  1  0
 17 18  1  0
 17 19  2  0
 19 20  1  0
 19 21  1  0
 21 22  1  0
 22 23  1  0
 22 24  1  0
 22 25  1  0
 25 26  1  0
 25 27  1  0
 21 28  2  0
 28 29  1  0
 13 30  2  0
 30 31  1  0
  6 32  1  0
 32 33  1  0
 32 34  2  0
 34 35  1  0
 34  2  1  0
 31  7  1  0
 31 11  1  0
 28 14  1  0
M  END
>  <cnnaffinity>  (1) 
-5.07486

>  <filename>  (1) 
NCc1cccc(-c2nc3scc(-c4cccnc4)n3n2)c1

$$$$
