
     RDKit          3D

 35 37  0  0  0  0  0  0  0  0999 V2000
    4.9115    1.7846   16.9952 H   0  0  0  0  0  0  0  0  0  0  0  0
    5.3961    1.2974   17.8376 C   0  0  0  0  0  0  0  0  0  0  0  0
    6.5605    0.6831   17.5718 N   0  0  0  0  0  0  0  0  0  0  0  0
    7.1726    0.0612   18.5895 C   0  0  0  0  0  0  0  0  0  0  0  0
    8.1203   -0.4291   18.3735 H   0  0  0  0  0  0  0  0  0  0  0  0
    6.6641   -0.0095   19.9112 C   0  0  0  0  0  0  0  0  0  0  0  0
    7.3234   -0.7137   20.9262 N   0  0  0  0  0  0  0  0  0  0  0  0
    6.7696   -1.0689   21.6961 H   0  0  0  0  0  0  0  0  0  0  0  0
    8.7109   -0.7636   21.1041 C   0  0  0  0  0  0  0  0  0  0  0  0
    9.7001    0.1455   20.6687 C   0  0  0  0  0  0  0  0  0  0  0  0
    9.5309    1.0237   20.0690 H   0  0  0  0  0  0  0  0  0  0  0  0
   10.9110   -0.1792   21.1035 N   0  0  0  0  0  0  0  0  0  0  0  0
   10.7082   -1.2971   21.8137 N   0  0  0  0  0  0  0  0  0  0  0  0
   11.4992   -1.7530   22.2428 H   0  0  0  0  0  0  0  0  0  0  0  0
    9.4103   -1.7087   21.8397 C   0  0  0  0  0  0  0  0  0  0  0  0
    8.9316   -2.9034   22.5318 C   0  0  0  0  0  0  0  0  0  0  0  0
    7.8760   -3.6515   21.9828 C   0  0  0  0  0  0  0  0  0  0  0  0
    7.4576   -3.3498   21.0262 H   0  0  0  0  0  0  0  0  0  0  0  0
    7.3945   -4.7762   22.6513 C   0  0  0  0  0  0  0  0  0  0  0  0
    6.5743   -5.3484   22.2284 H   0  0  0  0  0  0  0  0  0  0  0  0
    7.9667   -5.1607   23.8668 C   0  0  0  0  0  0  0  0  0  0  0  0
    7.5776   -6.0263   24.3968 H   0  0  0  0  0  0  0  0  0  0  0  0
    9.0347   -4.4354   24.4252 C   0  0  0  0  0  0  0  0  0  0  0  0
    9.6126   -4.8123   25.7751 C   0  0  0  0  0  0  0  0  0  0  0  0
   10.6776   -4.5542   25.8116 H   0  0  0  0  0  0  0  0  0  0  0  0
    9.5550   -5.8977   25.9099 H   0  0  0  0  0  0  0  0  0  0  0  0
    8.9323   -4.1580   26.9031 N   0  0  0  0  0  0  0  0  0  0  0  0
    7.9418   -4.3817   26.8245 H   0  0  0  0  0  0  0  0  0  0  0  0
    8.9668   -3.1545   26.7329 H   0  0  0  0  0  0  0  0  0  0  0  0
    9.5013   -3.3035   23.7502 C   0  0  0  0  0  0  0  0  0  0  0  0
   10.3003   -2.7031   24.1874 H   0  0  0  0  0  0  0  0  0  0  0  0
    5.4433    0.6347   20.1628 C   0  0  0  0  0  0  0  0  0  0  0  0
    5.0198    0.6215   21.1680 H   0  0  0  0  0  0  0  0  0  0  0  0
    4.8109    1.3069   19.1095 C   0  0  0  0  0  0  0  0  0  0  0  0
    3.8795    1.8395   19.2640 H   0  0  0  0  0  0  0  0  0  0  0  0
  1  2  1  0
  2  3  2  0
  3  4  1  0
  4  5  1  0
  4  6  2  0
  6  7  1  0
  7  8  1  0
  7  9  1  0
  9 10  1  0
 10 11  1  0
 10 12  2  0
 12 13  1  0
 13 14  1  0
 13 15  1  0
 15 16  1  0
 16 17  2  0
 17 18  1  0
 17 19  1  0
 19 20  1  0
 19 21  2  0
 21 22  1  0
 21 23  1  0
 23 24  1  0
 24 25  1  0
 24 26  1  0
 24 27  1  0
 27 28  1  0
 27 29  1  0
 23 30  2  0
 30 31  1  0
  6 32  1  0
 32 33  1  0
 32 34  2  0
 34 35  1  0
 34  2  1  0
 15  9  2  0
 30 16  1  0
M  END
>  <cnnaffinity>  (1) 
-5.61558

>  <filename>  (1) 
NCc1cccc(-c2[nH]ncc2Nc2cccnc2)c1

$$$$
