
     RDKit          3D

 32 34  0  0  0  0  0  0  0  0999 V2000
    4.9184    1.7805   16.9959 H   0  0  0  0  0  0  0  0  0  0  0  0
    5.4033    1.2907   17.8405 C   0  0  0  0  0  0  0  0  0  0  0  0
    6.5701    0.6746   17.5854 N   0  0  0  0  0  0  0  0  0  0  0  0
    7.1806    0.0530   18.5975 C   0  0  0  0  0  0  0  0  0  0  0  0
    8.1272   -0.4360   18.3753 H   0  0  0  0  0  0  0  0  0  0  0  0
    6.6530    0.0187   19.9043 C   0  0  0  0  0  0  0  0  0  0  0  0
    7.3540   -0.6336   20.9703 N   0  0  0  0  0  0  0  0  0  0  0  0
    8.1279   -1.7279   20.7314 N   0  0  0  0  0  0  0  0  0  0  0  0
    8.6087   -2.1004   21.8508 N   0  0  0  0  0  0  0  0  0  0  0  0
    8.1950   -1.3052   22.8676 N   0  0  0  0  0  0  0  0  0  0  0  0
    7.4257   -0.4017   22.3060 C   0  0  0  0  0  0  0  0  0  0  0  0
    6.8063    0.6483   22.8591 O   0  0  0  0  0  0  0  0  0  0  0  0
    6.6606    0.7870   24.2477 C   0  0  0  0  0  0  0  0  0  0  0  0
    6.4955   -0.3077   25.0978 C   0  0  0  0  0  0  0  0  0  0  0  0
    6.5186   -1.3132   24.6919 H   0  0  0  0  0  0  0  0  0  0  0  0
    6.3241   -0.0792   26.4664 C   0  0  0  0  0  0  0  0  0  0  0  0
    6.2331   -0.9271   27.1383 H   0  0  0  0  0  0  0  0  0  0  0  0
    6.2801    1.2155   26.9811 C   0  0  0  0  0  0  0  0  0  0  0  0
    6.1658    1.3675   28.0560 H   0  0  0  0  0  0  0  0  0  0  0  0
    6.3913    2.3212   26.1197 C   0  0  0  0  0  0  0  0  0  0  0  0
    6.3904    3.7274   26.6939 C   0  0  0  0  0  0  0  0  0  0  0  0
    5.7509    3.7730   27.5840 H   0  0  0  0  0  0  0  0  0  0  0  0
    5.9482    4.4268   25.9767 H   0  0  0  0  0  0  0  0  0  0  0  0
    7.7270    4.2193   27.0646 N   0  0  0  0  0  0  0  0  0  0  0  0
    8.3118    4.1281   26.2347 H   0  0  0  0  0  0  0  0  0  0  0  0
    8.1362    3.5343   27.7004 H   0  0  0  0  0  0  0  0  0  0  0  0
    6.5832    2.0942   24.7424 C   0  0  0  0  0  0  0  0  0  0  0  0
    6.6777    2.9368   24.0620 H   0  0  0  0  0  0  0  0  0  0  0  0
    5.4345    0.6485   20.1660 C   0  0  0  0  0  0  0  0  0  0  0  0
    5.0091    0.6365   21.1681 H   0  0  0  0  0  0  0  0  0  0  0  0
    4.8057    1.3040   19.1033 C   0  0  0  0  0  0  0  0  0  0  0  0
    3.8766    1.8398   19.2611 H   0  0  0  0  0  0  0  0  0  0  0  0
  1  2  1  0
  2  3  2  0
  3  4  1  0
  4  5  1  0
  4  6  2  0
  6  7  1  0
  7  8  1  0
  8  9  2  0
  9 10  1  0
 10 11  2  0
 11 12  1  0
 12 13  1  0
 13 14  2  0
 14 15  1  0
 14 16  1  0
 16 17  1  0
 16 18  2  0
 18 19  1  0
 18 20  1  0
 20 21  1  0
 21 22  1  0
 21 23  1  0
 21 24  1  0
 24 25  1  0
 24 26  1  0
 20 27  2  0
 27 28  1  0
  6 29  1  0
 29 30  1  0
 29 31  2  0
 31 32  1  0
 31  2  1  0
 11  7  1  0
 27 13  1  0
M  END
>  <cnnaffinity>  (1) 
-4.8533

>  <filename>  (1) 
NCc1cccc(Oc2nnnn2-c2cccnc2)c1

$$$$
