
     RDKit          3D

 40 43  0  0  0  0  0  0  0  0999 V2000
    5.0049    1.8414   16.9190 H   0  0  0  0  0  0  0  0  0  0  0  0
    5.4215    1.2895   17.7644 C   0  0  0  0  0  0  0  0  0  0  0  0
    6.5608    0.6218   17.5346 N   0  0  0  0  0  0  0  0  0  0  0  0
    7.1245   -0.0130   18.5658 C   0  0  0  0  0  0  0  0  0  0  0  0
    8.0355   -0.5642   18.3370 H   0  0  0  0  0  0  0  0  0  0  0  0
    6.6143    0.0047   19.8787 C   0  0  0  0  0  0  0  0  0  0  0  0
    7.3732   -0.6231   20.9746 C   0  0  0  0  0  0  0  0  0  0  0  0
    8.0693   -1.7412   20.7693 N   0  0  0  0  0  0  0  0  0  0  0  0
    8.5764   -2.0248   21.9672 N   0  0  0  0  0  0  0  0  0  0  0  0
    8.2927   -1.1581   22.9376 C   0  0  0  0  0  0  0  0  0  0  0  0
    7.4942   -0.1919   22.3406 C   0  0  0  0  0  0  0  0  0  0  0  0
    7.0426    1.0323   22.9936 C   0  0  0  0  0  0  0  0  0  0  0  0
    6.5826    0.9885   24.3198 C   0  0  0  0  0  0  0  0  0  0  0  0
    6.4682    0.0273   24.8171 H   0  0  0  0  0  0  0  0  0  0  0  0
    6.2370    2.1682   24.9749 C   0  0  0  0  0  0  0  0  0  0  0  0
    5.8814    2.1308   26.0023 H   0  0  0  0  0  0  0  0  0  0  0  0
    6.3872    3.3988   24.3260 C   0  0  0  0  0  0  0  0  0  0  0  0
    6.1271    4.3139   24.8526 H   0  0  0  0  0  0  0  0  0  0  0  0
    6.8899    3.4710   23.0099 C   0  0  0  0  0  0  0  0  0  0  0  0
    7.1704    4.8009   22.3211 C   0  0  0  0  0  0  0  0  0  0  0  0
    6.9526    4.7049   21.2491 H   0  0  0  0  0  0  0  0  0  0  0  0
    6.4746    5.5550   22.7076 H   0  0  0  0  0  0  0  0  0  0  0  0
    8.5355    5.3334   22.4567 N   0  0  0  0  0  0  0  0  0  0  0  0
    8.8090    5.3081   23.4348 H   0  0  0  0  0  0  0  0  0  0  0  0
    9.1936    4.7175   21.9771 H   0  0  0  0  0  0  0  0  0  0  0  0
    7.1637    2.2694   22.3493 C   0  0  0  0  0  0  0  0  0  0  0  0
    7.4970    2.2795   21.3125 H   0  0  0  0  0  0  0  0  0  0  0  0
    9.0728   -1.4955   24.1927 C   0  0  0  0  0  0  0  0  0  0  0  0
    9.7230   -0.6736   24.5126 H   0  0  0  0  0  0  0  0  0  0  0  0
    8.4109   -1.7274   25.0326 H   0  0  0  0  0  0  0  0  0  0  0  0
    9.9086   -2.7364   23.7665 C   0  0  0  0  0  0  0  0  0  0  0  0
    9.7328   -3.5799   24.4354 H   0  0  0  0  0  0  0  0  0  0  0  0
   10.9730   -2.5107   23.7865 H   0  0  0  0  0  0  0  0  0  0  0  0
    9.5108   -3.0658   22.3014 C   0  0  0  0  0  0  0  0  0  0  0  0
    9.0295   -4.0412   22.1766 H   0  0  0  0  0  0  0  0  0  0  0  0
   10.3635   -2.9662   21.6300 H   0  0  0  0  0  0  0  0  0  0  0  0
    5.3802    0.6467   20.0833 C   0  0  0  0  0  0  0  0  0  0  0  0
    4.8998    0.6491   21.0644 H   0  0  0  0  0  0  0  0  0  0  0  0
    4.7837    1.3020   19.0067 C   0  0  0  0  0  0  0  0  0  0  0  0
    3.8480    1.8343   19.1158 H   0  0  0  0  0  0  0  0  0  0  0  0
  1  2  1  0
  2  3  2  0
  3  4  1  0
  4  5  1  0
  4  6  2  0
  6  7  1  0
  7  8  2  0
  8  9  1  0
  9 10  1  0
 10 11  2  0
 11 12  1  0
 12 13  2  0
 13 14  1  0
 13 15  1  0
 15 16  1  0
 15 17  2  0
 17 18  1  0
 17 19  1  0
 19 20  1  0
 20 21  1  0
 20 22  1  0
 20 23  1  0
 23 24  1  0
 23 25  1  0
 19 26  2  0
 26 27  1  0
 10 28  1  0
 28 29  1  0
 28 30  1  0
 28 31  1  0
 31 32  1  0
 31 33  1  0
 31 34  1  0
 34 35  1  0
 34 36  1  0
  6 37  1  0
 37 38  1  0
 37 39  2  0
 39 40  1  0
 39  2  1  0
 11  7  1  0
 26 12  1  0
 34  9  1  0
M  END
>  <cnnaffinity>  (1) 
-5.39473

>  <filename>  (1) 
NCc1cccc(-c2c(-c3cccnc3)nn3c2CCC3)c1

$$$$
