
     RDKit          3D

 35 37  0  0  0  0  0  0  0  0999 V2000
    4.9956    2.0816   16.4398 H   0  0  0  0  0  0  0  0  0  0  0  0
    5.4102    1.6182   17.3327 C   0  0  0  0  0  0  0  0  0  0  0  0
    6.5360    0.9063   17.1596 N   0  0  0  0  0  0  0  0  0  0  0  0
    7.0647    0.3179   18.2413 C   0  0  0  0  0  0  0  0  0  0  0  0
    7.9800   -0.2545   18.0920 H   0  0  0  0  0  0  0  0  0  0  0  0
    6.5153    0.4161   19.5332 C   0  0  0  0  0  0  0  0  0  0  0  0
    7.1159   -0.2669   20.6420 N   0  0  0  0  0  0  0  0  0  0  0  0
    7.3763    0.4850   21.7532 N   0  0  0  0  0  0  0  0  0  0  0  0
    7.9750   -0.0709   22.7779 C   0  0  0  0  0  0  0  0  0  0  0  0
    8.1029    0.7612   24.0225 C   0  0  0  0  0  0  0  0  0  0  0  0
    8.0575    2.1698   23.9612 C   0  0  0  0  0  0  0  0  0  0  0  0
    7.9577    2.6645   22.9988 H   0  0  0  0  0  0  0  0  0  0  0  0
    8.0818    2.9223   25.1357 C   0  0  0  0  0  0  0  0  0  0  0  0
    8.0438    4.0072   25.0779 H   0  0  0  0  0  0  0  0  0  0  0  0
    8.1109    2.2902   26.3836 C   0  0  0  0  0  0  0  0  0  0  0  0
    8.0494    2.8886   27.2904 H   0  0  0  0  0  0  0  0  0  0  0  0
    8.1641    0.8894   26.4684 C   0  0  0  0  0  0  0  0  0  0  0  0
    8.0905    0.1450   27.7884 C   0  0  0  0  0  0  0  0  0  0  0  0
    7.2424   -0.5496   27.7132 H   0  0  0  0  0  0  0  0  0  0  0  0
    7.8535    0.8480   28.6026 H   0  0  0  0  0  0  0  0  0  0  0  0
    9.2811   -0.6782   28.0459 N   0  0  0  0  0  0  0  0  0  0  0  0
    9.1645   -1.1390   28.9468 H   0  0  0  0  0  0  0  0  0  0  0  0
   10.0860   -0.0636   28.1663 H   0  0  0  0  0  0  0  0  0  0  0  0
    8.2010    0.1471   25.2859 C   0  0  0  0  0  0  0  0  0  0  0  0
    8.3056   -0.9373   25.3420 H   0  0  0  0  0  0  0  0  0  0  0  0
    8.4685   -1.5115   22.7483 C   0  0  0  0  0  0  0  0  0  0  0  0
    9.1922   -2.0409   23.5940 O   0  0  0  0  0  0  0  0  0  0  0  0
    7.9618   -2.2726   21.6123 C   0  0  0  0  0  0  0  0  0  0  0  0
    8.1615   -3.3353   21.6004 H   0  0  0  0  0  0  0  0  0  0  0  0
    7.3254   -1.6324   20.6161 C   0  0  0  0  0  0  0  0  0  0  0  0
    6.9301   -2.1415   19.7344 H   0  0  0  0  0  0  0  0  0  0  0  0
    5.3588    1.1862   19.7100 C   0  0  0  0  0  0  0  0  0  0  0  0
    4.9499    1.3055   20.7142 H   0  0  0  0  0  0  0  0  0  0  0  0
    4.7817    1.7740   18.5758 C   0  0  0  0  0  0  0  0  0  0  0  0
    3.8754    2.3676   18.6489 H   0  0  0  0  0  0  0  0  0  0  0  0
  1  2  1  0
  2  3  2  0
  3  4  1  0
  4  5  1  0
  4  6  2  0
  6  7  1  0
  7  8  1  0
  8  9  2  0
  9 10  1  0
 10 11  2  0
 11 12  1  0
 11 13  1  0
 13 14  1  0
 13 15  2  0
 15 16  1  0
 15 17  1  0
 17 18  1  0
 18 19  1  0
 18 20  1  0
 18 21  1  0
 21 22  1  0
 21 23  1  0
 17 24  2  0
 24 25  1  0
  9 26  1  0
 26 27  2  0
 26 28  1  0
 28 29  1  0
 28 30  2  0
 30 31  1  0
  6 32  1  0
 32 33  1  0
 32 34  2  0
 34 35  1  0
 34  2  1  0
 30  7  1  0
 24 10  1  0
M  END
>  <cnnaffinity>  (1) 
-4.74253

>  <filename>  (1) 
NCc1cccc(-c2nn(-c3cccnc3)ccc2=O)c1

$$$$
