
     RDKit          3D

 36 39  0  0  0  0  0  0  0  0999 V2000
    4.9637    1.8110   16.9742 H   0  0  0  0  0  0  0  0  0  0  0  0
    5.4040    1.2872   17.8195 C   0  0  0  0  0  0  0  0  0  0  0  0
    6.5589    0.6503   17.5754 N   0  0  0  0  0  0  0  0  0  0  0  0
    7.1499    0.0168   18.5931 C   0  0  0  0  0  0  0  0  0  0  0  0
    8.0970   -0.4671   18.3596 H   0  0  0  0  0  0  0  0  0  0  0  0
    6.6389   -0.0091   19.9000 C   0  0  0  0  0  0  0  0  0  0  0  0
    7.3942   -0.6782   20.9597 C   0  0  0  0  0  0  0  0  0  0  0  0
    8.0595   -1.8601   20.7420 N   0  0  0  0  0  0  0  0  0  0  0  0
    8.4622   -2.2157   21.9333 C   0  0  0  0  0  0  0  0  0  0  0  0
    9.3165   -3.5590   22.6284 S   0  0  0  0  0  0  0  0  0  0  0  0
    9.4101   -2.7383   24.1732 C   0  0  0  0  0  0  0  0  0  0  0  0
    9.9917   -3.2024   24.9570 H   0  0  0  0  0  0  0  0  0  0  0  0
    8.7327   -1.5754   24.1614 C   0  0  0  0  0  0  0  0  0  0  0  0
    8.5766   -0.8393   24.9419 H   0  0  0  0  0  0  0  0  0  0  0  0
    8.1668   -1.3157   22.9166 N   0  0  0  0  0  0  0  0  0  0  0  0
    7.4956   -0.2787   22.2914 C   0  0  0  0  0  0  0  0  0  0  0  0
    7.1038    0.9497   22.9691 C   0  0  0  0  0  0  0  0  0  0  0  0
    7.3158    2.1914   22.3443 C   0  0  0  0  0  0  0  0  0  0  0  0
    7.7601    2.2060   21.3512 H   0  0  0  0  0  0  0  0  0  0  0  0
    6.9139    3.3658   22.9768 C   0  0  0  0  0  0  0  0  0  0  0  0
    7.0659    4.3209   22.4786 H   0  0  0  0  0  0  0  0  0  0  0  0
    6.2949    3.3092   24.2308 C   0  0  0  0  0  0  0  0  0  0  0  0
    5.9853    4.2335   24.7141 H   0  0  0  0  0  0  0  0  0  0  0  0
    6.0606    2.0785   24.8748 C   0  0  0  0  0  0  0  0  0  0  0  0
    5.3278    2.0077   26.2084 C   0  0  0  0  0  0  0  0  0  0  0  0
    5.6957    1.1544   26.7981 H   0  0  0  0  0  0  0  0  0  0  0  0
    5.5445    2.9037   26.8084 H   0  0  0  0  0  0  0  0  0  0  0  0
    3.8698    1.8735   26.0738 N   0  0  0  0  0  0  0  0  0  0  0  0
    3.5429    2.6490   25.4974 H   0  0  0  0  0  0  0  0  0  0  0  0
    3.6966    1.0412   25.5090 H   0  0  0  0  0  0  0  0  0  0  0  0
    6.4698    0.9087   24.2215 C   0  0  0  0  0  0  0  0  0  0  0  0
    6.2856   -0.0752   24.6482 H   0  0  0  0  0  0  0  0  0  0  0  0
    5.4145    0.6470   20.1358 C   0  0  0  0  0  0  0  0  0  0  0  0
    4.9846    0.6764   21.1404 H   0  0  0  0  0  0  0  0  0  0  0  0
    4.7909    1.3018   19.0759 C   0  0  0  0  0  0  0  0  0  0  0  0
    3.8619    1.8459   19.2109 H   0  0  0  0  0  0  0  0  0  0  0  0
  1  2  1  0
  2  3  2  0
  3  4  1  0
  4  5  1  0
  4  6  2  0
  6  7  1  0
  7  8  1  0
  8  9  2  0
  9 10  1  0
 10 11  1  0
 11 12  1  0
 11 13  2  0
 13 14  1  0
 13 15  1  0
 15 16  1  0
 16 17  1  0
 17 18  2  0
 18 19  1  0
 18 20  1  0
 20 21  1  0
 20 22  2  0
 22 23  1  0
 22 24  1  0
 24 25  1  0
 25 26  1  0
 25 27  1  0
 25 28  1  0
 28 29  1  0
 28 30  1  0
 24 31  2  0
 31 32  1  0
  6 33  1  0
 33 34  1  0
 33 35  2  0
 35 36  1  0
 35  2  1  0
 16  7  2  0
 31 17  1  0
 15  9  1  0
M  END
>  <cnnaffinity>  (1) 
-5.36947

>  <filename>  (1) 
NCc1cccc(-c2c(-c3cccnc3)nc3sccn23)c1

$$$$
