
     RDKit          3D

 34 36  0  0  0  0  0  0  0  0999 V2000
    4.9073    1.7761   17.0013 H   0  0  0  0  0  0  0  0  0  0  0  0
    5.3980    1.2939   17.8424 C   0  0  0  0  0  0  0  0  0  0  0  0
    6.5628    0.6781   17.5793 N   0  0  0  0  0  0  0  0  0  0  0  0
    7.1803    0.0587   18.5923 C   0  0  0  0  0  0  0  0  0  0  0  0
    8.1289   -0.4303   18.3812 H   0  0  0  0  0  0  0  0  0  0  0  0
    6.6669    0.0022   19.9080 C   0  0  0  0  0  0  0  0  0  0  0  0
    7.3586   -0.6843   20.9481 N   0  0  0  0  0  0  0  0  0  0  0  0
    6.7679   -1.4474   21.9479 C   0  0  0  0  0  0  0  0  0  0  0  0
    5.7011   -1.5994   21.9854 H   0  0  0  0  0  0  0  0  0  0  0  0
    7.7383   -1.9379   22.7502 C   0  0  0  0  0  0  0  0  0  0  0  0
    7.6095   -2.7850   23.9288 C   0  0  0  0  0  0  0  0  0  0  0  0
    6.3653   -2.8553   24.5797 C   0  0  0  0  0  0  0  0  0  0  0  0
    5.5277   -2.2631   24.2232 H   0  0  0  0  0  0  0  0  0  0  0  0
    6.2018   -3.6690   25.6941 C   0  0  0  0  0  0  0  0  0  0  0  0
    5.2390   -3.7206   26.1891 H   0  0  0  0  0  0  0  0  0  0  0  0
    7.2775   -4.4153   26.1757 C   0  0  0  0  0  0  0  0  0  0  0  0
    7.1393   -5.0593   27.0412 H   0  0  0  0  0  0  0  0  0  0  0  0
    8.5345   -4.3467   25.5523 C   0  0  0  0  0  0  0  0  0  0  0  0
    9.6810   -5.2059   26.0340 C   0  0  0  0  0  0  0  0  0  0  0  0
   10.6349   -4.6945   25.8528 H   0  0  0  0  0  0  0  0  0  0  0  0
    9.6081   -5.3456   27.1189 H   0  0  0  0  0  0  0  0  0  0  0  0
    9.7101   -6.5203   25.3835 N   0  0  0  0  0  0  0  0  0  0  0  0
    9.7559   -6.3678   24.3781 H   0  0  0  0  0  0  0  0  0  0  0  0
    8.8081   -6.9664   25.5438 H   0  0  0  0  0  0  0  0  0  0  0  0
    8.6833   -3.5422   24.4189 C   0  0  0  0  0  0  0  0  0  0  0  0
    9.6428   -3.5189   23.9024 H   0  0  0  0  0  0  0  0  0  0  0  0
    8.9441   -1.4772   22.2321 N   0  0  0  0  0  0  0  0  0  0  0  0
    9.8703   -1.6061   22.5934 H   0  0  0  0  0  0  0  0  0  0  0  0
    8.7523   -0.6804   21.1342 C   0  0  0  0  0  0  0  0  0  0  0  0
    9.5962   -0.1077   20.4752 O   0  0  0  0  0  0  0  0  0  0  0  0
    5.4469    0.6453   20.1622 C   0  0  0  0  0  0  0  0  0  0  0  0
    5.0160    0.6296   21.1636 H   0  0  0  0  0  0  0  0  0  0  0  0
    4.8077    1.3115   19.1110 C   0  0  0  0  0  0  0  0  0  0  0  0
    3.8726    1.8445   19.2669 H   0  0  0  0  0  0  0  0  0  0  0  0
  1  2  1  0
  2  3  2  0
  3  4  1  0
  4  5  1  0
  4  6  2  0
  6  7  1  0
  7  8  1  0
  8  9  1  0
  8 10  2  0
 10 11  1  0
 11 12  2  0
 12 13  1  0
 12 14  1  0
 14 15  1  0
 14 16  2  0
 16 17  1  0
 16 18  1  0
 18 19  1  0
 19 20  1  0
 19 21  1  0
 19 22  1  0
 22 23  1  0
 22 24  1  0
 18 25  2  0
 25 26  1  0
 10 27  1  0
 27 28  1  0
 27 29  1  0
 29 30  2  0
  6 31  1  0
 31 32  1  0
 31 33  2  0
 33 34  1  0
 33  2  1  0
 29  7  1  0
 25 11  1  0
M  END
>  <cnnaffinity>  (1) 
-5.33618

>  <filename>  (1) 
NCc1cccc(-c2cn(-c3cccnc3)c(=O)[nH]2)c1

$$$$
