
     RDKit          3D

 36 38  0  0  0  0  0  0  0  0999 V2000
    4.9583    1.8645   16.9544 H   0  0  0  0  0  0  0  0  0  0  0  0
    5.4200    1.3398   17.7889 C   0  0  0  0  0  0  0  0  0  0  0  0
    6.5832    0.7197   17.5288 N   0  0  0  0  0  0  0  0  0  0  0  0
    7.1763    0.0699   18.5380 C   0  0  0  0  0  0  0  0  0  0  0  0
    8.1210   -0.4221   18.3068 H   0  0  0  0  0  0  0  0  0  0  0  0
    6.6336   -0.0255   19.8368 C   0  0  0  0  0  0  0  0  0  0  0  0
    7.3189   -0.7283   20.8960 N   0  0  0  0  0  0  0  0  0  0  0  0
    8.5754   -0.2800   21.2505 C   0  0  0  0  0  0  0  0  0  0  0  0
    8.9412    0.5729   20.6934 H   0  0  0  0  0  0  0  0  0  0  0  0
    9.3364   -0.8619   22.2245 C   0  0  0  0  0  0  0  0  0  0  0  0
   10.7226   -0.3614   22.4703 C   0  0  0  0  0  0  0  0  0  0  0  0
   11.8282   -1.2283   22.3856 C   0  0  0  0  0  0  0  0  0  0  0  0
   11.6736   -2.2684   22.1027 H   0  0  0  0  0  0  0  0  0  0  0  0
   13.1205   -0.7515   22.6418 C   0  0  0  0  0  0  0  0  0  0  0  0
   13.9632   -1.4359   22.6458 H   0  0  0  0  0  0  0  0  0  0  0  0
   13.3218    0.5956   22.9406 C   0  0  0  0  0  0  0  0  0  0  0  0
   14.3351    0.9436   23.1296 H   0  0  0  0  0  0  0  0  0  0  0  0
   12.2468    1.5018   22.9683 C   0  0  0  0  0  0  0  0  0  0  0  0
   12.5020    2.9920   23.1263 C   0  0  0  0  0  0  0  0  0  0  0  0
   11.6096    3.4819   23.5332 H   0  0  0  0  0  0  0  0  0  0  0  0
   13.3107    3.1585   23.8440 H   0  0  0  0  0  0  0  0  0  0  0  0
   12.8750    3.6954   21.8927 N   0  0  0  0  0  0  0  0  0  0  0  0
   13.7756    3.3507   21.5679 H   0  0  0  0  0  0  0  0  0  0  0  0
   12.2241    3.4185   21.1607 H   0  0  0  0  0  0  0  0  0  0  0  0
   10.9500    0.9953   22.7568 C   0  0  0  0  0  0  0  0  0  0  0  0
   10.0922    1.6662   22.8035 H   0  0  0  0  0  0  0  0  0  0  0  0
    8.7626   -1.9511   22.9592 C   0  0  0  0  0  0  0  0  0  0  0  0
    9.3358   -2.4203   23.7598 H   0  0  0  0  0  0  0  0  0  0  0  0
    7.5037   -2.3904   22.6709 C   0  0  0  0  0  0  0  0  0  0  0  0
    7.0174   -3.2063   23.1868 H   0  0  0  0  0  0  0  0  0  0  0  0
    6.6949   -1.8254   21.5952 C   0  0  0  0  0  0  0  0  0  0  0  0
    5.6019   -2.2668   21.2826 O   0  0  0  0  0  0  0  0  0  0  0  0
    5.4273    0.6322   20.0956 C   0  0  0  0  0  0  0  0  0  0  0  0
    5.0040    0.5971   21.0969 H   0  0  0  0  0  0  0  0  0  0  0  0
    4.8117    1.3244   19.0481 C   0  0  0  0  0  0  0  0  0  0  0  0
    3.8809    1.8574   19.1985 H   0  0  0  0  0  0  0  0  0  0  0  0
  1  2  1  0
  2  3  2  0
  3  4  1  0
  4  5  1  0
  4  6  2  0
  6  7  1  0
  7  8  1  0
  8  9  1  0
  8 10  2  0
 10 11  1  0
 11 12  2  0
 12 13  1  0
 12 14  1  0
 14 15  1  0
 14 16  2  0
 16 17  1  0
 16 18  1  0
 18 19  1  0
 19 20  1  0
 19 21  1  0
 19 22  1  0
 22 23  1  0
 22 24  1  0
 18 25  2  0
 25 26  1  0
 10 27  1  0
 27 28  1  0
 27 29  2  0
 29 30  1  0
 29 31  1  0
 31 32  2  0
  6 33  1  0
 33 34  1  0
 33 35  2  0
 35 36  1  0
 35  2  1  0
 31  7  1  0
 25 11  1  0
M  END
>  <cnnaffinity>  (1) 
-5.44681

>  <filename>  (1) 
NCc1cccc(-c2ccc(=O)n(-c3cccnc3)c2)c1

$$$$
