
     RDKit          3D

 37 38  0  0  0  0  0  0  0  0999 V2000
    4.9142    1.7844   16.9913 H   0  0  0  0  0  0  0  0  0  0  0  0
    5.3970    1.2962   17.8308 C   0  0  0  0  0  0  0  0  0  0  0  0
    6.5599    0.6795   17.5694 N   0  0  0  0  0  0  0  0  0  0  0  0
    7.1621    0.0641   18.5926 C   0  0  0  0  0  0  0  0  0  0  0  0
    8.1125   -0.4157   18.3565 H   0  0  0  0  0  0  0  0  0  0  0  0
    6.6569    0.0036   19.9024 C   0  0  0  0  0  0  0  0  0  0  0  0
    7.3459   -0.8212   20.9871 C   0  0  2  0  0  0  0  0  0  0  0  0
    6.7626   -2.2543   20.8904 C   0  0  0  0  0  0  0  0  0  0  0  0
    5.6699   -2.1833   20.9813 H   0  0  0  0  0  0  0  0  0  0  0  0
    6.9041   -2.5911   19.8617 H   0  0  0  0  0  0  0  0  0  0  0  0
    7.2910   -3.3024   21.8601 C   0  0  0  0  0  0  0  0  0  0  0  0
    7.1008   -2.9693   22.8898 H   0  0  0  0  0  0  0  0  0  0  0  0
    8.3818   -3.3909   21.7630 H   0  0  0  0  0  0  0  0  0  0  0  0
    6.6495   -4.6727   21.6443 C   0  0  0  0  0  0  0  0  0  0  0  0
    5.5597   -4.6003   21.7495 H   0  0  0  0  0  0  0  0  0  0  0  0
    6.8347   -5.0127   20.6156 H   0  0  0  0  0  0  0  0  0  0  0  0
    7.1728   -5.7161   22.6151 C   0  0  0  0  0  0  0  0  0  0  0  0
    6.9549   -5.3844   23.6376 H   0  0  0  0  0  0  0  0  0  0  0  0
    8.2746   -5.7656   22.5300 H   0  0  0  0  0  0  0  0  0  0  0  0
    6.5072   -6.9990   22.4012 N   0  0  0  0  0  0  0  0  0  0  0  0
    6.8207   -7.3864   21.5152 H   0  0  0  0  0  0  0  0  0  0  0  0
    6.8119   -7.6616   23.1094 H   0  0  0  0  0  0  0  0  0  0  0  0
    7.1547   -0.2109   22.4044 C   0  0  0  0  0  0  0  0  0  0  0  0
    7.0093    0.8754   22.3179 H   0  0  0  0  0  0  0  0  0  0  0  0
    6.2579   -0.6094   22.8983 H   0  0  0  0  0  0  0  0  0  0  0  0
    8.3575   -0.4707   23.1951 N   0  0  0  0  0  0  0  0  0  0  0  0
    8.1897   -1.2193   23.8553 H   0  0  0  0  0  0  0  0  0  0  0  0
    9.4582   -0.8117   22.2887 C   0  0  0  0  0  0  0  0  0  0  0  0
   10.2712   -0.0792   22.3871 H   0  0  0  0  0  0  0  0  0  0  0  0
    9.8747   -1.7966   22.5364 H   0  0  0  0  0  0  0  0  0  0  0  0
    8.8885   -0.7920   20.8610 C   0  0  0  0  0  0  0  0  0  0  0  0
    9.2722   -1.6192   20.2555 H   0  0  0  0  0  0  0  0  0  0  0  0
    9.1987    0.1328   20.3638 H   0  0  0  0  0  0  0  0  0  0  0  0
    5.4349    0.6527   20.1480 C   0  0  0  0  0  0  0  0  0  0  0  0
    4.9962    0.6416   21.1519 H   0  0  0  0  0  0  0  0  0  0  0  0
    4.8032    1.3122   19.0964 C   0  0  0  0  0  0  0  0  0  0  0  0
    3.8729    1.8459   19.2562 H   0  0  0  0  0  0  0  0  0  0  0  0
  1  2  1  0
  2  3  2  0
  3  4  1  0
  4  5  1  0
  4  6  2  0
  6  7  1  0
  7  8  1  1
  8  9  1  0
  8 10  1  0
  8 11  1  0
 11 12  1  0
 11 13  1  0
 11 14  1  0
 14 15  1  0
 14 16  1  0
 14 17  1  0
 17 18  1  0
 17 19  1  0
 17 20  1  0
 20 21  1  0
 20 22  1  0
  7 23  1  0
 23 24  1  0
 23 25  1  0
 23 26  1  0
 26 27  1  0
 26 28  1  0
 28 29  1  0
 28 30  1  0
 28 31  1  0
 31 32  1  0
 31 33  1  0
  6 34  1  0
 34 35  1  0
 34 36  2  0
 36 37  1  0
 36  2  1  0
 31  7  1  0
M  END
>  <cnnaffinity>  (1) 
-4.47075

>  <filename>  (1) 
NCCCC[C@]1(c2cccnc2)CCNC1

$$$$
