
     RDKit          3D

 33 35  0  0  0  0  0  0  0  0999 V2000
    5.0433    1.8782   17.0132 H   0  0  0  0  0  0  0  0  0  0  0  0
    5.5705    1.3292   17.7915 C   0  0  0  0  0  0  0  0  0  0  0  0
    6.7142    0.7310   17.4168 N   0  0  0  0  0  0  0  0  0  0  0  0
    7.4139    0.0667   18.3464 C   0  0  0  0  0  0  0  0  0  0  0  0
    8.3565   -0.3738   18.0116 H   0  0  0  0  0  0  0  0  0  0  0  0
    6.9741   -0.0765   19.6751 C   0  0  0  0  0  0  0  0  0  0  0  0
    7.6666   -0.8764   20.6163 N   0  0  0  0  0  0  0  0  0  0  0  0
    8.9940   -0.7553   21.0126 C   0  0  0  0  0  0  0  0  0  0  0  0
    9.6065   -0.0091   20.5390 H   0  0  0  0  0  0  0  0  0  0  0  0
    9.2323   -1.5928   22.0575 C   0  0  0  0  0  0  0  0  0  0  0  0
   10.0908   -1.8232   22.6621 H   0  0  0  0  0  0  0  0  0  0  0  0
    8.0284   -2.2304   22.3087 N   0  0  0  0  0  0  0  0  0  0  0  0
    7.5657   -3.0845   23.2585 N   0  0  0  0  0  0  0  0  0  0  0  0
    6.2620   -3.1626   22.9820 C   0  0  0  0  0  0  0  0  0  0  0  0
    5.2994   -4.0436   23.7414 C   0  0  0  0  0  0  0  0  0  0  0  0
    5.8055   -4.4785   24.6163 H   0  0  0  0  0  0  0  0  0  0  0  0
    4.4917   -3.3997   24.1212 H   0  0  0  0  0  0  0  0  0  0  0  0
    4.6936   -5.1338   22.8237 C   0  0  0  0  0  0  0  0  0  0  0  0
    3.9800   -5.7482   23.3838 H   0  0  0  0  0  0  0  0  0  0  0  0
    4.1056   -4.6548   22.0264 H   0  0  0  0  0  0  0  0  0  0  0  0
    5.7554   -6.0241   22.1665 C   0  0  0  0  0  0  0  0  0  0  0  0
    6.2164   -6.6648   22.9277 H   0  0  0  0  0  0  0  0  0  0  0  0
    6.5584   -5.3876   21.7744 H   0  0  0  0  0  0  0  0  0  0  0  0
    5.2749   -6.8561   21.0772 N   0  0  0  0  0  0  0  0  0  0  0  0
    4.5663   -7.5035   21.4180 H   0  0  0  0  0  0  0  0  0  0  0  0
    4.8257   -6.2729   20.3815 H   0  0  0  0  0  0  0  0  0  0  0  0
    5.8880   -2.3848   21.8676 C   0  0  0  0  0  0  0  0  0  0  0  0
    4.8862   -2.2703   21.5184 H   0  0  0  0  0  0  0  0  0  0  0  0
    7.0760   -1.7974   21.4628 C   0  0  0  0  0  0  0  0  0  0  0  0
    5.7884    0.5668   20.0626 C   0  0  0  0  0  0  0  0  0  0  0  0
    5.4690    0.5015   21.1069 H   0  0  0  0  0  0  0  0  0  0  0  0
    5.0750    1.2829   19.1014 C   0  0  0  0  0  0  0  0  0  0  0  0
    4.1611    1.8129   19.3569 H   0  0  0  0  0  0  0  0  0  0  0  0
  1  2  1  0
  2  3  2  0
  3  4  1  0
  4  5  1  0
  4  6  2  0
  6  7  1  0
  7  8  1  0
  8  9  1  0
  8 10  2  0
 10 11  1  0
 10 12  1  0
 12 13  1  0
 13 14  2  0
 14 15  1  0
 15 16  1  0
 15 17  1  0
 15 18  1  0
 18 19  1  0
 18 20  1  0
 18 21  1  0
 21 22  1  0
 21 23  1  0
 21 24  1  0
 24 25  1  0
 24 26  1  0
 14 27  1  0
 27 28  1  0
 27 29  2  0
  6 30  1  0
 30 31  1  0
 30 32  2  0
 32 33  1  0
 32  2  1  0
 29  7  1  0
 29 12  1  0
M  END
>  <cnnaffinity>  (1) 
-4.60929

>  <filename>  (1) 
NCCCc1cc2n(-c3cccnc3)ccn2n1

$$$$
