
     RDKit          3D

 29 30  0  0  0  0  0  0  0  0999 V2000
    4.9218    1.7761   17.0040 H   0  0  0  0  0  0  0  0  0  0  0  0
    5.4071    1.2869   17.8480 C   0  0  0  0  0  0  0  0  0  0  0  0
    6.5730    0.6751   17.5932 N   0  0  0  0  0  0  0  0  0  0  0  0
    7.1779    0.0478   18.6085 C   0  0  0  0  0  0  0  0  0  0  0  0
    8.1236   -0.4350   18.3740 H   0  0  0  0  0  0  0  0  0  0  0  0
    6.6634   -0.0028   19.9146 C   0  0  0  0  0  0  0  0  0  0  0  0
    7.4056   -0.7138   20.9972 C   0  0  0  0  0  0  0  0  0  0  0  0
    8.1102   -1.8056   20.6380 N   0  0  0  0  0  0  0  0  0  0  0  0
    8.7700   -2.5117   21.5581 N   0  0  0  0  0  0  0  0  0  0  0  0
    8.7653   -2.1196   22.8319 C   0  0  0  0  0  0  0  0  0  0  0  0
    9.3346   -2.7335   23.5178 H   0  0  0  0  0  0  0  0  0  0  0  0
    8.0667   -0.9643   23.2909 C   0  0  0  0  0  0  0  0  0  0  0  0
    8.0527   -0.5448   24.5893 N   0  0  0  0  0  0  0  0  0  0  0  0
    7.5125    0.2850   24.7808 H   0  0  0  0  0  0  0  0  0  0  0  0
    8.7478   -1.2090   25.6876 C   0  0  0  0  0  0  0  0  0  0  0  0
    9.8225   -1.2700   25.4660 H   0  0  0  0  0  0  0  0  0  0  0  0
    8.4067   -2.2479   25.7845 H   0  0  0  0  0  0  0  0  0  0  0  0
    8.5613   -0.4938   27.0270 C   0  0  0  0  0  0  0  0  0  0  0  0
    8.8883    0.5541   26.9245 H   0  0  0  0  0  0  0  0  0  0  0  0
    7.4913   -0.4813   27.2661 H   0  0  0  0  0  0  0  0  0  0  0  0
    9.2588   -1.2064   28.0985 N   0  0  0  0  0  0  0  0  0  0  0  0
    9.0526   -0.7702   28.9951 H   0  0  0  0  0  0  0  0  0  0  0  0
   10.2647   -1.1023   27.9955 H   0  0  0  0  0  0  0  0  0  0  0  0
    7.3662   -0.2538   22.3162 C   0  0  0  0  0  0  0  0  0  0  0  0
    6.8228    0.6520   22.5654 H   0  0  0  0  0  0  0  0  0  0  0  0
    5.4457    0.6481   20.1644 C   0  0  0  0  0  0  0  0  0  0  0  0
    4.9937    0.6327   21.1580 H   0  0  0  0  0  0  0  0  0  0  0  0
    4.8092    1.3028   19.1117 C   0  0  0  0  0  0  0  0  0  0  0  0
    3.8790    1.8389   19.2617 H   0  0  0  0  0  0  0  0  0  0  0  0
  1  2  1  0
  2  3  2  0
  3  4  1  0
  4  5  1  0
  4  6  2  0
  6  7  1  0
  7  8  2  0
  8  9  1  0
  9 10  2  0
 10 11  1  0
 10 12  1  0
 12 13  1  0
 13 14  1  0
 13 15  1  0
 15 16  1  0
 15 17  1  0
 15 18  1  0
 18 19  1  0
 18 20  1  0
 18 21  1  0
 21 22  1  0
 21 23  1  0
 12 24  2  0
 24 25  1  0
  6 26  1  0
 26 27  1  0
 26 28  2  0
 28 29  1  0
 28  2  1  0
 24  7  1  0
M  END
>  <cnnaffinity>  (1) 
-4.53676

>  <filename>  (1) 
NCCNc1cnnc(-c2cccnc2)c1

$$$$
