
     RDKit          3D

 30 31  0  0  0  0  0  0  0  0999 V2000
    4.9157    1.7891   16.9869 H   0  0  0  0  0  0  0  0  0  0  0  0
    5.3957    1.2977   17.8310 C   0  0  0  0  0  0  0  0  0  0  0  0
    6.5564    0.6782   17.5689 N   0  0  0  0  0  0  0  0  0  0  0  0
    7.1662    0.0685   18.5938 C   0  0  0  0  0  0  0  0  0  0  0  0
    8.1072   -0.4244   18.3589 H   0  0  0  0  0  0  0  0  0  0  0  0
    6.6584    0.0087   19.9048 C   0  0  0  0  0  0  0  0  0  0  0  0
    7.3722   -0.7204   20.9883 C   0  0  0  0  0  0  0  0  0  0  0  0
    8.7654   -0.5960   21.1724 C   0  0  0  0  0  0  0  0  0  0  0  0
    9.3346    0.0527   20.5094 H   0  0  0  0  0  0  0  0  0  0  0  0
    9.4488   -1.2170   22.1362 N   0  0  0  0  0  0  0  0  0  0  0  0
    8.7507   -2.0097   22.9655 C   0  0  0  0  0  0  0  0  0  0  0  0
    9.3346   -2.5029   23.7345 H   0  0  0  0  0  0  0  0  0  0  0  0
    7.3443   -2.2367   22.8834 C   0  0  0  0  0  0  0  0  0  0  0  0
    6.6352   -3.1033   23.6985 N   0  0  0  0  0  0  0  0  0  0  0  0
    5.6428   -3.1562   23.5178 H   0  0  0  0  0  0  0  0  0  0  0  0
    7.1600   -3.6708   24.9287 C   0  0  0  0  0  0  0  0  0  0  0  0
    8.1070   -4.1832   24.7075 H   0  0  0  0  0  0  0  0  0  0  0  0
    6.4677   -4.4491   25.2656 H   0  0  0  0  0  0  0  0  0  0  0  0
    7.4058   -2.6895   26.0981 C   0  0  0  0  0  0  0  0  0  0  0  0
    8.0674   -1.8831   25.7621 H   0  0  0  0  0  0  0  0  0  0  0  0
    6.4572   -2.2072   26.3537 H   0  0  0  0  0  0  0  0  0  0  0  0
    7.9637   -3.2955   27.3148 N   0  0  0  0  0  0  0  0  0  0  0  0
    8.8397   -3.7602   27.0867 H   0  0  0  0  0  0  0  0  0  0  0  0
    7.3459   -4.0422   27.6241 H   0  0  0  0  0  0  0  0  0  0  0  0
    6.6637   -1.5514   21.8630 C   0  0  0  0  0  0  0  0  0  0  0  0
    5.5875   -1.6844   21.7442 H   0  0  0  0  0  0  0  0  0  0  0  0
    5.4358    0.6501   20.1496 C   0  0  0  0  0  0  0  0  0  0  0  0
    5.0130    0.6394   21.1570 H   0  0  0  0  0  0  0  0  0  0  0  0
    4.8039    1.3171   19.0985 C   0  0  0  0  0  0  0  0  0  0  0  0
    3.8727    1.8454   19.2515 H   0  0  0  0  0  0  0  0  0  0  0  0
  1  2  1  0
  2  3  2  0
  3  4  1  0
  4  5  1  0
  4  6  2  0
  6  7  1  0
  7  8  2  0
  8  9  1  0
  8 10  1  0
 10 11  2  0
 11 12  1  0
 11 13  1  0
 13 14  1  0
 14 15  1  0
 14 16  1  0
 16 17  1  0
 16 18  1  0
 16 19  1  0
 19 20  1  0
 19 21  1  0
 19 22  1  0
 22 23  1  0
 22 24  1  0
 13 25  2  0
 25 26  1  0
  6 27  1  0
 27 28  1  0
 27 29  2  0
 29 30  1  0
 29  2  1  0
 25  7  1  0
M  END
>  <cnnaffinity>  (1) 
-4.69498

>  <filename>  (1) 
NCCNc1cncc(-c2cccnc2)c1

$$$$
