
     RDKit          3D

 24 25  0  0  0  0  0  0  0  0999 V2000
    4.9208    1.7838   16.9936 H   0  0  0  0  0  0  0  0  0  0  0  0
    5.4052    1.2946   17.8366 C   0  0  0  0  0  0  0  0  0  0  0  0
    6.5696    0.6786   17.5756 N   0  0  0  0  0  0  0  0  0  0  0  0
    7.1817    0.0666   18.5995 C   0  0  0  0  0  0  0  0  0  0  0  0
    8.1188   -0.4426   18.3800 H   0  0  0  0  0  0  0  0  0  0  0  0
    6.6704    0.0058   19.9137 C   0  0  0  0  0  0  0  0  0  0  0  0
    7.3662   -0.6925   20.9537 N   0  0  0  0  0  0  0  0  0  0  0  0
    6.7554   -1.7308   21.6740 C   0  0  0  0  0  0  0  0  0  0  0  0
    5.8311   -2.4095   21.3237 O   0  0  0  0  0  0  0  0  0  0  0  0
    7.3920   -1.8852   22.8586 O   0  0  0  0  0  0  0  0  0  0  0  0
    8.4498   -0.9408   22.9920 C   0  0  0  0  0  0  0  0  0  0  0  0
    8.3065   -0.3694   23.9093 H   0  0  0  0  0  0  0  0  0  0  0  0
    9.4099   -1.4604   23.0507 H   0  0  0  0  0  0  0  0  0  0  0  0
    8.3800   -0.0404   21.7567 C   0  0  1  0  0  0  0  0  0  0  0  0
    8.0748    0.9885   22.0315 H   0  0  0  0  0  0  0  0  0  0  0  0
    9.6291    0.0387   21.0428 N   0  0  0  0  0  0  0  0  0  0  0  0
    9.4171    0.3961   20.1099 H   0  0  0  0  0  0  0  0  0  0  0  0
   10.6314    0.6964   21.8021 N   0  0  0  0  0  0  0  0  0  0  0  0
   11.5615    0.4332   21.4775 H   0  0  0  0  0  0  0  0  0  0  0  0
   10.5808    1.7204   21.7848 H   0  0  0  0  0  0  0  0  0  0  0  0
    5.4490    0.6460   20.1692 C   0  0  0  0  0  0  0  0  0  0  0  0
    5.0116    0.6153   21.1698 H   0  0  0  0  0  0  0  0  0  0  0  0
    4.8166    1.3082   19.1082 C   0  0  0  0  0  0  0  0  0  0  0  0
    3.8819    1.8375   19.2574 H   0  0  0  0  0  0  0  0  0  0  0  0
  1  2  1  0
  2  3  2  0
  3  4  1  0
  4  5  1  0
  4  6  2  0
  6  7  1  0
  7  8  1  0
  8  9  2  0
  8 10  1  0
 10 11  1  0
 11 12  1  0
 11 13  1  0
 11 14  1  0
 14 15  1  1
 14 16  1  0
 16 17  1  0
 16 18  1  0
 18 19  1  0
 18 20  1  0
  6 21  1  0
 21 22  1  0
 21 23  2  0
 23 24  1  0
 23  2  1  0
 14  7  1  0
M  END
>  <cnnaffinity>  (1) 
-3.99916

>  <filename>  (1) 
NN[C@@H]1COC(=O)N1c1cccnc1

$$$$
