
     RDKit          3D

 26 27  0  0  0  0  0  0  0  0999 V2000
    4.9158    1.8098   16.9740 H   0  0  0  0  0  0  0  0  0  0  0  0
    5.3871    1.3063   17.8163 C   0  0  0  0  0  0  0  0  0  0  0  0
    6.5469    0.6854   17.5522 N   0  0  0  0  0  0  0  0  0  0  0  0
    7.1623    0.0714   18.5709 C   0  0  0  0  0  0  0  0  0  0  0  0
    8.1045   -0.4230   18.3335 H   0  0  0  0  0  0  0  0  0  0  0  0
    6.6574    0.0167   19.8857 C   0  0  0  0  0  0  0  0  0  0  0  0
    7.3525   -0.7117   20.9837 C   0  0  0  0  0  0  0  0  0  0  0  0
    8.7424   -0.6153   21.1894 C   0  0  0  0  0  0  0  0  0  0  0  0
    9.3605    0.0171   20.5507 H   0  0  0  0  0  0  0  0  0  0  0  0
    9.3924   -1.2555   22.1643 N   0  0  0  0  0  0  0  0  0  0  0  0
    8.6880   -2.0194   22.9981 C   0  0  0  0  0  0  0  0  0  0  0  0
    9.2623   -2.5617   23.7539 H   0  0  0  0  0  0  0  0  0  0  0  0
    7.2980   -2.1686   22.9170 C   0  0  0  0  0  0  0  0  0  0  0  0
    6.7219   -3.1603   23.8982 C   0  0  0  0  0  0  0  0  0  0  0  0
    7.4421   -3.9907   24.4194 O   0  0  0  0  0  0  0  0  0  0  0  0
    5.3648   -3.0273   24.0647 N   0  0  0  0  0  0  0  0  0  0  0  0
    5.0398   -2.1255   23.7337 H   0  0  0  0  0  0  0  0  0  0  0  0
    4.5486   -3.8691   24.8912 N   0  0  0  0  0  0  0  0  0  0  0  0
    3.6288   -3.4577   25.0373 H   0  0  0  0  0  0  0  0  0  0  0  0
    4.3978   -4.7671   24.4215 H   0  0  0  0  0  0  0  0  0  0  0  0
    6.6247   -1.5108   21.8735 C   0  0  0  0  0  0  0  0  0  0  0  0
    5.5621   -1.6495   21.6484 H   0  0  0  0  0  0  0  0  0  0  0  0
    5.4384    0.6616   20.1313 C   0  0  0  0  0  0  0  0  0  0  0  0
    5.0265    0.6392   21.1398 H   0  0  0  0  0  0  0  0  0  0  0  0
    4.7968    1.3249   19.0844 C   0  0  0  0  0  0  0  0  0  0  0  0
    3.8638    1.8516   19.2360 H   0  0  0  0  0  0  0  0  0  0  0  0
  1  2  1  0
  2  3  2  0
  3  4  1  0
  4  5  1  0
  4  6  2  0
  6  7  1  0
  7  8  2  0
  8  9  1  0
  8 10  1  0
 10 11  2  0
 11 12  1  0
 11 13  1  0
 13 14  1  0
 14 15  2  0
 14 16  1  0
 16 17  1  0
 16 18  1  0
 18 19  1  0
 18 20  1  0
 13 21  2  0
 21 22  1  0
  6 23  1  0
 23 24  1  0
 23 25  2  0
 25 26  1  0
 25  2  1  0
 21  7  1  0
M  END
>  <cnnaffinity>  (1) 
-4.57376

>  <filename>  (1) 
NNC(=O)c1cncc(-c2cccnc2)c1

$$$$
