
     RDKit          3D

 28 30  0  0  0  0  0  0  0  0999 V2000
    4.9921    1.8380   17.0250 H   0  0  0  0  0  0  0  0  0  0  0  0
    5.5130    1.3152   17.8220 C   0  0  0  0  0  0  0  0  0  0  0  0
    6.6735    0.7308   17.4804 N   0  0  0  0  0  0  0  0  0  0  0  0
    7.3422    0.0619   18.4278 C   0  0  0  0  0  0  0  0  0  0  0  0
    8.2773   -0.4099   18.1192 H   0  0  0  0  0  0  0  0  0  0  0  0
    6.8822   -0.0739   19.7497 C   0  0  0  0  0  0  0  0  0  0  0  0
    7.5683   -0.8993   20.6809 N   0  0  0  0  0  0  0  0  0  0  0  0
    8.9055   -0.8128   21.0699 C   0  0  0  0  0  0  0  0  0  0  0  0
    9.5384   -0.0537   20.6415 H   0  0  0  0  0  0  0  0  0  0  0  0
    9.1508   -1.7198   22.0527 C   0  0  0  0  0  0  0  0  0  0  0  0
   10.0265   -1.9353   22.6394 H   0  0  0  0  0  0  0  0  0  0  0  0
    7.9539   -2.3892   22.2609 N   0  0  0  0  0  0  0  0  0  0  0  0
    7.5300   -3.3351   23.1233 N   0  0  0  0  0  0  0  0  0  0  0  0
    6.2160   -3.4310   22.8210 C   0  0  0  0  0  0  0  0  0  0  0  0
    5.1441   -4.3115   23.4742 C   0  0  0  0  0  0  0  0  0  0  0  0
    4.0031   -4.2825   23.0408 O   0  0  0  0  0  0  0  0  0  0  0  0
    5.5603   -5.1036   24.5308 N   0  0  0  0  0  0  0  0  0  0  0  0
    6.4435   -4.8365   24.9573 H   0  0  0  0  0  0  0  0  0  0  0  0
    4.7595   -6.1364   25.0511 N   0  0  0  0  0  0  0  0  0  0  0  0
    5.3101   -6.9260   25.3746 H   0  0  0  0  0  0  0  0  0  0  0  0
    4.1225   -5.8168   25.7781 H   0  0  0  0  0  0  0  0  0  0  0  0
    5.8233   -2.5569   21.7812 C   0  0  0  0  0  0  0  0  0  0  0  0
    4.8025   -2.4606   21.4857 H   0  0  0  0  0  0  0  0  0  0  0  0
    6.9869   -1.8888   21.4557 C   0  0  0  0  0  0  0  0  0  0  0  0
    5.6933    0.5859   20.1072 C   0  0  0  0  0  0  0  0  0  0  0  0
    5.3470    0.5628   21.1407 H   0  0  0  0  0  0  0  0  0  0  0  0
    4.9903    1.2797   19.1194 C   0  0  0  0  0  0  0  0  0  0  0  0
    4.0610    1.7970   19.3415 H   0  0  0  0  0  0  0  0  0  0  0  0
  1  2  1  0
  2  3  2  0
  3  4  1  0
  4  5  1  0
  4  6  2  0
  6  7  1  0
  7  8  1  0
  8  9  1  0
  8 10  2  0
 10 11  1  0
 10 12  1  0
 12 13  1  0
 13 14  2  0
 14 15  1  0
 15 16  2  0
 15 17  1  0
 17 18  1  0
 17 19  1  0
 19 20  1  0
 19 21  1  0
 14 22  1  0
 22 23  1  0
 22 24  2  0
  6 25  1  0
 25 26  1  0
 25 27  2  0
 27 28  1  0
 27  2  1  0
 24  7  1  0
 24 12  1  0
M  END
>  <cnnaffinity>  (1) 
-5.00031

>  <filename>  (1) 
NNC(=O)c1cc2n(-c3cccnc3)ccn2n1

$$$$
