
     RDKit          3D

 23 24  0  0  0  0  0  0  0  0999 V2000
    4.9778    1.8633   17.0154 H   0  0  0  0  0  0  0  0  0  0  0  0
    5.4514    1.3067   17.8189 C   0  0  0  0  0  0  0  0  0  0  0  0
    6.6105    0.6947   17.5212 N   0  0  0  0  0  0  0  0  0  0  0  0
    7.2041    0.0095   18.5034 C   0  0  0  0  0  0  0  0  0  0  0  0
    8.1499   -0.4779   18.2778 H   0  0  0  0  0  0  0  0  0  0  0  0
    6.6749   -0.1219   19.8014 C   0  0  0  0  0  0  0  0  0  0  0  0
    7.4112   -0.8323   20.7960 N   0  0  0  0  0  0  0  0  0  0  0  0
    8.7276   -0.5007   21.1319 C   0  0  0  0  0  0  0  0  0  0  0  0
    9.2843    0.2766   20.6458 H   0  0  0  0  0  0  0  0  0  0  0  0
    9.0858   -1.3013   22.1581 C   0  0  0  0  0  0  0  0  0  0  0  0
   10.2195   -1.4357   22.9054 N   0  0  0  0  0  0  0  0  0  0  0  0
   10.1064   -1.9208   23.7902 H   0  0  0  0  0  0  0  0  0  0  0  0
   11.3536   -0.6926   22.5898 N   0  0  0  0  0  0  0  0  0  0  0  0
   11.5523    0.0683   23.2415 H   0  0  0  0  0  0  0  0  0  0  0  0
   12.1732   -1.2837   22.5007 H   0  0  0  0  0  0  0  0  0  0  0  0
    8.0039   -2.1124   22.4268 N   0  0  0  0  0  0  0  0  0  0  0  0
    7.9545   -2.8369   23.1179 H   0  0  0  0  0  0  0  0  0  0  0  0
    6.9783   -1.9031   21.5517 C   0  0  0  0  0  0  0  0  0  0  0  0
    5.6172   -2.8405   21.4000 S   0  0  0  0  0  0  0  0  0  0  0  0
    5.4667    0.5161   20.1041 C   0  0  0  0  0  0  0  0  0  0  0  0
    5.0591    0.4725   21.1174 H   0  0  0  0  0  0  0  0  0  0  0  0
    4.8498    1.2485   19.0846 C   0  0  0  0  0  0  0  0  0  0  0  0
    3.9281    1.7909   19.2703 H   0  0  0  0  0  0  0  0  0  0  0  0
  1  2  1  0
  2  3  2  0
  3  4  1  0
  4  5  1  0
  4  6  2  0
  6  7  1  0
  7  8  1  0
  8  9  1  0
  8 10  2  0
 10 11  1  0
 11 12  1  0
 11 13  1  0
 13 14  1  0
 13 15  1  0
 10 16  1  0
 16 17  1  0
 16 18  1  0
 18 19  2  0
  6 20  1  0
 20 21  1  0
 20 22  2  0
 22 23  1  0
 22  2  1  0
 18  7  1  0
M  END
>  <cnnaffinity>  (1) 
-4.31641

>  <filename>  (1) 
NNc1cn(-c2cccnc2)c(=S)[nH]1

$$$$
