
     RDKit          3D

 30 32  0  0  0  0  0  0  0  0999 V2000
    5.0235    1.7993   16.9102 H   0  0  0  0  0  0  0  0  0  0  0  0
    5.4262    1.3177   17.8001 C   0  0  0  0  0  0  0  0  0  0  0  0
    6.6013    0.6939   17.6430 N   0  0  0  0  0  0  0  0  0  0  0  0
    7.1423    0.1096   18.7149 C   0  0  0  0  0  0  0  0  0  0  0  0
    8.0886   -0.4089   18.5535 H   0  0  0  0  0  0  0  0  0  0  0  0
    6.5568    0.1300   19.9902 C   0  0  0  0  0  0  0  0  0  0  0  0
    7.3069   -0.5034   21.0785 C   0  0  0  0  0  0  0  0  0  0  0  0
    7.9224   -1.6591   20.8525 N   0  0  0  0  0  0  0  0  0  0  0  0
    8.5299   -1.9478   21.9978 N   0  0  0  0  0  0  0  0  0  0  0  0
    8.4376   -1.0146   22.9482 C   0  0  0  0  0  0  0  0  0  0  0  0
    7.6135   -0.0608   22.3862 C   0  0  0  0  0  0  0  0  0  0  0  0
    7.4007    1.5697   22.7857 S   0  0  0  0  0  0  0  0  0  0  0  0
    5.9879    1.9001   22.8089 O   0  0  0  0  0  0  0  0  0  0  0  0
    8.3069    1.9659   23.8376 O   0  0  0  0  0  0  0  0  0  0  0  0
    7.9599    2.3000   21.4179 N   0  0  0  0  0  0  0  0  0  0  0  0
    8.4408    3.0626   21.8834 H   0  0  0  0  0  0  0  0  0  0  0  0
    7.0607    2.6363   21.0849 H   0  0  0  0  0  0  0  0  0  0  0  0
    9.4372   -1.2884   24.0352 C   0  0  0  0  0  0  0  0  0  0  0  0
    8.9794   -1.3086   25.0249 H   0  0  0  0  0  0  0  0  0  0  0  0
   10.1925   -0.4973   24.0324 H   0  0  0  0  0  0  0  0  0  0  0  0
   10.0299   -2.6804   23.6421 C   0  0  0  0  0  0  0  0  0  0  0  0
   11.1186   -2.7076   23.6225 H   0  0  0  0  0  0  0  0  0  0  0  0
    9.7089   -3.4647   24.3311 H   0  0  0  0  0  0  0  0  0  0  0  0
    9.4985   -2.9861   22.2231 C   0  0  0  0  0  0  0  0  0  0  0  0
   10.2742   -2.8813   21.4616 H   0  0  0  0  0  0  0  0  0  0  0  0
    9.0040   -3.9561   22.1584 H   0  0  0  0  0  0  0  0  0  0  0  0
    5.3101    0.7553   20.1355 C   0  0  0  0  0  0  0  0  0  0  0  0
    4.8194    0.7960   21.1066 H   0  0  0  0  0  0  0  0  0  0  0  0
    4.7451    1.3730   19.0187 C   0  0  0  0  0  0  0  0  0  0  0  0
    3.8085    1.9103   19.0887 H   0  0  0  0  0  0  0  0  0  0  0  0
  1  2  1  0
  2  3  2  0
  3  4  1  0
  4  5  1  0
  4  6  2  0
  6  7  1  0
  7  8  2  0
  8  9  1  0
  9 10  1  0
 10 11  2  0
 11 12  1  0
 12 13  2  0
 12 14  2  0
 12 15  1  0
 15 16  1  0
 15 17  1  0
 10 18  1  0
 18 19  1  0
 18 20  1  0
 18 21  1  0
 21 22  1  0
 21 23  1  0
 21 24  1  0
 24 25  1  0
 24 26  1  0
  6 27  1  0
 27 28  1  0
 27 29  2  0
 29 30  1  0
 29  2  1  0
 11  7  1  0
 24  9  1  0
M  END
>  <cnnaffinity>  (1) 
-4.84025

>  <filename>  (1) 
NS(=O)(=O)c1c(-c2cccnc2)nn2c1CCC2

$$$$
