
     RDKit          3D

 29 30  0  0  0  0  0  0  0  0999 V2000
    5.0814    1.6945   16.8543 H   0  0  0  0  0  0  0  0  0  0  0  0
    5.5010    1.2197   17.7395 C   0  0  0  0  0  0  0  0  0  0  0  0
    6.6842    0.6074   17.5875 N   0  0  0  0  0  0  0  0  0  0  0  0
    7.2226    0.0201   18.6650 C   0  0  0  0  0  0  0  0  0  0  0  0
    8.2033   -0.4324   18.5265 H   0  0  0  0  0  0  0  0  0  0  0  0
    6.6171   -0.0176   19.9468 C   0  0  0  0  0  0  0  0  0  0  0  0
    7.2551   -0.5852   21.0710 N   0  0  0  0  0  0  0  0  0  0  0  0
    8.7184   -0.7028   21.0935 C   0  0  0  0  0  0  0  0  0  0  0  0
    9.0542   -1.5446   20.4713 H   0  0  0  0  0  0  0  0  0  0  0  0
    9.1305    0.2269   20.6839 H   0  0  0  0  0  0  0  0  0  0  0  0
    9.2040   -0.9068   22.5315 C   0  0  0  0  0  0  0  0  0  0  0  0
    9.0793    0.0438   23.0752 H   0  0  0  0  0  0  0  0  0  0  0  0
   10.2593   -1.1984   22.5347 H   0  0  0  0  0  0  0  0  0  0  0  0
    8.4975   -1.9402   23.2040 O   0  0  0  0  0  0  0  0  0  0  0  0
    7.1207   -1.6219   23.2871 C   0  0  0  0  0  0  0  0  0  0  0  0
    6.9710   -0.6331   23.7479 H   0  0  0  0  0  0  0  0  0  0  0  0
    6.6448   -2.3663   23.9328 H   0  0  0  0  0  0  0  0  0  0  0  0
    6.5570   -1.5959   21.8629 C   0  0  2  0  0  0  0  0  0  0  0  0
    5.4920   -1.4118   21.8245 H   0  0  0  0  0  0  0  0  0  0  0  0
    6.4841   -3.3752   21.3271 S   0  0  0  0  0  0  0  0  0  0  0  0
    7.7677   -4.0521   21.2972 O   0  0  0  0  0  0  0  0  0  0  0  0
    5.4929   -3.5603   20.2772 O   0  0  0  0  0  0  0  0  0  0  0  0
    5.6866   -4.0732   22.6124 N   0  0  0  0  0  0  0  0  0  0  0  0
    4.8962   -4.4164   22.0837 H   0  0  0  0  0  0  0  0  0  0  0  0
    6.3402   -4.8386   22.7504 H   0  0  0  0  0  0  0  0  0  0  0  0
    5.3708    0.6212   20.0787 C   0  0  0  0  0  0  0  0  0  0  0  0
    4.8986    0.6606   21.0611 H   0  0  0  0  0  0  0  0  0  0  0  0
    4.8202    1.2537   18.9605 C   0  0  0  0  0  0  0  0  0  0  0  0
    3.8749    1.7760   19.0260 H   0  0  0  0  0  0  0  0  0  0  0  0
  1  2  1  0
  2  3  2  0
  3  4  1  0
  4  5  1  0
  4  6  2  0
  6  7  1  0
  7  8  1  0
  8  9  1  0
  8 10  1  0
  8 11  1  0
 11 12  1  0
 11 13  1  0
 11 14  1  0
 14 15  1  0
 15 16  1  0
 15 17  1  0
 15 18  1  0
 18 19  1  1
 18 20  1  0
 20 21  2  0
 20 22  2  0
 20 23  1  0
 23 24  1  0
 23 25  1  0
  6 26  1  0
 26 27  1  0
 26 28  2  0
 28 29  1  0
 28  2  1  0
 18  7  1  0
M  END
>  <cnnaffinity>  (1) 
-4.12097

>  <filename>  (1) 
NS(=O)(=O)[C@H]1COCCN1c1cccnc1

$$$$
