
     RDKit          3D

 29 31  0  0  0  0  0  0  0  0999 V2000
    5.0504    1.8663   17.0674 H   0  0  0  0  0  0  0  0  0  0  0  0
    5.5203    1.2958   17.8669 C   0  0  0  0  0  0  0  0  0  0  0  0
    6.6623    0.6628   17.5525 N   0  0  0  0  0  0  0  0  0  0  0  0
    7.2694   -0.0443   18.5099 C   0  0  0  0  0  0  0  0  0  0  0  0
    8.2112   -0.5177   18.2327 H   0  0  0  0  0  0  0  0  0  0  0  0
    6.7575   -0.1931   19.8117 C   0  0  0  0  0  0  0  0  0  0  0  0
    7.4409   -0.9964   20.7533 N   0  0  0  0  0  0  0  0  0  0  0  0
    8.8005   -0.9010   21.0431 C   0  0  0  0  0  0  0  0  0  0  0  0
    9.4113   -0.2059   20.4948 H   0  0  0  0  0  0  0  0  0  0  0  0
    9.1089   -1.7545   22.0507 C   0  0  0  0  0  0  0  0  0  0  0  0
   10.0123   -1.9863   22.5842 H   0  0  0  0  0  0  0  0  0  0  0  0
    7.9301   -2.3871   22.3764 N   0  0  0  0  0  0  0  0  0  0  0  0
    7.5497   -3.2261   23.3753 N   0  0  0  0  0  0  0  0  0  0  0  0
    6.2398   -3.2699   23.2029 C   0  0  0  0  0  0  0  0  0  0  0  0
    5.5294   -3.9384   24.1763 N   0  0  0  0  0  0  0  0  0  0  0  0
    6.0078   -4.6936   24.6251 H   0  0  0  0  0  0  0  0  0  0  0  0
    4.0689   -4.5509   23.8873 S   0  0  0  0  0  0  0  0  0  0  0  0
    3.6620   -4.4990   22.5001 O   0  0  0  0  0  0  0  0  0  0  0  0
    4.0681   -5.7511   24.6763 O   0  0  0  0  0  0  0  0  0  0  0  0
    3.3156   -3.2747   24.5786 N   0  0  0  0  0  0  0  0  0  0  0  0
    4.0139   -2.5902   24.2806 H   0  0  0  0  0  0  0  0  0  0  0  0
    2.5091   -3.2245   23.9744 H   0  0  0  0  0  0  0  0  0  0  0  0
    5.7523   -2.5717   22.0864 C   0  0  0  0  0  0  0  0  0  0  0  0
    4.7545   -2.6047   21.7148 H   0  0  0  0  0  0  0  0  0  0  0  0
    6.9063   -1.9453   21.6107 C   0  0  0  0  0  0  0  0  0  0  0  0
    5.5756    0.4880   20.1405 C   0  0  0  0  0  0  0  0  0  0  0  0
    5.1794    0.4411   21.1554 H   0  0  0  0  0  0  0  0  0  0  0  0
    4.9529    1.2447   19.1447 C   0  0  0  0  0  0  0  0  0  0  0  0
    4.0440    1.7989   19.3484 H   0  0  0  0  0  0  0  0  0  0  0  0
  1  2  1  0
  2  3  2  0
  3  4  1  0
  4  5  1  0
  4  6  2  0
  6  7  1  0
  7  8  1  0
  8  9  1  0
  8 10  2  0
 10 11  1  0
 10 12  1  0
 12 13  1  0
 13 14  2  0
 14 15  1  0
 15 16  1  0
 15 17  1  0
 17 18  2  0
 17 19  2  0
 17 20  1  0
 20 21  1  0
 20 22  1  0
 14 23  1  0
 23 24  1  0
 23 25  2  0
  6 26  1  0
 26 27  1  0
 26 28  2  0
 28 29  1  0
 28  2  1  0
 25  7  1  0
 25 12  1  0
M  END
>  <cnnaffinity>  (1) 
-4.90154

>  <filename>  (1) 
NS(=O)(=O)Nc1cc2n(-c3cccnc3)ccn2n1

$$$$
