
     RDKit          3D

 26 27  0  0  0  0  0  0  0  0999 V2000
    4.9327    1.8888   17.0131 H   0  0  0  0  0  0  0  0  0  0  0  0
    5.3886    1.2963   17.8051 C   0  0  0  0  0  0  0  0  0  0  0  0
    6.5401    0.6754   17.4943 N   0  0  0  0  0  0  0  0  0  0  0  0
    7.1441   -0.0118   18.4674 C   0  0  0  0  0  0  0  0  0  0  0  0
    8.0868   -0.5002   18.2214 H   0  0  0  0  0  0  0  0  0  0  0  0
    6.6376   -0.1364   19.7760 C   0  0  0  0  0  0  0  0  0  0  0  0
    7.4464   -0.7522   20.7750 N   0  0  0  0  0  0  0  0  0  0  0  0
    8.7692   -0.3347   20.9771 C   0  0  0  0  0  0  0  0  0  0  0  0
    9.1915    0.5393   20.5135 H   0  0  0  0  0  0  0  0  0  0  0  0
    9.2746   -1.1526   21.9090 C   0  0  0  0  0  0  0  0  0  0  0  0
   10.5284   -1.3463   22.4816 N   0  0  0  0  0  0  0  0  0  0  0  0
   10.5586   -1.1836   23.4790 H   0  0  0  0  0  0  0  0  0  0  0  0
   11.7315   -0.2932   22.0446 S   0  0  0  0  0  0  0  0  0  0  0  0
   12.5543   -0.2609   23.2220 O   0  0  0  0  0  0  0  0  0  0  0  0
   11.2356    0.8760   21.3708 O   0  0  0  0  0  0  0  0  0  0  0  0
   12.3335   -1.3249   20.9257 N   0  0  0  0  0  0  0  0  0  0  0  0
   11.4841   -1.4030   20.3701 H   0  0  0  0  0  0  0  0  0  0  0  0
   12.3253   -2.1648   21.4900 H   0  0  0  0  0  0  0  0  0  0  0  0
    8.3141   -2.0300   22.2934 N   0  0  0  0  0  0  0  0  0  0  0  0
    8.4577   -2.8698   22.8242 H   0  0  0  0  0  0  0  0  0  0  0  0
    7.1572   -1.8315   21.5950 C   0  0  0  0  0  0  0  0  0  0  0  0
    5.8179   -2.7982   21.7331 S   0  0  0  0  0  0  0  0  0  0  0  0
    5.4009    0.4426   20.0727 C   0  0  0  0  0  0  0  0  0  0  0  0
    4.9499    0.3184   21.0585 H   0  0  0  0  0  0  0  0  0  0  0  0
    4.7863    1.1995   19.0655 C   0  0  0  0  0  0  0  0  0  0  0  0
    3.8629    1.7364   19.2497 H   0  0  0  0  0  0  0  0  0  0  0  0
  1  2  1  0
  2  3  2  0
  3  4  1  0
  4  5  1  0
  4  6  2  0
  6  7  1  0
  7  8  1  0
  8  9  1  0
  8 10  2  0
 10 11  1  0
 11 12  1  0
 11 13  1  0
 13 14  2  0
 13 15  2  0
 13 16  1  0
 16 17  1  0
 16 18  1  0
 10 19  1  0
 19 20  1  0
 19 21  1  0
 21 22  2  0
  6 23  1  0
 23 24  1  0
 23 25  2  0
 25 26  1  0
 25  2  1  0
 21  7  1  0
M  END
>  <cnnaffinity>  (1) 
-5.07764

>  <filename>  (1) 
NS(=O)(=O)Nc1cn(-c2cccnc2)c(=S)[nH]1

$$$$
