
     RDKit          3D

 40 43  0  0  0  0  0  0  0  0999 V2000
    5.0585    1.7654   16.8562 H   0  0  0  0  0  0  0  0  0  0  0  0
    5.4575    1.2482   17.7245 C   0  0  0  0  0  0  0  0  0  0  0  0
    6.5912    0.5569   17.5296 N   0  0  0  0  0  0  0  0  0  0  0  0
    7.1253   -0.0483   18.5921 C   0  0  0  0  0  0  0  0  0  0  0  0
    8.0275   -0.6273   18.4079 H   0  0  0  0  0  0  0  0  0  0  0  0
    6.6029    0.0328   19.8969 C   0  0  0  0  0  0  0  0  0  0  0  0
    7.3649   -0.5766   21.0004 C   0  0  0  0  0  0  0  0  0  0  0  0
    8.0481   -1.7053   20.8020 N   0  0  0  0  0  0  0  0  0  0  0  0
    8.5743   -1.9737   21.9916 N   0  0  0  0  0  0  0  0  0  0  0  0
    8.3146   -1.0897   22.9477 C   0  0  0  0  0  0  0  0  0  0  0  0
    7.5192   -0.1165   22.3494 C   0  0  0  0  0  0  0  0  0  0  0  0
    7.0542    1.1177   22.9768 C   0  0  0  0  0  0  0  0  0  0  0  0
    7.1252    2.3617   22.3245 C   0  0  0  0  0  0  0  0  0  0  0  0
    7.4318    2.4071   21.2839 H   0  0  0  0  0  0  0  0  0  0  0  0
    6.8126    3.5366   22.9987 C   0  0  0  0  0  0  0  0  0  0  0  0
    6.8655    4.4894   22.4746 H   0  0  0  0  0  0  0  0  0  0  0  0
    6.3962    3.4734   24.3371 C   0  0  0  0  0  0  0  0  0  0  0  0
    5.9628    4.9805   25.1347 S   0  0  0  0  0  0  0  0  0  0  0  0
    6.8689    5.3391   26.2098 O   0  0  0  0  0  0  0  0  0  0  0  0
    5.5273    5.9416   24.1403 O   0  0  0  0  0  0  0  0  0  0  0  0
    4.5699    4.6213   25.9579 N   0  0  0  0  0  0  0  0  0  0  0  0
    4.8695    5.1577   26.7682 H   0  0  0  0  0  0  0  0  0  0  0  0
    3.9454    5.2008   25.4039 H   0  0  0  0  0  0  0  0  0  0  0  0
    6.2940    2.2410   24.9992 C   0  0  0  0  0  0  0  0  0  0  0  0
    5.9275    2.1648   26.0211 H   0  0  0  0  0  0  0  0  0  0  0  0
    6.6240    1.0797   24.3109 C   0  0  0  0  0  0  0  0  0  0  0  0
    6.5261    0.1202   24.8099 H   0  0  0  0  0  0  0  0  0  0  0  0
    8.9869   -1.5101   24.2301 C   0  0  0  0  0  0  0  0  0  0  0  0
    9.6088   -0.7180   24.6519 H   0  0  0  0  0  0  0  0  0  0  0  0
    8.2406   -1.7564   24.9879 H   0  0  0  0  0  0  0  0  0  0  0  0
    9.8099   -2.7596   23.8132 C   0  0  0  0  0  0  0  0  0  0  0  0
    9.5778   -3.6199   24.4358 H   0  0  0  0  0  0  0  0  0  0  0  0
   10.8765   -2.5720   23.9003 H   0  0  0  0  0  0  0  0  0  0  0  0
    9.4606   -3.0535   22.3344 C   0  0  0  0  0  0  0  0  0  0  0  0
    8.9489   -4.0054   22.1819 H   0  0  0  0  0  0  0  0  0  0  0  0
   10.3343   -2.9920   21.6894 H   0  0  0  0  0  0  0  0  0  0  0  0
    5.3765    0.7027   20.0665 C   0  0  0  0  0  0  0  0  0  0  0  0
    4.9002    0.7592   21.0484 H   0  0  0  0  0  0  0  0  0  0  0  0
    4.8002    1.3208   18.9568 C   0  0  0  0  0  0  0  0  0  0  0  0
    3.8719    1.8761   19.0370 H   0  0  0  0  0  0  0  0  0  0  0  0
  1  2  1  0
  2  3  2  0
  3  4  1  0
  4  5  1  0
  4  6  2  0
  6  7  1  0
  7  8  2  0
  8  9  1  0
  9 10  1  0
 10 11  2  0
 11 12  1  0
 12 13  2  0
 13 14  1  0
 13 15  1  0
 15 16  1  0
 15 17  2  0
 17 18  1  0
 18 19  2  0
 18 20  2  0
 18 21  1  0
 21 22  1  0
 21 23  1  0
 17 24  1  0
 24 25  1  0
 24 26  2  0
 26 27  1  0
 10 28  1  0
 28 29  1  0
 28 30  1  0
 28 31  1  0
 31 32  1  0
 31 33  1  0
 31 34  1  0
 34 35  1  0
 34 36  1  0
  6 37  1  0
 37 38  1  0
 37 39  2  0
 39 40  1  0
 39  2  1  0
 11  7  1  0
 26 12  1  0
 34  9  1  0
M  END
>  <cnnaffinity>  (1) 
-5.43461

>  <filename>  (1) 
NS(=O)(=O)c1ccc(-c2c(-c3cccnc3)nn3c2CCC3)cc1

$$$$
