
     RDKit          3D

 25 27  0  0  0  0  0  0  0  0999 V2000
    4.9844    1.8100   16.9378 H   0  0  0  0  0  0  0  0  0  0  0  0
    5.4085    1.2805   17.7878 C   0  0  0  0  0  0  0  0  0  0  0  0
    6.5563    0.6230   17.5650 N   0  0  0  0  0  0  0  0  0  0  0  0
    7.1262    0.0024   18.6009 C   0  0  0  0  0  0  0  0  0  0  0  0
    8.0631   -0.5122   18.3943 H   0  0  0  0  0  0  0  0  0  0  0  0
    6.6011    0.0269   19.9039 C   0  0  0  0  0  0  0  0  0  0  0  0
    7.3630   -0.5928   20.9785 C   0  0  0  0  0  0  0  0  0  0  0  0
    7.9621   -1.8119   20.8059 N   0  0  0  0  0  0  0  0  0  0  0  0
    8.4588   -2.1103   21.9713 C   0  0  0  0  0  0  0  0  0  0  0  0
    8.3146   -1.1266   22.8954 N   0  0  0  0  0  0  0  0  0  0  0  0
    7.5949   -0.1421   22.2742 C   0  0  0  0  0  0  0  0  0  0  0  0
    7.2378    1.0625   22.9436 N   0  0  0  0  0  4  0  0  0  0  0  0
    7.1721    1.0484   24.1683 O   0  0  0  0  0  0  0  0  0  0  0  0
    7.0251    2.0465   22.2470 O   0  0  0  0  0  1  0  0  0  0  0  0
    8.9219   -1.3166   24.2046 C   0  0  0  0  0  0  0  0  0  0  0  0
    8.1510   -1.5922   24.9320 H   0  0  0  0  0  0  0  0  0  0  0  0
    9.4086   -0.3988   24.5427 H   0  0  0  0  0  0  0  0  0  0  0  0
    9.9426   -2.4451   23.9715 C   0  0  0  0  0  0  0  0  0  0  0  0
   10.1718   -3.0336   24.8631 H   0  0  0  0  0  0  0  0  0  0  0  0
   10.8704   -2.0449   23.5528 H   0  0  0  0  0  0  0  0  0  0  0  0
    9.2127   -3.5232   22.6916 S   0  0  0  0  0  0  0  0  0  0  0  0
    5.3699    0.6736   20.1109 C   0  0  0  0  0  0  0  0  0  0  0  0
    4.8976    0.6917   21.0920 H   0  0  0  0  0  0  0  0  0  0  0  0
    4.7704    1.3117   19.0288 C   0  0  0  0  0  0  0  0  0  0  0  0
    3.8409    1.8534   19.1451 H   0  0  0  0  0  0  0  0  0  0  0  0
  1  2  1  0
  2  3  2  0
  3  4  1  0
  4  5  1  0
  4  6  2  0
  6  7  1  0
  7  8  1  0
  8  9  2  0
  9 10  1  0
 10 11  1  0
 11 12  1  0
 12 13  2  0
 12 14  1  0
 10 15  1  0
 15 16  1  0
 15 17  1  0
 15 18  1  0
 18 19  1  0
 18 20  1  0
 18 21  1  0
  6 22  1  0
 22 23  1  0
 22 24  2  0
 24 25  1  0
 24  2  1  0
 11  7  2  0
 21  9  1  0
M  CHG  2  12   1  14  -1
M  END
>  <cnnaffinity>  (1) 
-4.43457

>  <filename>  (1) 
O=[N+]([O-])c1c(-c2cccnc2)nc2n1CCS2

$$$$
