
     RDKit          3D

 20 21  0  0  0  0  0  0  0  0999 V2000
    4.9545    1.7984   17.0125 H   0  0  0  0  0  0  0  0  0  0  0  0
    5.4206    1.2815   17.8506 C   0  0  0  0  0  0  0  0  0  0  0  0
    6.5742    0.6563   17.5792 N   0  0  0  0  0  0  0  0  0  0  0  0
    7.2005    0.0396   18.5916 C   0  0  0  0  0  0  0  0  0  0  0  0
    8.1481   -0.4349   18.3448 H   0  0  0  0  0  0  0  0  0  0  0  0
    6.6872   -0.0183   19.9032 C   0  0  0  0  0  0  0  0  0  0  0  0
    7.3639   -0.7543   20.9546 N   0  0  0  0  0  0  0  0  0  0  0  0
    8.6334   -0.5491   21.4723 C   0  0  0  0  0  0  0  0  0  0  0  0
    9.4728    0.6043   21.1403 N   0  0  0  0  0  4  0  0  0  0  0  0
    8.8983    1.6023   20.7308 O   0  0  0  0  0  0  0  0  0  0  0  0
   10.6699    0.4978   21.3096 O   0  0  0  0  0  1  0  0  0  0  0  0
    8.9729   -1.4368   22.3546 N   0  0  0  0  0  0  0  0  0  0  0  0
    7.8763   -2.2201   22.4207 N   0  0  0  0  0  0  0  0  0  0  0  0
    7.7667   -3.0024   23.0564 H   0  0  0  0  0  0  0  0  0  0  0  0
    6.8690   -1.8838   21.6021 C   0  0  0  0  0  0  0  0  0  0  0  0
    5.4522   -2.7402   21.4591 S   0  0  0  0  0  0  0  0  0  0  0  0
    5.4768    0.6193   20.1710 C   0  0  0  0  0  0  0  0  0  0  0  0
    5.0500    0.5717   21.1775 H   0  0  0  0  0  0  0  0  0  0  0  0
    4.8345    1.2929   19.1212 C   0  0  0  0  0  0  0  0  0  0  0  0
    3.8984    1.8196   19.2672 H   0  0  0  0  0  0  0  0  0  0  0  0
  1  2  1  0
  2  3  2  0
  3  4  1  0
  4  5  1  0
  4  6  2  0
  6  7  1  0
  7  8  1  0
  8  9  1  0
  9 10  2  0
  9 11  1  0
  8 12  2  0
 12 13  1  0
 13 14  1  0
 13 15  1  0
 15 16  2  0
  6 17  1  0
 17 18  1  0
 17 19  2  0
 19 20  1  0
 19  2  1  0
 15  7  1  0
M  CHG  2   9   1  11  -1
M  END
>  <cnnaffinity>  (1) 
-4.41668

>  <filename>  (1) 
O=[N+]([O-])c1n[nH]c(=S)n1-c1cccnc1

$$$$
