
     RDKit          3D

 37 40  0  0  0  0  0  0  0  0999 V2000
    4.9872    1.8451   16.9227 H   0  0  0  0  0  0  0  0  0  0  0  0
    5.3877    1.3088   17.7827 C   0  0  0  0  0  0  0  0  0  0  0  0
    6.5422    0.6533   17.5881 N   0  0  0  0  0  0  0  0  0  0  0  0
    7.0750    0.0293   18.6495 C   0  0  0  0  0  0  0  0  0  0  0  0
    8.0178   -0.4812   18.4554 H   0  0  0  0  0  0  0  0  0  0  0  0
    6.4933   -0.0109   19.9382 C   0  0  0  0  0  0  0  0  0  0  0  0
    7.2439   -0.6307   21.0585 C   0  0  0  0  0  0  0  0  0  0  0  0
    8.5957   -0.5686   21.2990 C   0  0  0  0  0  0  0  0  0  0  0  0
    8.8095   -1.1696   22.5316 C   0  0  0  0  0  0  0  0  0  0  0  0
    7.6969   -1.6329   23.0681 N   0  0  0  0  0  0  0  0  0  0  0  0
    6.7469   -1.2848   22.1582 N   0  0  0  0  0  0  0  0  0  0  0  0
    5.7851   -1.5083   22.3796 H   0  0  0  0  0  0  0  0  0  0  0  0
   10.2460   -1.1167   22.9598 C   0  0  0  0  0  0  0  0  0  0  0  0
   10.3776   -0.6387   23.9363 H   0  0  0  0  0  0  0  0  0  0  0  0
   10.6695   -2.1205   23.0511 H   0  0  0  0  0  0  0  0  0  0  0  0
   10.9343   -0.2874   21.8161 C   0  0  2  0  0  0  0  0  0  0  0  0
   11.7489   -0.8902   21.4041 H   0  0  0  0  0  0  0  0  0  0  0  0
   11.5014    1.0212   22.3225 C   0  0  0  0  0  0  0  0  0  0  0  0
   12.8773    1.2858   22.2939 C   0  0  0  0  0  0  0  0  0  0  0  0
   13.5665    0.5378   21.9152 H   0  0  0  0  0  0  0  0  0  0  0  0
   13.3840    2.5016   22.7416 C   0  0  0  0  0  0  0  0  0  0  0  0
   14.4438    2.7177   22.6706 H   0  0  0  0  0  0  0  0  0  0  0  0
   12.5099    3.4641   23.2576 C   0  0  0  0  0  0  0  0  0  0  0  0
   13.0707    4.7467   23.7429 N   0  0  0  0  0  4  0  0  0  0  0  0
   14.2731    4.9167   23.6468 O   0  0  0  0  0  0  0  0  0  0  0  0
   12.3033    5.5672   24.2231 O   0  0  0  0  0  1  0  0  0  0  0  0
   11.1299    3.2207   23.3219 C   0  0  0  0  0  0  0  0  0  0  0  0
   10.4490    3.9637   23.7225 H   0  0  0  0  0  0  0  0  0  0  0  0
   10.6445    2.0021   22.8512 C   0  0  0  0  0  0  0  0  0  0  0  0
    9.5793    1.7949   22.8888 H   0  0  0  0  0  0  0  0  0  0  0  0
    9.8615   -0.0706   20.6968 C   0  0  0  0  0  0  0  0  0  0  0  0
   10.1176   -0.6423   19.8035 H   0  0  0  0  0  0  0  0  0  0  0  0
    9.7884    0.9747   20.3778 H   0  0  0  0  0  0  0  0  0  0  0  0
    5.2701    0.6641   20.1063 C   0  0  0  0  0  0  0  0  0  0  0  0
    4.7839    0.7102   21.0833 H   0  0  0  0  0  0  0  0  0  0  0  0
    4.7200    1.3362   19.0131 C   0  0  0  0  0  0  0  0  0  0  0  0
    3.8038    1.9100   19.1061 H   0  0  0  0  0  0  0  0  0  0  0  0
  1  2  1  0
  2  3  2  0
  3  4  1  0
  4  5  1  0
  4  6  2  0
  6  7  1  0
  7  8  2  0
  8  9  1  0
  9 10  2  0
 10 11  1  0
 11 12  1  0
  9 13  1  0
 13 14  1  0
 13 15  1  0
 13 16  1  0
 16 17  1  6
 16 18  1  0
 18 19  2  0
 19 20  1  0
 19 21  1  0
 21 22  1  0
 21 23  2  0
 23 24  1  0
 24 25  2  0
 24 26  1  0
 23 27  1  0
 27 28  1  0
 27 29  2  0
 29 30  1  0
 16 31  1  0
 31 32  1  0
 31 33  1  0
  6 34  1  0
 34 35  1  0
 34 36  2  0
 36 37  1  0
 36  2  1  0
 11  7  1  0
 29 18  1  0
 31  8  1  0
M  CHG  2  24   1  26  -1
M  END
>  <cnnaffinity>  (1) 
-5.91788

>  <filename>  (1) 
O=[N+]([O-])c1ccc([C@H]2Cc3n[nH]c(-c4cccnc4)c3C2)cc1

$$$$
