
     RDKit          3D

 37 40  0  0  0  0  0  0  0  0999 V2000
    4.9861    1.8468   16.9217 H   0  0  0  0  0  0  0  0  0  0  0  0
    5.3865    1.3100   17.7814 C   0  0  0  0  0  0  0  0  0  0  0  0
    6.5410    0.6544   17.5863 N   0  0  0  0  0  0  0  0  0  0  0  0
    7.0732    0.0287   18.6473 C   0  0  0  0  0  0  0  0  0  0  0  0
    8.0174   -0.4793   18.4525 H   0  0  0  0  0  0  0  0  0  0  0  0
    6.4907   -0.0147   19.9355 C   0  0  0  0  0  0  0  0  0  0  0  0
    7.2396   -0.6382   21.0550 C   0  0  0  0  0  0  0  0  0  0  0  0
    8.5928   -0.5776   21.2941 C   0  0  0  0  0  0  0  0  0  0  0  0
    8.8079   -1.1678   22.5310 C   0  0  0  0  0  0  0  0  0  0  0  0
    7.6957   -1.6286   23.0713 N   0  0  0  0  0  0  0  0  0  0  0  0
    6.7437   -1.2839   22.1606 N   0  0  0  0  0  0  0  0  0  0  0  0
    5.7805   -1.5000   22.3857 H   0  0  0  0  0  0  0  0  0  0  0  0
   10.2458   -1.1039   22.9560 C   0  0  0  0  0  0  0  0  0  0  0  0
   10.3773   -0.6505   23.9433 H   0  0  0  0  0  0  0  0  0  0  0  0
   10.6765   -2.1071   23.0173 H   0  0  0  0  0  0  0  0  0  0  0  0
   10.9203   -0.2385   21.8299 C   0  0  2  0  0  0  0  0  0  0  0  0
   11.7721   -0.7976   21.4325 H   0  0  0  0  0  0  0  0  0  0  0  0
   11.4173    1.1039   22.3495 C   0  0  0  0  0  0  0  0  0  0  0  0
   12.7800    1.4515   22.3234 C   0  0  0  0  0  0  0  0  0  0  0  0
   13.5220    0.7520   21.9379 H   0  0  0  0  0  0  0  0  0  0  0  0
   13.2004    2.7019   22.7930 C   0  0  0  0  0  0  0  0  0  0  0  0
   14.2489    2.9810   22.7483 H   0  0  0  0  0  0  0  0  0  0  0  0
   12.2811    3.6136   23.3125 C   0  0  0  0  0  0  0  0  0  0  0  0
   12.5952    4.5848   23.6803 H   0  0  0  0  0  0  0  0  0  0  0  0
   10.9285    3.2620   23.3587 C   0  0  0  0  0  0  0  0  0  0  0  0
    9.9427    4.2152   23.9325 N   0  0  0  0  0  4  0  0  0  0  0  0
   10.3519    5.2815   24.3610 O   0  0  0  0  0  0  0  0  0  0  0  0
    8.7679    3.8809   23.9544 O   0  0  0  0  0  1  0  0  0  0  0  0
   10.4918    2.0230   22.8746 C   0  0  0  0  0  0  0  0  0  0  0  0
    9.4334    1.7760   22.9066 H   0  0  0  0  0  0  0  0  0  0  0  0
    9.8547   -0.0675   20.6954 C   0  0  0  0  0  0  0  0  0  0  0  0
   10.1282   -0.6510   19.8160 H   0  0  0  0  0  0  0  0  0  0  0  0
    9.7644    0.9697   20.3565 H   0  0  0  0  0  0  0  0  0  0  0  0
    5.2687    0.6635   20.1043 C   0  0  0  0  0  0  0  0  0  0  0  0
    4.7848    0.7123   21.0826 H   0  0  0  0  0  0  0  0  0  0  0  0
    4.7191    1.3374   19.0118 C   0  0  0  0  0  0  0  0  0  0  0  0
    3.8038    1.9122   19.1062 H   0  0  0  0  0  0  0  0  0  0  0  0
  1  2  1  0
  2  3  2  0
  3  4  1  0
  4  5  1  0
  4  6  2  0
  6  7  1  0
  7  8  2  0
  8  9  1  0
  9 10  2  0
 10 11  1  0
 11 12  1  0
  9 13  1  0
 13 14  1  0
 13 15  1  0
 13 16  1  0
 16 17  1  6
 16 18  1  0
 18 19  2  0
 19 20  1  0
 19 21  1  0
 21 22  1  0
 21 23  2  0
 23 24  1  0
 23 25  1  0
 25 26  1  0
 26 27  2  0
 26 28  1  0
 25 29  2  0
 29 30  1  0
 16 31  1  0
 31 32  1  0
 31 33  1  0
  6 34  1  0
 34 35  1  0
 34 36  2  0
 36 37  1  0
 36  2  1  0
 11  7  1  0
 29 18  1  0
 31  8  1  0
M  CHG  2  26   1  28  -1
M  END
>  <cnnaffinity>  (1) 
-5.79331

>  <filename>  (1) 
O=[N+]([O-])c1cccc([C@H]2Cc3n[nH]c(-c4cccnc4)c3C2)c1

$$$$
