
     RDKit          3D

 31 33  0  0  0  0  0  0  0  0999 V2000
    4.9171    1.7990   16.9721 H   0  0  0  0  0  0  0  0  0  0  0  0
    5.3915    1.3033   17.8180 C   0  0  0  0  0  0  0  0  0  0  0  0
    6.5571    0.6861   17.5603 N   0  0  0  0  0  0  0  0  0  0  0  0
    7.1707    0.0727   18.5812 C   0  0  0  0  0  0  0  0  0  0  0  0
    8.1082   -0.4230   18.3316 H   0  0  0  0  0  0  0  0  0  0  0  0
    6.6657    0.0193   19.8942 C   0  0  0  0  0  0  0  0  0  0  0  0
    7.3380   -0.7046   20.9775 C   0  0  0  0  0  0  0  0  0  0  0  0
    6.8197   -1.2330   22.1030 C   0  0  0  0  0  0  0  0  0  0  0  0
    5.8014   -1.2895   22.4048 H   0  0  0  0  0  0  0  0  0  0  0  0
    7.8399   -1.7938   22.8556 N   0  0  0  0  0  0  0  0  0  0  0  0
    7.6415   -2.4480   24.1113 C   0  0  0  0  0  0  0  0  0  0  0  0
    6.8398   -1.8440   25.0894 C   0  0  0  0  0  0  0  0  0  0  0  0
    6.3674   -0.8888   24.8792 H   0  0  0  0  0  0  0  0  0  0  0  0
    6.6706   -2.4759   26.3246 C   0  0  0  0  0  0  0  0  0  0  0  0
    6.0530   -2.0217   27.0907 H   0  0  0  0  0  0  0  0  0  0  0  0
    7.2794   -3.7041   26.5888 C   0  0  0  0  0  0  0  0  0  0  0  0
    7.1608   -4.2126   27.5397 H   0  0  0  0  0  0  0  0  0  0  0  0
    8.0589   -4.2944   25.5913 C   0  0  0  0  0  0  0  0  0  0  0  0
    8.7191   -5.5971   25.8497 N   0  0  0  0  0  4  0  0  0  0  0  0
    8.5389   -6.1256   26.9374 O   0  0  0  0  0  0  0  0  0  0  0  0
    9.4050   -6.0747   24.9608 O   0  0  0  0  0  1  0  0  0  0  0  0
    8.2451   -3.6824   24.3488 C   0  0  0  0  0  0  0  0  0  0  0  0
    8.8709   -4.1340   23.5872 H   0  0  0  0  0  0  0  0  0  0  0  0
    9.0369   -1.6087   22.1975 C   0  0  0  0  0  0  0  0  0  0  0  0
   10.5998   -1.9839   22.6080 S   0  0  0  0  0  0  0  0  0  0  0  0
    8.6926   -0.9755   21.0420 N   0  0  0  0  0  0  0  0  0  0  0  0
    9.4196   -0.6665   20.4223 H   0  0  0  0  0  0  0  0  0  0  0  0
    5.4379    0.6642   20.1344 C   0  0  0  0  0  0  0  0  0  0  0  0
    5.0089    0.6566   21.1384 H   0  0  0  0  0  0  0  0  0  0  0  0
    4.7976    1.3212   19.0851 C   0  0  0  0  0  0  0  0  0  0  0  0
    3.8642    1.8518   19.2358 H   0  0  0  0  0  0  0  0  0  0  0  0
  1  2  1  0
  2  3  2  0
  3  4  1  0
  4  5  1  0
  4  6  2  0
  6  7  1  0
  7  8  2  0
  8  9  1  0
  8 10  1  0
 10 11  1  0
 11 12  2  0
 12 13  1  0
 12 14  1  0
 14 15  1  0
 14 16  2  0
 16 17  1  0
 16 18  1  0
 18 19  1  0
 19 20  2  0
 19 21  1  0
 18 22  2  0
 22 23  1  0
 10 24  1  0
 24 25  2  0
 24 26  1  0
 26 27  1  0
  6 28  1  0
 28 29  1  0
 28 30  2  0
 30 31  1  0
 30  2  1  0
 26  7  1  0
 22 11  1  0
M  CHG  2  19   1  21  -1
M  END
>  <cnnaffinity>  (1) 
-5.52097

>  <filename>  (1) 
O=[N+]([O-])c1cccc(-n2cc(-c3cccnc3)[nH]c2=S)c1

$$$$
