
     RDKit          3D

 29 31  0  0  0  0  0  0  0  0999 V2000
    4.9183    1.7782   17.0004 H   0  0  0  0  0  0  0  0  0  0  0  0
    5.4070    1.2925   17.8410 C   0  0  0  0  0  0  0  0  0  0  0  0
    6.5727    0.6811   17.5758 N   0  0  0  0  0  0  0  0  0  0  0  0
    7.1734    0.0541   18.5910 C   0  0  0  0  0  0  0  0  0  0  0  0
    8.1198   -0.4325   18.3702 H   0  0  0  0  0  0  0  0  0  0  0  0
    6.6512   -0.0061   19.8890 C   0  0  0  0  0  0  0  0  0  0  0  0
    7.3765   -0.7343   20.9371 C   0  0  0  0  0  0  0  0  0  0  0  0
    7.9565   -1.8860   20.7009 N   0  0  0  0  0  0  0  0  0  0  0  0
    8.4480   -2.3227   21.9086 O   0  0  0  0  0  0  0  0  0  0  0  0
    8.1647   -1.4155   22.8444 C   0  0  0  0  0  0  0  0  0  0  0  0
    8.5152   -1.6111   23.8487 H   0  0  0  0  0  0  0  0  0  0  0  0
    7.5060   -0.3576   22.3184 C   0  0  0  0  0  0  0  0  0  0  0  0
    7.1079    0.8825   23.0086 C   0  0  0  0  0  0  0  0  0  0  0  0
    7.2564    2.1280   22.3729 C   0  0  0  0  0  0  0  0  0  0  0  0
    7.6435    2.1668   21.3558 H   0  0  0  0  0  0  0  0  0  0  0  0
    6.8892    3.2955   23.0416 C   0  0  0  0  0  0  0  0  0  0  0  0
    6.9951    4.2530   22.5449 H   0  0  0  0  0  0  0  0  0  0  0  0
    6.3913    3.2440   24.3449 C   0  0  0  0  0  0  0  0  0  0  0  0
    6.1116    4.1502   24.8709 H   0  0  0  0  0  0  0  0  0  0  0  0
    6.2610    1.9988   24.9774 C   0  0  0  0  0  0  0  0  0  0  0  0
    5.7453    1.9306   26.3713 N   0  0  0  0  0  4  0  0  0  0  0  0
    5.6421    0.8421   26.9079 O   0  0  0  0  0  0  0  0  0  0  0  0
    5.4472    2.9852   26.9101 O   0  0  0  0  0  1  0  0  0  0  0  0
    6.6155    0.8202   24.3201 C   0  0  0  0  0  0  0  0  0  0  0  0
    6.5134   -0.1489   24.7999 H   0  0  0  0  0  0  0  0  0  0  0  0
    5.4312    0.6376   20.1510 C   0  0  0  0  0  0  0  0  0  0  0  0
    5.0053    0.6360   21.1594 H   0  0  0  0  0  0  0  0  0  0  0  0
    4.8032    1.3072   19.1058 C   0  0  0  0  0  0  0  0  0  0  0  0
    3.8720    1.8444   19.2604 H   0  0  0  0  0  0  0  0  0  0  0  0
  1  2  1  0
  2  3  2  0
  3  4  1  0
  4  5  1  0
  4  6  2  0
  6  7  1  0
  7  8  2  0
  8  9  1  0
  9 10  1  0
 10 11  1  0
 10 12  2  0
 12 13  1  0
 13 14  2  0
 14 15  1  0
 14 16  1  0
 16 17  1  0
 16 18  2  0
 18 19  1  0
 18 20  1  0
 20 21  1  0
 21 22  2  0
 21 23  1  0
 20 24  2  0
 24 25  1  0
  6 26  1  0
 26 27  1  0
 26 28  2  0
 28 29  1  0
 28  2  1  0
 12  7  1  0
 24 13  1  0
M  CHG  2  21   1  23  -1
M  END
>  <cnnaffinity>  (1) 
-5.00285

>  <filename>  (1) 
O=[N+]([O-])c1cccc(-c2conc2-c2cccnc2)c1

$$$$
