
     RDKit          3D

 37 40  0  0  0  0  0  0  0  0999 V2000
    4.9741    1.8447   16.9420 H   0  0  0  0  0  0  0  0  0  0  0  0
    5.4034    1.2954   17.7788 C   0  0  0  0  0  0  0  0  0  0  0  0
    6.5474    0.6402   17.5324 N   0  0  0  0  0  0  0  0  0  0  0  0
    7.1343    0.0111   18.5563 C   0  0  0  0  0  0  0  0  0  0  0  0
    8.0597   -0.5141   18.3244 H   0  0  0  0  0  0  0  0  0  0  0  0
    6.6282    0.0177   19.8705 C   0  0  0  0  0  0  0  0  0  0  0  0
    7.3846   -0.6158   20.9603 C   0  0  0  0  0  0  0  0  0  0  0  0
    8.0631   -1.7462   20.7680 N   0  0  0  0  0  0  0  0  0  0  0  0
    8.5645   -2.0225   21.9677 N   0  0  0  0  0  0  0  0  0  0  0  0
    8.2900   -1.1430   22.9235 C   0  0  0  0  0  0  0  0  0  0  0  0
    7.5144   -0.1651   22.3141 C   0  0  0  0  0  0  0  0  0  0  0  0
    7.0831    1.0654   22.9768 C   0  0  0  0  0  0  0  0  0  0  0  0
    6.5871    0.9573   24.2826 C   0  0  0  0  0  0  0  0  0  0  0  0
    6.4866   -0.0341   24.7238 H   0  0  0  0  0  0  0  0  0  0  0  0
    6.2393    2.1020   25.0013 C   0  0  0  0  0  0  0  0  0  0  0  0
    5.8579    2.0039   26.0122 H   0  0  0  0  0  0  0  0  0  0  0  0
    6.3986    3.3692   24.4375 C   0  0  0  0  0  0  0  0  0  0  0  0
    6.1137    4.2615   24.9913 H   0  0  0  0  0  0  0  0  0  0  0  0
    6.9159    3.4756   23.1395 C   0  0  0  0  0  0  0  0  0  0  0  0
    7.1726    4.8316   22.5832 N   0  0  0  0  0  4  0  0  0  0  0  0
    7.9091    4.9291   21.6165 O   0  0  0  0  0  0  0  0  0  0  0  0
    6.6423    5.7847   23.1322 O   0  0  0  0  0  1  0  0  0  0  0  0
    7.2365    2.3355   22.3913 C   0  0  0  0  0  0  0  0  0  0  0  0
    7.6077    2.4321   21.3752 H   0  0  0  0  0  0  0  0  0  0  0  0
    9.0817   -1.4665   24.1651 C   0  0  0  0  0  0  0  0  0  0  0  0
    9.7111   -0.6293   24.4741 H   0  0  0  0  0  0  0  0  0  0  0  0
    8.4369   -1.6855   25.0149 H   0  0  0  0  0  0  0  0  0  0  0  0
    9.9147   -2.7090   23.7477 C   0  0  0  0  0  0  0  0  0  0  0  0
   10.9751   -2.4848   23.7771 H   0  0  0  0  0  0  0  0  0  0  0  0
    9.7319   -3.5603   24.4020 H   0  0  0  0  0  0  0  0  0  0  0  0
    9.5260   -3.0403   22.2868 C   0  0  0  0  0  0  0  0  0  0  0  0
   10.3664   -2.9312   21.6008 H   0  0  0  0  0  0  0  0  0  0  0  0
    9.0641   -4.0190   22.1530 H   0  0  0  0  0  0  0  0  0  0  0  0
    5.3947    0.6484   20.0938 C   0  0  0  0  0  0  0  0  0  0  0  0
    4.9439    0.6475   21.0877 H   0  0  0  0  0  0  0  0  0  0  0  0
    4.7790    1.3039   19.0284 C   0  0  0  0  0  0  0  0  0  0  0  0
    3.8521    1.8456   19.1609 H   0  0  0  0  0  0  0  0  0  0  0  0
  1  2  1  0
  2  3  2  0
  3  4  1  0
  4  5  1  0
  4  6  2  0
  6  7  1  0
  7  8  2  0
  8  9  1  0
  9 10  1  0
 10 11  2  0
 11 12  1  0
 12 13  2  0
 13 14  1  0
 13 15  1  0
 15 16  1  0
 15 17  2  0
 17 18  1  0
 17 19  1  0
 19 20  1  0
 20 21  2  0
 20 22  1  0
 19 23  2  0
 23 24  1  0
 10 25  1  0
 25 26  1  0
 25 27  1  0
 25 28  1  0
 28 29  1  0
 28 30  1  0
 28 31  1  0
 31 32  1  0
 31 33  1  0
  6 34  1  0
 34 35  1  0
 34 36  2  0
 36 37  1  0
 36  2  1  0
 11  7  1  0
 23 12  1  0
 31  9  1  0
M  CHG  2  20   1  22  -1
M  END
>  <cnnaffinity>  (1) 
-5.58567

>  <filename>  (1) 
O=[N+]([O-])c1cccc(-c2c(-c3cccnc3)nn3c2CCC3)c1

$$$$
