
     RDKit          3D

 32 35  0  0  0  0  0  0  0  0999 V2000
    4.9124    1.8124   16.9733 H   0  0  0  0  0  0  0  0  0  0  0  0
    5.3774    1.3044   17.8205 C   0  0  0  0  0  0  0  0  0  0  0  0
    6.5407    0.6838   17.5683 N   0  0  0  0  0  0  0  0  0  0  0  0
    7.1543    0.0761   18.5877 C   0  0  0  0  0  0  0  0  0  0  0  0
    8.1041   -0.3931   18.3364 H   0  0  0  0  0  0  0  0  0  0  0  0
    6.6639    0.0300   19.9133 C   0  0  0  0  0  0  0  0  0  0  0  0
    7.4165   -0.6685   20.9737 C   0  0  0  0  0  0  0  0  0  0  0  0
    8.3304   -1.6940   20.9105 C   0  0  0  0  0  0  0  0  0  0  0  0
    8.7369   -2.1119   20.0096 H   0  0  0  0  0  0  0  0  0  0  0  0
    8.7831   -2.1110   22.1323 N   0  0  0  0  0  0  0  0  0  0  0  0
    8.1691   -1.3048   22.9564 C   0  0  0  0  0  0  0  0  0  0  0  0
    8.2492   -0.9637   24.6450 S   0  0  0  0  0  0  0  0  0  0  0  0
    7.1324    0.3754   24.3319 C   0  0  0  0  0  0  0  0  0  0  0  0
    6.6717    1.2705   25.4019 C   0  0  0  0  0  0  0  0  0  0  0  0
    5.7773    2.3190   25.0992 C   0  0  0  0  0  0  0  0  0  0  0  0
    5.4474    2.4564   24.0726 H   0  0  0  0  0  0  0  0  0  0  0  0
    5.3274    3.1678   26.1119 C   0  0  0  0  0  0  0  0  0  0  0  0
    4.6381    3.9761   25.8863 H   0  0  0  0  0  0  0  0  0  0  0  0
    5.7626    2.9860   27.4251 C   0  0  0  0  0  0  0  0  0  0  0  0
    5.4317    3.6275   28.2303 H   0  0  0  0  0  0  0  0  0  0  0  0
    6.6524    1.9484   27.7118 C   0  0  0  0  0  0  0  0  0  0  0  0
    7.1210    1.7562   29.1071 N   0  0  0  0  0  4  0  0  0  0  0  0
    7.8951    0.8424   29.3337 O   0  0  0  0  0  0  0  0  0  0  0  0
    6.7069    2.5255   29.9557 O   0  0  0  0  0  1  0  0  0  0  0  0
    7.1144    1.0889   26.7221 C   0  0  0  0  0  0  0  0  0  0  0  0
    7.8073    0.3009   27.0031 H   0  0  0  0  0  0  0  0  0  0  0  0
    6.7513    0.5275   23.1008 N   0  0  0  0  0  0  0  0  0  0  0  0
    7.3300   -0.4240   22.3401 N   0  0  0  0  0  0  0  0  0  0  0  0
    5.4323    0.6688   20.1458 C   0  0  0  0  0  0  0  0  0  0  0  0
    5.0128    0.6580   21.1485 H   0  0  0  0  0  0  0  0  0  0  0  0
    4.7871    1.3164   19.0874 C   0  0  0  0  0  0  0  0  0  0  0  0
    3.8541    1.8506   19.2289 H   0  0  0  0  0  0  0  0  0  0  0  0
  1  2  1  0
  2  3  2  0
  3  4  1  0
  4  5  1  0
  4  6  2  0
  6  7  1  0
  7  8  2  0
  8  9  1  0
  8 10  1  0
 10 11  2  0
 11 12  1  0
 12 13  1  0
 13 14  1  0
 14 15  2  0
 15 16  1  0
 15 17  1  0
 17 18  1  0
 17 19  2  0
 19 20  1  0
 19 21  1  0
 21 22  1  0
 22 23  2  0
 22 24  1  0
 21 25  2  0
 25 26  1  0
 13 27  2  0
 27 28  1  0
  6 29  1  0
 29 30  1  0
 29 31  2  0
 31 32  1  0
 31  2  1  0
 28  7  1  0
 28 11  1  0
 25 14  1  0
M  CHG  2  22   1  24  -1
M  END
>  <cnnaffinity>  (1) 
-5.2757

>  <filename>  (1) 
O=[N+]([O-])c1cccc(-c2nn3c(-c4cccnc4)cnc3s2)c1

$$$$
