
     RDKit          3D

 31 34  0  0  0  0  0  0  0  0999 V2000
    4.9205    1.7789   16.9991 H   0  0  0  0  0  0  0  0  0  0  0  0
    5.4038    1.2903   17.8408 C   0  0  0  0  0  0  0  0  0  0  0  0
    6.5678    0.6765   17.5759 N   0  0  0  0  0  0  0  0  0  0  0  0
    7.1724    0.0547   18.5894 C   0  0  0  0  0  0  0  0  0  0  0  0
    8.1212   -0.4332   18.3709 H   0  0  0  0  0  0  0  0  0  0  0  0
    6.6463    0.0120   19.8929 C   0  0  0  0  0  0  0  0  0  0  0  0
    7.4041   -0.6961   20.9202 C   0  0  0  0  0  0  0  0  0  0  0  0
    8.3283   -1.5989   20.7023 N   0  0  0  0  0  0  0  0  0  0  0  0
    8.8301   -2.0350   21.9075 N   0  0  0  0  0  0  0  0  0  0  0  0
    8.2014   -1.3529   22.8229 C   0  0  0  0  0  0  0  0  0  0  0  0
    8.2566   -1.0950   24.5390 S   0  0  0  0  0  0  0  0  0  0  0  0
    7.0302    0.1735   24.3251 C   0  0  0  0  0  0  0  0  0  0  0  0
    6.5321    0.9657   25.4698 C   0  0  0  0  0  0  0  0  0  0  0  0
    7.0081    0.7438   26.7795 C   0  0  0  0  0  0  0  0  0  0  0  0
    7.7590   -0.0196   26.9861 H   0  0  0  0  0  0  0  0  0  0  0  0
    6.5140    1.5134   27.8342 C   0  0  0  0  0  0  0  0  0  0  0  0
    6.8826    1.3381   28.8379 H   0  0  0  0  0  0  0  0  0  0  0  0
    5.5538    2.5032   27.6188 C   0  0  0  0  0  0  0  0  0  0  0  0
    5.1722    3.0983   28.4425 H   0  0  0  0  0  0  0  0  0  0  0  0
    5.0878    2.7163   26.3149 C   0  0  0  0  0  0  0  0  0  0  0  0
    4.0639    3.7661   26.0603 N   0  0  0  0  0  4  0  0  0  0  0  0
    3.6578    4.4156   27.0097 O   0  0  0  0  0  0  0  0  0  0  0  0
    3.6822    3.9208   24.9123 O   0  0  0  0  0  1  0  0  0  0  0  0
    5.5647    1.9613   25.2404 C   0  0  0  0  0  0  0  0  0  0  0  0
    5.1933    2.1437   24.2348 H   0  0  0  0  0  0  0  0  0  0  0  0
    6.6204    0.3520   23.1070 N   0  0  0  0  0  0  0  0  0  0  0  0
    7.2741   -0.5138   22.2828 N   0  0  0  0  0  0  0  0  0  0  0  0
    5.4303    0.6528   20.1622 C   0  0  0  0  0  0  0  0  0  0  0  0
    5.0089    0.6383   21.1705 H   0  0  0  0  0  0  0  0  0  0  0  0
    4.8046    1.3077   19.1061 C   0  0  0  0  0  0  0  0  0  0  0  0
    3.8749    1.8430   19.2576 H   0  0  0  0  0  0  0  0  0  0  0  0
  1  2  1  0
  2  3  2  0
  3  4  1  0
  4  5  1  0
  4  6  2  0
  6  7  1  0
  7  8  2  0
  8  9  1  0
  9 10  2  0
 10 11  1  0
 11 12  1  0
 12 13  1  0
 13 14  2  0
 14 15  1  0
 14 16  1  0
 16 17  1  0
 16 18  2  0
 18 19  1  0
 18 20  1  0
 20 21  1  0
 21 22  2  0
 21 23  1  0
 20 24  2  0
 24 25  1  0
 12 26  2  0
 26 27  1  0
  6 28  1  0
 28 29  1  0
 28 30  2  0
 30 31  1  0
 30  2  1  0
 27  7  1  0
 27 10  1  0
 24 13  1  0
M  CHG  2  21   1  23  -1
M  END
>  <cnnaffinity>  (1) 
-5.43891

>  <filename>  (1) 
O=[N+]([O-])c1cccc(-c2nn3c(-c4cccnc4)nnc3s2)c1

$$$$
