
     RDKit          3D

 29 31  0  0  0  0  0  0  0  0999 V2000
    4.9187    1.7787   16.9986 H   0  0  0  0  0  0  0  0  0  0  0  0
    5.4058    1.2937   17.8393 C   0  0  0  0  0  0  0  0  0  0  0  0
    6.5716    0.6789   17.5767 N   0  0  0  0  0  0  0  0  0  0  0  0
    7.1701    0.0589   18.5955 C   0  0  0  0  0  0  0  0  0  0  0  0
    8.1161   -0.4364   18.3793 H   0  0  0  0  0  0  0  0  0  0  0  0
    6.6475    0.0240   19.8970 C   0  0  0  0  0  0  0  0  0  0  0  0
    7.3712   -0.7179   20.9297 C   0  0  0  0  0  0  0  0  0  0  0  0
    7.9427   -1.8784   20.7395 N   0  0  0  0  0  0  0  0  0  0  0  0
    8.4387   -2.3059   21.9439 N   0  0  0  0  0  0  0  0  0  0  0  0
    8.1704   -1.3787   22.8165 C   0  0  0  0  0  0  0  0  0  0  0  0
    8.4550   -1.3940   23.8608 H   0  0  0  0  0  0  0  0  0  0  0  0
    7.4959   -0.3308   22.2460 N   0  0  0  0  0  0  0  0  0  0  0  0
    7.1505    0.9134   22.8700 C   0  0  0  0  0  0  0  0  0  0  0  0
    7.4128    2.1358   22.2265 C   0  0  0  0  0  0  0  0  0  0  0  0
    7.8564    2.1369   21.2333 H   0  0  0  0  0  0  0  0  0  0  0  0
    7.0630    3.3340   22.8594 C   0  0  0  0  0  0  0  0  0  0  0  0
    7.2535    4.2758   22.3534 H   0  0  0  0  0  0  0  0  0  0  0  0
    6.4769    3.3403   24.1276 C   0  0  0  0  0  0  0  0  0  0  0  0
    6.2178    4.2786   24.6118 H   0  0  0  0  0  0  0  0  0  0  0  0
    6.2369    2.1137   24.7617 C   0  0  0  0  0  0  0  0  0  0  0  0
    5.6264    2.0998   26.1237 N   0  0  0  0  0  4  0  0  0  0  0  0
    5.3443    3.1631   26.6481 O   0  0  0  0  0  0  0  0  0  0  0  0
    5.4368    1.0146   26.6473 O   0  0  0  0  0  1  0  0  0  0  0  0
    6.5670    0.8988   24.1422 C   0  0  0  0  0  0  0  0  0  0  0  0
    6.3745   -0.0466   24.6412 H   0  0  0  0  0  0  0  0  0  0  0  0
    5.4229    0.6531   20.1537 C   0  0  0  0  0  0  0  0  0  0  0  0
    5.0024    0.6366   21.1636 H   0  0  0  0  0  0  0  0  0  0  0  0
    4.7980    1.3110   19.1028 C   0  0  0  0  0  0  0  0  0  0  0  0
    3.8668    1.8466   19.2581 H   0  0  0  0  0  0  0  0  0  0  0  0
  1  2  1  0
  2  3  2  0
  3  4  1  0
  4  5  1  0
  4  6  2  0
  6  7  1  0
  7  8  2  0
  8  9  1  0
  9 10  2  0
 10 11  1  0
 10 12  1  0
 12 13  1  0
 13 14  2  0
 14 15  1  0
 14 16  1  0
 16 17  1  0
 16 18  2  0
 18 19  1  0
 18 20  1  0
 20 21  1  0
 21 22  2  0
 21 23  1  0
 20 24  2  0
 24 25  1  0
  6 26  1  0
 26 27  1  0
 26 28  2  0
 28 29  1  0
 28  2  1  0
 12  7  1  0
 24 13  1  0
M  CHG  2  21   1  23  -1
M  END
>  <cnnaffinity>  (1) 
-5.07021

>  <filename>  (1) 
O=[N+]([O-])c1cccc(-n2cnnc2-c2cccnc2)c1

$$$$
