
     RDKit          3D

 26 27  0  0  0  0  0  0  0  0999 V2000
    5.1139    1.7200   17.0448 H   0  0  0  0  0  0  0  0  0  0  0  0
    5.5569    1.2592   17.9276 C   0  0  0  0  0  0  0  0  0  0  0  0
    6.6784    0.5535   17.7230 N   0  0  0  0  0  0  0  0  0  0  0  0
    7.2443   -0.0436   18.7786 C   0  0  0  0  0  0  0  0  0  0  0  0
    8.1315   -0.6448   18.5919 H   0  0  0  0  0  0  0  0  0  0  0  0
    6.7259    0.0623   20.0752 C   0  0  0  0  0  0  0  0  0  0  0  0
    7.5402   -0.8880   21.3714 S   0  0  0  0  0  4  0  0  0  0  0  0
    8.3631   -1.8952   20.6168 O   0  0  0  0  0  0  0  0  0  0  0  0
    8.7530    0.3741   21.9427 C   0  0  0  0  0  0  0  0  0  0  0  0
    9.9046    0.4324   21.1431 C   0  0  0  0  0  0  0  0  0  0  0  0
    9.9646   -0.2361   20.2871 H   0  0  0  0  0  0  0  0  0  0  0  0
   10.9730    1.2605   21.4848 C   0  0  0  0  0  0  0  0  0  0  0  0
   11.8650    1.2844   20.8636 H   0  0  0  0  0  0  0  0  0  0  0  0
   10.9208    2.0027   22.6679 C   0  0  0  0  0  0  0  0  0  0  0  0
   11.7467    2.6602   22.9308 H   0  0  0  0  0  0  0  0  0  0  0  0
    9.8143    1.8964   23.5090 C   0  0  0  0  0  0  0  0  0  0  0  0
    9.8188    2.4181   24.4679 H   0  0  0  0  0  0  0  0  0  0  0  0
    8.6886    1.1219   23.1457 C   0  0  0  0  0  0  0  0  0  0  0  0
    7.4608    1.1360   24.0568 C   0  0  0  0  0  0  0  0  0  0  0  0
    6.3561    1.5734   23.4161 F   0  0  0  0  0  0  0  0  0  0  0  0
    7.1696   -0.0863   24.5368 F   0  0  0  0  0  0  0  0  0  0  0  0
    7.6223    1.9390   25.1270 F   0  0  0  0  0  0  0  0  0  0  0  0
    5.5557    0.7877   20.2893 C   0  0  0  0  0  0  0  0  0  0  0  0
    5.1279    0.8871   21.2889 H   0  0  0  0  0  0  0  0  0  0  0  0
    4.9514    1.3897   19.1826 C   0  0  0  0  0  0  0  0  0  0  0  0
    4.0291    1.9510   19.2769 H   0  0  0  0  0  0  0  0  0  0  0  0
  1  2  1  0
  2  3  2  0
  3  4  1  0
  4  5  1  0
  4  6  2  0
  7  6  1  6
  7  8  2  0
  7  9  1  0
  9 10  2  0
 10 11  1  0
 10 12  1  0
 12 13  1  0
 12 14  2  0
 14 15  1  0
 14 16  1  0
 16 17  1  0
 16 18  2  0
 18 19  1  0
 19 20  1  0
 19 21  1  0
 19 22  1  0
  6 23  1  0
 23 24  1  0
 23 25  2  0
 25 26  1  0
 25  2  1  0
 18  9  1  0
M  END
>  <cnnaffinity>  (1) 
-4.82982

>  <filename>  (1) 
O=[S@](c1cccnc1)c1ccccc1C(F)(F)F

$$$$
