
     RDKit          3D

 38 41  0  0  0  0  0  0  0  0999 V2000
   14.5457    5.8378   23.9604 H   0  0  0  0  0  0  0  0  0  0  0  0
   14.4514    4.9357   23.6008 O   0  0  0  0  0  0  0  0  0  0  0  0
   13.1197    4.7904   23.7373 C   0  0  0  0  0  0  0  0  0  0  0  0
   12.4893    5.6980   24.2364 O   0  0  0  0  0  0  0  0  0  0  0  0
   12.5816    3.4862   23.2548 C   0  0  0  0  0  0  0  0  0  0  0  0
   11.1952    3.2345   23.3159 C   0  0  0  0  0  0  0  0  0  0  0  0
   10.5283    3.9922   23.7178 H   0  0  0  0  0  0  0  0  0  0  0  0
   10.6753    2.0261   22.8582 C   0  0  0  0  0  0  0  0  0  0  0  0
    9.6023    1.8463   22.9047 H   0  0  0  0  0  0  0  0  0  0  0  0
   11.5174    1.0325   22.3321 C   0  0  0  0  0  0  0  0  0  0  0  0
   10.9318   -0.2687   21.8297 C   0  0  1  0  0  0  0  0  0  0  0  0
   11.7473   -0.8656   21.4154 H   0  0  0  0  0  0  0  0  0  0  0  0
   10.2470   -1.1066   22.9694 C   0  0  0  0  0  0  0  0  0  0  0  0
   10.6728   -2.1131   23.0429 H   0  0  0  0  0  0  0  0  0  0  0  0
   10.3850   -0.6386   23.9508 H   0  0  0  0  0  0  0  0  0  0  0  0
    8.8102   -1.1518   22.5373 C   0  0  0  0  0  0  0  0  0  0  0  0
    7.6999   -1.6210   23.0715 N   0  0  0  0  0  0  0  0  0  0  0  0
    6.7490   -1.2872   22.1586 N   0  0  0  0  0  0  0  0  0  0  0  0
    5.7889   -1.5159   22.3762 H   0  0  0  0  0  0  0  0  0  0  0  0
    7.2413   -0.6237   21.0617 C   0  0  0  0  0  0  0  0  0  0  0  0
    6.4884   -0.0126   19.9412 C   0  0  0  0  0  0  0  0  0  0  0  0
    7.0696    0.0266   18.6534 C   0  0  0  0  0  0  0  0  0  0  0  0
    8.0117   -0.4846   18.4620 H   0  0  0  0  0  0  0  0  0  0  0  0
    6.5389    0.6516   17.5923 N   0  0  0  0  0  0  0  0  0  0  0  0
    5.3862    1.3113   17.7798 C   0  0  0  0  0  0  0  0  0  0  0  0
    4.9916    1.8470   16.9155 H   0  0  0  0  0  0  0  0  0  0  0  0
    4.7174    1.3366   19.0094 C   0  0  0  0  0  0  0  0  0  0  0  0
    3.8026    1.9115   19.0968 H   0  0  0  0  0  0  0  0  0  0  0  0
    5.2670    0.6655   20.1041 C   0  0  0  0  0  0  0  0  0  0  0  0
    4.7775    0.7112   21.0793 H   0  0  0  0  0  0  0  0  0  0  0  0
    8.5946   -0.5500   21.3053 C   0  0  0  0  0  0  0  0  0  0  0  0
    9.8605   -0.0507   20.7062 C   0  0  0  0  0  0  0  0  0  0  0  0
    9.7912    0.9950   20.3853 H   0  0  0  0  0  0  0  0  0  0  0  0
   10.1095   -0.6372   19.8190 H   0  0  0  0  0  0  0  0  0  0  0  0
   12.8988    1.2764   22.3005 C   0  0  0  0  0  0  0  0  0  0  0  0
   13.5641    0.5076   21.9182 H   0  0  0  0  0  0  0  0  0  0  0  0
   13.4287    2.4853   22.7390 C   0  0  0  0  0  0  0  0  0  0  0  0
   14.4971    2.6677   22.6570 H   0  0  0  0  0  0  0  0  0  0  0  0
  1  2  1  0
  2  3  1  0
  3  4  2  0
  3  5  1  0
  5  6  2  0
  6  7  1  0
  6  8  1  0
  8  9  1  0
  8 10  2  0
 10 11  1  0
 11 12  1  6
 11 13  1  0
 13 14  1  0
 13 15  1  0
 13 16  1  0
 16 17  2  0
 17 18  1  0
 18 19  1  0
 18 20  1  0
 20 21  1  0
 21 22  2  0
 22 23  1  0
 22 24  1  0
 24 25  2  0
 25 26  1  0
 25 27  1  0
 27 28  1  0
 27 29  2  0
 29 30  1  0
 20 31  2  0
 31 32  1  0
 32 33  1  0
 32 34  1  0
 10 35  1  0
 35 36  1  0
 35 37  2  0
 37 38  1  0
 37  5  1  0
 32 11  1  0
 31 16  1  0
 29 21  1  0
M  END
>  <cnnaffinity>  (1) 
-5.83221

>  <filename>  (1) 
O=C(O)c1ccc([C@H]2Cc3n[nH]c(-c4cccnc4)c3C2)cc1

$$$$
