
     RDKit          3D

 30 31  0  0  0  0  0  0  0  0999 V2000
    4.9610    1.7896   16.9866 H   0  0  0  0  0  0  0  0  0  0  0  0
    5.3966    1.2834   17.8454 C   0  0  0  0  0  0  0  0  0  0  0  0
    6.5569    0.6567   17.6078 N   0  0  0  0  0  0  0  0  0  0  0  0
    7.1423    0.0412   18.6362 C   0  0  0  0  0  0  0  0  0  0  0  0
    8.1094   -0.4179   18.4430 H   0  0  0  0  0  0  0  0  0  0  0  0
    6.5965   -0.0145   19.9228 C   0  0  0  0  0  0  0  0  0  0  0  0
    7.4616   -0.6978   20.9222 C   0  0  0  0  0  0  0  0  0  0  0  0
    8.6689   -0.7744   20.7581 O   0  0  0  0  0  0  0  0  0  0  0  0
    6.7872   -1.2353   21.9868 N   0  0  0  0  0  0  0  0  0  0  0  0
    5.7765   -1.2117   21.9214 H   0  0  0  0  0  0  0  0  0  0  0  0
    7.3229   -1.9409   23.0828 N   0  0  0  0  0  0  0  0  0  0  0  0
    8.1129   -1.4211   23.4854 H   0  0  0  0  0  0  0  0  0  0  0  0
    7.8194   -3.2769   22.6997 C   0  0  0  0  0  0  0  0  0  0  0  0
    8.5499   -3.1881   21.8805 H   0  0  0  0  0  0  0  0  0  0  0  0
    6.9642   -3.8544   22.3200 H   0  0  0  0  0  0  0  0  0  0  0  0
    8.4168   -3.9881   23.8917 C   0  0  0  0  0  0  0  0  0  0  0  0
    7.6071   -4.8029   24.7017 C   0  0  0  0  0  0  0  0  0  0  0  0
    6.5574   -4.9090   24.4305 H   0  0  0  0  0  0  0  0  0  0  0  0
    8.1197   -5.4551   25.8280 C   0  0  0  0  0  0  0  0  0  0  0  0
    7.4690   -6.0830   26.4305 H   0  0  0  0  0  0  0  0  0  0  0  0
    9.4662   -5.2930   26.1728 C   0  0  0  0  0  0  0  0  0  0  0  0
    9.8765   -5.7932   27.0485 H   0  0  0  0  0  0  0  0  0  0  0  0
   10.2908   -4.4812   25.3893 C   0  0  0  0  0  0  0  0  0  0  0  0
   11.3386   -4.3418   25.6258 H   0  0  0  0  0  0  0  0  0  0  0  0
    9.7624   -3.8337   24.2684 C   0  0  0  0  0  0  0  0  0  0  0  0
   10.8254   -2.8188   23.3261 Cl  0  0  0  0  0  0  0  0  0  0  0  0
    5.3791    0.6420   20.1662 C   0  0  0  0  0  0  0  0  0  0  0  0
    4.9288    0.7042   21.1622 H   0  0  0  0  0  0  0  0  0  0  0  0
    4.7743    1.3071   19.0998 C   0  0  0  0  0  0  0  0  0  0  0  0
    3.8528    1.8654   19.2208 H   0  0  0  0  0  0  0  0  0  0  0  0
  1  2  1  0
  2  3  2  0
  3  4  1  0
  4  5  1  0
  4  6  2  0
  6  7  1  0
  7  8  2  0
  7  9  1  0
  9 10  1  0
  9 11  1  0
 11 12  1  0
 11 13  1  0
 13 14  1  0
 13 15  1  0
 13 16  1  0
 16 17  2  0
 17 18  1  0
 17 19  1  0
 19 20  1  0
 19 21  2  0
 21 22  1  0
 21 23  1  0
 23 24  1  0
 23 25  2  0
 25 26  1  0
  6 27  1  0
 27 28  1  0
 27 29  2  0
 29 30  1  0
 29  2  1  0
 25 16  1  0
M  END
>  <cnnaffinity>  (1) 
-4.75092

>  <filename>  (1) 
O=C(NNCc1ccccc1Cl)c1cccnc1

$$$$
