
     RDKit          3D

 32 34  0  0  0  0  0  0  0  0999 V2000
    5.2012    2.0682   16.9291 H   0  0  0  0  0  0  0  0  0  0  0  0
    5.5042    1.3864   17.7217 C   0  0  0  0  0  0  0  0  0  0  0  0
    6.6106    0.6597   17.4859 N   0  0  0  0  0  0  0  0  0  0  0  0
    7.0277   -0.1556   18.4619 C   0  0  0  0  0  0  0  0  0  0  0  0
    7.9326   -0.7342   18.2770 H   0  0  0  0  0  0  0  0  0  0  0  0
    6.3660   -0.3084   19.6977 C   0  0  0  0  0  0  0  0  0  0  0  0
    6.9942   -1.0543   20.7633 N   0  0  0  0  0  0  0  0  0  0  0  0
    8.1846   -0.5307   21.2304 C   0  0  0  0  0  0  0  0  0  0  0  0
    8.5569    0.3543   20.7283 H   0  0  0  0  0  0  0  0  0  0  0  0
    8.8705   -1.0878   22.2695 C   0  0  0  0  0  0  0  0  0  0  0  0
   10.0659   -0.5022   22.7393 N   0  0  0  0  0  0  0  0  0  0  0  0
   10.8385   -1.1041   22.9509 H   0  0  0  0  0  0  0  0  0  0  0  0
   10.2719    0.8500   22.8485 C   0  0  0  0  0  0  0  0  0  0  0  0
    9.3501    1.6504   22.8268 O   0  0  0  0  0  0  0  0  0  0  0  0
   11.6893    1.2901   22.9602 C   0  0  0  0  0  0  0  0  0  0  0  0
   11.9226    2.9946   23.1476 S   0  0  0  0  0  0  0  0  0  0  0  0
   13.6090    2.8322   22.9946 C   0  0  0  0  0  0  0  0  0  0  0  0
   14.2264    3.7236   23.0082 H   0  0  0  0  0  0  0  0  0  0  0  0
   13.9934    1.5329   22.8316 C   0  0  0  0  0  0  0  0  0  0  0  0
   15.0309    1.2624   22.6695 H   0  0  0  0  0  0  0  0  0  0  0  0
   12.8894    0.6333   22.8067 C   0  0  0  0  0  0  0  0  0  0  0  0
   13.0089   -0.4413   22.6616 H   0  0  0  0  0  0  0  0  0  0  0  0
    8.3293   -2.2422   22.9105 C   0  0  0  0  0  0  0  0  0  0  0  0
    8.8698   -2.6811   23.7498 H   0  0  0  0  0  0  0  0  0  0  0  0
    7.1434   -2.7609   22.4896 C   0  0  0  0  0  0  0  0  0  0  0  0
    6.6638   -3.6149   22.9427 H   0  0  0  0  0  0  0  0  0  0  0  0
    6.3941   -2.2241   21.3576 C   0  0  0  0  0  0  0  0  0  0  0  0
    5.3775   -2.7412   20.9317 O   0  0  0  0  0  0  0  0  0  0  0  0
    5.1744    0.4003   19.9025 C   0  0  0  0  0  0  0  0  0  0  0  0
    4.6143    0.2757   20.8292 H   0  0  0  0  0  0  0  0  0  0  0  0
    4.7580    1.2939   18.9038 C   0  0  0  0  0  0  0  0  0  0  0  0
    3.8849    1.9295   19.0335 H   0  0  0  0  0  0  0  0  0  0  0  0
  1  2  1  0
  2  3  2  0
  3  4  1  0
  4  5  1  0
  4  6  2  0
  6  7  1  0
  7  8  1  0
  8  9  1  0
  8 10  2  0
 10 11  1  0
 11 12  1  0
 11 13  1  0
 13 14  2  0
 13 15  1  0
 15 16  1  0
 16 17  1  0
 17 18  1  0
 17 19  2  0
 19 20  1  0
 19 21  1  0
 21 22  1  0
 10 23  1  0
 23 24  1  0
 23 25  2  0
 25 26  1  0
 25 27  1  0
 27 28  2  0
  6 29  1  0
 29 30  1  0
 29 31  2  0
 31 32  1  0
 31  2  1  0
 27  7  1  0
 21 15  2  0
M  END
>  <cnnaffinity>  (1) 
-5.78129

>  <filename>  (1) 
O=C(Nc1ccc(=O)n(-c2cccnc2)c1)c1cccs1

$$$$
