
     RDKit          3D

 38 41  0  0  0  0  0  0  0  0999 V2000
    4.9777    1.7823   17.0060 H   0  0  0  0  0  0  0  0  0  0  0  0
    5.4129    1.2679   17.8610 C   0  0  0  0  0  0  0  0  0  0  0  0
    6.5706    0.6357   17.6271 N   0  0  0  0  0  0  0  0  0  0  0  0
    7.1510    0.0152   18.6553 C   0  0  0  0  0  0  0  0  0  0  0  0
    8.1184   -0.4442   18.4585 H   0  0  0  0  0  0  0  0  0  0  0  0
    6.5990   -0.0476   19.9387 C   0  0  0  0  0  0  0  0  0  0  0  0
    7.4448   -0.7358   20.9503 C   0  0  0  0  0  0  0  0  0  0  0  0
    8.6519   -0.8147   20.8294 O   0  0  0  0  0  0  0  0  0  0  0  0
    6.7487   -1.2983   21.9924 N   0  0  0  0  0  0  0  0  0  0  0  0
    5.7484   -1.2654   21.8911 H   0  0  0  0  0  0  0  0  0  0  0  0
    7.2748   -1.5278   23.2847 C   0  0  0  0  0  0  0  0  0  0  0  0
    6.8504   -2.4342   24.3146 C   0  0  0  0  0  0  0  0  0  0  0  0
    5.7786   -3.4290   24.1970 C   0  0  0  0  0  0  0  0  0  0  0  0
    4.9786   -3.7471   25.3096 C   0  0  0  0  0  0  0  0  0  0  0  0
    5.1599   -3.2964   26.2848 H   0  0  0  0  0  0  0  0  0  0  0  0
    3.9456   -4.5939   25.2478 N   0  0  0  0  0  0  0  0  0  0  0  0
    3.6741   -5.1772   24.0753 C   0  0  0  0  0  0  0  0  0  0  0  0
    2.8336   -5.8720   24.0770 H   0  0  0  0  0  0  0  0  0  0  0  0
    4.4092   -4.9382   22.9074 C   0  0  0  0  0  0  0  0  0  0  0  0
    4.1324   -5.4429   21.9886 H   0  0  0  0  0  0  0  0  0  0  0  0
    5.4775   -4.0436   22.9669 C   0  0  0  0  0  0  0  0  0  0  0  0
    6.0755   -3.8033   22.0858 H   0  0  0  0  0  0  0  0  0  0  0  0
    7.4926   -2.1936   25.4623 N   0  0  0  0  0  0  0  0  0  0  0  0
    8.3327   -1.1987   25.1524 N   0  0  0  0  0  0  0  0  0  0  0  0
    8.2389   -0.7567   23.8945 C   0  0  0  0  0  0  0  0  0  0  0  0
    8.9222    0.5599   23.7081 C   0  0  0  0  0  0  0  0  0  0  0  0
    9.6728    0.5099   22.9150 H   0  0  0  0  0  0  0  0  0  0  0  0
    8.1817    1.2958   23.3733 H   0  0  0  0  0  0  0  0  0  0  0  0
    9.4815    0.8530   25.1369 C   0  0  0  0  0  0  0  0  0  0  0  0
    9.0979    1.8022   25.5124 H   0  0  0  0  0  0  0  0  0  0  0  0
   10.5709    0.9181   25.1338 H   0  0  0  0  0  0  0  0  0  0  0  0
    9.0183   -0.3124   26.0738 C   0  0  0  0  0  0  0  0  0  0  0  0
    8.3097    0.0108   26.8471 H   0  0  0  0  0  0  0  0  0  0  0  0
    9.8482   -0.8327   26.5620 H   0  0  0  0  0  0  0  0  0  0  0  0
    5.3865    0.6221   20.1782 C   0  0  0  0  0  0  0  0  0  0  0  0
    4.9345    0.6897   21.1719 H   0  0  0  0  0  0  0  0  0  0  0  0
    4.7860    1.2926   19.1129 C   0  0  0  0  0  0  0  0  0  0  0  0
    3.8657    1.8547   19.2346 H   0  0  0  0  0  0  0  0  0  0  0  0
  1  2  1  0
  2  3  2  0
  3  4  1  0
  4  5  1  0
  4  6  2  0
  6  7  1  0
  7  8  2  0
  7  9  1  0
  9 10  1  0
  9 11  1  0
 11 12  1  0
 12 13  1  0
 13 14  2  0
 14 15  1  0
 14 16  1  0
 16 17  2  0
 17 18  1  0
 17 19  1  0
 19 20  1  0
 19 21  2  0
 21 22  1  0
 12 23  2  0
 23 24  1  0
 24 25  1  0
 25 26  1  0
 26 27  1  0
 26 28  1  0
 26 29  1  0
 29 30  1  0
 29 31  1  0
 29 32  1  0
 32 33  1  0
 32 34  1  0
  6 35  1  0
 35 36  1  0
 35 37  2  0
 37 38  1  0
 37  2  1  0
 25 11  2  0
 21 13  1  0
 32 24  1  0
M  END
>  <cnnaffinity>  (1) 
-5.39526

>  <filename>  (1) 
O=C(Nc1c(-c2cccnc2)nn2c1CCC2)c1cccnc1

$$$$
