
     RDKit          3D

 35 37  0  0  0  0  0  0  0  0999 V2000
    4.9698    1.7847   17.0148 H   0  0  0  0  0  0  0  0  0  0  0  0
    5.4265    1.2718   17.8568 C   0  0  0  0  0  0  0  0  0  0  0  0
    6.5867    0.6464   17.6066 N   0  0  0  0  0  0  0  0  0  0  0  0
    7.1868    0.0277   18.6282 C   0  0  0  0  0  0  0  0  0  0  0  0
    8.1286   -0.4690   18.3975 H   0  0  0  0  0  0  0  0  0  0  0  0
    6.6664    0.0057   19.9365 C   0  0  0  0  0  0  0  0  0  0  0  0
    7.4052   -0.6751   21.0343 C   0  0  0  0  0  0  0  0  0  0  0  0
    8.1206   -1.7600   20.6880 N   0  0  0  0  0  0  0  0  0  0  0  0
    8.7791   -2.4513   21.6199 N   0  0  0  0  0  0  0  0  0  0  0  0
    8.7862   -2.0664   22.9008 C   0  0  0  0  0  0  0  0  0  0  0  0
    9.3583   -2.7128   23.5663 H   0  0  0  0  0  0  0  0  0  0  0  0
    8.0733   -0.9150   23.3368 C   0  0  0  0  0  0  0  0  0  0  0  0
    8.0247   -0.4290   24.6627 N   0  0  0  0  0  0  0  0  0  0  0  0
    8.7248   -0.7061   25.3269 H   0  0  0  0  0  0  0  0  0  0  0  0
    6.8764    0.0596   25.2781 C   0  0  0  0  0  0  0  0  0  0  0  0
    5.7860    0.1186   24.7514 O   0  0  0  0  0  0  0  0  0  0  0  0
    7.1385    0.4497   26.5797 N   0  0  0  0  0  0  0  0  0  0  0  0
    8.0901    0.7190   26.7456 H   0  0  0  0  0  0  0  0  0  0  0  0
    6.1458    0.9607   27.4537 C   0  0  0  0  0  0  0  0  0  0  0  0
    4.9039    0.3144   27.5098 C   0  0  0  0  0  0  0  0  0  0  0  0
    4.7384   -0.5210   26.8439 H   0  0  0  0  0  0  0  0  0  0  0  0
    3.9128    0.7609   28.3831 C   0  0  0  0  0  0  0  0  0  0  0  0
    2.9559    0.2396   28.4218 H   0  0  0  0  0  0  0  0  0  0  0  0
    4.1480    1.8778   29.1936 C   0  0  0  0  0  0  0  0  0  0  0  0
    3.3708    2.2310   29.8657 H   0  0  0  0  0  0  0  0  0  0  0  0
    5.3823    2.5387   29.1313 C   0  0  0  0  0  0  0  0  0  0  0  0
    5.5630    3.4099   29.7620 H   0  0  0  0  0  0  0  0  0  0  0  0
    6.3865    2.0773   28.2662 C   0  0  0  0  0  0  0  0  0  0  0  0
    7.3408    2.5931   28.2137 H   0  0  0  0  0  0  0  0  0  0  0  0
    7.3599   -0.2257   22.3624 C   0  0  0  0  0  0  0  0  0  0  0  0
    6.7693    0.6344   22.6538 H   0  0  0  0  0  0  0  0  0  0  0  0
    5.4417    0.6453   20.1729 C   0  0  0  0  0  0  0  0  0  0  0  0
    4.9938    0.6366   21.1692 H   0  0  0  0  0  0  0  0  0  0  0  0
    4.8099    1.2911   19.1113 C   0  0  0  0  0  0  0  0  0  0  0  0
    3.8752    1.8280   19.2506 H   0  0  0  0  0  0  0  0  0  0  0  0
  1  2  1  0
  2  3  2  0
  3  4  1  0
  4  5  1  0
  4  6  2  0
  6  7  1  0
  7  8  2  0
  8  9  1  0
  9 10  2  0
 10 11  1  0
 10 12  1  0
 12 13  1  0
 13 14  1  0
 13 15  1  0
 15 16  2  0
 15 17  1  0
 17 18  1  0
 17 19  1  0
 19 20  2  0
 20 21  1  0
 20 22  1  0
 22 23  1  0
 22 24  2  0
 24 25  1  0
 24 26  1  0
 26 27  1  0
 26 28  2  0
 28 29  1  0
 12 30  2  0
 30 31  1  0
  6 32  1  0
 32 33  1  0
 32 34  2  0
 34 35  1  0
 34  2  1  0
 30  7  1  0
 28 19  1  0
M  END
>  <cnnaffinity>  (1) 
-5.29733

>  <filename>  (1) 
O=C(Nc1ccccc1)Nc1cnnc(-c2cccnc2)c1

$$$$
