
     RDKit          3D

 32 33  0  0  0  0  0  0  0  0999 V2000
    4.9754    1.7745   17.0137 H   0  0  0  0  0  0  0  0  0  0  0  0
    5.4102    1.2671   17.8719 C   0  0  0  0  0  0  0  0  0  0  0  0
    6.5685    0.6338   17.6394 N   0  0  0  0  0  0  0  0  0  0  0  0
    7.1483    0.0164   18.6700 C   0  0  0  0  0  0  0  0  0  0  0  0
    8.1131   -0.4394   18.4628 H   0  0  0  0  0  0  0  0  0  0  0  0
    6.5993   -0.0451   19.9615 C   0  0  0  0  0  0  0  0  0  0  0  0
    7.4481   -0.7463   20.9693 C   0  0  0  0  0  0  0  0  0  0  0  0
    8.6389   -0.8713   20.8156 O   0  0  0  0  0  0  0  0  0  0  0  0
    6.7596   -1.2788   22.0475 N   0  0  0  0  0  0  0  0  0  0  0  0
    5.7620   -1.3310   21.9698 H   0  0  0  0  0  0  0  0  0  0  0  0
    7.3848   -1.6627   23.2287 C   0  0  0  0  0  0  0  0  0  0  0  0
    8.5434   -1.4018   23.4474 O   0  0  0  0  0  0  0  0  0  0  0  0
    6.5169   -2.4037   24.2712 C   0  0  0  0  0  0  0  0  0  0  0  0
    5.5553   -2.6687   23.8115 H   0  0  0  0  0  0  0  0  0  0  0  0
    6.2522   -1.4833   25.5034 C   0  0  0  0  0  0  0  0  0  0  0  0
    5.6697   -0.5972   25.2220 H   0  0  0  0  0  0  0  0  0  0  0  0
    7.2253   -1.1197   25.8678 H   0  0  0  0  0  0  0  0  0  0  0  0
    5.5404   -2.2365   26.6450 C   0  0  0  0  0  0  0  0  0  0  0  0
    5.4237   -1.5961   27.5283 H   0  0  0  0  0  0  0  0  0  0  0  0
    4.5229   -2.5244   26.3325 H   0  0  0  0  0  0  0  0  0  0  0  0
    6.2436   -3.4519   27.0596 N   0  0  0  0  0  0  0  0  0  0  0  0
    7.1585   -3.1805   27.4194 H   0  0  0  0  0  0  0  0  0  0  0  0
    6.4587   -4.3627   25.9341 C   0  0  0  0  0  0  0  0  0  0  0  0
    5.4729   -4.7238   25.5961 H   0  0  0  0  0  0  0  0  0  0  0  0
    6.9980   -5.2417   26.3088 H   0  0  0  0  0  0  0  0  0  0  0  0
    7.2145   -3.7088   24.7602 C   0  0  0  0  0  0  0  0  0  0  0  0
    8.2297   -3.4366   25.0867 H   0  0  0  0  0  0  0  0  0  0  0  0
    7.3313   -4.4367   23.9477 H   0  0  0  0  0  0  0  0  0  0  0  0
    5.3879    0.6291   20.1958 C   0  0  0  0  0  0  0  0  0  0  0  0
    4.9306    0.6969   21.1849 H   0  0  0  0  0  0  0  0  0  0  0  0
    4.7877    1.2943   19.1252 C   0  0  0  0  0  0  0  0  0  0  0  0
    3.8666    1.8538   19.2434 H   0  0  0  0  0  0  0  0  0  0  0  0
  1  2  1  0
  2  3  2  0
  3  4  1  0
  4  5  1  0
  4  6  2  0
  6  7  1  0
  7  8  2  0
  7  9  1  0
  9 10  1  0
  9 11  1  0
 11 12  2  0
 11 13  1  0
 13 14  1  0
 13 15  1  0
 15 16  1  0
 15 17  1  0
 15 18  1  0
 18 19  1  0
 18 20  1  0
 18 21  1  0
 21 22  1  0
 21 23  1  0
 23 24  1  0
 23 25  1  0
 23 26  1  0
 26 27  1  0
 26 28  1  0
  6 29  1  0
 29 30  1  0
 29 31  2  0
 31 32  1  0
 31  2  1  0
 26 13  1  0
M  END
>  <cnnaffinity>  (1) 
-4.27644

>  <filename>  (1) 
O=C(NC(=O)C1CCNCC1)c1cccnc1

$$$$
