
     RDKit          3D

 34 36  0  0  0  0  0  0  0  0999 V2000
    4.9175    1.7987   16.9870 H   0  0  0  0  0  0  0  0  0  0  0  0
    5.3877    1.2986   17.8306 C   0  0  0  0  0  0  0  0  0  0  0  0
    6.5437    0.6717   17.5624 N   0  0  0  0  0  0  0  0  0  0  0  0
    7.1631    0.0529   18.5735 C   0  0  0  0  0  0  0  0  0  0  0  0
    8.1207   -0.4175   18.3525 H   0  0  0  0  0  0  0  0  0  0  0  0
    6.6507    0.0056   19.8846 C   0  0  0  0  0  0  0  0  0  0  0  0
    7.3551   -0.6726   20.9446 N   0  0  0  0  0  0  0  0  0  0  0  0
    6.7210   -1.7211   21.5999 C   0  0  0  0  0  0  0  0  0  0  0  0
    5.7182   -1.9744   21.2694 H   0  0  0  0  0  0  0  0  0  0  0  0
    7.3138   -2.4228   22.5924 C   0  0  0  0  0  0  0  0  0  0  0  0
    6.6294   -3.5118   23.2056 N   0  0  0  0  0  0  0  0  0  0  0  0
    6.7808   -3.6862   24.1878 H   0  0  0  0  0  0  0  0  0  0  0  0
    5.8744   -4.4430   22.5238 C   0  0  0  0  0  0  0  0  0  0  0  0
    5.7432   -4.4194   21.3102 O   0  0  0  0  0  0  0  0  0  0  0  0
    5.1680   -5.4933   23.3915 C   0  0  0  0  0  0  0  0  0  0  0  0
    3.9675   -6.0543   22.9141 C   0  0  0  0  0  0  0  0  0  0  0  0
    3.5633   -5.7502   21.9572 H   0  0  0  0  0  0  0  0  0  0  0  0
    3.3067   -7.0370   23.6540 C   0  0  0  0  0  0  0  0  0  0  0  0
    2.3815   -7.4703   23.2830 H   0  0  0  0  0  0  0  0  0  0  0  0
    3.7527   -7.5055   24.8259 N   0  0  0  0  0  0  0  0  0  0  0  0
    4.8886   -6.9777   25.2967 C   0  0  0  0  0  0  0  0  0  0  0  0
    5.2282   -7.3675   26.2538 H   0  0  0  0  0  0  0  0  0  0  0  0
    5.6267   -5.9884   24.6305 C   0  0  0  0  0  0  0  0  0  0  0  0
    6.5614   -5.6775   25.0877 H   0  0  0  0  0  0  0  0  0  0  0  0
    8.7029   -2.0413   23.0148 C   0  0  0  0  0  0  0  0  0  0  0  0
    9.3987   -2.5295   23.8794 O   0  0  0  0  0  0  0  0  0  0  0  0
    9.2251   -1.0037   22.2959 N   0  0  0  0  0  0  0  0  0  0  0  0
   10.1468   -0.7181   22.5535 H   0  0  0  0  0  0  0  0  0  0  0  0
    8.6653   -0.2769   21.3012 C   0  0  0  0  0  0  0  0  0  0  0  0
    9.2960    0.6186   20.7907 O   0  0  0  0  0  0  0  0  0  0  0  0
    5.4357    0.6421   20.1487 C   0  0  0  0  0  0  0  0  0  0  0  0
    5.0324    0.6197   21.1616 H   0  0  0  0  0  0  0  0  0  0  0  0
    4.8018    1.3154   19.1005 C   0  0  0  0  0  0  0  0  0  0  0  0
    3.8731    1.8474   19.2539 H   0  0  0  0  0  0  0  0  0  0  0  0
  1  2  1  0
  2  3  2  0
  3  4  1  0
  4  5  1  0
  4  6  2  0
  6  7  1  0
  7  8  1  0
  8  9  1  0
  8 10  2  0
 10 11  1  0
 11 12  1  0
 11 13  1  0
 13 14  2  0
 13 15  1  0
 15 16  2  0
 16 17  1  0
 16 18  1  0
 18 19  1  0
 18 20  2  0
 20 21  1  0
 21 22  1  0
 21 23  2  0
 23 24  1  0
 10 25  1  0
 25 26  2  0
 25 27  1  0
 27 28  1  0
 27 29  1  0
 29 30  2  0
  6 31  1  0
 31 32  1  0
 31 33  2  0
 33 34  1  0
 33  2  1  0
 29  7  1  0
 23 15  1  0
M  END
>  <cnnaffinity>  (1) 
-5.55341

>  <filename>  (1) 
O=C(Nc1cn(-c2cccnc2)c(=O)[nH]c1=O)c1ccncc1

$$$$
