
     RDKit          3D

 37 38  0  0  0  0  0  0  0  0999 V2000
    4.9940    1.7827   16.9658 H   0  0  0  0  0  0  0  0  0  0  0  0
    5.4764    1.2896   17.8084 C   0  0  0  0  0  0  0  0  0  0  0  0
    6.6680    0.7216   17.5623 N   0  0  0  0  0  0  0  0  0  0  0  0
    7.2861    0.1067   18.5786 C   0  0  0  0  0  0  0  0  0  0  0  0
    8.2471   -0.3577   18.3626 H   0  0  0  0  0  0  0  0  0  0  0  0
    6.7487    0.0014   19.8798 C   0  0  0  0  0  0  0  0  0  0  0  0
    7.4732   -0.6698   20.9154 N   0  0  0  0  0  0  0  0  0  0  0  0
    8.3642   -0.2782   21.1768 H   0  0  0  0  0  0  0  0  0  0  0  0
    6.9036   -1.5004   21.8633 C   0  0  0  0  0  0  0  0  0  0  0  0
    5.8944   -2.1382   21.6405 O   0  0  0  0  0  0  0  0  0  0  0  0
    7.6630   -1.5790   23.1833 C   0  0  0  0  0  0  0  0  0  0  0  0
    7.4501   -2.5732   23.5933 H   0  0  0  0  0  0  0  0  0  0  0  0
    8.7462   -1.5296   23.0039 H   0  0  0  0  0  0  0  0  0  0  0  0
    7.2418   -0.5228   24.2347 C   0  0  0  0  0  0  0  0  0  0  0  0
    6.1979   -0.7131   24.5240 H   0  0  0  0  0  0  0  0  0  0  0  0
    7.8308   -0.7051   25.1446 H   0  0  0  0  0  0  0  0  0  0  0  0
    7.3449    0.9614   23.8492 C   0  0  0  0  0  0  0  0  0  0  0  0
    6.6728    1.1675   23.0033 H   0  0  0  0  0  0  0  0  0  0  0  0
    6.9427    1.5373   24.6927 H   0  0  0  0  0  0  0  0  0  0  0  0
    8.7502    1.5119   23.5333 C   0  0  0  0  0  0  0  0  0  0  0  0
    9.1749    1.0014   22.6579 H   0  0  0  0  0  0  0  0  0  0  0  0
    9.4277    1.2825   24.3668 H   0  0  0  0  0  0  0  0  0  0  0  0
    8.7487    3.0126   23.2839 C   0  0  0  0  0  0  0  0  0  0  0  0
    8.1937    3.5499   22.1083 C   0  0  0  0  0  0  0  0  0  0  0  0
    7.8105    2.8750   21.3436 H   0  0  0  0  0  0  0  0  0  0  0  0
    8.1187    4.9345   21.9159 C   0  0  0  0  0  0  0  0  0  0  0  0
    7.6905    5.3514   21.0085 H   0  0  0  0  0  0  0  0  0  0  0  0
    8.6112    5.8040   22.8900 C   0  0  0  0  0  0  0  0  0  0  0  0
    8.5396    6.8757   22.7305 H   0  0  0  0  0  0  0  0  0  0  0  0
    9.1894    5.2857   24.0544 C   0  0  0  0  0  0  0  0  0  0  0  0
    9.5817    5.9702   24.8004 H   0  0  0  0  0  0  0  0  0  0  0  0
    9.2540    3.9002   24.2454 C   0  0  0  0  0  0  0  0  0  0  0  0
    9.6672    3.5083   25.1745 H   0  0  0  0  0  0  0  0  0  0  0  0
    5.5045    0.6007   20.1218 C   0  0  0  0  0  0  0  0  0  0  0  0
    5.0607    0.5441   21.1179 H   0  0  0  0  0  0  0  0  0  0  0  0
    4.8646    1.2661   19.0672 C   0  0  0  0  0  0  0  0  0  0  0  0
    3.9104    1.7625   19.2085 H   0  0  0  0  0  0  0  0  0  0  0  0
  1  2  1  0
  2  3  2  0
  3  4  1  0
  4  5  1  0
  4  6  2  0
  6  7  1  0
  7  8  1  0
  7  9  1  0
  9 10  2  0
  9 11  1  0
 11 12  1  0
 11 13  1  0
 11 14  1  0
 14 15  1  0
 14 16  1  0
 14 17  1  0
 17 18  1  0
 17 19  1  0
 17 20  1  0
 20 21  1  0
 20 22  1  0
 20 23  1  0
 23 24  2  0
 24 25  1  0
 24 26  1  0
 26 27  1  0
 26 28  2  0
 28 29  1  0
 28 30  1  0
 30 31  1  0
 30 32  2  0
 32 33  1  0
  6 34  1  0
 34 35  1  0
 34 36  2  0
 36 37  1  0
 36  2  1  0
 32 23  1  0
M  END
>  <cnnaffinity>  (1) 
-5.02478

>  <filename>  (1) 
O=C(CCCCc1ccccc1)Nc1cccnc1

$$$$
