
     RDKit          3D

 39 42  0  0  0  0  0  0  0  0999 V2000
    4.8521    1.9155   16.7384 H   0  0  0  0  0  0  0  0  0  0  0  0
    5.2452    1.3558   17.5826 C   0  0  0  0  0  0  0  0  0  0  0  0
    6.3602    0.6482   17.3486 N   0  0  0  0  0  0  0  0  0  0  0  0
    6.8893    0.0057   18.3879 C   0  0  0  0  0  0  0  0  0  0  0  0
    7.7821   -0.5654   18.1587 H   0  0  0  0  0  0  0  0  0  0  0  0
    6.3796    0.0321   19.6943 C   0  0  0  0  0  0  0  0  0  0  0  0
    7.1947   -0.5795   20.7541 C   0  0  0  0  0  0  0  0  0  0  0  0
    6.7497   -0.6983   22.0130 N   0  0  0  0  0  0  0  0  0  0  0  0
    7.8125   -1.2323   22.6499 N   0  0  0  0  0  0  0  0  0  0  0  0
    8.1343   -1.5154   23.9722 C   0  0  0  0  0  0  0  0  0  0  0  0
    7.3939   -1.3937   24.7419 H   0  0  0  0  0  0  0  0  0  0  0  0
    9.4430   -1.8802   23.9658 C   0  0  0  0  0  0  0  0  0  0  0  0
   10.0954   -2.1448   24.7875 H   0  0  0  0  0  0  0  0  0  0  0  0
    9.9295   -1.8481   22.6475 N   0  0  0  0  0  0  0  0  0  0  0  0
   11.2999   -1.6819   22.2020 C   0  0  0  0  0  0  0  0  0  0  0  0
   11.9759   -2.1367   22.9257 H   0  0  0  0  0  0  0  0  0  0  0  0
   11.4091   -2.2312   21.2615 H   0  0  0  0  0  0  0  0  0  0  0  0
   11.6771   -0.2816   21.9781 N   0  0  0  0  0  0  0  0  0  0  0  0
   11.1293    0.1471   21.2416 H   0  0  0  0  0  0  0  0  0  0  0  0
   11.8063    0.5493   23.0879 C   0  0  0  0  0  0  0  0  0  0  0  0
   11.8992    0.0865   24.2126 O   0  0  0  0  0  0  0  0  0  0  0  0
   11.8345    2.0414   22.8242 C   0  0  0  0  0  0  0  0  0  0  0  0
   11.6136    2.9432   23.8878 C   0  0  0  0  0  0  0  0  0  0  0  0
   11.3893    2.5502   24.8759 H   0  0  0  0  0  0  0  0  0  0  0  0
   11.6712    4.3262   23.6790 C   0  0  0  0  0  0  0  0  0  0  0  0
   11.4881    5.0166   24.4999 H   0  0  0  0  0  0  0  0  0  0  0  0
   11.9506    4.8243   22.4008 C   0  0  0  0  0  0  0  0  0  0  0  0
   11.9629    5.8932   22.2200 H   0  0  0  0  0  0  0  0  0  0  0  0
   12.1684    3.9481   21.3376 C   0  0  0  0  0  0  0  0  0  0  0  0
   12.3243    4.3404   20.3321 H   0  0  0  0  0  0  0  0  0  0  0  0
   12.1120    2.5707   21.5473 C   0  0  0  0  0  0  0  0  0  0  0  0
   12.3032    1.9176   20.7029 H   0  0  0  0  0  0  0  0  0  0  0  0
    8.8788   -1.4386   21.8559 C   0  0  0  0  0  0  0  0  0  0  0  0
    8.5276   -1.0447   20.5829 C   0  0  0  0  0  0  0  0  0  0  0  0
    9.1319   -1.0466   19.6956 H   0  0  0  0  0  0  0  0  0  0  0  0
    5.1694    0.7168   19.9070 C   0  0  0  0  0  0  0  0  0  0  0  0
    4.7093    0.7234   20.8973 H   0  0  0  0  0  0  0  0  0  0  0  0
    4.6024    1.3927   18.8266 C   0  0  0  0  0  0  0  0  0  0  0  0
    3.6906    1.9692   18.9422 H   0  0  0  0  0  0  0  0  0  0  0  0
  1  2  1  0
  2  3  2  0
  3  4  1  0
  4  5  1  0
  4  6  2  0
  6  7  1  0
  7  8  2  0
  8  9  1  0
  9 10  1  0
 10 11  1  0
 10 12  2  0
 12 13  1  0
 12 14  1  0
 14 15  1  0
 15 16  1  0
 15 17  1  0
 15 18  1  0
 18 19  1  0
 18 20  1  0
 20 21  2  0
 20 22  1  0
 22 23  2  0
 23 24  1  0
 23 25  1  0
 25 26  1  0
 25 27  2  0
 27 28  1  0
 27 29  1  0
 29 30  1  0
 29 31  2  0
 31 32  1  0
 14 33  1  0
 33 34  2  0
 34 35  1  0
  6 36  1  0
 36 37  1  0
 36 38  2  0
 38 39  1  0
 38  2  1  0
 34  7  1  0
 33  9  1  0
 31 22  1  0
M  END
>  <cnnaffinity>  (1) 
-5.70259

>  <filename>  (1) 
O=C(NCn1ccn2nc(-c3cccnc3)cc12)c1ccccc1

$$$$
