
     RDKit          3D

 38 40  0  0  0  0  0  0  0  0999 V2000
    4.9730    1.8323   16.9583 H   0  0  0  0  0  0  0  0  0  0  0  0
    5.4150    1.3096   17.8064 C   0  0  0  0  0  0  0  0  0  0  0  0
    6.5595    0.6477   17.5685 N   0  0  0  0  0  0  0  0  0  0  0  0
    7.1279    0.0117   18.5938 C   0  0  0  0  0  0  0  0  0  0  0  0
    8.0464   -0.5302   18.3760 H   0  0  0  0  0  0  0  0  0  0  0  0
    6.6182    0.0234   19.8997 C   0  0  0  0  0  0  0  0  0  0  0  0
    7.3949   -0.6714   20.9230 C   0  0  0  0  0  0  0  0  0  0  0  0
    8.0720   -1.7773   20.7221 N   0  0  0  0  0  0  0  0  0  0  0  0
    8.5781   -2.1300   21.9491 C   0  0  0  0  0  0  0  0  0  0  0  0
    9.1487   -3.0399   22.0861 H   0  0  0  0  0  0  0  0  0  0  0  0
    8.2432   -1.2186   22.8997 C   0  0  0  0  0  0  0  0  0  0  0  0
    8.3999   -1.1662   23.9665 H   0  0  0  0  0  0  0  0  0  0  0  0
    7.4999   -0.2668   22.2448 N   0  0  0  0  0  0  0  0  0  0  0  0
    6.9731    0.8659   22.8646 N   0  0  0  0  0  0  0  0  0  0  0  0
    7.3633    1.7282   22.5094 H   0  0  0  0  0  0  0  0  0  0  0  0
    6.6969    0.9507   24.2227 C   0  0  0  0  0  0  0  0  0  0  0  0
    6.6199   -0.0106   24.9620 O   0  0  0  0  0  0  0  0  0  0  0  0
    6.5040    2.4318   24.6196 C   0  0  0  0  0  0  0  0  0  0  0  0
    5.9232    2.8819   23.8001 H   0  0  0  0  0  0  0  0  0  0  0  0
    7.8621    3.1873   24.7408 C   0  0  0  0  0  0  0  0  0  0  0  0
    8.4436    3.1175   23.8098 H   0  0  0  0  0  0  0  0  0  0  0  0
    7.6417    4.2566   24.8872 H   0  0  0  0  0  0  0  0  0  0  0  0
    8.6838    2.6758   25.9309 C   0  0  0  0  0  0  0  0  0  0  0  0
    9.6051    3.2539   25.9958 H   0  0  0  0  0  0  0  0  0  0  0  0
    8.9874    1.6329   25.7550 H   0  0  0  0  0  0  0  0  0  0  0  0
    7.8935    2.7897   27.2432 C   0  0  0  0  0  0  0  0  0  0  0  0
    7.7532    3.8558   27.4889 H   0  0  0  0  0  0  0  0  0  0  0  0
    8.4547    2.3413   28.0680 H   0  0  0  0  0  0  0  0  0  0  0  0
    6.5319    2.0902   27.1455 C   0  0  0  0  0  0  0  0  0  0  0  0
    6.6910    1.0124   27.0321 H   0  0  0  0  0  0  0  0  0  0  0  0
    5.9584    2.2366   28.0684 H   0  0  0  0  0  0  0  0  0  0  0  0
    5.7135    2.5782   25.9372 C   0  0  0  0  0  0  0  0  0  0  0  0
    5.4489    3.6409   26.0632 H   0  0  0  0  0  0  0  0  0  0  0  0
    4.7712    2.0189   25.8749 H   0  0  0  0  0  0  0  0  0  0  0  0
    5.4007    0.6839   20.1336 C   0  0  0  0  0  0  0  0  0  0  0  0
    4.9414    0.6876   21.1253 H   0  0  0  0  0  0  0  0  0  0  0  0
    4.7943    1.3335   19.0632 C   0  0  0  0  0  0  0  0  0  0  0  0
    3.8587    1.8682   19.1783 H   0  0  0  0  0  0  0  0  0  0  0  0
  1  2  1  0
  2  3  2  0
  3  4  1  0
  4  5  1  0
  4  6  2  0
  6  7  1  0
  7  8  2  0
  8  9  1  0
  9 10  1  0
  9 11  2  0
 11 12  1  0
 11 13  1  0
 13 14  1  0
 14 15  1  0
 14 16  1  0
 16 17  2  0
 16 18  1  0
 18 19  1  0
 18 20  1  0
 20 21  1  0
 20 22  1  0
 20 23  1  0
 23 24  1  0
 23 25  1  0
 23 26  1  0
 26 27  1  0
 26 28  1  0
 26 29  1  0
 29 30  1  0
 29 31  1  0
 29 32  1  0
 32 33  1  0
 32 34  1  0
  6 35  1  0
 35 36  1  0
 35 37  2  0
 37 38  1  0
 37  2  1  0
 13  7  1  0
 32 18  1  0
M  END
>  <cnnaffinity>  (1) 
-5.01361

>  <filename>  (1) 
O=C(Nn1ccnc1-c1cccnc1)C1CCCCC1

$$$$
