
     RDKit          3D

 36 38  0  0  0  0  0  0  0  0999 V2000
    4.9895    1.8024   17.0291 H   0  0  0  0  0  0  0  0  0  0  0  0
    5.4209    1.2718   17.8769 C   0  0  0  0  0  0  0  0  0  0  0  0
    6.5753    0.6239   17.6561 N   0  0  0  0  0  0  0  0  0  0  0  0
    7.1324   -0.0065   18.6955 C   0  0  0  0  0  0  0  0  0  0  0  0
    8.0737   -0.5113   18.4744 H   0  0  0  0  0  0  0  0  0  0  0  0
    6.5709   -0.0658   19.9868 C   0  0  0  0  0  0  0  0  0  0  0  0
    7.3241   -0.7606   21.0548 C   0  0  0  0  0  0  0  0  0  0  0  0
    6.5628   -1.2897   22.0810 O   0  0  0  0  0  0  0  0  0  0  0  0
    7.1865   -2.0253   23.0377 C   0  0  0  0  0  0  0  0  0  0  0  0
    6.2813   -2.6027   23.9032 N   0  0  0  0  0  0  0  0  0  0  0  0
    5.3745   -2.1784   23.9523 H   0  0  0  0  0  0  0  0  0  0  0  0
    6.6111   -3.7303   24.6353 C   0  0  0  0  0  0  0  0  0  0  0  0
    7.5987   -4.3941   24.4020 O   0  0  0  0  0  0  0  0  0  0  0  0
    5.7339   -4.0025   25.6457 N   0  0  0  0  0  0  0  0  0  0  0  0
    4.9084   -3.4352   25.7037 H   0  0  0  0  0  0  0  0  0  0  0  0
    5.9708   -4.9892   26.6368 C   0  0  0  0  0  0  0  0  0  0  0  0
    4.8939   -5.6747   27.2049 C   0  0  0  0  0  0  0  0  0  0  0  0
    3.8852   -5.4344   26.8878 H   0  0  0  0  0  0  0  0  0  0  0  0
    5.1142   -6.6898   28.1458 C   0  0  0  0  0  0  0  0  0  0  0  0
    4.2873   -7.2556   28.5630 H   0  0  0  0  0  0  0  0  0  0  0  0
    6.4196   -6.9876   28.5432 C   0  0  0  0  0  0  0  0  0  0  0  0
    6.7346   -8.2421   29.7031 Cl  0  0  0  0  0  0  0  0  0  0  0  0
    7.5021   -6.2877   28.0064 C   0  0  0  0  0  0  0  0  0  0  0  0
    8.5152   -6.5264   28.3150 H   0  0  0  0  0  0  0  0  0  0  0  0
    7.2782   -5.3018   27.0484 C   0  0  0  0  0  0  0  0  0  0  0  0
    8.1073   -4.7826   26.5907 H   0  0  0  0  0  0  0  0  0  0  0  0
    8.5173   -2.1272   23.1536 C   0  0  0  0  0  0  0  0  0  0  0  0
    8.9541   -2.6969   23.9501 H   0  0  0  0  0  0  0  0  0  0  0  0
    9.3764   -1.5087   22.1826 C   0  0  0  0  0  0  0  0  0  0  0  0
   10.5965   -1.5452   22.2517 O   0  0  0  0  0  0  0  0  0  0  0  0
    8.6712   -0.8396   21.0862 C   0  0  0  0  0  0  0  0  0  0  0  0
    9.3046   -0.3756   20.3502 H   0  0  0  0  0  0  0  0  0  0  0  0
    5.3526    0.6101   20.1922 C   0  0  0  0  0  0  0  0  0  0  0  0
    4.8891    0.6246   21.1760 H   0  0  0  0  0  0  0  0  0  0  0  0
    4.7770    1.2924   19.1184 C   0  0  0  0  0  0  0  0  0  0  0  0
    3.8575    1.8560   19.2372 H   0  0  0  0  0  0  0  0  0  0  0  0
  1  2  1  0
  2  3  2  0
  3  4  1  0
  4  5  1  0
  4  6  2  0
  6  7  1  0
  7  8  1  0
  8  9  1  0
  9 10  1  0
 10 11  1  0
 10 12  1  0
 12 13  2  0
 12 14  1  0
 14 15  1  0
 14 16  1  0
 16 17  2  0
 17 18  1  0
 17 19  1  0
 19 20  1  0
 19 21  2  0
 21 22  1  0
 21 23  1  0
 23 24  1  0
 23 25  2  0
 25 26  1  0
  9 27  2  0
 27 28  1  0
 27 29  1  0
 29 30  2  0
 29 31  1  0
 31 32  1  0
  6 33  1  0
 33 34  1  0
 33 35  2  0
 35 36  1  0
 35  2  1  0
 31  7  2  0
 25 16  1  0
M  END
>  <cnnaffinity>  (1) 
-5.16557

>  <filename>  (1) 
O=C(Nc1ccc(Cl)cc1)Nc1cc(=O)cc(-c2cccnc2)o1

$$$$
