
     RDKit          3D

 34 36  0  0  0  0  0  0  0  0999 V2000
    5.0399    2.0220   16.3127 H   0  0  0  0  0  0  0  0  0  0  0  0
    5.4003    1.4709   17.1796 C   0  0  0  0  0  0  0  0  0  0  0  0
    6.4898    0.7056   16.9992 N   0  0  0  0  0  0  0  0  0  0  0  0
    6.9715    0.0248   18.0510 C   0  0  0  0  0  0  0  0  0  0  0  0
    7.8636   -0.5684   17.8391 H   0  0  0  0  0  0  0  0  0  0  0  0
    6.3965    0.0638   19.3463 C   0  0  0  0  0  0  0  0  0  0  0  0
    6.8999   -0.6694   20.4672 N   0  0  0  0  0  0  0  0  0  0  0  0
    7.7225   -1.2369   20.3339 H   0  0  0  0  0  0  0  0  0  0  0  0
    6.7764   -0.2879   21.8058 C   0  0  0  0  0  0  0  0  0  0  0  0
    6.1975    0.7218   22.1702 O   0  0  0  0  0  0  0  0  0  0  0  0
    7.4148   -1.1280   22.7040 N   0  0  0  0  0  0  0  0  0  0  0  0
    7.6829   -0.5254   24.0235 C   0  0  0  0  0  0  0  0  0  0  0  0
    6.7856    0.0123   24.3538 H   0  0  0  0  0  0  0  0  0  0  0  0
    8.4590    0.2478   23.9243 H   0  0  0  0  0  0  0  0  0  0  0  0
    8.1068   -1.4851   25.1118 C   0  0  0  0  0  0  0  0  0  0  0  0
    8.6982   -0.9839   26.2824 C   0  0  0  0  0  0  0  0  0  0  0  0
    8.7147    0.0905   26.4681 H   0  0  0  0  0  0  0  0  0  0  0  0
    9.2595   -1.8612   27.2082 C   0  0  0  0  0  0  0  0  0  0  0  0
    9.7817   -1.4702   28.0768 H   0  0  0  0  0  0  0  0  0  0  0  0
    9.1947   -3.2416   26.9960 C   0  0  0  0  0  0  0  0  0  0  0  0
    9.6722   -3.9265   27.6924 H   0  0  0  0  0  0  0  0  0  0  0  0
    8.4897   -3.7417   25.9030 C   0  0  0  0  0  0  0  0  0  0  0  0
    8.3886   -4.8169   25.7855 H   0  0  0  0  0  0  0  0  0  0  0  0
    7.9263   -2.8711   24.9637 C   0  0  0  0  0  0  0  0  0  0  0  0
    7.1832   -3.3595   23.7432 C   0  0  0  0  0  0  0  0  0  0  0  0
    6.1059   -3.2136   23.8904 H   0  0  0  0  0  0  0  0  0  0  0  0
    7.3622   -4.4308   23.5938 H   0  0  0  0  0  0  0  0  0  0  0  0
    7.6362   -2.5682   22.5114 C   0  0  0  0  0  0  0  0  0  0  0  0
    8.7075   -2.7602   22.3605 H   0  0  0  0  0  0  0  0  0  0  0  0
    7.1025   -2.9241   21.6245 H   0  0  0  0  0  0  0  0  0  0  0  0
    5.2419    0.8507   19.5000 C   0  0  0  0  0  0  0  0  0  0  0  0
    4.7864    0.9061   20.4807 H   0  0  0  0  0  0  0  0  0  0  0  0
    4.7454    1.5654   18.4075 C   0  0  0  0  0  0  0  0  0  0  0  0
    3.8762    2.2121   18.5149 H   0  0  0  0  0  0  0  0  0  0  0  0
  1  2  1  0
  2  3  2  0
  3  4  1  0
  4  5  1  0
  4  6  2  0
  6  7  1  0
  7  8  1  0
  7  9  1  0
  9 10  2  0
  9 11  1  0
 11 12  1  0
 12 13  1  0
 12 14  1  0
 12 15  1  0
 15 16  2  0
 16 17  1  0
 16 18  1  0
 18 19  1  0
 18 20  2  0
 20 21  1  0
 20 22  1  0
 22 23  1  0
 22 24  2  0
 24 25  1  0
 25 26  1  0
 25 27  1  0
 25 28  1  0
 28 29  1  0
 28 30  1  0
  6 31  1  0
 31 32  1  0
 31 33  2  0
 33 34  1  0
 33  2  1  0
 28 11  1  0
 24 15  1  0
M  END
>  <cnnaffinity>  (1) 
-4.74607

>  <filename>  (1) 
O=C(Nc1cccnc1)N1CCc2ccccc2C1

$$$$
