
     RDKit          3D

 41 43  0  0  0  0  0  0  0  0999 V2000
    4.9712    1.8226   16.9803 H   0  0  0  0  0  0  0  0  0  0  0  0
    5.4498    1.3158   17.8131 C   0  0  0  0  0  0  0  0  0  0  0  0
    6.6125    0.7028   17.5337 N   0  0  0  0  0  0  0  0  0  0  0  0
    7.2362    0.0721   18.5359 C   0  0  0  0  0  0  0  0  0  0  0  0
    8.1821   -0.4225   18.3156 H   0  0  0  0  0  0  0  0  0  0  0  0
    6.7178    0.0167   19.8432 C   0  0  0  0  0  0  0  0  0  0  0  0
    7.3705   -0.6958   20.9135 N   0  0  0  0  0  0  0  0  0  0  0  0
    6.7129   -1.8259   21.4861 C   0  0  0  0  0  0  0  0  0  0  0  0
    5.6160   -2.1725   21.0932 O   0  0  0  0  0  0  0  0  0  0  0  0
    7.4343   -2.5405   22.4844 C   0  0  0  0  0  0  0  0  0  0  0  0
    7.0062   -3.4563   22.8300 H   0  0  0  0  0  0  0  0  0  0  0  0
    8.6003   -2.0702   22.9383 C   0  0  0  0  0  0  0  0  0  0  0  0
    9.4179   -2.6744   23.8510 N   0  0  0  0  0  0  0  0  0  0  0  0
    9.9081   -2.0796   24.4896 H   0  0  0  0  0  0  0  0  0  0  0  0
    9.2865   -3.9924   24.2253 C   0  0  0  0  0  0  0  0  0  0  0  0
    8.7169   -4.7985   23.5121 O   0  0  0  0  0  0  0  0  0  0  0  0
    9.9228   -4.3328   25.5821 C   0  0  0  0  0  0  0  0  0  0  0  0
   10.8924   -3.8226   25.5904 H   0  0  0  0  0  0  0  0  0  0  0  0
    9.0637   -3.8316   26.7722 C   0  0  0  0  0  0  0  0  0  0  0  0
    9.6141   -4.0521   27.6959 H   0  0  0  0  0  0  0  0  0  0  0  0
    8.9265   -2.7456   26.7341 H   0  0  0  0  0  0  0  0  0  0  0  0
    7.7162   -4.5571   26.8335 C   0  0  0  0  0  0  0  0  0  0  0  0
    7.1196   -4.1870   27.6772 H   0  0  0  0  0  0  0  0  0  0  0  0
    7.1511   -4.3422   25.9153 H   0  0  0  0  0  0  0  0  0  0  0  0
    7.9314   -6.0692   26.9789 C   0  0  0  0  0  0  0  0  0  0  0  0
    6.9677   -6.5941   26.9390 H   0  0  0  0  0  0  0  0  0  0  0  0
    8.3556   -6.2719   27.9731 H   0  0  0  0  0  0  0  0  0  0  0  0
    8.8626   -6.6301   25.8962 C   0  0  0  0  0  0  0  0  0  0  0  0
    8.3383   -6.6091   24.9398 H   0  0  0  0  0  0  0  0  0  0  0  0
    9.1360   -7.6606   26.1354 H   0  0  0  0  0  0  0  0  0  0  0  0
   10.1638   -5.8454   25.7078 C   0  0  0  0  0  0  0  0  0  0  0  0
   10.8382   -6.0520   26.5472 H   0  0  0  0  0  0  0  0  0  0  0  0
   10.6534   -6.1836   24.7907 H   0  0  0  0  0  0  0  0  0  0  0  0
    9.0774   -0.8708   22.5166 N   0  0  0  0  0  0  0  0  0  0  0  0
   10.0382   -0.6052   22.6423 H   0  0  0  0  0  0  0  0  0  0  0  0
    8.5947   -0.2408   21.3937 C   0  0  0  0  0  0  0  0  0  0  0  0
    9.2450    0.6394   20.8849 O   0  0  0  0  0  0  0  0  0  0  0  0
    5.5025    0.6373   20.1160 C   0  0  0  0  0  0  0  0  0  0  0  0
    5.0830    0.5702   21.1173 H   0  0  0  0  0  0  0  0  0  0  0  0
    4.8580    1.3130   19.0799 C   0  0  0  0  0  0  0  0  0  0  0  0
    3.9231    1.8315   19.2493 H   0  0  0  0  0  0  0  0  0  0  0  0
  1  2  1  0
  2  3  2  0
  3  4  1  0
  4  5  1  0
  4  6  2  0
  6  7  1  0
  7  8  1  0
  8  9  2  0
  8 10  1  0
 10 11  1  0
 10 12  2  0
 12 13  1  0
 13 14  1  0
 13 15  1  0
 15 16  2  0
 15 17  1  0
 17 18  1  0
 17 19  1  0
 19 20  1  0
 19 21  1  0
 19 22  1  0
 22 23  1  0
 22 24  1  0
 22 25  1  0
 25 26  1  0
 25 27  1  0
 25 28  1  0
 28 29  1  0
 28 30  1  0
 28 31  1  0
 31 32  1  0
 31 33  1  0
 12 34  1  0
 34 35  1  0
 34 36  1  0
 36 37  2  0
  6 38  1  0
 38 39  1  0
 38 40  2  0
 40 41  1  0
 40  2  1  0
 36  7  1  0
 31 17  1  0
M  END
>  <cnnaffinity>  (1) 
-5.36305

>  <filename>  (1) 
O=C(Nc1cc(=O)n(-c2cccnc2)c(=O)[nH]1)C1CCCCC1

$$$$
