
     RDKit          3D

 29 30  0  0  0  0  0  0  0  0999 V2000
    6.2412   -0.0063   24.3407 H   0  0  0  0  0  0  0  0  0  0  0  0
    6.6773    0.8646   24.2531 O   0  0  0  0  0  0  0  0  0  0  0  0
    7.9960    0.6638   24.3653 C   0  0  0  0  0  0  0  0  0  0  0  0
    8.8165    1.6652   24.8907 C   0  0  0  0  0  0  0  0  0  0  0  0
    8.3547    2.5943   25.2051 H   0  0  0  0  0  0  0  0  0  0  0  0
   10.1858    1.4407   25.0313 C   0  0  0  0  0  0  0  0  0  0  0  0
   10.8230    2.2203   25.4330 H   0  0  0  0  0  0  0  0  0  0  0  0
   10.7494    0.2181   24.6503 C   0  0  0  0  0  0  0  0  0  0  0  0
   11.8131    0.0548   24.7843 H   0  0  0  0  0  0  0  0  0  0  0  0
    9.9434   -0.7825   24.1146 C   0  0  0  0  0  0  0  0  0  0  0  0
   10.3830   -1.7363   23.8268 H   0  0  0  0  0  0  0  0  0  0  0  0
    8.5723   -0.5457   23.9674 C   0  0  0  0  0  0  0  0  0  0  0  0
    7.4843   -1.7415   23.3719 S   0  0  0  0  0  0  0  0  0  0  0  0
    8.1987   -2.8917   22.8778 O   0  0  0  0  0  0  0  0  0  0  0  0
    6.3610   -1.8645   24.2979 O   0  0  0  0  0  0  0  0  0  0  0  0
    6.7095   -0.9914   22.1441 N   0  0  0  0  0  0  0  0  0  0  0  0
    5.7821   -1.3709   22.1123 H   0  0  0  0  0  0  0  0  0  0  0  0
    7.4457   -0.6386   21.0495 C   0  0  0  0  0  0  0  0  0  0  0  0
    8.6426   -0.7988   21.0073 O   0  0  0  0  0  0  0  0  0  0  0  0
    6.6292   -0.0099   19.9984 C   0  0  0  0  0  0  0  0  0  0  0  0
    7.1840    0.0016   18.7190 C   0  0  0  0  0  0  0  0  0  0  0  0
    8.1399   -0.4910   18.5566 H   0  0  0  0  0  0  0  0  0  0  0  0
    6.6123    0.5998   17.6706 N   0  0  0  0  0  0  0  0  0  0  0  0
    5.4516    1.2406   17.8761 C   0  0  0  0  0  0  0  0  0  0  0  0
    5.0173    1.7398   17.0093 H   0  0  0  0  0  0  0  0  0  0  0  0
    4.8111    1.2841   19.1212 C   0  0  0  0  0  0  0  0  0  0  0  0
    3.8790    1.8271   19.2274 H   0  0  0  0  0  0  0  0  0  0  0  0
    5.4017    0.6414   20.2057 C   0  0  0  0  0  0  0  0  0  0  0  0
    4.9377    0.6700   21.1950 H   0  0  0  0  0  0  0  0  0  0  0  0
  1  2  1  0
  2  3  1  0
  3  4  2  0
  4  5  1  0
  4  6  1  0
  6  7  1  0
  6  8  2  0
  8  9  1  0
  8 10  1  0
 10 11  1  0
 10 12  2  0
 12 13  1  0
 13 14  2  0
 13 15  2  0
 13 16  1  0
 16 17  1  0
 16 18  1  0
 18 19  2  0
 18 20  1  0
 20 21  2  0
 21 22  1  0
 21 23  1  0
 23 24  2  0
 24 25  1  0
 24 26  1  0
 26 27  1  0
 26 28  2  0
 28 29  1  0
 12  3  1  0
 28 20  1  0
M  END
>  <cnnaffinity>  (1) 
-5.03603

>  <filename>  (1) 
O=C(NS(=O)(=O)c1ccccc1O)c1cccnc1

$$$$
