
     RDKit          3D

 37 38  0  0  0  0  0  0  0  0999 V2000
    5.6005   -2.6813   17.3150 H   0  0  0  0  0  0  0  0  0  0  0  0
    5.0909   -2.9035   18.1181 O   0  0  0  0  0  0  0  0  0  0  0  0
    5.9655   -3.3864   19.0808 N   0  0  0  0  0  0  0  0  0  0  0  0
    6.2314   -2.6753   19.7504 H   0  0  0  0  0  0  0  0  0  0  0  0
    5.9895   -4.6851   19.5387 C   0  0  0  0  0  0  0  0  0  0  0  0
    5.5319   -5.6523   18.9656 O   0  0  0  0  0  0  0  0  0  0  0  0
    6.6555   -4.8181   20.9005 C   0  0  0  0  0  0  0  0  0  0  0  0
    7.4573   -4.0877   21.0507 H   0  0  0  0  0  0  0  0  0  0  0  0
    7.1371   -5.7964   20.8595 H   0  0  0  0  0  0  0  0  0  0  0  0
    5.6255   -4.7943   22.0569 C   0  0  0  0  0  0  0  0  0  0  0  0
    5.0977   -5.7582   22.0383 H   0  0  0  0  0  0  0  0  0  0  0  0
    4.8504   -4.0290   21.8887 H   0  0  0  0  0  0  0  0  0  0  0  0
    6.2526   -4.5159   23.4325 C   0  0  0  0  0  0  0  0  0  0  0  0
    5.6031   -4.9545   24.1992 H   0  0  0  0  0  0  0  0  0  0  0  0
    7.2327   -5.0040   23.5455 H   0  0  0  0  0  0  0  0  0  0  0  0
    6.3610   -3.0077   23.7458 C   0  0  0  0  0  0  0  0  0  0  0  0
    5.3513   -2.5934   23.7168 H   0  0  0  0  0  0  0  0  0  0  0  0
    6.7565   -2.8667   24.7602 H   0  0  0  0  0  0  0  0  0  0  0  0
    7.1991   -2.2003   22.7731 C   0  0  0  0  0  0  0  0  0  0  0  0
    6.5802   -1.5783   21.8044 N   0  0  0  0  0  0  0  0  0  0  0  0
    7.3348   -0.8330   20.9287 N   0  0  0  0  0  0  0  0  0  0  0  0
    6.6255   -0.1475   19.8910 C   0  0  0  0  0  0  0  0  0  0  0  0
    7.1204   -0.1570   18.5699 C   0  0  0  0  0  0  0  0  0  0  0  0
    8.0226   -0.7250   18.3438 H   0  0  0  0  0  0  0  0  0  0  0  0
    6.5552    0.5044   17.5502 N   0  0  0  0  0  0  0  0  0  0  0  0
    5.4549    1.2269   17.8179 C   0  0  0  0  0  0  0  0  0  0  0  0
    5.0242    1.7728   16.9805 H   0  0  0  0  0  0  0  0  0  0  0  0
    4.8650    1.2765   19.0884 C   0  0  0  0  0  0  0  0  0  0  0  0
    3.9653    1.8660   19.2345 H   0  0  0  0  0  0  0  0  0  0  0  0
    5.4461    0.5671   20.1489 C   0  0  0  0  0  0  0  0  0  0  0  0
    5.0137    0.5634   21.1514 H   0  0  0  0  0  0  0  0  0  0  0  0
    8.6821   -0.6637   21.1016 C   0  0  0  0  0  0  0  0  0  0  0  0
    9.1508    0.0335   20.4110 H   0  0  0  0  0  0  0  0  0  0  0  0
    9.3793   -1.3058   22.0660 C   0  0  0  0  0  0  0  0  0  0  0  0
   10.4447   -1.1945   22.2086 H   0  0  0  0  0  0  0  0  0  0  0  0
    8.6869   -2.1809   22.9794 C   0  0  0  0  0  0  0  0  0  0  0  0
    9.2509   -2.8299   23.8531 O   0  0  0  0  0  0  0  0  0  0  0  0
  1  2  1  0
  2  3  1  0
  3  4  1  0
  3  5  1  0
  5  6  2  0
  5  7  1  0
  7  8  1  0
  7  9  1  0
  7 10  1  0
 10 11  1  0
 10 12  1  0
 10 13  1  0
 13 14  1  0
 13 15  1  0
 13 16  1  0
 16 17  1  0
 16 18  1  0
 16 19  1  0
 19 20  2  0
 20 21  1  0
 21 22  1  0
 22 23  2  0
 23 24  1  0
 23 25  1  0
 25 26  2  0
 26 27  1  0
 26 28  1  0
 28 29  1  0
 28 30  2  0
 30 31  1  0
 21 32  1  0
 32 33  1  0
 32 34  2  0
 34 35  1  0
 34 36  1  0
 36 37  2  0
 36 19  1  0
 30 22  1  0
M  END
>  <cnnaffinity>  (1) 
-5.43313

>  <filename>  (1) 
O=C(CCCCc1nn(-c2cccnc2)ccc1=O)NO

$$$$
