
     RDKit          3D

 37 39  0  0  0  0  0  0  0  0999 V2000
   11.6063    4.3262   21.9004 H   0  0  0  0  0  0  0  0  0  0  0  0
   10.9785    3.8731   22.4864 O   0  0  0  0  0  0  0  0  0  0  0  0
   10.8727    2.7083   21.8204 C   0  0  0  0  0  0  0  0  0  0  0  0
   11.5917    2.4961   20.8728 O   0  0  0  0  0  0  0  0  0  0  0  0
    9.8225    1.8018   22.3971 C   0  0  0  0  0  0  0  0  0  0  0  0
    9.9955    0.8042   21.9851 H   0  0  0  0  0  0  0  0  0  0  0  0
   10.0009    1.7495   23.4782 H   0  0  0  0  0  0  0  0  0  0  0  0
    8.3629    2.2419   22.1347 C   0  0  0  0  0  0  0  0  0  0  0  0
    8.1490    2.2014   21.0567 H   0  0  0  0  0  0  0  0  0  0  0  0
    8.2179    3.2800   22.4534 H   0  0  0  0  0  0  0  0  0  0  0  0
    7.3453    1.3286   22.8432 C   0  0  0  0  0  0  0  0  0  0  0  0
    6.3349    1.6859   22.6213 H   0  0  0  0  0  0  0  0  0  0  0  0
    7.4550    1.3896   23.9362 H   0  0  0  0  0  0  0  0  0  0  0  0
    7.5159   -0.0928   22.3744 C   0  0  0  0  0  0  0  0  0  0  0  0
    7.2980   -0.5759   21.0399 C   0  0  0  0  0  0  0  0  0  0  0  0
    6.5812    0.0710   19.9354 C   0  0  0  0  0  0  0  0  0  0  0  0
    7.1208    0.0248   18.6350 C   0  0  0  0  0  0  0  0  0  0  0  0
    8.0322   -0.5395   18.4381 H   0  0  0  0  0  0  0  0  0  0  0  0
    6.5772    0.6394   17.5803 N   0  0  0  0  0  0  0  0  0  0  0  0
    5.4297    1.3080   17.7779 C   0  0  0  0  0  0  0  0  0  0  0  0
    5.0078    1.8011   16.9034 H   0  0  0  0  0  0  0  0  0  0  0  0
    4.7760    1.3655   19.0133 C   0  0  0  0  0  0  0  0  0  0  0  0
    3.8354    1.8977   19.1015 H   0  0  0  0  0  0  0  0  0  0  0  0
    5.3627    0.7408   20.1132 C   0  0  0  0  0  0  0  0  0  0  0  0
    4.8779    0.7522   21.0899 H   0  0  0  0  0  0  0  0  0  0  0  0
    7.9160   -1.7372   20.8234 N   0  0  0  0  0  0  0  0  0  0  0  0
    8.4837   -2.0083   21.9968 N   0  0  0  0  0  0  0  0  0  0  0  0
    8.3288   -1.0662   22.9340 C   0  0  0  0  0  0  0  0  0  0  0  0
    9.3146   -1.3085   24.0446 C   0  0  0  0  0  0  0  0  0  0  0  0
    8.8251   -1.3829   25.0165 H   0  0  0  0  0  0  0  0  0  0  0  0
   10.0217   -0.4748   24.1110 H   0  0  0  0  0  0  0  0  0  0  0  0
   10.0319   -2.6292   23.6323 C   0  0  0  0  0  0  0  0  0  0  0  0
   11.1096   -2.5057   23.5666 H   0  0  0  0  0  0  0  0  0  0  0  0
    9.8370   -3.4292   24.3470 H   0  0  0  0  0  0  0  0  0  0  0  0
    9.4898   -3.0052   22.2361 C   0  0  0  0  0  0  0  0  0  0  0  0
    9.0458   -4.0015   22.1961 H   0  0  0  0  0  0  0  0  0  0  0  0
   10.2460   -2.9069   21.4549 H   0  0  0  0  0  0  0  0  0  0  0  0
  1  2  1  0
  2  3  1  0
  3  4  2  0
  3  5  1  0
  5  6  1  0
  5  7  1  0
  5  8  1  0
  8  9  1  0
  8 10  1  0
  8 11  1  0
 11 12  1  0
 11 13  1  0
 11 14  1  0
 14 15  1  0
 15 16  1  0
 16 17  2  0
 17 18  1  0
 17 19  1  0
 19 20  2  0
 20 21  1  0
 20 22  1  0
 22 23  1  0
 22 24  2  0
 24 25  1  0
 15 26  2  0
 26 27  1  0
 27 28  1  0
 28 29  1  0
 29 30  1  0
 29 31  1  0
 29 32  1  0
 32 33  1  0
 32 34  1  0
 32 35  1  0
 35 36  1  0
 35 37  1  0
 28 14  2  0
 24 16  1  0
 35 27  1  0
M  END
>  <cnnaffinity>  (1) 
-5.22955

>  <filename>  (1) 
O=C(O)CCCc1c(-c2cccnc2)nn2c1CCC2

$$$$
