
     RDKit          3D

 40 42  0  0  0  0  0  0  0  0999 V2000
    4.9814    1.7636   16.9687 H   0  0  0  0  0  0  0  0  0  0  0  0
    5.4527    1.2762   17.8176 C   0  0  0  0  0  0  0  0  0  0  0  0
    6.6181    0.6611   17.5690 N   0  0  0  0  0  0  0  0  0  0  0  0
    7.2235    0.0556   18.5950 C   0  0  0  0  0  0  0  0  0  0  0  0
    8.1817   -0.4174   18.3822 H   0  0  0  0  0  0  0  0  0  0  0  0
    6.6884    0.0083   19.8916 C   0  0  0  0  0  0  0  0  0  0  0  0
    7.4389   -0.7075   20.9452 C   0  0  0  0  0  0  0  0  0  0  0  0
    8.7349   -0.6752   20.8637 N   0  0  0  0  0  0  0  0  0  0  0  0
    9.4561   -1.3025   21.8435 C   0  0  0  0  0  0  0  0  0  0  0  0
   10.6632   -1.3821   21.8790 O   0  0  0  0  0  0  0  0  0  0  0  0
    8.7503   -1.9269   22.8917 N   0  0  0  0  0  0  0  0  0  0  0  0
    9.4158   -2.4034   23.4785 H   0  0  0  0  0  0  0  0  0  0  0  0
    7.3799   -2.0328   22.9816 C   0  0  0  0  0  0  0  0  0  0  0  0
    6.7575   -2.8698   24.1755 C   0  0  0  0  0  0  0  0  0  0  0  0
    7.4147   -3.7412   24.7241 O   0  0  0  0  0  0  0  0  0  0  0  0
    5.4817   -2.5798   24.5794 N   0  0  0  0  0  0  0  0  0  0  0  0
    4.9735   -1.8676   24.0851 H   0  0  0  0  0  0  0  0  0  0  0  0
    4.7273   -3.4649   25.4801 C   0  0  0  0  0  0  0  0  0  0  0  0
    5.4048   -3.7129   26.3067 H   0  0  0  0  0  0  0  0  0  0  0  0
    4.3206   -4.7834   24.7802 C   0  0  0  0  0  0  0  0  0  0  0  0
    5.2115   -5.2133   24.3127 H   0  0  0  0  0  0  0  0  0  0  0  0
    3.9778   -5.4910   25.5491 H   0  0  0  0  0  0  0  0  0  0  0  0
    3.2054   -4.5692   23.7520 C   0  0  0  0  0  0  0  0  0  0  0  0
    2.9487   -5.5088   23.2534 H   0  0  0  0  0  0  0  0  0  0  0  0
    3.5952   -3.9070   22.9707 H   0  0  0  0  0  0  0  0  0  0  0  0
    1.9568   -3.9753   24.4203 C   0  0  0  0  0  0  0  0  0  0  0  0
    1.5847   -4.7169   25.1397 H   0  0  0  0  0  0  0  0  0  0  0  0
    1.1441   -3.8328   23.6965 H   0  0  0  0  0  0  0  0  0  0  0  0
    2.2417   -2.6597   25.1657 C   0  0  0  0  0  0  0  0  0  0  0  0
    1.3714   -2.4033   25.7901 H   0  0  0  0  0  0  0  0  0  0  0  0
    2.3308   -1.8353   24.4477 H   0  0  0  0  0  0  0  0  0  0  0  0
    3.4882   -2.7589   26.0762 C   0  0  0  0  0  0  0  0  0  0  0  0
    3.7727   -1.7666   26.4509 H   0  0  0  0  0  0  0  0  0  0  0  0
    3.1826   -3.3460   26.9565 H   0  0  0  0  0  0  0  0  0  0  0  0
    6.7038   -1.4089   21.9684 C   0  0  0  0  0  0  0  0  0  0  0  0
    5.6340   -1.4824   21.8447 H   0  0  0  0  0  0  0  0  0  0  0  0
    5.4757    0.6670   20.1397 C   0  0  0  0  0  0  0  0  0  0  0  0
    5.0566    0.6967   21.1498 H   0  0  0  0  0  0  0  0  0  0  0  0
    4.8447    1.3105   19.0777 C   0  0  0  0  0  0  0  0  0  0  0  0
    3.9065    1.8377   19.2123 H   0  0  0  0  0  0  0  0  0  0  0  0
  1  2  1  0
  2  3  2  0
  3  4  1  0
  4  5  1  0
  4  6  2  0
  6  7  1  0
  7  8  2  0
  8  9  1  0
  9 10  2  0
  9 11  1  0
 11 12  1  0
 11 13  1  0
 13 14  1  0
 14 15  2  0
 14 16  1  0
 16 17  1  0
 16 18  1  0
 18 19  1  0
 18 20  1  0
 20 21  1  0
 20 22  1  0
 20 23  1  0
 23 24  1  0
 23 25  1  0
 23 26  1  0
 26 27  1  0
 26 28  1  0
 26 29  1  0
 29 30  1  0
 29 31  1  0
 29 32  1  0
 32 33  1  0
 32 34  1  0
 13 35  2  0
 35 36  1  0
  6 37  1  0
 37 38  1  0
 37 39  2  0
 39 40  1  0
 39  2  1  0
 35  7  1  0
 32 18  1  0
M  END
>  <cnnaffinity>  (1) 
-5.10878

>  <filename>  (1) 
O=C(NC1CCCCC1)c1cc(-c2cccnc2)nc(=O)[nH]1

$$$$
