
     RDKit          3D

 36 38  0  0  0  0  0  0  0  0999 V2000
   12.3454    1.4694   21.0596 H   0  0  0  0  0  0  0  0  0  0  0  0
   11.6792    0.7983   21.2993 O   0  0  0  0  0  0  0  0  0  0  0  0
   10.4276    1.4122   21.1253 N   0  0  0  0  0  0  0  0  0  0  0  0
    9.8033    0.7212   20.7259 H   0  0  0  0  0  0  0  0  0  0  0  0
    9.8097    2.0156   22.2276 C   0  0  0  0  0  0  0  0  0  0  0  0
   10.3855    2.3387   23.2414 O   0  0  0  0  0  0  0  0  0  0  0  0
    8.3342    2.2545   21.9881 C   0  0  0  0  0  0  0  0  0  0  0  0
    8.1457    3.2847   22.3022 H   0  0  0  0  0  0  0  0  0  0  0  0
    8.1159    2.1657   20.9201 H   0  0  0  0  0  0  0  0  0  0  0  0
    7.4502    1.2707   22.7849 C   0  0  0  0  0  0  0  0  0  0  0  0
    6.4026    1.5788   22.7081 H   0  0  0  0  0  0  0  0  0  0  0  0
    7.7215    1.3047   23.8485 H   0  0  0  0  0  0  0  0  0  0  0  0
    7.6364   -0.1288   22.2824 C   0  0  0  0  0  0  0  0  0  0  0  0
    7.3834   -0.6439   20.9659 C   0  0  0  0  0  0  0  0  0  0  0  0
    6.6372    0.0003   19.8780 C   0  0  0  0  0  0  0  0  0  0  0  0
    7.1497    0.0227   18.5665 C   0  0  0  0  0  0  0  0  0  0  0  0
    8.0818   -0.4886   18.3235 H   0  0  0  0  0  0  0  0  0  0  0  0
    6.5552    0.6630   17.5545 N   0  0  0  0  0  0  0  0  0  0  0  0
    5.4018    1.3027   17.8103 C   0  0  0  0  0  0  0  0  0  0  0  0
    4.9416    1.8305   16.9792 H   0  0  0  0  0  0  0  0  0  0  0  0
    4.7878    1.3136   19.0687 C   0  0  0  0  0  0  0  0  0  0  0  0
    3.8565    1.8500   19.2255 H   0  0  0  0  0  0  0  0  0  0  0  0
    5.4223    0.6541   20.1164 C   0  0  0  0  0  0  0  0  0  0  0  0
    4.9926    0.6407   21.1191 H   0  0  0  0  0  0  0  0  0  0  0  0
    7.9895   -1.8143   20.7691 N   0  0  0  0  0  0  0  0  0  0  0  0
    8.5761   -2.0587   21.9440 N   0  0  0  0  0  0  0  0  0  0  0  0
    8.4526   -1.0834   22.8487 C   0  0  0  0  0  0  0  0  0  0  0  0
    9.4607   -1.2461   23.9451 C   0  0  0  0  0  0  0  0  0  0  0  0
    8.9702   -1.3158   24.9177 H   0  0  0  0  0  0  0  0  0  0  0  0
   10.1202   -0.3688   23.9773 H   0  0  0  0  0  0  0  0  0  0  0  0
   10.2026   -2.5575   23.5461 C   0  0  0  0  0  0  0  0  0  0  0  0
   10.0810   -3.3305   24.3023 H   0  0  0  0  0  0  0  0  0  0  0  0
   11.2651   -2.3918   23.4062 H   0  0  0  0  0  0  0  0  0  0  0  0
    9.6121   -3.0165   22.1914 C   0  0  0  0  0  0  0  0  0  0  0  0
    9.1881   -4.0210   22.1938 H   0  0  0  0  0  0  0  0  0  0  0  0
   10.3395   -2.9244   21.3863 H   0  0  0  0  0  0  0  0  0  0  0  0
  1  2  1  0
  2  3  1  0
  3  4  1  0
  3  5  1  0
  5  6  2  0
  5  7  1  0
  7  8  1  0
  7  9  1  0
  7 10  1  0
 10 11  1  0
 10 12  1  0
 10 13  1  0
 13 14  1  0
 14 15  1  0
 15 16  2  0
 16 17  1  0
 16 18  1  0
 18 19  2  0
 19 20  1  0
 19 21  1  0
 21 22  1  0
 21 23  2  0
 23 24  1  0
 14 25  2  0
 25 26  1  0
 26 27  1  0
 27 28  1  0
 28 29  1  0
 28 30  1  0
 28 31  1  0
 31 32  1  0
 31 33  1  0
 31 34  1  0
 34 35  1  0
 34 36  1  0
 27 13  2  0
 23 15  1  0
 34 26  1  0
M  END
>  <cnnaffinity>  (1) 
-5.06395

>  <filename>  (1) 
O=C(CCc1c(-c2cccnc2)nn2c1CCC2)NO

$$$$
