
     RDKit          3D

 28 29  0  0  0  0  0  0  0  0999 V2000
    9.8867    3.1113   24.1391 H   0  0  0  0  0  0  0  0  0  0  0  0
   10.6355    2.9741   23.5289 O   0  0  0  0  0  0  0  0  0  0  0  0
   10.4000    1.7799   22.8515 N   0  0  0  0  0  0  0  0  0  0  0  0
   10.4453    1.9151   21.8491 H   0  0  0  0  0  0  0  0  0  0  0  0
   10.8856    0.5619   23.2938 C   0  0  0  0  0  0  0  0  0  0  0  0
   11.1946    0.2834   24.4274 O   0  0  0  0  0  0  0  0  0  0  0  0
   10.8432   -0.4592   22.1773 C   0  0  0  0  0  0  0  0  0  0  0  0
   11.4838   -1.2843   22.4878 H   0  0  0  0  0  0  0  0  0  0  0  0
   11.1936   -0.0584   21.2269 H   0  0  0  0  0  0  0  0  0  0  0  0
    9.4136   -0.8809   22.0257 C   0  0  0  0  0  0  0  0  0  0  0  0
    8.7210   -0.3132   21.0768 N   0  0  0  0  0  0  0  0  0  0  0  0
    7.3928   -0.6417   20.9471 N   0  0  0  0  0  0  0  0  0  0  0  0
    6.6977    0.0408   19.9053 C   0  0  0  0  0  0  0  0  0  0  0  0
    7.2424    0.0976   18.6113 C   0  0  0  0  0  0  0  0  0  0  0  0
    8.2023   -0.3735   18.4072 H   0  0  0  0  0  0  0  0  0  0  0  0
    6.6196    0.6952   17.5901 N   0  0  0  0  0  0  0  0  0  0  0  0
    5.4424    1.2965   17.8407 C   0  0  0  0  0  0  0  0  0  0  0  0
    4.9627    1.7722   16.9893 H   0  0  0  0  0  0  0  0  0  0  0  0
    4.8322    1.3089   19.0995 C   0  0  0  0  0  0  0  0  0  0  0  0
    3.8842    1.8230   19.2359 H   0  0  0  0  0  0  0  0  0  0  0  0
    5.4622    0.6469   20.1573 C   0  0  0  0  0  0  0  0  0  0  0  0
    5.0211    0.6012   21.1522 H   0  0  0  0  0  0  0  0  0  0  0  0
    6.7235   -1.6805   21.6866 C   0  0  0  0  0  0  0  0  0  0  0  0
    5.6031   -2.0757   21.4102 O   0  0  0  0  0  0  0  0  0  0  0  0
    7.5465   -2.2215   22.7617 C   0  0  0  0  0  0  0  0  0  0  0  0
    7.0382   -2.9613   23.3645 H   0  0  0  0  0  0  0  0  0  0  0  0
    8.8415   -1.8396   22.9299 C   0  0  0  0  0  0  0  0  0  0  0  0
    9.4762   -2.2473   23.7134 H   0  0  0  0  0  0  0  0  0  0  0  0
  1  2  1  0
  2  3  1  0
  3  4  1  0
  3  5  1  0
  5  6  2  0
  5  7  1  0
  7  8  1  0
  7  9  1  0
  7 10  1  0
 10 11  2  0
 11 12  1  0
 12 13  1  0
 13 14  2  0
 14 15  1  0
 14 16  1  0
 16 17  2  0
 17 18  1  0
 17 19  1  0
 19 20  1  0
 19 21  2  0
 21 22  1  0
 12 23  1  0
 23 24  2  0
 23 25  1  0
 25 26  1  0
 25 27  2  0
 27 28  1  0
 27 10  1  0
 21 13  1  0
M  END
>  <cnnaffinity>  (1) 
-4.53722

>  <filename>  (1) 
O=C(Cc1ccc(=O)n(-c2cccnc2)n1)NO

$$$$
