
     RDKit          3D

 40 41  0  0  0  0  0  0  0  0999 V2000
    4.9666    1.7841   16.9782 H   0  0  0  0  0  0  0  0  0  0  0  0
    5.4474    1.2854   17.8181 C   0  0  0  0  0  0  0  0  0  0  0  0
    6.5720    0.6169   17.5316 N   0  0  0  0  0  0  0  0  0  0  0  0
    7.1875   -0.0129   18.5349 C   0  0  0  0  0  0  0  0  0  0  0  0
    8.0867   -0.5677   18.2752 H   0  0  0  0  0  0  0  0  0  0  0  0
    6.7254    0.0045   19.8614 C   0  0  0  0  0  0  0  0  0  0  0  0
    7.5321   -0.6512   20.9670 C   0  0  0  0  0  0  0  0  0  0  0  0
    6.7206   -1.4168   21.7352 F   0  0  0  0  0  0  0  0  0  0  0  0
    8.4569   -1.5056   20.4063 F   0  0  0  0  0  0  0  0  0  0  0  0
    8.3199    0.3397   21.9050 C   0  0  0  0  0  0  0  0  0  0  0  0
    8.0476    0.5158   23.0723 O   0  0  0  0  0  0  0  0  0  0  0  0
    9.3694    0.9699   21.2565 N   0  0  0  0  0  0  0  0  0  0  0  0
    9.5460    0.7899   20.2783 H   0  0  0  0  0  0  0  0  0  0  0  0
    9.9793    2.1313   21.7519 N   0  0  0  0  0  0  0  0  0  0  0  0
   10.5814    1.9305   22.5473 H   0  0  0  0  0  0  0  0  0  0  0  0
    9.1657    3.2357   22.1231 C   0  0  0  0  0  0  0  0  0  0  0  0
    8.0034    3.3924   21.8350 O   0  0  0  0  0  0  0  0  0  0  0  0
    9.9179    4.1005   22.8841 N   0  0  0  0  0  0  0  0  0  0  0  0
   10.8639    4.1497   22.5412 H   0  0  0  0  0  0  0  0  0  0  0  0
    9.3246    5.3767   23.2965 C   0  0  0  0  0  0  0  0  0  0  0  0
    8.6942    5.7714   22.4859 H   0  0  0  0  0  0  0  0  0  0  0  0
   10.4472    6.3782   23.5874 C   0  0  0  0  0  0  0  0  0  0  0  0
   11.1260    6.3962   22.7266 H   0  0  0  0  0  0  0  0  0  0  0  0
    9.9887    7.3732   23.6372 H   0  0  0  0  0  0  0  0  0  0  0  0
   11.2248    6.0962   24.8896 C   0  0  0  0  0  0  0  0  0  0  0  0
   11.9049    6.9325   25.0928 H   0  0  0  0  0  0  0  0  0  0  0  0
   11.8592    5.2068   24.7523 H   0  0  0  0  0  0  0  0  0  0  0  0
   10.2755    5.8766   26.0813 C   0  0  0  0  0  0  0  0  0  0  0  0
    9.7491    6.8208   26.2961 H   0  0  0  0  0  0  0  0  0  0  0  0
   10.8473    5.6325   26.9853 H   0  0  0  0  0  0  0  0  0  0  0  0
    9.2251    4.7932   25.7752 C   0  0  0  0  0  0  0  0  0  0  0  0
    8.5577    4.6516   26.6325 H   0  0  0  0  0  0  0  0  0  0  0  0
    9.7080    3.8234   25.5882 H   0  0  0  0  0  0  0  0  0  0  0  0
    8.4153    5.1565   24.5193 C   0  0  0  0  0  0  0  0  0  0  0  0
    7.6924    4.3717   24.2650 H   0  0  0  0  0  0  0  0  0  0  0  0
    7.8391    6.0782   24.6915 H   0  0  0  0  0  0  0  0  0  0  0  0
    5.5461    0.7029   20.1547 C   0  0  0  0  0  0  0  0  0  0  0  0
    5.1456    0.7401   21.1721 H   0  0  0  0  0  0  0  0  0  0  0  0
    4.8885    1.3394   19.1011 C   0  0  0  0  0  0  0  0  0  0  0  0
    3.9628    1.8809   19.2523 H   0  0  0  0  0  0  0  0  0  0  0  0
  1  2  1  0
  2  3  2  0
  3  4  1  0
  4  5  1  0
  4  6  2  0
  6  7  1  0
  7  8  1  0
  7  9  1  0
  7 10  1  0
 10 11  2  0
 10 12  1  0
 12 13  1  0
 12 14  1  0
 14 15  1  0
 14 16  1  0
 16 17  2  0
 16 18  1  0
 18 19  1  0
 18 20  1  0
 20 21  1  0
 20 22  1  0
 22 23  1  0
 22 24  1  0
 22 25  1  0
 25 26  1  0
 25 27  1  0
 25 28  1  0
 28 29  1  0
 28 30  1  0
 28 31  1  0
 31 32  1  0
 31 33  1  0
 31 34  1  0
 34 35  1  0
 34 36  1  0
  6 37  1  0
 37 38  1  0
 37 39  2  0
 39 40  1  0
 39  2  1  0
 34 20  1  0
M  END
>  <cnnaffinity>  (1) 
-4.526

>  <filename>  (1) 
O=C(NNC(=O)C(F)(F)c1cccnc1)NC1CCCCC1

$$$$
