
     RDKit          3D

 39 41  0  0  0  0  0  0  0  0999 V2000
    4.8625    2.0808   16.4318 H   0  0  0  0  0  0  0  0  0  0  0  0
    5.3428    1.5915   17.2794 C   0  0  0  0  0  0  0  0  0  0  0  0
    6.4735    0.9180   17.0086 N   0  0  0  0  0  0  0  0  0  0  0  0
    7.1063    0.3160   18.0220 C   0  0  0  0  0  0  0  0  0  0  0  0
    8.0397   -0.1874   17.7807 H   0  0  0  0  0  0  0  0  0  0  0  0
    6.6330    0.3221   19.3522 C   0  0  0  0  0  0  0  0  0  0  0  0
    7.2660   -0.3986   20.3998 N   0  0  0  0  0  0  0  0  0  0  0  0
    6.6085   -1.2372   21.3136 C   0  0  0  0  0  0  0  0  0  0  0  0
    5.5427   -1.3933   21.3289 H   0  0  0  0  0  0  0  0  0  0  0  0
    7.5577   -1.7625   22.1012 C   0  0  0  0  0  0  0  0  0  0  0  0
    7.4475   -2.5989   23.1970 N   0  0  0  0  0  0  0  0  0  0  0  0
    6.5579   -2.6049   23.6589 H   0  0  0  0  0  0  0  0  0  0  0  0
    8.4869   -3.2318   23.8335 C   0  0  0  0  0  0  0  0  0  0  0  0
    9.5872   -3.3600   23.3221 O   0  0  0  0  0  0  0  0  0  0  0  0
    8.1248   -3.8007   25.2167 C   0  0  0  0  0  0  0  0  0  0  0  0
    7.4423   -3.0894   25.7012 H   0  0  0  0  0  0  0  0  0  0  0  0
    9.3703   -3.9449   26.1126 C   0  0  0  0  0  0  0  0  0  0  0  0
   10.1427   -4.4696   25.5343 H   0  0  0  0  0  0  0  0  0  0  0  0
    9.7569   -2.9500   26.3608 H   0  0  0  0  0  0  0  0  0  0  0  0
    9.1037   -4.7060   27.4194 C   0  0  0  0  0  0  0  0  0  0  0  0
    8.4745   -4.0969   28.0878 H   0  0  0  0  0  0  0  0  0  0  0  0
   10.0650   -4.8767   27.9201 H   0  0  0  0  0  0  0  0  0  0  0  0
    8.3930   -6.0422   27.1863 C   0  0  0  0  0  0  0  0  0  0  0  0
    8.1843   -6.5396   28.1428 H   0  0  0  0  0  0  0  0  0  0  0  0
    9.0446   -6.7058   26.5950 H   0  0  0  0  0  0  0  0  0  0  0  0
    7.0919   -5.8227   26.4153 C   0  0  0  0  0  0  0  0  0  0  0  0
    6.4058   -5.2124   27.0207 H   0  0  0  0  0  0  0  0  0  0  0  0
    6.5866   -6.7800   26.2487 H   0  0  0  0  0  0  0  0  0  0  0  0
    7.3736   -5.1453   25.0709 C   0  0  0  0  0  0  0  0  0  0  0  0
    7.9988   -5.8326   24.4856 H   0  0  0  0  0  0  0  0  0  0  0  0
    6.4326   -4.9998   24.5301 H   0  0  0  0  0  0  0  0  0  0  0  0
    8.7773   -1.2896   21.7165 N   0  0  0  0  0  0  0  0  0  0  0  0
    9.6723   -1.6397   22.0077 H   0  0  0  0  0  0  0  0  0  0  0  0
    8.6415   -0.4069   20.6757 C   0  0  0  0  0  0  0  0  0  0  0  0
    9.5197    0.2313   20.1395 O   0  0  0  0  0  0  0  0  0  0  0  0
    5.4783    1.0608   19.6272 C   0  0  0  0  0  0  0  0  0  0  0  0
    5.1413    1.1547   20.6601 H   0  0  0  0  0  0  0  0  0  0  0  0
    4.8133    1.6942   18.5714 C   0  0  0  0  0  0  0  0  0  0  0  0
    3.9031    2.2628   18.7404 H   0  0  0  0  0  0  0  0  0  0  0  0
  1  2  1  0
  2  3  2  0
  3  4  1  0
  4  5  1  0
  4  6  2  0
  6  7  1  0
  7  8  1  0
  8  9  1  0
  8 10  2  0
 10 11  1  0
 11 12  1  0
 11 13  1  0
 13 14  2  0
 13 15  1  0
 15 16  1  0
 15 17  1  0
 17 18  1  0
 17 19  1  0
 17 20  1  0
 20 21  1  0
 20 22  1  0
 20 23  1  0
 23 24  1  0
 23 25  1  0
 23 26  1  0
 26 27  1  0
 26 28  1  0
 26 29  1  0
 29 30  1  0
 29 31  1  0
 10 32  1  0
 32 33  1  0
 32 34  1  0
 34 35  2  0
  6 36  1  0
 36 37  1  0
 36 38  2  0
 38 39  1  0
 38  2  1  0
 34  7  1  0
 29 15  1  0
M  END
>  <cnnaffinity>  (1) 
-5.0466

>  <filename>  (1) 
O=C(Nc1cn(-c2cccnc2)c(=O)[nH]1)C1CCCCC1

$$$$
