
     RDKit          3D

 28 29  0  0  0  0  0  0  0  0999 V2000
    5.0808    1.7380   17.0349 H   0  0  0  0  0  0  0  0  0  0  0  0
    5.5298    1.2364   17.8902 C   0  0  0  0  0  0  0  0  0  0  0  0
    6.6912    0.6053   17.6693 N   0  0  0  0  0  0  0  0  0  0  0  0
    7.2698   -0.0039   18.7086 C   0  0  0  0  0  0  0  0  0  0  0  0
    8.2033   -0.5185   18.4819 H   0  0  0  0  0  0  0  0  0  0  0  0
    6.7254   -0.0232   19.9984 C   0  0  0  0  0  0  0  0  0  0  0  0
    7.4077   -0.7342   21.0975 C   0  0  0  0  0  0  0  0  0  0  0  0
    6.8791   -1.1504   22.1018 O   0  0  0  0  0  0  0  0  0  0  0  0
    8.7550   -0.8679   20.9138 N   0  0  0  0  0  0  0  0  0  0  0  0
    9.3304   -0.2676   20.3625 H   0  0  0  0  0  0  0  0  0  0  0  0
    9.5886   -1.7253   22.0197 S   0  0  0  0  0  0  0  0  0  0  0  0
   10.9487   -1.4651   21.5844 O   0  0  0  0  0  0  0  0  0  0  0  0
    9.0062   -3.0458   22.0634 O   0  0  0  0  0  0  0  0  0  0  0  0
    9.2464   -0.9200   23.5764 C   0  0  0  0  0  0  0  0  0  0  0  0
    9.1813    0.4798   23.7390 C   0  0  0  0  0  0  0  0  0  0  0  0
    9.2329    1.2023   22.9252 H   0  0  0  0  0  0  0  0  0  0  0  0
    8.9966    0.9860   25.0287 C   0  0  0  0  0  0  0  0  0  0  0  0
    8.9390    2.7041   25.2667 Cl  0  0  0  0  0  0  0  0  0  0  0  0
    8.8526    0.1566   26.1431 C   0  0  0  0  0  0  0  0  0  0  0  0
    8.7333    0.5714   27.1390 H   0  0  0  0  0  0  0  0  0  0  0  0
    8.8774   -1.2239   25.9401 C   0  0  0  0  0  0  0  0  0  0  0  0
    8.5891   -2.2827   27.2773 Cl  0  0  0  0  0  0  0  0  0  0  0  0
    9.0939   -1.7766   24.6799 C   0  0  0  0  0  0  0  0  0  0  0  0
    9.1309   -2.8609   24.5864 H   0  0  0  0  0  0  0  0  0  0  0  0
    5.4958    0.6147   20.2120 C   0  0  0  0  0  0  0  0  0  0  0  0
    5.0495    0.5919   21.2079 H   0  0  0  0  0  0  0  0  0  0  0  0
    4.8935    1.2632   19.1382 C   0  0  0  0  0  0  0  0  0  0  0  0
    3.9571    1.7938   19.2593 H   0  0  0  0  0  0  0  0  0  0  0  0
  1  2  1  0
  2  3  2  0
  3  4  1  0
  4  5  1  0
  4  6  2  0
  6  7  1  0
  7  8  2  0
  7  9  1  0
  9 10  1  0
  9 11  1  0
 11 12  2  0
 11 13  2  0
 11 14  1  0
 14 15  2  0
 15 16  1  0
 15 17  1  0
 17 18  1  0
 17 19  2  0
 19 20  1  0
 19 21  1  0
 21 22  1  0
 21 23  2  0
 23 24  1  0
  6 25  1  0
 25 26  1  0
 25 27  2  0
 27 28  1  0
 27  2  1  0
 23 14  1  0
M  END
>  <cnnaffinity>  (1) 
-5.59088

>  <filename>  (1) 
O=C(NS(=O)(=O)c1cc(Cl)cc(Cl)c1)c1cccnc1

$$$$
