
     RDKit          3D

 31 32  0  0  0  0  0  0  0  0999 V2000
   12.8421    3.1462   22.3954 H   0  0  0  0  0  0  0  0  0  0  0  0
   12.2589    2.3810   22.5222 O   0  0  0  0  0  0  0  0  0  0  0  0
   11.2974    2.9325   23.2810 C   0  0  0  0  0  0  0  0  0  0  0  0
   11.3751    4.0946   23.5999 O   0  0  0  0  0  0  0  0  0  0  0  0
   10.1836    1.9788   23.6150 C   0  0  0  0  0  0  0  0  0  0  0  0
   10.5275    0.9400   23.5545 H   0  0  0  0  0  0  0  0  0  0  0  0
    9.9262    2.1778   24.6528 H   0  0  0  0  0  0  0  0  0  0  0  0
    8.9355    2.1968   22.7406 C   0  0  0  0  0  0  0  0  0  0  0  0
    8.1323    1.5381   23.0988 H   0  0  0  0  0  0  0  0  0  0  0  0
    8.5653    3.2179   22.8824 H   0  0  0  0  0  0  0  0  0  0  0  0
    9.1642    1.9540   21.2468 C   0  0  0  0  0  0  0  0  0  0  0  0
    8.2450    2.1900   20.6927 H   0  0  0  0  0  0  0  0  0  0  0  0
    9.9350    2.6442   20.8856 H   0  0  0  0  0  0  0  0  0  0  0  0
    9.5924    0.5143   20.9128 C   0  0  0  0  0  0  0  0  0  0  0  0
    9.6657    0.4077   19.8293 H   0  0  0  0  0  0  0  0  0  0  0  0
   10.5755    0.2837   21.3345 H   0  0  0  0  0  0  0  0  0  0  0  0
    8.6354   -0.5106   21.4186 C   0  0  0  0  0  0  0  0  0  0  0  0
    8.8046   -1.3326   22.4232 N   0  0  0  0  0  0  0  0  0  0  0  0
    7.6251   -1.9679   22.5928 N   0  0  0  0  0  0  0  0  0  0  0  0
    6.7570   -1.5703   21.7370 N   0  0  0  0  0  0  0  0  0  0  0  0
    7.3648   -0.6517   20.9542 N   0  0  0  0  0  0  0  0  0  0  0  0
    6.6607    0.0128   19.9007 C   0  0  0  0  0  0  0  0  0  0  0  0
    7.1715    0.0577   18.5915 C   0  0  0  0  0  0  0  0  0  0  0  0
    8.1143   -0.4368   18.3682 H   0  0  0  0  0  0  0  0  0  0  0  0
    6.5622    0.6758   17.5738 N   0  0  0  0  0  0  0  0  0  0  0  0
    5.4017    1.2958   17.8362 C   0  0  0  0  0  0  0  0  0  0  0  0
    4.9178    1.7857   16.9934 H   0  0  0  0  0  0  0  0  0  0  0  0
    4.8139    1.3085   19.1086 C   0  0  0  0  0  0  0  0  0  0  0  0
    3.8802    1.8394   19.2604 H   0  0  0  0  0  0  0  0  0  0  0  0
    5.4410    0.6443   20.1692 C   0  0  0  0  0  0  0  0  0  0  0  0
    5.0212    0.6089   21.1785 H   0  0  0  0  0  0  0  0  0  0  0  0
  1  2  1  0
  2  3  1  0
  3  4  2  0
  3  5  1  0
  5  6  1  0
  5  7  1  0
  5  8  1  0
  8  9  1  0
  8 10  1  0
  8 11  1  0
 11 12  1  0
 11 13  1  0
 11 14  1  0
 14 15  1  0
 14 16  1  0
 14 17  1  0
 17 18  2  0
 18 19  1  0
 19 20  2  0
 20 21  1  0
 21 22  1  0
 22 23  2  0
 23 24  1  0
 23 25  1  0
 25 26  2  0
 26 27  1  0
 26 28  1  0
 28 29  1  0
 28 30  2  0
 30 31  1  0
 21 17  1  0
 30 22  1  0
M  END
>  <cnnaffinity>  (1) 
-4.81444

>  <filename>  (1) 
O=C(O)CCCCc1nnnn1-c1cccnc1

$$$$
