
     RDKit          3D

 32 34  0  0  0  0  0  0  0  0999 V2000
    9.5499   -6.6779   27.1951 H   0  0  0  0  0  0  0  0  0  0  0  0
    8.8772   -5.9735   27.2173 O   0  0  0  0  0  0  0  0  0  0  0  0
    9.1154   -5.4458   26.0046 C   0  0  0  0  0  0  0  0  0  0  0  0
    9.9655   -5.9674   25.3158 O   0  0  0  0  0  0  0  0  0  0  0  0
    8.2745   -4.2513   25.6703 C   0  0  0  0  0  0  0  0  0  0  0  0
    7.3273   -3.7542   26.5901 C   0  0  0  0  0  0  0  0  0  0  0  0
    7.2006   -4.2427   27.5518 H   0  0  0  0  0  0  0  0  0  0  0  0
    6.5536   -2.6418   26.2663 C   0  0  0  0  0  0  0  0  0  0  0  0
    5.8177   -2.2702   26.9739 H   0  0  0  0  0  0  0  0  0  0  0  0
    6.7129   -2.0037   25.0335 C   0  0  0  0  0  0  0  0  0  0  0  0
    6.1158   -1.1343   24.7788 H   0  0  0  0  0  0  0  0  0  0  0  0
    7.6647   -2.4769   24.1162 C   0  0  0  0  0  0  0  0  0  0  0  0
    7.8330   -1.8179   22.8593 N   0  0  0  0  0  0  0  0  0  0  0  0
    6.8210   -1.2381   22.1061 C   0  0  0  0  0  0  0  0  0  0  0  0
    5.7992   -1.3060   22.3958 H   0  0  0  0  0  0  0  0  0  0  0  0
    7.3383   -0.7023   20.9829 C   0  0  0  0  0  0  0  0  0  0  0  0
    6.6662    0.0141   19.9038 C   0  0  0  0  0  0  0  0  0  0  0  0
    7.1736    0.0676   18.5913 C   0  0  0  0  0  0  0  0  0  0  0  0
    8.1104   -0.4248   18.3353 H   0  0  0  0  0  0  0  0  0  0  0  0
    6.5613    0.6821   17.5704 N   0  0  0  0  0  0  0  0  0  0  0  0
    5.3953    1.3012   17.8213 C   0  0  0  0  0  0  0  0  0  0  0  0
    4.9204    1.7979   16.9736 H   0  0  0  0  0  0  0  0  0  0  0  0
    4.7994    1.3193   19.0880 C   0  0  0  0  0  0  0  0  0  0  0  0
    3.8653    1.8507   19.2335 H   0  0  0  0  0  0  0  0  0  0  0  0
    5.4402    0.6633   20.1374 C   0  0  0  0  0  0  0  0  0  0  0  0
    5.0044    0.6599   21.1353 H   0  0  0  0  0  0  0  0  0  0  0  0
    8.6950   -0.9821   21.0206 N   0  0  0  0  0  0  0  0  0  0  0  0
    9.4383   -0.6853   20.4195 H   0  0  0  0  0  0  0  0  0  0  0  0
    9.0436   -1.6403   22.1752 C   0  0  0  0  0  0  0  0  0  0  0  0
   10.1722   -1.9638   22.4797 O   0  0  0  0  0  0  0  0  0  0  0  0
    8.4393   -3.6023   24.4301 C   0  0  0  0  0  0  0  0  0  0  0  0
    9.1767   -3.9405   23.7051 H   0  0  0  0  0  0  0  0  0  0  0  0
  1  2  1  0
  2  3  1  0
  3  4  2  0
  3  5  1  0
  5  6  2  0
  6  7  1  0
  6  8  1  0
  8  9  1  0
  8 10  2  0
 10 11  1  0
 10 12  1  0
 12 13  1  0
 13 14  1  0
 14 15  1  0
 14 16  2  0
 16 17  1  0
 17 18  2  0
 18 19  1  0
 18 20  1  0
 20 21  2  0
 21 22  1  0
 21 23  1  0
 23 24  1  0
 23 25  2  0
 25 26  1  0
 16 27  1  0
 27 28  1  0
 27 29  1  0
 29 30  2  0
 12 31  2  0
 31 32  1  0
 31  5  1  0
 29 13  1  0
 25 17  1  0
M  END
>  <cnnaffinity>  (1) 
-4.98636

>  <filename>  (1) 
O=C(O)c1cccc(-n2cc(-c3cccnc3)[nH]c2=O)c1

$$$$
