
     RDKit          3D

 35 37  0  0  0  0  0  0  0  0999 V2000
   15.1874    0.9622   22.8073 H   0  0  0  0  0  0  0  0  0  0  0  0
   14.2718    1.2867   22.7953 O   0  0  0  0  0  0  0  0  0  0  0  0
   13.6566    0.0940   22.6991 C   0  0  0  0  0  0  0  0  0  0  0  0
   14.3428   -0.8999   22.7566 O   0  0  0  0  0  0  0  0  0  0  0  0
   12.1810    0.1469   22.5367 C   0  0  0  0  0  0  0  0  0  0  0  0
   11.4162   -1.0226   22.7011 C   0  0  0  0  0  0  0  0  0  0  0  0
   11.9253   -1.9709   22.8448 H   0  0  0  0  0  0  0  0  0  0  0  0
   10.0261   -0.9616   22.6433 C   0  0  0  0  0  0  0  0  0  0  0  0
    9.4231   -1.8350   22.8896 H   0  0  0  0  0  0  0  0  0  0  0  0
    9.3791    0.2389   22.3056 C   0  0  0  0  0  0  0  0  0  0  0  0
    7.8736    0.2733   22.1371 C   0  0  2  0  0  0  0  0  0  0  0  0
    7.6076    1.3050   21.8878 H   0  0  0  0  0  0  0  0  0  0  0  0
    7.1009   -0.1531   23.4147 C   0  0  0  0  0  0  0  0  0  0  0  0
    7.7619   -0.2078   24.2940 H   0  0  0  0  0  0  0  0  0  0  0  0
    6.2946    0.5628   23.6536 H   0  0  0  0  0  0  0  0  0  0  0  0
    6.5756   -1.4676   23.0867 N   0  0  0  0  0  0  0  0  0  0  0  0
    5.7804   -1.8682   23.5656 H   0  0  0  0  0  0  0  0  0  0  0  0
    6.5423   -1.7461   21.7502 C   0  0  0  0  0  0  0  0  0  0  0  0
    5.9299   -2.6821   21.2854 O   0  0  0  0  0  0  0  0  0  0  0  0
    7.3848   -0.6936   21.0122 C   0  0  1  0  0  0  0  0  0  0  0  0
    8.2271   -1.2458   20.5793 H   0  0  0  0  0  0  0  0  0  0  0  0
    6.6522    0.0034   19.8686 C   0  0  0  0  0  0  0  0  0  0  0  0
    7.1679    0.0717   18.5574 C   0  0  0  0  0  0  0  0  0  0  0  0
    8.1218   -0.4005   18.3158 H   0  0  0  0  0  0  0  0  0  0  0  0
    6.5625    0.7004   17.5423 N   0  0  0  0  0  0  0  0  0  0  0  0
    5.3981    1.3151   17.8016 C   0  0  0  0  0  0  0  0  0  0  0  0
    4.9267    1.8261   16.9632 H   0  0  0  0  0  0  0  0  0  0  0  0
    4.7976    1.3158   19.0631 C   0  0  0  0  0  0  0  0  0  0  0  0
    3.8665    1.8473   19.2146 H   0  0  0  0  0  0  0  0  0  0  0  0
    5.4356    0.6498   20.1101 C   0  0  0  0  0  0  0  0  0  0  0  0
    5.0055    0.6449   21.1140 H   0  0  0  0  0  0  0  0  0  0  0  0
   10.1540    1.3900   22.0764 C   0  0  0  0  0  0  0  0  0  0  0  0
    9.6879    2.3290   21.7855 H   0  0  0  0  0  0  0  0  0  0  0  0
   11.5382    1.3530   22.2121 C   0  0  0  0  0  0  0  0  0  0  0  0
   12.1336    2.2525   22.0798 H   0  0  0  0  0  0  0  0  0  0  0  0
  1  2  1  0
  2  3  1  0
  3  4  2  0
  3  5  1  0
  5  6  2  0
  6  7  1  0
  6  8  1  0
  8  9  1  0
  8 10  2  0
 10 11  1  0
 11 12  1  6
 11 13  1  0
 13 14  1  0
 13 15  1  0
 13 16  1  0
 16 17  1  0
 16 18  1  0
 18 19  2  0
 18 20  1  0
 20 21  1  6
 20 22  1  0
 22 23  2  0
 23 24  1  0
 23 25  1  0
 25 26  2  0
 26 27  1  0
 26 28  1  0
 28 29  1  0
 28 30  2  0
 30 31  1  0
 10 32  1  0
 32 33  1  0
 32 34  2  0
 34 35  1  0
 34  5  1  0
 20 11  1  0
 30 22  1  0
M  END
>  <cnnaffinity>  (1) 
-5.3581

>  <filename>  (1) 
O=C(O)c1ccc([C@@H]2CNC(=O)[C@H]2c2cccnc2)cc1

$$$$
