
     RDKit          3D

 32 34  0  0  0  0  0  0  0  0999 V2000
    6.0057   -4.6970   29.2936 H   0  0  0  0  0  0  0  0  0  0  0  0
    5.8578   -4.1106   28.5276 O   0  0  0  0  0  0  0  0  0  0  0  0
    6.9604   -4.4556   27.8372 C   0  0  0  0  0  0  0  0  0  0  0  0
    7.6903   -5.2853   28.3340 O   0  0  0  0  0  0  0  0  0  0  0  0
    7.1828   -3.7499   26.5473 C   0  0  0  0  0  0  0  0  0  0  0  0
    8.0403   -4.3243   25.5883 C   0  0  0  0  0  0  0  0  0  0  0  0
    8.5102   -5.2809   25.8012 H   0  0  0  0  0  0  0  0  0  0  0  0
    8.2850   -3.6827   24.3759 C   0  0  0  0  0  0  0  0  0  0  0  0
    8.9496   -4.1121   23.6325 H   0  0  0  0  0  0  0  0  0  0  0  0
    7.6704   -2.4543   24.1101 C   0  0  0  0  0  0  0  0  0  0  0  0
    7.8717   -1.8054   22.8562 N   0  0  0  0  0  0  0  0  0  0  0  0
    6.8429   -1.2656   22.0999 C   0  0  0  0  0  0  0  0  0  0  0  0
    5.8335   -1.4260   22.4191 H   0  0  0  0  0  0  0  0  0  0  0  0
    7.3568   -0.7109   20.9809 C   0  0  0  0  0  0  0  0  0  0  0  0
    6.6790    0.0037   19.8848 C   0  0  0  0  0  0  0  0  0  0  0  0
    7.1879    0.0492   18.5696 C   0  0  0  0  0  0  0  0  0  0  0  0
    8.1190   -0.4575   18.3207 H   0  0  0  0  0  0  0  0  0  0  0  0
    6.5903    0.6726   17.5449 N   0  0  0  0  0  0  0  0  0  0  0  0
    5.4318    1.3029   17.8018 C   0  0  0  0  0  0  0  0  0  0  0  0
    4.9642    1.8124   16.9613 H   0  0  0  0  0  0  0  0  0  0  0  0
    4.8249    1.3195   19.0632 C   0  0  0  0  0  0  0  0  0  0  0  0
    3.8869    1.8503   19.2001 H   0  0  0  0  0  0  0  0  0  0  0  0
    5.4542    0.6620   20.1208 C   0  0  0  0  0  0  0  0  0  0  0  0
    5.0212    0.6809   21.1244 H   0  0  0  0  0  0  0  0  0  0  0  0
    8.7209   -0.9581   21.0633 N   0  0  0  0  0  0  0  0  0  0  0  0
    9.4644   -0.6651   20.4547 H   0  0  0  0  0  0  0  0  0  0  0  0
    9.0684   -1.6094   22.2068 C   0  0  0  0  0  0  0  0  0  0  0  0
   10.6282   -2.0320   22.6016 S   0  0  0  0  0  0  0  0  0  0  0  0
    6.8560   -1.8495   25.0793 C   0  0  0  0  0  0  0  0  0  0  0  0
    6.4084   -0.8843   24.8692 H   0  0  0  0  0  0  0  0  0  0  0  0
    6.6094   -2.4923   26.2880 C   0  0  0  0  0  0  0  0  0  0  0  0
    5.9658   -2.0392   27.0360 H   0  0  0  0  0  0  0  0  0  0  0  0
  1  2  1  0
  2  3  1  0
  3  4  2  0
  3  5  1  0
  5  6  2  0
  6  7  1  0
  6  8  1  0
  8  9  1  0
  8 10  2  0
 10 11  1  0
 11 12  1  0
 12 13  1  0
 12 14  2  0
 14 15  1  0
 15 16  2  0
 16 17  1  0
 16 18  1  0
 18 19  2  0
 19 20  1  0
 19 21  1  0
 21 22  1  0
 21 23  2  0
 23 24  1  0
 14 25  1  0
 25 26  1  0
 25 27  1  0
 27 28  2  0
 10 29  1  0
 29 30  1  0
 29 31  2  0
 31 32  1  0
 31  5  1  0
 27 11  1  0
 23 15  1  0
M  END
>  <cnnaffinity>  (1) 
-5.42308

>  <filename>  (1) 
O=C(O)c1ccc(-n2cc(-c3cccnc3)[nH]c2=S)cc1

$$$$
