
     RDKit          3D

 35 37  0  0  0  0  0  0  0  0999 V2000
    5.0855    1.7660   17.0448 H   0  0  0  0  0  0  0  0  0  0  0  0
    5.4691    1.2101   17.9002 C   0  0  0  0  0  0  0  0  0  0  0  0
    6.6118    0.5397   17.6958 N   0  0  0  0  0  0  0  0  0  0  0  0
    7.1217   -0.1240   18.7401 C   0  0  0  0  0  0  0  0  0  0  0  0
    8.0656   -0.6412   18.5706 H   0  0  0  0  0  0  0  0  0  0  0  0
    6.5458   -0.1833   20.0267 C   0  0  0  0  0  0  0  0  0  0  0  0
    7.2950   -0.8541   21.1665 C   0  0  0  0  0  0  0  0  0  0  0  0
    7.0640   -2.3623   21.4486 C   0  0  0  0  0  0  0  0  0  0  0  0
    7.9369   -3.2036   21.2907 O   0  0  0  0  0  0  0  0  0  0  0  0
    5.8283   -2.7123   21.8981 N   0  0  0  0  0  0  0  0  0  0  0  0
    5.2033   -1.9754   22.1763 H   0  0  0  0  0  0  0  0  0  0  0  0
    5.5042   -4.0953   22.2398 C   0  0  0  0  0  0  0  0  0  0  0  0
    5.2312   -4.6488   21.3322 H   0  0  0  0  0  0  0  0  0  0  0  0
    6.3989   -4.5872   22.6403 H   0  0  0  0  0  0  0  0  0  0  0  0
    4.3862   -4.2026   23.2561 C   0  0  0  0  0  0  0  0  0  0  0  0
    3.1743   -4.8386   22.9252 C   0  0  0  0  0  0  0  0  0  0  0  0
    3.0669   -5.2921   21.9440 H   0  0  0  0  0  0  0  0  0  0  0  0
    2.1105   -4.9174   23.8313 C   0  0  0  0  0  0  0  0  0  0  0  0
    1.2061   -5.4505   23.5487 H   0  0  0  0  0  0  0  0  0  0  0  0
    2.2432   -4.3592   25.1047 C   0  0  0  0  0  0  0  0  0  0  0  0
    1.4088   -4.3904   25.8061 H   0  0  0  0  0  0  0  0  0  0  0  0
    3.4569   -3.7718   25.4809 C   0  0  0  0  0  0  0  0  0  0  0  0
    3.6054   -3.3623   26.4745 H   0  0  0  0  0  0  0  0  0  0  0  0
    4.5198   -3.7228   24.5713 C   0  0  0  0  0  0  0  0  0  0  0  0
    6.0504   -3.0812   25.1283 Cl  0  0  0  0  0  0  0  0  0  0  0  0
    7.6916    0.0466   22.3316 C   0  0  0  0  0  0  0  0  0  0  0  0
    7.3450    1.0777   22.2726 H   0  0  0  0  0  0  0  0  0  0  0  0
    7.7190   -0.3537   23.3412 H   0  0  0  0  0  0  0  0  0  0  0  0
    8.7295   -0.3802   21.3438 C   0  0  0  0  0  0  0  0  0  0  0  0
    9.1101    0.3547   20.6340 H   0  0  0  0  0  0  0  0  0  0  0  0
    9.4636   -1.1271   21.6356 H   0  0  0  0  0  0  0  0  0  0  0  0
    5.3333    0.5001   20.2011 C   0  0  0  0  0  0  0  0  0  0  0  0
    4.8448    0.5102   21.1771 H   0  0  0  0  0  0  0  0  0  0  0  0
    4.7938    1.2129   19.1237 C   0  0  0  0  0  0  0  0  0  0  0  0
    3.8860    1.7953   19.2192 H   0  0  0  0  0  0  0  0  0  0  0  0
  1  2  1  0
  2  3  2  0
  3  4  1  0
  4  5  1  0
  4  6  2  0
  6  7  1  0
  7  8  1  0
  8  9  2  0
  8 10  1  0
 10 11  1  0
 10 12  1  0
 12 13  1  0
 12 14  1  0
 12 15  1  0
 15 16  2  0
 16 17  1  0
 16 18  1  0
 18 19  1  0
 18 20  2  0
 20 21  1  0
 20 22  1  0
 22 23  1  0
 22 24  2  0
 24 25  1  0
  7 26  1  0
 26 27  1  0
 26 28  1  0
 26 29  1  0
 29 30  1  0
 29 31  1  0
  6 32  1  0
 32 33  1  0
 32 34  2  0
 34 35  1  0
 34  2  1  0
 29  7  1  0
 24 15  1  0
M  END
>  <cnnaffinity>  (1) 
-4.8333

>  <filename>  (1) 
O=C(NCc1ccccc1Cl)C1(c2cccnc2)CC1

$$$$
