
     RDKit          3D

 39 41  0  0  0  0  0  0  0  0999 V2000
    4.9775    1.7919   17.0116 H   0  0  0  0  0  0  0  0  0  0  0  0
    5.4357    1.2842   17.8540 C   0  0  0  0  0  0  0  0  0  0  0  0
    6.6065    0.6643   17.6102 N   0  0  0  0  0  0  0  0  0  0  0  0
    7.1927    0.0305   18.6329 C   0  0  0  0  0  0  0  0  0  0  0  0
    8.1460   -0.4646   18.4481 H   0  0  0  0  0  0  0  0  0  0  0  0
    6.6483   -0.0138   19.9276 C   0  0  0  0  0  0  0  0  0  0  0  0
    7.3440   -0.7438   20.8579 O   0  0  0  0  0  0  0  0  0  0  0  0
    7.4079   -0.3417   22.1688 C   0  0  0  0  0  0  0  0  0  0  0  0
    7.2004    0.9100   22.8022 C   0  0  0  0  0  0  0  0  0  0  0  0
    6.9195    1.8560   22.3561 H   0  0  0  0  0  0  0  0  0  0  0  0
    7.4070    0.8268   24.1101 N   0  0  0  0  0  0  0  0  0  0  0  0
    7.7300   -0.4630   24.3219 N   0  0  0  0  0  0  0  0  0  0  0  0
    8.1476   -0.8192   25.1713 H   0  0  0  0  0  0  0  0  0  0  0  0
    7.7640   -1.1912   23.1900 C   0  0  0  0  0  0  0  0  0  0  0  0
    8.0863   -2.5556   23.1951 N   0  0  0  0  0  0  0  0  0  0  0  0
    7.8843   -3.0932   22.3743 H   0  0  0  0  0  0  0  0  0  0  0  0
    8.7510   -3.1979   24.2094 C   0  0  0  0  0  0  0  0  0  0  0  0
    9.2389   -2.5790   25.1425 O   0  0  0  0  0  0  0  0  0  0  0  0
    8.7530   -4.7197   24.0681 C   0  0  0  0  0  0  0  0  0  0  0  0
    9.0119   -4.9065   23.0211 H   0  0  0  0  0  0  0  0  0  0  0  0
    7.3257   -5.2730   24.3264 C   0  0  0  0  0  0  0  0  0  0  0  0
    7.3149   -6.3101   23.9790 H   0  0  0  0  0  0  0  0  0  0  0  0
    6.5851   -4.7443   23.7139 H   0  0  0  0  0  0  0  0  0  0  0  0
    6.9444   -5.1919   25.8113 C   0  0  0  0  0  0  0  0  0  0  0  0
    6.8435   -4.1372   26.1073 H   0  0  0  0  0  0  0  0  0  0  0  0
    5.9581   -5.6444   25.9685 H   0  0  0  0  0  0  0  0  0  0  0  0
    7.9982   -5.8940   26.6817 C   0  0  0  0  0  0  0  0  0  0  0  0
    7.7192   -5.8701   27.7407 H   0  0  0  0  0  0  0  0  0  0  0  0
    8.0140   -6.9509   26.3918 H   0  0  0  0  0  0  0  0  0  0  0  0
    9.4055   -5.3215   26.4589 C   0  0  0  0  0  0  0  0  0  0  0  0
   10.1501   -5.8637   27.0499 H   0  0  0  0  0  0  0  0  0  0  0  0
    9.4481   -4.2726   26.7683 H   0  0  0  0  0  0  0  0  0  0  0  0
    9.7897   -5.4131   24.9769 C   0  0  0  0  0  0  0  0  0  0  0  0
    9.8345   -6.4744   24.6911 H   0  0  0  0  0  0  0  0  0  0  0  0
   10.7956   -5.0039   24.8230 H   0  0  0  0  0  0  0  0  0  0  0  0
    5.4246    0.6201   20.1716 C   0  0  0  0  0  0  0  0  0  0  0  0
    4.9926    0.6107   21.1725 H   0  0  0  0  0  0  0  0  0  0  0  0
    4.8100    1.2859   19.1050 C   0  0  0  0  0  0  0  0  0  0  0  0
    3.8695    1.8133   19.2438 H   0  0  0  0  0  0  0  0  0  0  0  0
  1  2  1  0
  2  3  2  0
  3  4  1  0
  4  5  1  0
  4  6  2  0
  6  7  1  0
  7  8  1  0
  8  9  1  0
  9 10  1  0
  9 11  2  0
 11 12  1  0
 12 13  1  0
 12 14  1  0
 14 15  1  0
 15 16  1  0
 15 17  1  0
 17 18  2  0
 17 19  1  0
 19 20  1  0
 19 21  1  0
 21 22  1  0
 21 23  1  0
 21 24  1  0
 24 25  1  0
 24 26  1  0
 24 27  1  0
 27 28  1  0
 27 29  1  0
 27 30  1  0
 30 31  1  0
 30 32  1  0
 30 33  1  0
 33 34  1  0
 33 35  1  0
  6 36  1  0
 36 37  1  0
 36 38  2  0
 38 39  1  0
 38  2  1  0
 14  8  2  0
 33 19  1  0
M  END
>  <cnnaffinity>  (1) 
-5.3336

>  <filename>  (1) 
O=C(Nc1[nH]ncc1Oc1cccnc1)C1CCCCC1

$$$$
