
     RDKit          3D

 35 37  0  0  0  0  0  0  0  0999 V2000
    6.0750   -7.0153   22.4784 H   0  0  0  0  0  0  0  0  0  0  0  0
    6.3817   -6.4843   23.2361 O   0  0  0  0  0  0  0  0  0  0  0  0
    7.0531   -5.5646   22.5297 C   0  0  0  0  0  0  0  0  0  0  0  0
    7.0418   -5.6790   21.3216 O   0  0  0  0  0  0  0  0  0  0  0  0
    7.7461   -4.4909   23.2938 C   0  0  0  0  0  0  0  0  0  0  0  0
    7.9708   -4.5589   24.6794 C   0  0  0  0  0  0  0  0  0  0  0  0
    7.6205   -5.4246   25.2369 H   0  0  0  0  0  0  0  0  0  0  0  0
    8.6445   -3.5161   25.3261 C   0  0  0  0  0  0  0  0  0  0  0  0
    8.8092   -3.5656   26.3979 H   0  0  0  0  0  0  0  0  0  0  0  0
    9.1039   -2.4069   24.6089 C   0  0  0  0  0  0  0  0  0  0  0  0
    9.6439   -1.6000   25.1034 H   0  0  0  0  0  0  0  0  0  0  0  0
    8.8720   -2.3258   23.2237 C   0  0  0  0  0  0  0  0  0  0  0  0
    9.3606   -1.1553   22.4393 C   0  0  0  0  0  0  0  0  0  0  0  0
   10.5059   -0.6153   22.6497 N   0  0  0  0  0  0  0  0  0  0  0  0
   10.6923    0.5055   21.7236 C   0  0  0  0  0  0  0  0  0  0  0  0
   10.7584    1.4254   22.3145 H   0  0  0  0  0  0  0  0  0  0  0  0
   11.6422    0.3847   21.1930 H   0  0  0  0  0  0  0  0  0  0  0  0
    9.4722    0.5321   20.7676 C   0  0  0  0  0  0  0  0  0  0  0  0
    9.7263    0.1926   19.7639 H   0  0  0  0  0  0  0  0  0  0  0  0
    8.9892    1.5108   20.6862 H   0  0  0  0  0  0  0  0  0  0  0  0
    8.5647   -0.5064   21.3700 C   0  0  0  0  0  0  0  0  0  0  0  0
    7.2761   -0.6905   21.0335 C   0  0  0  0  0  0  0  0  0  0  0  0
    6.6305   -1.2718   21.6952 H   0  0  0  0  0  0  0  0  0  0  0  0
    6.5847   -0.0423   19.9002 C   0  0  0  0  0  0  0  0  0  0  0  0
    7.1215    0.0185   18.5964 C   0  0  0  0  0  0  0  0  0  0  0  0
    8.0586   -0.4917   18.3786 H   0  0  0  0  0  0  0  0  0  0  0  0
    6.5544    0.6662   17.5688 N   0  0  0  0  0  0  0  0  0  0  0  0
    5.4034    1.3096   17.8147 C   0  0  0  0  0  0  0  0  0  0  0  0
    4.9698    1.8544   16.9773 H   0  0  0  0  0  0  0  0  0  0  0  0
    4.7654    1.2972   19.0619 C   0  0  0  0  0  0  0  0  0  0  0  0
    3.8423    1.8487   19.1955 H   0  0  0  0  0  0  0  0  0  0  0  0
    5.3508    0.5952   20.1141 C   0  0  0  0  0  0  0  0  0  0  0  0
    4.8990    0.5821   21.1075 H   0  0  0  0  0  0  0  0  0  0  0  0
    8.1974   -3.3698   22.5775 C   0  0  0  0  0  0  0  0  0  0  0  0
    8.0378   -3.3260   21.5001 H   0  0  0  0  0  0  0  0  0  0  0  0
  1  2  1  0
  2  3  1  0
  3  4  2  0
  3  5  1  0
  5  6  2  0
  6  7  1  0
  6  8  1  0
  8  9  1  0
  8 10  2  0
 10 11  1  0
 10 12  1  0
 12 13  1  0
 13 14  2  0
 14 15  1  0
 15 16  1  0
 15 17  1  0
 15 18  1  0
 18 19  1  0
 18 20  1  0
 18 21  1  0
 21 22  2  3
 22 23  1  0
 22 24  1  0
 24 25  2  0
 25 26  1  0
 25 27  1  0
 27 28  2  0
 28 29  1  0
 28 30  1  0
 30 31  1  0
 30 32  2  0
 32 33  1  0
 12 34  2  0
 34 35  1  0
 34  5  1  0
 21 13  1  0
 32 24  1  0
M  END
>  <cnnaffinity>  (1) 
-5.23432

>  <filename>  (1) 
O=C(O)c1cccc(C2=NCCC2=Cc2cccnc2)c1

$$$$
