
     RDKit          3D

 22 23  0  0  0  0  0  0  0  0999 V2000
    4.9305    1.7745   17.0116 H   0  0  0  0  0  0  0  0  0  0  0  0
    5.4138    1.2789   17.8574 C   0  0  0  0  0  0  0  0  0  0  0  0
    6.5779    0.6605   17.6067 N   0  0  0  0  0  0  0  0  0  0  0  0
    7.1931    0.0400   18.6258 C   0  0  0  0  0  0  0  0  0  0  0  0
    8.1371   -0.4319   18.3668 H   0  0  0  0  0  0  0  0  0  0  0  0
    6.7032   -0.0354   19.9681 C   0  0  0  0  0  0  0  0  0  0  0  0
    7.3729   -0.7067   20.9765 N   0  0  0  0  0  0  0  0  0  0  0  0
    7.0636   -0.8954   22.3878 C   0  0  0  0  0  0  0  0  0  0  0  0
    6.1443   -1.4680   22.5762 H   0  0  0  0  0  0  0  0  0  0  0  0
    7.0381    0.0374   22.9748 H   0  0  0  0  0  0  0  0  0  0  0  0
    8.3874   -1.7123   22.5074 C   0  0  0  0  0  0  0  0  0  0  0  0
    9.1310   -1.2912   23.1759 H   0  0  0  0  0  0  0  0  0  0  0  0
    8.1616   -3.1592   22.8003 C   0  0  0  0  0  0  0  0  0  0  0  0
    7.4234   -3.8987   22.2329 O   0  0  0  0  0  0  0  0  0  0  0  0
    8.9136   -3.6114   23.8178 F   0  0  0  0  0  0  0  0  0  0  0  0
    8.6411   -1.4233   20.9992 C   0  0  0  0  0  0  0  0  0  0  0  0
    8.6643   -2.3156   20.3693 H   0  0  0  0  0  0  0  0  0  0  0  0
    9.5256   -0.8079   20.7683 H   0  0  0  0  0  0  0  0  0  0  0  0
    5.4694    0.6248   20.1945 C   0  0  0  0  0  0  0  0  0  0  0  0
    5.0202    0.6222   21.1878 H   0  0  0  0  0  0  0  0  0  0  0  0
    4.8375    1.2846   19.1311 C   0  0  0  0  0  0  0  0  0  0  0  0
    3.9067    1.8169   19.2748 H   0  0  0  0  0  0  0  0  0  0  0  0
  1  2  1  0
  2  3  2  0
  3  4  1  0
  4  5  1  0
  4  6  2  0
  6  7  1  0
  7  8  1  0
  8  9  1  0
  8 10  1  0
  8 11  1  0
 11 12  1  0
 11 13  1  0
 13 14  2  0
 13 15  1  0
 11 16  1  0
 16 17  1  0
 16 18  1  0
  6 19  1  0
 19 20  1  0
 19 21  2  0
 21 22  1  0
 21  2  1  0
 16  7  1  0
M  END
>  <cnnaffinity>  (1) 
-4.27955

>  <filename>  (1) 
O=C(F)C1CN(c2cccnc2)C1

$$$$
