
     RDKit          3D

 32 34  0  0  0  0  0  0  0  0999 V2000
   10.2011   -6.3788   27.2735 H   0  0  0  0  0  0  0  0  0  0  0  0
    9.3790   -5.8785   27.1413 O   0  0  0  0  0  0  0  0  0  0  0  0
    9.6850   -5.1738   26.0450 C   0  0  0  0  0  0  0  0  0  0  0  0
   10.7995   -5.2525   25.5820 O   0  0  0  0  0  0  0  0  0  0  0  0
    8.5225   -4.3746   25.5508 C   0  0  0  0  0  0  0  0  0  0  0  0
    7.2679   -4.4242   26.2060 C   0  0  0  0  0  0  0  0  0  0  0  0
    7.1306   -5.0543   27.0847 H   0  0  0  0  0  0  0  0  0  0  0  0
    6.2063   -3.6606   25.7255 C   0  0  0  0  0  0  0  0  0  0  0  0
    5.2399   -3.6915   26.2229 H   0  0  0  0  0  0  0  0  0  0  0  0
    6.3809   -2.8513   24.6021 C   0  0  0  0  0  0  0  0  0  0  0  0
    5.5556   -2.2492   24.2401 H   0  0  0  0  0  0  0  0  0  0  0  0
    7.6163   -2.7900   23.9325 C   0  0  0  0  0  0  0  0  0  0  0  0
    7.7349   -1.9420   22.7430 C   0  0  0  0  0  0  0  0  0  0  0  0
    6.7707   -1.4462   21.9358 C   0  0  0  0  0  0  0  0  0  0  0  0
    5.7059   -1.6039   21.9569 H   0  0  0  0  0  0  0  0  0  0  0  0
    7.3595   -0.6737   20.9421 N   0  0  0  0  0  0  0  0  0  0  0  0
    6.6659    0.0052   19.9014 C   0  0  0  0  0  0  0  0  0  0  0  0
    7.1740    0.0537   18.5842 C   0  0  0  0  0  0  0  0  0  0  0  0
    8.1286   -0.4210   18.3665 H   0  0  0  0  0  0  0  0  0  0  0  0
    6.5531    0.6687   17.5719 N   0  0  0  0  0  0  0  0  0  0  0  0
    5.3944    1.2917   17.8376 C   0  0  0  0  0  0  0  0  0  0  0  0
    4.9195    1.7888   16.9962 H   0  0  0  0  0  0  0  0  0  0  0  0
    4.8105    1.3077   19.1080 C   0  0  0  0  0  0  0  0  0  0  0  0
    3.8801    1.8387   19.2615 H   0  0  0  0  0  0  0  0  0  0  0  0
    5.4472    0.6450   20.1605 C   0  0  0  0  0  0  0  0  0  0  0  0
    5.0291    0.6351   21.1675 H   0  0  0  0  0  0  0  0  0  0  0  0
    8.7512   -0.6788   21.1346 C   0  0  0  0  0  0  0  0  0  0  0  0
    9.6239   -0.1204   20.5032 O   0  0  0  0  0  0  0  0  0  0  0  0
    8.9401   -1.4789   22.2268 N   0  0  0  0  0  0  0  0  0  0  0  0
    9.8755   -1.5716   22.5715 H   0  0  0  0  0  0  0  0  0  0  0  0
    8.6834   -3.5647   24.4192 C   0  0  0  0  0  0  0  0  0  0  0  0
    9.6498   -3.5574   23.9174 H   0  0  0  0  0  0  0  0  0  0  0  0
  1  2  1  0
  2  3  1  0
  3  4  2  0
  3  5  1  0
  5  6  2  0
  6  7  1  0
  6  8  1  0
  8  9  1  0
  8 10  2  0
 10 11  1  0
 10 12  1  0
 12 13  1  0
 13 14  2  0
 14 15  1  0
 14 16  1  0
 16 17  1  0
 17 18  2  0
 18 19  1  0
 18 20  1  0
 20 21  2  0
 21 22  1  0
 21 23  1  0
 23 24  1  0
 23 25  2  0
 25 26  1  0
 16 27  1  0
 27 28  2  0
 27 29  1  0
 29 30  1  0
 12 31  2  0
 31 32  1  0
 31  5  1  0
 29 13  1  0
 25 17  1  0
M  END
>  <cnnaffinity>  (1) 
-5.15712

>  <filename>  (1) 
O=C(O)c1cccc(-c2cn(-c3cccnc3)c(=O)[nH]2)c1

$$$$
