
     RDKit          3D

 33 35  0  0  0  0  0  0  0  0999 V2000
    5.7362   -5.1475   28.7698 H   0  0  0  0  0  0  0  0  0  0  0  0
    5.2499   -5.1360   27.9267 O   0  0  0  0  0  0  0  0  0  0  0  0
    6.1380   -4.4018   27.2356 C   0  0  0  0  0  0  0  0  0  0  0  0
    7.1440   -4.0514   27.8086 O   0  0  0  0  0  0  0  0  0  0  0  0
    5.7649   -4.1188   25.8191 C   0  0  0  0  0  0  0  0  0  0  0  0
    4.5984   -4.6733   25.2599 C   0  0  0  0  0  0  0  0  0  0  0  0
    3.9487   -5.2959   25.8732 H   0  0  0  0  0  0  0  0  0  0  0  0
    4.2842   -4.4150   23.9277 C   0  0  0  0  0  0  0  0  0  0  0  0
    3.3778   -4.8350   23.5002 H   0  0  0  0  0  0  0  0  0  0  0  0
    5.1214   -3.6099   23.1483 C   0  0  0  0  0  0  0  0  0  0  0  0
    4.8741   -3.3871   22.1175 H   0  0  0  0  0  0  0  0  0  0  0  0
    6.2972   -3.0454   23.6803 C   0  0  0  0  0  0  0  0  0  0  0  0
    7.1899   -2.1984   22.8139 C   0  0  0  0  0  0  0  0  0  0  0  0
    6.5971   -1.5102   21.7705 N   0  0  0  0  0  0  0  0  0  0  0  0
    7.3217   -0.7384   20.9859 C   0  0  0  0  0  0  0  0  0  0  0  0
    6.6194   -0.0146   19.9091 C   0  0  0  0  0  0  0  0  0  0  0  0
    7.1466    0.0402   18.6078 C   0  0  0  0  0  0  0  0  0  0  0  0
    8.1117   -0.4184   18.3903 H   0  0  0  0  0  0  0  0  0  0  0  0
    6.5504    0.6628   17.5870 N   0  0  0  0  0  0  0  0  0  0  0  0
    5.3947    1.2933   17.8393 C   0  0  0  0  0  0  0  0  0  0  0  0
    4.9345    1.7922   16.9892 H   0  0  0  0  0  0  0  0  0  0  0  0
    4.7912    1.3184   19.1013 C   0  0  0  0  0  0  0  0  0  0  0  0
    3.8644    1.8625   19.2398 H   0  0  0  0  0  0  0  0  0  0  0  0
    5.4035    0.6426   20.1539 C   0  0  0  0  0  0  0  0  0  0  0  0
    4.9669    0.6357   21.1541 H   0  0  0  0  0  0  0  0  0  0  0  0
    8.8097   -0.5673   21.1786 C   0  0  0  0  0  0  0  0  0  0  0  0
    9.6100    0.1295   20.5720 O   0  0  0  0  0  0  0  0  0  0  0  0
    9.3082   -1.3344   22.2209 N   0  0  0  0  0  0  0  0  0  0  0  0
   10.3041   -1.1654   22.2997 H   0  0  0  0  0  0  0  0  0  0  0  0
    8.5421   -2.1285   23.0346 C   0  0  0  0  0  0  0  0  0  0  0  0
    9.0503   -2.6918   23.8093 H   0  0  0  0  0  0  0  0  0  0  0  0
    6.6037   -3.3065   25.0296 C   0  0  0  0  0  0  0  0  0  0  0  0
    7.4848   -2.8736   25.5039 H   0  0  0  0  0  0  0  0  0  0  0  0
  1  2  1  0
  2  3  1  0
  3  4  2  0
  3  5  1  0
  5  6  2  0
  6  7  1  0
  6  8  1  0
  8  9  1  0
  8 10  2  0
 10 11  1  0
 10 12  1  0
 12 13  1  0
 13 14  1  0
 14 15  2  0
 15 16  1  0
 16 17  2  0
 17 18  1  0
 17 19  1  0
 19 20  2  0
 20 21  1  0
 20 22  1  0
 22 23  1  0
 22 24  2  0
 24 25  1  0
 15 26  1  0
 26 27  2  0
 26 28  1  0
 28 29  1  0
 28 30  1  0
 30 31  1  0
 12 32  2  0
 32 33  1  0
 32  5  1  0
 30 13  2  0
 24 16  1  0
M  END
>  <cnnaffinity>  (1) 
-5.31519

>  <filename>  (1) 
O=C(O)c1cccc(-c2c[nH]c(=O)c(-c3cccnc3)n2)c1

$$$$
