
     RDKit          3D

 31 33  0  0  0  0  0  0  0  0999 V2000
    4.9496    1.8119   16.8787 H   0  0  0  0  0  0  0  0  0  0  0  0
    5.4068    1.3229   17.7365 C   0  0  0  0  0  0  0  0  0  0  0  0
    6.5553    0.6674   17.5064 N   0  0  0  0  0  0  0  0  0  0  0  0
    7.1439    0.0509   18.5396 C   0  0  0  0  0  0  0  0  0  0  0  0
    8.0773   -0.4677   18.3357 H   0  0  0  0  0  0  0  0  0  0  0  0
    6.6126    0.0502   19.8434 C   0  0  0  0  0  0  0  0  0  0  0  0
    7.2580   -0.6125   20.9360 N   0  0  0  0  0  0  0  0  0  0  0  0
    6.6312   -1.5369   21.7483 C   0  0  0  0  0  0  0  0  0  0  0  0
    5.6020   -1.8240   21.5686 H   0  0  0  0  0  0  0  0  0  0  0  0
    7.5030   -1.9268   22.7120 C   0  0  0  0  0  0  0  0  0  0  0  0
    7.2171   -2.8774   23.8272 C   0  0  0  0  0  0  0  0  0  0  0  0
    6.0545   -3.1654   24.0656 O   0  0  0  0  0  0  0  0  0  0  0  0
    8.3553   -3.4600   24.6302 C   0  0  0  0  0  0  0  0  0  0  0  0
    8.1228   -3.8020   25.9782 C   0  0  0  0  0  0  0  0  0  0  0  0
    7.1759   -3.5302   26.4359 H   0  0  0  0  0  0  0  0  0  0  0  0
    9.0883   -4.4949   26.7134 C   0  0  0  0  0  0  0  0  0  0  0  0
    8.8772   -4.7971   27.7361 H   0  0  0  0  0  0  0  0  0  0  0  0
   10.3117   -4.8256   26.1210 C   0  0  0  0  0  0  0  0  0  0  0  0
   11.0723   -5.3468   26.6945 H   0  0  0  0  0  0  0  0  0  0  0  0
   10.5584   -4.4634   24.7926 C   0  0  0  0  0  0  0  0  0  0  0  0
   11.4980   -4.7372   24.3286 H   0  0  0  0  0  0  0  0  0  0  0  0
    9.6016   -3.7643   24.0528 C   0  0  0  0  0  0  0  0  0  0  0  0
    9.8316   -3.4509   23.0330 H   0  0  0  0  0  0  0  0  0  0  0  0
    8.6816   -1.2136   22.4430 N   0  0  0  0  0  0  0  0  0  0  0  0
    9.5428   -1.1289   22.9587 H   0  0  0  0  0  0  0  0  0  0  0  0
    8.5415   -0.3731   21.3855 C   0  0  0  0  0  0  0  0  0  0  0  0
    9.6974    0.6757   20.8291 S   0  0  0  0  0  0  0  0  0  0  0  0
    5.4143    0.7303   20.0675 C   0  0  0  0  0  0  0  0  0  0  0  0
    4.9864    0.7408   21.0694 H   0  0  0  0  0  0  0  0  0  0  0  0
    4.8008    1.3844   18.9958 C   0  0  0  0  0  0  0  0  0  0  0  0
    3.8725    1.9295   19.1284 H   0  0  0  0  0  0  0  0  0  0  0  0
  1  2  1  0
  2  3  2  0
  3  4  1  0
  4  5  1  0
  4  6  2  0
  6  7  1  0
  7  8  1  0
  8  9  1  0
  8 10  2  0
 10 11  1  0
 11 12  2  0
 11 13  1  0
 13 14  2  0
 14 15  1  0
 14 16  1  0
 16 17  1  0
 16 18  2  0
 18 19  1  0
 18 20  1  0
 20 21  1  0
 20 22  2  0
 22 23  1  0
 10 24  1  0
 24 25  1  0
 24 26  1  0
 26 27  2  0
  6 28  1  0
 28 29  1  0
 28 30  2  0
 30 31  1  0
 30  2  1  0
 26  7  1  0
 22 13  1  0
M  END
>  <cnnaffinity>  (1) 
-5.47102

>  <filename>  (1) 
O=C(c1ccccc1)c1cn(-c2cccnc2)c(=S)[nH]1

$$$$
