
     RDKit          3D

 32 34  0  0  0  0  0  0  0  0999 V2000
    4.9122    1.7881   16.9880 H   0  0  0  0  0  0  0  0  0  0  0  0
    5.3956    1.2990   17.8299 C   0  0  0  0  0  0  0  0  0  0  0  0
    6.5590    0.6841   17.5660 N   0  0  0  0  0  0  0  0  0  0  0  0
    7.1815    0.0788   18.5808 C   0  0  0  0  0  0  0  0  0  0  0  0
    8.1210   -0.4271   18.3610 H   0  0  0  0  0  0  0  0  0  0  0  0
    6.6613    0.0305   19.8856 C   0  0  0  0  0  0  0  0  0  0  0  0
    7.3608   -0.6631   20.9350 N   0  0  0  0  0  0  0  0  0  0  0  0
    8.6397   -0.2696   21.2633 C   0  0  0  0  0  0  0  0  0  0  0  0
    9.0279    0.5698   20.6806 H   0  0  0  0  0  0  0  0  0  0  0  0
    9.3371   -0.8779   22.2526 C   0  0  0  0  0  0  0  0  0  0  0  0
   10.7124   -0.5273   22.6126 C   0  0  0  0  0  0  0  0  0  0  0  0
   11.5328   -1.3851   22.8347 O   0  0  0  0  0  0  0  0  0  0  0  0
   11.1000    0.9546   22.6182 C   0  0  0  0  0  0  0  0  0  0  0  0
   10.1929    1.9930   22.9073 C   0  0  0  0  0  0  0  0  0  0  0  0
    9.1545    1.7911   23.1452 H   0  0  0  0  0  0  0  0  0  0  0  0
   10.6397    3.3185   22.9039 C   0  0  0  0  0  0  0  0  0  0  0  0
    9.9440    4.1228   23.1178 H   0  0  0  0  0  0  0  0  0  0  0  0
   11.9029    3.6803   22.6563 N   0  0  0  0  0  0  0  0  0  0  0  0
   12.7688    2.6951   22.3884 C   0  0  0  0  0  0  0  0  0  0  0  0
   13.7911    3.0076   22.2062 H   0  0  0  0  0  0  0  0  0  0  0  0
   12.4282    1.3411   22.3575 C   0  0  0  0  0  0  0  0  0  0  0  0
   13.1917    0.6023   22.1476 H   0  0  0  0  0  0  0  0  0  0  0  0
    8.7594   -1.9906   22.9948 C   0  0  0  0  0  0  0  0  0  0  0  0
    9.2300   -2.6167   23.9131 O   0  0  0  0  0  0  0  0  0  0  0  0
    7.4956   -2.3125   22.5742 N   0  0  0  0  0  0  0  0  0  0  0  0
    7.0476   -3.0622   23.0549 H   0  0  0  0  0  0  0  0  0  0  0  0
    6.7412   -1.7417   21.6070 C   0  0  0  0  0  0  0  0  0  0  0  0
    5.6433   -2.1855   21.3634 O   0  0  0  0  0  0  0  0  0  0  0  0
    5.4429    0.6564   20.1551 C   0  0  0  0  0  0  0  0  0  0  0  0
    5.0194    0.6118   21.1602 H   0  0  0  0  0  0  0  0  0  0  0  0
    4.8087    1.3167   19.1003 C   0  0  0  0  0  0  0  0  0  0  0  0
    3.8755    1.8423   19.2554 H   0  0  0  0  0  0  0  0  0  0  0  0
  1  2  1  0
  2  3  2  0
  3  4  1  0
  4  5  1  0
  4  6  2  0
  6  7  1  0
  7  8  1  0
  8  9  1  0
  8 10  2  0
 10 11  1  0
 11 12  2  0
 11 13  1  0
 13 14  2  0
 14 15  1  0
 14 16  1  0
 16 17  1  0
 16 18  2  0
 18 19  1  0
 19 20  1  0
 19 21  2  0
 21 22  1  0
 10 23  1  0
 23 24  2  0
 23 25  1  0
 25 26  1  0
 25 27  1  0
 27 28  2  0
  6 29  1  0
 29 30  1  0
 29 31  2  0
 31 32  1  0
 31  2  1  0
 27  7  1  0
 21 13  1  0
M  END
>  <cnnaffinity>  (1) 
-5.00487

>  <filename>  (1) 
O=C(c1ccncc1)c1cn(-c2cccnc2)c(=O)[nH]c1=O

$$$$
