
     RDKit          3D

 33 35  0  0  0  0  0  0  0  0999 V2000
    4.8572    1.8496   16.8688 H   0  0  0  0  0  0  0  0  0  0  0  0
    5.3569    1.3322   17.6863 C   0  0  0  0  0  0  0  0  0  0  0  0
    6.5094    0.7117   17.3850 N   0  0  0  0  0  0  0  0  0  0  0  0
    7.1747    0.1035   18.3814 C   0  0  0  0  0  0  0  0  0  0  0  0
    8.1058   -0.3905   18.1143 H   0  0  0  0  0  0  0  0  0  0  0  0
    6.7240    0.0755   19.7220 C   0  0  0  0  0  0  0  0  0  0  0  0
    7.4063   -0.5583   20.7938 N   0  0  0  0  0  0  0  0  0  0  0  0
    6.8851   -0.5450   21.6602 H   0  0  0  0  0  0  0  0  0  0  0  0
    8.7713   -0.6121   21.0097 C   0  0  0  0  0  0  0  0  0  0  0  0
    9.5952    0.0074   20.3786 O   0  0  0  0  0  0  0  0  0  0  0  0
    9.1936   -1.5304   22.1980 C   0  0  0  0  0  0  0  0  0  0  0  0
   10.4497   -2.0019   22.0016 F   0  0  0  0  0  0  0  0  0  0  0  0
    8.3923   -2.6474   22.2930 F   0  0  0  0  0  0  0  0  0  0  0  0
    9.0845   -0.7504   23.5034 C   0  0  0  0  0  0  0  0  0  0  0  0
    8.1321    0.1561   23.5821 N   0  0  0  0  0  0  0  0  0  0  0  0
    7.8484    0.7021   24.8075 C   0  0  0  0  0  0  0  0  0  0  0  0
    6.8555    1.7177   24.8805 C   0  0  0  0  0  0  0  0  0  0  0  0
    6.4323    2.0650   23.9423 H   0  0  0  0  0  0  0  0  0  0  0  0
    6.4581    2.1976   26.1124 C   0  0  0  0  0  0  0  0  0  0  0  0
    5.6744    2.9461   26.1670 H   0  0  0  0  0  0  0  0  0  0  0  0
    7.0479    1.7121   27.3137 C   0  0  0  0  0  0  0  0  0  0  0  0
    6.6953    2.1016   28.2660 H   0  0  0  0  0  0  0  0  0  0  0  0
    8.0603    0.7805   27.2692 C   0  0  0  0  0  0  0  0  0  0  0  0
    8.5429    0.4316   28.1817 H   0  0  0  0  0  0  0  0  0  0  0  0
    8.5083    0.2832   26.0100 C   0  0  0  0  0  0  0  0  0  0  0  0
    9.5931   -0.6298   25.8687 C   0  0  0  0  0  0  0  0  0  0  0  0
   10.1312   -0.9487   26.7605 H   0  0  0  0  0  0  0  0  0  0  0  0
    9.9004   -1.1187   24.6214 C   0  0  0  0  0  0  0  0  0  0  0  0
   10.7293   -1.7939   24.4758 H   0  0  0  0  0  0  0  0  0  0  0  0
    5.4933    0.6824   20.0017 C   0  0  0  0  0  0  0  0  0  0  0  0
    5.0922    0.6635   21.0151 H   0  0  0  0  0  0  0  0  0  0  0  0
    4.8062    1.3325   18.9707 C   0  0  0  0  0  0  0  0  0  0  0  0
    3.8699    1.8479   19.1571 H   0  0  0  0  0  0  0  0  0  0  0  0
  1  2  1  0
  2  3  2  0
  3  4  1  0
  4  5  1  0
  4  6  2  0
  6  7  1  0
  7  8  1  0
  7  9  1  0
  9 10  2  0
  9 11  1  0
 11 12  1  0
 11 13  1  0
 11 14  1  0
 14 15  2  0
 15 16  1  0
 16 17  2  0
 17 18  1  0
 17 19  1  0
 19 20  1  0
 19 21  2  0
 21 22  1  0
 21 23  1  0
 23 24  1  0
 23 25  2  0
 25 26  1  0
 26 27  1  0
 26 28  2  0
 28 29  1  0
  6 30  1  0
 30 31  1  0
 30 32  2  0
 32 33  1  0
 32  2  1  0
 28 14  1  0
 25 16  1  0
M  END
>  <cnnaffinity>  (1) 
-5.06655

>  <filename>  (1) 
O=C(Nc1cccnc1)C(F)(F)c1ccc2ccccc2n1

$$$$
