
     RDKit          3D

 37 38  0  0  0  0  0  0  0  0999 V2000
    3.8305    6.1178   22.4947 H   0  0  0  0  0  0  0  0  0  0  0  0
    4.0845    5.3432   21.9672 O   0  0  0  0  0  0  0  0  0  0  0  0
    5.4421    5.1160   22.2134 N   0  0  0  0  0  0  0  0  0  0  0  0
    5.9233    4.9936   21.3315 H   0  0  0  0  0  0  0  0  0  0  0  0
    5.8416    4.1885   23.1740 C   0  0  0  0  0  0  0  0  0  0  0  0
    5.1480    3.8008   24.0881 O   0  0  0  0  0  0  0  0  0  0  0  0
    7.3013    3.8047   23.0064 C   0  0  0  0  0  0  0  0  0  0  0  0
    7.8642    4.6696   22.6330 H   0  0  0  0  0  0  0  0  0  0  0  0
    7.6451    3.6045   24.0234 H   0  0  0  0  0  0  0  0  0  0  0  0
    7.5499    2.5769   22.1179 C   0  0  0  0  0  0  0  0  0  0  0  0
    6.9458    1.7307   22.4725 H   0  0  0  0  0  0  0  0  0  0  0  0
    7.2117    2.7682   21.0898 H   0  0  0  0  0  0  0  0  0  0  0  0
    9.0234    2.1596   22.0854 C   0  0  0  0  0  0  0  0  0  0  0  0
    9.3520    1.8682   23.0930 H   0  0  0  0  0  0  0  0  0  0  0  0
    9.6524    3.0146   21.8024 H   0  0  0  0  0  0  0  0  0  0  0  0
    9.2876    1.0008   21.1074 C   0  0  0  0  0  0  0  0  0  0  0  0
   10.3661    0.8361   21.0031 H   0  0  0  0  0  0  0  0  0  0  0  0
    8.9260    1.2828   20.1182 H   0  0  0  0  0  0  0  0  0  0  0  0
    8.6203   -0.3001   21.5102 C   0  0  0  0  0  0  0  0  0  0  0  0
    9.1986   -1.0769   22.5264 C   0  0  0  0  0  0  0  0  0  0  0  0
   10.1404   -0.7758   22.9769 H   0  0  0  0  0  0  0  0  0  0  0  0
    8.5477   -2.2296   22.9675 C   0  0  0  0  0  0  0  0  0  0  0  0
    8.9847   -2.8449   23.7505 H   0  0  0  0  0  0  0  0  0  0  0  0
    7.3733   -2.6486   22.4799 N   0  0  0  0  0  0  0  0  0  0  0  0
    6.8071   -1.8948   21.5294 C   0  0  0  0  0  0  0  0  0  0  0  0
    5.8464   -2.2425   21.1448 H   0  0  0  0  0  0  0  0  0  0  0  0
    7.3777   -0.7282   20.9824 C   0  0  0  0  0  0  0  0  0  0  0  0
    6.6625    0.0129   19.8821 C   0  0  0  0  0  0  0  0  0  0  0  0
    7.1594    0.0690   18.5589 C   0  0  0  0  0  0  0  0  0  0  0  0
    8.1077   -0.4139   18.3225 H   0  0  0  0  0  0  0  0  0  0  0  0
    6.5429    0.6857   17.5388 N   0  0  0  0  0  0  0  0  0  0  0  0
    5.3853    1.3072   17.8127 C   0  0  0  0  0  0  0  0  0  0  0  0
    4.9113    1.8198   16.9808 H   0  0  0  0  0  0  0  0  0  0  0  0
    4.7891    1.3150   19.0794 C   0  0  0  0  0  0  0  0  0  0  0  0
    3.8522    1.8468   19.2325 H   0  0  0  0  0  0  0  0  0  0  0  0
    5.4343    0.6465   20.1262 C   0  0  0  0  0  0  0  0  0  0  0  0
    5.0130    0.6393   21.1354 H   0  0  0  0  0  0  0  0  0  0  0  0
  1  2  1  0
  2  3  1  0
  3  4  1  0
  3  5  1  0
  5  6  2  0
  5  7  1  0
  7  8  1  0
  7  9  1  0
  7 10  1  0
 10 11  1  0
 10 12  1  0
 10 13  1  0
 13 14  1  0
 13 15  1  0
 13 16  1  0
 16 17  1  0
 16 18  1  0
 16 19  1  0
 19 20  2  0
 20 21  1  0
 20 22  1  0
 22 23  1  0
 22 24  2  0
 24 25  1  0
 25 26  1  0
 25 27  2  0
 27 28  1  0
 28 29  2  0
 29 30  1  0
 29 31  1  0
 31 32  2  0
 32 33  1  0
 32 34  1  0
 34 35  1  0
 34 36  2  0
 36 37  1  0
 27 19  1  0
 36 28  1  0
M  END
>  <cnnaffinity>  (1) 
-5.3731

>  <filename>  (1) 
O=C(CCCCc1ccncc1-c1cccnc1)NO

$$$$
