
     RDKit          3D

 37 39  0  0  0  0  0  0  0  0999 V2000
    7.7607   -7.0522   22.3597 H   0  0  0  0  0  0  0  0  0  0  0  0
    8.1632   -6.2416   22.7292 O   0  0  0  0  0  0  0  0  0  0  0  0
    7.1709   -5.2707   22.7821 N   0  0  0  0  0  0  0  0  0  0  0  0
    7.4282   -4.4065   22.3183 H   0  0  0  0  0  0  0  0  0  0  0  0
    6.2098   -5.1847   23.7663 C   0  0  0  0  0  0  0  0  0  0  0  0
    5.9277   -6.0677   24.5530 O   0  0  0  0  0  0  0  0  0  0  0  0
    5.3869   -3.9042   23.6942 C   0  0  0  0  0  0  0  0  0  0  0  0
    5.7848   -3.1531   22.9997 H   0  0  0  0  0  0  0  0  0  0  0  0
    4.4228   -4.2344   23.2835 H   0  0  0  0  0  0  0  0  0  0  0  0
    5.1139   -3.3187   25.0927 C   0  0  0  0  0  0  0  0  0  0  0  0
    4.4034   -2.4816   25.0082 H   0  0  0  0  0  0  0  0  0  0  0  0
    4.6119   -4.0986   25.6803 H   0  0  0  0  0  0  0  0  0  0  0  0
    6.3629   -2.8595   25.8520 C   0  0  0  0  0  0  0  0  0  0  0  0
    7.0762   -3.6981   25.9080 H   0  0  0  0  0  0  0  0  0  0  0  0
    6.0803   -2.6477   26.8911 H   0  0  0  0  0  0  0  0  0  0  0  0
    7.0499   -1.6164   25.2412 C   0  0  0  0  0  0  0  0  0  0  0  0
    7.6073   -1.1047   26.0359 H   0  0  0  0  0  0  0  0  0  0  0  0
    6.3045   -0.8981   24.8777 H   0  0  0  0  0  0  0  0  0  0  0  0
    8.0130   -1.9449   24.1350 C   0  0  0  0  0  0  0  0  0  0  0  0
    9.1460   -2.6772   24.2311 C   0  0  0  0  0  0  0  0  0  0  0  0
    9.5407   -3.1407   25.1269 H   0  0  0  0  0  0  0  0  0  0  0  0
   10.0336   -2.7847   22.7176 S   0  0  0  0  0  0  0  0  0  0  0  0
    8.8198   -1.8194   21.9348 C   0  0  0  0  0  0  0  0  0  0  0  0
    8.5498   -1.3510   20.7365 N   0  0  0  0  0  0  0  0  0  0  0  0
    7.3604   -0.7125   20.9624 C   0  0  0  0  0  0  0  0  0  0  0  0
    6.6303    0.0070   19.9233 C   0  0  0  0  0  0  0  0  0  0  0  0
    7.1677    0.0448   18.6303 C   0  0  0  0  0  0  0  0  0  0  0  0
    8.1189   -0.4355   18.4081 H   0  0  0  0  0  0  0  0  0  0  0  0
    6.5726    0.6579   17.6026 N   0  0  0  0  0  0  0  0  0  0  0  0
    5.4102    1.2830   17.8423 C   0  0  0  0  0  0  0  0  0  0  0  0
    4.9588    1.7825   16.9865 H   0  0  0  0  0  0  0  0  0  0  0  0
    4.7971    1.3126   19.1015 C   0  0  0  0  0  0  0  0  0  0  0  0
    3.8639    1.8514   19.2265 H   0  0  0  0  0  0  0  0  0  0  0  0
    5.4121    0.6634   20.1689 C   0  0  0  0  0  0  0  0  0  0  0  0
    4.9716    0.6629   21.1692 H   0  0  0  0  0  0  0  0  0  0  0  0
    6.8917   -0.7802   22.2034 N   0  0  0  0  0  0  0  0  0  0  0  0
    7.8644   -1.4884   22.8236 N   0  0  0  0  0  0  0  0  0  0  0  0
  1  2  1  0
  2  3  1  0
  3  4  1  0
  3  5  1  0
  5  6  2  0
  5  7  1  0
  7  8  1  0
  7  9  1  0
  7 10  1  0
 10 11  1  0
 10 12  1  0
 10 13  1  0
 13 14  1  0
 13 15  1  0
 13 16  1  0
 16 17  1  0
 16 18  1  0
 16 19  1  0
 19 20  2  0
 20 21  1  0
 20 22  1  0
 22 23  1  0
 23 24  2  0
 24 25  1  0
 25 26  1  0
 26 27  2  0
 27 28  1  0
 27 29  1  0
 29 30  2  0
 30 31  1  0
 30 32  1  0
 32 33  1  0
 32 34  2  0
 34 35  1  0
 25 36  2  0
 36 37  1  0
 37 19  1  0
 37 23  1  0
 34 26  1  0
M  END
>  <cnnaffinity>  (1) 
-5.56349

>  <filename>  (1) 
O=C(CCCCc1csc2nc(-c3cccnc3)nn12)NO

$$$$
