
     RDKit          3D

 31 33  0  0  0  0  0  0  0  0999 V2000
    4.9617    1.7962   17.0224 H   0  0  0  0  0  0  0  0  0  0  0  0
    5.4077    1.2752   17.8662 C   0  0  0  0  0  0  0  0  0  0  0  0
    6.5554    0.6302   17.6075 N   0  0  0  0  0  0  0  0  0  0  0  0
    7.1491   -0.0101   18.6195 C   0  0  0  0  0  0  0  0  0  0  0  0
    8.1188   -0.4511   18.4042 H   0  0  0  0  0  0  0  0  0  0  0  0
    6.6098   -0.0855   19.9192 C   0  0  0  0  0  0  0  0  0  0  0  0
    7.3065   -0.7721   20.9710 N   0  0  0  0  0  0  0  0  0  0  0  0
    6.5660   -1.6894   21.7072 N   0  0  0  0  0  0  0  0  0  0  0  0
    7.1853   -2.3130   22.6712 C   0  0  0  0  0  0  0  0  0  0  0  0
    6.4396   -3.2830   23.3315 N   0  0  0  0  0  0  0  0  0  0  0  0
    5.5565   -3.4586   22.8875 H   0  0  0  0  0  0  0  0  0  0  0  0
    6.5769   -3.6078   24.6557 C   0  0  0  0  0  0  0  0  0  0  0  0
    7.2538   -2.9644   25.4381 O   0  0  0  0  0  0  0  0  0  0  0  0
    5.8729   -4.8433   25.0934 C   0  0  0  0  0  0  0  0  0  0  0  0
    5.9894   -5.2234   26.7803 S   0  0  0  0  0  0  0  0  0  0  0  0
    5.1594   -6.6968   26.5594 C   0  0  0  0  0  0  0  0  0  0  0  0
    4.9750   -7.3325   27.4175 H   0  0  0  0  0  0  0  0  0  0  0  0
    4.8113   -6.9059   25.2566 C   0  0  0  0  0  0  0  0  0  0  0  0
    4.2791   -7.7926   24.9279 H   0  0  0  0  0  0  0  0  0  0  0  0
    5.2278   -5.8427   24.4016 C   0  0  0  0  0  0  0  0  0  0  0  0
    5.0917   -5.8743   23.3216 H   0  0  0  0  0  0  0  0  0  0  0  0
    8.5659   -2.1192   23.0177 C   0  0  0  0  0  0  0  0  0  0  0  0
    8.9827   -2.7192   23.8234 H   0  0  0  0  0  0  0  0  0  0  0  0
    9.2853   -1.2189   22.3008 C   0  0  0  0  0  0  0  0  0  0  0  0
   10.3343   -0.9989   22.4601 H   0  0  0  0  0  0  0  0  0  0  0  0
    8.6821   -0.4377   21.2208 C   0  0  0  0  0  0  0  0  0  0  0  0
    9.2752    0.4122   20.5760 O   0  0  0  0  0  0  0  0  0  0  0  0
    5.4103    0.5903   20.1774 C   0  0  0  0  0  0  0  0  0  0  0  0
    4.9992    0.5772   21.1859 H   0  0  0  0  0  0  0  0  0  0  0  0
    4.8014    1.2919   19.1279 C   0  0  0  0  0  0  0  0  0  0  0  0
    3.8833    1.8573   19.2675 H   0  0  0  0  0  0  0  0  0  0  0  0
  1  2  1  0
  2  3  2  0
  3  4  1  0
  4  5  1  0
  4  6  2  0
  6  7  1  0
  7  8  1  0
  8  9  2  0
  9 10  1  0
 10 11  1  0
 10 12  1  0
 12 13  2  0
 12 14  1  0
 14 15  1  0
 15 16  1  0
 16 17  1  0
 16 18  2  0
 18 19  1  0
 18 20  1  0
 20 21  1  0
  9 22  1  0
 22 23  1  0
 22 24  2  0
 24 25  1  0
 24 26  1  0
 26 27  2  0
  6 28  1  0
 28 29  1  0
 28 30  2  0
 30 31  1  0
 30  2  1  0
 26  7  1  0
 20 14  2  0
M  END
>  <cnnaffinity>  (1) 
-5.19733

>  <filename>  (1) 
O=C(Nc1ccc(=O)n(-c2cccnc2)n1)c1cccs1

$$$$
