
     RDKit          3D

 37 39  0  0  0  0  0  0  0  0999 V2000
    5.0297    1.9014   16.9806 H   0  0  0  0  0  0  0  0  0  0  0  0
    5.4588    1.3332   17.8039 C   0  0  0  0  0  0  0  0  0  0  0  0
    6.6156    0.6995   17.5437 N   0  0  0  0  0  0  0  0  0  0  0  0
    7.1687   -0.0013   18.5392 C   0  0  0  0  0  0  0  0  0  0  0  0
    8.1365   -0.4578   18.3370 H   0  0  0  0  0  0  0  0  0  0  0  0
    6.5801   -0.1576   19.8114 C   0  0  0  0  0  0  0  0  0  0  0  0
    7.2531   -0.8902   20.8599 N   0  0  0  0  0  0  0  0  0  0  0  0
    8.5034   -0.4136   21.2283 C   0  0  0  0  0  0  0  0  0  0  0  0
    8.8736    0.4377   20.6679 H   0  0  0  0  0  0  0  0  0  0  0  0
    9.2372   -0.9442   22.2291 C   0  0  0  0  0  0  0  0  0  0  0  0
   10.4924   -0.3450   22.5706 N   0  0  0  0  0  0  0  0  0  0  0  0
   11.2473   -0.9160   22.9118 H   0  0  0  0  0  0  0  0  0  0  0  0
   10.8092    0.9893   22.3391 C   0  0  0  0  0  0  0  0  0  0  0  0
    9.9831    1.8241   22.0379 O   0  0  0  0  0  0  0  0  0  0  0  0
   12.1470    1.2559   22.4696 N   0  0  0  0  0  0  0  0  0  0  0  0
   12.7559    0.5374   22.8117 H   0  0  0  0  0  0  0  0  0  0  0  0
   12.6726    2.5566   22.2926 C   0  0  0  0  0  0  0  0  0  0  0  0
   13.5936    3.0529   23.2108 C   0  0  0  0  0  0  0  0  0  0  0  0
   13.8825    2.4093   24.0311 H   0  0  0  0  0  0  0  0  0  0  0  0
   14.0771    4.3607   23.0971 C   0  0  0  0  0  0  0  0  0  0  0  0
   14.7776    4.7792   23.8076 H   0  0  0  0  0  0  0  0  0  0  0  0
   13.6439    5.1596   22.0384 C   0  0  0  0  0  0  0  0  0  0  0  0
   14.2643    6.7791   21.8844 Cl  0  0  0  0  0  0  0  0  0  0  0  0
   12.7518    4.6528   21.0886 C   0  0  0  0  0  0  0  0  0  0  0  0
   12.4177    5.2558   20.2573 H   0  0  0  0  0  0  0  0  0  0  0  0
   12.2549    3.3559   21.2201 C   0  0  0  0  0  0  0  0  0  0  0  0
   11.5242    2.9536   20.5252 H   0  0  0  0  0  0  0  0  0  0  0  0
    8.6805   -2.1468   22.9318 C   0  0  0  0  0  0  0  0  0  0  0  0
    9.2361   -2.8601   23.7352 O   0  0  0  0  0  0  0  0  0  0  0  0
    7.3782   -2.4425   22.5932 N   0  0  0  0  0  0  0  0  0  0  0  0
    6.9730   -3.2247   23.0688 H   0  0  0  0  0  0  0  0  0  0  0  0
    6.6227   -1.9353   21.5812 C   0  0  0  0  0  0  0  0  0  0  0  0
    5.5315   -2.3957   21.3390 O   0  0  0  0  0  0  0  0  0  0  0  0
    5.3915    0.5255   20.0781 C   0  0  0  0  0  0  0  0  0  0  0  0
    4.9599    0.4753   21.0775 H   0  0  0  0  0  0  0  0  0  0  0  0
    4.8221    1.2887   19.0505 C   0  0  0  0  0  0  0  0  0  0  0  0
    3.9087    1.8555   19.2082 H   0  0  0  0  0  0  0  0  0  0  0  0
  1  2  1  0
  2  3  2  0
  3  4  1  0
  4  5  1  0
  4  6  2  0
  6  7  1  0
  7  8  1  0
  8  9  1  0
  8 10  2  0
 10 11  1  0
 11 12  1  0
 11 13  1  0
 13 14  2  0
 13 15  1  0
 15 16  1  0
 15 17  1  0
 17 18  2  0
 18 19  1  0
 18 20  1  0
 20 21  1  0
 20 22  2  0
 22 23  1  0
 22 24  1  0
 24 25  1  0
 24 26  2  0
 26 27  1  0
 10 28  1  0
 28 29  2  0
 28 30  1  0
 30 31  1  0
 30 32  1  0
 32 33  2  0
  6 34  1  0
 34 35  1  0
 34 36  2  0
 36 37  1  0
 36  2  1  0
 32  7  1  0
 26 17  1  0
M  END
>  <cnnaffinity>  (1) 
-5.76234

>  <filename>  (1) 
O=C(Nc1ccc(Cl)cc1)Nc1cn(-c2cccnc2)c(=O)[nH]c1=O

$$$$
