
     RDKit          3D

 33 35  0  0  0  0  0  0  0  0999 V2000
    9.1291   -2.9364   22.0621 H   0  0  0  0  0  0  0  0  0  0  0  0
    8.5462   -2.0269   21.9855 C   0  0  0  0  0  0  0  0  0  0  0  0
    8.2340   -1.2350   22.9520 N   0  0  0  0  0  0  0  0  0  0  0  0
    7.4534   -0.2862   22.3508 C   0  0  0  0  0  0  0  0  0  0  0  0
    6.9330    0.7740   23.0779 N   0  0  0  0  0  0  0  0  0  0  0  0
    7.0131    1.6737   22.6414 H   0  0  0  0  0  0  0  0  0  0  0  0
    7.0790    0.8318   24.4582 C   0  0  0  0  0  0  0  0  0  0  0  0
    7.3182   -0.0948   25.1836 O   0  0  0  0  0  0  0  0  0  0  0  0
    6.8855    2.1383   24.8671 N   0  0  0  0  0  0  0  0  0  0  0  0
    6.2833    2.6642   24.2622 H   0  0  0  0  0  0  0  0  0  0  0  0
    6.8739    2.5316   26.2186 C   0  0  0  0  0  0  0  0  0  0  0  0
    7.7827    1.9635   27.1231 C   0  0  0  0  0  0  0  0  0  0  0  0
    8.4748    1.2005   26.7813 H   0  0  0  0  0  0  0  0  0  0  0  0
    7.7450    2.3574   28.4584 C   0  0  0  0  0  0  0  0  0  0  0  0
    8.4436    1.9055   29.1577 H   0  0  0  0  0  0  0  0  0  0  0  0
    6.8248    3.3179   28.8923 C   0  0  0  0  0  0  0  0  0  0  0  0
    6.7886    3.5879   29.9409 H   0  0  0  0  0  0  0  0  0  0  0  0
    5.9456    3.9061   27.9773 C   0  0  0  0  0  0  0  0  0  0  0  0
    5.2622    4.6866   28.3007 H   0  0  0  0  0  0  0  0  0  0  0  0
    5.9666    3.5124   26.6364 C   0  0  0  0  0  0  0  0  0  0  0  0
    5.2761    3.9506   25.9216 H   0  0  0  0  0  0  0  0  0  0  0  0
    7.3192   -0.5628   21.0071 C   0  0  0  0  0  0  0  0  0  0  0  0
    6.6015    0.0543   19.9037 C   0  0  0  0  0  0  0  0  0  0  0  0
    7.1344    0.0330   18.6008 C   0  0  0  0  0  0  0  0  0  0  0  0
    8.0623   -0.5002   18.4030 H   0  0  0  0  0  0  0  0  0  0  0  0
    6.5727    0.6506   17.5595 N   0  0  0  0  0  0  0  0  0  0  0  0
    5.4203    1.3069   17.7755 C   0  0  0  0  0  0  0  0  0  0  0  0
    4.9751    1.7912   16.9079 H   0  0  0  0  0  0  0  0  0  0  0  0
    4.7832    1.3526   19.0182 C   0  0  0  0  0  0  0  0  0  0  0  0
    3.8372    1.8727   19.1095 H   0  0  0  0  0  0  0  0  0  0  0  0
    5.3828    0.7237   20.1075 C   0  0  0  0  0  0  0  0  0  0  0  0
    4.9162    0.7311   21.0933 H   0  0  0  0  0  0  0  0  0  0  0  0
    8.0648   -1.6950   20.7774 O   0  0  0  0  0  0  0  0  0  0  0  0
  1  2  1  0
  2  3  2  0
  3  4  1  0
  4  5  1  0
  5  6  1  0
  5  7  1  0
  7  8  2  0
  7  9  1  0
  9 10  1  0
  9 11  1  0
 11 12  2  0
 12 13  1  0
 12 14  1  0
 14 15  1  0
 14 16  2  0
 16 17  1  0
 16 18  1  0
 18 19  1  0
 18 20  2  0
 20 21  1  0
  4 22  2  0
 22 23  1  0
 23 24  2  0
 24 25  1  0
 24 26  1  0
 26 27  2  0
 27 28  1  0
 27 29  1  0
 29 30  1  0
 29 31  2  0
 31 32  1  0
 22 33  1  0
 33  2  1  0
 20 11  1  0
 31 23  1  0
M  END
>  <cnnaffinity>  (1) 
-4.78525

>  <filename>  (1) 
O=C(Nc1ccccc1)Nc1ncoc1-c1cccnc1

$$$$
