
     RDKit          3D

 39 40  0  0  0  0  0  0  0  0999 V2000
   14.9502    3.6936   21.9861 H   0  0  0  0  0  0  0  0  0  0  0  0
   14.4614    4.5382   21.8779 O   0  0  0  0  0  0  0  0  0  0  0  0
   13.1452    4.2855   22.2583 N   0  0  0  0  0  0  0  0  0  0  0  0
   12.4871    4.6807   21.6022 H   0  0  0  0  0  0  0  0  0  0  0  0
   12.7726    3.1924   22.9810 C   0  0  0  0  0  0  0  0  0  0  0  0
   13.5916    2.4087   23.4425 O   0  0  0  0  0  0  0  0  0  0  0  0
   11.2712    3.0693   23.1670 C   0  0  0  0  0  0  0  0  0  0  0  0
   11.1373    2.9610   24.2465 H   0  0  0  0  0  0  0  0  0  0  0  0
   10.7573    3.9948   22.8780 H   0  0  0  0  0  0  0  0  0  0  0  0
   10.6452    1.8528   22.4603 C   0  0  0  0  0  0  0  0  0  0  0  0
    9.5596    1.8833   22.6263 H   0  0  0  0  0  0  0  0  0  0  0  0
   10.7828    1.9210   21.3711 H   0  0  0  0  0  0  0  0  0  0  0  0
   11.2210    0.5216   22.9556 C   0  0  0  0  0  0  0  0  0  0  0  0
   12.3074    0.6152   23.0473 H   0  0  0  0  0  0  0  0  0  0  0  0
   10.8532    0.3386   23.9760 H   0  0  0  0  0  0  0  0  0  0  0  0
   10.8596   -0.6600   22.0397 C   0  0  0  0  0  0  0  0  0  0  0  0
   11.3579   -1.5714   22.3955 H   0  0  0  0  0  0  0  0  0  0  0  0
   11.2203   -0.4726   21.0203 H   0  0  0  0  0  0  0  0  0  0  0  0
    9.3763   -0.9037   21.9921 C   0  0  0  0  0  0  0  0  0  0  0  0
    8.7226   -0.5405   20.9468 N   0  0  0  0  0  0  0  0  0  0  0  0
    7.3410   -0.7472   20.9304 N   0  0  0  0  0  0  0  0  0  0  0  0
    6.6668   -0.0236   19.9061 C   0  0  0  0  0  0  0  0  0  0  0  0
    7.2355    0.0711   18.6218 C   0  0  0  0  0  0  0  0  0  0  0  0
    8.1986   -0.3905   18.4274 H   0  0  0  0  0  0  0  0  0  0  0  0
    6.6374    0.6915   17.5987 N   0  0  0  0  0  0  0  0  0  0  0  0
    5.4591    1.2912   17.8393 C   0  0  0  0  0  0  0  0  0  0  0  0
    4.9979    1.7905   16.9898 H   0  0  0  0  0  0  0  0  0  0  0  0
    4.8372    1.2903   19.0927 C   0  0  0  0  0  0  0  0  0  0  0  0
    3.9007    1.8209   19.2243 H   0  0  0  0  0  0  0  0  0  0  0  0
    5.4448    0.6088   20.1541 C   0  0  0  0  0  0  0  0  0  0  0  0
    4.9909    0.5677   21.1443 H   0  0  0  0  0  0  0  0  0  0  0  0
    6.6707   -1.7567   21.6600 C   0  0  0  0  0  0  0  0  0  0  0  0
    5.5605   -2.1635   21.3802 O   0  0  0  0  0  0  0  0  0  0  0  0
    7.4893   -2.3454   22.8001 C   0  0  0  0  0  0  0  0  0  0  0  0
    7.8220   -3.3274   22.4388 H   0  0  0  0  0  0  0  0  0  0  0  0
    6.8001   -2.5304   23.6262 H   0  0  0  0  0  0  0  0  0  0  0  0
    8.6769   -1.4655   23.2171 C   0  0  0  0  0  0  0  0  0  0  0  0
    9.3916   -2.0338   23.8252 H   0  0  0  0  0  0  0  0  0  0  0  0
    8.3411   -0.6166   23.8392 H   0  0  0  0  0  0  0  0  0  0  0  0
  1  2  1  0
  2  3  1  0
  3  4  1  0
  3  5  1  0
  5  6  2  0
  5  7  1  0
  7  8  1  0
  7  9  1  0
  7 10  1  0
 10 11  1  0
 10 12  1  0
 10 13  1  0
 13 14  1  0
 13 15  1  0
 13 16  1  0
 16 17  1  0
 16 18  1  0
 16 19  1  0
 19 20  2  0
 20 21  1  0
 21 22  1  0
 22 23  2  0
 23 24  1  0
 23 25  1  0
 25 26  2  0
 26 27  1  0
 26 28  1  0
 28 29  1  0
 28 30  2  0
 30 31  1  0
 21 32  1  0
 32 33  2  0
 32 34  1  0
 34 35  1  0
 34 36  1  0
 34 37  1  0
 37 38  1  0
 37 39  1  0
 37 19  1  0
 30 22  1  0
M  END
>  <cnnaffinity>  (1) 
-5.62268

>  <filename>  (1) 
O=C(CCCCC1=NN(c2cccnc2)C(=O)CC1)NO

$$$$
