
     RDKit          3D

 34 36  0  0  0  0  0  0  0  0999 V2000
    4.2941   -7.7360   26.7247 H   0  0  0  0  0  0  0  0  0  0  0  0
    4.8188   -6.9379   26.5502 O   0  0  0  0  0  0  0  0  0  0  0  0
    4.6496   -6.8828   25.2173 C   0  0  0  0  0  0  0  0  0  0  0  0
    3.9750   -7.7443   24.6960 O   0  0  0  0  0  0  0  0  0  0  0  0
    5.3394   -5.7397   24.5507 C   0  0  0  0  0  0  0  0  0  0  0  0
    5.2304   -5.5739   23.1547 C   0  0  0  0  0  0  0  0  0  0  0  0
    4.6392   -6.2795   22.5715 H   0  0  0  0  0  0  0  0  0  0  0  0
    5.8737   -4.5077   22.5254 C   0  0  0  0  0  0  0  0  0  0  0  0
    5.8007   -4.3971   21.4483 H   0  0  0  0  0  0  0  0  0  0  0  0
    6.6456   -3.5846   23.2553 C   0  0  0  0  0  0  0  0  0  0  0  0
    7.3354   -2.4529   22.5808 C   0  0  0  0  0  0  0  0  0  0  0  0
    8.6611   -2.0655   22.9633 C   0  0  0  0  0  0  0  0  0  0  0  0
    9.1645   -2.6327   23.7471 H   0  0  0  0  0  0  0  0  0  0  0  0
    9.2931   -1.0315   22.3510 C   0  0  0  0  0  0  0  0  0  0  0  0
   10.2899   -0.7002   22.6007 H   0  0  0  0  0  0  0  0  0  0  0  0
    8.6746   -0.2589   21.2882 C   0  0  0  0  0  0  0  0  0  0  0  0
    9.2260    0.6716   20.7207 O   0  0  0  0  0  0  0  0  0  0  0  0
    7.3474   -0.6850   20.9384 N   0  0  0  0  0  0  0  0  0  0  0  0
    6.6413   -0.0030   19.8849 C   0  0  0  0  0  0  0  0  0  0  0  0
    7.1594    0.0512   18.5781 C   0  0  0  0  0  0  0  0  0  0  0  0
    8.1177   -0.4200   18.3643 H   0  0  0  0  0  0  0  0  0  0  0  0
    6.5448    0.6727   17.5663 N   0  0  0  0  0  0  0  0  0  0  0  0
    5.3867    1.2996   17.8301 C   0  0  0  0  0  0  0  0  0  0  0  0
    4.9169    1.7992   16.9857 H   0  0  0  0  0  0  0  0  0  0  0  0
    4.7955    1.3170   19.0976 C   0  0  0  0  0  0  0  0  0  0  0  0
    3.8675    1.8536   19.2501 H   0  0  0  0  0  0  0  0  0  0  0  0
    5.4292    0.6412   20.1459 C   0  0  0  0  0  0  0  0  0  0  0  0
    5.0296    0.6255   21.1596 H   0  0  0  0  0  0  0  0  0  0  0  0
    6.7308   -1.7360   21.5825 C   0  0  0  0  0  0  0  0  0  0  0  0
    5.7206   -1.9499   21.2491 H   0  0  0  0  0  0  0  0  0  0  0  0
    6.7473   -3.7628   24.6477 C   0  0  0  0  0  0  0  0  0  0  0  0
    7.3266   -3.0483   25.2250 H   0  0  0  0  0  0  0  0  0  0  0  0
    6.1079   -4.8150   25.2929 C   0  0  0  0  0  0  0  0  0  0  0  0
    6.2113   -4.9260   26.3721 H   0  0  0  0  0  0  0  0  0  0  0  0
  1  2  1  0
  2  3  1  0
  3  4  2  0
  3  5  1  0
  5  6  2  0
  6  7  1  0
  6  8  1  0
  8  9  1  0
  8 10  2  0
 10 11  1  0
 11 12  1  0
 12 13  1  0
 12 14  2  0
 14 15  1  0
 14 16  1  0
 16 17  2  0
 16 18  1  0
 18 19  1  0
 19 20  2  0
 20 21  1  0
 20 22  1  0
 22 23  2  0
 23 24  1  0
 23 25  1  0
 25 26  1  0
 25 27  2  0
 27 28  1  0
 18 29  1  0
 29 30  1  0
 10 31  1  0
 31 32  1  0
 31 33  2  0
 33 34  1  0
 33  5  1  0
 29 11  2  0
 27 19  1  0
M  END
>  <cnnaffinity>  (1) 
-5.24352

>  <filename>  (1) 
O=C(O)c1ccc(-c2ccc(=O)n(-c3cccnc3)c2)cc1

$$$$
