
     RDKit          3D

 29 31  0  0  0  0  0  0  0  0999 V2000
    4.9238    1.8184   16.9694 H   0  0  0  0  0  0  0  0  0  0  0  0
    5.3923    1.3090   17.8077 C   0  0  0  0  0  0  0  0  0  0  0  0
    6.5536    0.6867   17.5437 N   0  0  0  0  0  0  0  0  0  0  0  0
    7.1565    0.0687   18.5667 C   0  0  0  0  0  0  0  0  0  0  0  0
    8.1022   -0.4259   18.3412 H   0  0  0  0  0  0  0  0  0  0  0  0
    6.6380    0.0008   19.8781 C   0  0  0  0  0  0  0  0  0  0  0  0
    7.3735   -0.7182   20.9576 C   0  0  0  0  0  0  0  0  0  0  0  0
    6.7454   -1.5610   21.8976 C   0  0  0  0  0  0  0  0  0  0  0  0
    5.6742   -1.7376   21.8361 H   0  0  0  0  0  0  0  0  0  0  0  0
    7.3924   -2.2306   22.8616 N   0  0  0  0  0  0  0  0  0  0  0  0
    8.7147   -2.0746   22.9494 C   0  0  0  0  0  0  0  0  0  0  0  0
    9.2240   -2.6194   23.7416 H   0  0  0  0  0  0  0  0  0  0  0  0
    9.4363   -1.2367   22.0955 C   0  0  0  0  0  0  0  0  0  0  0  0
   10.8941   -1.1202   22.3571 C   0  0  0  0  0  0  0  0  0  0  0  0
   11.5573   -2.1108   22.6065 O   0  0  0  0  0  0  0  0  0  0  0  0
   11.5010    0.2280   22.3330 C   0  0  0  0  0  0  0  0  0  0  0  0
   13.2164    0.3386   22.5140 S   0  0  0  0  0  0  0  0  0  0  0  0
   13.1512    2.0416   22.3679 C   0  0  0  0  0  0  0  0  0  0  0  0
   14.0706    2.6080   22.4092 H   0  0  0  0  0  0  0  0  0  0  0  0
   11.8856    2.5082   22.1608 C   0  0  0  0  0  0  0  0  0  0  0  0
   11.6377    3.5548   21.9893 H   0  0  0  0  0  0  0  0  0  0  0  0
   10.9265    1.4684   22.1606 C   0  0  0  0  0  0  0  0  0  0  0  0
    9.8599    1.6591   22.0442 H   0  0  0  0  0  0  0  0  0  0  0  0
    8.7577   -0.5683   21.0737 C   0  0  0  0  0  0  0  0  0  0  0  0
    9.2884    0.1057   20.3990 H   0  0  0  0  0  0  0  0  0  0  0  0
    5.4205    0.6522   20.1224 C   0  0  0  0  0  0  0  0  0  0  0  0
    5.0027    0.6554   21.1303 H   0  0  0  0  0  0  0  0  0  0  0  0
    4.7904    1.3210   19.0708 C   0  0  0  0  0  0  0  0  0  0  0  0
    3.8571    1.8539   19.2179 H   0  0  0  0  0  0  0  0  0  0  0  0
  1  2  1  0
  2  3  2  0
  3  4  1  0
  4  5  1  0
  4  6  2  0
  6  7  1  0
  7  8  2  0
  8  9  1  0
  8 10  1  0
 10 11  2  0
 11 12  1  0
 11 13  1  0
 13 14  1  0
 14 15  2  0
 14 16  1  0
 16 17  1  0
 17 18  1  0
 18 19  1  0
 18 20  2  0
 20 21  1  0
 20 22  1  0
 22 23  1  0
 13 24  2  0
 24 25  1  0
  6 26  1  0
 26 27  1  0
 26 28  2  0
 28 29  1  0
 28  2  1  0
 24  7  1  0
 22 16  2  0
M  END
>  <cnnaffinity>  (1) 
-5.41477

>  <filename>  (1) 
O=C(c1cncc(-c2cccnc2)c1)c1cccs1

$$$$
