
     RDKit          3D

 31 33  0  0  0  0  0  0  0  0999 V2000
    4.7717    2.0734   16.9173 H   0  0  0  0  0  0  0  0  0  0  0  0
    5.0538    1.3441   17.6716 C   0  0  0  0  0  0  0  0  0  0  0  0
    5.8460    0.3471   17.2448 N   0  0  0  0  0  0  0  0  0  0  0  0
    6.2510   -0.5476   18.1491 C   0  0  0  0  0  0  0  0  0  0  0  0
    6.8686   -1.3751   17.7997 H   0  0  0  0  0  0  0  0  0  0  0  0
    5.9458   -0.4587   19.5223 C   0  0  0  0  0  0  0  0  0  0  0  0
    6.6597   -1.2604   20.4658 N   0  0  0  0  0  0  0  0  0  0  0  0
    6.1988   -2.1741   21.3781 C   0  0  0  0  0  0  0  0  0  0  0  0
    5.1498   -2.3517   21.5585 H   0  0  0  0  0  0  0  0  0  0  0  0
    7.1881   -2.7590   21.9936 N   0  0  0  0  0  0  0  0  0  0  0  0
    8.3514   -2.1989   21.5231 N   0  0  0  0  0  0  0  0  0  0  0  0
    8.0294   -1.2800   20.6525 C   0  0  0  0  0  0  0  0  0  0  0  0
    8.9969   -0.3392   19.9589 C   0  0  0  0  0  0  0  0  0  0  0  0
    8.4384    0.4165   19.4046 H   0  0  0  0  0  0  0  0  0  0  0  0
    9.5611   -0.8911   19.2061 H   0  0  0  0  0  0  0  0  0  0  0  0
    9.9321    0.3581   20.8366 N   0  0  0  0  0  0  0  0  0  0  0  0
   10.7109   -0.1599   21.1996 H   0  0  0  0  0  0  0  0  0  0  0  0
    9.6203    1.5215   21.4765 C   0  0  0  0  0  0  0  0  0  0  0  0
    8.5976    2.1374   21.2277 O   0  0  0  0  0  0  0  0  0  0  0  0
   10.6221    2.0120   22.4562 C   0  0  0  0  0  0  0  0  0  0  0  0
   10.4005    3.6486   22.9635 S   0  0  0  0  0  0  0  0  0  0  0  0
   11.7752    3.5709   23.9698 C   0  0  0  0  0  0  0  0  0  0  0  0
   12.1029    4.4592   24.4906 H   0  0  0  0  0  0  0  0  0  0  0  0
   12.3711    2.3410   23.9343 C   0  0  0  0  0  0  0  0  0  0  0  0
   13.2484    2.0638   24.5020 H   0  0  0  0  0  0  0  0  0  0  0  0
   11.7213    1.4399   23.0491 C   0  0  0  0  0  0  0  0  0  0  0  0
   12.1025    0.4359   22.8661 H   0  0  0  0  0  0  0  0  0  0  0  0
    5.0448    0.5232   19.9434 C   0  0  0  0  0  0  0  0  0  0  0  0
    4.7366    0.5737   20.9874 H   0  0  0  0  0  0  0  0  0  0  0  0
    4.6014    1.4500   18.9918 C   0  0  0  0  0  0  0  0  0  0  0  0
    3.9287    2.2552   19.2663 H   0  0  0  0  0  0  0  0  0  0  0  0
  1  2  1  0
  2  3  2  0
  3  4  1  0
  4  5  1  0
  4  6  2  0
  6  7  1  0
  7  8  1  0
  8  9  1  0
  8 10  2  0
 10 11  1  0
 11 12  2  0
 12 13  1  0
 13 14  1  0
 13 15  1  0
 13 16  1  0
 16 17  1  0
 16 18  1  0
 18 19  2  0
 18 20  1  0
 20 21  1  0
 21 22  1  0
 22 23  1  0
 22 24  2  0
 24 25  1  0
 24 26  1  0
 26 27  1  0
  6 28  1  0
 28 29  1  0
 28 30  2  0
 30 31  1  0
 30  2  1  0
 12  7  1  0
 26 20  2  0
M  END
>  <cnnaffinity>  (1) 
-5.12804

>  <filename>  (1) 
O=C(NCc1nncn1-c1cccnc1)c1cccs1

$$$$
