
     RDKit          3D

 35 37  0  0  0  0  0  0  0  0999 V2000
   14.1229   -2.1305   22.3064 H   0  0  0  0  0  0  0  0  0  0  0  0
   13.8552   -1.1938   22.2370 O   0  0  0  0  0  0  0  0  0  0  0  0
   12.5262   -1.3935   22.2857 C   0  0  0  0  0  0  0  0  0  0  0  0
   12.1293   -2.5340   22.4059 O   0  0  0  0  0  0  0  0  0  0  0  0
   11.6385   -0.2026   22.1877 C   0  0  0  0  0  0  0  0  0  0  0  0
   12.0861    1.1132   21.9535 C   0  0  0  0  0  0  0  0  0  0  0  0
   13.1507    1.3361   21.8895 H   0  0  0  0  0  0  0  0  0  0  0  0
   11.1514    2.1353   21.7669 C   0  0  0  0  0  0  0  0  0  0  0  0
   11.4863    3.1553   21.5698 H   0  0  0  0  0  0  0  0  0  0  0  0
    9.7797    1.8553   21.8358 C   0  0  0  0  0  0  0  0  0  0  0  0
    9.0618    2.6495   21.6500 H   0  0  0  0  0  0  0  0  0  0  0  0
    9.3185    0.5551   22.0885 C   0  0  0  0  0  0  0  0  0  0  0  0
    7.8342    0.2246   22.0876 C   0  0  2  0  0  0  0  0  0  0  0  0
    7.2936    1.1760   22.0598 H   0  0  0  0  0  0  0  0  0  0  0  0
    7.3609   -0.4347   23.3746 C   0  0  0  0  0  0  0  0  0  0  0  0
    7.3990    0.0167   24.4939 O   0  0  0  0  0  0  0  0  0  0  0  0
    6.8372   -1.6555   23.0707 N   0  0  0  0  0  0  0  0  0  0  0  0
    6.2201   -1.9883   23.7983 H   0  0  0  0  0  0  0  0  0  0  0  0
    6.5777   -1.8594   21.6551 C   0  0  0  0  0  0  0  0  0  0  0  0
    5.5026   -1.7940   21.4311 H   0  0  0  0  0  0  0  0  0  0  0  0
    6.9130   -2.8528   21.3383 H   0  0  0  0  0  0  0  0  0  0  0  0
    7.3976   -0.7417   20.9501 C   0  0  1  0  0  0  0  0  0  0  0  0
    8.2979   -1.2122   20.5219 H   0  0  0  0  0  0  0  0  0  0  0  0
    6.6592   -0.0193   19.8407 C   0  0  0  0  0  0  0  0  0  0  0  0
    7.1712    0.0532   18.5331 C   0  0  0  0  0  0  0  0  0  0  0  0
    8.1156   -0.4388   18.2943 H   0  0  0  0  0  0  0  0  0  0  0  0
    6.5759    0.6935   17.5195 N   0  0  0  0  0  0  0  0  0  0  0  0
    5.4191    1.3203   17.7806 C   0  0  0  0  0  0  0  0  0  0  0  0
    4.9624    1.8465   16.9452 H   0  0  0  0  0  0  0  0  0  0  0  0
    4.8114    1.3177   19.0398 C   0  0  0  0  0  0  0  0  0  0  0  0
    3.8817    1.8563   19.1884 H   0  0  0  0  0  0  0  0  0  0  0  0
    5.4460    0.6435   20.0848 C   0  0  0  0  0  0  0  0  0  0  0  0
    5.0076    0.6443   21.0837 H   0  0  0  0  0  0  0  0  0  0  0  0
   10.2559   -0.4592   22.2779 C   0  0  0  0  0  0  0  0  0  0  0  0
    9.9290   -1.4808   22.4722 H   0  0  0  0  0  0  0  0  0  0  0  0
  1  2  1  0
  2  3  1  0
  3  4  2  0
  3  5  1  0
  5  6  2  0
  6  7  1  0
  6  8  1  0
  8  9  1  0
  8 10  2  0
 10 11  1  0
 10 12  1  0
 12 13  1  0
 13 14  1  6
 13 15  1  0
 15 16  2  0
 15 17  1  0
 17 18  1  0
 17 19  1  0
 19 20  1  0
 19 21  1  0
 19 22  1  0
 22 23  1  6
 22 24  1  0
 24 25  2  0
 25 26  1  0
 25 27  1  0
 27 28  2  0
 28 29  1  0
 28 30  1  0
 30 31  1  0
 30 32  2  0
 32 33  1  0
 12 34  2  0
 34 35  1  0
 34  5  1  0
 22 13  1  0
 32 24  1  0
M  END
>  <cnnaffinity>  (1) 
-5.45044

>  <filename>  (1) 
O=C(O)c1cccc([C@@H]2C(=O)NC[C@H]2c2cccnc2)c1

$$$$
