
     RDKit          3D

 31 32  0  0  0  0  0  0  0  0999 V2000
    4.9742    1.8304   16.9170 H   0  0  0  0  0  0  0  0  0  0  0  0
    5.4596    1.3387   17.7569 C   0  0  0  0  0  0  0  0  0  0  0  0
    6.6372    0.7443   17.4993 N   0  0  0  0  0  0  0  0  0  0  0  0
    7.2553    0.1182   18.5098 C   0  0  0  0  0  0  0  0  0  0  0  0
    8.2044   -0.3697   18.2817 H   0  0  0  0  0  0  0  0  0  0  0  0
    6.7213    0.0325   19.8099 C   0  0  0  0  0  0  0  0  0  0  0  0
    7.3691   -0.6961   20.8489 N   0  0  0  0  0  0  0  0  0  0  0  0
    8.3483   -0.5341   21.0375 H   0  0  0  0  0  0  0  0  0  0  0  0
    6.7286   -1.6194   21.6392 C   0  0  0  0  0  0  0  0  0  0  0  0
    5.6227   -2.0534   21.3985 O   0  0  0  0  0  0  0  0  0  0  0  0
    7.5704   -2.0481   22.9494 C   0  0  0  0  0  0  0  0  0  0  0  0
    8.8965   -2.0742   22.6247 F   0  0  0  0  0  0  0  0  0  0  0  0
    7.4181   -1.0623   23.8839 F   0  0  0  0  0  0  0  0  0  0  0  0
    7.2300   -3.2553   23.6364 N   0  0  0  0  0  0  0  0  0  0  0  0
    6.6692   -3.1240   24.4617 H   0  0  0  0  0  0  0  0  0  0  0  0
    7.2335   -4.4694   22.9990 C   0  0  0  0  0  0  0  0  0  0  0  0
    7.7133   -4.5994   21.8915 O   0  0  0  0  0  0  0  0  0  0  0  0
    6.4763   -5.5709   23.7540 C   0  0  0  0  0  0  0  0  0  0  0  0
    5.7549   -6.5428   23.0314 C   0  0  0  0  0  0  0  0  0  0  0  0
    5.8253   -6.5940   21.9515 H   0  0  0  0  0  0  0  0  0  0  0  0
    4.8998   -7.4189   23.7127 C   0  0  0  0  0  0  0  0  0  0  0  0
    4.2942   -8.1485   23.1842 H   0  0  0  0  0  0  0  0  0  0  0  0
    4.7612   -7.4305   25.0410 N   0  0  0  0  0  0  0  0  0  0  0  0
    5.4828   -6.5515   25.7452 C   0  0  0  0  0  0  0  0  0  0  0  0
    5.3427   -6.5612   26.8241 H   0  0  0  0  0  0  0  0  0  0  0  0
    6.3509   -5.6218   25.1591 C   0  0  0  0  0  0  0  0  0  0  0  0
    6.9058   -4.9627   25.8187 H   0  0  0  0  0  0  0  0  0  0  0  0
    5.5093    0.6773   20.0698 C   0  0  0  0  0  0  0  0  0  0  0  0
    5.1034    0.6511   21.0792 H   0  0  0  0  0  0  0  0  0  0  0  0
    4.8617    1.3373   19.0205 C   0  0  0  0  0  0  0  0  0  0  0  0
    3.9175    1.8471   19.1768 H   0  0  0  0  0  0  0  0  0  0  0  0
  1  2  1  0
  2  3  2  0
  3  4  1  0
  4  5  1  0
  4  6  2  0
  6  7  1  0
  7  8  1  0
  7  9  1  0
  9 10  2  0
  9 11  1  0
 11 12  1  0
 11 13  1  0
 11 14  1  0
 14 15  1  0
 14 16  1  0
 16 17  2  0
 16 18  1  0
 18 19  2  0
 19 20  1  0
 19 21  1  0
 21 22  1  0
 21 23  2  0
 23 24  1  0
 24 25  1  0
 24 26  2  0
 26 27  1  0
  6 28  1  0
 28 29  1  0
 28 30  2  0
 30 31  1  0
 30  2  1  0
 26 18  1  0
M  END
>  <cnnaffinity>  (1) 
-4.88482

>  <filename>  (1) 
O=C(NC(F)(F)C(=O)Nc1cccnc1)c1ccncc1

$$$$
