
     RDKit          3D

 35 37  0  0  0  0  0  0  0  0999 V2000
   15.0960    1.1879   22.9484 H   0  0  0  0  0  0  0  0  0  0  0  0
   14.1632    1.4515   22.9001 O   0  0  0  0  0  0  0  0  0  0  0  0
   13.5933    0.2424   22.7590 C   0  0  0  0  0  0  0  0  0  0  0  0
   14.3042   -0.7387   22.7883 O   0  0  0  0  0  0  0  0  0  0  0  0
   12.1144    0.2770   22.5794 C   0  0  0  0  0  0  0  0  0  0  0  0
   11.4308    1.4703   22.2641 C   0  0  0  0  0  0  0  0  0  0  0  0
   11.9903    2.3928   22.1243 H   0  0  0  0  0  0  0  0  0  0  0  0
   10.0455    1.4597   22.1121 C   0  0  0  0  0  0  0  0  0  0  0  0
    9.5211    2.3771   21.8422 H   0  0  0  0  0  0  0  0  0  0  0  0
    9.3199    0.2802   22.3441 C   0  0  0  0  0  0  0  0  0  0  0  0
    7.8289    0.2492   22.1255 C   0  0  2  0  0  0  0  0  0  0  0  0
    7.4879    1.2751   21.9578 H   0  0  0  0  0  0  0  0  0  0  0  0
    7.0858   -0.2417   23.3544 C   0  0  0  0  0  0  0  0  0  0  0  0
    6.9229    0.3349   24.4073 O   0  0  0  0  0  0  0  0  0  0  0  0
    6.5764   -1.4754   23.0765 N   0  0  0  0  0  0  0  0  0  0  0  0
    5.8202   -1.7299   23.6968 H   0  0  0  0  0  0  0  0  0  0  0  0
    6.5999   -1.8478   21.6735 C   0  0  0  0  0  0  0  0  0  0  0  0
    5.5820   -1.9422   21.2641 H   0  0  0  0  0  0  0  0  0  0  0  0
    7.0888   -2.8243   21.5397 H   0  0  0  0  0  0  0  0  0  0  0  0
    7.4042   -0.7129   20.9745 C   0  0  1  0  0  0  0  0  0  0  0  0
    8.3023   -1.1535   20.5231 H   0  0  0  0  0  0  0  0  0  0  0  0
    6.6536   -0.0062   19.8616 C   0  0  0  0  0  0  0  0  0  0  0  0
    7.1614    0.0653   18.5474 C   0  0  0  0  0  0  0  0  0  0  0  0
    8.1113   -0.4122   18.3046 H   0  0  0  0  0  0  0  0  0  0  0  0
    6.5614    0.6965   17.5300 N   0  0  0  0  0  0  0  0  0  0  0  0
    5.3995    1.3125   17.7969 C   0  0  0  0  0  0  0  0  0  0  0  0
    4.9284    1.8324   16.9651 H   0  0  0  0  0  0  0  0  0  0  0  0
    4.8029    1.3122   19.0621 C   0  0  0  0  0  0  0  0  0  0  0  0
    3.8704    1.8406   19.2165 H   0  0  0  0  0  0  0  0  0  0  0  0
    5.4368    0.6423   20.1103 C   0  0  0  0  0  0  0  0  0  0  0  0
    5.0014    0.6341   21.1126 H   0  0  0  0  0  0  0  0  0  0  0  0
    9.9936   -0.9025   22.6853 C   0  0  0  0  0  0  0  0  0  0  0  0
    9.4331   -1.8086   22.9274 H   0  0  0  0  0  0  0  0  0  0  0  0
   11.3836   -0.9184   22.7282 C   0  0  0  0  0  0  0  0  0  0  0  0
   11.9087   -1.8628   22.8262 H   0  0  0  0  0  0  0  0  0  0  0  0
  1  2  1  0
  2  3  1  0
  3  4  2  0
  3  5  1  0
  5  6  2  0
  6  7  1  0
  6  8  1  0
  8  9  1  0
  8 10  2  0
 10 11  1  0
 11 12  1  6
 11 13  1  0
 13 14  2  0
 13 15  1  0
 15 16  1  0
 15 17  1  0
 17 18  1  0
 17 19  1  0
 17 20  1  0
 20 21  1  6
 20 22  1  0
 22 23  2  0
 23 24  1  0
 23 25  1  0
 25 26  2  0
 26 27  1  0
 26 28  1  0
 28 29  1  0
 28 30  2  0
 30 31  1  0
 10 32  1  0
 32 33  1  0
 32 34  2  0
 34 35  1  0
 34  5  1  0
 20 11  1  0
 30 22  1  0
M  END
>  <cnnaffinity>  (1) 
-5.15045

>  <filename>  (1) 
O=C(O)c1ccc([C@@H]2C(=O)NC[C@H]2c2cccnc2)cc1

$$$$
