
     RDKit          3D

 42 45  0  0  0  0  0  0  0  0999 V2000
    4.9416    1.8457   16.8690 H   0  0  0  0  0  0  0  0  0  0  0  0
    5.3805    1.3295   17.7188 C   0  0  0  0  0  0  0  0  0  0  0  0
    6.5229    0.6694   17.4813 N   0  0  0  0  0  0  0  0  0  0  0  0
    7.1023    0.0424   18.5100 C   0  0  0  0  0  0  0  0  0  0  0  0
    8.0149   -0.5058   18.2799 H   0  0  0  0  0  0  0  0  0  0  0  0
    6.5965    0.0662   19.8268 C   0  0  0  0  0  0  0  0  0  0  0  0
    7.3650   -0.5375   20.9257 C   0  0  0  0  0  0  0  0  0  0  0  0
    8.2068   -1.5602   20.7361 N   0  0  0  0  0  0  0  0  0  0  0  0
    8.7107   -1.7838   21.9452 N   0  0  0  0  0  0  0  0  0  0  0  0
    8.3006   -0.9417   22.9056 C   0  0  0  0  0  0  0  0  0  0  0  0
    7.3835   -0.1128   22.3006 C   0  0  0  0  0  0  0  0  0  0  0  0
    6.6867    0.9283   22.9301 N   0  0  0  0  0  0  0  0  0  0  0  0
    6.5216    1.7617   22.3949 H   0  0  0  0  0  0  0  0  0  0  0  0
    6.3013    0.9830   24.2444 C   0  0  0  0  0  0  0  0  0  0  0  0
    6.3646    0.0398   25.0084 O   0  0  0  0  0  0  0  0  0  0  0  0
    5.7805    2.3546   24.6671 C   0  0  0  0  0  0  0  0  0  0  0  0
    6.5995    3.0766   24.5560 H   0  0  0  0  0  0  0  0  0  0  0  0
    5.5632    2.2886   25.7344 H   0  0  0  0  0  0  0  0  0  0  0  0
    4.5677    2.8039   23.8804 C   0  0  0  0  0  0  0  0  0  0  0  0
    3.2811    2.5101   24.3522 C   0  0  0  0  0  0  0  0  0  0  0  0
    3.1754    2.0551   25.3389 H   0  0  0  0  0  0  0  0  0  0  0  0
    2.1544    2.8242   23.5849 C   0  0  0  0  0  0  0  0  0  0  0  0
    1.1617    2.5925   23.9663 H   0  0  0  0  0  0  0  0  0  0  0  0
    2.3032    3.4291   22.3319 C   0  0  0  0  0  0  0  0  0  0  0  0
    1.4251    3.6671   21.7340 H   0  0  0  0  0  0  0  0  0  0  0  0
    3.5857    3.7427   21.8620 C   0  0  0  0  0  0  0  0  0  0  0  0
    3.7165    4.2081   20.8874 H   0  0  0  0  0  0  0  0  0  0  0  0
    4.7131    3.4505   22.6382 C   0  0  0  0  0  0  0  0  0  0  0  0
    5.6998    3.7651   22.3006 H   0  0  0  0  0  0  0  0  0  0  0  0
    9.0268   -1.2177   24.1818 C   0  0  0  0  0  0  0  0  0  0  0  0
    8.3291   -1.6265   24.9166 H   0  0  0  0  0  0  0  0  0  0  0  0
    9.4487   -0.3146   24.6269 H   0  0  0  0  0  0  0  0  0  0  0  0
   10.1218   -2.2133   23.7237 C   0  0  0  0  0  0  0  0  0  0  0  0
   11.0496   -1.6732   23.5476 H   0  0  0  0  0  0  0  0  0  0  0  0
   10.3135   -2.9899   24.4600 H   0  0  0  0  0  0  0  0  0  0  0  0
    9.6594   -2.7811   22.3661 C   0  0  0  0  0  0  0  0  0  0  0  0
    9.1708   -3.7567   22.4527 H   0  0  0  0  0  0  0  0  0  0  0  0
   10.4714   -2.8356   21.6423 H   0  0  0  0  0  0  0  0  0  0  0  0
    5.3708    0.7226   20.0425 C   0  0  0  0  0  0  0  0  0  0  0  0
    4.9077    0.7157   21.0313 H   0  0  0  0  0  0  0  0  0  0  0  0
    4.7554    1.3593   18.9689 C   0  0  0  0  0  0  0  0  0  0  0  0
    3.8113    1.8809   19.0830 H   0  0  0  0  0  0  0  0  0  0  0  0
  1  2  1  0
  2  3  2  0
  3  4  1  0
  4  5  1  0
  4  6  2  0
  6  7  1  0
  7  8  2  0
  8  9  1  0
  9 10  1  0
 10 11  2  0
 11 12  1  0
 12 13  1  0
 12 14  1  0
 14 15  2  0
 14 16  1  0
 16 17  1  0
 16 18  1  0
 16 19  1  0
 19 20  2  0
 20 21  1  0
 20 22  1  0
 22 23  1  0
 22 24  2  0
 24 25  1  0
 24 26  1  0
 26 27  1  0
 26 28  2  0
 28 29  1  0
 10 30  1  0
 30 31  1  0
 30 32  1  0
 30 33  1  0
 33 34  1  0
 33 35  1  0
 33 36  1  0
 36 37  1  0
 36 38  1  0
  6 39  1  0
 39 40  1  0
 39 41  2  0
 41 42  1  0
 41  2  1  0
 11  7  1  0
 28 19  1  0
 36  9  1  0
M  END
>  <cnnaffinity>  (1) 
-5.48301

>  <filename>  (1) 
O=C(Cc1ccccc1)Nc1c(-c2cccnc2)nn2c1CCC2

$$$$
