
     RDKit          3D

 35 36  0  0  0  0  0  0  0  0999 V2000
    9.1895    4.2202   27.2676 H   0  0  0  0  0  0  0  0  0  0  0  0
    9.4238    4.8990   26.6072 O   0  0  0  0  0  0  0  0  0  0  0  0
    9.5063    4.2180   25.3872 N   0  0  0  0  0  0  0  0  0  0  0  0
   10.2449    4.6207   24.8352 H   0  0  0  0  0  0  0  0  0  0  0  0
    8.3704    3.8415   24.6849 C   0  0  0  0  0  0  0  0  0  0  0  0
    7.3132    3.5611   25.2143 O   0  0  0  0  0  0  0  0  0  0  0  0
    8.6394    3.6681   23.1996 C   0  0  0  0  0  0  0  0  0  0  0  0
    7.7092    3.9159   22.6795 H   0  0  0  0  0  0  0  0  0  0  0  0
    9.3874    4.3949   22.8682 H   0  0  0  0  0  0  0  0  0  0  0  0
    9.0913    2.2402   22.8413 C   0  0  0  0  0  0  0  0  0  0  0  0
   10.0925    2.0538   23.2627 H   0  0  0  0  0  0  0  0  0  0  0  0
    8.4178    1.5127   23.3144 H   0  0  0  0  0  0  0  0  0  0  0  0
    9.0994    1.9912   21.3274 C   0  0  0  0  0  0  0  0  0  0  0  0
    8.0883    2.1349   20.9170 H   0  0  0  0  0  0  0  0  0  0  0  0
    9.7484    2.7281   20.8420 H   0  0  0  0  0  0  0  0  0  0  0  0
    9.5612    0.5847   20.9081 C   0  0  0  0  0  0  0  0  0  0  0  0
    9.5743    0.5348   19.8139 H   0  0  0  0  0  0  0  0  0  0  0  0
   10.5902    0.3985   21.2408 H   0  0  0  0  0  0  0  0  0  0  0  0
    8.6700   -0.5112   21.4285 C   0  0  0  0  0  0  0  0  0  0  0  0
    7.3765   -0.7000   21.0065 C   0  0  0  0  0  0  0  0  0  0  0  0
    6.6544    0.0027   19.9214 C   0  0  0  0  0  0  0  0  0  0  0  0
    7.1751    0.0435   18.6138 C   0  0  0  0  0  0  0  0  0  0  0  0
    8.1073   -0.4720   18.3949 H   0  0  0  0  0  0  0  0  0  0  0  0
    6.5959    0.6666   17.5771 N   0  0  0  0  0  0  0  0  0  0  0  0
    5.4361    1.2954   17.8196 C   0  0  0  0  0  0  0  0  0  0  0  0
    4.9810    1.8032   16.9711 H   0  0  0  0  0  0  0  0  0  0  0  0
    4.8172    1.3113   19.0768 C   0  0  0  0  0  0  0  0  0  0  0  0
    3.8803    1.8401   19.2079 H   0  0  0  0  0  0  0  0  0  0  0  0
    5.4296    0.6532   20.1449 C   0  0  0  0  0  0  0  0  0  0  0  0
    4.9846    0.6438   21.1418 H   0  0  0  0  0  0  0  0  0  0  0  0
    6.5864   -1.9190   21.9424 S   0  0  0  0  0  0  0  0  0  0  0  0
    7.9934   -2.2039   22.8828 C   0  0  0  0  0  0  0  0  0  0  0  0
    7.9790   -2.9419   23.6754 H   0  0  0  0  0  0  0  0  0  0  0  0
    9.0141   -1.3917   22.5019 C   0  0  0  0  0  0  0  0  0  0  0  0
    9.9879   -1.3770   22.9804 H   0  0  0  0  0  0  0  0  0  0  0  0
  1  2  1  0
  2  3  1  0
  3  4  1  0
  3  5  1  0
  5  6  2  0
  5  7  1  0
  7  8  1  0
  7  9  1  0
  7 10  1  0
 10 11  1  0
 10 12  1  0
 10 13  1  0
 13 14  1  0
 13 15  1  0
 13 16  1  0
 16 17  1  0
 16 18  1  0
 16 19  1  0
 19 20  2  0
 20 21  1  0
 21 22  2  0
 22 23  1  0
 22 24  1  0
 24 25  2  0
 25 26  1  0
 25 27  1  0
 27 28  1  0
 27 29  2  0
 29 30  1  0
 20 31  1  0
 31 32  1  0
 32 33  1  0
 32 34  2  0
 34 35  1  0
 34 19  1  0
 29 21  1  0
M  END
>  <cnnaffinity>  (1) 
-5.32214

>  <filename>  (1) 
O=C(CCCCc1ccsc1-c1cccnc1)NO

$$$$
