
     RDKit          3D

 35 38  0  0  0  0  0  0  0  0999 V2000
    4.9802    1.7714   17.0457 H   0  0  0  0  0  0  0  0  0  0  0  0
    5.4489    1.2547   17.8786 C   0  0  0  0  0  0  0  0  0  0  0  0
    6.6112    0.6297   17.6146 N   0  0  0  0  0  0  0  0  0  0  0  0
    7.2247    0.0063   18.6268 C   0  0  0  0  0  0  0  0  0  0  0  0
    8.1760   -0.4807   18.3972 H   0  0  0  0  0  0  0  0  0  0  0  0
    6.7192   -0.0450   19.9579 C   0  0  0  0  0  0  0  0  0  0  0  0
    7.3754   -0.6797   20.9713 N   0  0  0  0  0  0  0  0  0  0  0  0
    7.0397   -0.8599   22.3646 C   0  0  0  0  0  0  0  0  0  0  0  0
    6.1157   -1.4370   22.5122 H   0  0  0  0  0  0  0  0  0  0  0  0
    6.9911    0.0784   22.9399 H   0  0  0  0  0  0  0  0  0  0  0  0
    8.3625   -1.6765   22.4970 C   0  0  0  0  0  0  0  0  0  0  0  0
    9.0942   -1.2374   23.1795 H   0  0  0  0  0  0  0  0  0  0  0  0
    8.1751   -3.1473   22.8276 C   0  0  0  0  0  0  0  0  0  0  0  0
    8.6034   -4.0120   22.0845 O   0  0  0  0  0  0  0  0  0  0  0  0
    7.4155   -3.4742   24.0701 C   0  0  0  0  0  0  0  0  0  0  0  0
    7.2873   -2.6949   25.1815 C   0  0  0  0  0  0  0  0  0  0  0  0
    7.6568   -1.6871   25.3448 H   0  0  0  0  0  0  0  0  0  0  0  0
    6.3674   -3.4223   26.4470 S   0  0  0  0  0  0  0  0  0  0  0  0
    6.0433   -4.8268   25.4658 C   0  0  0  0  0  0  0  0  0  0  0  0
    5.2774   -5.9613   25.8102 C   0  0  0  0  0  0  0  0  0  0  0  0
    4.8891   -6.0889   26.8178 H   0  0  0  0  0  0  0  0  0  0  0  0
    5.0474   -6.9259   24.8334 C   0  0  0  0  0  0  0  0  0  0  0  0
    4.4125   -7.7827   25.0584 H   0  0  0  0  0  0  0  0  0  0  0  0
    5.6449   -6.8171   23.5553 C   0  0  0  0  0  0  0  0  0  0  0  0
    5.4472   -7.5793   22.8028 H   0  0  0  0  0  0  0  0  0  0  0  0
    6.5006   -5.7625   23.2640 C   0  0  0  0  0  0  0  0  0  0  0  0
    7.0541   -5.7122   22.3330 H   0  0  0  0  0  0  0  0  0  0  0  0
    6.6720   -4.7241   24.2087 C   0  0  0  0  0  0  0  0  0  0  0  0
    8.6373   -1.3836   21.0002 C   0  0  0  0  0  0  0  0  0  0  0  0
    8.6531   -2.2728   20.3678 H   0  0  0  0  0  0  0  0  0  0  0  0
    9.5054   -0.7472   20.7755 H   0  0  0  0  0  0  0  0  0  0  0  0
    5.4915    0.6059   20.2020 C   0  0  0  0  0  0  0  0  0  0  0  0
    5.0735    0.6001   21.2076 H   0  0  0  0  0  0  0  0  0  0  0  0
    4.8577    1.2596   19.1475 C   0  0  0  0  0  0  0  0  0  0  0  0
    3.9215    1.7859   19.3054 H   0  0  0  0  0  0  0  0  0  0  0  0
  1  2  1  0
  2  3  2  0
  3  4  1  0
  4  5  1  0
  4  6  2  0
  6  7  1  0
  7  8  1  0
  8  9  1  0
  8 10  1  0
  8 11  1  0
 11 12  1  0
 11 13  1  0
 13 14  2  0
 13 15  1  0
 15 16  2  0
 16 17  1  0
 16 18  1  0
 18 19  1  0
 19 20  2  0
 20 21  1  0
 20 22  1  0
 22 23  1  0
 22 24  2  0
 24 25  1  0
 24 26  1  0
 26 27  1  0
 26 28  2  0
 11 29  1  0
 29 30  1  0
 29 31  1  0
  6 32  1  0
 32 33  1  0
 32 34  2  0
 34 35  1  0
 34  2  1  0
 29  7  1  0
 28 15  1  0
 28 19  1  0
M  END
>  <cnnaffinity>  (1) 
-5.38369

>  <filename>  (1) 
O=C(c1csc2ccccc12)C1CN(c2cccnc2)C1

$$$$
