
     RDKit          3D

 36 37  0  0  0  0  0  0  0  0999 V2000
    4.9957    1.7743   17.0334 H   0  0  0  0  0  0  0  0  0  0  0  0
    5.4218    1.2479   17.8823 C   0  0  0  0  0  0  0  0  0  0  0  0
    6.5763    0.6060   17.6563 N   0  0  0  0  0  0  0  0  0  0  0  0
    7.1457    0.0017   18.6972 C   0  0  0  0  0  0  0  0  0  0  0  0
    8.1080   -0.4779   18.5246 H   0  0  0  0  0  0  0  0  0  0  0  0
    6.5867   -0.0419   19.9812 C   0  0  0  0  0  0  0  0  0  0  0  0
    7.4440   -0.7567   20.9676 C   0  0  0  0  0  0  0  0  0  0  0  0
    8.6289   -0.9204   20.7932 O   0  0  0  0  0  0  0  0  0  0  0  0
    6.7627   -1.2687   22.0517 N   0  0  0  0  0  0  0  0  0  0  0  0
    5.7677   -1.2548   22.0148 H   0  0  0  0  0  0  0  0  0  0  0  0
    7.3885   -1.6933   23.2087 C   0  0  0  0  0  0  0  0  0  0  0  0
    8.5587   -1.4910   23.4208 O   0  0  0  0  0  0  0  0  0  0  0  0
    6.5204   -2.4618   24.1828 C   0  0  0  0  0  0  0  0  0  0  0  0
    6.9458   -2.2442   25.1662 H   0  0  0  0  0  0  0  0  0  0  0  0
    5.4964   -2.0915   24.1776 H   0  0  0  0  0  0  0  0  0  0  0  0
    6.5324   -3.9811   23.9353 C   0  0  0  0  0  0  0  0  0  0  0  0
    5.9882   -4.4436   24.7764 H   0  0  0  0  0  0  0  0  0  0  0  0
    5.8208   -4.4105   22.6342 C   0  0  0  0  0  0  0  0  0  0  0  0
    4.8061   -3.9939   22.6029 H   0  0  0  0  0  0  0  0  0  0  0  0
    6.3589   -3.9947   21.7695 H   0  0  0  0  0  0  0  0  0  0  0  0
    5.7755   -5.9415   22.4808 C   0  0  0  0  0  0  0  0  0  0  0  0
    5.1113   -6.3784   23.2424 H   0  0  0  0  0  0  0  0  0  0  0  0
    5.3273   -6.2103   21.5129 H   0  0  0  0  0  0  0  0  0  0  0  0
    7.1900   -6.5387   22.6046 C   0  0  0  0  0  0  0  0  0  0  0  0
    7.7742   -6.2217   21.7272 H   0  0  0  0  0  0  0  0  0  0  0  0
    7.1388   -7.6344   22.5588 H   0  0  0  0  0  0  0  0  0  0  0  0
    7.9243   -6.0589   23.8740 C   0  0  0  0  0  0  0  0  0  0  0  0
    8.9237   -6.5059   23.9346 H   0  0  0  0  0  0  0  0  0  0  0  0
    7.3851   -6.3568   24.7791 H   0  0  0  0  0  0  0  0  0  0  0  0
    7.9671   -4.5363   23.9882 C   0  0  0  0  0  0  0  0  0  0  0  0
    8.5903   -4.0778   23.2094 H   0  0  0  0  0  0  0  0  0  0  0  0
    8.4275   -4.2485   24.9442 H   0  0  0  0  0  0  0  0  0  0  0  0
    5.3728    0.6313   20.2085 C   0  0  0  0  0  0  0  0  0  0  0  0
    4.9049    0.6980   21.1967 H   0  0  0  0  0  0  0  0  0  0  0  0
    4.7834    1.2873   19.1277 C   0  0  0  0  0  0  0  0  0  0  0  0
    3.8637    1.8514   19.2456 H   0  0  0  0  0  0  0  0  0  0  0  0
  1  2  1  0
  2  3  2  0
  3  4  1  0
  4  5  1  0
  4  6  2  0
  6  7  1  0
  7  8  2  0
  7  9  1  0
  9 10  1  0
  9 11  1  0
 11 12  2  0
 11 13  1  0
 13 14  1  0
 13 15  1  0
 13 16  1  0
 16 17  1  0
 16 18  1  0
 18 19  1  0
 18 20  1  0
 18 21  1  0
 21 22  1  0
 21 23  1  0
 21 24  1  0
 24 25  1  0
 24 26  1  0
 24 27  1  0
 27 28  1  0
 27 29  1  0
 27 30  1  0
 30 31  1  0
 30 32  1  0
  6 33  1  0
 33 34  1  0
 33 35  2  0
 35 36  1  0
 35  2  1  0
 30 16  1  0
M  END
>  <cnnaffinity>  (1) 
-4.96639

>  <filename>  (1) 
O=C(CC1CCCCC1)NC(=O)c1cccnc1

$$$$
