
     RDKit          3D

 33 35  0  0  0  0  0  0  0  0999 V2000
    3.2659   -6.0721   27.6404 H   0  0  0  0  0  0  0  0  0  0  0  0
    3.9813   -5.4759   27.3628 O   0  0  0  0  0  0  0  0  0  0  0  0
    3.6751   -5.4333   26.0539 C   0  0  0  0  0  0  0  0  0  0  0  0
    2.7108   -6.0702   25.6888 O   0  0  0  0  0  0  0  0  0  0  0  0
    4.5854   -4.5914   25.2228 C   0  0  0  0  0  0  0  0  0  0  0  0
    5.6690   -3.8995   25.8041 C   0  0  0  0  0  0  0  0  0  0  0  0
    5.8592   -3.9792   26.8747 H   0  0  0  0  0  0  0  0  0  0  0  0
    6.5080   -3.1170   25.0143 C   0  0  0  0  0  0  0  0  0  0  0  0
    7.3256   -2.5685   25.4658 H   0  0  0  0  0  0  0  0  0  0  0  0
    6.2882   -2.9967   23.6290 C   0  0  0  0  0  0  0  0  0  0  0  0
    7.1546   -2.1912   22.8032 N   0  0  0  0  0  0  0  0  0  0  0  0
    6.5758   -1.5127   21.7561 N   0  0  0  0  0  0  0  0  0  0  0  0
    7.3177   -0.7497   20.9913 C   0  0  0  0  0  0  0  0  0  0  0  0
    6.6035   -0.0300   19.9007 C   0  0  0  0  0  0  0  0  0  0  0  0
    7.1406    0.0362   18.6005 C   0  0  0  0  0  0  0  0  0  0  0  0
    8.1124   -0.4155   18.3956 H   0  0  0  0  0  0  0  0  0  0  0  0
    6.5491    0.6672   17.5838 N   0  0  0  0  0  0  0  0  0  0  0  0
    5.3922    1.2957   17.8405 C   0  0  0  0  0  0  0  0  0  0  0  0
    4.9304    1.7946   16.9903 H   0  0  0  0  0  0  0  0  0  0  0  0
    4.7895    1.3184   19.1029 C   0  0  0  0  0  0  0  0  0  0  0  0
    3.8644    1.8636   19.2407 H   0  0  0  0  0  0  0  0  0  0  0  0
    5.3989    0.6338   20.1536 C   0  0  0  0  0  0  0  0  0  0  0  0
    4.9874    0.6189   21.1622 H   0  0  0  0  0  0  0  0  0  0  0  0
    8.8016   -0.5692   21.1886 C   0  0  0  0  0  0  0  0  0  0  0  0
    9.5075    0.1677   20.5038 O   0  0  0  0  0  0  0  0  0  0  0  0
    9.3379   -1.3660   22.2801 C   0  0  0  0  0  0  0  0  0  0  0  0
   10.4012   -1.2926   22.4511 H   0  0  0  0  0  0  0  0  0  0  0  0
    8.5151   -2.1226   23.0246 C   0  0  0  0  0  0  0  0  0  0  0  0
    8.8849   -2.7401   23.8395 H   0  0  0  0  0  0  0  0  0  0  0  0
    5.2053   -3.6790   23.0512 C   0  0  0  0  0  0  0  0  0  0  0  0
    5.0429   -3.5556   21.9888 H   0  0  0  0  0  0  0  0  0  0  0  0
    4.3633   -4.4713   23.8342 C   0  0  0  0  0  0  0  0  0  0  0  0
    3.5194   -4.9964   23.3844 H   0  0  0  0  0  0  0  0  0  0  0  0
  1  2  1  0
  2  3  1  0
  3  4  2  0
  3  5  1  0
  5  6  2  0
  6  7  1  0
  6  8  1  0
  8  9  1  0
  8 10  2  0
 10 11  1  0
 11 12  1  0
 12 13  2  0
 13 14  1  0
 14 15  2  0
 15 16  1  0
 15 17  1  0
 17 18  2  0
 18 19  1  0
 18 20  1  0
 20 21  1  0
 20 22  2  0
 22 23  1  0
 13 24  1  0
 24 25  2  0
 24 26  1  0
 26 27  1  0
 26 28  2  0
 28 29  1  0
 10 30  1  0
 30 31  1  0
 30 32  2  0
 32 33  1  0
 32  5  1  0
 28 11  1  0
 22 14  1  0
M  END
>  <cnnaffinity>  (1) 
-5.15951

>  <filename>  (1) 
O=C(O)c1ccc(-n2ccc(=O)c(-c3cccnc3)n2)cc1

$$$$
