
     RDKit          3D

 32 34  0  0  0  0  0  0  0  0999 V2000
    5.2699    1.7195   17.1547 H   0  0  0  0  0  0  0  0  0  0  0  0
    5.5523    1.1138   18.0167 C   0  0  0  0  0  0  0  0  0  0  0  0
    6.6318    0.3349   17.8613 N   0  0  0  0  0  0  0  0  0  0  0  0
    7.0159   -0.4060   18.8971 C   0  0  0  0  0  0  0  0  0  0  0  0
    7.8791   -1.0504   18.7397 H   0  0  0  0  0  0  0  0  0  0  0  0
    6.3613   -0.3725   20.1238 C   0  0  0  0  0  0  0  0  0  0  0  0
    7.3891   -0.9398   21.4019 S   0  0  0  0  0  0  0  0  0  0  0  0
    8.3195   -1.8921   20.8450 O   0  0  0  0  0  0  0  0  0  0  0  0
    7.7942    0.1807   22.2242 O   0  0  0  0  0  0  0  0  0  0  0  0
    6.4255   -1.7514   22.4197 N   0  0  0  0  0  0  0  0  0  0  0  0
    6.2321   -1.2512   23.2649 H   0  0  0  0  0  0  0  0  0  0  0  0
    5.7310   -2.8277   21.9384 C   0  0  0  0  0  0  0  0  0  0  0  0
    5.6726   -3.0101   20.7390 O   0  0  0  0  0  0  0  0  0  0  0  0
    5.0587   -3.6567   22.9563 C   0  0  0  0  0  0  0  0  0  0  0  0
    3.9189   -4.3788   22.7108 C   0  0  0  0  0  0  0  0  0  0  0  0
    3.3670   -4.5026   21.7937 H   0  0  0  0  0  0  0  0  0  0  0  0
    3.4411   -4.9018   23.8705 N   0  0  0  0  0  0  0  0  0  0  0  0
    2.6265   -5.4827   23.9538 H   0  0  0  0  0  0  0  0  0  0  0  0
    4.2535   -4.5418   24.9162 C   0  0  0  0  0  0  0  0  0  0  0  0
    4.1288   -4.7976   26.2910 C   0  0  0  0  0  0  0  0  0  0  0  0
    3.3041   -5.3919   26.6754 H   0  0  0  0  0  0  0  0  0  0  0  0
    5.1048   -4.2720   27.1281 C   0  0  0  0  0  0  0  0  0  0  0  0
    5.0224   -4.4476   28.1969 H   0  0  0  0  0  0  0  0  0  0  0  0
    6.2179   -3.5613   26.6101 C   0  0  0  0  0  0  0  0  0  0  0  0
    6.9817   -3.2083   27.2978 H   0  0  0  0  0  0  0  0  0  0  0  0
    6.3520   -3.3428   25.2416 C   0  0  0  0  0  0  0  0  0  0  0  0
    7.2448   -2.8758   24.8301 H   0  0  0  0  0  0  0  0  0  0  0  0
    5.3241   -3.7926   24.3791 C   0  0  0  0  0  0  0  0  0  0  0  0
    5.1924    0.3810   20.2879 C   0  0  0  0  0  0  0  0  0  0  0  0
    4.5968    0.3999   21.2046 H   0  0  0  0  0  0  0  0  0  0  0  0
    4.7978    1.1499   19.1945 C   0  0  0  0  0  0  0  0  0  0  0  0
    3.9346    1.8029   19.2460 H   0  0  0  0  0  0  0  0  0  0  0  0
  1  2  1  0
  2  3  2  0
  3  4  1  0
  4  5  1  0
  4  6  2  0
  6  7  1  0
  7  8  2  0
  7  9  2  0
  7 10  1  0
 10 11  1  0
 10 12  1  0
 12 13  2  0
 12 14  1  0
 14 15  2  0
 15 16  1  0
 15 17  1  0
 17 18  1  0
 17 19  1  0
 19 20  2  0
 20 21  1  0
 20 22  1  0
 22 23  1  0
 22 24  2  0
 24 25  1  0
 24 26  1  0
 26 27  1  0
 26 28  2  0
  6 29  1  0
 29 30  1  0
 29 31  2  0
 31 32  1  0
 31  2  1  0
 28 14  1  0
 28 19  1  0
M  END
>  <cnnaffinity>  (1) 
-5.10392

>  <filename>  (1) 
O=C(NS(=O)(=O)c1cccnc1)c1c[nH]c2ccccc12

$$$$
