
     RDKit          3D

 36 39  0  0  0  0  0  0  0  0999 V2000
    4.9617    1.7629   17.0054 H   0  0  0  0  0  0  0  0  0  0  0  0
    5.4180    1.2754   17.8652 C   0  0  0  0  0  0  0  0  0  0  0  0
    6.5812    0.6478   17.6379 N   0  0  0  0  0  0  0  0  0  0  0  0
    7.1818    0.0503   18.6744 C   0  0  0  0  0  0  0  0  0  0  0  0
    8.1157   -0.4584   18.4360 H   0  0  0  0  0  0  0  0  0  0  0  0
    6.6660    0.0554   19.9806 C   0  0  0  0  0  0  0  0  0  0  0  0
    7.4354   -0.6779   21.0435 C   0  0  0  0  0  0  0  0  0  0  0  0
    8.0420   -1.7080   20.7962 O   0  0  0  0  0  0  0  0  0  0  0  0
    7.4397   -0.1357   22.2967 N   0  0  0  0  0  0  0  0  0  0  0  0
    8.0815   -0.6824   23.4871 C   0  0  0  0  0  0  0  0  0  0  0  0
    7.6124   -1.5912   23.8850 H   0  0  0  0  0  0  0  0  0  0  0  0
    9.1435   -0.9182   23.3480 H   0  0  0  0  0  0  0  0  0  0  0  0
    7.7677    0.6587   24.2352 C   0  0  0  0  0  0  0  0  0  0  0  0
    8.6841    1.1949   24.5035 H   0  0  0  0  0  0  0  0  0  0  0  0
    6.8409    0.5942   25.4290 C   0  0  0  0  0  0  0  0  0  0  0  0
    5.6050   -0.0840   25.2976 C   0  0  0  0  0  0  0  0  0  0  0  0
    5.4144   -0.5523   24.3469 H   0  0  0  0  0  0  0  0  0  0  0  0
    4.6900   -0.1785   26.3345 C   0  0  0  0  0  0  0  0  0  0  0  0
    3.7468   -0.6957   26.1997 H   0  0  0  0  0  0  0  0  0  0  0  0
    5.0120    0.4081   27.5756 C   0  0  0  0  0  0  0  0  0  0  0  0
    4.3481    0.5020   28.8477 C   0  0  0  0  0  0  0  0  0  0  0  0
    3.3750    0.0923   29.0924 H   0  0  0  0  0  0  0  0  0  0  0  0
    5.1798    1.1934   29.6775 C   0  0  0  0  0  0  0  0  0  0  0  0
    5.0514    1.4721   30.7147 H   0  0  0  0  0  0  0  0  0  0  0  0
    6.3293    1.5418   28.9980 N   0  0  0  0  0  0  0  0  0  0  0  0
    7.1196    2.0404   29.3681 H   0  0  0  0  0  0  0  0  0  0  0  0
    6.2578    1.0741   27.7109 C   0  0  0  0  0  0  0  0  0  0  0  0
    7.1792    1.1769   26.6513 C   0  0  0  0  0  0  0  0  0  0  0  0
    8.1308    1.6860   26.7777 H   0  0  0  0  0  0  0  0  0  0  0  0
    7.1653    1.1784   22.8862 C   0  0  0  0  0  0  0  0  0  0  0  0
    6.1048    1.4496   22.9234 H   0  0  0  0  0  0  0  0  0  0  0  0
    7.6929    2.0117   22.4065 H   0  0  0  0  0  0  0  0  0  0  0  0
    5.4323    0.6894   20.1943 C   0  0  0  0  0  0  0  0  0  0  0  0
    4.9509    0.6747   21.1726 H   0  0  0  0  0  0  0  0  0  0  0  0
    4.8052    1.3147   19.1205 C   0  0  0  0  0  0  0  0  0  0  0  0
    3.8642    1.8366   19.2433 H   0  0  0  0  0  0  0  0  0  0  0  0
  1  2  1  0
  2  3  2  0
  3  4  1  0
  4  5  1  0
  4  6  2  0
  6  7  1  0
  7  8  2  0
  7  9  1  0
  9 10  1  0
 10 11  1  0
 10 12  1  0
 10 13  1  0
 13 14  1  0
 13 15  1  0
 15 16  2  0
 16 17  1  0
 16 18  1  0
 18 19  1  0
 18 20  2  0
 20 21  1  0
 21 22  1  0
 21 23  2  0
 23 24  1  0
 23 25  1  0
 25 26  1  0
 25 27  1  0
 27 28  2  0
 28 29  1  0
 13 30  1  0
 30 31  1  0
 30 32  1  0
  6 33  1  0
 33 34  1  0
 33 35  2  0
 35 36  1  0
 35  2  1  0
 30  9  1  0
 28 15  1  0
 27 20  1  0
M  END
>  <cnnaffinity>  (1) 
-4.82419

>  <filename>  (1) 
O=C(c1cccnc1)N1CC(c2ccc3cc[nH]c3c2)C1

$$$$
