
     RDKit          3D

 35 37  0  0  0  0  0  0  0  0999 V2000
    4.9412    1.8084   16.9910 H   0  0  0  0  0  0  0  0  0  0  0  0
    5.4098    1.2929   17.8264 C   0  0  0  0  0  0  0  0  0  0  0  0
    6.5706    0.6691   17.5642 N   0  0  0  0  0  0  0  0  0  0  0  0
    7.1779    0.0473   18.5803 C   0  0  0  0  0  0  0  0  0  0  0  0
    8.1090   -0.4696   18.3700 H   0  0  0  0  0  0  0  0  0  0  0  0
    6.6776    0.0264   19.8942 C   0  0  0  0  0  0  0  0  0  0  0  0
    7.4298   -0.6512   20.8198 O   0  0  0  0  0  0  0  0  0  0  0  0
    7.4024   -0.2588   22.1376 C   0  0  0  0  0  0  0  0  0  0  0  0
    7.4512   -1.1615   23.2158 C   0  0  0  0  0  0  0  0  0  0  0  0
    7.5166   -2.2421   23.1736 H   0  0  0  0  0  0  0  0  0  0  0  0
    7.3970   -0.5289   24.3784 N   0  0  0  0  0  0  0  0  0  0  0  0
    7.3380    0.7745   24.0612 N   0  0  0  0  0  0  0  0  0  0  0  0
    7.0306    1.5078   24.6964 H   0  0  0  0  0  0  0  0  0  0  0  0
    7.3282    0.9855   22.7255 C   0  0  0  0  0  0  0  0  0  0  0  0
    7.2335    2.2740   22.1884 N   0  0  0  0  0  0  0  0  0  0  0  0
    7.5644    2.4157   21.2546 H   0  0  0  0  0  0  0  0  0  0  0  0
    6.7319    3.3456   22.8850 C   0  0  0  0  0  0  0  0  0  0  0  0
    6.3036    3.2525   24.0239 O   0  0  0  0  0  0  0  0  0  0  0  0
    6.7958    4.5012   22.1674 N   0  0  0  0  0  0  0  0  0  0  0  0
    7.0322    4.4241   21.1986 H   0  0  0  0  0  0  0  0  0  0  0  0
    6.5007    5.7831   22.6597 C   0  0  0  0  0  0  0  0  0  0  0  0
    6.6351    6.0887   24.0203 C   0  0  0  0  0  0  0  0  0  0  0  0
    6.9628    5.3173   24.7025 H   0  0  0  0  0  0  0  0  0  0  0  0
    6.3196    7.3644   24.4850 C   0  0  0  0  0  0  0  0  0  0  0  0
    6.4141    7.5947   25.5401 H   0  0  0  0  0  0  0  0  0  0  0  0
    5.8616    8.3359   23.5895 C   0  0  0  0  0  0  0  0  0  0  0  0
    5.4270    9.9114   24.1890 Cl  0  0  0  0  0  0  0  0  0  0  0  0
    5.7391    8.0453   22.2282 C   0  0  0  0  0  0  0  0  0  0  0  0
    5.3827    8.8069   21.5408 H   0  0  0  0  0  0  0  0  0  0  0  0
    6.0733    6.7681   21.7639 C   0  0  0  0  0  0  0  0  0  0  0  0
    5.9773    6.5249   20.7095 H   0  0  0  0  0  0  0  0  0  0  0  0
    5.4540    0.6479   20.1624 C   0  0  0  0  0  0  0  0  0  0  0  0
    5.0493    0.6502   21.1764 H   0  0  0  0  0  0  0  0  0  0  0  0
    4.8177    1.2937   19.0922 C   0  0  0  0  0  0  0  0  0  0  0  0
    3.8742    1.8070   19.2320 H   0  0  0  0  0  0  0  0  0  0  0  0
  1  2  1  0
  2  3  2  0
  3  4  1  0
  4  5  1  0
  4  6  2  0
  6  7  1  0
  7  8  1  0
  8  9  1  0
  9 10  1  0
  9 11  2  0
 11 12  1  0
 12 13  1  0
 12 14  1  0
 14 15  1  0
 15 16  1  0
 15 17  1  0
 17 18  2  0
 17 19  1  0
 19 20  1  0
 19 21  1  0
 21 22  2  0
 22 23  1  0
 22 24  1  0
 24 25  1  0
 24 26  2  0
 26 27  1  0
 26 28  1  0
 28 29  1  0
 28 30  2  0
 30 31  1  0
  6 32  1  0
 32 33  1  0
 32 34  2  0
 34 35  1  0
 34  2  1  0
 14  8  2  0
 30 21  1  0
M  END
>  <cnnaffinity>  (1) 
-5.28146

>  <filename>  (1) 
O=C(Nc1ccc(Cl)cc1)Nc1[nH]ncc1Oc1cccnc1

$$$$
