
     RDKit          3D

 36 39  0  0  0  0  0  0  0  0999 V2000
    5.0339    1.8370   17.2685 H   0  0  0  0  0  0  0  0  0  0  0  0
    5.4865    1.1614   17.9966 C   0  0  0  0  0  0  0  0  0  0  0  0
    6.5851    0.5042   17.5905 N   0  0  0  0  0  0  0  0  0  0  0  0
    7.1891   -0.2933   18.4817 C   0  0  0  0  0  0  0  0  0  0  0  0
    8.0537   -0.8561   18.1246 H   0  0  0  0  0  0  0  0  0  0  0  0
    6.7695   -0.4536   19.8223 C   0  0  0  0  0  0  0  0  0  0  0  0
    7.6454   -1.1157   20.8123 C   0  0  0  0  0  0  0  0  0  0  0  0
    8.9848   -0.9474   21.1138 C   0  0  0  0  0  0  0  0  0  0  0  0
    9.6936   -0.3234   20.5809 H   0  0  0  0  0  0  0  0  0  0  0  0
    9.3579   -1.5900   22.2682 N   0  0  0  0  0  0  0  0  0  0  0  0
    8.2402   -2.1302   22.6848 C   0  0  0  0  0  0  0  0  0  0  0  0
    7.7213   -2.9691   24.1134 S   0  0  0  0  0  0  0  0  0  0  0  0
    6.1042   -2.8506   23.4386 C   0  0  0  0  0  0  0  0  0  0  0  0
    4.9542   -3.2320   24.0716 N   0  0  0  0  0  0  0  0  0  0  0  0
    4.1362   -3.1279   23.5011 H   0  0  0  0  0  0  0  0  0  0  0  0
    4.9231   -3.8125   25.3119 C   0  0  0  0  0  0  0  0  0  0  0  0
    5.9512   -4.0738   25.9026 O   0  0  0  0  0  0  0  0  0  0  0  0
    3.6439   -4.0455   25.7421 N   0  0  0  0  0  0  0  0  0  0  0  0
    2.9499   -3.4094   25.4019 H   0  0  0  0  0  0  0  0  0  0  0  0
    3.3108   -4.7973   26.8929 C   0  0  0  0  0  0  0  0  0  0  0  0
    2.1615   -4.4609   27.6204 C   0  0  0  0  0  0  0  0  0  0  0  0
    1.5961   -3.5740   27.3474 H   0  0  0  0  0  0  0  0  0  0  0  0
    1.7575   -5.2561   28.7019 C   0  0  0  0  0  0  0  0  0  0  0  0
    0.8536   -5.0012   29.2543 H   0  0  0  0  0  0  0  0  0  0  0  0
    2.5022   -6.3870   29.0607 C   0  0  0  0  0  0  0  0  0  0  0  0
    2.1777   -7.0205   29.8835 H   0  0  0  0  0  0  0  0  0  0  0  0
    3.6678   -6.7013   28.3501 C   0  0  0  0  0  0  0  0  0  0  0  0
    4.2563   -7.5770   28.6244 H   0  0  0  0  0  0  0  0  0  0  0  0
    4.0863   -5.9013   27.2830 C   0  0  0  0  0  0  0  0  0  0  0  0
    5.0099   -6.1158   26.7582 H   0  0  0  0  0  0  0  0  0  0  0  0
    5.9635   -2.3532   22.2504 N   0  0  0  0  0  0  0  0  0  0  0  0
    7.1883   -1.9103   21.8492 N   0  0  0  0  0  0  0  0  0  0  0  0
    5.5543    0.1591   20.1909 C   0  0  0  0  0  0  0  0  0  0  0  0
    5.1298   -0.0130   21.1820 H   0  0  0  0  0  0  0  0  0  0  0  0
    4.9257    0.9994   19.2697 C   0  0  0  0  0  0  0  0  0  0  0  0
    4.0341    1.5581   19.5311 H   0  0  0  0  0  0  0  0  0  0  0  0
  1  2  1  0
  2  3  2  0
  3  4  1  0
  4  5  1  0
  4  6  2  0
  6  7  1  0
  7  8  2  0
  8  9  1  0
  8 10  1  0
 10 11  2  0
 11 12  1  0
 12 13  1  0
 13 14  1  0
 14 15  1  0
 14 16  1  0
 16 17  2  0
 16 18  1  0
 18 19  1  0
 18 20  1  0
 20 21  2  0
 21 22  1  0
 21 23  1  0
 23 24  1  0
 23 25  2  0
 25 26  1  0
 25 27  1  0
 27 28  1  0
 27 29  2  0
 29 30  1  0
 13 31  2  0
 31 32  1  0
  6 33  1  0
 33 34  1  0
 33 35  2  0
 35 36  1  0
 35  2  1  0
 32  7  1  0
 32 11  1  0
 29 20  1  0
M  END
>  <cnnaffinity>  (1) 
-5.23919

>  <filename>  (1) 
O=C(Nc1ccccc1)Nc1nn2c(-c3cccnc3)cnc2s1

$$$$
