
     RDKit          3D

 38 39  0  0  0  0  0  0  0  0999 V2000
    7.0844   -6.9930   23.2090 H   0  0  0  0  0  0  0  0  0  0  0  0
    7.7408   -6.3534   22.8588 O   0  0  0  0  0  0  0  0  0  0  0  0
    8.7972   -6.3483   23.8024 N   0  0  0  0  0  0  0  0  0  0  0  0
    9.5415   -5.7821   23.4077 H   0  0  0  0  0  0  0  0  0  0  0  0
    8.5313   -6.0427   25.1321 C   0  0  0  0  0  0  0  0  0  0  0  0
    7.4934   -6.3340   25.6910 O   0  0  0  0  0  0  0  0  0  0  0  0
    9.6500   -5.2915   25.8260 C   0  0  0  0  0  0  0  0  0  0  0  0
    9.9582   -5.8946   26.6882 H   0  0  0  0  0  0  0  0  0  0  0  0
   10.5266   -5.1991   25.1760 H   0  0  0  0  0  0  0  0  0  0  0  0
    9.1311   -3.9147   26.2997 C   0  0  0  0  0  0  0  0  0  0  0  0
    9.9470   -3.3647   26.7769 H   0  0  0  0  0  0  0  0  0  0  0  0
    8.3812   -4.0820   27.0815 H   0  0  0  0  0  0  0  0  0  0  0  0
    8.4851   -3.0758   25.1912 C   0  0  0  0  0  0  0  0  0  0  0  0
    8.0631   -2.1623   25.6319 H   0  0  0  0  0  0  0  0  0  0  0  0
    7.6322   -3.6298   24.7724 H   0  0  0  0  0  0  0  0  0  0  0  0
    9.4223   -2.6857   24.0354 C   0  0  0  0  0  0  0  0  0  0  0  0
   10.2468   -2.0726   24.4160 H   0  0  0  0  0  0  0  0  0  0  0  0
    9.8779   -3.5738   23.5882 H   0  0  0  0  0  0  0  0  0  0  0  0
    8.7034   -1.9121   22.9797 C   0  0  0  0  0  0  0  0  0  0  0  0
    8.6210   -0.5703   22.9686 C   0  0  0  0  0  0  0  0  0  0  0  0
    9.0939    0.0538   23.7057 H   0  0  0  0  0  0  0  0  0  0  0  0
    7.8383    0.1459   21.9892 C   0  0  0  0  0  0  0  0  0  0  0  0
    7.6545    1.3451   22.0314 O   0  0  0  0  0  0  0  0  0  0  0  0
    7.3185   -0.6428   20.9271 N   0  0  0  0  0  0  0  0  0  0  0  0
    6.6609    0.0105   19.8116 C   0  0  0  0  0  0  0  0  0  0  0  0
    7.1812    0.0161   18.5001 C   0  0  0  0  0  0  0  0  0  0  0  0
    8.1173   -0.4982   18.2874 H   0  0  0  0  0  0  0  0  0  0  0  0
    6.5823    0.6388   17.4750 N   0  0  0  0  0  0  0  0  0  0  0  0
    5.4325    1.2861   17.7308 C   0  0  0  0  0  0  0  0  0  0  0  0
    4.9741    1.7943   16.8855 H   0  0  0  0  0  0  0  0  0  0  0  0
    4.8308    1.3241   18.9918 C   0  0  0  0  0  0  0  0  0  0  0  0
    3.9125    1.8815   19.1398 H   0  0  0  0  0  0  0  0  0  0  0  0
    5.4582    0.6671   20.0553 C   0  0  0  0  0  0  0  0  0  0  0  0
    5.0469    0.6728   21.0640 H   0  0  0  0  0  0  0  0  0  0  0  0
    7.1581   -2.0179   21.0854 C   0  0  0  0  0  0  0  0  0  0  0  0
    6.3911   -2.6932   20.4400 O   0  0  0  0  0  0  0  0  0  0  0  0
    7.9832   -2.5994   22.0261 N   0  0  0  0  0  0  0  0  0  0  0  0
    7.8141   -3.5898   22.0669 H   0  0  0  0  0  0  0  0  0  0  0  0
  1  2  1  0
  2  3  1  0
  3  4  1  0
  3  5  1  0
  5  6  2  0
  5  7  1  0
  7  8  1  0
  7  9  1  0
  7 10  1  0
 10 11  1  0
 10 12  1  0
 10 13  1  0
 13 14  1  0
 13 15  1  0
 13 16  1  0
 16 17  1  0
 16 18  1  0
 16 19  1  0
 19 20  2  0
 20 21  1  0
 20 22  1  0
 22 23  2  0
 22 24  1  0
 24 25  1  0
 25 26  2  0
 26 27  1  0
 26 28  1  0
 28 29  2  0
 29 30  1  0
 29 31  1  0
 31 32  1  0
 31 33  2  0
 33 34  1  0
 24 35  1  0
 35 36  2  0
 35 37  1  0
 37 38  1  0
 37 19  1  0
 33 25  1  0
M  END
>  <cnnaffinity>  (1) 
-5.04157

>  <filename>  (1) 
O=C(CCCCc1cc(=O)n(-c2cccnc2)c(=O)[nH]1)NO

$$$$
