
     RDKit          3D

 32 34  0  0  0  0  0  0  0  0999 V2000
    7.7923   -6.9800   28.1109 H   0  0  0  0  0  0  0  0  0  0  0  0
    8.1712   -6.3870   27.4425 O   0  0  0  0  0  0  0  0  0  0  0  0
    7.0341   -5.8278   26.9992 C   0  0  0  0  0  0  0  0  0  0  0  0
    5.9920   -6.1528   27.5259 O   0  0  0  0  0  0  0  0  0  0  0  0
    7.2335   -4.8604   25.8876 C   0  0  0  0  0  0  0  0  0  0  0  0
    6.1189   -4.1928   25.3472 C   0  0  0  0  0  0  0  0  0  0  0  0
    5.1205   -4.3847   25.7354 H   0  0  0  0  0  0  0  0  0  0  0  0
    6.2930   -3.2822   24.3118 C   0  0  0  0  0  0  0  0  0  0  0  0
    5.4336   -2.7587   23.9071 H   0  0  0  0  0  0  0  0  0  0  0  0
    7.5681   -3.0112   23.7819 C   0  0  0  0  0  0  0  0  0  0  0  0
    7.6828   -2.0607   22.6696 C   0  0  0  0  0  0  0  0  0  0  0  0
    6.7447   -1.6020   21.8076 C   0  0  0  0  0  0  0  0  0  0  0  0
    5.6977   -1.8422   21.7171 H   0  0  0  0  0  0  0  0  0  0  0  0
    7.3392   -0.6924   20.9434 N   0  0  0  0  0  0  0  0  0  0  0  0
    6.6544   -0.0017   19.8997 C   0  0  0  0  0  0  0  0  0  0  0  0
    7.1728    0.0472   18.5919 C   0  0  0  0  0  0  0  0  0  0  0  0
    8.1259   -0.4307   18.3707 H   0  0  0  0  0  0  0  0  0  0  0  0
    6.5567    0.6676   17.5805 N   0  0  0  0  0  0  0  0  0  0  0  0
    5.3969    1.2920   17.8405 C   0  0  0  0  0  0  0  0  0  0  0  0
    4.9228    1.7874   16.9971 H   0  0  0  0  0  0  0  0  0  0  0  0
    4.8114    1.3090   19.1092 C   0  0  0  0  0  0  0  0  0  0  0  0
    3.8815    1.8386   19.2631 H   0  0  0  0  0  0  0  0  0  0  0  0
    5.4436    0.6436   20.1615 C   0  0  0  0  0  0  0  0  0  0  0  0
    5.0241    0.6301   21.1686 H   0  0  0  0  0  0  0  0  0  0  0  0
    8.6640   -0.5344   21.2938 C   0  0  0  0  0  0  0  0  0  0  0  0
    9.8086    0.5062   20.7204 S   0  0  0  0  0  0  0  0  0  0  0  0
    8.8603   -1.4166   22.3048 N   0  0  0  0  0  0  0  0  0  0  0  0
    9.7606   -1.4309   22.7533 H   0  0  0  0  0  0  0  0  0  0  0  0
    8.6781   -3.6851   24.3286 C   0  0  0  0  0  0  0  0  0  0  0  0
    9.6684   -3.4994   23.9231 H   0  0  0  0  0  0  0  0  0  0  0  0
    8.5222   -4.5962   25.3655 C   0  0  0  0  0  0  0  0  0  0  0  0
    9.4004   -5.0994   25.7713 H   0  0  0  0  0  0  0  0  0  0  0  0
  1  2  1  0
  2  3  1  0
  3  4  2  0
  3  5  1  0
  5  6  2  0
  6  7  1  0
  6  8  1  0
  8  9  1  0
  8 10  2  0
 10 11  1  0
 11 12  2  0
 12 13  1  0
 12 14  1  0
 14 15  1  0
 15 16  2  0
 16 17  1  0
 16 18  1  0
 18 19  2  0
 19 20  1  0
 19 21  1  0
 21 22  1  0
 21 23  2  0
 23 24  1  0
 14 25  1  0
 25 26  2  0
 25 27  1  0
 27 28  1  0
 10 29  1  0
 29 30  1  0
 29 31  2  0
 31 32  1  0
 31  5  1  0
 27 11  1  0
 23 15  1  0
M  END
>  <cnnaffinity>  (1) 
-5.34842

>  <filename>  (1) 
O=C(O)c1ccc(-c2cn(-c3cccnc3)c(=S)[nH]2)cc1

$$$$
