
     RDKit          3D

 37 38  0  0  0  0  0  0  0  0999 V2000
    8.7663    2.5549   25.1018 H   0  0  0  0  0  0  0  0  0  0  0  0
    8.9310    1.6437   24.7871 O   0  0  0  0  0  0  0  0  0  0  0  0
    7.6879    1.0639   24.5656 N   0  0  0  0  0  0  0  0  0  0  0  0
    7.5516    0.7575   23.6139 H   0  0  0  0  0  0  0  0  0  0  0  0
    6.8643    0.5685   25.5544 C   0  0  0  0  0  0  0  0  0  0  0  0
    7.0132    0.7364   26.7502 O   0  0  0  0  0  0  0  0  0  0  0  0
    5.6481   -0.1446   24.9879 C   0  0  0  0  0  0  0  0  0  0  0  0
    4.7864    0.4665   25.2842 H   0  0  0  0  0  0  0  0  0  0  0  0
    5.6930   -0.1281   23.8973 H   0  0  0  0  0  0  0  0  0  0  0  0
    5.4495   -1.5536   25.5876 C   0  0  0  0  0  0  0  0  0  0  0  0
    4.4934   -1.9797   25.2472 H   0  0  0  0  0  0  0  0  0  0  0  0
    5.3551   -1.4232   26.6733 H   0  0  0  0  0  0  0  0  0  0  0  0
    6.5829   -2.5541   25.3189 C   0  0  0  0  0  0  0  0  0  0  0  0
    7.5382   -2.0743   25.5799 H   0  0  0  0  0  0  0  0  0  0  0  0
    6.4715   -3.4012   26.0085 H   0  0  0  0  0  0  0  0  0  0  0  0
    6.6483   -3.0990   23.8770 C   0  0  0  0  0  0  0  0  0  0  0  0
    5.6258   -3.2848   23.5228 H   0  0  0  0  0  0  0  0  0  0  0  0
    7.1438   -4.0781   23.8827 H   0  0  0  0  0  0  0  0  0  0  0  0
    7.3591   -2.1920   22.8923 C   0  0  0  0  0  0  0  0  0  0  0  0
    8.7447   -1.9582   23.0040 C   0  0  0  0  0  0  0  0  0  0  0  0
    9.3395   -2.4357   23.7854 H   0  0  0  0  0  0  0  0  0  0  0  0
    9.4286   -1.1595   22.1755 N   0  0  0  0  0  0  0  0  0  0  0  0
    8.7631   -0.5484   21.1914 C   0  0  0  0  0  0  0  0  0  0  0  0
    9.3656    0.0827   20.5379 H   0  0  0  0  0  0  0  0  0  0  0  0
    7.3816   -0.6863   20.9795 C   0  0  0  0  0  0  0  0  0  0  0  0
    6.6642    0.0283   19.8893 C   0  0  0  0  0  0  0  0  0  0  0  0
    7.1610    0.0764   18.5730 C   0  0  0  0  0  0  0  0  0  0  0  0
    8.1018   -0.4194   18.3326 H   0  0  0  0  0  0  0  0  0  0  0  0
    6.5463    0.6820   17.5509 N   0  0  0  0  0  0  0  0  0  0  0  0
    5.3855    1.3064   17.8139 C   0  0  0  0  0  0  0  0  0  0  0  0
    4.9181    1.8095   16.9693 H   0  0  0  0  0  0  0  0  0  0  0  0
    4.7971    1.3221   19.0829 C   0  0  0  0  0  0  0  0  0  0  0  0
    3.8649    1.8487   19.2338 H   0  0  0  0  0  0  0  0  0  0  0  0
    5.4369    0.6620   20.1303 C   0  0  0  0  0  0  0  0  0  0  0  0
    5.0143    0.6431   21.1373 H   0  0  0  0  0  0  0  0  0  0  0  0
    6.6867   -1.5372   21.8532 C   0  0  0  0  0  0  0  0  0  0  0  0
    5.6123   -1.6765   21.7133 H   0  0  0  0  0  0  0  0  0  0  0  0
  1  2  1  0
  2  3  1  0
  3  4  1  0
  3  5  1  0
  5  6  2  0
  5  7  1  0
  7  8  1  0
  7  9  1  0
  7 10  1  0
 10 11  1  0
 10 12  1  0
 10 13  1  0
 13 14  1  0
 13 15  1  0
 13 16  1  0
 16 17  1  0
 16 18  1  0
 16 19  1  0
 19 20  2  0
 20 21  1  0
 20 22  1  0
 22 23  2  0
 23 24  1  0
 23 25  1  0
 25 26  1  0
 26 27  2  0
 27 28  1  0
 27 29  1  0
 29 30  2  0
 30 31  1  0
 30 32  1  0
 32 33  1  0
 32 34  2  0
 34 35  1  0
 25 36  2  0
 36 37  1  0
 36 19  1  0
 34 26  1  0
M  END
>  <cnnaffinity>  (1) 
-5.38258

>  <filename>  (1) 
O=C(CCCCc1cncc(-c2cccnc2)c1)NO

$$$$
