
     RDKit          3D

 40 42  0  0  0  0  0  0  0  0999 V2000
    5.6986   -8.2564   28.4600 H   0  0  0  0  0  0  0  0  0  0  0  0
    5.2625   -7.9734   27.6329 O   0  0  0  0  0  0  0  0  0  0  0  0
    6.1105   -7.0677   27.0175 N   0  0  0  0  0  0  0  0  0  0  0  0
    6.5384   -7.4346   26.1775 H   0  0  0  0  0  0  0  0  0  0  0  0
    6.0067   -5.6962   27.1202 C   0  0  0  0  0  0  0  0  0  0  0  0
    5.3394   -5.0853   27.9250 O   0  0  0  0  0  0  0  0  0  0  0  0
    6.9238   -5.0048   26.1251 C   0  0  0  0  0  0  0  0  0  0  0  0
    7.7491   -5.6582   25.8119 H   0  0  0  0  0  0  0  0  0  0  0  0
    7.3651   -4.1669   26.6731 H   0  0  0  0  0  0  0  0  0  0  0  0
    6.1964   -4.4506   24.8900 C   0  0  0  0  0  0  0  0  0  0  0  0
    5.3679   -3.8008   25.2077 H   0  0  0  0  0  0  0  0  0  0  0  0
    6.9108   -3.8083   24.3526 H   0  0  0  0  0  0  0  0  0  0  0  0
    5.6820   -5.5028   23.8977 C   0  0  0  0  0  0  0  0  0  0  0  0
    4.9276   -6.1679   24.3413 H   0  0  0  0  0  0  0  0  0  0  0  0
    6.5248   -6.1394   23.5912 H   0  0  0  0  0  0  0  0  0  0  0  0
    5.0881   -4.8235   22.6358 C   0  0  0  0  0  0  0  0  0  0  0  0
    4.2345   -4.1972   22.9047 H   0  0  0  0  0  0  0  0  0  0  0  0
    4.7149   -5.5752   21.9309 H   0  0  0  0  0  0  0  0  0  0  0  0
    6.1026   -3.9578   21.9496 C   0  0  0  0  0  0  0  0  0  0  0  0
    7.3179   -4.2855   21.6757 N   0  0  0  0  0  0  0  0  0  0  0  0
    7.9579   -3.1283   21.2813 N   0  0  0  0  0  0  0  0  0  0  0  0
    7.0761   -2.1790   21.3152 C   0  0  0  0  0  0  0  0  0  0  0  0
    7.3224   -0.7181   21.0959 C   0  0  0  0  0  0  0  0  0  0  0  0
    6.5708   -0.0278   19.9824 C   0  0  0  0  0  0  0  0  0  0  0  0
    7.1327   -0.0024   18.6942 C   0  0  0  0  0  0  0  0  0  0  0  0
    8.0767   -0.5220   18.5346 H   0  0  0  0  0  0  0  0  0  0  0  0
    6.5959    0.6168   17.6354 N   0  0  0  0  0  0  0  0  0  0  0  0
    5.4410    1.2677   17.8381 C   0  0  0  0  0  0  0  0  0  0  0  0
    5.0240    1.7648   16.9633 H   0  0  0  0  0  0  0  0  0  0  0  0
    4.7786    1.3076   19.0717 C   0  0  0  0  0  0  0  0  0  0  0  0
    3.8516    1.8687   19.1560 H   0  0  0  0  0  0  0  0  0  0  0  0
    5.3565    0.6515   20.1673 C   0  0  0  0  0  0  0  0  0  0  0  0
    4.8909    0.6905   21.1561 H   0  0  0  0  0  0  0  0  0  0  0  0
    8.7613   -0.2828   21.3159 C   0  0  0  0  0  0  0  0  0  0  0  0
    9.4650   -1.0621   21.6121 H   0  0  0  0  0  0  0  0  0  0  0  0
    9.1811    0.4686   20.6466 H   0  0  0  0  0  0  0  0  0  0  0  0
    7.7105    0.1272   22.3028 C   0  0  0  0  0  0  0  0  0  0  0  0
    7.3752    1.1639   22.2841 H   0  0  0  0  0  0  0  0  0  0  0  0
    7.6992   -0.3322   23.2889 H   0  0  0  0  0  0  0  0  0  0  0  0
    5.8514   -2.6445   21.6859 O   0  0  0  0  0  0  0  0  0  0  0  0
  1  2  1  0
  2  3  1  0
  3  4  1  0
  3  5  1  0
  5  6  2  0
  5  7  1  0
  7  8  1  0
  7  9  1  0
  7 10  1  0
 10 11  1  0
 10 12  1  0
 10 13  1  0
 13 14  1  0
 13 15  1  0
 13 16  1  0
 16 17  1  0
 16 18  1  0
 16 19  1  0
 19 20  2  0
 20 21  1  0
 21 22  2  0
 22 23  1  0
 23 24  1  0
 24 25  2  0
 25 26  1  0
 25 27  1  0
 27 28  2  0
 28 29  1  0
 28 30  1  0
 30 31  1  0
 30 32  2  0
 32 33  1  0
 23 34  1  0
 34 35  1  0
 34 36  1  0
 34 37  1  0
 37 38  1  0
 37 39  1  0
 22 40  1  0
 40 19  1  0
 37 23  1  0
 32 24  1  0
M  END
>  <cnnaffinity>  (1) 
-5.4134

>  <filename>  (1) 
O=C(CCCCc1nnc(C2(c3cccnc3)CC2)o1)NO

$$$$
