
     RDKit          3D

 40 42  0  0  0  0  0  0  0  0999 V2000
    4.9595    1.7887   16.9858 H   0  0  0  0  0  0  0  0  0  0  0  0
    5.4130    1.2921   17.8408 C   0  0  0  0  0  0  0  0  0  0  0  0
    6.5765    0.6660   17.6008 N   0  0  0  0  0  0  0  0  0  0  0  0
    7.1650    0.0493   18.6330 C   0  0  0  0  0  0  0  0  0  0  0  0
    8.1131   -0.4442   18.4182 H   0  0  0  0  0  0  0  0  0  0  0  0
    6.6273    0.0121   19.9232 C   0  0  0  0  0  0  0  0  0  0  0  0
    7.3645   -0.7289   20.9591 C   0  0  0  0  0  0  0  0  0  0  0  0
    8.0977   -1.7435   20.7033 N   0  0  0  0  0  0  0  0  0  0  0  0
    8.5895   -2.2666   21.9769 C   0  0  0  0  0  0  0  0  0  0  0  0
    9.6877   -2.2981   21.9581 H   0  0  0  0  0  0  0  0  0  0  0  0
    8.2311   -3.2967   22.1136 H   0  0  0  0  0  0  0  0  0  0  0  0
    8.0501   -1.3283   23.0904 C   0  0  0  0  0  0  0  0  0  0  0  0
    8.8355   -0.7991   23.6472 H   0  0  0  0  0  0  0  0  0  0  0  0
    7.4149   -1.8471   23.8233 H   0  0  0  0  0  0  0  0  0  0  0  0
    7.2405   -0.3771   22.3202 N   0  0  0  0  0  0  0  0  0  0  0  0
    7.1443    0.9388   22.8039 N   0  0  0  0  0  0  0  0  0  0  0  0
    6.5504    1.0706   23.6091 H   0  0  0  0  0  0  0  0  0  0  0  0
    7.6068    2.0821   22.1774 C   0  0  0  0  0  0  0  0  0  0  0  0
    8.4202    2.0593   21.2695 O   0  0  0  0  0  0  0  0  0  0  0  0
    6.9934    3.3991   22.7154 C   0  0  0  0  0  0  0  0  0  0  0  0
    7.4364    4.1278   22.0233 H   0  0  0  0  0  0  0  0  0  0  0  0
    5.4415    3.5239   22.5922 C   0  0  0  0  0  0  0  0  0  0  0  0
    4.9431    2.7510   23.2032 H   0  0  0  0  0  0  0  0  0  0  0  0
    5.1327    3.3443   21.5514 H   0  0  0  0  0  0  0  0  0  0  0  0
    4.9385    4.9115   23.0537 C   0  0  0  0  0  0  0  0  0  0  0  0
    3.8432    4.9507   23.0029 H   0  0  0  0  0  0  0  0  0  0  0  0
    5.2897    5.6912   22.3583 H   0  0  0  0  0  0  0  0  0  0  0  0
    5.4095    5.2474   24.4794 C   0  0  0  0  0  0  0  0  0  0  0  0
    4.9539    4.5363   25.1867 H   0  0  0  0  0  0  0  0  0  0  0  0
    5.0546    6.2426   24.7828 H   0  0  0  0  0  0  0  0  0  0  0  0
    6.9400    5.1572   24.5906 C   0  0  0  0  0  0  0  0  0  0  0  0
    7.2598    5.3696   25.6187 H   0  0  0  0  0  0  0  0  0  0  0  0
    7.3972    5.9461   23.9710 H   0  0  0  0  0  0  0  0  0  0  0  0
    7.4678    3.7729   24.1521 C   0  0  0  0  0  0  0  0  0  0  0  0
    8.5658    3.7764   24.1911 H   0  0  0  0  0  0  0  0  0  0  0  0
    7.1262    3.0132   24.8772 H   0  0  0  0  0  0  0  0  0  0  0  0
    5.4116    0.6718   20.1603 C   0  0  0  0  0  0  0  0  0  0  0  0
    4.9580    0.6675   21.1546 H   0  0  0  0  0  0  0  0  0  0  0  0
    4.7938    1.3234   19.0980 C   0  0  0  0  0  0  0  0  0  0  0  0
    3.8593    1.8618   19.2293 H   0  0  0  0  0  0  0  0  0  0  0  0
  1  2  1  0
  2  3  2  0
  3  4  1  0
  4  5  1  0
  4  6  2  0
  6  7  1  0
  7  8  2  0
  8  9  1  0
  9 10  1  0
  9 11  1  0
  9 12  1  0
 12 13  1  0
 12 14  1  0
 12 15  1  0
 15 16  1  0
 16 17  1  0
 16 18  1  0
 18 19  2  0
 18 20  1  0
 20 21  1  0
 20 22  1  0
 22 23  1  0
 22 24  1  0
 22 25  1  0
 25 26  1  0
 25 27  1  0
 25 28  1  0
 28 29  1  0
 28 30  1  0
 28 31  1  0
 31 32  1  0
 31 33  1  0
 31 34  1  0
 34 35  1  0
 34 36  1  0
  6 37  1  0
 37 38  1  0
 37 39  2  0
 39 40  1  0
 39  2  1  0
 15  7  1  0
 34 20  1  0
M  END
>  <cnnaffinity>  (1) 
-5.07894

>  <filename>  (1) 
O=C(NN1CCN=C1c1cccnc1)C1CCCCC1

$$$$
