
     RDKit          3D

 42 44  0  0  0  0  0  0  0  0999 V2000
    4.9992    1.7576   17.0640 H   0  0  0  0  0  0  0  0  0  0  0  0
    5.4631    1.2426   17.8987 C   0  0  0  0  0  0  0  0  0  0  0  0
    6.6269    0.6164   17.6406 N   0  0  0  0  0  0  0  0  0  0  0  0
    7.2339   -0.0119   18.6560 C   0  0  0  0  0  0  0  0  0  0  0  0
    8.1885   -0.4955   18.4268 H   0  0  0  0  0  0  0  0  0  0  0  0
    6.7156   -0.0679   19.9836 C   0  0  0  0  0  0  0  0  0  0  0  0
    7.3464   -0.7207   21.0101 N   0  0  0  0  0  0  0  0  0  0  0  0
    6.9729   -0.9018   22.3977 C   0  0  0  0  0  0  0  0  0  0  0  0
    6.9467    0.0372   22.9735 H   0  0  0  0  0  0  0  0  0  0  0  0
    6.0248   -1.4407   22.5181 H   0  0  0  0  0  0  0  0  0  0  0  0
    8.2762   -1.7345   22.5622 C   0  0  0  0  0  0  0  0  0  0  0  0
    8.9910   -1.3007   23.2634 H   0  0  0  0  0  0  0  0  0  0  0  0
    8.1633   -3.2185   22.8498 C   0  0  0  0  0  0  0  0  0  0  0  0
    8.7345   -4.0427   22.1858 O   0  0  0  0  0  0  0  0  0  0  0  0
    7.3796   -3.5366   23.9431 N   0  0  0  0  0  0  0  0  0  0  0  0
    7.0577   -2.7743   24.5058 H   0  0  0  0  0  0  0  0  0  0  0  0
    7.0589   -4.8499   24.2998 C   0  0  0  0  0  0  0  0  0  0  0  0
    7.3479   -5.7908   23.5991 O   0  0  0  0  0  0  0  0  0  0  0  0
    6.2474   -5.0326   25.5981 C   0  0  0  0  0  0  0  0  0  0  0  0
    6.2193   -4.0701   26.1235 H   0  0  0  0  0  0  0  0  0  0  0  0
    4.8026   -5.4654   25.2247 C   0  0  0  0  0  0  0  0  0  0  0  0
    4.3174   -4.6858   24.6259 H   0  0  0  0  0  0  0  0  0  0  0  0
    4.8804   -6.3541   24.5810 H   0  0  0  0  0  0  0  0  0  0  0  0
    3.9431   -5.7920   26.4541 C   0  0  0  0  0  0  0  0  0  0  0  0
    2.9449   -6.1158   26.1350 H   0  0  0  0  0  0  0  0  0  0  0  0
    3.7948   -4.8794   27.0494 H   0  0  0  0  0  0  0  0  0  0  0  0
    4.5912   -6.8626   27.3407 C   0  0  0  0  0  0  0  0  0  0  0  0
    4.6307   -7.8139   26.7933 H   0  0  0  0  0  0  0  0  0  0  0  0
    3.9757   -7.0533   28.2289 H   0  0  0  0  0  0  0  0  0  0  0  0
    6.0114   -6.4547   27.7520 C   0  0  0  0  0  0  0  0  0  0  0  0
    5.9560   -5.6042   28.4445 H   0  0  0  0  0  0  0  0  0  0  0  0
    6.4876   -7.2694   28.3141 H   0  0  0  0  0  0  0  0  0  0  0  0
    6.8808   -6.0986   26.5347 C   0  0  0  0  0  0  0  0  0  0  0  0
    7.0221   -7.0087   25.9503 H   0  0  0  0  0  0  0  0  0  0  0  0
    7.8807   -5.7978   26.8663 H   0  0  0  0  0  0  0  0  0  0  0  0
    8.5991   -1.4365   21.0748 C   0  0  0  0  0  0  0  0  0  0  0  0
    8.6181   -2.3221   20.4328 H   0  0  0  0  0  0  0  0  0  0  0  0
    9.4840   -0.8135   20.8825 H   0  0  0  0  0  0  0  0  0  0  0  0
    5.4921    0.5948   20.2203 C   0  0  0  0  0  0  0  0  0  0  0  0
    5.0669    0.5978   21.2237 H   0  0  0  0  0  0  0  0  0  0  0  0
    4.8644    1.2512   19.1633 C   0  0  0  0  0  0  0  0  0  0  0  0
    3.9276    1.7804   19.3187 H   0  0  0  0  0  0  0  0  0  0  0  0
  1  2  1  0
  2  3  2  0
  3  4  1  0
  4  5  1  0
  4  6  2  0
  6  7  1  0
  7  8  1  0
  8  9  1  0
  8 10  1  0
  8 11  1  0
 11 12  1  0
 11 13  1  0
 13 14  2  0
 13 15  1  0
 15 16  1  0
 15 17  1  0
 17 18  2  0
 17 19  1  0
 19 20  1  0
 19 21  1  0
 21 22  1  0
 21 23  1  0
 21 24  1  0
 24 25  1  0
 24 26  1  0
 24 27  1  0
 27 28  1  0
 27 29  1  0
 27 30  1  0
 30 31  1  0
 30 32  1  0
 30 33  1  0
 33 34  1  0
 33 35  1  0
 11 36  1  0
 36 37  1  0
 36 38  1  0
  6 39  1  0
 39 40  1  0
 39 41  2  0
 41 42  1  0
 41  2  1  0
 36  7  1  0
 33 19  1  0
M  END
>  <cnnaffinity>  (1) 
-5.26883

>  <filename>  (1) 
O=C(NC(=O)C1CN(c2cccnc2)C1)C1CCCCC1

$$$$
