
     RDKit          3D

 39 41  0  0  0  0  0  0  0  0999 V2000
    4.9400    1.7920   16.9745 H   0  0  0  0  0  0  0  0  0  0  0  0
    5.3920    1.3140   17.8377 C   0  0  0  0  0  0  0  0  0  0  0  0
    6.5603    0.6913   17.6157 N   0  0  0  0  0  0  0  0  0  0  0  0
    7.1485    0.1144   18.6706 C   0  0  0  0  0  0  0  0  0  0  0  0
    8.0907   -0.3897   18.4502 H   0  0  0  0  0  0  0  0  0  0  0  0
    6.6361    0.1381   19.9911 C   0  0  0  0  0  0  0  0  0  0  0  0
    7.3703   -0.5640   21.0700 C   0  0  0  0  0  0  0  0  0  0  0  0
    7.9487   -1.8020   20.9762 C   0  0  0  0  0  0  0  0  0  0  0  0
    7.7772   -2.3877   20.1108 H   0  0  0  0  0  0  0  0  0  0  0  0
    8.5399   -2.1611   22.2167 C   0  0  0  0  0  0  0  0  0  0  0  0
    9.0949   -3.0572   22.4792 H   0  0  0  0  0  0  0  0  0  0  0  0
    8.2719   -1.1230   23.0615 C   0  0  0  0  0  0  0  0  0  0  0  0
    8.4209   -0.9863   24.1225 H   0  0  0  0  0  0  0  0  0  0  0  0
    7.5728   -0.1659   22.3793 N   0  0  0  0  0  0  0  0  0  0  0  0
    7.2248    1.0335   22.9634 N   0  0  0  0  0  0  0  0  0  0  0  0
    7.1176    1.7981   22.3185 H   0  0  0  0  0  0  0  0  0  0  0  0
    6.5697    1.1188   24.1699 C   0  0  0  0  0  0  0  0  0  0  0  0
    6.3255    0.1568   24.8762 O   0  0  0  0  0  0  0  0  0  0  0  0
    6.2772    2.5812   24.5223 C   0  0  0  0  0  0  0  0  0  0  0  0
    7.0837    3.1682   24.0575 H   0  0  0  0  0  0  0  0  0  0  0  0
    6.3317    2.7854   26.0507 C   0  0  0  0  0  0  0  0  0  0  0  0
    6.3861    3.8611   26.2599 H   0  0  0  0  0  0  0  0  0  0  0  0
    7.2533    2.3425   26.4455 H   0  0  0  0  0  0  0  0  0  0  0  0
    5.1221    2.1658   26.7681 C   0  0  0  0  0  0  0  0  0  0  0  0
    5.1825    1.0783   26.6657 H   0  0  0  0  0  0  0  0  0  0  0  0
    5.1721    2.3958   27.8397 H   0  0  0  0  0  0  0  0  0  0  0  0
    3.7955    2.6446   26.1628 C   0  0  0  0  0  0  0  0  0  0  0  0
    3.6897    3.7255   26.3386 H   0  0  0  0  0  0  0  0  0  0  0  0
    2.9498    2.1603   26.6662 H   0  0  0  0  0  0  0  0  0  0  0  0
    3.7420    2.3731   24.6507 C   0  0  0  0  0  0  0  0  0  0  0  0
    2.7899    2.7178   24.2277 H   0  0  0  0  0  0  0  0  0  0  0  0
    3.7943    1.2886   24.4793 H   0  0  0  0  0  0  0  0  0  0  0  0
    4.9203    3.0464   23.9347 C   0  0  0  0  0  0  0  0  0  0  0  0
    4.8531    4.1361   24.0601 H   0  0  0  0  0  0  0  0  0  0  0  0
    4.8775    2.8612   22.8520 H   0  0  0  0  0  0  0  0  0  0  0  0
    5.3869    0.7578   20.1791 C   0  0  0  0  0  0  0  0  0  0  0  0
    4.9030    0.7223   21.1567 H   0  0  0  0  0  0  0  0  0  0  0  0
    4.7629    1.3614   19.0859 C   0  0  0  0  0  0  0  0  0  0  0  0
    3.8102    1.8695   19.1862 H   0  0  0  0  0  0  0  0  0  0  0  0
  1  2  1  0
  2  3  2  0
  3  4  1  0
  4  5  1  0
  4  6  2  0
  6  7  1  0
  7  8  2  0
  8  9  1  0
  8 10  1  0
 10 11  1  0
 10 12  2  0
 12 13  1  0
 12 14  1  0
 14 15  1  0
 15 16  1  0
 15 17  1  0
 17 18  2  0
 17 19  1  0
 19 20  1  0
 19 21  1  0
 21 22  1  0
 21 23  1  0
 21 24  1  0
 24 25  1  0
 24 26  1  0
 24 27  1  0
 27 28  1  0
 27 29  1  0
 27 30  1  0
 30 31  1  0
 30 32  1  0
 30 33  1  0
 33 34  1  0
 33 35  1  0
  6 36  1  0
 36 37  1  0
 36 38  2  0
 38 39  1  0
 38  2  1  0
 14  7  1  0
 33 19  1  0
M  END
>  <cnnaffinity>  (1) 
-5.08779

>  <filename>  (1) 
O=C(Nn1cccc1-c1cccnc1)C1CCCCC1

$$$$
