
     RDKit          3D

 30 31  0  0  0  0  0  0  0  0999 V2000
    4.9164    1.8021   16.9814 H   0  0  0  0  0  0  0  0  0  0  0  0
    5.3975    1.2990   17.8157 C   0  0  0  0  0  0  0  0  0  0  0  0
    6.5603    0.6830   17.5495 N   0  0  0  0  0  0  0  0  0  0  0  0
    7.1969    0.0763   18.5627 C   0  0  0  0  0  0  0  0  0  0  0  0
    8.1388   -0.4185   18.3272 H   0  0  0  0  0  0  0  0  0  0  0  0
    6.6967    0.0378   19.8825 C   0  0  0  0  0  0  0  0  0  0  0  0
    7.3819   -0.6004   20.9547 N   0  0  0  0  0  0  0  0  0  0  0  0
    8.3930   -0.6277   20.9392 H   0  0  0  0  0  0  0  0  0  0  0  0
    6.7347   -1.4203   21.8716 C   0  0  0  0  0  0  0  0  0  0  0  0
    5.6953   -1.9885   21.6172 O   0  0  0  0  0  0  0  0  0  0  0  0
    7.4905   -1.6289   23.3064 C   0  0  0  0  0  0  0  0  0  0  0  0
    8.6296   -0.8542   23.3105 F   0  0  0  0  0  0  0  0  0  0  0  0
    7.8947   -2.9236   23.3925 F   0  0  0  0  0  0  0  0  0  0  0  0
    6.7559   -1.4027   24.4983 N   0  0  0  0  0  0  0  0  0  0  0  0
    6.5061   -2.2393   24.9991 H   0  0  0  0  0  0  0  0  0  0  0  0
    6.1595   -0.2139   24.8910 C   0  0  0  0  0  0  0  0  0  0  0  0
    5.3176   -0.2270   26.0104 C   0  0  0  0  0  0  0  0  0  0  0  0
    5.1421   -1.1718   26.5163 H   0  0  0  0  0  0  0  0  0  0  0  0
    4.7290    0.9596   26.4558 C   0  0  0  0  0  0  0  0  0  0  0  0
    4.0927    0.9512   27.3410 H   0  0  0  0  0  0  0  0  0  0  0  0
    4.9761    2.1585   25.7725 C   0  0  0  0  0  0  0  0  0  0  0  0
    4.5368    3.0855   26.1269 H   0  0  0  0  0  0  0  0  0  0  0  0
    5.7994    2.1637   24.6416 C   0  0  0  0  0  0  0  0  0  0  0  0
    5.9986    3.0945   24.1094 H   0  0  0  0  0  0  0  0  0  0  0  0
    6.3931    0.9798   24.1985 C   0  0  0  0  0  0  0  0  0  0  0  0
    7.0391    0.9442   23.3301 H   0  0  0  0  0  0  0  0  0  0  0  0
    5.4686    0.6528   20.1325 C   0  0  0  0  0  0  0  0  0  0  0  0
    5.0399    0.6073   21.1321 H   0  0  0  0  0  0  0  0  0  0  0  0
    4.8135    1.3113   19.0882 C   0  0  0  0  0  0  0  0  0  0  0  0
    3.8770    1.8351   19.2517 H   0  0  0  0  0  0  0  0  0  0  0  0
  1  2  1  0
  2  3  2  0
  3  4  1  0
  4  5  1  0
  4  6  2  0
  6  7  1  0
  7  8  1  0
  7  9  1  0
  9 10  2  0
  9 11  1  0
 11 12  1  0
 11 13  1  0
 11 14  1  0
 14 15  1  0
 14 16  1  0
 16 17  2  0
 17 18  1  0
 17 19  1  0
 19 20  1  0
 19 21  2  0
 21 22  1  0
 21 23  1  0
 23 24  1  0
 23 25  2  0
 25 26  1  0
  6 27  1  0
 27 28  1  0
 27 29  2  0
 29 30  1  0
 29  2  1  0
 25 16  1  0
M  END
>  <cnnaffinity>  (1) 
-4.55826

>  <filename>  (1) 
O=C(Nc1cccnc1)C(F)(F)Nc1ccccc1

$$$$
