
     RDKit          3D

 39 41  0  0  0  0  0  0  0  0999 V2000
    5.0228    1.7868   16.9866 H   0  0  0  0  0  0  0  0  0  0  0  0
    5.4856    1.2732   17.8258 C   0  0  0  0  0  0  0  0  0  0  0  0
    6.6321    0.6312   17.5521 N   0  0  0  0  0  0  0  0  0  0  0  0
    7.2269   -0.0094   18.5642 C   0  0  0  0  0  0  0  0  0  0  0  0
    8.1467   -0.5370   18.3152 H   0  0  0  0  0  0  0  0  0  0  0  0
    6.7348   -0.0555   19.8829 C   0  0  0  0  0  0  0  0  0  0  0  0
    7.4755   -0.7730   20.9314 C   0  0  0  0  0  0  0  0  0  0  0  0
    8.8755   -1.0895   20.9282 C   0  0  0  0  0  0  0  0  0  0  0  0
    9.5745   -0.7977   20.1583 H   0  0  0  0  0  0  0  0  0  0  0  0
    9.1672   -1.7424   22.0987 C   0  0  0  0  0  0  0  0  0  0  0  0
   10.0874   -2.0911   22.5505 H   0  0  0  0  0  0  0  0  0  0  0  0
    7.9918   -1.8415   22.8028 N   0  0  0  0  0  0  0  0  0  0  0  0
    7.7746   -2.4624   24.0170 N   0  0  0  0  0  0  0  0  0  0  0  0
    7.0962   -3.2015   23.9805 H   0  0  0  0  0  0  0  0  0  0  0  0
    8.7409   -2.6599   24.9777 C   0  0  0  0  0  0  0  0  0  0  0  0
    9.8111   -2.0847   25.0008 O   0  0  0  0  0  0  0  0  0  0  0  0
    8.2971   -3.6909   26.0209 C   0  0  0  0  0  0  0  0  0  0  0  0
    9.1915   -3.8187   26.6390 H   0  0  0  0  0  0  0  0  0  0  0  0
    7.9318   -5.0826   25.4431 C   0  0  0  0  0  0  0  0  0  0  0  0
    6.9626   -5.0082   24.9262 H   0  0  0  0  0  0  0  0  0  0  0  0
    8.6601   -5.3971   24.6878 H   0  0  0  0  0  0  0  0  0  0  0  0
    7.8145   -6.1324   26.5751 C   0  0  0  0  0  0  0  0  0  0  0  0
    8.7832   -6.6251   26.7179 H   0  0  0  0  0  0  0  0  0  0  0  0
    7.0981   -6.9058   26.2678 H   0  0  0  0  0  0  0  0  0  0  0  0
    7.3551   -5.5009   27.9096 C   0  0  0  0  0  0  0  0  0  0  0  0
    6.9201   -6.2563   28.5717 H   0  0  0  0  0  0  0  0  0  0  0  0
    8.2280   -5.1110   28.4506 H   0  0  0  0  0  0  0  0  0  0  0  0
    6.3904   -4.3371   27.6401 C   0  0  0  0  0  0  0  0  0  0  0  0
    5.5758   -4.6870   26.9905 H   0  0  0  0  0  0  0  0  0  0  0  0
    5.9018   -4.0268   28.5687 H   0  0  0  0  0  0  0  0  0  0  0  0
    7.1360   -3.1752   26.9310 C   0  0  0  0  0  0  0  0  0  0  0  0
    7.5742   -2.4819   27.6567 H   0  0  0  0  0  0  0  0  0  0  0  0
    6.4304   -2.5775   26.3405 H   0  0  0  0  0  0  0  0  0  0  0  0
    6.9768   -1.2573   22.1120 C   0  0  0  0  0  0  0  0  0  0  0  0
    5.9751   -1.2359   22.5118 H   0  0  0  0  0  0  0  0  0  0  0  0
    5.5265    0.6167   20.1396 C   0  0  0  0  0  0  0  0  0  0  0  0
    5.1114    0.6303   21.1474 H   0  0  0  0  0  0  0  0  0  0  0  0
    4.8930    1.2903   19.0929 C   0  0  0  0  0  0  0  0  0  0  0  0
    3.9640    1.8281   19.2477 H   0  0  0  0  0  0  0  0  0  0  0  0
  1  2  1  0
  2  3  2  0
  3  4  1  0
  4  5  1  0
  4  6  2  0
  6  7  1  0
  7  8  1  0
  8  9  1  0
  8 10  2  0
 10 11  1  0
 10 12  1  0
 12 13  1  0
 13 14  1  0
 13 15  1  0
 15 16  2  0
 15 17  1  0
 17 18  1  0
 17 19  1  0
 19 20  1  0
 19 21  1  0
 19 22  1  0
 22 23  1  0
 22 24  1  0
 22 25  1  0
 25 26  1  0
 25 27  1  0
 25 28  1  0
 28 29  1  0
 28 30  1  0
 28 31  1  0
 31 32  1  0
 31 33  1  0
 12 34  1  0
 34 35  1  0
  6 36  1  0
 36 37  1  0
 36 38  2  0
 38 39  1  0
 38  2  1  0
 34  7  2  0
 31 17  1  0
M  END
>  <cnnaffinity>  (1) 
-5.06515

>  <filename>  (1) 
O=C(Nn1ccc(-c2cccnc2)c1)C1CCCCC1

$$$$
