
     RDKit          3D

 34 36  0  0  0  0  0  0  0  0999 V2000
    5.0329    1.4894   16.9478 H   0  0  0  0  0  0  0  0  0  0  0  0
    5.5524    1.0994   17.8191 C   0  0  0  0  0  0  0  0  0  0  0  0
    6.7471    0.5283   17.5954 N   0  0  0  0  0  0  0  0  0  0  0  0
    7.4226    0.0674   18.6577 C   0  0  0  0  0  0  0  0  0  0  0  0
    8.3849   -0.3943   18.4470 H   0  0  0  0  0  0  0  0  0  0  0  0
    6.9586    0.1420   20.0003 C   0  0  0  0  0  0  0  0  0  0  0  0
    7.7021   -0.2387   21.1144 N   0  0  0  0  0  0  0  0  0  0  0  0
    7.0879   -0.8077   22.3220 C   0  0  0  0  0  0  0  0  0  0  0  0
    6.7116   -0.0687   23.0414 H   0  0  0  0  0  0  0  0  0  0  0  0
    6.2820   -1.5226   22.0984 H   0  0  0  0  0  0  0  0  0  0  0  0
    8.4387   -1.5056   22.6107 C   0  0  0  0  0  0  0  0  0  0  0  0
    8.3936   -2.5567   22.8848 H   0  0  0  0  0  0  0  0  0  0  0  0
    9.2725   -0.8086   23.6536 C   0  0  0  0  0  0  0  0  0  0  0  0
    9.7977   -1.4192   24.5660 O   0  0  0  0  0  0  0  0  0  0  0  0
    9.3471    0.5528   23.5297 N   0  0  0  0  0  0  0  0  0  0  0  0
    9.1151    0.9204   22.6198 H   0  0  0  0  0  0  0  0  0  0  0  0
   10.3392    1.2988   24.2802 C   0  0  0  0  0  0  0  0  0  0  0  0
   10.0812    2.3621   24.2132 H   0  0  0  0  0  0  0  0  0  0  0  0
   10.2791    1.0342   25.3428 H   0  0  0  0  0  0  0  0  0  0  0  0
   11.7467    1.0324   23.7945 C   0  0  0  0  0  0  0  0  0  0  0  0
   12.1448    1.0747   22.1110 S   0  0  0  0  0  0  0  0  0  0  0  0
   13.7442    0.5235   22.4195 C   0  0  0  0  0  0  0  0  0  0  0  0
   14.4074    0.3187   21.5903 H   0  0  0  0  0  0  0  0  0  0  0  0
   13.9774    0.3609   23.7449 C   0  0  0  0  0  0  0  0  0  0  0  0
   14.9155    0.0037   24.1471 H   0  0  0  0  0  0  0  0  0  0  0  0
   12.8246    0.6483   24.5344 C   0  0  0  0  0  0  0  0  0  0  0  0
   12.7859    0.5160   25.6094 H   0  0  0  0  0  0  0  0  0  0  0  0
    8.8067   -1.1994   21.1314 C   0  0  0  0  0  0  0  0  0  0  0  0
    9.7942   -0.7881   20.8831 H   0  0  0  0  0  0  0  0  0  0  0  0
    8.6182   -2.0653   20.4802 H   0  0  0  0  0  0  0  0  0  0  0  0
    5.6846    0.7087   20.1952 C   0  0  0  0  0  0  0  0  0  0  0  0
    5.2774    0.7535   21.2042 H   0  0  0  0  0  0  0  0  0  0  0  0
    4.9835    1.2004   19.0945 C   0  0  0  0  0  0  0  0  0  0  0  0
    4.0142    1.6693   19.2190 H   0  0  0  0  0  0  0  0  0  0  0  0
  1  2  1  0
  2  3  2  0
  3  4  1  0
  4  5  1  0
  4  6  2  0
  6  7  1  0
  7  8  1  0
  8  9  1  0
  8 10  1  0
  8 11  1  0
 11 12  1  0
 11 13  1  0
 13 14  2  0
 13 15  1  0
 15 16  1  0
 15 17  1  0
 17 18  1  0
 17 19  1  0
 17 20  1  0
 20 21  1  0
 21 22  1  0
 22 23  1  0
 22 24  2  0
 24 25  1  0
 24 26  1  0
 26 27  1  0
 11 28  1  0
 28 29  1  0
 28 30  1  0
  6 31  1  0
 31 32  1  0
 31 33  2  0
 33 34  1  0
 33  2  1  0
 28  7  1  0
 26 20  2  0
M  END
>  <cnnaffinity>  (1) 
-5.34688

>  <filename>  (1) 
O=C(NCc1cccs1)C1CN(c2cccnc2)C1

$$$$
