
     RDKit          3D

 35 38  0  0  0  0  0  0  0  0999 V2000
    5.0367    1.8343   16.8541 H   0  0  0  0  0  0  0  0  0  0  0  0
    5.4388    1.2935   17.7090 C   0  0  0  0  0  0  0  0  0  0  0  0
    6.5792    0.6187   17.5055 N   0  0  0  0  0  0  0  0  0  0  0  0
    7.1193   -0.0235   18.5450 C   0  0  0  0  0  0  0  0  0  0  0  0
    8.0386   -0.5703   18.3452 H   0  0  0  0  0  0  0  0  0  0  0  0
    6.5669   -0.0191   19.8392 C   0  0  0  0  0  0  0  0  0  0  0  0
    7.3197   -0.6166   20.9566 C   0  0  0  0  0  0  0  0  0  0  0  0
    8.4422   -1.3168   20.7260 N   0  0  0  0  0  0  0  0  0  0  0  0
    8.9046   -1.5633   21.9661 N   0  0  0  0  0  0  0  0  0  0  0  0
   10.0438   -2.1745   22.4833 C   0  0  0  0  0  0  0  0  0  0  0  0
   10.7652   -2.6471   21.8432 H   0  0  0  0  0  0  0  0  0  0  0  0
    9.9828   -2.0156   23.8180 C   0  0  0  0  0  0  0  0  0  0  0  0
   10.6566   -2.3440   24.5962 H   0  0  0  0  0  0  0  0  0  0  0  0
    8.7964   -1.3277   24.1435 N   0  0  0  0  0  0  0  0  0  0  0  0
    8.4741   -0.8664   25.4390 C   0  0  0  0  0  0  0  0  0  0  0  0
    9.3267   -0.7775   26.2954 O   0  0  0  0  0  0  0  0  0  0  0  0
    7.1406   -0.5672   25.5962 N   0  0  0  0  0  0  0  0  0  0  0  0
    6.5534   -0.8313   24.8172 H   0  0  0  0  0  0  0  0  0  0  0  0
    6.5139   -0.0543   26.7602 C   0  0  0  0  0  0  0  0  0  0  0  0
    5.2615    0.5914   26.6938 C   0  0  0  0  0  0  0  0  0  0  0  0
    4.7471    0.6914   25.7379 H   0  0  0  0  0  0  0  0  0  0  0  0
    4.6466    1.1177   27.7592 N   0  0  0  0  0  0  0  0  0  0  0  0
    5.2415    1.0012   28.9551 C   0  0  0  0  0  0  0  0  0  0  0  0
    4.7051    1.4344   29.7949 H   0  0  0  0  0  0  0  0  0  0  0  0
    6.4756    0.3690   29.1319 C   0  0  0  0  0  0  0  0  0  0  0  0
    6.9216    0.2936   30.1195 H   0  0  0  0  0  0  0  0  0  0  0  0
    7.1269   -0.1596   28.0139 C   0  0  0  0  0  0  0  0  0  0  0  0
    8.0997   -0.6345   28.0506 H   0  0  0  0  0  0  0  0  0  0  0  0
    8.1359   -1.0586   22.9409 C   0  0  0  0  0  0  0  0  0  0  0  0
    7.0460   -0.4520   22.3403 C   0  0  0  0  0  0  0  0  0  0  0  0
    6.1713   -0.0134   22.7832 H   0  0  0  0  0  0  0  0  0  0  0  0
    5.3420    0.6450   20.0183 C   0  0  0  0  0  0  0  0  0  0  0  0
    4.8331    0.6216   20.9819 H   0  0  0  0  0  0  0  0  0  0  0  0
    4.7775    1.3204   18.9393 C   0  0  0  0  0  0  0  0  0  0  0  0
    3.8526    1.8746   19.0407 H   0  0  0  0  0  0  0  0  0  0  0  0
  1  2  1  0
  2  3  2  0
  3  4  1  0
  4  5  1  0
  4  6  2  0
  6  7  1  0
  7  8  2  0
  8  9  1  0
  9 10  1  0
 10 11  1  0
 10 12  2  0
 12 13  1  0
 12 14  1  0
 14 15  1  0
 15 16  2  0
 15 17  1  0
 17 18  1  0
 17 19  1  0
 19 20  2  0
 20 21  1  0
 20 22  1  0
 22 23  2  0
 23 24  1  0
 23 25  1  0
 25 26  1  0
 25 27  2  0
 27 28  1  0
 14 29  1  0
 29 30  2  0
 30 31  1  0
  6 32  1  0
 32 33  1  0
 32 34  2  0
 34 35  1  0
 34  2  1  0
 30  7  1  0
 29  9  1  0
 27 19  1  0
M  END
>  <cnnaffinity>  (1) 
-5.44354

>  <filename>  (1) 
O=C(Nc1cccnc1)n1ccn2nc(-c3cccnc3)cc12

$$$$
