
     RDKit          3D

 30 31  0  0  0  0  0  0  0  0999 V2000
   12.6076    0.8330   23.5418 H   0  0  0  0  0  0  0  0  0  0  0  0
   11.7094    0.5729   23.8320 O   0  0  0  0  0  0  0  0  0  0  0  0
   10.8360    0.9131   22.8079 N   0  0  0  0  0  0  0  0  0  0  0  0
   10.2909    0.1320   22.4599 H   0  0  0  0  0  0  0  0  0  0  0  0
   10.2959    2.1648   22.6109 C   0  0  0  0  0  0  0  0  0  0  0  0
   10.6486    3.1842   23.1674 O   0  0  0  0  0  0  0  0  0  0  0  0
    9.2174    2.1632   21.5392 C   0  0  0  0  0  0  0  0  0  0  0  0
    9.3859    3.0722   20.9783 H   0  0  0  0  0  0  0  0  0  0  0  0
    9.3015    1.3224   20.8407 H   0  0  0  0  0  0  0  0  0  0  0  0
    7.7960    2.2202   22.1337 C   0  0  0  0  0  0  0  0  0  0  0  0
    7.0663    2.4490   21.3457 H   0  0  0  0  0  0  0  0  0  0  0  0
    7.7269    3.0433   22.8568 H   0  0  0  0  0  0  0  0  0  0  0  0
    7.4605    0.9081   22.7657 C   0  0  0  0  0  0  0  0  0  0  0  0
    7.3302   -0.3499   22.1959 C   0  0  0  0  0  0  0  0  0  0  0  0
    7.3850   -0.6903   20.8662 O   0  0  0  0  0  0  0  0  0  0  0  0
    6.6508    0.0080   19.9340 C   0  0  0  0  0  0  0  0  0  0  0  0
    7.1776    0.0498   18.6298 C   0  0  0  0  0  0  0  0  0  0  0  0
    8.1235   -0.4459   18.4253 H   0  0  0  0  0  0  0  0  0  0  0  0
    6.5790    0.6668   17.6053 N   0  0  0  0  0  0  0  0  0  0  0  0
    5.4128    1.2847   17.8504 C   0  0  0  0  0  0  0  0  0  0  0  0
    4.9541    1.7875   17.0032 H   0  0  0  0  0  0  0  0  0  0  0  0
    4.8072    1.2959   19.1106 C   0  0  0  0  0  0  0  0  0  0  0  0
    3.8764    1.8347   19.2447 H   0  0  0  0  0  0  0  0  0  0  0  0
    5.4227    0.6330   20.1817 C   0  0  0  0  0  0  0  0  0  0  0  0
    4.9843    0.6228   21.1809 H   0  0  0  0  0  0  0  0  0  0  0  0
    7.2750   -1.2635   23.2696 C   0  0  0  0  0  0  0  0  0  0  0  0
    7.1789   -2.3449   23.2551 H   0  0  0  0  0  0  0  0  0  0  0  0
    7.3668   -0.6185   24.4366 N   0  0  0  0  0  0  0  0  0  0  0  0
    7.4762    0.6704   24.1055 N   0  0  0  0  0  0  0  0  0  0  0  0
    7.6541    1.3583   24.8270 H   0  0  0  0  0  0  0  0  0  0  0  0
  1  2  1  0
  2  3  1  0
  3  4  1  0
  3  5  1  0
  5  6  2  0
  5  7  1  0
  7  8  1  0
  7  9  1  0
  7 10  1  0
 10 11  1  0
 10 12  1  0
 10 13  1  0
 13 14  2  0
 14 15  1  0
 15 16  1  0
 16 17  2  0
 17 18  1  0
 17 19  1  0
 19 20  2  0
 20 21  1  0
 20 22  1  0
 22 23  1  0
 22 24  2  0
 24 25  1  0
 14 26  1  0
 26 27  1  0
 26 28  2  0
 28 29  1  0
 29 30  1  0
 29 13  1  0
 24 16  1  0
M  END
>  <cnnaffinity>  (1) 
-5.02751

>  <filename>  (1) 
O=C(CCc1[nH]ncc1Oc1cccnc1)NO

$$$$
