
     RDKit          3D

 38 41  0  0  0  0  0  0  0  0999 V2000
    2.1917   -7.3113   22.2663 H   0  0  0  0  0  0  0  0  0  0  0  0
    2.9230   -7.2494   22.9030 O   0  0  0  0  0  0  0  0  0  0  0  0
    3.1136   -5.9184   22.8704 C   0  0  0  0  0  0  0  0  0  0  0  0
    2.4152   -5.2594   22.1311 O   0  0  0  0  0  0  0  0  0  0  0  0
    4.1674   -5.4024   23.7973 C   0  0  0  0  0  0  0  0  0  0  0  0
    4.6433   -6.1846   24.8680 C   0  0  0  0  0  0  0  0  0  0  0  0
    4.3007   -7.2117   24.9868 H   0  0  0  0  0  0  0  0  0  0  0  0
    5.5696   -5.6432   25.7592 C   0  0  0  0  0  0  0  0  0  0  0  0
    5.9316   -6.2519   26.5816 H   0  0  0  0  0  0  0  0  0  0  0  0
    6.0485   -4.3426   25.5879 C   0  0  0  0  0  0  0  0  0  0  0  0
    6.7708   -3.9437   26.2965 H   0  0  0  0  0  0  0  0  0  0  0  0
    5.6315   -3.5628   24.4921 C   0  0  0  0  0  0  0  0  0  0  0  0
    6.2556   -2.2491   24.1990 C   0  0  0  0  0  0  0  0  0  0  0  0
    6.6991   -1.7093   23.0023 C   0  0  0  0  0  0  0  0  0  0  0  0
    7.2953   -0.4968   23.3357 C   0  0  0  0  0  0  0  0  0  0  0  0
    7.2537   -0.2396   24.6280 N   0  0  0  0  0  0  0  0  0  0  0  0
    6.6258   -1.3269   25.1407 N   0  0  0  0  0  0  0  0  0  0  0  0
    6.4858   -1.3645   26.1461 H   0  0  0  0  0  0  0  0  0  0  0  0
    7.8380    0.2370   22.1456 C   0  0  0  0  0  0  0  0  0  0  0  0
    7.4097    1.2393   22.0686 H   0  0  0  0  0  0  0  0  0  0  0  0
    8.9218    0.3702   22.2083 H   0  0  0  0  0  0  0  0  0  0  0  0
    7.4536   -0.6894   20.9380 C   0  0  2  0  0  0  0  0  0  0  0  0
    8.3885   -1.0755   20.5209 H   0  0  0  0  0  0  0  0  0  0  0  0
    6.6971    0.0293   19.8394 C   0  0  0  0  0  0  0  0  0  0  0  0
    7.1718    0.0847   18.5144 C   0  0  0  0  0  0  0  0  0  0  0  0
    8.1097   -0.4030   18.2549 H   0  0  0  0  0  0  0  0  0  0  0  0
    6.5508    0.7046   17.5039 N   0  0  0  0  0  0  0  0  0  0  0  0
    5.3945    1.3214   17.7835 C   0  0  0  0  0  0  0  0  0  0  0  0
    4.9110    1.8394   16.9561 H   0  0  0  0  0  0  0  0  0  0  0  0
    4.8164    1.3219   19.0572 C   0  0  0  0  0  0  0  0  0  0  0  0
    3.8773    1.8371   19.2155 H   0  0  0  0  0  0  0  0  0  0  0  0
    5.4751    0.6687   20.1003 C   0  0  0  0  0  0  0  0  0  0  0  0
    5.0473    0.6638   21.1068 H   0  0  0  0  0  0  0  0  0  0  0  0
    6.6702   -1.9176   21.5197 C   0  0  0  0  0  0  0  0  0  0  0  0
    5.6413   -1.9506   21.1428 H   0  0  0  0  0  0  0  0  0  0  0  0
    7.1248   -2.8666   21.2170 H   0  0  0  0  0  0  0  0  0  0  0  0
    4.6791   -4.1024   23.6108 C   0  0  0  0  0  0  0  0  0  0  0  0
    4.3382   -3.5128   22.7628 H   0  0  0  0  0  0  0  0  0  0  0  0
  1  2  1  0
  2  3  1  0
  3  4  2  0
  3  5  1  0
  5  6  2  0
  6  7  1  0
  6  8  1  0
  8  9  1  0
  8 10  2  0
 10 11  1  0
 10 12  1  0
 12 13  1  0
 13 14  2  0
 14 15  1  0
 15 16  2  0
 16 17  1  0
 17 18  1  0
 15 19  1  0
 19 20  1  0
 19 21  1  0
 19 22  1  0
 22 23  1  6
 22 24  1  0
 24 25  2  0
 25 26  1  0
 25 27  1  0
 27 28  2  0
 28 29  1  0
 28 30  1  0
 30 31  1  0
 30 32  2  0
 32 33  1  0
 22 34  1  0
 34 35  1  0
 34 36  1  0
 12 37  2  0
 37 38  1  0
 37  5  1  0
 17 13  1  0
 32 24  1  0
 34 14  1  0
M  END
>  <cnnaffinity>  (1) 
-5.35819

>  <filename>  (1) 
O=C(O)c1cccc(-c2[nH]nc3c2C[C@@H](c2cccnc2)C3)c1

$$$$
