
     RDKit          3D

 31 32  0  0  0  0  0  0  0  0999 V2000
    5.0969    1.7575   17.0174 H   0  0  0  0  0  0  0  0  0  0  0  0
    5.5237    1.2535   17.8830 C   0  0  0  0  0  0  0  0  0  0  0  0
    6.6787    0.6024   17.6830 N   0  0  0  0  0  0  0  0  0  0  0  0
    7.2267   -0.0228   18.7273 C   0  0  0  0  0  0  0  0  0  0  0  0
    8.1612   -0.5469   18.5352 H   0  0  0  0  0  0  0  0  0  0  0  0
    6.6765   -0.0095   20.0125 C   0  0  0  0  0  0  0  0  0  0  0  0
    7.4347   -0.7570   21.0458 C   0  0  0  0  0  0  0  0  0  0  0  0
    8.1988   -1.6706   20.7650 O   0  0  0  0  0  0  0  0  0  0  0  0
    7.2216   -0.3309   22.3400 N   0  0  0  0  0  0  0  0  0  0  0  0
    7.4675    0.6486   22.4435 H   0  0  0  0  0  0  0  0  0  0  0  0
    7.8587   -1.0803   23.4002 C   0  0  0  0  0  0  0  0  0  0  0  0
    7.5904   -2.1408   23.3393 H   0  0  0  0  0  0  0  0  0  0  0  0
    7.5100   -0.6886   24.3629 H   0  0  0  0  0  0  0  0  0  0  0  0
    9.2965   -0.9915   23.2836 N   0  0  0  0  0  0  0  0  0  0  0  0
    9.5665   -1.4772   22.4386 H   0  0  0  0  0  0  0  0  0  0  0  0
    9.8734    0.2556   23.3290 C   0  0  0  0  0  0  0  0  0  0  0  0
    9.2480    1.2500   23.6747 O   0  0  0  0  0  0  0  0  0  0  0  0
   11.3701    0.2789   22.9819 C   0  0  0  0  0  0  0  0  0  0  0  0
   12.0336   -0.6992   22.1984 C   0  0  0  0  0  0  0  0  0  0  0  0
   11.5123   -1.5075   21.6847 H   0  0  0  0  0  0  0  0  0  0  0  0
   13.4253   -0.6348   22.0473 C   0  0  0  0  0  0  0  0  0  0  0  0
   13.9459   -1.4186   21.4991 H   0  0  0  0  0  0  0  0  0  0  0  0
   14.1819    0.3528   22.5428 N   0  0  0  0  0  0  0  0  0  0  0  0
   13.5526    1.3078   23.2394 C   0  0  0  0  0  0  0  0  0  0  0  0
   14.1660    2.1103   23.6276 H   0  0  0  0  0  0  0  0  0  0  0  0
   12.1796    1.3061   23.5063 C   0  0  0  0  0  0  0  0  0  0  0  0
   11.7537    2.0903   24.1271 H   0  0  0  0  0  0  0  0  0  0  0  0
    5.4573    0.6668   20.2129 C   0  0  0  0  0  0  0  0  0  0  0  0
    4.9936    0.6977   21.2002 H   0  0  0  0  0  0  0  0  0  0  0  0
    4.8682    1.2984   19.1196 C   0  0  0  0  0  0  0  0  0  0  0  0
    3.9374    1.8487   19.2148 H   0  0  0  0  0  0  0  0  0  0  0  0
  1  2  1  0
  2  3  2  0
  3  4  1  0
  4  5  1  0
  4  6  2  0
  6  7  1  0
  7  8  2  0
  7  9  1  0
  9 10  1  0
  9 11  1  0
 11 12  1  0
 11 13  1  0
 11 14  1  0
 14 15  1  0
 14 16  1  0
 16 17  2  0
 16 18  1  0
 18 19  2  0
 19 20  1  0
 19 21  1  0
 21 22  1  0
 21 23  2  0
 23 24  1  0
 24 25  1  0
 24 26  2  0
 26 27  1  0
  6 28  1  0
 28 29  1  0
 28 30  2  0
 30 31  1  0
 30  2  1  0
 26 18  1  0
M  END
>  <cnnaffinity>  (1) 
-5.05999

>  <filename>  (1) 
O=C(NCNC(=O)c1cccnc1)c1ccncc1

$$$$
