
     RDKit          3D

 29 31  0  0  0  0  0  0  0  0999 V2000
    4.9114    1.7833   16.9930 H   0  0  0  0  0  0  0  0  0  0  0  0
    5.4014    1.2955   17.8337 C   0  0  0  0  0  0  0  0  0  0  0  0
    6.5653    0.6780   17.5716 N   0  0  0  0  0  0  0  0  0  0  0  0
    7.1733    0.0594   18.5963 C   0  0  0  0  0  0  0  0  0  0  0  0
    8.1209   -0.4283   18.3779 H   0  0  0  0  0  0  0  0  0  0  0  0
    6.6678    0.0055   19.9165 C   0  0  0  0  0  0  0  0  0  0  0  0
    7.3249   -0.7109   20.9513 N   0  0  0  0  0  0  0  0  0  0  0  0
    7.4523   -0.3648   22.3023 C   0  0  0  0  0  0  0  0  0  0  0  0
    7.2570    1.0880   22.8075 C   0  0  0  0  0  0  0  0  0  0  0  0
    7.4436    2.0452   22.0763 O   0  0  0  0  0  0  0  0  0  0  0  0
    6.8542    1.2816   24.2313 C   0  0  0  0  0  0  0  0  0  0  0  0
    6.9807    2.8648   24.9350 S   0  0  0  0  0  0  0  0  0  0  0  0
    6.3530    2.2930   26.4252 C   0  0  0  0  0  0  0  0  0  0  0  0
    6.2231    2.9630   27.2622 H   0  0  0  0  0  0  0  0  0  0  0  0
    6.0506    0.9582   26.3913 C   0  0  0  0  0  0  0  0  0  0  0  0
    5.6375    0.4008   27.2303 H   0  0  0  0  0  0  0  0  0  0  0  0
    6.3355    0.3707   25.1292 C   0  0  0  0  0  0  0  0  0  0  0  0
    6.1705   -0.6819   24.8915 H   0  0  0  0  0  0  0  0  0  0  0  0
    7.8096   -1.3334   23.0673 N   0  0  0  0  0  0  0  0  0  0  0  0
    8.0240   -2.5128   22.2409 C   0  0  0  0  0  0  0  0  0  0  0  0
    7.3402   -3.3052   22.5568 H   0  0  0  0  0  0  0  0  0  0  0  0
    9.0464   -2.8850   22.3686 H   0  0  0  0  0  0  0  0  0  0  0  0
    7.7611   -2.0897   20.7903 C   0  0  0  0  0  0  0  0  0  0  0  0
    6.9757   -2.6849   20.3045 H   0  0  0  0  0  0  0  0  0  0  0  0
    8.6760   -2.1273   20.1876 H   0  0  0  0  0  0  0  0  0  0  0  0
    5.4442    0.6471   20.1611 C   0  0  0  0  0  0  0  0  0  0  0  0
    5.0095    0.6262   21.1638 H   0  0  0  0  0  0  0  0  0  0  0  0
    4.8100    1.3070   19.1036 C   0  0  0  0  0  0  0  0  0  0  0  0
    3.8774    1.8412   19.2631 H   0  0  0  0  0  0  0  0  0  0  0  0
  1  2  1  0
  2  3  2  0
  3  4  1  0
  4  5  1  0
  4  6  2  0
  6  7  1  0
  7  8  1  0
  8  9  1  0
  9 10  2  0
  9 11  1  0
 11 12  1  0
 12 13  1  0
 13 14  1  0
 13 15  2  0
 15 16  1  0
 15 17  1  0
 17 18  1  0
  8 19  2  0
 19 20  1  0
 20 21  1  0
 20 22  1  0
 20 23  1  0
 23 24  1  0
 23 25  1  0
  6 26  1  0
 26 27  1  0
 26 28  2  0
 28 29  1  0
 28  2  1  0
 23  7  1  0
 17 11  2  0
M  END
>  <cnnaffinity>  (1) 
-4.74221

>  <filename>  (1) 
O=C(C1=NCCN1c1cccnc1)c1cccs1

$$$$
