
     RDKit          3D

 33 34  0  0  0  0  0  0  0  0999 V2000
    5.0728    1.8469   16.5546 H   0  0  0  0  0  0  0  0  0  0  0  0
    5.3214    1.3035   17.4635 C   0  0  0  0  0  0  0  0  0  0  0  0
    6.3431    0.4386   17.3719 N   0  0  0  0  0  0  0  0  0  0  0  0
    6.6934   -0.2249   18.4846 C   0  0  0  0  0  0  0  0  0  0  0  0
    7.5304   -0.9166   18.3925 H   0  0  0  0  0  0  0  0  0  0  0  0
    6.0614   -0.0467   19.7311 C   0  0  0  0  0  0  0  0  0  0  0  0
    6.6707   -0.8467   21.2187 S   0  0  0  0  0  0  0  0  0  0  0  0
    7.5055    0.6311   22.0004 C   0  0  0  0  0  0  0  0  0  0  0  0
    6.9842    1.2525   22.8823 O   0  0  0  0  0  0  0  0  0  0  0  0
    8.8753    0.9327   21.4337 C   0  0  0  0  0  0  0  0  0  0  0  0
    8.9908    2.0210   21.4260 H   0  0  0  0  0  0  0  0  0  0  0  0
    8.9027    0.6041   20.3918 H   0  0  0  0  0  0  0  0  0  0  0  0
    9.9856    0.2614   22.2832 C   0  0  0  0  0  0  0  0  0  0  0  0
    9.5897   -0.6765   22.7045 H   0  0  0  0  0  0  0  0  0  0  0  0
   11.2053   -0.1146   21.4341 C   0  0  0  0  0  0  0  0  0  0  0  0
   10.9055   -0.7546   20.5982 H   0  0  0  0  0  0  0  0  0  0  0  0
   11.6043    0.8049   20.9866 H   0  0  0  0  0  0  0  0  0  0  0  0
   12.3169   -0.7740   22.2594 C   0  0  0  0  0  0  0  0  0  0  0  0
   11.9502   -1.7203   22.6850 H   0  0  0  0  0  0  0  0  0  0  0  0
   13.1595   -1.0500   21.6139 H   0  0  0  0  0  0  0  0  0  0  0  0
   12.7567    0.1705   23.3900 C   0  0  0  0  0  0  0  0  0  0  0  0
   13.1741    1.0910   22.9506 H   0  0  0  0  0  0  0  0  0  0  0  0
   13.5825   -0.2536   23.9643 H   0  0  0  0  0  0  0  0  0  0  0  0
   11.5639    0.5449   24.2933 C   0  0  0  0  0  0  0  0  0  0  0  0
   11.8949    1.2516   25.0663 H   0  0  0  0  0  0  0  0  0  0  0  0
   11.2042   -0.3501   24.8269 H   0  0  0  0  0  0  0  0  0  0  0  0
   10.4265    1.1617   23.4543 C   0  0  0  0  0  0  0  0  0  0  0  0
   10.8263    2.0958   23.0231 H   0  0  0  0  0  0  0  0  0  0  0  0
    9.5559    1.4292   24.0670 H   0  0  0  0  0  0  0  0  0  0  0  0
    4.9726    0.8334   19.7977 C   0  0  0  0  0  0  0  0  0  0  0  0
    4.4588    0.9862   20.7478 H   0  0  0  0  0  0  0  0  0  0  0  0
    4.5944    1.5240   18.6408 C   0  0  0  0  0  0  0  0  0  0  0  0
    3.7825    2.2451   18.6493 H   0  0  0  0  0  0  0  0  0  0  0  0
  1  2  1  0
  2  3  2  0
  3  4  1  0
  4  5  1  0
  4  6  2  0
  6  7  1  0
  7  8  1  0
  8  9  2  0
  8 10  1  0
 10 11  1  0
 10 12  1  0
 10 13  1  0
 13 14  1  0
 13 15  1  0
 15 16  1  0
 15 17  1  0
 15 18  1  0
 18 19  1  0
 18 20  1  0
 18 21  1  0
 21 22  1  0
 21 23  1  0
 21 24  1  0
 24 25  1  0
 24 26  1  0
 24 27  1  0
 27 28  1  0
 27 29  1  0
  6 30  1  0
 30 31  1  0
 30 32  2  0
 32 33  1  0
 32  2  1  0
 27 13  1  0
M  END
>  <cnnaffinity>  (1) 
-5.01349

>  <filename>  (1) 
O=C(CC1CCCCC1)Sc1cccnc1

$$$$
