
     RDKit          3D

 41 43  0  0  0  0  0  0  0  0999 V2000
    5.0192    1.7622   16.9935 H   0  0  0  0  0  0  0  0  0  0  0  0
    5.4687    1.2571   17.8470 C   0  0  0  0  0  0  0  0  0  0  0  0
    6.6208    0.6162   17.6082 N   0  0  0  0  0  0  0  0  0  0  0  0
    7.2084    0.0007   18.6348 C   0  0  0  0  0  0  0  0  0  0  0  0
    8.1550   -0.4965   18.4318 H   0  0  0  0  0  0  0  0  0  0  0  0
    6.6721   -0.0357   19.9278 C   0  0  0  0  0  0  0  0  0  0  0  0
    7.4218   -0.7688   20.9735 C   0  0  0  0  0  0  0  0  0  0  0  0
    8.7647   -0.7099   20.9198 N   0  0  0  0  0  0  0  0  0  0  0  0
    9.4952   -1.3170   21.8614 N   0  0  0  0  0  0  0  0  0  0  0  0
    8.9122   -2.0024   22.8472 C   0  0  0  0  0  0  0  0  0  0  0  0
    9.5738   -2.4751   23.5620 H   0  0  0  0  0  0  0  0  0  0  0  0
    7.5006   -2.1111   22.9517 C   0  0  0  0  0  0  0  0  0  0  0  0
    6.8318   -2.7602   23.9948 N   0  0  0  0  0  0  0  0  0  0  0  0
    5.8398   -2.6012   24.0445 H   0  0  0  0  0  0  0  0  0  0  0  0
    7.2066   -3.9554   24.5794 C   0  0  0  0  0  0  0  0  0  0  0  0
    8.2021   -4.5750   24.2777 O   0  0  0  0  0  0  0  0  0  0  0  0
    6.2681   -4.3169   25.5350 N   0  0  0  0  0  0  0  0  0  0  0  0
    5.9328   -3.4755   25.9796 H   0  0  0  0  0  0  0  0  0  0  0  0
    6.6649   -5.3445   26.4902 C   0  0  0  0  0  0  0  0  0  0  0  0
    6.9249   -6.2463   25.9108 H   0  0  0  0  0  0  0  0  0  0  0  0
    7.8965   -4.9255   27.3074 C   0  0  0  0  0  0  0  0  0  0  0  0
    7.6261   -4.0955   27.9778 H   0  0  0  0  0  0  0  0  0  0  0  0
    8.6887   -4.5736   26.6381 H   0  0  0  0  0  0  0  0  0  0  0  0
    8.3839   -6.1201   28.1130 C   0  0  0  0  0  0  0  0  0  0  0  0
    8.6677   -6.8980   27.3921 H   0  0  0  0  0  0  0  0  0  0  0  0
    9.2946   -5.8505   28.6558 H   0  0  0  0  0  0  0  0  0  0  0  0
    7.3104   -6.6658   29.0682 C   0  0  0  0  0  0  0  0  0  0  0  0
    7.2396   -5.9941   29.9352 H   0  0  0  0  0  0  0  0  0  0  0  0
    7.6329   -7.6414   29.4573 H   0  0  0  0  0  0  0  0  0  0  0  0
    5.9276   -6.8398   28.3935 C   0  0  0  0  0  0  0  0  0  0  0  0
    5.9398   -7.7573   27.7865 H   0  0  0  0  0  0  0  0  0  0  0  0
    5.1625   -6.9933   29.1651 H   0  0  0  0  0  0  0  0  0  0  0  0
    5.5224   -5.6875   27.4463 C   0  0  0  0  0  0  0  0  0  0  0  0
    5.2484   -4.7739   27.9983 H   0  0  0  0  0  0  0  0  0  0  0  0
    4.6448   -5.9751   26.8590 H   0  0  0  0  0  0  0  0  0  0  0  0
    6.7525   -1.4973   21.9642 C   0  0  0  0  0  0  0  0  0  0  0  0
    5.6778   -1.6188   21.9217 H   0  0  0  0  0  0  0  0  0  0  0  0
    5.4571    0.6236   20.1658 C   0  0  0  0  0  0  0  0  0  0  0  0
    5.0004    0.6402   21.1581 H   0  0  0  0  0  0  0  0  0  0  0  0
    4.8538    1.2935   19.1018 C   0  0  0  0  0  0  0  0  0  0  0  0
    3.9262    1.8399   19.2238 H   0  0  0  0  0  0  0  0  0  0  0  0
  1  2  1  0
  2  3  2  0
  3  4  1  0
  4  5  1  0
  4  6  2  0
  6  7  1  0
  7  8  2  0
  8  9  1  0
  9 10  2  0
 10 11  1  0
 10 12  1  0
 12 13  1  0
 13 14  1  0
 13 15  1  0
 15 16  2  0
 15 17  1  0
 17 18  1  0
 17 19  1  0
 19 20  1  0
 19 21  1  0
 21 22  1  0
 21 23  1  0
 21 24  1  0
 24 25  1  0
 24 26  1  0
 24 27  1  0
 27 28  1  0
 27 29  1  0
 27 30  1  0
 30 31  1  0
 30 32  1  0
 30 33  1  0
 33 34  1  0
 33 35  1  0
 12 36  2  0
 36 37  1  0
  6 38  1  0
 38 39  1  0
 38 40  2  0
 40 41  1  0
 40  2  1  0
 36  7  1  0
 33 19  1  0
M  END
>  <cnnaffinity>  (1) 
-5.28584

>  <filename>  (1) 
O=C(Nc1cnnc(-c2cccnc2)c1)NC1CCCCC1

$$$$
