
     RDKit          3D

 39 42  0  0  0  0  0  0  0  0999 V2000
    4.9440    1.8601   16.9007 H   0  0  0  0  0  0  0  0  0  0  0  0
    5.3851    1.3219   17.7385 C   0  0  0  0  0  0  0  0  0  0  0  0
    6.5302    0.6696   17.4894 N   0  0  0  0  0  0  0  0  0  0  0  0
    7.1122    0.0340   18.5117 C   0  0  0  0  0  0  0  0  0  0  0  0
    8.0332   -0.4981   18.2776 H   0  0  0  0  0  0  0  0  0  0  0  0
    6.6023    0.0329   19.8263 C   0  0  0  0  0  0  0  0  0  0  0  0
    7.3754   -0.5701   20.9209 C   0  0  0  0  0  0  0  0  0  0  0  0
    8.2240   -1.5812   20.7122 N   0  0  0  0  0  0  0  0  0  0  0  0
    8.7494   -1.8013   21.9147 N   0  0  0  0  0  0  0  0  0  0  0  0
    8.3489   -0.9726   22.8851 C   0  0  0  0  0  0  0  0  0  0  0  0
    7.4072   -0.1576   22.2982 C   0  0  0  0  0  0  0  0  0  0  0  0
    6.6996    0.8813   22.9389 N   0  0  0  0  0  0  0  0  0  0  0  0
    6.8210    1.7927   22.5251 H   0  0  0  0  0  0  0  0  0  0  0  0
    6.4410    0.9116   24.2948 C   0  0  0  0  0  0  0  0  0  0  0  0
    6.5487   -0.0654   25.0156 O   0  0  0  0  0  0  0  0  0  0  0  0
    6.0294    2.2585   24.8261 C   0  0  0  0  0  0  0  0  0  0  0  0
    6.1684    2.4948   26.2033 C   0  0  0  0  0  0  0  0  0  0  0  0
    6.5726    1.7011   26.8268 H   0  0  0  0  0  0  0  0  0  0  0  0
    5.7919    3.7184   26.7557 C   0  0  0  0  0  0  0  0  0  0  0  0
    5.9168    3.8767   27.8212 H   0  0  0  0  0  0  0  0  0  0  0  0
    5.2599    4.7231   25.9415 C   0  0  0  0  0  0  0  0  0  0  0  0
    4.9664    5.6731   26.3772 H   0  0  0  0  0  0  0  0  0  0  0  0
    5.1279    4.5029   24.5678 C   0  0  0  0  0  0  0  0  0  0  0  0
    4.7421    5.2875   23.9241 H   0  0  0  0  0  0  0  0  0  0  0  0
    5.5142    3.2840   24.0117 C   0  0  0  0  0  0  0  0  0  0  0  0
    5.3941    3.1477   22.9385 H   0  0  0  0  0  0  0  0  0  0  0  0
    9.1108   -1.2264   24.1502 C   0  0  0  0  0  0  0  0  0  0  0  0
    8.4532   -1.6589   24.9152 H   0  0  0  0  0  0  0  0  0  0  0  0
    9.5214   -0.3037   24.5608 H   0  0  0  0  0  0  0  0  0  0  0  0
   10.2298   -2.1784   23.6586 C   0  0  0  0  0  0  0  0  0  0  0  0
   11.1367   -1.6039   23.4444 H   0  0  0  0  0  0  0  0  0  0  0  0
   10.4718   -2.9412   24.3973 H   0  0  0  0  0  0  0  0  0  0  0  0
    9.7336   -2.7695   22.3124 C   0  0  0  0  0  0  0  0  0  0  0  0
   10.5257   -2.7841   21.5667 H   0  0  0  0  0  0  0  0  0  0  0  0
    9.2754   -3.7614   22.4100 H   0  0  0  0  0  0  0  0  0  0  0  0
    5.3636    0.6597   20.0485 C   0  0  0  0  0  0  0  0  0  0  0  0
    4.8977    0.6168   21.0354 H   0  0  0  0  0  0  0  0  0  0  0  0
    4.7525    1.3233   18.9864 C   0  0  0  0  0  0  0  0  0  0  0  0
    3.8145    1.8516   19.1140 H   0  0  0  0  0  0  0  0  0  0  0  0
  1  2  1  0
  2  3  2  0
  3  4  1  0
  4  5  1  0
  4  6  2  0
  6  7  1  0
  7  8  2  0
  8  9  1  0
  9 10  1  0
 10 11  2  0
 11 12  1  0
 12 13  1  0
 12 14  1  0
 14 15  2  0
 14 16  1  0
 16 17  2  0
 17 18  1  0
 17 19  1  0
 19 20  1  0
 19 21  2  0
 21 22  1  0
 21 23  1  0
 23 24  1  0
 23 25  2  0
 25 26  1  0
 10 27  1  0
 27 28  1  0
 27 29  1  0
 27 30  1  0
 30 31  1  0
 30 32  1  0
 30 33  1  0
 33 34  1  0
 33 35  1  0
  6 36  1  0
 36 37  1  0
 36 38  2  0
 38 39  1  0
 38  2  1  0
 11  7  1  0
 25 16  1  0
 33  9  1  0
M  END
>  <cnnaffinity>  (1) 
-5.50816

>  <filename>  (1) 
O=C(Nc1c(-c2cccnc2)nn2c1CCC2)c1ccccc1

$$$$
