
     RDKit          3D

 37 39  0  0  0  0  0  0  0  0999 V2000
    4.6837    0.6905   31.2969 H   0  0  0  0  0  0  0  0  0  0  0  0
    4.3441    0.9016   30.4070 O   0  0  0  0  0  0  0  0  0  0  0  0
    4.8719   -0.0561   29.5239 N   0  0  0  0  0  0  0  0  0  0  0  0
    4.1131   -0.4311   28.9644 H   0  0  0  0  0  0  0  0  0  0  0  0
    5.9384    0.2926   28.6794 C   0  0  0  0  0  0  0  0  0  0  0  0
    6.7202    1.1930   28.8833 O   0  0  0  0  0  0  0  0  0  0  0  0
    5.9932   -0.6214   27.4582 C   0  0  0  0  0  0  0  0  0  0  0  0
    7.0403   -0.6968   27.1420 H   0  0  0  0  0  0  0  0  0  0  0  0
    5.6821   -1.6398   27.7177 H   0  0  0  0  0  0  0  0  0  0  0  0
    5.1415   -0.0700   26.2884 C   0  0  0  0  0  0  0  0  0  0  0  0
    5.2849   -0.7262   25.4194 H   0  0  0  0  0  0  0  0  0  0  0  0
    4.0760   -0.1447   26.5419 H   0  0  0  0  0  0  0  0  0  0  0  0
    5.4752    1.3788   25.8861 C   0  0  0  0  0  0  0  0  0  0  0  0
    5.2909    2.0611   26.7275 H   0  0  0  0  0  0  0  0  0  0  0  0
    4.8066    1.6866   25.0699 H   0  0  0  0  0  0  0  0  0  0  0  0
    6.9437    1.5396   25.4418 C   0  0  0  0  0  0  0  0  0  0  0  0
    7.1400    2.5696   25.1253 H   0  0  0  0  0  0  0  0  0  0  0  0
    7.6075    1.3103   26.2825 H   0  0  0  0  0  0  0  0  0  0  0  0
    7.3011    0.6243   24.3143 C   0  0  0  0  0  0  0  0  0  0  0  0
    8.0490   -0.5023   24.4900 N   0  0  0  0  0  0  0  0  0  0  0  0
    8.0921   -0.9793   23.2606 C   0  0  0  0  0  0  0  0  0  0  0  0
    8.9619   -2.2083   22.3950 S   0  0  0  0  0  0  0  0  0  0  0  0
    8.3624   -1.5508   20.8934 C   0  0  0  0  0  0  0  0  0  0  0  0
    8.7404   -1.9342   19.9623 H   0  0  0  0  0  0  0  0  0  0  0  0
    7.4753   -0.5450   21.0541 C   0  0  0  0  0  0  0  0  0  0  0  0
    6.6851    0.1241   19.9958 C   0  0  0  0  0  0  0  0  0  0  0  0
    7.1903    0.1044   18.6818 C   0  0  0  0  0  0  0  0  0  0  0  0
    8.1353   -0.3933   18.4690 H   0  0  0  0  0  0  0  0  0  0  0  0
    6.5933    0.6737   17.6312 N   0  0  0  0  0  0  0  0  0  0  0  0
    5.4177    1.2823   17.8490 C   0  0  0  0  0  0  0  0  0  0  0  0
    4.9498    1.7347   16.9780 H   0  0  0  0  0  0  0  0  0  0  0  0
    4.8040    1.3402   19.1037 C   0  0  0  0  0  0  0  0  0  0  0  0
    3.8514    1.8497   19.2097 H   0  0  0  0  0  0  0  0  0  0  0  0
    5.4430    0.7571   20.1979 C   0  0  0  0  0  0  0  0  0  0  0  0
    5.0127    0.7992   21.1979 H   0  0  0  0  0  0  0  0  0  0  0  0
    7.3683   -0.2205   22.4118 N   0  0  0  0  0  0  0  0  0  0  0  0
    6.8661    0.8481   23.0851 N   0  0  0  0  0  0  0  0  0  0  0  0
  1  2  1  0
  2  3  1  0
  3  4  1  0
  3  5  1  0
  5  6  2  0
  5  7  1  0
  7  8  1  0
  7  9  1  0
  7 10  1  0
 10 11  1  0
 10 12  1  0
 10 13  1  0
 13 14  1  0
 13 15  1  0
 13 16  1  0
 16 17  1  0
 16 18  1  0
 16 19  1  0
 19 20  1  0
 20 21  2  0
 21 22  1  0
 22 23  1  0
 23 24  1  0
 23 25  2  0
 25 26  1  0
 26 27  2  0
 27 28  1  0
 27 29  1  0
 29 30  2  0
 30 31  1  0
 30 32  1  0
 32 33  1  0
 32 34  2  0
 34 35  1  0
 25 36  1  0
 36 37  1  0
 37 19  2  0
 36 21  1  0
 34 26  1  0
M  END
>  <cnnaffinity>  (1) 
-5.25167

>  <filename>  (1) 
O=C(CCCCc1nc2scc(-c3cccnc3)n2n1)NO

$$$$
