
     RDKit          3D

 25 26  0  0  0  0  0  0  0  0999 V2000
    4.9250    1.7757   17.0077 H   0  0  0  0  0  0  0  0  0  0  0  0
    5.4107    1.2824   17.8531 C   0  0  0  0  0  0  0  0  0  0  0  0
    6.5761    0.6635   17.6026 N   0  0  0  0  0  0  0  0  0  0  0  0
    7.1903    0.0448   18.6202 C   0  0  0  0  0  0  0  0  0  0  0  0
    8.1340   -0.4304   18.3671 H   0  0  0  0  0  0  0  0  0  0  0  0
    6.7009   -0.0304   19.9618 C   0  0  0  0  0  0  0  0  0  0  0  0
    7.3687   -0.6990   20.9681 N   0  0  0  0  0  0  0  0  0  0  0  0
    8.6350   -1.4190   20.9914 C   0  0  0  0  0  0  0  0  0  0  0  0
    9.5240   -0.8028   20.7709 H   0  0  0  0  0  0  0  0  0  0  0  0
    8.6502   -2.3196   20.3711 H   0  0  0  0  0  0  0  0  0  0  0  0
    8.3842   -1.7096   22.5004 C   0  0  0  0  0  0  0  0  0  0  0  0
    9.1238   -1.2659   23.1563 H   0  0  0  0  0  0  0  0  0  0  0  0
    8.1821   -3.1636   22.8246 C   0  0  0  0  0  0  0  0  0  0  0  0
    7.4042   -3.8509   22.1963 O   0  0  0  0  0  0  0  0  0  0  0  0
    8.9791   -3.8238   23.9788 C   0  0  0  0  0  0  0  0  0  0  0  0
    8.6998   -4.8775   24.0682 H   0  0  0  0  0  0  0  0  0  0  0  0
    8.7349   -3.1934   25.1616 F   0  0  0  0  0  0  0  0  0  0  0  0
   10.3198   -3.7313   23.7562 F   0  0  0  0  0  0  0  0  0  0  0  0
    7.0606   -0.8913   22.3796 C   0  0  0  0  0  0  0  0  0  0  0  0
    7.0448    0.0411   22.9715 H   0  0  0  0  0  0  0  0  0  0  0  0
    6.1476   -1.4770   22.5658 H   0  0  0  0  0  0  0  0  0  0  0  0
    5.4653    0.6290   20.1900 C   0  0  0  0  0  0  0  0  0  0  0  0
    5.0180    0.6235   21.1841 H   0  0  0  0  0  0  0  0  0  0  0  0
    4.8337    1.2880   19.1280 C   0  0  0  0  0  0  0  0  0  0  0  0
    3.9016    1.8216   19.2723 H   0  0  0  0  0  0  0  0  0  0  0  0
  1  2  1  0
  2  3  2  0
  3  4  1  0
  4  5  1  0
  4  6  2  0
  6  7  1  0
  7  8  1  0
  8  9  1  0
  8 10  1  0
  8 11  1  0
 11 12  1  0
 11 13  1  0
 13 14  2  0
 13 15  1  0
 15 16  1  0
 15 17  1  0
 15 18  1  0
 11 19  1  0
 19 20  1  0
 19 21  1  0
  6 22  1  0
 22 23  1  0
 22 24  2  0
 24 25  1  0
 24  2  1  0
 19  7  1  0
M  END
>  <cnnaffinity>  (1) 
-4.4722

>  <filename>  (1) 
O=C(C(F)F)C1CN(c2cccnc2)C1

$$$$
