
     RDKit          3D

 37 40  0  0  0  0  0  0  0  0999 V2000
    5.0251    1.7528   16.8299 H   0  0  0  0  0  0  0  0  0  0  0  0
    5.4361    1.2741   17.7171 C   0  0  0  0  0  0  0  0  0  0  0  0
    6.5972    0.6217   17.5476 N   0  0  0  0  0  0  0  0  0  0  0  0
    7.1348    0.0417   18.6243 C   0  0  0  0  0  0  0  0  0  0  0  0
    8.0816   -0.4741   18.4736 H   0  0  0  0  0  0  0  0  0  0  0  0
    6.5665    0.0885   19.9078 C   0  0  0  0  0  0  0  0  0  0  0  0
    7.2819   -0.5422   21.0138 C   0  0  0  0  0  0  0  0  0  0  0  0
    7.8597   -1.7901   20.8625 N   0  0  0  0  0  0  0  0  0  0  0  0
    8.2999   -2.0755   22.0566 C   0  0  0  0  0  0  0  0  0  0  0  0
    9.0998   -3.4278   22.8197 S   0  0  0  0  0  0  0  0  0  0  0  0
    9.1186   -2.5649   24.3504 C   0  0  0  0  0  0  0  0  0  0  0  0
    9.5453   -3.0412   25.2217 H   0  0  0  0  0  0  0  0  0  0  0  0
    8.5633   -1.3451   24.2665 C   0  0  0  0  0  0  0  0  0  0  0  0
    8.4690   -0.5954   25.0466 H   0  0  0  0  0  0  0  0  0  0  0  0
    8.0906   -1.0796   22.9835 N   0  0  0  0  0  0  0  0  0  0  0  0
    7.4551   -0.0587   22.3165 C   0  0  0  0  0  0  0  0  0  0  0  0
    7.1741    1.1419   22.9694 N   0  0  0  0  0  0  0  0  0  0  0  0
    6.6490    1.0949   23.8263 H   0  0  0  0  0  0  0  0  0  0  0  0
    7.2312    2.3906   22.3567 C   0  0  0  0  0  0  0  0  0  0  0  0
    7.8047    2.5750   21.3085 O   0  0  0  0  0  0  0  0  0  0  0  0
    6.5466    3.3123   23.1133 N   0  0  0  0  0  0  0  0  0  0  0  0
    6.4421    3.0625   24.0765 H   0  0  0  0  0  0  0  0  0  0  0  0
    6.3492    4.6711   22.8001 C   0  0  0  0  0  0  0  0  0  0  0  0
    6.2562    5.6125   23.8315 C   0  0  0  0  0  0  0  0  0  0  0  0
    6.3535    5.2750   24.8579 H   0  0  0  0  0  0  0  0  0  0  0  0
    6.0818    6.9701   23.5294 C   0  0  0  0  0  0  0  0  0  0  0  0
    6.0277    7.6970   24.3354 H   0  0  0  0  0  0  0  0  0  0  0  0
    5.9581    7.3920   22.1987 C   0  0  0  0  0  0  0  0  0  0  0  0
    5.7952    8.4423   21.9531 H   0  0  0  0  0  0  0  0  0  0  0  0
    6.0187    6.4370   21.1793 C   0  0  0  0  0  0  0  0  0  0  0  0
    5.9212    6.7422   20.1426 H   0  0  0  0  0  0  0  0  0  0  0  0
    6.2024    5.0827   21.4752 C   0  0  0  0  0  0  0  0  0  0  0  0
    6.2305    4.3189   20.7097 H   0  0  0  0  0  0  0  0  0  0  0  0
    5.3331    0.7478   20.0617 C   0  0  0  0  0  0  0  0  0  0  0  0
    4.8375    0.7919   21.0342 H   0  0  0  0  0  0  0  0  0  0  0  0
    4.7633    1.3502   18.9409 C   0  0  0  0  0  0  0  0  0  0  0  0
    3.8241    1.8887   19.0010 H   0  0  0  0  0  0  0  0  0  0  0  0
  1  2  1  0
  2  3  2  0
  3  4  1  0
  4  5  1  0
  4  6  2  0
  6  7  1  0
  7  8  1  0
  8  9  2  0
  9 10  1  0
 10 11  1  0
 11 12  1  0
 11 13  2  0
 13 14  1  0
 13 15  1  0
 15 16  1  0
 16 17  1  0
 17 18  1  0
 17 19  1  0
 19 20  2  0
 19 21  1  0
 21 22  1  0
 21 23  1  0
 23 24  2  0
 24 25  1  0
 24 26  1  0
 26 27  1  0
 26 28  2  0
 28 29  1  0
 28 30  1  0
 30 31  1  0
 30 32  2  0
 32 33  1  0
  6 34  1  0
 34 35  1  0
 34 36  2  0
 36 37  1  0
 36  2  1  0
 16  7  2  0
 32 23  1  0
 15  9  1  0
M  END
>  <cnnaffinity>  (1) 
-5.52507

>  <filename>  (1) 
O=C(Nc1ccccc1)Nc1c(-c2cccnc2)nc2sccn12

$$$$
