
     RDKit          3D

 28 30  0  0  0  0  0  0  0  0999 V2000
    4.9466    1.8276   16.9969 H   0  0  0  0  0  0  0  0  0  0  0  0
    5.4239    1.3094   17.8255 C   0  0  0  0  0  0  0  0  0  0  0  0
    6.5890    0.6976   17.5544 N   0  0  0  0  0  0  0  0  0  0  0  0
    7.1895    0.0456   18.5553 C   0  0  0  0  0  0  0  0  0  0  0  0
    8.1361   -0.4467   18.3343 H   0  0  0  0  0  0  0  0  0  0  0  0
    6.6598   -0.0453   19.8544 C   0  0  0  0  0  0  0  0  0  0  0  0
    7.3729   -0.7446   20.8756 N   0  0  0  0  0  0  0  0  0  0  0  0
    8.6923   -0.4816   21.1997 C   0  0  0  0  0  0  0  0  0  0  0  0
    9.2462    0.2805   20.6679 H   0  0  0  0  0  0  0  0  0  0  0  0
    9.0563   -1.3182   22.2040 C   0  0  0  0  0  0  0  0  0  0  0  0
   10.3944   -1.5622   22.8297 C   0  0  0  0  0  0  0  0  0  0  0  0
   10.6058   -2.5801   23.4668 O   0  0  0  0  0  0  0  0  0  0  0  0
   11.4804   -0.5594   22.6514 C   0  0  0  0  0  0  0  0  0  0  0  0
   11.1947    1.1430   22.5782 S   0  0  0  0  0  0  0  0  0  0  0  0
   12.8686    1.4784   22.7004 C   0  0  0  0  0  0  0  0  0  0  0  0
   13.1585    2.5123   22.8200 H   0  0  0  0  0  0  0  0  0  0  0  0
   13.6289    0.3442   22.6897 C   0  0  0  0  0  0  0  0  0  0  0  0
   14.7137    0.3340   22.7213 H   0  0  0  0  0  0  0  0  0  0  0  0
   12.8251   -0.8271   22.6397 C   0  0  0  0  0  0  0  0  0  0  0  0
   13.2117   -1.8414   22.5822 H   0  0  0  0  0  0  0  0  0  0  0  0
    7.9052   -2.0646   22.4915 N   0  0  0  0  0  0  0  0  0  0  0  0
    7.7672   -2.7643   23.2067 H   0  0  0  0  0  0  0  0  0  0  0  0
    6.8804   -1.7850   21.6482 C   0  0  0  0  0  0  0  0  0  0  0  0
    5.4581   -2.6369   21.5246 S   0  0  0  0  0  0  0  0  0  0  0  0
    5.4449    0.5879   20.1315 C   0  0  0  0  0  0  0  0  0  0  0  0
    5.0254    0.5543   21.1379 H   0  0  0  0  0  0  0  0  0  0  0  0
    4.8242    1.2863   19.0901 C   0  0  0  0  0  0  0  0  0  0  0  0
    3.8945    1.8191   19.2516 H   0  0  0  0  0  0  0  0  0  0  0  0
  1  2  1  0
  2  3  2  0
  3  4  1  0
  4  5  1  0
  4  6  2  0
  6  7  1  0
  7  8  1  0
  8  9  1  0
  8 10  2  0
 10 11  1  0
 11 12  2  0
 11 13  1  0
 13 14  1  0
 14 15  1  0
 15 16  1  0
 15 17  2  0
 17 18  1  0
 17 19  1  0
 19 20  1  0
 10 21  1  0
 21 22  1  0
 21 23  1  0
 23 24  2  0
  6 25  1  0
 25 26  1  0
 25 27  2  0
 27 28  1  0
 27  2  1  0
 23  7  1  0
 19 13  2  0
M  END
>  <cnnaffinity>  (1) 
-5.21086

>  <filename>  (1) 
O=C(c1cn(-c2cccnc2)c(=S)[nH]1)c1cccs1

$$$$
