
     RDKit          3D

 36 37  0  0  0  0  0  0  0  0999 V2000
   12.8998    1.1875   25.5839 H   0  0  0  0  0  0  0  0  0  0  0  0
   13.3809    0.8309   24.8141 O   0  0  0  0  0  0  0  0  0  0  0  0
   12.6587    1.2504   23.6942 N   0  0  0  0  0  0  0  0  0  0  0  0
   12.6539    0.4989   23.0159 H   0  0  0  0  0  0  0  0  0  0  0  0
   12.9036    2.4923   23.0906 C   0  0  0  0  0  0  0  0  0  0  0  0
   13.4790    3.4226   23.6053 O   0  0  0  0  0  0  0  0  0  0  0  0
   12.2663    2.5741   21.7192 C   0  0  0  0  0  0  0  0  0  0  0  0
   12.5538    1.7076   21.1196 H   0  0  0  0  0  0  0  0  0  0  0  0
   12.7116    3.4617   21.2620 H   0  0  0  0  0  0  0  0  0  0  0  0
   10.7409    2.7173   21.6675 C   0  0  0  0  0  0  0  0  0  0  0  0
   10.4891    2.7727   20.6004 H   0  0  0  0  0  0  0  0  0  0  0  0
   10.4498    3.6716   22.1326 H   0  0  0  0  0  0  0  0  0  0  0  0
    9.8843    1.6122   22.2775 C   0  0  0  0  0  0  0  0  0  0  0  0
   10.0999    0.6441   21.7969 H   0  0  0  0  0  0  0  0  0  0  0  0
   10.1019    1.4731   23.3453 H   0  0  0  0  0  0  0  0  0  0  0  0
    8.4041    1.9897   22.0901 C   0  0  0  0  0  0  0  0  0  0  0  0
    8.1760    2.0191   21.0112 H   0  0  0  0  0  0  0  0  0  0  0  0
    8.2431    3.0063   22.4791 H   0  0  0  0  0  0  0  0  0  0  0  0
    7.4124    1.0327   22.7798 C   0  0  0  0  0  0  0  0  0  0  0  0
    6.3890    1.3993   22.6441 H   0  0  0  0  0  0  0  0  0  0  0  0
    7.5970    0.9815   23.8590 H   0  0  0  0  0  0  0  0  0  0  0  0
    7.5604   -0.3525   22.2361 C   0  0  0  0  0  0  0  0  0  0  0  0
    8.1654   -1.3562   22.8262 N   0  0  0  0  0  0  0  0  0  0  0  0
    8.3437   -2.3016   21.8791 N   0  0  0  0  0  0  0  0  0  0  0  0
    7.8768   -1.9214   20.7502 N   0  0  0  0  0  0  0  0  0  0  0  0
    7.3459   -0.6922   20.9351 N   0  0  0  0  0  0  0  0  0  0  0  0
    6.6670   -0.0069   19.8808 C   0  0  0  0  0  0  0  0  0  0  0  0
    7.2046   -0.0042   18.5799 C   0  0  0  0  0  0  0  0  0  0  0  0
    8.1211   -0.5539   18.3733 H   0  0  0  0  0  0  0  0  0  0  0  0
    6.6449    0.6440   17.5551 N   0  0  0  0  0  0  0  0  0  0  0  0
    5.4956    1.3075   17.7787 C   0  0  0  0  0  0  0  0  0  0  0  0
    5.0658    1.8308   16.9265 H   0  0  0  0  0  0  0  0  0  0  0  0
    4.8638    1.3273   19.0249 C   0  0  0  0  0  0  0  0  0  0  0  0
    3.9283    1.8629   19.1451 H   0  0  0  0  0  0  0  0  0  0  0  0
    5.4566    0.6634   20.1042 C   0  0  0  0  0  0  0  0  0  0  0  0
    4.9873    0.6507   21.0880 H   0  0  0  0  0  0  0  0  0  0  0  0
  1  2  1  0
  2  3  1  0
  3  4  1  0
  3  5  1  0
  5  6  2  0
  5  7  1  0
  7  8  1  0
  7  9  1  0
  7 10  1  0
 10 11  1  0
 10 12  1  0
 10 13  1  0
 13 14  1  0
 13 15  1  0
 13 16  1  0
 16 17  1  0
 16 18  1  0
 16 19  1  0
 19 20  1  0
 19 21  1  0
 19 22  1  0
 22 23  2  0
 23 24  1  0
 24 25  2  0
 25 26  1  0
 26 27  1  0
 27 28  2  0
 28 29  1  0
 28 30  1  0
 30 31  2  0
 31 32  1  0
 31 33  1  0
 33 34  1  0
 33 35  2  0
 35 36  1  0
 26 22  1  0
 35 27  1  0
M  END
>  <cnnaffinity>  (1) 
-5.30828

>  <filename>  (1) 
O=C(CCCCCc1nnnn1-c1cccnc1)NO

$$$$
