
     RDKit          3D

 36 38  0  0  0  0  0  0  0  0999 V2000
    9.2784   -3.3330   21.3054 H   0  0  0  0  0  0  0  0  0  0  0  0
    8.7385   -2.4330   21.5835 C   0  0  0  0  0  0  0  0  0  0  0  0
    8.1106   -1.7859   20.6059 N   0  0  0  0  0  0  0  0  0  0  0  0
    7.4074   -0.7090   20.9623 C   0  0  0  0  0  0  0  0  0  0  0  0
    6.6564   -0.0076   19.9087 C   0  0  0  0  0  0  0  0  0  0  0  0
    7.1738    0.0354   18.6043 C   0  0  0  0  0  0  0  0  0  0  0  0
    8.1207   -0.4423   18.3631 H   0  0  0  0  0  0  0  0  0  0  0  0
    6.5749    0.6643   17.5885 N   0  0  0  0  0  0  0  0  0  0  0  0
    5.4137    1.2844   17.8446 C   0  0  0  0  0  0  0  0  0  0  0  0
    4.9492    1.7889   17.0012 H   0  0  0  0  0  0  0  0  0  0  0  0
    4.8073    1.2982   19.1052 C   0  0  0  0  0  0  0  0  0  0  0  0
    3.8780    1.8363   19.2509 H   0  0  0  0  0  0  0  0  0  0  0  0
    5.4373    0.6429   20.1598 C   0  0  0  0  0  0  0  0  0  0  0  0
    4.9866    0.6374   21.1560 H   0  0  0  0  0  0  0  0  0  0  0  0
    7.3789   -0.2577   22.2771 C   0  0  0  0  0  0  0  0  0  0  0  0
    6.8459    0.6424   22.5455 H   0  0  0  0  0  0  0  0  0  0  0  0
    8.0640   -1.0092   23.2212 C   0  0  0  0  0  0  0  0  0  0  0  0
    8.0235   -0.6208   24.6894 C   0  0  0  0  0  0  0  0  0  0  0  0
    8.8811   -1.0893   25.1868 H   0  0  0  0  0  0  0  0  0  0  0  0
    8.1781    0.4642   24.7633 H   0  0  0  0  0  0  0  0  0  0  0  0
    6.7587   -0.9442   25.3835 N   0  0  0  0  0  0  0  0  0  0  0  0
    6.0660   -1.5492   24.9733 H   0  0  0  0  0  0  0  0  0  0  0  0
    6.5709   -0.6502   26.7045 C   0  0  0  0  0  0  0  0  0  0  0  0
    7.4599   -0.1670   27.3887 O   0  0  0  0  0  0  0  0  0  0  0  0
    5.1856   -0.9567   27.2488 C   0  0  0  0  0  0  0  0  0  0  0  0
    5.0488   -1.1154   28.6392 C   0  0  0  0  0  0  0  0  0  0  0  0
    5.9313   -1.0264   29.2687 H   0  0  0  0  0  0  0  0  0  0  0  0
    3.7991   -1.3454   29.2180 C   0  0  0  0  0  0  0  0  0  0  0  0
    3.7232   -1.4609   30.2962 H   0  0  0  0  0  0  0  0  0  0  0  0
    2.6544   -1.4090   28.4175 C   0  0  0  0  0  0  0  0  0  0  0  0
    1.6823   -1.5893   28.8728 H   0  0  0  0  0  0  0  0  0  0  0  0
    2.7701   -1.2361   27.0340 C   0  0  0  0  0  0  0  0  0  0  0  0
    1.8826   -1.2783   26.4062 H   0  0  0  0  0  0  0  0  0  0  0  0
    4.0224   -1.0131   26.4517 C   0  0  0  0  0  0  0  0  0  0  0  0
    4.0598   -0.8385   25.3762 H   0  0  0  0  0  0  0  0  0  0  0  0
    8.7672   -2.0958   22.8704 N   0  0  0  0  0  0  0  0  0  0  0  0
  1  2  1  0
  2  3  2  0
  3  4  1  0
  4  5  1  0
  5  6  2  0
  6  7  1  0
  6  8  1  0
  8  9  2  0
  9 10  1  0
  9 11  1  0
 11 12  1  0
 11 13  2  0
 13 14  1  0
  4 15  2  0
 15 16  1  0
 15 17  1  0
 17 18  1  0
 18 19  1  0
 18 20  1  0
 18 21  1  0
 21 22  1  0
 21 23  1  0
 23 24  2  0
 23 25  1  0
 25 26  2  0
 26 27  1  0
 26 28  1  0
 28 29  1  0
 28 30  2  0
 30 31  1  0
 30 32  1  0
 32 33  1  0
 32 34  2  0
 34 35  1  0
 17 36  2  0
 36  2  1  0
 13  5  1  0
 34 25  1  0
M  END
>  <cnnaffinity>  (1) 
-5.07106

>  <filename>  (1) 
O=C(NCc1cc(-c2cccnc2)ncn1)c1ccccc1

$$$$
