
     RDKit          3D

 30 32  0  0  0  0  0  0  0  0999 V2000
    7.9730    0.7209   22.9596 O   0  0  0  0  0  0  0  0  0  0  0  0
    8.2758    0.4364   21.8242 C   0  0  0  0  0  0  0  0  0  0  0  0
    9.3098    1.0605   21.1490 N   0  0  0  0  0  0  0  0  0  0  0  0
    9.9144    2.1918   21.6799 C   0  0  0  0  0  0  0  0  0  0  0  0
    9.2208    3.1674   22.3656 C   0  0  0  0  0  0  0  0  0  0  0  0
    9.9690    4.2866   22.7861 C   0  0  0  0  0  0  0  0  0  0  0  0
   11.3515    4.3160   22.5021 C   0  0  0  0  0  0  0  0  0  0  0  0
   11.9434    3.2511   21.7769 C   0  0  0  0  0  0  0  0  0  0  0  0
   11.2247    2.2097   21.3737 N   0  0  0  0  0  0  0  0  0  0  0  0
   12.9978    3.2701   21.5222 H   0  0  0  0  0  0  0  0  0  0  0  0
   11.8028    5.5140   22.9643 N   0  0  0  0  0  0  0  0  0  0  0  0
   10.8144    6.2545   23.5105 N   0  0  0  0  0  0  0  0  0  0  0  0
    9.7100    5.5418   23.4134 C   0  0  0  0  0  0  0  0  0  0  0  0
    8.7524    5.9168   23.7580 H   0  0  0  0  0  0  0  0  0  0  0  0
   12.7370    5.8989   22.9286 H   0  0  0  0  0  0  0  0  0  0  0  0
    8.1650    3.0528   22.5255 H   0  0  0  0  0  0  0  0  0  0  0  0
   10.0437    0.5346   20.6946 H   0  0  0  0  0  0  0  0  0  0  0  0
    7.4786   -0.6291   20.9639 C   0  0  0  0  0  0  0  0  0  0  0  0
    6.6728   -1.3414   21.7868 F   0  0  0  0  0  0  0  0  0  0  0  0
    8.3953   -1.5120   20.4397 F   0  0  0  0  0  0  0  0  0  0  0  0
    6.6516   -0.0204   19.8489 C   0  0  0  0  0  0  0  0  0  0  0  0
    5.4415    0.6357   20.1262 C   0  0  0  0  0  0  0  0  0  0  0  0
    4.8135    1.3074   19.0783 C   0  0  0  0  0  0  0  0  0  0  0  0
    5.4100    1.3020   17.8114 C   0  0  0  0  0  0  0  0  0  0  0  0
    6.5486    0.6520   17.5338 N   0  0  0  0  0  0  0  0  0  0  0  0
    7.1454    0.0040   18.5370 C   0  0  0  0  0  0  0  0  0  0  0  0
    8.0711   -0.5152   18.3021 H   0  0  0  0  0  0  0  0  0  0  0  0
    4.9512    1.8321   16.9780 H   0  0  0  0  0  0  0  0  0  0  0  0
    3.8831    1.8454   19.2208 H   0  0  0  0  0  0  0  0  0  0  0  0
    4.9980    0.6219   21.1250 H   0  0  0  0  0  0  0  0  0  0  0  0
  1  2  2  0
  2  3  1  0
  3  4  1  0
  4  5  2  0
  5  6  1  0
  6  7  2  0
  7  8  1  0
  8  9  2  0
  8 10  1  0
  7 11  1  0
 11 12  1  0
 12 13  2  0
 13 14  1  0
 11 15  1  0
  5 16  1  0
  3 17  1  0
  2 18  1  0
 18 19  1  0
 18 20  1  0
 18 21  1  0
 21 22  2  0
 22 23  1  0
 23 24  2  0
 24 25  1  0
 25 26  2  0
 26 27  1  0
 24 28  1  0
 23 29  1  0
 22 30  1  0
  9  4  1  0
 26 21  1  0
 13  6  1  0
M  END
>  <cnnaffinity>  (1) 
-5.20216

>  <filename>  (1) 
O=C(Nc1cc2cn[nH]c2cn1)C(F)(F)c1cccnc1

$$$$
