
     RDKit          3D

 37 39  0  0  0  0  0  0  0  0999 V2000
    4.9236    1.8222   16.9362 H   0  0  0  0  0  0  0  0  0  0  0  0
    5.3826    1.3371   17.7955 C   0  0  0  0  0  0  0  0  0  0  0  0
    6.5477    0.7109   17.5710 N   0  0  0  0  0  0  0  0  0  0  0  0
    7.1311    0.1144   18.6127 C   0  0  0  0  0  0  0  0  0  0  0  0
    8.0581   -0.4204   18.4163 H   0  0  0  0  0  0  0  0  0  0  0  0
    6.6171    0.1389   19.9161 C   0  0  0  0  0  0  0  0  0  0  0  0
    7.3714   -0.5719   20.9649 C   0  0  0  0  0  0  0  0  0  0  0  0
    7.9967   -1.6474   20.5730 N   0  0  0  0  0  0  0  0  0  0  0  0
    8.5082   -2.4522   21.5410 C   0  0  0  0  0  0  0  0  0  0  0  0
    8.7585   -3.6300   21.4151 O   0  0  0  0  0  0  0  0  0  0  0  0
    8.7440   -1.8884   22.8084 N   0  0  0  0  0  0  0  0  0  0  0  0
    9.0646   -2.6354   23.3969 H   0  0  0  0  0  0  0  0  0  0  0  0
    8.0124   -0.8249   23.2768 C   0  0  0  0  0  0  0  0  0  0  0  0
    8.0174   -0.5170   24.7601 C   0  0  0  0  0  0  0  0  0  0  0  0
    9.0059   -0.7815   25.1565 H   0  0  0  0  0  0  0  0  0  0  0  0
    7.8978    0.5643   24.9144 H   0  0  0  0  0  0  0  0  0  0  0  0
    6.9890   -1.2444   25.5220 N   0  0  0  0  0  0  0  0  0  0  0  0
    6.2473   -1.7247   25.0379 H   0  0  0  0  0  0  0  0  0  0  0  0
    6.7648   -0.9582   26.8401 C   0  0  0  0  0  0  0  0  0  0  0  0
    7.4073   -0.1024   27.4287 O   0  0  0  0  0  0  0  0  0  0  0  0
    5.6796   -1.7666   27.5175 C   0  0  0  0  0  0  0  0  0  0  0  0
    5.2605   -3.0396   27.0785 C   0  0  0  0  0  0  0  0  0  0  0  0
    5.6987   -3.5147   26.1984 H   0  0  0  0  0  0  0  0  0  0  0  0
    4.2923   -3.7444   27.7986 C   0  0  0  0  0  0  0  0  0  0  0  0
    3.9819   -4.7296   27.4579 H   0  0  0  0  0  0  0  0  0  0  0  0
    3.7293   -3.1904   28.9542 C   0  0  0  0  0  0  0  0  0  0  0  0
    2.9869   -3.7460   29.5195 H   0  0  0  0  0  0  0  0  0  0  0  0
    4.1412   -1.9292   29.3966 C   0  0  0  0  0  0  0  0  0  0  0  0
    3.7231   -1.4951   30.3015 H   0  0  0  0  0  0  0  0  0  0  0  0
    5.1113   -1.2253   28.6851 C   0  0  0  0  0  0  0  0  0  0  0  0
    5.4547   -0.2511   29.0307 H   0  0  0  0  0  0  0  0  0  0  0  0
    7.3482   -0.1138   22.3196 C   0  0  0  0  0  0  0  0  0  0  0  0
    6.7846    0.7710   22.5693 H   0  0  0  0  0  0  0  0  0  0  0  0
    5.3803    0.7592   20.1307 C   0  0  0  0  0  0  0  0  0  0  0  0
    4.9069    0.7304   21.1149 H   0  0  0  0  0  0  0  0  0  0  0  0
    4.7537    1.3710   19.0458 C   0  0  0  0  0  0  0  0  0  0  0  0
    3.8018    1.8793   19.1588 H   0  0  0  0  0  0  0  0  0  0  0  0
  1  2  1  0
  2  3  2  0
  3  4  1  0
  4  5  1  0
  4  6  2  0
  6  7  1  0
  7  8  2  0
  8  9  1  0
  9 10  2  0
  9 11  1  0
 11 12  1  0
 11 13  1  0
 13 14  1  0
 14 15  1  0
 14 16  1  0
 14 17  1  0
 17 18  1  0
 17 19  1  0
 19 20  2  0
 19 21  1  0
 21 22  2  0
 22 23  1  0
 22 24  1  0
 24 25  1  0
 24 26  2  0
 26 27  1  0
 26 28  1  0
 28 29  1  0
 28 30  2  0
 30 31  1  0
 13 32  2  0
 32 33  1  0
  6 34  1  0
 34 35  1  0
 34 36  2  0
 36 37  1  0
 36  2  1  0
 32  7  1  0
 30 21  1  0
M  END
>  <cnnaffinity>  (1) 
-5.1284

>  <filename>  (1) 
O=C(NCc1cc(-c2cccnc2)nc(=O)[nH]1)c1ccccc1

$$$$
