
     RDKit          3D

 39 41  0  0  0  0  0  0  0  0999 V2000
    5.0424    1.8025   16.9593 H   0  0  0  0  0  0  0  0  0  0  0  0
    5.4928    1.2811   17.7972 C   0  0  0  0  0  0  0  0  0  0  0  0
    6.6365    0.6274   17.5277 N   0  0  0  0  0  0  0  0  0  0  0  0
    7.2202   -0.0096   18.5469 C   0  0  0  0  0  0  0  0  0  0  0  0
    8.1319   -0.5533   18.3032 H   0  0  0  0  0  0  0  0  0  0  0  0
    6.7129   -0.0324   19.8588 C   0  0  0  0  0  0  0  0  0  0  0  0
    7.4102   -0.7154   20.9394 C   0  0  0  0  0  0  0  0  0  0  0  0
    6.9271   -1.3529   22.0305 C   0  0  0  0  0  0  0  0  0  0  0  0
    5.9383   -1.6424   22.3387 H   0  0  0  0  0  0  0  0  0  0  0  0
    8.0141   -1.7496   22.7836 N   0  0  0  0  0  0  0  0  0  0  0  0
    7.8444   -2.3815   23.9939 N   0  0  0  0  0  0  0  0  0  0  0  0
    7.8582   -1.7944   24.8156 H   0  0  0  0  0  0  0  0  0  0  0  0
    8.1126   -3.7309   24.1793 C   0  0  0  0  0  0  0  0  0  0  0  0
    8.3384   -4.5092   23.2781 O   0  0  0  0  0  0  0  0  0  0  0  0
    8.0918   -4.1191   25.6514 C   0  0  0  0  0  0  0  0  0  0  0  0
    7.8555   -3.2325   26.2562 H   0  0  0  0  0  0  0  0  0  0  0  0
    9.4949   -4.6167   26.0888 C   0  0  0  0  0  0  0  0  0  0  0  0
    9.8272   -5.4288   25.4226 H   0  0  0  0  0  0  0  0  0  0  0  0
   10.2241   -3.7985   25.9887 H   0  0  0  0  0  0  0  0  0  0  0  0
    9.4695   -5.1213   27.5363 C   0  0  0  0  0  0  0  0  0  0  0  0
    9.2449   -4.2855   28.2061 H   0  0  0  0  0  0  0  0  0  0  0  0
   10.4588   -5.4925   27.8310 H   0  0  0  0  0  0  0  0  0  0  0  0
    8.3751   -6.1812   27.7229 C   0  0  0  0  0  0  0  0  0  0  0  0
    8.3909   -6.6107   28.7313 H   0  0  0  0  0  0  0  0  0  0  0  0
    8.5841   -7.0090   27.0316 H   0  0  0  0  0  0  0  0  0  0  0  0
    6.9977   -5.5936   27.3901 C   0  0  0  0  0  0  0  0  0  0  0  0
    6.8085   -4.7337   28.0561 H   0  0  0  0  0  0  0  0  0  0  0  0
    6.1993   -6.3197   27.5855 H   0  0  0  0  0  0  0  0  0  0  0  0
    6.9615   -5.1388   25.9254 C   0  0  0  0  0  0  0  0  0  0  0  0
    7.0912   -6.0088   25.2628 H   0  0  0  0  0  0  0  0  0  0  0  0
    5.9828   -4.6928   25.6900 H   0  0  0  0  0  0  0  0  0  0  0  0
    9.2049   -1.4213   22.1616 C   0  0  0  0  0  0  0  0  0  0  0  0
   10.7758   -1.7063   22.6116 S   0  0  0  0  0  0  0  0  0  0  0  0
    8.7934   -0.7907   21.0301 N   0  0  0  0  0  0  0  0  0  0  0  0
    9.4837   -0.4715   20.3754 H   0  0  0  0  0  0  0  0  0  0  0  0
    5.4974    0.6275   20.1081 C   0  0  0  0  0  0  0  0  0  0  0  0
    5.0769    0.6214   21.1163 H   0  0  0  0  0  0  0  0  0  0  0  0
    4.8811    1.3029   19.0571 C   0  0  0  0  0  0  0  0  0  0  0  0
    3.9482    1.8420   19.1980 H   0  0  0  0  0  0  0  0  0  0  0  0
  1  2  1  0
  2  3  2  0
  3  4  1  0
  4  5  1  0
  4  6  2  0
  6  7  1  0
  7  8  2  0
  8  9  1  0
  8 10  1  0
 10 11  1  0
 11 12  1  0
 11 13  1  0
 13 14  2  0
 13 15  1  0
 15 16  1  0
 15 17  1  0
 17 18  1  0
 17 19  1  0
 17 20  1  0
 20 21  1  0
 20 22  1  0
 20 23  1  0
 23 24  1  0
 23 25  1  0
 23 26  1  0
 26 27  1  0
 26 28  1  0
 26 29  1  0
 29 30  1  0
 29 31  1  0
 10 32  1  0
 32 33  2  0
 32 34  1  0
 34 35  1  0
  6 36  1  0
 36 37  1  0
 36 38  2  0
 38 39  1  0
 38  2  1  0
 34  7  1  0
 29 15  1  0
M  END
>  <cnnaffinity>  (1) 
-5.75705

>  <filename>  (1) 
O=C(Nn1cc(-c2cccnc2)[nH]c1=S)C1CCCCC1

$$$$
