
     RDKit          3D

 33 36  0  0  0  0  0  0  0  0999 V2000
    4.2051    2.5240   25.6751 H   0  0  0  0  0  0  0  0  0  0  0  0
    4.7987    1.8046   25.4030 O   0  0  0  0  0  0  0  0  0  0  0  0
    4.5312    0.9289   26.3888 C   0  0  0  0  0  0  0  0  0  0  0  0
    3.7126    1.2453   27.2213 O   0  0  0  0  0  0  0  0  0  0  0  0
    5.3142   -0.3419   26.3003 C   0  0  0  0  0  0  0  0  0  0  0  0
    5.1105   -1.3476   27.2628 C   0  0  0  0  0  0  0  0  0  0  0  0
    4.3949   -1.1964   28.0650 H   0  0  0  0  0  0  0  0  0  0  0  0
    5.8286   -2.5435   27.1934 C   0  0  0  0  0  0  0  0  0  0  0  0
    5.6765   -3.3182   27.9394 H   0  0  0  0  0  0  0  0  0  0  0  0
    6.7515   -2.7535   26.1687 C   0  0  0  0  0  0  0  0  0  0  0  0
    7.2969   -3.6962   26.1185 H   0  0  0  0  0  0  0  0  0  0  0  0
    6.9649   -1.7606   25.1879 C   0  0  0  0  0  0  0  0  0  0  0  0
    7.9572   -2.0176   24.1167 C   0  0  0  0  0  0  0  0  0  0  0  0
    9.0804   -2.7583   24.2039 C   0  0  0  0  0  0  0  0  0  0  0  0
    9.4624   -3.2768   25.0749 H   0  0  0  0  0  0  0  0  0  0  0  0
   10.0019   -2.7997   22.7291 S   0  0  0  0  0  0  0  0  0  0  0  0
    8.8059   -1.8133   21.9482 C   0  0  0  0  0  0  0  0  0  0  0  0
    8.5530   -1.3241   20.7536 N   0  0  0  0  0  0  0  0  0  0  0  0
    7.3675   -0.6879   20.9657 C   0  0  0  0  0  0  0  0  0  0  0  0
    6.6423    0.0178   19.9136 C   0  0  0  0  0  0  0  0  0  0  0  0
    7.1771    0.0520   18.6178 C   0  0  0  0  0  0  0  0  0  0  0  0
    8.1250   -0.4323   18.3886 H   0  0  0  0  0  0  0  0  0  0  0  0
    6.5726    0.6651   17.5975 N   0  0  0  0  0  0  0  0  0  0  0  0
    5.4092    1.2845   17.8463 C   0  0  0  0  0  0  0  0  0  0  0  0
    4.9362    1.7743   17.0005 H   0  0  0  0  0  0  0  0  0  0  0  0
    4.8040    1.3099   19.1079 C   0  0  0  0  0  0  0  0  0  0  0  0
    3.8736    1.8433   19.2516 H   0  0  0  0  0  0  0  0  0  0  0  0
    5.4213    0.6600   20.1707 C   0  0  0  0  0  0  0  0  0  0  0  0
    4.9951    0.6385   21.1791 H   0  0  0  0  0  0  0  0  0  0  0  0
    6.8882   -0.7552   22.2042 N   0  0  0  0  0  0  0  0  0  0  0  0
    7.8374   -1.4858   22.8293 N   0  0  0  0  0  0  0  0  0  0  0  0
    6.2481   -0.5534   25.2688 C   0  0  0  0  0  0  0  0  0  0  0  0
    6.4208    0.1996   24.5005 H   0  0  0  0  0  0  0  0  0  0  0  0
  1  2  1  0
  2  3  1  0
  3  4  2  0
  3  5  1  0
  5  6  2  0
  6  7  1  0
  6  8  1  0
  8  9  1  0
  8 10  2  0
 10 11  1  0
 10 12  1  0
 12 13  1  0
 13 14  2  0
 14 15  1  0
 14 16  1  0
 16 17  1  0
 17 18  2  0
 18 19  1  0
 19 20  1  0
 20 21  2  0
 21 22  1  0
 21 23  1  0
 23 24  2  0
 24 25  1  0
 24 26  1  0
 26 27  1  0
 26 28  2  0
 28 29  1  0
 19 30  2  0
 30 31  1  0
 12 32  2  0
 32 33  1  0
 32  5  1  0
 31 13  1  0
 31 17  1  0
 28 20  1  0
M  END
>  <cnnaffinity>  (1) 
-5.61659

>  <filename>  (1) 
O=C(O)c1cccc(-c2csc3nc(-c4cccnc4)nn23)c1

$$$$
