
     RDKit          3D

 31 34  0  0  0  0  0  0  0  0999 V2000
    4.9706    1.7982   16.9336 H   0  0  0  0  0  0  0  0  0  0  0  0
    5.4472    1.3005   17.7747 C   0  0  0  0  0  0  0  0  0  0  0  0
    6.6119    0.6898   17.5134 N   0  0  0  0  0  0  0  0  0  0  0  0
    7.2280    0.0807   18.5329 C   0  0  0  0  0  0  0  0  0  0  0  0
    8.1687   -0.4151   18.2988 H   0  0  0  0  0  0  0  0  0  0  0  0
    6.7197    0.0482   19.8474 C   0  0  0  0  0  0  0  0  0  0  0  0
    7.4234   -0.6850   20.9171 C   0  0  0  0  0  0  0  0  0  0  0  0
    8.6230   -1.2640   20.7173 N   0  0  0  0  0  0  0  0  0  0  0  0
    8.8458   -1.8869   21.8972 N   0  0  0  0  0  0  0  0  0  0  0  0
    9.8508   -2.6782   22.4404 C   0  0  0  0  0  0  0  0  0  0  0  0
   10.7742   -2.7996   21.9098 H   0  0  0  0  0  0  0  0  0  0  0  0
    9.4134   -3.1086   23.6455 C   0  0  0  0  0  0  0  0  0  0  0  0
    9.9004   -3.7583   24.3538 H   0  0  0  0  0  0  0  0  0  0  0  0
    8.1230   -2.5639   23.8759 N   0  0  0  0  0  0  0  0  0  0  0  0
    7.1810   -2.7544   24.9007 C   0  0  0  0  0  0  0  0  0  0  0  0
    6.0364   -2.3494   24.7786 O   0  0  0  0  0  0  0  0  0  0  0  0
    7.5720   -3.4623   26.1408 C   0  0  0  0  0  0  0  0  0  0  0  0
    8.8799   -3.7563   26.4323 O   0  0  0  0  0  0  0  0  0  0  0  0
    8.8838   -4.4081   27.6166 C   0  0  0  0  0  0  0  0  0  0  0  0
    9.8540   -4.6829   28.0043 H   0  0  0  0  0  0  0  0  0  0  0  0
    7.6207   -4.5415   28.0881 C   0  0  0  0  0  0  0  0  0  0  0  0
    7.3308   -5.0552   28.9902 H   0  0  0  0  0  0  0  0  0  0  0  0
    6.7617   -3.9130   27.1439 C   0  0  0  0  0  0  0  0  0  0  0  0
    5.6868   -3.7802   27.1877 H   0  0  0  0  0  0  0  0  0  0  0  0
    7.8362   -1.7634   22.7671 C   0  0  0  0  0  0  0  0  0  0  0  0
    6.9024   -0.9195   22.2129 C   0  0  0  0  0  0  0  0  0  0  0  0
    6.0429   -0.4945   22.6975 H   0  0  0  0  0  0  0  0  0  0  0  0
    5.4951    0.6918   20.0980 C   0  0  0  0  0  0  0  0  0  0  0  0
    5.0466    0.7069   21.0952 H   0  0  0  0  0  0  0  0  0  0  0  0
    4.8507    1.3232   19.0397 C   0  0  0  0  0  0  0  0  0  0  0  0
    3.9022    1.8259   19.1813 H   0  0  0  0  0  0  0  0  0  0  0  0
  1  2  1  0
  2  3  2  0
  3  4  1  0
  4  5  1  0
  4  6  2  0
  6  7  1  0
  7  8  2  0
  8  9  1  0
  9 10  1  0
 10 11  1  0
 10 12  2  0
 12 13  1  0
 12 14  1  0
 14 15  1  0
 15 16  2  0
 15 17  1  0
 17 18  1  0
 18 19  1  0
 19 20  1  0
 19 21  2  0
 21 22  1  0
 21 23  1  0
 23 24  1  0
 14 25  1  0
 25 26  2  0
 26 27  1  0
  6 28  1  0
 28 29  1  0
 28 30  2  0
 30 31  1  0
 30  2  1  0
 26  7  1  0
 25  9  1  0
 23 17  2  0
M  END
>  <cnnaffinity>  (1) 
-5.11012

>  <filename>  (1) 
O=C(c1ccco1)n1ccn2nc(-c3cccnc3)cc12

$$$$
