
     RDKit          3D

 33 36  0  0  0  0  0  0  0  0999 V2000
    4.9539    1.7830   16.9922 H   0  0  0  0  0  0  0  0  0  0  0  0
    5.4069    1.2843   17.8463 C   0  0  0  0  0  0  0  0  0  0  0  0
    6.5676    0.6612   17.6036 N   0  0  0  0  0  0  0  0  0  0  0  0
    7.1691    0.0475   18.6257 C   0  0  0  0  0  0  0  0  0  0  0  0
    8.1192   -0.4290   18.3842 H   0  0  0  0  0  0  0  0  0  0  0  0
    6.6400    0.0092   19.9274 C   0  0  0  0  0  0  0  0  0  0  0  0
    7.3454   -0.6900   21.0103 C   0  0  0  0  0  0  0  0  0  0  0  0
    6.8748   -0.7395   22.2153 N   0  0  0  0  0  0  0  0  0  0  0  0
    7.7389   -1.4408   22.9961 N   0  0  0  0  0  0  0  0  0  0  0  0
    7.8014   -1.8020   24.3286 C   0  0  0  0  0  0  0  0  0  0  0  0
    6.8479   -1.4358   25.2929 N   0  0  0  0  0  0  0  0  0  0  0  0
    6.1163   -0.7908   25.0322 H   0  0  0  0  0  0  0  0  0  0  0  0
    6.7703   -2.0311   26.5448 C   0  0  0  0  0  0  0  0  0  0  0  0
    7.3355   -3.0771   26.7954 O   0  0  0  0  0  0  0  0  0  0  0  0
    5.9500   -1.2696   27.6060 C   0  0  0  0  0  0  0  0  0  0  0  0
    5.4478   -1.9543   28.7353 C   0  0  0  0  0  0  0  0  0  0  0  0
    5.5290   -3.0312   28.8244 H   0  0  0  0  0  0  0  0  0  0  0  0
    4.8848   -1.2443   29.8014 C   0  0  0  0  0  0  0  0  0  0  0  0
    4.5915   -1.7634   30.7138 H   0  0  0  0  0  0  0  0  0  0  0  0
    4.6936    0.0811   29.7857 N   0  0  0  0  0  0  0  0  0  0  0  0
    5.1004    0.7402   28.6956 C   0  0  0  0  0  0  0  0  0  0  0  0
    4.8903    1.8095   28.6905 H   0  0  0  0  0  0  0  0  0  0  0  0
    5.7447    0.1283   27.6103 C   0  0  0  0  0  0  0  0  0  0  0  0
    6.0999    0.7798   26.8206 H   0  0  0  0  0  0  0  0  0  0  0  0
    8.9894   -2.5006   24.4331 C   0  0  0  0  0  0  0  0  0  0  0  0
    9.3518   -2.9290   25.3577 H   0  0  0  0  0  0  0  0  0  0  0  0
    9.6565   -2.5889   23.2379 N   0  0  0  0  0  0  0  0  0  0  0  0
    8.8703   -1.9418   22.4160 C   0  0  0  0  0  0  0  0  0  0  0  0
    8.8924   -1.5129   20.7483 S   0  0  0  0  0  0  0  0  0  0  0  0
    5.4175    0.6608   20.1691 C   0  0  0  0  0  0  0  0  0  0  0  0
    4.9804    0.6535   21.1692 H   0  0  0  0  0  0  0  0  0  0  0  0
    4.7977    1.3117   19.1054 C   0  0  0  0  0  0  0  0  0  0  0  0
    3.8672    1.8482   19.2341 H   0  0  0  0  0  0  0  0  0  0  0  0
  1  2  1  0
  2  3  2  0
  3  4  1  0
  4  5  1  0
  4  6  2  0
  6  7  1  0
  7  8  2  0
  8  9  1  0
  9 10  1  0
 10 11  1  0
 11 12  1  0
 11 13  1  0
 13 14  2  0
 13 15  1  0
 15 16  2  0
 16 17  1  0
 16 18  1  0
 18 19  1  0
 18 20  2  0
 20 21  1  0
 21 22  1  0
 21 23  2  0
 23 24  1  0
 10 25  2  0
 25 26  1  0
 25 27  1  0
 27 28  2  0
 28 29  1  0
  6 30  1  0
 30 31  1  0
 30 32  2  0
 32 33  1  0
 32  2  1  0
 29  7  1  0
 28  9  1  0
 23 15  1  0
M  END
>  <cnnaffinity>  (1) 
-5.12351

>  <filename>  (1) 
O=C(Nc1cnc2sc(-c3cccnc3)nn12)c1ccncc1

$$$$
