
     RDKit          3D

 40 43  0  0  0  0  0  0  0  0999 V2000
    4.9546    1.7956   16.9797 H   0  0  0  0  0  0  0  0  0  0  0  0
    5.4019    1.2841   17.8312 C   0  0  0  0  0  0  0  0  0  0  0  0
    6.5435    0.6186   17.5913 N   0  0  0  0  0  0  0  0  0  0  0  0
    7.1182   -0.0060   18.6232 C   0  0  0  0  0  0  0  0  0  0  0  0
    8.0313   -0.5579   18.4046 H   0  0  0  0  0  0  0  0  0  0  0  0
    6.6180    0.0305   19.9336 C   0  0  0  0  0  0  0  0  0  0  0  0
    7.3823   -0.6084   20.9969 C   0  0  0  0  0  0  0  0  0  0  0  0
    7.8142   -1.9058   20.8797 N   0  0  0  0  0  0  0  0  0  0  0  0
    8.4397   -2.1211   21.9974 C   0  0  0  0  0  0  0  0  0  0  0  0
    8.5531   -1.0188   22.7800 N   0  0  0  0  0  0  0  0  0  0  0  0
    7.8038   -0.0355   22.1849 C   0  0  0  0  0  0  0  0  0  0  0  0
    7.6051    1.3212   22.7856 C   0  0  0  0  0  0  0  0  0  0  0  0
    8.5286    1.9099   22.7113 H   0  0  0  0  0  0  0  0  0  0  0  0
    6.8431    1.8501   22.2077 H   0  0  0  0  0  0  0  0  0  0  0  0
    7.2299    1.2900   24.1890 N   0  0  0  0  0  0  0  0  0  0  0  0
    7.9613    1.3462   24.8734 H   0  0  0  0  0  0  0  0  0  0  0  0
    5.9798    0.9886   24.6351 C   0  0  0  0  0  0  0  0  0  0  0  0
    5.0153    1.0204   23.8839 O   0  0  0  0  0  0  0  0  0  0  0  0
    5.8588    0.6584   26.1151 C   0  0  0  0  0  0  0  0  0  0  0  0
    4.5632    0.5429   26.6546 C   0  0  0  0  0  0  0  0  0  0  0  0
    3.7123    0.6185   25.9813 H   0  0  0  0  0  0  0  0  0  0  0  0
    4.3689    0.3153   28.0187 C   0  0  0  0  0  0  0  0  0  0  0  0
    3.3580    0.2150   28.4084 H   0  0  0  0  0  0  0  0  0  0  0  0
    5.4708    0.2052   28.8730 C   0  0  0  0  0  0  0  0  0  0  0  0
    5.3249    0.0689   29.9417 H   0  0  0  0  0  0  0  0  0  0  0  0
    6.7645    0.2729   28.3461 C   0  0  0  0  0  0  0  0  0  0  0  0
    7.6257    0.2073   29.0045 H   0  0  0  0  0  0  0  0  0  0  0  0
    6.9601    0.4634   26.9769 C   0  0  0  0  0  0  0  0  0  0  0  0
    7.9880    0.4334   26.6118 H   0  0  0  0  0  0  0  0  0  0  0  0
    9.3068   -1.1621   24.0110 C   0  0  0  0  0  0  0  0  0  0  0  0
    8.6256   -1.3590   24.8452 H   0  0  0  0  0  0  0  0  0  0  0  0
    9.8970   -0.2679   24.2303 H   0  0  0  0  0  0  0  0  0  0  0  0
   10.2126   -2.3696   23.7363 C   0  0  0  0  0  0  0  0  0  0  0  0
   10.5669   -2.8563   24.6457 H   0  0  0  0  0  0  0  0  0  0  0  0
   11.0811   -2.0599   23.1467 H   0  0  0  0  0  0  0  0  0  0  0  0
    9.2049   -3.5225   22.7196 S   0  0  0  0  0  0  0  0  0  0  0  0
    5.4068    0.6995   20.1653 C   0  0  0  0  0  0  0  0  0  0  0  0
    4.9631    0.7124   21.1665 H   0  0  0  0  0  0  0  0  0  0  0  0
    4.7856    1.3298   19.0872 C   0  0  0  0  0  0  0  0  0  0  0  0
    3.8481    1.8612   19.2060 H   0  0  0  0  0  0  0  0  0  0  0  0
  1  2  1  0
  2  3  2  0
  3  4  1  0
  4  5  1  0
  4  6  2  0
  6  7  1  0
  7  8  1  0
  8  9  2  0
  9 10  1  0
 10 11  1  0
 11 12  1  0
 12 13  1  0
 12 14  1  0
 12 15  1  0
 15 16  1  0
 15 17  1  0
 17 18  2  0
 17 19  1  0
 19 20  2  0
 20 21  1  0
 20 22  1  0
 22 23  1  0
 22 24  2  0
 24 25  1  0
 24 26  1  0
 26 27  1  0
 26 28  2  0
 28 29  1  0
 10 30  1  0
 30 31  1  0
 30 32  1  0
 30 33  1  0
 33 34  1  0
 33 35  1  0
 33 36  1  0
  6 37  1  0
 37 38  1  0
 37 39  2  0
 39 40  1  0
 39  2  1  0
 11  7  2  0
 28 19  1  0
 36  9  1  0
M  END
>  <cnnaffinity>  (1) 
-5.26156

>  <filename>  (1) 
O=C(NCc1c(-c2cccnc2)nc2n1CCS2)c1ccccc1

$$$$
