
     RDKit          3D

 37 39  0  0  0  0  0  0  0  0999 V2000
    5.0202    1.8090   16.9571 H   0  0  0  0  0  0  0  0  0  0  0  0
    5.4465    1.3088   17.8233 C   0  0  0  0  0  0  0  0  0  0  0  0
    6.6208    0.6887   17.6279 N   0  0  0  0  0  0  0  0  0  0  0  0
    7.1766    0.0832   18.6830 C   0  0  0  0  0  0  0  0  0  0  0  0
    8.1405   -0.3861   18.4885 H   0  0  0  0  0  0  0  0  0  0  0  0
    6.6061    0.0405   19.9754 C   0  0  0  0  0  0  0  0  0  0  0  0
    7.2736   -0.6542   21.0911 C   0  0  0  0  0  0  0  0  0  0  0  0
    7.4598   -0.3379   22.4333 C   0  0  0  0  0  0  0  0  0  0  0  0
    7.0219    0.8538   23.0392 N   0  0  0  0  0  0  0  0  0  0  0  0
    6.0565    1.0646   22.8098 H   0  0  0  0  0  0  0  0  0  0  0  0
    7.1718    1.1121   24.4431 C   0  0  0  0  0  0  0  0  0  0  0  0
    6.9266    2.1658   24.6275 H   0  0  0  0  0  0  0  0  0  0  0  0
    8.2108    0.9404   24.7692 H   0  0  0  0  0  0  0  0  0  0  0  0
    6.2626    0.2868   25.2101 N   0  0  0  0  0  0  0  0  0  0  0  0
    6.5446   -0.6767   25.2109 H   0  0  0  0  0  0  0  0  0  0  0  0
    4.9147    0.3917   24.9518 C   0  0  0  0  0  0  0  0  0  0  0  0
    4.4433    1.3786   24.3991 O   0  0  0  0  0  0  0  0  0  0  0  0
    4.0474   -0.7696   25.3954 C   0  0  0  0  0  0  0  0  0  0  0  0
    4.5364   -2.0856   25.5223 C   0  0  0  0  0  0  0  0  0  0  0  0
    5.5966   -2.3119   25.4358 H   0  0  0  0  0  0  0  0  0  0  0  0
    3.6707   -3.1604   25.7179 C   0  0  0  0  0  0  0  0  0  0  0  0
    4.0814   -4.1642   25.7793 H   0  0  0  0  0  0  0  0  0  0  0  0
    2.2958   -2.9459   25.8244 C   0  0  0  0  0  0  0  0  0  0  0  0
    1.6230   -3.7910   25.9419 H   0  0  0  0  0  0  0  0  0  0  0  0
    1.7952   -1.6421   25.7586 C   0  0  0  0  0  0  0  0  0  0  0  0
    0.7263   -1.4724   25.8564 H   0  0  0  0  0  0  0  0  0  0  0  0
    2.6592   -0.5655   25.5474 C   0  0  0  0  0  0  0  0  0  0  0  0
    2.2507    0.4397   25.4699 H   0  0  0  0  0  0  0  0  0  0  0  0
    8.2296   -1.4300   22.9343 C   0  0  0  0  0  0  0  0  0  0  0  0
    8.6107   -1.5828   23.9301 H   0  0  0  0  0  0  0  0  0  0  0  0
    8.4894   -2.3428   21.9992 N   0  0  0  0  0  0  0  0  0  0  0  0
    7.9149   -1.8383   20.9017 N   0  0  0  0  0  0  0  0  0  0  0  0
    7.9308   -2.3486   20.0307 H   0  0  0  0  0  0  0  0  0  0  0  0
    5.3650    0.6737   20.1406 C   0  0  0  0  0  0  0  0  0  0  0  0
    4.8592    0.6354   21.1053 H   0  0  0  0  0  0  0  0  0  0  0  0
    4.7833    1.3246   19.0525 C   0  0  0  0  0  0  0  0  0  0  0  0
    3.8450    1.8543   19.1484 H   0  0  0  0  0  0  0  0  0  0  0  0
  1  2  1  0
  2  3  2  0
  3  4  1  0
  4  5  1  0
  4  6  2  0
  6  7  1  0
  7  8  2  0
  8  9  1  0
  9 10  1  0
  9 11  1  0
 11 12  1  0
 11 13  1  0
 11 14  1  0
 14 15  1  0
 14 16  1  0
 16 17  2  0
 16 18  1  0
 18 19  2  0
 19 20  1  0
 19 21  1  0
 21 22  1  0
 21 23  2  0
 23 24  1  0
 23 25  1  0
 25 26  1  0
 25 27  2  0
 27 28  1  0
  8 29  1  0
 29 30  1  0
 29 31  2  0
 31 32  1  0
 32 33  1  0
  6 34  1  0
 34 35  1  0
 34 36  2  0
 36 37  1  0
 36  2  1  0
 32  7  1  0
 27 18  1  0
M  END
>  <cnnaffinity>  (1) 
-5.29465

>  <filename>  (1) 
O=C(NCNc1cn[nH]c1-c1cccnc1)c1ccccc1

$$$$
