
     RDKit          3D

 35 37  0  0  0  0  0  0  0  0999 V2000
    4.9482    1.7894   16.9855 H   0  0  0  0  0  0  0  0  0  0  0  0
    5.4129    1.2845   17.8304 C   0  0  0  0  0  0  0  0  0  0  0  0
    6.5754    0.6612   17.5803 N   0  0  0  0  0  0  0  0  0  0  0  0
    7.1811    0.0458   18.6029 C   0  0  0  0  0  0  0  0  0  0  0  0
    8.1304   -0.4353   18.3747 H   0  0  0  0  0  0  0  0  0  0  0  0
    6.6592    0.0082   19.9105 C   0  0  0  0  0  0  0  0  0  0  0  0
    7.3757   -0.6853   20.9780 C   0  0  0  0  0  0  0  0  0  0  0  0
    8.5528   -1.3706   20.7666 N   0  0  0  0  0  0  0  0  0  0  0  0
    8.8610   -1.8873   21.9265 C   0  0  0  0  0  0  0  0  0  0  0  0
    9.7238   -2.5111   22.1372 H   0  0  0  0  0  0  0  0  0  0  0  0
    7.9512   -1.5793   22.9023 N   0  0  0  0  0  0  0  0  0  0  0  0
    7.9584   -2.0042   24.2955 C   0  0  0  0  0  0  0  0  0  0  0  0
    7.8328   -1.1126   24.9245 H   0  0  0  0  0  0  0  0  0  0  0  0
    8.9404   -2.4577   24.4685 H   0  0  0  0  0  0  0  0  0  0  0  0
    6.9365   -2.9722   24.6432 N   0  0  0  0  0  0  0  0  0  0  0  0
    6.0390   -2.6518   24.9671 H   0  0  0  0  0  0  0  0  0  0  0  0
    6.9149   -4.1999   24.0312 C   0  0  0  0  0  0  0  0  0  0  0  0
    7.7927   -4.5399   23.2507 O   0  0  0  0  0  0  0  0  0  0  0  0
    5.7489   -5.1009   24.4050 C   0  0  0  0  0  0  0  0  0  0  0  0
    5.4284   -6.1691   23.5448 C   0  0  0  0  0  0  0  0  0  0  0  0
    6.0117   -6.3044   22.6366 H   0  0  0  0  0  0  0  0  0  0  0  0
    4.4118   -7.0737   23.8656 C   0  0  0  0  0  0  0  0  0  0  0  0
    4.1864   -7.8921   23.1904 H   0  0  0  0  0  0  0  0  0  0  0  0
    3.6942   -6.9409   25.0570 C   0  0  0  0  0  0  0  0  0  0  0  0
    2.9030   -7.6492   25.2983 H   0  0  0  0  0  0  0  0  0  0  0  0
    4.0044   -5.8941   25.9296 C   0  0  0  0  0  0  0  0  0  0  0  0
    3.4551   -5.7906   26.8635 H   0  0  0  0  0  0  0  0  0  0  0  0
    5.0175   -4.9828   25.6092 C   0  0  0  0  0  0  0  0  0  0  0  0
    5.2554   -4.2180   26.3476 H   0  0  0  0  0  0  0  0  0  0  0  0
    7.0031   -0.7955   22.2874 C   0  0  0  0  0  0  0  0  0  0  0  0
    6.1498   -0.4226   22.8308 H   0  0  0  0  0  0  0  0  0  0  0  0
    5.4354    0.6563   20.1487 C   0  0  0  0  0  0  0  0  0  0  0  0
    4.9826    0.6612   21.1386 H   0  0  0  0  0  0  0  0  0  0  0  0
    4.8084    1.3070   19.0919 C   0  0  0  0  0  0  0  0  0  0  0  0
    3.8768    1.8385   19.2376 H   0  0  0  0  0  0  0  0  0  0  0  0
  1  2  1  0
  2  3  2  0
  3  4  1  0
  4  5  1  0
  4  6  2  0
  6  7  1  0
  7  8  1  0
  8  9  2  0
  9 10  1  0
  9 11  1  0
 11 12  1  0
 12 13  1  0
 12 14  1  0
 12 15  1  0
 15 16  1  0
 15 17  1  0
 17 18  2  0
 17 19  1  0
 19 20  2  0
 20 21  1  0
 20 22  1  0
 22 23  1  0
 22 24  2  0
 24 25  1  0
 24 26  1  0
 26 27  1  0
 26 28  2  0
 28 29  1  0
 11 30  1  0
 30 31  1  0
  6 32  1  0
 32 33  1  0
 32 34  2  0
 34 35  1  0
 34  2  1  0
 30  7  2  0
 28 19  1  0
M  END
>  <cnnaffinity>  (1) 
-5.14784

>  <filename>  (1) 
O=C(NCn1cnc(-c2cccnc2)c1)c1ccccc1

$$$$
