
     RDKit          3D

 38 39  0  0  0  0  0  0  0  0999 V2000
    5.0909    1.6930   17.0120 H   0  0  0  0  0  0  0  0  0  0  0  0
    5.5086    1.1948   17.8831 C   0  0  0  0  0  0  0  0  0  0  0  0
    6.6629    0.5443   17.6795 N   0  0  0  0  0  0  0  0  0  0  0  0
    7.2094   -0.0743   18.7290 C   0  0  0  0  0  0  0  0  0  0  0  0
    8.1413   -0.6050   18.5378 H   0  0  0  0  0  0  0  0  0  0  0  0
    6.6508   -0.0712   20.0119 C   0  0  0  0  0  0  0  0  0  0  0  0
    7.3879   -0.7127   21.1247 C   0  0  0  0  0  0  0  0  0  0  0  0
    7.3475   -0.3119   22.2757 O   0  0  0  0  0  0  0  0  0  0  0  0
    8.1351   -1.8058   20.7374 N   0  0  0  0  0  0  0  0  0  0  0  0
    7.5681   -2.4620   20.2127 H   0  0  0  0  0  0  0  0  0  0  0  0
    8.8798   -2.4928   21.7615 C   0  0  0  0  0  0  0  0  0  0  0  0
    9.5223   -3.2333   21.2823 H   0  0  0  0  0  0  0  0  0  0  0  0
    9.5201   -1.7831   22.2938 H   0  0  0  0  0  0  0  0  0  0  0  0
    7.9776   -3.0885   22.7174 N   0  0  0  0  0  0  0  0  0  0  0  0
    7.4396   -2.3348   23.1406 H   0  0  0  0  0  0  0  0  0  0  0  0
    7.1481   -4.1079   22.2856 C   0  0  0  0  0  0  0  0  0  0  0  0
    7.2841   -4.6285   21.1904 O   0  0  0  0  0  0  0  0  0  0  0  0
    6.0963   -4.5616   23.3054 C   0  0  0  0  0  0  0  0  0  0  0  0
    6.1404   -3.8437   24.1332 H   0  0  0  0  0  0  0  0  0  0  0  0
    6.4477   -5.9663   23.8883 C   0  0  0  0  0  0  0  0  0  0  0  0
    7.2157   -5.8375   24.6650 H   0  0  0  0  0  0  0  0  0  0  0  0
    6.9015   -6.5781   23.0964 H   0  0  0  0  0  0  0  0  0  0  0  0
    5.2251   -6.7309   24.4711 C   0  0  0  0  0  0  0  0  0  0  0  0
    4.8268   -7.4021   23.6977 H   0  0  0  0  0  0  0  0  0  0  0  0
    5.5288   -7.3710   25.3114 H   0  0  0  0  0  0  0  0  0  0  0  0
    4.0972   -5.8043   24.9344 C   0  0  0  0  0  0  0  0  0  0  0  0
    3.2700   -6.4085   25.3315 H   0  0  0  0  0  0  0  0  0  0  0  0
    4.4556   -5.1976   25.7769 H   0  0  0  0  0  0  0  0  0  0  0  0
    3.5890   -4.8924   23.7924 C   0  0  0  0  0  0  0  0  0  0  0  0
    3.1654   -3.9783   24.2321 H   0  0  0  0  0  0  0  0  0  0  0  0
    2.7637   -5.4016   23.2800 H   0  0  0  0  0  0  0  0  0  0  0  0
    4.6635   -4.5391   22.7282 C   0  0  0  0  0  0  0  0  0  0  0  0
    4.4317   -3.5597   22.2915 H   0  0  0  0  0  0  0  0  0  0  0  0
    4.6272   -5.2674   21.9066 H   0  0  0  0  0  0  0  0  0  0  0  0
    5.4442    0.6165   20.2148 C   0  0  0  0  0  0  0  0  0  0  0  0
    4.9780    0.6471   21.2013 H   0  0  0  0  0  0  0  0  0  0  0  0
    4.8582    1.2465   19.1211 C   0  0  0  0  0  0  0  0  0  0  0  0
    3.9234    1.7879   19.2057 H   0  0  0  0  0  0  0  0  0  0  0  0
  1  2  1  0
  2  3  2  0
  3  4  1  0
  4  5  1  0
  4  6  2  0
  6  7  1  0
  7  8  2  0
  7  9  1  0
  9 10  1  0
  9 11  1  0
 11 12  1  0
 11 13  1  0
 11 14  1  0
 14 15  1  0
 14 16  1  0
 16 17  2  0
 16 18  1  0
 18 19  1  0
 18 20  1  0
 20 21  1  0
 20 22  1  0
 20 23  1  0
 23 24  1  0
 23 25  1  0
 23 26  1  0
 26 27  1  0
 26 28  1  0
 26 29  1  0
 29 30  1  0
 29 31  1  0
 29 32  1  0
 32 33  1  0
 32 34  1  0
  6 35  1  0
 35 36  1  0
 35 37  2  0
 37 38  1  0
 37  2  1  0
 32 18  1  0
M  END
>  <cnnaffinity>  (1) 
-4.72587

>  <filename>  (1) 
O=C(NCNC(=O)C1CCCCC1)c1cccnc1

$$$$
