
     RDKit          3D

 35 38  0  0  0  0  0  0  0  0999 V2000
    4.9859    1.7687   17.0514 H   0  0  0  0  0  0  0  0  0  0  0  0
    5.4530    1.2518   17.8836 C   0  0  0  0  0  0  0  0  0  0  0  0
    6.6150    0.6280   17.6184 N   0  0  0  0  0  0  0  0  0  0  0  0
    7.2279    0.0008   18.6294 C   0  0  0  0  0  0  0  0  0  0  0  0
    8.1809   -0.4825   18.3994 H   0  0  0  0  0  0  0  0  0  0  0  0
    6.7179   -0.0564   19.9596 C   0  0  0  0  0  0  0  0  0  0  0  0
    7.3660   -0.7120   20.9687 N   0  0  0  0  0  0  0  0  0  0  0  0
    7.0344   -0.8795   22.3647 C   0  0  0  0  0  0  0  0  0  0  0  0
    6.9981    0.0666   22.9315 H   0  0  0  0  0  0  0  0  0  0  0  0
    6.0988   -1.4333   22.5287 H   0  0  0  0  0  0  0  0  0  0  0  0
    8.3580   -1.7021   22.4992 C   0  0  0  0  0  0  0  0  0  0  0  0
    9.0836   -1.2564   23.1842 H   0  0  0  0  0  0  0  0  0  0  0  0
    8.1954   -3.1650   22.8581 C   0  0  0  0  0  0  0  0  0  0  0  0
    8.4721   -4.0605   22.0827 O   0  0  0  0  0  0  0  0  0  0  0  0
    7.6436   -3.4515   24.2123 C   0  0  0  0  0  0  0  0  0  0  0  0
    7.3571   -5.1291   24.6205 S   0  0  0  0  0  0  0  0  0  0  0  0
    6.6377   -4.6801   26.1423 C   0  0  0  0  0  0  0  0  0  0  0  0
    6.1448   -5.5250   27.1550 C   0  0  0  0  0  0  0  0  0  0  0  0
    6.2012   -6.6071   27.0638 H   0  0  0  0  0  0  0  0  0  0  0  0
    5.6108   -4.9519   28.3057 C   0  0  0  0  0  0  0  0  0  0  0  0
    5.2384   -5.5932   29.1017 H   0  0  0  0  0  0  0  0  0  0  0  0
    5.5554   -3.5477   28.4561 C   0  0  0  0  0  0  0  0  0  0  0  0
    5.1101   -3.1210   29.3545 H   0  0  0  0  0  0  0  0  0  0  0  0
    6.1149   -2.7107   27.5001 C   0  0  0  0  0  0  0  0  0  0  0  0
    6.1503   -1.6307   27.6560 H   0  0  0  0  0  0  0  0  0  0  0  0
    6.6580   -3.2746   26.3230 C   0  0  0  0  0  0  0  0  0  0  0  0
    7.2624   -2.6031   25.2118 C   0  0  0  0  0  0  0  0  0  0  0  0
    7.4104   -1.5248   25.2400 H   0  0  0  0  0  0  0  0  0  0  0  0
    8.6306   -1.4129   21.0010 C   0  0  0  0  0  0  0  0  0  0  0  0
    8.6567   -2.2975   20.3629 H   0  0  0  0  0  0  0  0  0  0  0  0
    9.4947   -0.7712   20.7727 H   0  0  0  0  0  0  0  0  0  0  0  0
    5.4930    0.6008   20.2056 C   0  0  0  0  0  0  0  0  0  0  0  0
    5.0715    0.5976   21.2105 H   0  0  0  0  0  0  0  0  0  0  0  0
    4.8599    1.2572   19.1516 C   0  0  0  0  0  0  0  0  0  0  0  0
    3.9237    1.7843   19.3091 H   0  0  0  0  0  0  0  0  0  0  0  0
  1  2  1  0
  2  3  2  0
  3  4  1  0
  4  5  1  0
  4  6  2  0
  6  7  1  0
  7  8  1  0
  8  9  1  0
  8 10  1  0
  8 11  1  0
 11 12  1  0
 11 13  1  0
 13 14  2  0
 13 15  1  0
 15 16  1  0
 16 17  1  0
 17 18  2  0
 18 19  1  0
 18 20  1  0
 20 21  1  0
 20 22  2  0
 22 23  1  0
 22 24  1  0
 24 25  1  0
 24 26  2  0
 26 27  1  0
 27 28  1  0
 11 29  1  0
 29 30  1  0
 29 31  1  0
  6 32  1  0
 32 33  1  0
 32 34  2  0
 34 35  1  0
 34  2  1  0
 29  7  1  0
 27 15  2  0
 26 17  1  0
M  END
>  <cnnaffinity>  (1) 
-5.46037

>  <filename>  (1) 
O=C(c1cc2ccccc2s1)C1CN(c2cccnc2)C1

$$$$
