
     RDKit          3D

 39 41  0  0  0  0  0  0  0  0999 V2000
    6.5621   -1.2707   22.6136 H   0  0  0  0  0  0  0  0  0  0  0  0
    6.6454   -1.6084   21.6972 O   0  0  0  0  0  0  0  0  0  0  0  0
    7.4424   -0.7103   20.9543 C   0  0  1  0  0  0  0  0  0  0  0  0
    8.2108   -1.3213   20.4483 H   0  0  0  0  0  0  0  0  0  0  0  0
    6.6363   -0.0408   19.8448 C   0  0  0  0  0  0  0  0  0  0  0  0
    7.1392   -0.0077   18.5350 C   0  0  0  0  0  0  0  0  0  0  0  0
    8.0565   -0.5476   18.2809 H   0  0  0  0  0  0  0  0  0  0  0  0
    6.5734    0.6602   17.5193 N   0  0  0  0  0  0  0  0  0  0  0  0
    5.4292    1.3104   17.7768 C   0  0  0  0  0  0  0  0  0  0  0  0
    4.9874    1.8449   16.9387 H   0  0  0  0  0  0  0  0  0  0  0  0
    4.8001    1.2977   19.0247 C   0  0  0  0  0  0  0  0  0  0  0  0
    3.8676    1.8371   19.1635 H   0  0  0  0  0  0  0  0  0  0  0  0
    5.4060    0.5986   20.0717 C   0  0  0  0  0  0  0  0  0  0  0  0
    4.9365    0.5564   21.0555 H   0  0  0  0  0  0  0  0  0  0  0  0
    8.2048    0.3132   21.8875 C   0  0  0  0  0  0  0  0  0  0  0  0
    7.3570    1.2855   22.5888 N   0  0  0  0  0  0  0  0  0  0  0  0
    7.1694    2.1584   22.1231 H   0  0  0  0  0  0  0  0  0  0  0  0
    6.5850    0.9974   23.6700 C   0  0  0  0  0  0  0  0  0  0  0  0
    6.5651   -0.1403   24.1415 O   0  0  0  0  0  0  0  0  0  0  0  0
    5.7372    2.1196   24.2115 C   0  0  0  0  0  0  0  0  0  0  0  0
    6.0812    3.4786   24.0702 C   0  0  0  0  0  0  0  0  0  0  0  0
    6.9914    3.7686   23.5474 H   0  0  0  0  0  0  0  0  0  0  0  0
    5.2701    4.4779   24.6102 C   0  0  0  0  0  0  0  0  0  0  0  0
    5.5434    5.5204   24.4744 H   0  0  0  0  0  0  0  0  0  0  0  0
    4.0958    4.1434   25.2914 C   0  0  0  0  0  0  0  0  0  0  0  0
    3.4626    4.9267   25.7014 H   0  0  0  0  0  0  0  0  0  0  0  0
    3.7367    2.7977   25.4230 C   0  0  0  0  0  0  0  0  0  0  0  0
    2.8149    2.5341   25.9322 H   0  0  0  0  0  0  0  0  0  0  0  0
    4.5511    1.7934   24.8983 C   0  0  0  0  0  0  0  0  0  0  0  0
    4.2755    0.7465   25.0160 H   0  0  0  0  0  0  0  0  0  0  0  0
    9.3797    1.0374   21.2018 C   0  0  0  0  0  0  0  0  0  0  0  0
    9.3399    2.1255   21.3072 H   0  0  0  0  0  0  0  0  0  0  0  0
    9.4813    0.8023   20.1398 H   0  0  0  0  0  0  0  0  0  0  0  0
   10.3897    0.3134   22.1357 C   0  0  0  0  0  0  0  0  0  0  0  0
   11.0672   -0.3747   21.6209 H   0  0  0  0  0  0  0  0  0  0  0  0
   10.9890    0.9696   22.7767 H   0  0  0  0  0  0  0  0  0  0  0  0
    9.2078   -0.3862   22.8524 C   0  0  0  0  0  0  0  0  0  0  0  0
    9.1824   -1.4816   22.8133 H   0  0  0  0  0  0  0  0  0  0  0  0
    9.0572   -0.0982   23.8939 H   0  0  0  0  0  0  0  0  0  0  0  0
  1  2  1  0
  2  3  1  0
  3  4  1  6
  3  5  1  0
  5  6  2  0
  6  7  1  0
  6  8  1  0
  8  9  2  0
  9 10  1  0
  9 11  1  0
 11 12  1  0
 11 13  2  0
 13 14  1  0
  3 15  1  0
 15 16  1  0
 16 17  1  0
 16 18  1  0
 18 19  2  0
 18 20  1  0
 20 21  2  0
 21 22  1  0
 21 23  1  0
 23 24  1  0
 23 25  2  0
 25 26  1  0
 25 27  1  0
 27 28  1  0
 27 29  2  0
 29 30  1  0
 15 31  1  0
 31 32  1  0
 31 33  1  0
 31 34  1  0
 34 35  1  0
 34 36  1  0
 34 37  1  0
 37 38  1  0
 37 39  1  0
 13  5  1  0
 37 15  1  0
 29 20  1  0
M  END
>  <cnnaffinity>  (1) 
-4.73835

>  <filename>  (1) 
O=C(NC1([C@@H](O)c2cccnc2)CCC1)c1ccccc1

$$$$
