
     RDKit          3D

 32 34  0  0  0  0  0  0  0  0999 V2000
    4.9355    1.8190   16.9670 H   0  0  0  0  0  0  0  0  0  0  0  0
    5.3915    1.3046   17.8115 C   0  0  0  0  0  0  0  0  0  0  0  0
    6.5509    0.6791   17.5680 N   0  0  0  0  0  0  0  0  0  0  0  0
    7.1536    0.0665   18.5969 C   0  0  0  0  0  0  0  0  0  0  0  0
    8.0971   -0.4235   18.3559 H   0  0  0  0  0  0  0  0  0  0  0  0
    6.6454    0.0253   19.9105 C   0  0  0  0  0  0  0  0  0  0  0  0
    7.4283   -0.6103   21.0513 C   0  0  0  0  0  0  0  0  0  0  0  0
    6.7503   -0.9025   21.8632 H   0  0  0  0  0  0  0  0  0  0  0  0
    7.8913   -1.5419   20.6982 H   0  0  0  0  0  0  0  0  0  0  0  0
    8.5321    0.2552   21.6456 C   0  0  0  0  0  0  0  0  0  0  0  0
    8.0668    1.4984   22.2076 N   0  0  0  0  0  0  0  0  0  0  0  0
    7.0754    1.6539   22.1626 H   0  0  0  0  0  0  0  0  0  0  0  0
    8.8426    2.5832   22.5069 C   0  0  0  0  0  0  0  0  0  0  0  0
   10.0511    2.4964   22.6946 O   0  0  0  0  0  0  0  0  0  0  0  0
    8.1935    3.9207   22.6090 C   0  0  0  0  0  0  0  0  0  0  0  0
    6.8567    4.1146   22.3509 O   0  0  0  0  0  0  0  0  0  0  0  0
    6.6210    5.4397   22.4808 C   0  0  0  0  0  0  0  0  0  0  0  0
    5.6084    5.7717   22.2892 H   0  0  0  0  0  0  0  0  0  0  0  0
    7.7530    6.1022   22.8287 C   0  0  0  0  0  0  0  0  0  0  0  0
    7.8464    7.1666   22.9963 H   0  0  0  0  0  0  0  0  0  0  0  0
    8.7812    5.1182   22.9084 C   0  0  0  0  0  0  0  0  0  0  0  0
    9.8340    5.2414   23.1348 H   0  0  0  0  0  0  0  0  0  0  0  0
    9.6803   -0.4502   22.3070 C   0  0  0  0  0  0  0  0  0  0  0  0
   10.1389    0.0410   23.1545 H   0  0  0  0  0  0  0  0  0  0  0  0
    9.6465   -1.5333   22.3851 H   0  0  0  0  0  0  0  0  0  0  0  0
    9.8684    0.1883   20.9624 C   0  0  0  0  0  0  0  0  0  0  0  0
   10.4604    1.0917   20.9219 H   0  0  0  0  0  0  0  0  0  0  0  0
    9.9124   -0.4508   20.0841 H   0  0  0  0  0  0  0  0  0  0  0  0
    5.4144    0.6655   20.1277 C   0  0  0  0  0  0  0  0  0  0  0  0
    4.9513    0.6525   21.1174 H   0  0  0  0  0  0  0  0  0  0  0  0
    4.7776    1.3233   19.0685 C   0  0  0  0  0  0  0  0  0  0  0  0
    3.8427    1.8604   19.2057 H   0  0  0  0  0  0  0  0  0  0  0  0
  1  2  1  0
  2  3  2  0
  3  4  1  0
  4  5  1  0
  4  6  2  0
  6  7  1  0
  7  8  1  0
  7  9  1  0
  7 10  1  0
 10 11  1  0
 11 12  1  0
 11 13  1  0
 13 14  2  0
 13 15  1  0
 15 16  1  0
 16 17  1  0
 17 18  1  0
 17 19  2  0
 19 20  1  0
 19 21  1  0
 21 22  1  0
 10 23  1  0
 23 24  1  0
 23 25  1  0
 23 26  1  0
 26 27  1  0
 26 28  1  0
  6 29  1  0
 29 30  1  0
 29 31  2  0
 31 32  1  0
 31  2  1  0
 26 10  1  0
 21 15  2  0
M  END
>  <cnnaffinity>  (1) 
-4.70031

>  <filename>  (1) 
O=C(NC1(Cc2cccnc2)CC1)c1ccco1

$$$$
