
     RDKit          3D

 29 30  0  0  0  0  0  0  0  0999 V2000
    5.0250    1.7108   17.0341 H   0  0  0  0  0  0  0  0  0  0  0  0
    5.4945    1.2369   17.8906 C   0  0  0  0  0  0  0  0  0  0  0  0
    6.6695    0.6296   17.6554 N   0  0  0  0  0  0  0  0  0  0  0  0
    7.2626    0.0246   18.6931 C   0  0  0  0  0  0  0  0  0  0  0  0
    8.2132   -0.4660   18.5183 H   0  0  0  0  0  0  0  0  0  0  0  0
    6.7053   -0.0255   19.9809 C   0  0  0  0  0  0  0  0  0  0  0  0
    7.4281   -0.6361   20.9952 O   0  0  0  0  0  0  0  0  0  0  0  0
    6.8270   -1.5579   21.8268 C   0  0  0  0  0  0  0  0  0  0  0  0
    5.8214   -2.1728   21.5898 O   0  0  0  0  0  0  0  0  0  0  0  0
    7.6423   -1.6713   22.9105 N   0  0  0  0  0  0  0  0  0  0  0  0
    8.3021   -0.9105   22.9348 H   0  0  0  0  0  0  0  0  0  0  0  0
    7.1925   -2.2769   24.1560 C   0  0  0  0  0  0  0  0  0  0  0  0
    8.0750   -2.6226   24.7079 H   0  0  0  0  0  0  0  0  0  0  0  0
    6.5910   -3.1614   23.9098 H   0  0  0  0  0  0  0  0  0  0  0  0
    6.3702   -1.3596   25.0572 C   0  0  0  0  0  0  0  0  0  0  0  0
    4.9895   -1.5740   25.2147 C   0  0  0  0  0  0  0  0  0  0  0  0
    4.5434   -2.4334   24.7147 H   0  0  0  0  0  0  0  0  0  0  0  0
    4.1735   -0.6851   25.9230 C   0  0  0  0  0  0  0  0  0  0  0  0
    3.0999   -0.8590   25.9759 H   0  0  0  0  0  0  0  0  0  0  0  0
    4.7467    0.4270   26.5499 C   0  0  0  0  0  0  0  0  0  0  0  0
    4.1234    1.1257   27.1089 H   0  0  0  0  0  0  0  0  0  0  0  0
    6.1296    0.6301   26.4815 C   0  0  0  0  0  0  0  0  0  0  0  0
    6.6027    1.4487   27.0206 H   0  0  0  0  0  0  0  0  0  0  0  0
    6.9247   -0.2634   25.7505 C   0  0  0  0  0  0  0  0  0  0  0  0
    8.6510    0.0167   25.7326 Cl  0  0  0  0  0  0  0  0  0  0  0  0
    5.4880    0.6091   20.2260 C   0  0  0  0  0  0  0  0  0  0  0  0
    5.0586    0.5984   21.2288 H   0  0  0  0  0  0  0  0  0  0  0  0
    4.8735    1.2561   19.1450 C   0  0  0  0  0  0  0  0  0  0  0  0
    3.9307    1.7797   19.2699 H   0  0  0  0  0  0  0  0  0  0  0  0
  1  2  1  0
  2  3  2  0
  3  4  1  0
  4  5  1  0
  4  6  2  0
  6  7  1  0
  7  8  1  0
  8  9  2  0
  8 10  1  0
 10 11  1  0
 10 12  1  0
 12 13  1  0
 12 14  1  0
 12 15  1  0
 15 16  2  0
 16 17  1  0
 16 18  1  0
 18 19  1  0
 18 20  2  0
 20 21  1  0
 20 22  1  0
 22 23  1  0
 22 24  2  0
 24 25  1  0
  6 26  1  0
 26 27  1  0
 26 28  2  0
 28 29  1  0
 28  2  1  0
 24 15  1  0
M  END
>  <cnnaffinity>  (1) 
-4.51795

>  <filename>  (1) 
O=C(NCc1ccccc1Cl)Oc1cccnc1

$$$$
