
     RDKit          3D

 34 36  0  0  0  0  0  0  0  0999 V2000
    3.7951   -5.9347   28.0479 H   0  0  0  0  0  0  0  0  0  0  0  0
    4.3773   -5.2301   27.7168 O   0  0  0  0  0  0  0  0  0  0  0  0
    4.2864   -5.5372   26.4107 C   0  0  0  0  0  0  0  0  0  0  0  0
    3.5793   -6.4735   26.1051 O   0  0  0  0  0  0  0  0  0  0  0  0
    5.0768   -4.6664   25.4953 C   0  0  0  0  0  0  0  0  0  0  0  0
    5.8535   -3.5997   25.9983 C   0  0  0  0  0  0  0  0  0  0  0  0
    5.8905   -3.4109   27.0697 H   0  0  0  0  0  0  0  0  0  0  0  0
    6.5908   -2.7974   25.1346 C   0  0  0  0  0  0  0  0  0  0  0  0
    7.2092   -1.9923   25.5106 H   0  0  0  0  0  0  0  0  0  0  0  0
    6.5634   -3.0398   23.7560 C   0  0  0  0  0  0  0  0  0  0  0  0
    7.3307   -2.2129   22.8667 N   0  0  0  0  0  0  0  0  0  0  0  0
    6.7018   -1.5316   21.8476 C   0  0  0  0  0  0  0  0  0  0  0  0
    5.6312   -1.6905   21.7686 H   0  0  0  0  0  0  0  0  0  0  0  0
    7.3664   -0.7141   20.9781 C   0  0  0  0  0  0  0  0  0  0  0  0
    6.6479    0.0077   19.8980 C   0  0  0  0  0  0  0  0  0  0  0  0
    7.1601    0.0694   18.5866 C   0  0  0  0  0  0  0  0  0  0  0  0
    8.1061   -0.4220   18.3543 H   0  0  0  0  0  0  0  0  0  0  0  0
    6.5525    0.6840   17.5637 N   0  0  0  0  0  0  0  0  0  0  0  0
    5.3890    1.3031   17.8226 C   0  0  0  0  0  0  0  0  0  0  0  0
    4.9162    1.8007   16.9778 H   0  0  0  0  0  0  0  0  0  0  0  0
    4.7936    1.3207   19.0891 C   0  0  0  0  0  0  0  0  0  0  0  0
    3.8623    1.8544   19.2379 H   0  0  0  0  0  0  0  0  0  0  0  0
    5.4273    0.6544   20.1391 C   0  0  0  0  0  0  0  0  0  0  0  0
    5.0046    0.6499   21.1436 H   0  0  0  0  0  0  0  0  0  0  0  0
    8.7794   -0.5647   21.1342 C   0  0  0  0  0  0  0  0  0  0  0  0
    9.3095    0.1017   20.4547 H   0  0  0  0  0  0  0  0  0  0  0  0
    9.4296   -1.2162   22.1316 C   0  0  0  0  0  0  0  0  0  0  0  0
   10.4936   -1.1447   22.3014 H   0  0  0  0  0  0  0  0  0  0  0  0
    8.7430   -2.0941   23.0692 C   0  0  0  0  0  0  0  0  0  0  0  0
    9.3258   -2.6938   23.9566 O   0  0  0  0  0  0  0  0  0  0  0  0
    5.7850   -4.0867   23.2458 C   0  0  0  0  0  0  0  0  0  0  0  0
    5.7859   -4.2591   22.1755 H   0  0  0  0  0  0  0  0  0  0  0  0
    5.0500   -4.9055   24.1045 C   0  0  0  0  0  0  0  0  0  0  0  0
    4.4500   -5.7246   23.7109 H   0  0  0  0  0  0  0  0  0  0  0  0
  1  2  1  0
  2  3  1  0
  3  4  2  0
  3  5  1  0
  5  6  2  0
  6  7  1  0
  6  8  1  0
  8  9  1  0
  8 10  2  0
 10 11  1  0
 11 12  1  0
 12 13  1  0
 12 14  2  0
 14 15  1  0
 15 16  2  0
 16 17  1  0
 16 18  1  0
 18 19  2  0
 19 20  1  0
 19 21  1  0
 21 22  1  0
 21 23  2  0
 23 24  1  0
 14 25  1  0
 25 26  1  0
 25 27  2  0
 27 28  1  0
 27 29  1  0
 29 30  2  0
 10 31  1  0
 31 32  1  0
 31 33  2  0
 33 34  1  0
 33  5  1  0
 29 11  1  0
 23 15  1  0
M  END
>  <cnnaffinity>  (1) 
-5.0766

>  <filename>  (1) 
O=C(O)c1ccc(-n2cc(-c3cccnc3)ccc2=O)cc1

$$$$
