
     RDKit          3D

 30 30  0  0  0  0  0  0  0  0999 V2000
   10.0472   -5.5504   27.4488 H   0  0  0  0  0  0  0  0  0  0  0  0
    9.6322   -4.7520   27.0669 O   0  0  0  0  0  0  0  0  0  0  0  0
   10.2280   -4.7929   25.8683 C   0  0  0  0  0  0  0  0  0  0  0  0
   11.0202   -5.6746   25.6519 O   0  0  0  0  0  0  0  0  0  0  0  0
    9.7987   -3.7638   24.8612 C   0  0  0  0  0  0  0  0  0  0  0  0
   10.6925   -3.5502   24.2656 H   0  0  0  0  0  0  0  0  0  0  0  0
    9.4775   -2.8330   25.3406 H   0  0  0  0  0  0  0  0  0  0  0  0
    8.7048   -4.3504   23.9554 C   0  0  0  0  0  0  0  0  0  0  0  0
    7.8044   -4.5797   24.5455 H   0  0  0  0  0  0  0  0  0  0  0  0
    9.0556   -5.2942   23.5094 H   0  0  0  0  0  0  0  0  0  0  0  0
    8.3243   -3.4215   22.8058 C   0  0  0  0  0  0  0  0  0  0  0  0
    9.1644   -3.0811   22.1978 H   0  0  0  0  0  0  0  0  0  0  0  0
    7.5912   -3.8892   22.1502 H   0  0  0  0  0  0  0  0  0  0  0  0
    7.5194   -1.9242   23.3201 S   0  0  0  0  0  0  0  0  0  0  0  0
    8.5060   -0.9382   23.7035 O   0  0  0  0  0  0  0  0  0  0  0  0
    6.3749   -2.2062   24.1644 O   0  0  0  0  0  0  0  0  0  0  0  0
    6.7320   -1.5323   21.9239 N   0  0  0  0  0  0  0  0  0  0  0  0
    5.8054   -1.2623   22.2081 H   0  0  0  0  0  0  0  0  0  0  0  0
    7.4462   -0.8545   20.9770 C   0  0  0  0  0  0  0  0  0  0  0  0
    8.6442   -1.0121   20.8797 O   0  0  0  0  0  0  0  0  0  0  0  0
    6.6402   -0.0595   20.0252 C   0  0  0  0  0  0  0  0  0  0  0  0
    7.1942   -0.0079   18.7412 C   0  0  0  0  0  0  0  0  0  0  0  0
    8.1518   -0.4953   18.5700 H   0  0  0  0  0  0  0  0  0  0  0  0
    6.6267    0.6055   17.7024 N   0  0  0  0  0  0  0  0  0  0  0  0
    5.4641    1.2366   17.9188 C   0  0  0  0  0  0  0  0  0  0  0  0
    5.0200    1.7340   17.0553 H   0  0  0  0  0  0  0  0  0  0  0  0
    4.8365    1.2726   19.1696 C   0  0  0  0  0  0  0  0  0  0  0  0
    3.9030    1.8127   19.2760 H   0  0  0  0  0  0  0  0  0  0  0  0
    5.4257    0.6133   20.2510 C   0  0  0  0  0  0  0  0  0  0  0  0
    4.9496    0.6611   21.2349 H   0  0  0  0  0  0  0  0  0  0  0  0
  1  2  1  0
  2  3  1  0
  3  4  2  0
  3  5  1  0
  5  6  1  0
  5  7  1  0
  5  8  1  0
  8  9  1  0
  8 10  1  0
  8 11  1  0
 11 12  1  0
 11 13  1  0
 11 14  1  0
 14 15  2  0
 14 16  2  0
 14 17  1  0
 17 18  1  0
 17 19  1  0
 19 20  2  0
 19 21  1  0
 21 22  2  0
 22 23  1  0
 22 24  1  0
 24 25  2  0
 25 26  1  0
 25 27  1  0
 27 28  1  0
 27 29  2  0
 29 30  1  0
 29 21  1  0
M  END
>  <cnnaffinity>  (1) 
-4.6407

>  <filename>  (1) 
O=C(O)CCCS(=O)(=O)NC(=O)c1cccnc1

$$$$
