
     RDKit          3D

 32 34  0  0  0  0  0  0  0  0999 V2000
    4.9267    1.8138   16.9787 H   0  0  0  0  0  0  0  0  0  0  0  0
    5.4039    1.3146   17.8187 C   0  0  0  0  0  0  0  0  0  0  0  0
    6.5690    0.7009   17.5550 N   0  0  0  0  0  0  0  0  0  0  0  0
    7.1845    0.0732   18.5641 C   0  0  0  0  0  0  0  0  0  0  0  0
    8.1322   -0.4117   18.3332 H   0  0  0  0  0  0  0  0  0  0  0  0
    6.6588   -0.0006   19.8698 C   0  0  0  0  0  0  0  0  0  0  0  0
    7.3506   -0.7032   20.9344 N   0  0  0  0  0  0  0  0  0  0  0  0
    8.6315   -0.2815   21.2898 C   0  0  0  0  0  0  0  0  0  0  0  0
    9.0329    0.5737   20.7538 H   0  0  0  0  0  0  0  0  0  0  0  0
    9.3639   -0.8794   22.2598 C   0  0  0  0  0  0  0  0  0  0  0  0
   10.6677   -0.3895   22.5603 N   0  0  0  0  0  0  0  0  0  0  0  0
   11.3616   -1.0052   22.9545 H   0  0  0  0  0  0  0  0  0  0  0  0
   11.0924    0.9250   22.5066 C   0  0  0  0  0  0  0  0  0  0  0  0
   10.3300    1.8630   22.4033 O   0  0  0  0  0  0  0  0  0  0  0  0
   12.5782    1.1357   22.5786 C   0  0  0  0  0  0  0  0  0  0  0  0
   12.7686    2.1818   22.3561 H   0  0  0  0  0  0  0  0  0  0  0  0
   13.4718    0.4680   23.6016 C   0  0  0  0  0  0  0  0  0  0  0  0
   13.0576   -0.2140   24.3379 H   0  0  0  0  0  0  0  0  0  0  0  0
   14.2641    1.0843   24.0009 H   0  0  0  0  0  0  0  0  0  0  0  0
   13.6032    0.0969   22.1659 C   0  0  0  0  0  0  0  0  0  0  0  0
   13.2579   -0.8684   21.7993 H   0  0  0  0  0  0  0  0  0  0  0  0
   14.4894    0.4473   21.6503 H   0  0  0  0  0  0  0  0  0  0  0  0
    8.7556   -2.0419   22.9889 C   0  0  0  0  0  0  0  0  0  0  0  0
    9.2603   -2.7231   23.8567 O   0  0  0  0  0  0  0  0  0  0  0  0
    7.4663   -2.3368   22.6037 N   0  0  0  0  0  0  0  0  0  0  0  0
    7.0346   -3.1076   23.0776 H   0  0  0  0  0  0  0  0  0  0  0  0
    6.7159   -1.7794   21.6116 C   0  0  0  0  0  0  0  0  0  0  0  0
    5.6233   -2.2233   21.3487 O   0  0  0  0  0  0  0  0  0  0  0  0
    5.4425    0.6434   20.1307 C   0  0  0  0  0  0  0  0  0  0  0  0
    5.0170    0.6063   21.1333 H   0  0  0  0  0  0  0  0  0  0  0  0
    4.8058    1.3215   19.0840 C   0  0  0  0  0  0  0  0  0  0  0  0
    3.8654    1.8482   19.2347 H   0  0  0  0  0  0  0  0  0  0  0  0
  1  2  1  0
  2  3  2  0
  3  4  1  0
  4  5  1  0
  4  6  2  0
  6  7  1  0
  7  8  1  0
  8  9  1  0
  8 10  2  0
 10 11  1  0
 11 12  1  0
 11 13  1  0
 13 14  2  0
 13 15  1  0
 15 16  1  0
 15 17  1  0
 17 18  1  0
 17 19  1  0
 17 20  1  0
 20 21  1  0
 20 22  1  0
 10 23  1  0
 23 24  2  0
 23 25  1  0
 25 26  1  0
 25 27  1  0
 27 28  2  0
  6 29  1  0
 29 30  1  0
 29 31  2  0
 31 32  1  0
 31  2  1  0
 27  7  1  0
 20 15  1  0
M  END
>  <cnnaffinity>  (1) 
-5.50628

>  <filename>  (1) 
O=C(Nc1cn(-c2cccnc2)c(=O)[nH]c1=O)C1CC1

$$$$
