
     RDKit          3D

 38 40  0  0  0  0  0  0  0  0999 V2000
    5.1328    1.8972   16.7845 H   0  0  0  0  0  0  0  0  0  0  0  0
    5.5308    1.3632   17.6447 C   0  0  0  0  0  0  0  0  0  0  0  0
    6.5687    0.5469   17.4052 N   0  0  0  0  0  0  0  0  0  0  0  0
    7.1113   -0.1070   18.4388 C   0  0  0  0  0  0  0  0  0  0  0  0
    7.9707   -0.7338   18.2133 H   0  0  0  0  0  0  0  0  0  0  0  0
    6.6328    0.0012   19.7633 C   0  0  0  0  0  0  0  0  0  0  0  0
    7.2560   -0.6905   20.8767 N   0  0  0  0  0  0  0  0  0  0  0  0
    6.4670   -1.3872   21.7920 C   0  0  0  0  0  0  0  0  0  0  0  0
    5.4016   -1.4147   21.5534 H   0  0  0  0  0  0  0  0  0  0  0  0
    7.0325   -1.9882   22.8666 C   0  0  0  0  0  0  0  0  0  0  0  0
    6.3831   -2.6636   24.0069 C   0  0  0  0  0  0  0  0  0  0  0  0
    6.2393   -2.0807   25.0688 O   0  0  0  0  0  0  0  0  0  0  0  0
    6.0398   -3.9853   23.8268 N   0  0  0  0  0  0  0  0  0  0  0  0
    5.2686   -4.7039   24.8486 C   0  0  0  0  0  0  0  0  0  0  0  0
    5.2527   -4.1185   25.7698 H   0  0  0  0  0  0  0  0  0  0  0  0
    5.7893   -5.6463   25.0758 H   0  0  0  0  0  0  0  0  0  0  0  0
    3.8624   -5.0348   24.3267 C   0  0  0  0  0  0  0  0  0  0  0  0
    3.3209   -5.6230   25.0774 H   0  0  0  0  0  0  0  0  0  0  0  0
    3.3050   -4.1008   24.1763 H   0  0  0  0  0  0  0  0  0  0  0  0
    3.9329   -5.8054   22.9977 C   0  0  0  0  0  0  0  0  0  0  0  0
    4.3730   -6.7973   23.1848 H   0  0  0  0  0  0  0  0  0  0  0  0
    2.9284   -5.9980   22.5963 H   0  0  0  0  0  0  0  0  0  0  0  0
    4.7981   -5.0431   21.9864 C   0  0  0  0  0  0  0  0  0  0  0  0
    4.8914   -5.6093   21.0533 H   0  0  0  0  0  0  0  0  0  0  0  0
    4.3200   -4.0839   21.7463 H   0  0  0  0  0  0  0  0  0  0  0  0
    6.1778   -4.7483   22.5845 C   0  0  0  0  0  0  0  0  0  0  0  0
    6.6850   -5.6898   22.8379 H   0  0  0  0  0  0  0  0  0  0  0  0
    6.8247   -4.2234   21.8802 H   0  0  0  0  0  0  0  0  0  0  0  0
    8.4723   -2.0743   23.0104 C   0  0  0  0  0  0  0  0  0  0  0  0
    9.1044   -2.7951   23.7501 O   0  0  0  0  0  0  0  0  0  0  0  0
    9.1402   -1.2253   22.1753 N   0  0  0  0  0  0  0  0  0  0  0  0
   10.1390   -1.2646   22.2068 H   0  0  0  0  0  0  0  0  0  0  0  0
    8.6559   -0.5870   21.0786 C   0  0  0  0  0  0  0  0  0  0  0  0
    9.4181    0.0042   20.3497 O   0  0  0  0  0  0  0  0  0  0  0  0
    5.5295    0.8308   19.9895 C   0  0  0  0  0  0  0  0  0  0  0  0
    5.1374    0.9304   21.0014 H   0  0  0  0  0  0  0  0  0  0  0  0
    4.9789    1.5371   18.9159 C   0  0  0  0  0  0  0  0  0  0  0  0
    4.1481    2.2198   19.0534 H   0  0  0  0  0  0  0  0  0  0  0  0
  1  2  1  0
  2  3  2  0
  3  4  1  0
  4  5  1  0
  4  6  2  0
  6  7  1  0
  7  8  1  0
  8  9  1  0
  8 10  2  0
 10 11  1  0
 11 12  2  0
 11 13  1  0
 13 14  1  0
 14 15  1  0
 14 16  1  0
 14 17  1  0
 17 18  1  0
 17 19  1  0
 17 20  1  0
 20 21  1  0
 20 22  1  0
 20 23  1  0
 23 24  1  0
 23 25  1  0
 23 26  1  0
 26 27  1  0
 26 28  1  0
 10 29  1  0
 29 30  2  0
 29 31  1  0
 31 32  1  0
 31 33  1  0
 33 34  2  0
  6 35  1  0
 35 36  1  0
 35 37  2  0
 37 38  1  0
 37  2  1  0
 33  7  1  0
 26 13  1  0
M  END
>  <cnnaffinity>  (1) 
-4.94174

>  <filename>  (1) 
O=C(c1cn(-c2cccnc2)c(=O)[nH]c1=O)N1CCCCC1

$$$$
