
     RDKit          3D

 32 34  0  0  0  0  0  0  0  0999 V2000
    4.9317    1.7736   17.0139 H   0  0  0  0  0  0  0  0  0  0  0  0
    5.4126    1.2790   17.8565 C   0  0  0  0  0  0  0  0  0  0  0  0
    6.5778    0.6611   17.6039 N   0  0  0  0  0  0  0  0  0  0  0  0
    7.1915    0.0417   18.6207 C   0  0  0  0  0  0  0  0  0  0  0  0
    8.1380   -0.4343   18.3696 H   0  0  0  0  0  0  0  0  0  0  0  0
    6.6970   -0.0276   19.9591 C   0  0  0  0  0  0  0  0  0  0  0  0
    7.3677   -0.6893   20.9705 N   0  0  0  0  0  0  0  0  0  0  0  0
    7.0567   -0.8873   22.3782 C   0  0  0  0  0  0  0  0  0  0  0  0
    7.0245    0.0390   22.9726 H   0  0  0  0  0  0  0  0  0  0  0  0
    6.1462   -1.4686   22.5718 H   0  0  0  0  0  0  0  0  0  0  0  0
    8.3668   -1.7170   22.5005 C   0  0  0  0  0  0  0  0  0  0  0  0
    9.1144   -1.2624   23.1526 H   0  0  0  0  0  0  0  0  0  0  0  0
    8.2139   -3.1895   22.8684 C   0  0  0  0  0  0  0  0  0  0  0  0
    8.6327   -4.0562   22.1305 O   0  0  0  0  0  0  0  0  0  0  0  0
    7.5301   -3.5478   24.1752 C   0  0  0  0  0  0  0  0  0  0  0  0
    7.0983   -4.8778   24.3722 C   0  0  0  0  0  0  0  0  0  0  0  0
    7.2690   -5.6213   23.5985 H   0  0  0  0  0  0  0  0  0  0  0  0
    6.4587   -5.2619   25.5514 C   0  0  0  0  0  0  0  0  0  0  0  0
    6.1238   -6.2819   25.7266 H   0  0  0  0  0  0  0  0  0  0  0  0
    6.2460   -4.3226   26.5552 C   0  0  0  0  0  0  0  0  0  0  0  0
    5.6370   -4.6803   27.6925 F   0  0  0  0  0  0  0  0  0  0  0  0
    6.6688   -3.0006   26.3803 C   0  0  0  0  0  0  0  0  0  0  0  0
    6.4578   -2.1065   27.3559 F   0  0  0  0  0  0  0  0  0  0  0  0
    7.3055   -2.6112   25.2069 C   0  0  0  0  0  0  0  0  0  0  0  0
    7.6114   -1.5685   25.1467 H   0  0  0  0  0  0  0  0  0  0  0  0
    8.6292   -1.4248   21.0004 C   0  0  0  0  0  0  0  0  0  0  0  0
    9.5186   -0.8195   20.7708 H   0  0  0  0  0  0  0  0  0  0  0  0
    8.6529   -2.3217   20.3849 H   0  0  0  0  0  0  0  0  0  0  0  0
    5.4642    0.6286   20.1898 C   0  0  0  0  0  0  0  0  0  0  0  0
    5.0193    0.6228   21.1847 H   0  0  0  0  0  0  0  0  0  0  0  0
    4.8348    1.2864   19.1284 C   0  0  0  0  0  0  0  0  0  0  0  0
    3.9041    1.8182   19.2750 H   0  0  0  0  0  0  0  0  0  0  0  0
  1  2  1  0
  2  3  2  0
  3  4  1  0
  4  5  1  0
  4  6  2  0
  6  7  1  0
  7  8  1  0
  8  9  1  0
  8 10  1  0
  8 11  1  0
 11 12  1  0
 11 13  1  0
 13 14  2  0
 13 15  1  0
 15 16  2  0
 16 17  1  0
 16 18  1  0
 18 19  1  0
 18 20  2  0
 20 21  1  0
 20 22  1  0
 22 23  1  0
 22 24  2  0
 24 25  1  0
 11 26  1  0
 26 27  1  0
 26 28  1  0
  6 29  1  0
 29 30  1  0
 29 31  2  0
 31 32  1  0
 31  2  1  0
 26  7  1  0
 24 15  1  0
M  END
>  <cnnaffinity>  (1) 
-5.22639

>  <filename>  (1) 
O=C(c1ccc(F)c(F)c1)C1CN(c2cccnc2)C1

$$$$
