
     RDKit          3D

 36 39  0  0  0  0  0  0  0  0999 V2000
    4.9407    1.8506   16.9190 H   0  0  0  0  0  0  0  0  0  0  0  0
    5.3857    1.3188   17.7568 C   0  0  0  0  0  0  0  0  0  0  0  0
    6.5328    0.6686   17.5037 N   0  0  0  0  0  0  0  0  0  0  0  0
    7.1139    0.0322   18.5263 C   0  0  0  0  0  0  0  0  0  0  0  0
    8.0406   -0.4902   18.2965 H   0  0  0  0  0  0  0  0  0  0  0  0
    6.5996    0.0273   19.8383 C   0  0  0  0  0  0  0  0  0  0  0  0
    7.3564   -0.5963   20.9284 C   0  0  0  0  0  0  0  0  0  0  0  0
    8.1794   -1.6265   20.7113 N   0  0  0  0  0  0  0  0  0  0  0  0
    8.7045   -1.8614   21.9104 N   0  0  0  0  0  0  0  0  0  0  0  0
    8.3220   -1.0346   22.8863 C   0  0  0  0  0  0  0  0  0  0  0  0
    7.3994   -0.1904   22.3077 C   0  0  0  0  0  0  0  0  0  0  0  0
    6.7332    0.8753   22.9551 N   0  0  0  0  0  0  0  0  0  0  0  0
    6.8962    1.7728   22.5311 H   0  0  0  0  0  0  0  0  0  0  0  0
    6.5998    0.9498   24.3324 C   0  0  0  0  0  0  0  0  0  0  0  0
    6.5880   -0.0293   25.0476 O   0  0  0  0  0  0  0  0  0  0  0  0
    6.4622    2.3331   24.9017 C   0  0  0  0  0  0  0  0  0  0  0  0
    6.3072    2.2747   25.9740 H   0  0  0  0  0  0  0  0  0  0  0  0
    7.2696    3.5226   24.4191 C   0  0  0  0  0  0  0  0  0  0  0  0
    7.6625    4.1878   25.1805 H   0  0  0  0  0  0  0  0  0  0  0  0
    7.9402    3.3965   23.5711 H   0  0  0  0  0  0  0  0  0  0  0  0
    5.7986    3.4852   24.1826 C   0  0  0  0  0  0  0  0  0  0  0  0
    5.4440    3.3184   23.1680 H   0  0  0  0  0  0  0  0  0  0  0  0
    5.1565    4.1302   24.7725 H   0  0  0  0  0  0  0  0  0  0  0  0
    9.1150   -1.2729   24.1392 C   0  0  0  0  0  0  0  0  0  0  0  0
    8.4707   -1.6309   24.9504 H   0  0  0  0  0  0  0  0  0  0  0  0
    9.5832   -0.3453   24.4806 H   0  0  0  0  0  0  0  0  0  0  0  0
   10.1801   -2.2945   23.6543 C   0  0  0  0  0  0  0  0  0  0  0  0
   10.3534   -3.0924   24.3770 H   0  0  0  0  0  0  0  0  0  0  0  0
   11.1243   -1.7787   23.4761 H   0  0  0  0  0  0  0  0  0  0  0  0
    9.6916   -2.8353   22.2862 C   0  0  0  0  0  0  0  0  0  0  0  0
   10.4882   -2.8156   21.5461 H   0  0  0  0  0  0  0  0  0  0  0  0
    9.2406   -3.8325   22.3412 H   0  0  0  0  0  0  0  0  0  0  0  0
    5.3738    0.6717   20.0721 C   0  0  0  0  0  0  0  0  0  0  0  0
    4.9340    0.6570   21.0724 H   0  0  0  0  0  0  0  0  0  0  0  0
    4.7590    1.3287   19.0084 C   0  0  0  0  0  0  0  0  0  0  0  0
    3.8248    1.8633   19.1412 H   0  0  0  0  0  0  0  0  0  0  0  0
  1  2  1  0
  2  3  2  0
  3  4  1  0
  4  5  1  0
  4  6  2  0
  6  7  1  0
  7  8  2  0
  8  9  1  0
  9 10  1  0
 10 11  2  0
 11 12  1  0
 12 13  1  0
 12 14  1  0
 14 15  2  0
 14 16  1  0
 16 17  1  0
 16 18  1  0
 18 19  1  0
 18 20  1  0
 18 21  1  0
 21 22  1  0
 21 23  1  0
 10 24  1  0
 24 25  1  0
 24 26  1  0
 24 27  1  0
 27 28  1  0
 27 29  1  0
 27 30  1  0
 30 31  1  0
 30 32  1  0
  6 33  1  0
 33 34  1  0
 33 35  2  0
 35 36  1  0
 35  2  1  0
 11  7  1  0
 21 16  1  0
 30  9  1  0
M  END
>  <cnnaffinity>  (1) 
-5.38097

>  <filename>  (1) 
O=C(Nc1c(-c2cccnc2)nn2c1CCC2)C1CC1

$$$$
