
     RDKit          3D

 39 41  0  0  0  0  0  0  0  0999 V2000
    4.9208    1.8034   16.9669 H   0  0  0  0  0  0  0  0  0  0  0  0
    5.3946    1.3042   17.8147 C   0  0  0  0  0  0  0  0  0  0  0  0
    6.5599    0.6842   17.5645 N   0  0  0  0  0  0  0  0  0  0  0  0
    7.1739    0.0696   18.5861 C   0  0  0  0  0  0  0  0  0  0  0  0
    8.1092   -0.4225   18.3244 H   0  0  0  0  0  0  0  0  0  0  0  0
    6.6655    0.0163   19.8998 C   0  0  0  0  0  0  0  0  0  0  0  0
    7.3117   -0.7084   21.0042 C   0  0  0  0  0  0  0  0  0  0  0  0
    6.7574   -1.2058   22.1241 C   0  0  0  0  0  0  0  0  0  0  0  0
    5.7124   -1.3035   22.2981 H   0  0  0  0  0  0  0  0  0  0  0  0
    7.7638   -1.7611   22.9281 N   0  0  0  0  0  0  0  0  0  0  0  0
    7.6624   -2.5285   24.1273 C   0  0  0  0  0  0  0  0  0  0  0  0
    8.5099   -3.3347   24.4345 O   0  0  0  0  0  0  0  0  0  0  0  0
    6.5345   -2.2771   24.8458 N   0  0  0  0  0  0  0  0  0  0  0  0
    5.9688   -1.5087   24.5290 H   0  0  0  0  0  0  0  0  0  0  0  0
    6.1860   -3.0614   26.0428 C   0  0  0  0  0  0  0  0  0  0  0  0
    7.1084   -3.1819   26.6337 H   0  0  0  0  0  0  0  0  0  0  0  0
    5.6982   -4.4758   25.6569 C   0  0  0  0  0  0  0  0  0  0  0  0
    4.8224   -4.3684   24.9981 H   0  0  0  0  0  0  0  0  0  0  0  0
    6.4866   -4.9644   25.0725 H   0  0  0  0  0  0  0  0  0  0  0  0
    5.3207   -5.3223   26.8897 C   0  0  0  0  0  0  0  0  0  0  0  0
    6.2247   -5.5205   27.4883 H   0  0  0  0  0  0  0  0  0  0  0  0
    4.9506   -6.3048   26.5712 H   0  0  0  0  0  0  0  0  0  0  0  0
    4.2715   -4.6169   27.7667 C   0  0  0  0  0  0  0  0  0  0  0  0
    4.0562   -5.2139   28.6644 H   0  0  0  0  0  0  0  0  0  0  0  0
    3.3210   -4.5452   27.2169 H   0  0  0  0  0  0  0  0  0  0  0  0
    4.7409   -3.2061   28.1591 C   0  0  0  0  0  0  0  0  0  0  0  0
    5.5992   -3.3021   28.8375 H   0  0  0  0  0  0  0  0  0  0  0  0
    3.9666   -2.6932   28.7430 H   0  0  0  0  0  0  0  0  0  0  0  0
    5.1327   -2.3592   26.9215 C   0  0  0  0  0  0  0  0  0  0  0  0
    5.5084   -1.3788   27.2387 H   0  0  0  0  0  0  0  0  0  0  0  0
    4.2308   -2.1784   26.3144 H   0  0  0  0  0  0  0  0  0  0  0  0
    8.9756   -1.6463   22.2593 C   0  0  0  0  0  0  0  0  0  0  0  0
   10.5185   -2.0680   22.6211 S   0  0  0  0  0  0  0  0  0  0  0  0
    8.6529   -1.0144   21.0963 N   0  0  0  0  0  0  0  0  0  0  0  0
    9.4135   -0.7358   20.4978 H   0  0  0  0  0  0  0  0  0  0  0  0
    5.4414    0.6683   20.1312 C   0  0  0  0  0  0  0  0  0  0  0  0
    5.0089    0.6653   21.1300 H   0  0  0  0  0  0  0  0  0  0  0  0
    4.7994    1.3228   19.0812 C   0  0  0  0  0  0  0  0  0  0  0  0
    3.8636    1.8523   19.2284 H   0  0  0  0  0  0  0  0  0  0  0  0
  1  2  1  0
  2  3  2  0
  3  4  1  0
  4  5  1  0
  4  6  2  0
  6  7  1  0
  7  8  2  0
  8  9  1  0
  8 10  1  0
 10 11  1  0
 11 12  2  0
 11 13  1  0
 13 14  1  0
 13 15  1  0
 15 16  1  0
 15 17  1  0
 17 18  1  0
 17 19  1  0
 17 20  1  0
 20 21  1  0
 20 22  1  0
 20 23  1  0
 23 24  1  0
 23 25  1  0
 23 26  1  0
 26 27  1  0
 26 28  1  0
 26 29  1  0
 29 30  1  0
 29 31  1  0
 10 32  1  0
 32 33  2  0
 32 34  1  0
 34 35  1  0
  6 36  1  0
 36 37  1  0
 36 38  2  0
 38 39  1  0
 38  2  1  0
 34  7  1  0
 29 15  1  0
M  END
>  <cnnaffinity>  (1) 
-5.37077

>  <filename>  (1) 
O=C(NC1CCCCC1)n1cc(-c2cccnc2)[nH]c1=S

$$$$
