
     RDKit          3D

 38 40  0  0  0  0  0  0  0  0999 V2000
    5.0069    1.7183   17.0328 H   0  0  0  0  0  0  0  0  0  0  0  0
    5.4657    1.2548   17.9033 C   0  0  0  0  0  0  0  0  0  0  0  0
    6.6150    0.5964   17.6873 N   0  0  0  0  0  0  0  0  0  0  0  0
    7.1927   -0.0044   18.7351 C   0  0  0  0  0  0  0  0  0  0  0  0
    8.1141   -0.5508   18.5304 H   0  0  0  0  0  0  0  0  0  0  0  0
    6.6744    0.0361   20.0558 C   0  0  0  0  0  0  0  0  0  0  0  0
    7.3086   -0.6570   21.1111 N   0  0  0  0  0  0  0  0  0  0  0  0
    7.2371   -0.3731   22.4738 C   0  0  0  0  0  0  0  0  0  0  0  0
    6.6119    0.5156   23.0350 O   0  0  0  0  0  0  0  0  0  0  0  0
    8.0276   -1.2879   23.1115 N   0  0  0  0  0  0  0  0  0  0  0  0
    8.1258   -1.2828   24.5506 C   0  0  0  0  0  0  0  0  0  0  0  0
    8.6613   -0.3879   24.8919 H   0  0  0  0  0  0  0  0  0  0  0  0
    8.6795   -2.1687   24.8839 H   0  0  0  0  0  0  0  0  0  0  0  0
    6.8254   -1.2345   25.1781 N   0  0  0  0  0  0  0  0  0  0  0  0
    6.3819   -0.3700   24.9178 H   0  0  0  0  0  0  0  0  0  0  0  0
    5.9520   -2.2776   24.9705 C   0  0  0  0  0  0  0  0  0  0  0  0
    6.3133   -3.3561   24.5217 O   0  0  0  0  0  0  0  0  0  0  0  0
    4.5324   -2.0165   25.4170 C   0  0  0  0  0  0  0  0  0  0  0  0
    3.7479   -3.1133   25.8200 C   0  0  0  0  0  0  0  0  0  0  0  0
    4.1895   -4.1086   25.8398 H   0  0  0  0  0  0  0  0  0  0  0  0
    2.4152   -2.9338   26.2031 C   0  0  0  0  0  0  0  0  0  0  0  0
    1.8239   -3.7860   26.5231 H   0  0  0  0  0  0  0  0  0  0  0  0
    1.8400   -1.6593   26.1840 C   0  0  0  0  0  0  0  0  0  0  0  0
    0.7987   -1.5159   26.4684 H   0  0  0  0  0  0  0  0  0  0  0  0
    2.6128   -0.5611   25.8051 C   0  0  0  0  0  0  0  0  0  0  0  0
    2.1937    0.4422   25.8084 H   0  0  0  0  0  0  0  0  0  0  0  0
    3.9463   -0.7334   25.4324 C   0  0  0  0  0  0  0  0  0  0  0  0
    4.5054    0.1451   25.1062 H   0  0  0  0  0  0  0  0  0  0  0  0
    8.3759   -2.4202   22.2655 C   0  0  0  0  0  0  0  0  0  0  0  0
    9.4505   -2.6322   22.3053 H   0  0  0  0  0  0  0  0  0  0  0  0
    7.8205   -3.3199   22.5610 H   0  0  0  0  0  0  0  0  0  0  0  0
    7.9634   -1.9371   20.8691 C   0  0  0  0  0  0  0  0  0  0  0  0
    7.2596   -2.6238   20.3857 H   0  0  0  0  0  0  0  0  0  0  0  0
    8.8277   -1.8120   20.2072 H   0  0  0  0  0  0  0  0  0  0  0  0
    5.4841    0.7458   20.2679 C   0  0  0  0  0  0  0  0  0  0  0  0
    5.0798    0.8267   21.2733 H   0  0  0  0  0  0  0  0  0  0  0  0
    4.8621    1.3419   19.1632 C   0  0  0  0  0  0  0  0  0  0  0  0
    3.9243    1.8721   19.2743 H   0  0  0  0  0  0  0  0  0  0  0  0
  1  2  1  0
  2  3  2  0
  3  4  1  0
  4  5  1  0
  4  6  2  0
  6  7  1  0
  7  8  1  0
  8  9  2  0
  8 10  1  0
 10 11  1  0
 11 12  1  0
 11 13  1  0
 11 14  1  0
 14 15  1  0
 14 16  1  0
 16 17  2  0
 16 18  1  0
 18 19  2  0
 19 20  1  0
 19 21  1  0
 21 22  1  0
 21 23  2  0
 23 24  1  0
 23 25  1  0
 25 26  1  0
 25 27  2  0
 27 28  1  0
 10 29  1  0
 29 30  1  0
 29 31  1  0
 29 32  1  0
 32 33  1  0
 32 34  1  0
  6 35  1  0
 35 36  1  0
 35 37  2  0
 37 38  1  0
 37  2  1  0
 32  7  1  0
 27 18  1  0
M  END
>  <cnnaffinity>  (1) 
-4.97217

>  <filename>  (1) 
O=C(NCN1CCN(c2cccnc2)C1=O)c1ccccc1

$$$$
