
     RDKit          3D

 33 35  0  0  0  0  0  0  0  0999 V2000
    4.9167    1.8060   16.9839 H   0  0  0  0  0  0  0  0  0  0  0  0
    5.3880    1.2990   17.8244 C   0  0  0  0  0  0  0  0  0  0  0  0
    6.5443    0.6717   17.5604 N   0  0  0  0  0  0  0  0  0  0  0  0
    7.1609    0.0478   18.5728 C   0  0  0  0  0  0  0  0  0  0  0  0
    8.1050   -0.4391   18.3306 H   0  0  0  0  0  0  0  0  0  0  0  0
    6.6547   -0.0019   19.8880 C   0  0  0  0  0  0  0  0  0  0  0  0
    7.3159   -0.7051   20.9467 N   0  0  0  0  0  0  0  0  0  0  0  0
    6.7864   -1.6859   21.7504 C   0  0  0  0  0  0  0  0  0  0  0  0
    5.7606   -2.0193   21.6862 H   0  0  0  0  0  0  0  0  0  0  0  0
    7.6787   -2.1567   22.5751 N   0  0  0  0  0  0  0  0  0  0  0  0
    8.8410   -1.4646   22.3521 N   0  0  0  0  0  0  0  0  0  0  0  0
    8.6161   -0.5864   21.4089 C   0  0  0  0  0  0  0  0  0  0  0  0
    9.6264    0.4390   20.9343 C   0  0  0  0  0  0  0  0  0  0  0  0
    9.2372    0.9062   20.0261 H   0  0  0  0  0  0  0  0  0  0  0  0
   10.5527   -0.0909   20.6976 H   0  0  0  0  0  0  0  0  0  0  0  0
    9.9552    1.5195   21.8714 N   0  0  0  0  0  0  0  0  0  0  0  0
   10.6662    1.3517   22.5688 H   0  0  0  0  0  0  0  0  0  0  0  0
    8.9641    2.3865   22.2700 C   0  0  0  0  0  0  0  0  0  0  0  0
    7.8482    2.3434   21.7799 O   0  0  0  0  0  0  0  0  0  0  0  0
    9.3543    3.3862   23.3658 C   0  0  0  0  0  0  0  0  0  0  0  0
    8.3519    4.0376   24.1128 C   0  0  0  0  0  0  0  0  0  0  0  0
    7.3014    3.8371   23.9286 H   0  0  0  0  0  0  0  0  0  0  0  0
    8.7119    4.9907   25.0724 C   0  0  0  0  0  0  0  0  0  0  0  0
    7.9458    5.5097   25.6490 H   0  0  0  0  0  0  0  0  0  0  0  0
    9.9795    5.3380   25.3349 N   0  0  0  0  0  0  0  0  0  0  0  0
   10.9394    4.7295   24.6264 C   0  0  0  0  0  0  0  0  0  0  0  0
   11.9630    5.0220   24.8611 H   0  0  0  0  0  0  0  0  0  0  0  0
   10.6848    3.7577   23.6551 C   0  0  0  0  0  0  0  0  0  0  0  0
   11.5345    3.3518   23.1154 H   0  0  0  0  0  0  0  0  0  0  0  0
    5.4430    0.6468   20.1460 C   0  0  0  0  0  0  0  0  0  0  0  0
    5.0498    0.6459   21.1633 H   0  0  0  0  0  0  0  0  0  0  0  0
    4.8032    1.3136   19.0939 C   0  0  0  0  0  0  0  0  0  0  0  0
    3.8734    1.8487   19.2463 H   0  0  0  0  0  0  0  0  0  0  0  0
  1  2  1  0
  2  3  2  0
  3  4  1  0
  4  5  1  0
  4  6  2  0
  6  7  1  0
  7  8  1  0
  8  9  1  0
  8 10  2  0
 10 11  1  0
 11 12  2  0
 12 13  1  0
 13 14  1  0
 13 15  1  0
 13 16  1  0
 16 17  1  0
 16 18  1  0
 18 19  2  0
 18 20  1  0
 20 21  2  0
 21 22  1  0
 21 23  1  0
 23 24  1  0
 23 25  2  0
 25 26  1  0
 26 27  1  0
 26 28  2  0
 28 29  1  0
  6 30  1  0
 30 31  1  0
 30 32  2  0
 32 33  1  0
 32  2  1  0
 12  7  1  0
 28 20  1  0
M  END
>  <cnnaffinity>  (1) 
-4.82457

>  <filename>  (1) 
O=C(NCc1nncn1-c1cccnc1)c1ccncc1

$$$$
