
     RDKit          3D

 44 47  0  0  0  0  0  0  0  0999 V2000
    5.0756    1.7607   16.8505 H   0  0  0  0  0  0  0  0  0  0  0  0
    5.5328    1.3092   17.7289 C   0  0  0  0  0  0  0  0  0  0  0  0
    6.7093    0.6950   17.5325 N   0  0  0  0  0  0  0  0  0  0  0  0
    7.2899    0.1150   18.5888 C   0  0  0  0  0  0  0  0  0  0  0  0
    8.2423   -0.3752   18.3971 H   0  0  0  0  0  0  0  0  0  0  0  0
    6.7294    0.0982   19.8834 C   0  0  0  0  0  0  0  0  0  0  0  0
    7.3489   -0.6940   20.9717 C   0  0  0  0  0  0  0  0  0  0  0  0
    8.5447   -1.2846   20.8008 N   0  0  0  0  0  0  0  0  0  0  0  0
    8.6884   -2.0067   21.9287 N   0  0  0  0  0  0  0  0  0  0  0  0
    9.6969   -2.7916   22.4735 C   0  0  0  0  0  0  0  0  0  0  0  0
   10.6737   -2.8018   22.0121 H   0  0  0  0  0  0  0  0  0  0  0  0
    9.1743   -3.3439   23.5944 C   0  0  0  0  0  0  0  0  0  0  0  0
    9.5653   -3.9995   24.3613 H   0  0  0  0  0  0  0  0  0  0  0  0
    7.8687   -2.8642   23.7647 N   0  0  0  0  0  0  0  0  0  0  0  0
    6.8541   -3.5135   24.4902 N   0  0  0  0  0  0  0  0  0  0  0  0
    6.0544   -2.9110   24.6365 H   0  0  0  0  0  0  0  0  0  0  0  0
    7.1310   -4.2335   25.6676 C   0  0  0  0  0  0  0  0  0  0  0  0
    8.2405   -4.5151   26.0766 O   0  0  0  0  0  0  0  0  0  0  0  0
    5.9774   -4.6048   26.2981 N   0  0  0  0  0  0  0  0  0  0  0  0
    5.1182   -4.4870   25.7986 H   0  0  0  0  0  0  0  0  0  0  0  0
    5.9459   -5.5187   27.4538 C   0  0  0  0  0  0  0  0  0  0  0  0
    6.6627   -6.3384   27.2956 H   0  0  0  0  0  0  0  0  0  0  0  0
    6.3715   -4.7742   28.7290 C   0  0  0  0  0  0  0  0  0  0  0  0
    6.5028   -5.4919   29.5506 H   0  0  0  0  0  0  0  0  0  0  0  0
    7.3570   -4.3509   28.5230 H   0  0  0  0  0  0  0  0  0  0  0  0
    5.3266   -3.7294   29.1627 C   0  0  0  0  0  0  0  0  0  0  0  0
    5.2355   -2.9823   28.3602 H   0  0  0  0  0  0  0  0  0  0  0  0
    5.6365   -3.2024   30.0757 H   0  0  0  0  0  0  0  0  0  0  0  0
    3.9750   -4.4068   29.4198 C   0  0  0  0  0  0  0  0  0  0  0  0
    4.0883   -5.1029   30.2655 H   0  0  0  0  0  0  0  0  0  0  0  0
    3.2283   -3.6736   29.7425 H   0  0  0  0  0  0  0  0  0  0  0  0
    3.4679   -5.1843   28.1953 C   0  0  0  0  0  0  0  0  0  0  0  0
    2.5825   -5.7718   28.4740 H   0  0  0  0  0  0  0  0  0  0  0  0
    3.1299   -4.4875   27.4139 H   0  0  0  0  0  0  0  0  0  0  0  0
    4.5468   -6.1355   27.6376 C   0  0  0  0  0  0  0  0  0  0  0  0
    4.6442   -6.9788   28.3356 H   0  0  0  0  0  0  0  0  0  0  0  0
    4.2213   -6.5815   26.6943 H   0  0  0  0  0  0  0  0  0  0  0  0
    7.6117   -1.9711   22.7484 C   0  0  0  0  0  0  0  0  0  0  0  0
    6.7548   -1.0125   22.2200 C   0  0  0  0  0  0  0  0  0  0  0  0
    5.9608   -0.4837   22.7140 H   0  0  0  0  0  0  0  0  0  0  0  0
    5.5112    0.7747   20.0702 C   0  0  0  0  0  0  0  0  0  0  0  0
    5.0468    0.8253   21.0562 H   0  0  0  0  0  0  0  0  0  0  0  0
    4.9007    1.3801   18.9741 C   0  0  0  0  0  0  0  0  0  0  0  0
    3.9559    1.9048   19.0680 H   0  0  0  0  0  0  0  0  0  0  0  0
  1  2  1  0
  2  3  2  0
  3  4  1  0
  4  5  1  0
  4  6  2  0
  6  7  1  0
  7  8  2  0
  8  9  1  0
  9 10  1  0
 10 11  1  0
 10 12  2  0
 12 13  1  0
 12 14  1  0
 14 15  1  0
 15 16  1  0
 15 17  1  0
 17 18  2  0
 17 19  1  0
 19 20  1  0
 19 21  1  0
 21 22  1  0
 21 23  1  0
 23 24  1  0
 23 25  1  0
 23 26  1  0
 26 27  1  0
 26 28  1  0
 26 29  1  0
 29 30  1  0
 29 31  1  0
 29 32  1  0
 32 33  1  0
 32 34  1  0
 32 35  1  0
 35 36  1  0
 35 37  1  0
 14 38  1  0
 38 39  2  0
 39 40  1  0
  6 41  1  0
 41 42  1  0
 41 43  2  0
 43 44  1  0
 43  2  1  0
 39  7  1  0
 38  9  1  0
 35 21  1  0
M  END
>  <cnnaffinity>  (1) 
-5.33196

>  <filename>  (1) 
O=C(NC1CCCCC1)Nn1ccn2nc(-c3cccnc3)cc12

$$$$
