
     RDKit          3D

 39 41  0  0  0  0  0  0  0  0999 V2000
    4.9431    1.8068   17.0026 H   0  0  0  0  0  0  0  0  0  0  0  0
    5.4038    1.2825   17.8363 C   0  0  0  0  0  0  0  0  0  0  0  0
    6.5591    0.6476   17.5724 N   0  0  0  0  0  0  0  0  0  0  0  0
    7.1827    0.0300   18.5848 C   0  0  0  0  0  0  0  0  0  0  0  0
    8.1350   -0.4518   18.3616 H   0  0  0  0  0  0  0  0  0  0  0  0
    6.6637   -0.0063   19.8941 C   0  0  0  0  0  0  0  0  0  0  0  0
    7.3316   -0.6729   20.9667 N   0  0  0  0  0  0  0  0  0  0  0  0
    6.6961   -1.6050   21.7928 C   0  0  0  0  0  0  0  0  0  0  0  0
    5.6599   -1.8881   21.7272 H   0  0  0  0  0  0  0  0  0  0  0  0
    7.6185   -2.0432   22.6637 C   0  0  0  0  0  0  0  0  0  0  0  0
    7.5647   -2.9599   23.7015 N   0  0  0  0  0  0  0  0  0  0  0  0
    8.2200   -2.8471   24.4536 H   0  0  0  0  0  0  0  0  0  0  0  0
    6.4392   -3.7261   23.9000 C   0  0  0  0  0  0  0  0  0  0  0  0
    5.6502   -3.9387   22.9961 O   0  0  0  0  0  0  0  0  0  0  0  0
    6.2718   -4.3578   25.2736 C   0  0  0  0  0  0  0  0  0  0  0  0
    6.9433   -3.8484   25.9781 H   0  0  0  0  0  0  0  0  0  0  0  0
    4.8100   -4.2437   25.7665 C   0  0  0  0  0  0  0  0  0  0  0  0
    4.1778   -4.6784   24.9799 H   0  0  0  0  0  0  0  0  0  0  0  0
    4.4974   -3.1979   25.8683 H   0  0  0  0  0  0  0  0  0  0  0  0
    4.5810   -5.0002   27.0818 C   0  0  0  0  0  0  0  0  0  0  0  0
    5.1621   -4.5372   27.8921 H   0  0  0  0  0  0  0  0  0  0  0  0
    3.5322   -4.9205   27.3868 H   0  0  0  0  0  0  0  0  0  0  0  0
    4.9636   -6.4778   26.9467 C   0  0  0  0  0  0  0  0  0  0  0  0
    4.8901   -7.0017   27.9110 H   0  0  0  0  0  0  0  0  0  0  0  0
    4.2593   -6.9797   26.2618 H   0  0  0  0  0  0  0  0  0  0  0  0
    6.3786   -6.6646   26.3925 C   0  0  0  0  0  0  0  0  0  0  0  0
    7.1410   -6.4656   27.1601 H   0  0  0  0  0  0  0  0  0  0  0  0
    6.4447   -7.7162   26.1433 H   0  0  0  0  0  0  0  0  0  0  0  0
    6.6568   -5.8460   25.1284 C   0  0  0  0  0  0  0  0  0  0  0  0
    7.7134   -5.9425   24.8435 H   0  0  0  0  0  0  0  0  0  0  0  0
    6.0582   -6.2489   24.2950 H   0  0  0  0  0  0  0  0  0  0  0  0
    8.7845   -1.3824   22.4068 N   0  0  0  0  0  0  0  0  0  0  0  0
    9.6917   -1.4846   22.8290 H   0  0  0  0  0  0  0  0  0  0  0  0
    8.6413   -0.4952   21.3852 C   0  0  0  0  0  0  0  0  0  0  0  0
    9.8332    0.5380   20.8834 S   0  0  0  0  0  0  0  0  0  0  0  0
    5.4491    0.6373   20.1509 C   0  0  0  0  0  0  0  0  0  0  0  0
    5.0494    0.6251   21.1667 H   0  0  0  0  0  0  0  0  0  0  0  0
    4.8065    1.3040   19.1035 C   0  0  0  0  0  0  0  0  0  0  0  0
    3.8747    1.8437   19.2637 H   0  0  0  0  0  0  0  0  0  0  0  0
  1  2  1  0
  2  3  2  0
  3  4  1  0
  4  5  1  0
  4  6  2  0
  6  7  1  0
  7  8  1  0
  8  9  1  0
  8 10  2  0
 10 11  1  0
 11 12  1  0
 11 13  1  0
 13 14  2  0
 13 15  1  0
 15 16  1  0
 15 17  1  0
 17 18  1  0
 17 19  1  0
 17 20  1  0
 20 21  1  0
 20 22  1  0
 20 23  1  0
 23 24  1  0
 23 25  1  0
 23 26  1  0
 26 27  1  0
 26 28  1  0
 26 29  1  0
 29 30  1  0
 29 31  1  0
 10 32  1  0
 32 33  1  0
 32 34  1  0
 34 35  2  0
  6 36  1  0
 36 37  1  0
 36 38  2  0
 38 39  1  0
 38  2  1  0
 34  7  1  0
 29 15  1  0
M  END
>  <cnnaffinity>  (1) 
-5.45325

>  <filename>  (1) 
O=C(Nc1cn(-c2cccnc2)c(=S)[nH]1)C1CCCCC1

$$$$
