
     RDKit          3D

 31 33  0  0  0  0  0  0  0  0999 V2000
   10.4372    4.1596   21.9309 H   0  0  0  0  0  0  0  0  0  0  0  0
   10.3431    3.3225   22.4272 O   0  0  0  0  0  0  0  0  0  0  0  0
   11.6365    3.0645   22.6743 C   0  0  0  0  0  0  0  0  0  0  0  0
   12.4727    3.8649   22.3337 O   0  0  0  0  0  0  0  0  0  0  0  0
   11.8878    1.7298   23.3347 C   0  0  0  0  0  0  0  0  0  0  0  0
   12.8735    1.8061   23.7942 H   0  0  0  0  0  0  0  0  0  0  0  0
   11.1489    1.6161   24.1304 H   0  0  0  0  0  0  0  0  0  0  0  0
   11.8771    0.5174   22.3503 C   0  0  0  0  0  0  0  0  0  0  0  0
   12.5100   -0.2853   22.7397 H   0  0  0  0  0  0  0  0  0  0  0  0
   12.3514    0.8469   21.4276 H   0  0  0  0  0  0  0  0  0  0  0  0
   10.5197   -0.0543   22.0449 C   0  0  0  0  0  0  0  0  0  0  0  0
   10.0143   -0.9808   22.8650 N   0  0  0  0  0  0  0  0  0  0  0  0
    8.7859   -1.1842   22.3634 N   0  0  0  0  0  0  0  0  0  0  0  0
    7.7049   -1.9360   22.7665 C   0  0  0  0  0  0  0  0  0  0  0  0
    7.8148   -2.5910   23.6158 H   0  0  0  0  0  0  0  0  0  0  0  0
    6.7071   -1.6429   21.8886 C   0  0  0  0  0  0  0  0  0  0  0  0
    5.7096   -2.0379   21.8047 H   0  0  0  0  0  0  0  0  0  0  0  0
    7.1765   -0.7103   20.9576 N   0  0  0  0  0  0  0  0  0  0  0  0
    6.4783   -0.1164   19.8822 C   0  0  0  0  0  0  0  0  0  0  0  0
    7.0477   -0.1217   18.5930 C   0  0  0  0  0  0  0  0  0  0  0  0
    7.9495   -0.7031   18.4068 H   0  0  0  0  0  0  0  0  0  0  0  0
    6.5316    0.5447   17.5563 N   0  0  0  0  0  0  0  0  0  0  0  0
    5.4091    1.2498   17.7673 C   0  0  0  0  0  0  0  0  0  0  0  0
    5.0324    1.8127   16.9194 H   0  0  0  0  0  0  0  0  0  0  0  0
    4.7395    1.2750   18.9962 C   0  0  0  0  0  0  0  0  0  0  0  0
    3.8473    1.8767   19.1105 H   0  0  0  0  0  0  0  0  0  0  0  0
    5.2717    0.5659   20.0758 C   0  0  0  0  0  0  0  0  0  0  0  0
    4.8000    0.5711   21.0599 H   0  0  0  0  0  0  0  0  0  0  0  0
    8.4959   -0.4386   21.2822 C   0  0  0  0  0  0  0  0  0  0  0  0
    9.6306    0.3171   21.0100 C   0  0  0  0  0  0  0  0  0  0  0  0
    9.7875    1.0456   20.2371 H   0  0  0  0  0  0  0  0  0  0  0  0
  1  2  1  0
  2  3  1  0
  3  4  2  0
  3  5  1  0
  5  6  1  0
  5  7  1  0
  5  8  1  0
  8  9  1  0
  8 10  1  0
  8 11  1  0
 11 12  2  0
 12 13  1  0
 13 14  1  0
 14 15  1  0
 14 16  2  0
 16 17  1  0
 16 18  1  0
 18 19  1  0
 19 20  2  0
 20 21  1  0
 20 22  1  0
 22 23  2  0
 23 24  1  0
 23 25  1  0
 25 26  1  0
 25 27  2  0
 27 28  1  0
 18 29  1  0
 29 30  2  0
 30 31  1  0
 30 11  1  0
 29 13  1  0
 27 19  1  0
M  END
>  <cnnaffinity>  (1) 
-4.97401

>  <filename>  (1) 
O=C(O)CCc1cc2n(-c3cccnc3)ccn2n1

$$$$
