
     RDKit          3D

 41 43  0  0  0  0  0  0  0  0999 V2000
    5.0042    1.7947   17.0170 H   0  0  0  0  0  0  0  0  0  0  0  0
    5.4638    1.2721   17.8523 C   0  0  0  0  0  0  0  0  0  0  0  0
    6.6112    0.6253   17.5946 N   0  0  0  0  0  0  0  0  0  0  0  0
    7.1976   -0.0289   18.6058 C   0  0  0  0  0  0  0  0  0  0  0  0
    8.1311   -0.5411   18.3860 H   0  0  0  0  0  0  0  0  0  0  0  0
    6.6751   -0.0746   19.9127 C   0  0  0  0  0  0  0  0  0  0  0  0
    7.2388   -0.8129   20.9286 O   0  0  0  0  0  0  0  0  0  0  0  0
    8.6091   -0.8624   21.0658 C   0  0  0  0  0  0  0  0  0  0  0  0
    9.6191    0.0405   20.6622 C   0  0  0  0  0  0  0  0  0  0  0  0
    9.5231    0.9398   20.0732 H   0  0  0  0  0  0  0  0  0  0  0  0
   10.8073   -0.3123   21.1246 N   0  0  0  0  0  0  0  0  0  0  0  0
   10.5809   -1.4536   21.8047 N   0  0  0  0  0  0  0  0  0  0  0  0
   11.2002   -1.8322   22.5184 H   0  0  0  0  0  0  0  0  0  0  0  0
    9.2770   -1.7953   21.8205 C   0  0  0  0  0  0  0  0  0  0  0  0
    8.8027   -2.8945   22.5445 N   0  0  0  0  0  0  0  0  0  0  0  0
    7.7990   -2.9619   22.5974 H   0  0  0  0  0  0  0  0  0  0  0  0
    9.4494   -3.3429   23.6845 C   0  0  0  0  0  0  0  0  0  0  0  0
   10.5734   -3.0125   24.0239 O   0  0  0  0  0  0  0  0  0  0  0  0
    8.6470   -4.2159   24.3595 N   0  0  0  0  0  0  0  0  0  0  0  0
    8.0816   -4.7405   23.7160 H   0  0  0  0  0  0  0  0  0  0  0  0
    9.2046   -5.0302   25.4445 C   0  0  0  0  0  0  0  0  0  0  0  0
   10.2793   -5.1786   25.2736 H   0  0  0  0  0  0  0  0  0  0  0  0
    9.0263   -4.3108   26.7883 C   0  0  0  0  0  0  0  0  0  0  0  0
    9.5882   -4.8571   27.5589 H   0  0  0  0  0  0  0  0  0  0  0  0
    9.4535   -3.3010   26.7326 H   0  0  0  0  0  0  0  0  0  0  0  0
    7.5556   -4.2699   27.2002 C   0  0  0  0  0  0  0  0  0  0  0  0
    7.4788   -3.7848   28.1528 H   0  0  0  0  0  0  0  0  0  0  0  0
    6.9925   -3.6799   26.4678 H   0  0  0  0  0  0  0  0  0  0  0  0
    6.9665   -5.6695   27.2939 C   0  0  0  0  0  0  0  0  0  0  0  0
    7.5443   -6.2454   28.0317 H   0  0  0  0  0  0  0  0  0  0  0  0
    5.9346   -5.6453   27.6644 H   0  0  0  0  0  0  0  0  0  0  0  0
    7.0355   -6.3434   25.9301 C   0  0  0  0  0  0  0  0  0  0  0  0
    6.4079   -5.7746   25.2261 H   0  0  0  0  0  0  0  0  0  0  0  0
    6.5883   -7.3341   26.0340 H   0  0  0  0  0  0  0  0  0  0  0  0
    8.4861   -6.3900   25.3976 C   0  0  0  0  0  0  0  0  0  0  0  0
    8.5024   -6.7109   24.3474 H   0  0  0  0  0  0  0  0  0  0  0  0
    9.0707   -7.1224   25.9691 H   0  0  0  0  0  0  0  0  0  0  0  0
    5.4790    0.6027   20.1732 C   0  0  0  0  0  0  0  0  0  0  0  0
    5.0580    0.5903   21.1791 H   0  0  0  0  0  0  0  0  0  0  0  0
    4.8640    1.2856   19.1195 C   0  0  0  0  0  0  0  0  0  0  0  0
    3.9387    1.8350   19.2699 H   0  0  0  0  0  0  0  0  0  0  0  0
  1  2  1  0
  2  3  2  0
  3  4  1  0
  4  5  1  0
  4  6  2  0
  6  7  1  0
  7  8  1  0
  8  9  1  0
  9 10  1  0
  9 11  2  0
 11 12  1  0
 12 13  1  0
 12 14  1  0
 14 15  1  0
 15 16  1  0
 15 17  1  0
 17 18  2  0
 17 19  1  0
 19 20  1  0
 19 21  1  0
 21 22  1  0
 21 23  1  0
 23 24  1  0
 23 25  1  0
 23 26  1  0
 26 27  1  0
 26 28  1  0
 26 29  1  0
 29 30  1  0
 29 31  1  0
 29 32  1  0
 32 33  1  0
 32 34  1  0
 32 35  1  0
 35 36  1  0
 35 37  1  0
  6 38  1  0
 38 39  1  0
 38 40  2  0
 40 41  1  0
 40  2  1  0
 14  8  2  0
 35 21  1  0
M  END
>  <cnnaffinity>  (1) 
-5.43658

>  <filename>  (1) 
O=C(Nc1[nH]ncc1Oc1cccnc1)NC1CCCCC1

$$$$
