
     RDKit          3D

 30 32  0  0  0  0  0  0  0  0999 V2000
    4.9400    1.7939   16.9808 H   0  0  0  0  0  0  0  0  0  0  0  0
    5.4194    1.3053   17.8265 C   0  0  0  0  0  0  0  0  0  0  0  0
    6.5775    0.6722   17.5688 N   0  0  0  0  0  0  0  0  0  0  0  0
    7.2023    0.0755   18.5905 C   0  0  0  0  0  0  0  0  0  0  0  0
    8.1278   -0.4529   18.3653 H   0  0  0  0  0  0  0  0  0  0  0  0
    6.7250    0.1033   19.9161 C   0  0  0  0  0  0  0  0  0  0  0  0
    7.5139   -0.5034   20.8608 O   0  0  0  0  0  0  0  0  0  0  0  0
    7.3740   -0.2247   22.2042 C   0  0  0  0  0  0  0  0  0  0  0  0
    7.5188   -1.2056   23.2067 C   0  0  0  0  0  0  0  0  0  0  0  0
    7.6780   -2.2702   23.0811 H   0  0  0  0  0  0  0  0  0  0  0  0
    7.4083   -0.6843   24.4203 N   0  0  0  0  0  0  0  0  0  0  0  0
    7.2077    0.6233   24.2127 N   0  0  0  0  0  0  0  0  0  0  0  0
    6.9485    1.3036   24.9235 H   0  0  0  0  0  0  0  0  0  0  0  0
    7.1717    0.9541   22.9039 C   0  0  0  0  0  0  0  0  0  0  0  0
    6.9511    2.2844   22.5213 N   0  0  0  0  0  0  0  0  0  0  0  0
    7.1651    2.5232   21.5683 H   0  0  0  0  0  0  0  0  0  0  0  0
    6.6677    3.3145   23.3874 C   0  0  0  0  0  0  0  0  0  0  0  0
    6.3150    3.1253   24.5469 O   0  0  0  0  0  0  0  0  0  0  0  0
    6.8068    4.7106   22.8783 C   0  0  0  0  0  0  0  0  0  0  0  0
    6.6107    5.4009   23.6921 H   0  0  0  0  0  0  0  0  0  0  0  0
    7.8819    5.1557   21.9157 C   0  0  0  0  0  0  0  0  0  0  0  0
    8.3484    6.1124   22.1176 H   0  0  0  0  0  0  0  0  0  0  0  0
    8.5509    4.4206   21.4836 H   0  0  0  0  0  0  0  0  0  0  0  0
    6.4580    5.1576   21.4704 C   0  0  0  0  0  0  0  0  0  0  0  0
    6.1570    4.3803   20.7722 H   0  0  0  0  0  0  0  0  0  0  0  0
    5.9677    6.1164   21.3128 H   0  0  0  0  0  0  0  0  0  0  0  0
    5.4897    0.7055   20.1687 C   0  0  0  0  0  0  0  0  0  0  0  0
    5.0816    0.6961   21.1807 H   0  0  0  0  0  0  0  0  0  0  0  0
    4.8354    1.3308   19.0952 C   0  0  0  0  0  0  0  0  0  0  0  0
    3.8872    1.8377   19.2370 H   0  0  0  0  0  0  0  0  0  0  0  0
  1  2  1  0
  2  3  2  0
  3  4  1  0
  4  5  1  0
  4  6  2  0
  6  7  1  0
  7  8  1  0
  8  9  1  0
  9 10  1  0
  9 11  2  0
 11 12  1  0
 12 13  1  0
 12 14  1  0
 14 15  1  0
 15 16  1  0
 15 17  1  0
 17 18  2  0
 17 19  1  0
 19 20  1  0
 19 21  1  0
 21 22  1  0
 21 23  1  0
 21 24  1  0
 24 25  1  0
 24 26  1  0
  6 27  1  0
 27 28  1  0
 27 29  2  0
 29 30  1  0
 29  2  1  0
 14  8  2  0
 24 19  1  0
M  END
>  <cnnaffinity>  (1) 
-4.76257

>  <filename>  (1) 
O=C(Nc1[nH]ncc1Oc1cccnc1)C1CC1

$$$$
