
     RDKit          3D

 34 36  0  0  0  0  0  0  0  0999 V2000
    5.1362    2.0722   16.8916 H   0  0  0  0  0  0  0  0  0  0  0  0
    5.4780    1.4620   17.7266 C   0  0  0  0  0  0  0  0  0  0  0  0
    6.3889    0.5215   17.4367 N   0  0  0  0  0  0  0  0  0  0  0  0
    6.8304   -0.2391   18.4395 C   0  0  0  0  0  0  0  0  0  0  0  0
    7.5641   -0.9948   18.1670 H   0  0  0  0  0  0  0  0  0  0  0  0
    6.4097   -0.1127   19.7883 C   0  0  0  0  0  0  0  0  0  0  0  0
    7.0164   -0.9700   20.8634 C   0  0  0  0  0  0  0  0  0  0  0  0
    6.8623   -0.3865   22.1322 N   0  0  0  0  0  0  0  0  0  0  0  0
    7.4681   -0.9350   23.1967 C   0  0  0  0  0  0  0  0  0  0  0  0
    7.3708   -0.1477   24.5154 C   0  0  0  0  0  0  0  0  0  0  0  0
    7.6748   -0.6523   25.5928 O   0  0  0  0  0  0  0  0  0  0  0  0
    6.9905    1.1453   24.3813 N   0  0  0  0  0  0  0  0  0  0  0  0
    6.7325    1.3667   23.4269 H   0  0  0  0  0  0  0  0  0  0  0  0
    7.2558    2.1959   25.3545 C   0  0  0  0  0  0  0  0  0  0  0  0
    6.6095    2.0897   26.2457 H   0  0  0  0  0  0  0  0  0  0  0  0
    6.9623    3.1405   24.8754 H   0  0  0  0  0  0  0  0  0  0  0  0
    8.7974    2.5968   25.7698 C   0  0  0  0  0  0  0  0  0  0  0  0
    9.2258    2.5260   24.7286 H   0  0  0  0  0  0  0  0  0  0  0  0
    8.5772    3.4946   26.7379 C   0  0  0  0  0  0  0  0  0  0  0  0
    8.0222    3.1322   27.5870 H   0  0  0  0  0  0  0  0  0  0  0  0
    8.9917    4.5062   26.6187 H   0  0  0  0  0  0  0  0  0  0  0  0
    8.9946    2.2538   25.9349 C   0  0  0  0  0  0  0  0  0  0  0  0
    8.9514    1.1688   26.4622 H   0  0  0  0  0  0  0  0  0  0  0  0
   10.5094    2.0533   26.0355 H   0  0  0  0  0  0  0  0  0  0  0  0
    8.3565   -2.1434   23.4121 C   0  0  0  0  0  0  0  0  0  0  0  0
    8.2248   -2.4929   24.4447 H   0  0  0  0  0  0  0  0  0  0  0  0
    9.2779   -2.7776   22.7957 N   0  0  0  0  0  0  0  0  0  0  0  0
    9.4463   -2.5751   21.8027 H   0  0  0  0  0  0  0  0  0  0  0  0
    7.7207   -2.3205   20.8734 C   0  0  0  0  0  0  0  0  0  0  0  0
    7.6899   -2.1680   20.6357 O   0  0  0  0  0  0  0  0  0  0  0  0
    5.4502    0.8878   20.0626 C   0  0  0  0  0  0  0  0  0  0  0  0
    5.1005    1.0242   21.0876 H   0  0  0  0  0  0  0  0  0  0  0  0
    4.9824    1.6789   19.0169 C   0  0  0  0  0  0  0  0  0  0  0  0
    4.2636    2.4766   19.1887 H   0  0  0  0  0  0  0  0  0  0  0  0
  1  2  1  0
  2  3  2  0
  3  4  1  0
  4  5  1  0
  4  6  2  0
  6  7  1  0
  7  8  2  0
  8  9  1  0
  9 10  1  0
 10 11  2  0
 10 12  1  0
 12 13  1  0
 12 14  1  0
 14 15  1  0
 14 16  1  0
 14 17  1  0
 17 18  1  0
 17 19  1  0
 19 20  1  0
 19 21  1  0
 19 22  1  0
 22 23  1  0
 22 24  1  0
  9 25  2  0
 25 26  1  0
 25 27  1  0
 27 28  1  0
 27 29  1  0
 29 30  2  0
  6 31  1  0
 31 32  1  0
 31 33  2  0
 33 34  1  0
 33  2  1  0
 29  7  1  0
 22 17  1  0
M  END
>  <cnnaffinity>  (1) 
-4.61167

>  <filename>  (1) 
O=C(NCC1CC1)c1c[nH]c(=O)c(-c2cccnc2)n1

$$$$
