
     RDKit          3D

 47 50  0  0  0  0  0  0  0  0999 V2000
    4.9365    1.8425   16.9299 H   0  0  0  0  0  0  0  0  0  0  0  0
    5.3801    1.3179   17.7735 C   0  0  0  0  0  0  0  0  0  0  0  0
    6.5297    0.6715   17.5249 N   0  0  0  0  0  0  0  0  0  0  0  0
    7.1140    0.0502   18.5532 C   0  0  0  0  0  0  0  0  0  0  0  0
    8.0410   -0.4754   18.3306 H   0  0  0  0  0  0  0  0  0  0  0  0
    6.6070    0.0624   19.8672 C   0  0  0  0  0  0  0  0  0  0  0  0
    7.3738   -0.5490   20.9532 C   0  0  0  0  0  0  0  0  0  0  0  0
    8.1568   -1.6094   20.7365 N   0  0  0  0  0  0  0  0  0  0  0  0
    8.6987   -1.8461   21.9278 N   0  0  0  0  0  0  0  0  0  0  0  0
    8.3440   -1.0034   22.9017 C   0  0  0  0  0  0  0  0  0  0  0  0
    7.4471   -0.1302   22.3238 C   0  0  0  0  0  0  0  0  0  0  0  0
    6.7697    0.9165   22.9893 N   0  0  0  0  0  0  0  0  0  0  0  0
    6.8834    1.8361   22.6004 H   0  0  0  0  0  0  0  0  0  0  0  0
    6.5939    0.9340   24.3672 C   0  0  0  0  0  0  0  0  0  0  0  0
    6.5269   -0.0614   25.0658 O   0  0  0  0  0  0  0  0  0  0  0  0
    6.4777    2.2119   24.8202 N   0  0  0  0  0  0  0  0  0  0  0  0
    6.7417    2.9341   24.1849 H   0  0  0  0  0  0  0  0  0  0  0  0
    6.2700    2.5436   26.2258 C   0  0  0  0  0  0  0  0  0  0  0  0
    6.2971    3.6393   26.2892 H   0  0  0  0  0  0  0  0  0  0  0  0
    4.8654    2.0594   26.6696 C   0  0  0  0  0  0  0  0  0  0  0  0
    4.6134    1.1765   26.0747 H   0  0  0  0  0  0  0  0  0  0  0  0
    4.1425    2.8442   26.4108 H   0  0  0  0  0  0  0  0  0  0  0  0
    4.7667    1.6800   28.1619 C   0  0  0  0  0  0  0  0  0  0  0  0
    5.0514    0.6232   28.2768 H   0  0  0  0  0  0  0  0  0  0  0  0
    3.7222    1.7511   28.4856 H   0  0  0  0  0  0  0  0  0  0  0  0
    5.6830    2.5427   29.0386 C   0  0  0  0  0  0  0  0  0  0  0  0
    5.3663    3.5905   28.9468 H   0  0  0  0  0  0  0  0  0  0  0  0
    5.5633    2.2688   30.0938 H   0  0  0  0  0  0  0  0  0  0  0  0
    7.1725    2.4160   28.6218 C   0  0  0  0  0  0  0  0  0  0  0  0
    7.6731    1.6697   29.2519 H   0  0  0  0  0  0  0  0  0  0  0  0
    7.6710    3.3739   28.8145 H   0  0  0  0  0  0  0  0  0  0  0  0
    7.3775    1.9993   27.1444 C   0  0  0  0  0  0  0  0  0  0  0  0
    7.3642    0.9078   27.0506 H   0  0  0  0  0  0  0  0  0  0  0  0
    8.3565    2.3352   26.7834 H   0  0  0  0  0  0  0  0  0  0  0  0
    9.1351   -1.2569   24.1508 C   0  0  0  0  0  0  0  0  0  0  0  0
    9.6165   -0.3375   24.4968 H   0  0  0  0  0  0  0  0  0  0  0  0
    8.4861   -1.6042   24.9603 H   0  0  0  0  0  0  0  0  0  0  0  0
   10.1749   -2.3057   23.6666 C   0  0  0  0  0  0  0  0  0  0  0  0
   10.3338   -3.1068   24.3913 H   0  0  0  0  0  0  0  0  0  0  0  0
   11.1214   -1.8023   23.4863 H   0  0  0  0  0  0  0  0  0  0  0  0
    9.6923   -2.8216   22.2826 C   0  0  0  0  0  0  0  0  0  0  0  0
    9.2518   -3.8235   22.3034 H   0  0  0  0  0  0  0  0  0  0  0  0
   10.4825   -2.7807   21.5335 H   0  0  0  0  0  0  0  0  0  0  0  0
    5.3773    0.6982   20.0995 C   0  0  0  0  0  0  0  0  0  0  0  0
    4.9241    0.6798   21.0943 H   0  0  0  0  0  0  0  0  0  0  0  0
    4.7602    1.3382   19.0279 C   0  0  0  0  0  0  0  0  0  0  0  0
    3.8232    1.8654   19.1504 H   0  0  0  0  0  0  0  0  0  0  0  0
  1  2  1  0
  2  3  2  0
  3  4  1  0
  4  5  1  0
  4  6  2  0
  6  7  1  0
  7  8  2  0
  8  9  1  0
  9 10  1  0
 10 11  2  0
 11 12  1  0
 12 13  1  0
 12 14  1  0
 14 15  2  0
 14 16  1  0
 16 17  1  0
 16 18  1  0
 18 19  1  0
 18 20  1  0
 20 21  1  0
 20 22  1  0
 20 23  1  0
 23 24  1  0
 23 25  1  0
 23 26  1  0
 26 27  1  0
 26 28  1  0
 26 29  1  0
 29 30  1  0
 29 31  1  0
 29 32  1  0
 32 33  1  0
 32 34  1  0
 10 35  1  0
 35 36  1  0
 35 37  1  0
 35 38  1  0
 38 39  1  0
 38 40  1  0
 38 41  1  0
 41 42  1  0
 41 43  1  0
  6 44  1  0
 44 45  1  0
 44 46  2  0
 46 47  1  0
 46  2  1  0
 11  7  1  0
 32 18  1  0
 41  9  1  0
M  END
>  <cnnaffinity>  (1) 
-5.5293

>  <filename>  (1) 
O=C(Nc1c(-c2cccnc2)nn2c1CCC2)NC1CCCCC1

$$$$
