
     RDKit          3D

 38 40  0  0  0  0  0  0  0  0999 V2000
    4.9187    1.8343   16.9874 H   0  0  0  0  0  0  0  0  0  0  0  0
    5.3836    1.2950   17.8115 C   0  0  0  0  0  0  0  0  0  0  0  0
    6.5331    0.6556   17.5390 N   0  0  0  0  0  0  0  0  0  0  0  0
    7.1589    0.0345   18.5476 C   0  0  0  0  0  0  0  0  0  0  0  0
    8.1010   -0.4576   18.3109 H   0  0  0  0  0  0  0  0  0  0  0  0
    6.6643   -0.0027   19.8678 C   0  0  0  0  0  0  0  0  0  0  0  0
    7.3643   -0.6913   20.9282 N   0  0  0  0  0  0  0  0  0  0  0  0
    6.7054   -1.7380   21.5502 C   0  0  0  0  0  0  0  0  0  0  0  0
    5.7035   -1.9718   21.2098 H   0  0  0  0  0  0  0  0  0  0  0  0
    7.2757   -2.4672   22.5580 C   0  0  0  0  0  0  0  0  0  0  0  0
    6.5898   -3.5461   23.1657 N   0  0  0  0  0  0  0  0  0  0  0  0
    6.7659   -3.6929   24.1463 H   0  0  0  0  0  0  0  0  0  0  0  0
    5.6424   -4.3562   22.5742 C   0  0  0  0  0  0  0  0  0  0  0  0
    5.3874   -4.3214   21.3854 O   0  0  0  0  0  0  0  0  0  0  0  0
    4.9062   -5.2895   23.5386 C   0  0  0  0  0  0  0  0  0  0  0  0
    5.6002   -5.6254   24.3186 H   0  0  0  0  0  0  0  0  0  0  0  0
    4.6180   -6.1641   22.9518 H   0  0  0  0  0  0  0  0  0  0  0  0
    3.6782   -4.6099   24.1325 C   0  0  0  0  0  0  0  0  0  0  0  0
    2.4214   -4.7196   23.5092 C   0  0  0  0  0  0  0  0  0  0  0  0
    2.2788   -5.3965   22.6655 H   0  0  0  0  0  0  0  0  0  0  0  0
    1.3340   -3.9488   23.9521 C   0  0  0  0  0  0  0  0  0  0  0  0
    0.3703   -4.0316   23.4578 H   0  0  0  0  0  0  0  0  0  0  0  0
    1.4915   -3.0679   25.0273 C   0  0  0  0  0  0  0  0  0  0  0  0
    0.6663   -2.4381   25.3494 H   0  0  0  0  0  0  0  0  0  0  0  0
    2.7152   -3.0134   25.7015 C   0  0  0  0  0  0  0  0  0  0  0  0
    2.8233   -2.3775   26.5758 H   0  0  0  0  0  0  0  0  0  0  0  0
    3.7943   -3.7902   25.2678 C   0  0  0  0  0  0  0  0  0  0  0  0
    4.7187   -3.7727   25.8474 H   0  0  0  0  0  0  0  0  0  0  0  0
    8.5893   -2.1023   23.0074 C   0  0  0  0  0  0  0  0  0  0  0  0
    9.0655   -2.6663   23.8153 H   0  0  0  0  0  0  0  0  0  0  0  0
    9.2558   -1.0753   22.4126 C   0  0  0  0  0  0  0  0  0  0  0  0
   10.2502   -0.7590   22.7025 H   0  0  0  0  0  0  0  0  0  0  0  0
    8.7026   -0.2917   21.3101 C   0  0  0  0  0  0  0  0  0  0  0  0
    9.2996    0.6073   20.7412 O   0  0  0  0  0  0  0  0  0  0  0  0
    5.4427    0.6328   20.1252 C   0  0  0  0  0  0  0  0  0  0  0  0
    5.0227    0.6078   21.1302 H   0  0  0  0  0  0  0  0  0  0  0  0
    4.7998    1.3075   19.0819 C   0  0  0  0  0  0  0  0  0  0  0  0
    3.8717    1.8463   19.2415 H   0  0  0  0  0  0  0  0  0  0  0  0
  1  2  1  0
  2  3  2  0
  3  4  1  0
  4  5  1  0
  4  6  2  0
  6  7  1  0
  7  8  1  0
  8  9  1  0
  8 10  2  0
 10 11  1  0
 11 12  1  0
 11 13  1  0
 13 14  2  0
 13 15  1  0
 15 16  1  0
 15 17  1  0
 15 18  1  0
 18 19  2  0
 19 20  1  0
 19 21  1  0
 21 22  1  0
 21 23  2  0
 23 24  1  0
 23 25  1  0
 25 26  1  0
 25 27  2  0
 27 28  1  0
 10 29  1  0
 29 30  1  0
 29 31  2  0
 31 32  1  0
 31 33  1  0
 33 34  2  0
  6 35  1  0
 35 36  1  0
 35 37  2  0
 37 38  1  0
 37  2  1  0
 33  7  1  0
 27 18  1  0
M  END
>  <cnnaffinity>  (1) 
-5.63689

>  <filename>  (1) 
O=C(Cc1ccccc1)Nc1ccc(=O)n(-c2cccnc2)c1

$$$$
