
     RDKit          3D

 37 39  0  0  0  0  0  0  0  0999 V2000
    4.9291    1.7821   16.9677 H   0  0  0  0  0  0  0  0  0  0  0  0
    5.3933    1.3113   17.8300 C   0  0  0  0  0  0  0  0  0  0  0  0
    6.5664    0.6939   17.6081 N   0  0  0  0  0  0  0  0  0  0  0  0
    7.1570    0.1179   18.6639 C   0  0  0  0  0  0  0  0  0  0  0  0
    8.1027   -0.3877   18.4576 H   0  0  0  0  0  0  0  0  0  0  0  0
    6.6453    0.1440   19.9818 C   0  0  0  0  0  0  0  0  0  0  0  0
    7.3630   -0.5279   21.1030 C   0  0  0  0  0  0  0  0  0  0  0  0
    7.8215   -1.8592   20.9234 C   0  0  0  0  0  0  0  0  0  0  0  0
    7.5119   -2.3373   20.0106 H   0  0  0  0  0  0  0  0  0  0  0  0
    8.5230   -2.5287   21.8742 C   0  0  0  0  0  0  0  0  0  0  0  0
    8.9458   -3.5092   21.7344 H   0  0  0  0  0  0  0  0  0  0  0  0
    8.7828   -1.9633   23.1792 C   0  0  0  0  0  0  0  0  0  0  0  0
    9.4067   -2.5320   24.0599 O   0  0  0  0  0  0  0  0  0  0  0  0
    8.2219   -0.6425   23.3493 N   0  0  0  0  0  0  0  0  0  0  0  0
    8.1982   -0.0348   24.6148 N   0  0  0  0  0  0  0  0  0  0  0  0
    9.0129   -0.1307   25.2005 H   0  0  0  0  0  0  0  0  0  0  0  0
    7.0531    0.5069   25.1765 C   0  0  0  0  0  0  0  0  0  0  0  0
    5.9468    0.4773   24.6715 O   0  0  0  0  0  0  0  0  0  0  0  0
    7.3509    1.1343   26.3589 N   0  0  0  0  0  0  0  0  0  0  0  0
    8.2551    0.9791   26.7670 H   0  0  0  0  0  0  0  0  0  0  0  0
    6.4735    2.0288   26.9970 C   0  0  0  0  0  0  0  0  0  0  0  0
    6.4984    2.1268   28.3893 C   0  0  0  0  0  0  0  0  0  0  0  0
    7.2048    1.5144   28.9421 H   0  0  0  0  0  0  0  0  0  0  0  0
    5.5927    2.9643   29.0492 C   0  0  0  0  0  0  0  0  0  0  0  0
    5.5758    3.0212   30.1320 H   0  0  0  0  0  0  0  0  0  0  0  0
    4.6884    3.7251   28.3015 C   0  0  0  0  0  0  0  0  0  0  0  0
    3.5474    4.7592   29.1065 Cl  0  0  0  0  0  0  0  0  0  0  0  0
    4.6792    3.6563   26.9057 C   0  0  0  0  0  0  0  0  0  0  0  0
    3.9709    4.2456   26.3299 H   0  0  0  0  0  0  0  0  0  0  0  0
    5.5673    2.8034   26.2542 C   0  0  0  0  0  0  0  0  0  0  0  0
    5.5592    2.7003   25.1768 H   0  0  0  0  0  0  0  0  0  0  0  0
    7.5536    0.0371   22.3338 C   0  0  0  0  0  0  0  0  0  0  0  0
    7.1370    0.9996   22.6293 H   0  0  0  0  0  0  0  0  0  0  0  0
    5.4067    0.7735   20.1751 C   0  0  0  0  0  0  0  0  0  0  0  0
    4.9493    0.7584   21.1679 H   0  0  0  0  0  0  0  0  0  0  0  0
    4.7714    1.3633   19.0816 C   0  0  0  0  0  0  0  0  0  0  0  0
    3.8131    1.8569   19.1873 H   0  0  0  0  0  0  0  0  0  0  0  0
  1  2  1  0
  2  3  2  0
  3  4  1  0
  4  5  1  0
  4  6  2  0
  6  7  1  0
  7  8  1  0
  8  9  1  0
  8 10  2  0
 10 11  1  0
 10 12  1  0
 12 13  2  0
 12 14  1  0
 14 15  1  0
 15 16  1  0
 15 17  1  0
 17 18  2  0
 17 19  1  0
 19 20  1  0
 19 21  1  0
 21 22  2  0
 22 23  1  0
 22 24  1  0
 24 25  1  0
 24 26  2  0
 26 27  1  0
 26 28  1  0
 28 29  1  0
 28 30  2  0
 30 31  1  0
 14 32  1  0
 32 33  1  0
  6 34  1  0
 34 35  1  0
 34 36  2  0
 36 37  1  0
 36  2  1  0
 32  7  2  0
 30 21  1  0
M  END
>  <cnnaffinity>  (1) 
-5.27367

>  <filename>  (1) 
O=C(Nc1ccc(Cl)cc1)Nn1cc(-c2cccnc2)ccc1=O

$$$$
