
     RDKit          3D

 41 44  0  0  0  0  0  0  0  0999 V2000
    4.9274    1.8323   16.9189 H   0  0  0  0  0  0  0  0  0  0  0  0
    5.3792    1.3259   17.7685 C   0  0  0  0  0  0  0  0  0  0  0  0
    6.5282    0.6745   17.5273 N   0  0  0  0  0  0  0  0  0  0  0  0
    7.1132    0.0628   18.5592 C   0  0  0  0  0  0  0  0  0  0  0  0
    8.0326   -0.4765   18.3365 H   0  0  0  0  0  0  0  0  0  0  0  0
    6.6111    0.0896   19.8750 C   0  0  0  0  0  0  0  0  0  0  0  0
    7.3897   -0.5205   20.9557 C   0  0  0  0  0  0  0  0  0  0  0  0
    8.1581   -1.5927   20.7372 N   0  0  0  0  0  0  0  0  0  0  0  0
    8.6960   -1.8397   21.9294 N   0  0  0  0  0  0  0  0  0  0  0  0
    8.3764   -0.9760   22.8955 C   0  0  0  0  0  0  0  0  0  0  0  0
    7.4961   -0.0873   22.3202 C   0  0  0  0  0  0  0  0  0  0  0  0
    6.8872    0.9837   22.9960 N   0  0  0  0  0  0  0  0  0  0  0  0
    6.7973    1.8759   22.5420 H   0  0  0  0  0  0  0  0  0  0  0  0
    6.5484    0.9591   24.3302 C   0  0  0  0  0  0  0  0  0  0  0  0
    6.4657   -0.0449   25.0060 O   0  0  0  0  0  0  0  0  0  0  0  0
    6.2959    2.2378   24.7773 N   0  0  0  0  0  0  0  0  0  0  0  0
    6.8726    2.9428   24.3581 H   0  0  0  0  0  0  0  0  0  0  0  0
    5.8119    2.5122   26.0672 C   0  0  0  0  0  0  0  0  0  0  0  0
    4.7954    1.7195   26.6115 C   0  0  0  0  0  0  0  0  0  0  0  0
    4.4592    0.8525   26.0554 H   0  0  0  0  0  0  0  0  0  0  0  0
    4.2708    2.0401   27.8614 C   0  0  0  0  0  0  0  0  0  0  0  0
    3.4729    1.4269   28.2728 H   0  0  0  0  0  0  0  0  0  0  0  0
    4.7790    3.1274   28.5811 C   0  0  0  0  0  0  0  0  0  0  0  0
    4.3715    3.3657   29.5567 H   0  0  0  0  0  0  0  0  0  0  0  0
    5.8182    3.8979   28.0447 C   0  0  0  0  0  0  0  0  0  0  0  0
    6.2284    4.7324   28.6055 H   0  0  0  0  0  0  0  0  0  0  0  0
    6.3298    3.5960   26.7786 C   0  0  0  0  0  0  0  0  0  0  0  0
    7.1378    4.1779   26.3468 H   0  0  0  0  0  0  0  0  0  0  0  0
    9.1336   -1.2604   24.1563 C   0  0  0  0  0  0  0  0  0  0  0  0
    8.4611   -1.6321   24.9418 H   0  0  0  0  0  0  0  0  0  0  0  0
    9.6111   -0.3556   24.5388 H   0  0  0  0  0  0  0  0  0  0  0  0
   10.1798   -2.2945   23.6646 C   0  0  0  0  0  0  0  0  0  0  0  0
   11.1299   -1.7925   23.4705 H   0  0  0  0  0  0  0  0  0  0  0  0
   10.3484   -3.0836   24.3964 H   0  0  0  0  0  0  0  0  0  0  0  0
    9.6734   -2.8303   22.2975 C   0  0  0  0  0  0  0  0  0  0  0  0
   10.4631   -2.8151   21.5488 H   0  0  0  0  0  0  0  0  0  0  0  0
    9.2187   -3.8272   22.3532 H   0  0  0  0  0  0  0  0  0  0  0  0
    5.3752    0.7217   20.0961 C   0  0  0  0  0  0  0  0  0  0  0  0
    4.9075    0.6997   21.0843 H   0  0  0  0  0  0  0  0  0  0  0  0
    4.7547    1.3545   19.0208 C   0  0  0  0  0  0  0  0  0  0  0  0
    3.8075    1.8703   19.1364 H   0  0  0  0  0  0  0  0  0  0  0  0
  1  2  1  0
  2  3  2  0
  3  4  1  0
  4  5  1  0
  4  6  2  0
  6  7  1  0
  7  8  2  0
  8  9  1  0
  9 10  1  0
 10 11  2  0
 11 12  1  0
 12 13  1  0
 12 14  1  0
 14 15  2  0
 14 16  1  0
 16 17  1  0
 16 18  1  0
 18 19  2  0
 19 20  1  0
 19 21  1  0
 21 22  1  0
 21 23  2  0
 23 24  1  0
 23 25  1  0
 25 26  1  0
 25 27  2  0
 27 28  1  0
 10 29  1  0
 29 30  1  0
 29 31  1  0
 29 32  1  0
 32 33  1  0
 32 34  1  0
 32 35  1  0
 35 36  1  0
 35 37  1  0
  6 38  1  0
 38 39  1  0
 38 40  2  0
 40 41  1  0
 40  2  1  0
 11  7  1  0
 27 18  1  0
 35  9  1  0
M  END
>  <cnnaffinity>  (1) 
-5.67952

>  <filename>  (1) 
O=C(Nc1ccccc1)Nc1c(-c2cccnc2)nn2c1CCC2

$$$$
