
     RDKit          3D

 30 32  0  0  0  0  0  0  0  0999 V2000
    4.9525    1.8153   17.0102 H   0  0  0  0  0  0  0  0  0  0  0  0
    5.4209    1.2953   17.8417 C   0  0  0  0  0  0  0  0  0  0  0  0
    6.5836    0.6734   17.5831 N   0  0  0  0  0  0  0  0  0  0  0  0
    7.1895    0.0448   18.5971 C   0  0  0  0  0  0  0  0  0  0  0  0
    8.1258   -0.4704   18.3910 H   0  0  0  0  0  0  0  0  0  0  0  0
    6.6793    0.0182   19.9049 C   0  0  0  0  0  0  0  0  0  0  0  0
    7.4178   -0.6597   20.8409 O   0  0  0  0  0  0  0  0  0  0  0  0
    7.3020   -0.3140   22.1668 C   0  0  0  0  0  0  0  0  0  0  0  0
    7.1925   -1.2563   23.2035 C   0  0  0  0  0  0  0  0  0  0  0  0
    7.1381   -2.3348   23.1220 H   0  0  0  0  0  0  0  0  0  0  0  0
    7.1568   -0.6671   24.3905 N   0  0  0  0  0  0  0  0  0  0  0  0
    7.2266    0.6439   24.1265 N   0  0  0  0  0  0  0  0  0  0  0  0
    7.3430    1.3838   24.8158 H   0  0  0  0  0  0  0  0  0  0  0  0
    7.3153    0.9151   22.8036 C   0  0  0  0  0  0  0  0  0  0  0  0
    7.3629    2.2375   22.3427 N   0  0  0  0  0  0  0  0  0  0  0  0
    7.2455    2.3958   21.3523 H   0  0  0  0  0  0  0  0  0  0  0  0
    7.3543    3.3428   23.1507 C   0  0  0  0  0  0  0  0  0  0  0  0
    7.5927    3.2820   24.3538 O   0  0  0  0  0  0  0  0  0  0  0  0
    7.0427    4.6208   22.4963 C   0  0  0  0  0  0  0  0  0  0  0  0
    7.3789    6.0800   23.3527 S   0  0  0  0  0  0  0  0  0  0  0  0
    6.7392    7.0377   22.0893 C   0  0  0  0  0  0  0  0  0  0  0  0
    6.6768    8.1112   22.2000 H   0  0  0  0  0  0  0  0  0  0  0  0
    6.2854    6.2807   21.0480 C   0  0  0  0  0  0  0  0  0  0  0  0
    5.8747    6.6819   20.1241 H   0  0  0  0  0  0  0  0  0  0  0  0
    6.4426    4.8908   21.2957 C   0  0  0  0  0  0  0  0  0  0  0  0
    6.0839    4.1192   20.6279 H   0  0  0  0  0  0  0  0  0  0  0  0
    5.4587    0.6445   20.1669 C   0  0  0  0  0  0  0  0  0  0  0  0
    5.0553    0.6516   21.1809 H   0  0  0  0  0  0  0  0  0  0  0  0
    4.8215    1.2948   19.1032 C   0  0  0  0  0  0  0  0  0  0  0  0
    3.8794    1.8108   19.2471 H   0  0  0  0  0  0  0  0  0  0  0  0
  1  2  1  0
  2  3  2  0
  3  4  1  0
  4  5  1  0
  4  6  2  0
  6  7  1  0
  7  8  1  0
  8  9  1  0
  9 10  1  0
  9 11  2  0
 11 12  1  0
 12 13  1  0
 12 14  1  0
 14 15  1  0
 15 16  1  0
 15 17  1  0
 17 18  2  0
 17 19  1  0
 19 20  1  0
 20 21  1  0
 21 22  1  0
 21 23  2  0
 23 24  1  0
 23 25  1  0
 25 26  1  0
  6 27  1  0
 27 28  1  0
 27 29  2  0
 29 30  1  0
 29  2  1  0
 14  8  2  0
 25 19  2  0
M  END
>  <cnnaffinity>  (1) 
-4.78582

>  <filename>  (1) 
O=C(Nc1[nH]ncc1Oc1cccnc1)c1cccs1

$$$$
