
     RDKit          3D

 33 35  0  0  0  0  0  0  0  0999 V2000
    1.7778   -6.1512   23.6919 H   0  0  0  0  0  0  0  0  0  0  0  0
    2.4136   -5.7685   24.3180 O   0  0  0  0  0  0  0  0  0  0  0  0
    3.1706   -5.1087   23.4252 C   0  0  0  0  0  0  0  0  0  0  0  0
    2.8535   -5.1866   22.2587 O   0  0  0  0  0  0  0  0  0  0  0  0
    4.3118   -4.3482   24.0142 C   0  0  0  0  0  0  0  0  0  0  0  0
    4.5405   -4.3486   25.4071 C   0  0  0  0  0  0  0  0  0  0  0  0
    3.8873   -4.9139   26.0703 H   0  0  0  0  0  0  0  0  0  0  0  0
    5.6015   -3.6154   25.9367 C   0  0  0  0  0  0  0  0  0  0  0  0
    5.7838   -3.6237   27.0070 H   0  0  0  0  0  0  0  0  0  0  0  0
    6.4398   -2.8790   25.0995 C   0  0  0  0  0  0  0  0  0  0  0  0
    7.2942   -2.3456   25.5069 H   0  0  0  0  0  0  0  0  0  0  0  0
    6.2229   -2.8614   23.7061 C   0  0  0  0  0  0  0  0  0  0  0  0
    7.1294   -2.0895   22.7916 C   0  0  0  0  0  0  0  0  0  0  0  0
    6.5627   -1.4373   21.8054 N   0  0  0  0  0  0  0  0  0  0  0  0
    7.3436   -0.7016   20.9546 N   0  0  0  0  0  0  0  0  0  0  0  0
    6.6605   -0.0009   19.9090 C   0  0  0  0  0  0  0  0  0  0  0  0
    7.1738    0.0559   18.5991 C   0  0  0  0  0  0  0  0  0  0  0  0
    8.1137   -0.4425   18.3658 H   0  0  0  0  0  0  0  0  0  0  0  0
    6.5627    0.6743   17.5810 N   0  0  0  0  0  0  0  0  0  0  0  0
    5.4007    1.2957   17.8391 C   0  0  0  0  0  0  0  0  0  0  0  0
    4.9246    1.7883   16.9939 H   0  0  0  0  0  0  0  0  0  0  0  0
    4.8126    1.3116   19.1099 C   0  0  0  0  0  0  0  0  0  0  0  0
    3.8786    1.8416   19.2582 H   0  0  0  0  0  0  0  0  0  0  0  0
    5.4427    0.6425   20.1646 C   0  0  0  0  0  0  0  0  0  0  0  0
    5.0334    0.5931   21.1725 H   0  0  0  0  0  0  0  0  0  0  0  0
    8.7109   -0.6143   21.1092 C   0  0  0  0  0  0  0  0  0  0  0  0
    9.2147    0.0320   20.3934 H   0  0  0  0  0  0  0  0  0  0  0  0
    9.3644   -1.2628   22.0854 C   0  0  0  0  0  0  0  0  0  0  0  0
   10.4368   -1.2192   22.2145 H   0  0  0  0  0  0  0  0  0  0  0  0
    8.6216   -2.0923   23.0238 C   0  0  0  0  0  0  0  0  0  0  0  0
    9.1894   -2.7239   23.9107 O   0  0  0  0  0  0  0  0  0  0  0  0
    5.1564   -3.5999   23.1727 C   0  0  0  0  0  0  0  0  0  0  0  0
    5.0005   -3.5885   22.0961 H   0  0  0  0  0  0  0  0  0  0  0  0
  1  2  1  0
  2  3  1  0
  3  4  2  0
  3  5  1  0
  5  6  2  0
  6  7  1  0
  6  8  1  0
  8  9  1  0
  8 10  2  0
 10 11  1  0
 10 12  1  0
 12 13  1  0
 13 14  2  0
 14 15  1  0
 15 16  1  0
 16 17  2  0
 17 18  1  0
 17 19  1  0
 19 20  2  0
 20 21  1  0
 20 22  1  0
 22 23  1  0
 22 24  2  0
 24 25  1  0
 15 26  1  0
 26 27  1  0
 26 28  2  0
 28 29  1  0
 28 30  1  0
 30 31  2  0
 12 32  2  0
 32 33  1  0
 32  5  1  0
 30 13  1  0
 24 16  1  0
M  END
>  <cnnaffinity>  (1) 
-5.1582

>  <filename>  (1) 
O=C(O)c1cccc(-c2nn(-c3cccnc3)ccc2=O)c1

$$$$
