
     RDKit          3D

 30 32  0  0  0  0  0  0  0  0999 V2000
    7.8624    0.9309   22.8351 O   0  0  0  0  0  0  0  0  0  0  0  0
    8.3064    0.4210   21.8285 C   0  0  0  0  0  0  0  0  0  0  0  0
    9.5522    0.7387   21.3267 N   0  0  0  0  0  0  0  0  0  0  0  0
   10.4504    1.5479   21.9920 C   0  0  0  0  0  0  0  0  0  0  0  0
   11.2106    2.2597   21.2019 N   0  0  0  0  0  0  0  0  0  0  0  0
   12.1103    3.0728   21.8338 C   0  0  0  0  0  0  0  0  0  0  0  0
   13.0428    3.9990   21.3926 C   0  0  0  0  0  0  0  0  0  0  0  0
   13.6888    4.4414   22.5597 C   0  0  0  0  0  0  0  0  0  0  0  0
   13.2174    3.8880   23.6758 N   0  0  0  0  0  0  0  0  0  0  0  0
   12.2627    3.0613   23.2280 N   0  0  0  0  0  0  0  0  0  0  0  0
   11.4919    2.2509   24.0195 C   0  0  0  0  0  0  0  0  0  0  0  0
   10.5482    1.4800   23.4154 C   0  0  0  0  0  0  0  0  0  0  0  0
    9.8998    0.8079   23.9529 H   0  0  0  0  0  0  0  0  0  0  0  0
   11.7238    2.3148   25.0771 H   0  0  0  0  0  0  0  0  0  0  0  0
   14.5050    5.1385   22.6652 H   0  0  0  0  0  0  0  0  0  0  0  0
   13.2362    4.2565   20.3647 H   0  0  0  0  0  0  0  0  0  0  0  0
    9.8107    0.6569   20.3593 H   0  0  0  0  0  0  0  0  0  0  0  0
    7.4419   -0.6318   20.9979 C   0  0  0  0  0  0  0  0  0  0  0  0
    6.6035   -1.2698   21.8580 F   0  0  0  0  0  0  0  0  0  0  0  0
    8.2659   -1.5963   20.4747 F   0  0  0  0  0  0  0  0  0  0  0  0
    6.6498   -0.0026   19.8767 C   0  0  0  0  0  0  0  0  0  0  0  0
    5.4391    0.6446   20.1452 C   0  0  0  0  0  0  0  0  0  0  0  0
    4.8050    1.3072   19.0966 C   0  0  0  0  0  0  0  0  0  0  0  0
    5.3989    1.2973   17.8302 C   0  0  0  0  0  0  0  0  0  0  0  0
    6.5522    0.6683   17.5633 N   0  0  0  0  0  0  0  0  0  0  0  0
    7.1593    0.0346   18.5693 C   0  0  0  0  0  0  0  0  0  0  0  0
    8.0989   -0.4599   18.3248 H   0  0  0  0  0  0  0  0  0  0  0  0
    4.9307    1.8058   16.9892 H   0  0  0  0  0  0  0  0  0  0  0  0
    3.8783    1.8468   19.2447 H   0  0  0  0  0  0  0  0  0  0  0  0
    5.0203    0.6356   21.1517 H   0  0  0  0  0  0  0  0  0  0  0  0
  1  2  2  0
  2  3  1  0
  3  4  1  0
  4  5  2  0
  5  6  1  0
  6  7  2  0
  7  8  1  0
  8  9  2  0
  9 10  1  0
 10 11  1  0
 11 12  2  0
 12 13  1  0
 11 14  1  0
  8 15  1  0
  7 16  1  0
  3 17  1  0
  2 18  1  0
 18 19  1  0
 18 20  1  0
 18 21  1  0
 21 22  2  0
 22 23  1  0
 23 24  2  0
 24 25  1  0
 25 26  2  0
 26 27  1  0
 24 28  1  0
 23 29  1  0
 22 30  1  0
 12  4  1  0
 26 21  1  0
 10  6  1  0
M  END
>  <cnnaffinity>  (1) 
-5.38335

>  <filename>  (1) 
O=C(Nc1ccn2nccc2n1)C(F)(F)c1cccnc1

$$$$
