
     RDKit          3D

 27 28  0  0  0  0  0  0  0  0999 V2000
    5.8198   -1.9784   20.7786 O   0  0  0  0  0  0  0  0  0  0  0  0
    6.6067   -1.3064   20.1383 C   0  0  0  0  0  0  0  0  0  0  0  0
    7.9370   -1.4677   20.2818 N   0  0  0  0  0  0  0  0  0  0  0  0
    8.3301   -2.2271   21.6891 S   0  0  0  0  0  0  0  0  0  0  0  0
    8.8690   -3.5259   21.3103 O   0  0  0  0  0  0  0  0  0  0  0  0
    7.1961   -2.3201   22.6020 O   0  0  0  0  0  0  0  0  0  0  0  0
    9.5711   -1.1596   22.3317 C   0  0  0  0  0  0  0  0  0  0  0  0
    9.7311   -0.9322   23.6926 C   0  0  0  0  0  0  0  0  0  0  0  0
   10.7836   -0.1252   24.0700 C   0  0  0  0  0  0  0  0  0  0  0  0
   11.0844    0.1905   25.9194 Br  0  0  0  0  0  0  0  0  0  0  0  0
   11.5878    0.4439   23.0749 C   0  0  0  0  0  0  0  0  0  0  0  0
   11.3822    0.2167   21.7661 N   0  0  0  0  0  0  0  0  0  0  0  0
   10.3925   -0.5863   21.3910 C   0  0  0  0  0  0  0  0  0  0  0  0
   10.2419   -0.7589   20.3281 H   0  0  0  0  0  0  0  0  0  0  0  0
   12.4062    1.0980   23.3731 H   0  0  0  0  0  0  0  0  0  0  0  0
    9.0758   -1.3481   24.4644 H   0  0  0  0  0  0  0  0  0  0  0  0
    8.5625   -0.7564   19.9532 H   0  0  0  0  0  0  0  0  0  0  0  0
    6.1786   -0.3068   19.2306 C   0  0  0  0  0  0  0  0  0  0  0  0
    5.0269    0.4576   19.4260 C   0  0  0  0  0  0  0  0  0  0  0  0
    4.7524    1.4266   18.4678 C   0  0  0  0  0  0  0  0  0  0  0  0
    5.5860    1.5604   17.3513 C   0  0  0  0  0  0  0  0  0  0  0  0
    6.6862    0.8089   17.1802 N   0  0  0  0  0  0  0  0  0  0  0  0
    6.9829   -0.0940   18.1194 C   0  0  0  0  0  0  0  0  0  0  0  0
    7.8839   -0.6871   17.9979 H   0  0  0  0  0  0  0  0  0  0  0  0
    5.3495    2.3089   16.6014 H   0  0  0  0  0  0  0  0  0  0  0  0
    3.9013    2.0888   18.5816 H   0  0  0  0  0  0  0  0  0  0  0  0
    4.3857    0.3288   20.3014 H   0  0  0  0  0  0  0  0  0  0  0  0
  1  2  2  0
  2  3  1  0
  3  4  1  0
  4  5  2  0
  4  6  2  0
  4  7  1  0
  7  8  2  0
  8  9  1  0
  9 10  1  0
  9 11  2  0
 11 12  1  0
 12 13  2  0
 13 14  1  0
 11 15  1  0
  8 16  1  0
  3 17  1  0
  2 18  1  0
 18 19  2  0
 19 20  1  0
 20 21  2  0
 21 22  1  0
 22 23  2  0
 23 24  1  0
 21 25  1  0
 20 26  1  0
 19 27  1  0
 13  7  1  0
 23 18  1  0
M  END
>  <cnnaffinity>  (1) 
-5.33339

>  <filename>  (1) 
O=C(NS(=O)(=O)c1cncc(Br)c1)c1cccnc1

$$$$
