
     RDKit          3D

 32 34  0  0  0  0  0  0  0  0999 V2000
    9.3547    1.8856   25.8541 H   0  0  0  0  0  0  0  0  0  0  0  0
    8.5691    1.3069   25.8830 O   0  0  0  0  0  0  0  0  0  0  0  0
    8.1401    1.5970   24.6386 C   0  0  0  0  0  0  0  0  0  0  0  0
    8.7821    2.3826   23.9893 O   0  0  0  0  0  0  0  0  0  0  0  0
    6.8237    0.8963   24.3091 C   0  0  0  0  0  0  0  0  0  0  0  0
    6.7680    0.0054   24.9415 H   0  0  0  0  0  0  0  0  0  0  0  0
    6.0285    1.5898   24.5990 H   0  0  0  0  0  0  0  0  0  0  0  0
    6.5869    0.6100   22.9399 O   0  0  0  0  0  0  0  0  0  0  0  0
    7.3389   -0.3825   22.3723 C   0  0  0  0  0  0  0  0  0  0  0  0
    7.3834   -0.6810   20.9685 C   0  0  0  0  0  0  0  0  0  0  0  0
    6.6540   -0.0018   19.8939 C   0  0  0  0  0  0  0  0  0  0  0  0
    7.1706    0.0394   18.5833 C   0  0  0  0  0  0  0  0  0  0  0  0
    8.1182   -0.4419   18.3433 H   0  0  0  0  0  0  0  0  0  0  0  0
    6.5646    0.6661   17.5688 N   0  0  0  0  0  0  0  0  0  0  0  0
    5.4024    1.2889   17.8274 C   0  0  0  0  0  0  0  0  0  0  0  0
    4.9345    1.7971   16.9877 H   0  0  0  0  0  0  0  0  0  0  0  0
    4.7985    1.3044   19.0895 C   0  0  0  0  0  0  0  0  0  0  0  0
    3.8675    1.8440   19.2382 H   0  0  0  0  0  0  0  0  0  0  0  0
    5.4344    0.6541   20.1410 C   0  0  0  0  0  0  0  0  0  0  0  0
    5.0172    0.6587   21.1458 H   0  0  0  0  0  0  0  0  0  0  0  0
    8.2150   -1.7025   20.7297 N   0  0  0  0  0  0  0  0  0  0  0  0
    8.6501   -2.0327   21.9395 N   0  0  0  0  0  0  0  0  0  0  0  0
    8.1858   -1.2988   22.9584 C   0  0  0  0  0  0  0  0  0  0  0  0
    8.7670   -1.7695   24.2634 C   0  0  0  0  0  0  0  0  0  0  0  0
    7.9722   -2.0626   24.9597 H   0  0  0  0  0  0  0  0  0  0  0  0
    9.3349   -0.9600   24.7363 H   0  0  0  0  0  0  0  0  0  0  0  0
    9.6594   -2.9714   23.8442 C   0  0  0  0  0  0  0  0  0  0  0  0
   10.7011   -2.8137   24.1224 H   0  0  0  0  0  0  0  0  0  0  0  0
    9.3263   -3.8957   24.3151 H   0  0  0  0  0  0  0  0  0  0  0  0
    9.5365   -3.1035   22.3013 C   0  0  0  0  0  0  0  0  0  0  0  0
   10.4913   -2.9541   21.7939 H   0  0  0  0  0  0  0  0  0  0  0  0
    9.0778   -4.0519   22.0077 H   0  0  0  0  0  0  0  0  0  0  0  0
  1  2  1  0
  2  3  1  0
  3  4  2  0
  3  5  1  0
  5  6  1  0
  5  7  1  0
  5  8  1  0
  8  9  1  0
  9 10  1  0
 10 11  1  0
 11 12  2  0
 12 13  1  0
 12 14  1  0
 14 15  2  0
 15 16  1  0
 15 17  1  0
 17 18  1  0
 17 19  2  0
 19 20  1  0
 10 21  2  0
 21 22  1  0
 22 23  1  0
 23 24  1  0
 24 25  1  0
 24 26  1  0
 24 27  1  0
 27 28  1  0
 27 29  1  0
 27 30  1  0
 30 31  1  0
 30 32  1  0
 23  9  2  0
 19 11  1  0
 30 22  1  0
M  END
>  <cnnaffinity>  (1) 
-4.88427

>  <filename>  (1) 
O=C(O)COc1c(-c2cccnc2)nn2c1CCC2

$$$$
