
     RDKit          3D

 41 43  0  0  0  0  0  0  0  0999 V2000
    4.9621    1.8259   16.9608 H   0  0  0  0  0  0  0  0  0  0  0  0
    5.4141    1.3032   17.8033 C   0  0  0  0  0  0  0  0  0  0  0  0
    6.5660    0.6621   17.5571 N   0  0  0  0  0  0  0  0  0  0  0  0
    7.1519    0.0412   18.5936 C   0  0  0  0  0  0  0  0  0  0  0  0
    8.0808   -0.4748   18.3642 H   0  0  0  0  0  0  0  0  0  0  0  0
    6.6396    0.0000   19.9108 C   0  0  0  0  0  0  0  0  0  0  0  0
    7.3544   -0.7131   21.0190 C   0  0  0  0  0  0  0  0  0  0  0  0
    8.7760   -0.6116   21.1958 C   0  0  0  0  0  0  0  0  0  0  0  0
    9.3627   -0.0041   20.5057 H   0  0  0  0  0  0  0  0  0  0  0  0
    9.3938   -1.2593   22.2270 C   0  0  0  0  0  0  0  0  0  0  0  0
   10.4589   -1.2524   22.3936 H   0  0  0  0  0  0  0  0  0  0  0  0
    8.6591   -2.0322   23.1974 C   0  0  0  0  0  0  0  0  0  0  0  0
    9.1769   -2.5937   24.1588 O   0  0  0  0  0  0  0  0  0  0  0  0
    7.2729   -2.1242   22.9732 N   0  0  0  0  0  0  0  0  0  0  0  0
    6.5288   -3.0435   23.7575 C   0  0  0  0  0  0  0  0  0  0  0  0
    5.7333   -3.7957   23.2329 O   0  0  0  0  0  0  0  0  0  0  0  0
    6.7373   -2.9189   25.0926 N   0  0  0  0  0  0  0  0  0  0  0  0
    7.7060   -2.6791   25.2734 H   0  0  0  0  0  0  0  0  0  0  0  0
    6.1525   -3.8935   25.9931 C   0  0  0  0  0  0  0  0  0  0  0  0
    5.0793   -3.9888   25.7579 H   0  0  0  0  0  0  0  0  0  0  0  0
    6.8002   -5.2807   25.8519 C   0  0  0  0  0  0  0  0  0  0  0  0
    6.6855   -5.6380   24.8228 H   0  0  0  0  0  0  0  0  0  0  0  0
    7.8852   -5.1904   26.0407 H   0  0  0  0  0  0  0  0  0  0  0  0
    6.1663   -6.2557   26.8511 C   0  0  0  0  0  0  0  0  0  0  0  0
    5.0931   -6.3555   26.6295 H   0  0  0  0  0  0  0  0  0  0  0  0
    6.5788   -7.2498   26.7157 H   0  0  0  0  0  0  0  0  0  0  0  0
    6.3308   -5.7702   28.2976 C   0  0  0  0  0  0  0  0  0  0  0  0
    7.3990   -5.7380   28.5642 H   0  0  0  0  0  0  0  0  0  0  0  0
    5.8624   -6.4728   28.9964 H   0  0  0  0  0  0  0  0  0  0  0  0
    5.7140   -4.3726   28.4551 C   0  0  0  0  0  0  0  0  0  0  0  0
    4.6261   -4.4444   28.2985 H   0  0  0  0  0  0  0  0  0  0  0  0
    5.8527   -4.0002   29.4759 H   0  0  0  0  0  0  0  0  0  0  0  0
    6.3006   -3.3853   27.4287 C   0  0  0  0  0  0  0  0  0  0  0  0
    5.8355   -2.3954   27.5149 H   0  0  0  0  0  0  0  0  0  0  0  0
    7.3805   -3.2574   27.6188 H   0  0  0  0  0  0  0  0  0  0  0  0
    6.6628   -1.5124   21.8864 C   0  0  0  0  0  0  0  0  0  0  0  0
    5.6054   -1.7167   21.7464 H   0  0  0  0  0  0  0  0  0  0  0  0
    5.4142    0.6537   20.1255 C   0  0  0  0  0  0  0  0  0  0  0  0
    4.9619    0.6648   21.1203 H   0  0  0  0  0  0  0  0  0  0  0  0
    4.7984    1.3218   19.0617 C   0  0  0  0  0  0  0  0  0  0  0  0
    3.8661    1.8590   19.1935 H   0  0  0  0  0  0  0  0  0  0  0  0
  1  2  1  0
  2  3  2  0
  3  4  1  0
  4  5  1  0
  4  6  2  0
  6  7  1  0
  7  8  1  0
  8  9  1  0
  8 10  2  0
 10 11  1  0
 10 12  1  0
 12 13  2  0
 12 14  1  0
 14 15  1  0
 15 16  2  0
 15 17  1  0
 17 18  1  0
 17 19  1  0
 19 20  1  0
 19 21  1  0
 21 22  1  0
 21 23  1  0
 21 24  1  0
 24 25  1  0
 24 26  1  0
 24 27  1  0
 27 28  1  0
 27 29  1  0
 27 30  1  0
 30 31  1  0
 30 32  1  0
 30 33  1  0
 33 34  1  0
 33 35  1  0
 14 36  1  0
 36 37  1  0
  6 38  1  0
 38 39  1  0
 38 40  2  0
 40 41  1  0
 40  2  1  0
 36  7  2  0
 33 19  1  0
M  END
>  <cnnaffinity>  (1) 
-5.32385

>  <filename>  (1) 
O=C(NC1CCCCC1)n1cc(-c2cccnc2)ccc1=O

$$$$
