
     RDKit          3D

 38 39  0  0  0  0  0  0  0  0999 V2000
    9.2933    6.6143   21.4286 H   0  0  0  0  0  0  0  0  0  0  0  0
    8.5090    6.7612   21.9940 O   0  0  0  0  0  0  0  0  0  0  0  0
    8.1049    5.5099   22.4391 N   0  0  0  0  0  0  0  0  0  0  0  0
    7.1784    5.2528   22.1417 H   0  0  0  0  0  0  0  0  0  0  0  0
    8.6198    4.8770   23.5471 C   0  0  0  0  0  0  0  0  0  0  0  0
    9.6097    5.2269   24.1564 O   0  0  0  0  0  0  0  0  0  0  0  0
    7.8806    3.5910   23.8690 C   0  0  0  0  0  0  0  0  0  0  0  0
    6.8303    3.6368   23.5600 H   0  0  0  0  0  0  0  0  0  0  0  0
    7.8953    3.5169   24.9586 H   0  0  0  0  0  0  0  0  0  0  0  0
    8.5884    2.3637   23.2595 C   0  0  0  0  0  0  0  0  0  0  0  0
    8.1751    1.4514   23.7129 H   0  0  0  0  0  0  0  0  0  0  0  0
    9.6486    2.4107   23.5533 H   0  0  0  0  0  0  0  0  0  0  0  0
    8.4744    2.2680   21.7328 C   0  0  0  0  0  0  0  0  0  0  0  0
    7.4129    2.2328   21.4411 H   0  0  0  0  0  0  0  0  0  0  0  0
    8.8951    3.1666   21.2692 H   0  0  0  0  0  0  0  0  0  0  0  0
    9.1928    1.0496   21.1290 C   0  0  0  0  0  0  0  0  0  0  0  0
    9.1464    1.1046   20.0389 H   0  0  0  0  0  0  0  0  0  0  0  0
   10.2582    1.0744   21.3906 H   0  0  0  0  0  0  0  0  0  0  0  0
    8.5918   -0.2772   21.5431 C   0  0  0  0  0  0  0  0  0  0  0  0
    9.1889   -1.0368   22.5601 C   0  0  0  0  0  0  0  0  0  0  0  0
   10.1106   -0.6750   23.0082 H   0  0  0  0  0  0  0  0  0  0  0  0
    8.6194   -2.2282   23.0153 C   0  0  0  0  0  0  0  0  0  0  0  0
    9.1011   -2.7943   23.8100 H   0  0  0  0  0  0  0  0  0  0  0  0
    7.4190   -2.6719   22.4560 C   0  0  0  0  0  0  0  0  0  0  0  0
    6.9620   -3.5901   22.8078 H   0  0  0  0  0  0  0  0  0  0  0  0
    6.7983   -1.9220   21.4544 C   0  0  0  0  0  0  0  0  0  0  0  0
    5.8557   -2.2427   21.0161 H   0  0  0  0  0  0  0  0  0  0  0  0
    7.3740   -0.7325   20.9835 C   0  0  0  0  0  0  0  0  0  0  0  0
    6.6579    0.0096   19.8917 C   0  0  0  0  0  0  0  0  0  0  0  0
    7.1585    0.0595   18.5770 C   0  0  0  0  0  0  0  0  0  0  0  0
    8.1079   -0.4253   18.3406 H   0  0  0  0  0  0  0  0  0  0  0  0
    6.5494    0.6762   17.5524 N   0  0  0  0  0  0  0  0  0  0  0  0
    5.3919    1.3023   17.8152 C   0  0  0  0  0  0  0  0  0  0  0  0
    4.9234    1.8141   16.9762 H   0  0  0  0  0  0  0  0  0  0  0  0
    4.7930    1.3193   19.0804 C   0  0  0  0  0  0  0  0  0  0  0  0
    3.8565    1.8535   19.2271 H   0  0  0  0  0  0  0  0  0  0  0  0
    5.4343    0.6524   20.1294 C   0  0  0  0  0  0  0  0  0  0  0  0
    5.0071    0.6416   21.1334 H   0  0  0  0  0  0  0  0  0  0  0  0
  1  2  1  0
  2  3  1  0
  3  4  1  0
  3  5  1  0
  5  6  2  0
  5  7  1  0
  7  8  1  0
  7  9  1  0
  7 10  1  0
 10 11  1  0
 10 12  1  0
 10 13  1  0
 13 14  1  0
 13 15  1  0
 13 16  1  0
 16 17  1  0
 16 18  1  0
 16 19  1  0
 19 20  2  0
 20 21  1  0
 20 22  1  0
 22 23  1  0
 22 24  2  0
 24 25  1  0
 24 26  1  0
 26 27  1  0
 26 28  2  0
 28 29  1  0
 29 30  2  0
 30 31  1  0
 30 32  1  0
 32 33  2  0
 33 34  1  0
 33 35  1  0
 35 36  1  0
 35 37  2  0
 37 38  1  0
 28 19  1  0
 37 29  1  0
M  END
>  <cnnaffinity>  (1) 
-4.80704

>  <filename>  (1) 
O=C(CCCCc1ccccc1-c1cccnc1)NO

$$$$
