
     RDKit          3D

 32 34  0  0  0  0  0  0  0  0999 V2000
    4.9232    1.7811   16.9966 H   0  0  0  0  0  0  0  0  0  0  0  0
    5.4015    1.2941   17.8406 C   0  0  0  0  0  0  0  0  0  0  0  0
    6.5664    0.6776   17.5826 N   0  0  0  0  0  0  0  0  0  0  0  0
    7.1674    0.0550   18.5985 C   0  0  0  0  0  0  0  0  0  0  0  0
    8.1143   -0.4376   18.3793 H   0  0  0  0  0  0  0  0  0  0  0  0
    6.6468    0.0253   19.9004 C   0  0  0  0  0  0  0  0  0  0  0  0
    7.3733   -0.7113   20.9254 C   0  0  0  0  0  0  0  0  0  0  0  0
    7.9593   -1.8766   20.7750 N   0  0  0  0  0  0  0  0  0  0  0  0
    8.5050   -2.1852   21.9704 N   0  0  0  0  0  0  0  0  0  0  0  0
    8.2957   -1.2547   22.8281 N   0  0  0  0  0  0  0  0  0  0  0  0
    7.5636   -0.3065   22.2013 N   0  0  0  0  0  0  0  0  0  0  0  0
    7.2236    0.9422   22.8507 C   0  0  0  0  0  0  0  0  0  0  0  0
    8.0458    1.2416   23.5072 H   0  0  0  0  0  0  0  0  0  0  0  0
    7.1147    1.7337   22.1035 H   0  0  0  0  0  0  0  0  0  0  0  0
    5.9840    0.8183   23.5979 N   0  0  0  0  0  0  0  0  0  0  0  0
    5.5274   -0.0770   23.6317 H   0  0  0  0  0  0  0  0  0  0  0  0
    5.4577    1.8953   24.2513 C   0  0  0  0  0  0  0  0  0  0  0  0
    5.9344    3.0128   24.1177 O   0  0  0  0  0  0  0  0  0  0  0  0
    4.2326    1.6583   25.1529 C   0  0  0  0  0  0  0  0  0  0  0  0
    3.3551    2.7228   25.4497 C   0  0  0  0  0  0  0  0  0  0  0  0
    3.5220    3.7130   25.0430 H   0  0  0  0  0  0  0  0  0  0  0  0
    2.2625    2.5092   26.2937 C   0  0  0  0  0  0  0  0  0  0  0  0
    1.5759    3.3214   26.5176 H   0  0  0  0  0  0  0  0  0  0  0  0
    1.9804    1.3348   26.8711 N   0  0  0  0  0  0  0  0  0  0  0  0
    2.8257    0.3286   26.6158 C   0  0  0  0  0  0  0  0  0  0  0  0
    2.5982   -0.6221   27.0878 H   0  0  0  0  0  0  0  0  0  0  0  0
    3.9458    0.4352   25.7856 C   0  0  0  0  0  0  0  0  0  0  0  0
    4.5923   -0.4287   25.6672 H   0  0  0  0  0  0  0  0  0  0  0  0
    5.4271    0.6669   20.1584 C   0  0  0  0  0  0  0  0  0  0  0  0
    4.9947    0.6465   21.1646 H   0  0  0  0  0  0  0  0  0  0  0  0
    4.7972    1.3148   19.1017 C   0  0  0  0  0  0  0  0  0  0  0  0
    3.8681    1.8466   19.2547 H   0  0  0  0  0  0  0  0  0  0  0  0
  1  2  1  0
  2  3  2  0
  3  4  1  0
  4  5  1  0
  4  6  2  0
  6  7  1  0
  7  8  2  0
  8  9  1  0
  9 10  2  0
 10 11  1  0
 11 12  1  0
 12 13  1  0
 12 14  1  0
 12 15  1  0
 15 16  1  0
 15 17  1  0
 17 18  2  0
 17 19  1  0
 19 20  2  0
 20 21  1  0
 20 22  1  0
 22 23  1  0
 22 24  2  0
 24 25  1  0
 25 26  1  0
 25 27  2  0
 27 28  1  0
  6 29  1  0
 29 30  1  0
 29 31  2  0
 31 32  1  0
 31  2  1  0
 11  7  1  0
 27 19  1  0
M  END
>  <cnnaffinity>  (1) 
-4.8566

>  <filename>  (1) 
O=C(NCn1nnnc1-c1cccnc1)c1ccncc1

$$$$
