
     RDKit          3D

 38 40  0  0  0  0  0  0  0  0999 V2000
    4.9490    1.7865   16.9829 H   0  0  0  0  0  0  0  0  0  0  0  0
    5.4030    1.2868   17.8405 C   0  0  0  0  0  0  0  0  0  0  0  0
    6.5657    0.6534   17.6132 N   0  0  0  0  0  0  0  0  0  0  0  0
    7.1634    0.0577   18.6516 C   0  0  0  0  0  0  0  0  0  0  0  0
    8.0965   -0.4502   18.4054 H   0  0  0  0  0  0  0  0  0  0  0  0
    6.6534    0.0660   19.9602 C   0  0  0  0  0  0  0  0  0  0  0  0
    7.3768   -0.6608   21.0080 C   0  0  0  0  0  0  0  0  0  0  0  0
    7.9009   -1.8314   20.7846 N   0  0  0  0  0  0  0  0  0  0  0  0
    8.3872   -2.2871   21.9804 C   0  0  0  0  0  0  0  0  0  0  0  0
    8.8364   -3.2697   22.0353 H   0  0  0  0  0  0  0  0  0  0  0  0
    8.1966   -1.3631   22.9617 C   0  0  0  0  0  0  0  0  0  0  0  0
    8.5695   -1.3398   23.9796 H   0  0  0  0  0  0  0  0  0  0  0  0
    7.5276   -0.2913   22.3350 N   0  0  0  0  0  0  0  0  0  0  0  0
    7.2889    1.0476   22.7675 C   0  0  0  0  0  0  0  0  0  0  0  0
    7.2832    1.9711   21.9804 O   0  0  0  0  0  0  0  0  0  0  0  0
    7.0754    1.1576   24.1035 N   0  0  0  0  0  0  0  0  0  0  0  0
    6.9917    0.2895   24.6027 H   0  0  0  0  0  0  0  0  0  0  0  0
    6.9414    2.4535   24.7810 C   0  0  0  0  0  0  0  0  0  0  0  0
    6.2875    3.0872   24.1602 H   0  0  0  0  0  0  0  0  0  0  0  0
    8.3062    3.1664   24.8874 C   0  0  0  0  0  0  0  0  0  0  0  0
    9.0002    2.5094   25.4391 H   0  0  0  0  0  0  0  0  0  0  0  0
    8.7086    3.2844   23.8737 H   0  0  0  0  0  0  0  0  0  0  0  0
    8.1919    4.5266   25.6045 C   0  0  0  0  0  0  0  0  0  0  0  0
    9.1848    4.9861   25.6935 H   0  0  0  0  0  0  0  0  0  0  0  0
    7.5894    5.2137   24.9877 H   0  0  0  0  0  0  0  0  0  0  0  0
    7.5405    4.3804   26.9894 C   0  0  0  0  0  0  0  0  0  0  0  0
    7.4344    5.3605   27.4728 H   0  0  0  0  0  0  0  0  0  0  0  0
    8.2001    3.7878   27.6371 H   0  0  0  0  0  0  0  0  0  0  0  0
    6.1820    3.6654   26.9010 C   0  0  0  0  0  0  0  0  0  0  0  0
    5.7636    3.5224   27.9058 H   0  0  0  0  0  0  0  0  0  0  0  0
    5.4649    4.3048   26.3607 H   0  0  0  0  0  0  0  0  0  0  0  0
    6.3055    2.3037   26.1754 C   0  0  0  0  0  0  0  0  0  0  0  0
    5.3204    1.8289   26.0832 H   0  0  0  0  0  0  0  0  0  0  0  0
    6.9333    1.6240   26.7783 H   0  0  0  0  0  0  0  0  0  0  0  0
    5.4143    0.6855   20.1687 C   0  0  0  0  0  0  0  0  0  0  0  0
    4.9485    0.6751   21.1513 H   0  0  0  0  0  0  0  0  0  0  0  0
    4.7876    1.3145   19.0944 C   0  0  0  0  0  0  0  0  0  0  0  0
    3.8546    1.8489   19.2276 H   0  0  0  0  0  0  0  0  0  0  0  0
  1  2  1  0
  2  3  2  0
  3  4  1  0
  4  5  1  0
  4  6  2  0
  6  7  1  0
  7  8  2  0
  8  9  1  0
  9 10  1  0
  9 11  2  0
 11 12  1  0
 11 13  1  0
 13 14  1  0
 14 15  2  0
 14 16  1  0
 16 17  1  0
 16 18  1  0
 18 19  1  0
 18 20  1  0
 20 21  1  0
 20 22  1  0
 20 23  1  0
 23 24  1  0
 23 25  1  0
 23 26  1  0
 26 27  1  0
 26 28  1  0
 26 29  1  0
 29 30  1  0
 29 31  1  0
 29 32  1  0
 32 33  1  0
 32 34  1  0
  6 35  1  0
 35 36  1  0
 35 37  2  0
 37 38  1  0
 37  2  1  0
 13  7  1  0
 32 18  1  0
M  END
>  <cnnaffinity>  (1) 
-5.02349

>  <filename>  (1) 
O=C(NC1CCCCC1)n1ccnc1-c1cccnc1

$$$$
