
     RDKit          3D

 28 29  0  0  0  0  0  0  0  0999 V2000
    4.9262    1.8283   16.9996 H   0  0  0  0  0  0  0  0  0  0  0  0
    5.4013    1.2776   17.8029 C   0  0  0  0  0  0  0  0  0  0  0  0
    6.5473    0.6193   17.5510 N   0  0  0  0  0  0  0  0  0  0  0  0
    7.1529   -0.0033   18.5708 C   0  0  0  0  0  0  0  0  0  0  0  0
    8.0991   -0.5083   18.3827 H   0  0  0  0  0  0  0  0  0  0  0  0
    6.6398    0.0104   19.8779 C   0  0  0  0  0  0  0  0  0  0  0  0
    7.4412   -0.6271   20.9947 C   0  0  0  0  0  0  0  0  0  0  0  0
    8.0619   -1.7459   20.5170 F   0  0  0  0  0  0  0  0  0  0  0  0
    6.6007   -1.0389   21.9857 F   0  0  0  0  0  0  0  0  0  0  0  0
    8.4850    0.3768   21.5654 C   0  0  0  0  0  0  0  0  0  0  0  0
    9.6573    0.2810   21.2090 O   0  0  0  0  0  0  0  0  0  0  0  0
    8.1453    1.4317   22.4113 N   0  0  0  0  0  0  0  0  0  0  0  0
    7.1898    1.5063   22.7493 H   0  0  0  0  0  0  0  0  0  0  0  0
    9.0226    2.4362   22.7982 C   0  0  0  0  0  0  0  0  0  0  0  0
   10.1834    2.7103   22.0660 C   0  0  0  0  0  0  0  0  0  0  0  0
   10.4254    2.1193   21.1868 H   0  0  0  0  0  0  0  0  0  0  0  0
   11.0313    3.7492   22.4512 C   0  0  0  0  0  0  0  0  0  0  0  0
   11.9203    3.9317   21.8524 H   0  0  0  0  0  0  0  0  0  0  0  0
   10.7050    4.5333   23.5673 C   0  0  0  0  0  0  0  0  0  0  0  0
   11.3258    5.3758   23.8524 H   0  0  0  0  0  0  0  0  0  0  0  0
    9.5630    4.2407   24.3252 C   0  0  0  0  0  0  0  0  0  0  0  0
    9.1348    5.2767   25.8720 Br  0  0  0  0  0  0  0  0  0  0  0  0
    8.7223    3.1937   23.9315 C   0  0  0  0  0  0  0  0  0  0  0  0
    7.8420    2.9389   24.5141 H   0  0  0  0  0  0  0  0  0  0  0  0
    5.4261    0.6618   20.1311 C   0  0  0  0  0  0  0  0  0  0  0  0
    4.9873    0.6895   21.1300 H   0  0  0  0  0  0  0  0  0  0  0  0
    4.8052    1.3004   19.0653 C   0  0  0  0  0  0  0  0  0  0  0  0
    3.8769    1.8435   19.2039 H   0  0  0  0  0  0  0  0  0  0  0  0
  1  2  1  0
  2  3  2  0
  3  4  1  0
  4  5  1  0
  4  6  2  0
  6  7  1  0
  7  8  1  0
  7  9  1  0
  7 10  1  0
 10 11  2  0
 10 12  1  0
 12 13  1  0
 12 14  1  0
 14 15  2  0
 15 16  1  0
 15 17  1  0
 17 18  1  0
 17 19  2  0
 19 20  1  0
 19 21  1  0
 21 22  1  0
 21 23  2  0
 23 24  1  0
  6 25  1  0
 25 26  1  0
 25 27  2  0
 27 28  1  0
 27  2  1  0
 23 14  1  0
M  END
>  <cnnaffinity>  (1) 
-4.94682

>  <filename>  (1) 
O=C(Nc1cccc(Br)c1)C(F)(F)c1cccnc1

$$$$
