
     RDKit          3D

 38 40  0  0  0  0  0  0  0  0999 V2000
    5.4528    2.1952   16.2593 H   0  0  0  0  0  0  0  0  0  0  0  0
    5.7339    1.7794   17.2252 C   0  0  0  0  0  0  0  0  0  0  0  0
    6.8070    0.9732   17.2393 N   0  0  0  0  0  0  0  0  0  0  0  0
    7.1787    0.4607   18.4213 C   0  0  0  0  0  0  0  0  0  0  0  0
    8.0693   -0.1652   18.3933 H   0  0  0  0  0  0  0  0  0  0  0  0
    6.5212    0.7006   19.6472 C   0  0  0  0  0  0  0  0  0  0  0  0
    6.9908    0.1060   20.9372 C   0  0  0  0  0  0  0  0  0  0  0  0
    6.7539    0.7883   22.1768 C   0  0  0  0  0  0  0  0  0  0  0  0
    6.2963    1.7789   22.1568 H   0  0  0  0  0  0  0  0  0  0  0  0
    7.0974    0.2241   23.3670 C   0  0  0  0  0  0  0  0  0  0  0  0
    6.8778    0.6652   24.3273 H   0  0  0  0  0  0  0  0  0  0  0  0
    7.7536   -1.0695   23.4370 C   0  0  0  0  0  0  0  0  0  0  0  0
    8.0135   -1.6575   24.4810 O   0  0  0  0  0  0  0  0  0  0  0  0
    8.1055   -1.6256   22.1851 N   0  0  0  0  0  0  0  0  0  0  0  0
    8.8708   -2.8679   22.2280 C   0  0  0  0  0  0  0  0  0  0  0  0
    9.7486   -2.7143   22.8656 H   0  0  0  0  0  0  0  0  0  0  0  0
    9.2020   -3.1147   21.2146 H   0  0  0  0  0  0  0  0  0  0  0  0
    8.0689   -3.9579   22.7708 N   0  0  0  0  0  0  0  0  0  0  0  0
    7.8736   -3.8041   23.7534 H   0  0  0  0  0  0  0  0  0  0  0  0
    6.9920   -4.3706   22.0054 C   0  0  0  0  0  0  0  0  0  0  0  0
    6.9739   -4.2173   20.7962 O   0  0  0  0  0  0  0  0  0  0  0  0
    5.9334   -5.1636   22.7281 C   0  0  0  0  0  0  0  0  0  0  0  0
    6.0610   -6.5160   23.0169 C   0  0  0  0  0  0  0  0  0  0  0  0
    7.0111   -7.0499   22.9585 H   0  0  0  0  0  0  0  0  0  0  0  0
    4.8078   -7.1305   23.3681 C   0  0  0  0  0  0  0  0  0  0  0  0
    4.7343   -8.1731   23.6483 H   0  0  0  0  0  0  0  0  0  0  0  0
    3.6802   -6.2334   23.2877 C   0  0  0  0  0  0  0  0  0  0  0  0
    2.9819   -6.2532   24.2277 H   0  0  0  0  0  0  0  0  0  0  0  0
    4.3773   -4.5942   22.6603 C   0  0  0  0  0  0  0  0  0  0  0  0
    3.3074   -4.6342   22.0497 H   0  0  0  0  0  0  0  0  0  0  0  0
    4.3362   -4.5264   22.7596 C   0  0  0  0  0  0  0  0  0  0  0  0
    4.7291   -3.4248   23.1576 H   0  0  0  0  0  0  0  0  0  0  0  0
    7.6450   -1.0979   20.9935 C   0  0  0  0  0  0  0  0  0  0  0  0
    7.7804   -1.7198   20.1082 H   0  0  0  0  0  0  0  0  0  0  0  0
    5.3997    1.5501   19.5931 C   0  0  0  0  0  0  0  0  0  0  0  0
    4.8369    1.7731   20.4986 H   0  0  0  0  0  0  0  0  0  0  0  0
    5.0023    2.0953   18.3725 C   0  0  0  0  0  0  0  0  0  0  0  0
    4.1583    2.7753   18.3044 H   0  0  0  0  0  0  0  0  0  0  0  0
  1  2  1  0
  2  3  2  0
  3  4  1  0
  4  5  1  0
  4  6  2  0
  6  7  1  0
  7  8  1  0
  8  9  1  0
  8 10  2  0
 10 11  1  0
 10 12  1  0
 12 13  2  0
 12 14  1  0
 14 15  1  0
 15 16  1  0
 15 17  1  0
 15 18  1  0
 18 19  1  0
 18 20  1  0
 20 21  2  0
 20 22  1  0
 22 23  2  0
 23 24  1  0
 23 25  1  0
 25 26  1  0
 25 27  2  0
 27 28  1  0
 27 29  1  0
 29 30  1  0
 29 31  2  0
 31 32  1  0
 14 33  1  0
 33 34  1  0
  6 35  1  0
 35 36  1  0
 35 37  2  0
 37 38  1  0
 37  2  1  0
 33  7  2  0
 31 22  1  0
M  END
>  <cnnaffinity>  (1) 
-5.17693

>  <filename>  (1) 
O=C(NCn1cc(-c2cccnc2)ccc1=O)c1ccccc1

$$$$
