
     RDKit          3D

 33 35  0  0  0  0  0  0  0  0999 V2000
    4.9810    1.8000   16.9793 H   0  0  0  0  0  0  0  0  0  0  0  0
    5.4567    1.2903   17.8199 C   0  0  0  0  0  0  0  0  0  0  0  0
    6.6155    0.6618   17.5658 N   0  0  0  0  0  0  0  0  0  0  0  0
    7.2194    0.0327   18.5836 C   0  0  0  0  0  0  0  0  0  0  0  0
    8.1469   -0.4780   18.3368 H   0  0  0  0  0  0  0  0  0  0  0  0
    6.7152   -0.0167   19.8954 C   0  0  0  0  0  0  0  0  0  0  0  0
    7.3797   -0.7528   20.9782 C   0  0  0  0  0  0  0  0  0  0  0  0
    6.8295   -1.2719   22.0854 C   0  0  0  0  0  0  0  0  0  0  0  0
    5.8048   -1.3044   22.3942 H   0  0  0  0  0  0  0  0  0  0  0  0
    7.8337   -1.8916   22.8276 N   0  0  0  0  0  0  0  0  0  0  0  0
    7.6135   -2.3934   24.1335 C   0  0  0  0  0  0  0  0  0  0  0  0
    6.8161   -1.8617   24.8708 O   0  0  0  0  0  0  0  0  0  0  0  0
    8.2870   -3.5486   24.3768 N   0  0  0  0  0  0  0  0  0  0  0  0
    9.1592   -3.6067   23.8656 H   0  0  0  0  0  0  0  0  0  0  0  0
    8.2239   -4.2001   25.6208 C   0  0  0  0  0  0  0  0  0  0  0  0
    7.0023   -4.3741   26.2856 C   0  0  0  0  0  0  0  0  0  0  0  0
    6.0990   -3.9694   25.8479 H   0  0  0  0  0  0  0  0  0  0  0  0
    6.9676   -5.0711   27.4964 C   0  0  0  0  0  0  0  0  0  0  0  0
    6.0160   -5.2450   27.9952 H   0  0  0  0  0  0  0  0  0  0  0  0
    8.1573   -5.5310   28.0746 C   0  0  0  0  0  0  0  0  0  0  0  0
    8.1380   -6.0587   29.0237 H   0  0  0  0  0  0  0  0  0  0  0  0
    9.3756   -5.3058   27.4263 C   0  0  0  0  0  0  0  0  0  0  0  0
   10.3107   -5.6033   27.8893 H   0  0  0  0  0  0  0  0  0  0  0  0
    9.4106   -4.6726   26.1814 C   0  0  0  0  0  0  0  0  0  0  0  0
   10.3386   -4.5353   25.6317 H   0  0  0  0  0  0  0  0  0  0  0  0
    9.0379   -1.7377   22.1977 C   0  0  0  0  0  0  0  0  0  0  0  0
   10.5559   -2.2150   22.6785 S   0  0  0  0  0  0  0  0  0  0  0  0
    8.7349   -1.0636   21.0646 N   0  0  0  0  0  0  0  0  0  0  0  0
    9.4986   -0.6918   20.5282 H   0  0  0  0  0  0  0  0  0  0  0  0
    5.4962    0.6443   20.1363 C   0  0  0  0  0  0  0  0  0  0  0  0
    5.0630    0.6592   21.1375 H   0  0  0  0  0  0  0  0  0  0  0  0
    4.8578    1.3034   19.0850 C   0  0  0  0  0  0  0  0  0  0  0  0
    3.9198    1.8299   19.2265 H   0  0  0  0  0  0  0  0  0  0  0  0
  1  2  1  0
  2  3  2  0
  3  4  1  0
  4  5  1  0
  4  6  2  0
  6  7  1  0
  7  8  2  0
  8  9  1  0
  8 10  1  0
 10 11  1  0
 11 12  2  0
 11 13  1  0
 13 14  1  0
 13 15  1  0
 15 16  2  0
 16 17  1  0
 16 18  1  0
 18 19  1  0
 18 20  2  0
 20 21  1  0
 20 22  1  0
 22 23  1  0
 22 24  2  0
 24 25  1  0
 10 26  1  0
 26 27  2  0
 26 28  1  0
 28 29  1  0
  6 30  1  0
 30 31  1  0
 30 32  2  0
 32 33  1  0
 32  2  1  0
 28  7  1  0
 24 15  1  0
M  END
>  <cnnaffinity>  (1) 
-5.38019

>  <filename>  (1) 
O=C(Nc1ccccc1)n1cc(-c2cccnc2)[nH]c1=S

$$$$
