
     RDKit          3D

 30 32  0  0  0  0  0  0  0  0999 V2000
    4.9170    2.0717   16.8524 H   0  0  0  0  0  0  0  0  0  0  0  0
    5.2970    1.4326   17.6455 C   0  0  0  0  0  0  0  0  0  0  0  0
    6.4185    0.7499   17.3595 N   0  0  0  0  0  0  0  0  0  0  0  0
    6.9454    0.0105   18.3375 C   0  0  0  0  0  0  0  0  0  0  0  0
    7.8707   -0.5191   18.1071 H   0  0  0  0  0  0  0  0  0  0  0  0
    6.3933   -0.1030   19.6348 C   0  0  0  0  0  0  0  0  0  0  0  0
    7.1427   -0.7683   20.6868 N   0  0  0  0  0  0  0  0  0  0  0  0
    8.4544   -0.3679   20.8813 C   0  0  0  0  0  0  0  0  0  0  0  0
    8.8134    0.4568   20.2574 H   0  0  0  0  0  0  0  0  0  0  0  0
    9.2326   -0.9685   21.7998 C   0  0  0  0  0  0  0  0  0  0  0  0
   10.6290   -0.5807   22.0134 C   0  0  0  0  0  0  0  0  0  0  0  0
   11.3853   -0.4985   21.0662 O   0  0  0  0  0  0  0  0  0  0  0  0
   11.0993   -0.2352   23.3719 C   0  0  0  0  0  0  0  0  0  0  0  0
   10.0241   -0.1191   24.7226 S   0  0  0  0  0  0  0  0  0  0  0  0
   11.3199    0.2183   25.7694 C   0  0  0  0  0  0  0  0  0  0  0  0
   11.0892    0.3553   26.8181 H   0  0  0  0  0  0  0  0  0  0  0  0
   12.5230    0.2647   25.1206 C   0  0  0  0  0  0  0  0  0  0  0  0
   13.4791    0.4020   25.6081 H   0  0  0  0  0  0  0  0  0  0  0  0
   12.3996    0.0406   23.7265 C   0  0  0  0  0  0  0  0  0  0  0  0
   13.2284    0.0659   23.0160 H   0  0  0  0  0  0  0  0  0  0  0  0
    8.7788   -2.1305   22.5283 C   0  0  0  0  0  0  0  0  0  0  0  0
    9.4661   -2.9058   23.1467 O   0  0  0  0  0  0  0  0  0  0  0  0
    7.4096   -2.2838   22.4704 N   0  0  0  0  0  0  0  0  0  0  0  0
    7.0442   -3.0984   22.9203 H   0  0  0  0  0  0  0  0  0  0  0  0
    6.5984   -1.8288   21.4631 C   0  0  0  0  0  0  0  0  0  0  0  0
    5.5254   -2.3503   21.2746 O   0  0  0  0  0  0  0  0  0  0  0  0
    5.1822    0.5453   19.8939 C   0  0  0  0  0  0  0  0  0  0  0  0
    4.6917    0.4291   20.8605 H   0  0  0  0  0  0  0  0  0  0  0  0
    4.6458    1.3541   18.8805 C   0  0  0  0  0  0  0  0  0  0  0  0
    3.7517    1.9456   19.0412 H   0  0  0  0  0  0  0  0  0  0  0  0
  1  2  1  0
  2  3  2  0
  3  4  1  0
  4  5  1  0
  4  6  2  0
  6  7  1  0
  7  8  1  0
  8  9  1  0
  8 10  2  0
 10 11  1  0
 11 12  2  0
 11 13  1  0
 13 14  1  0
 14 15  1  0
 15 16  1  0
 15 17  2  0
 17 18  1  0
 17 19  1  0
 19 20  1  0
 10 21  1  0
 21 22  2  0
 21 23  1  0
 23 24  1  0
 23 25  1  0
 25 26  2  0
  6 27  1  0
 27 28  1  0
 27 29  2  0
 29 30  1  0
 29  2  1  0
 25  7  1  0
 19 13  2  0
M  END
>  <cnnaffinity>  (1) 
-5.2901

>  <filename>  (1) 
O=C(c1cccs1)c1cn(-c2cccnc2)c(=O)[nH]c1=O

$$$$
