
     RDKit          3D

 36 38  0  0  0  0  0  0  0  0999 V2000
    4.9406    1.8008   16.9486 H   0  0  0  0  0  0  0  0  0  0  0  0
    5.3983    1.3261   17.8161 C   0  0  0  0  0  0  0  0  0  0  0  0
    6.5618    0.6911   17.5969 N   0  0  0  0  0  0  0  0  0  0  0  0
    7.1312    0.0796   18.6462 C   0  0  0  0  0  0  0  0  0  0  0  0
    8.0811   -0.4122   18.4355 H   0  0  0  0  0  0  0  0  0  0  0  0
    6.6024    0.0691   19.9566 C   0  0  0  0  0  0  0  0  0  0  0  0
    7.2693   -0.6943   21.0411 C   0  0  0  0  0  0  0  0  0  0  0  0
    7.6428   -2.0156   21.0403 C   0  0  0  0  0  0  0  0  0  0  0  0
    7.3271   -2.7185   20.2862 H   0  0  0  0  0  0  0  0  0  0  0  0
    8.3714   -2.2748   22.2324 C   0  0  0  0  0  0  0  0  0  0  0  0
    8.8951   -3.1848   22.4957 H   0  0  0  0  0  0  0  0  0  0  0  0
    8.3588   -1.1144   22.9659 C   0  0  0  0  0  0  0  0  0  0  0  0
    8.7310   -0.9084   23.9623 H   0  0  0  0  0  0  0  0  0  0  0  0
    7.6709   -0.1535   22.2525 N   0  0  0  0  0  0  0  0  0  0  0  0
    7.3797    1.1663   22.7668 C   0  0  0  0  0  0  0  0  0  0  0  0
    8.2261    1.5079   23.3761 H   0  0  0  0  0  0  0  0  0  0  0  0
    7.2800    1.8898   21.9445 H   0  0  0  0  0  0  0  0  0  0  0  0
    6.1848    1.1481   23.5965 N   0  0  0  0  0  0  0  0  0  0  0  0
    5.6717    0.2899   23.7131 H   0  0  0  0  0  0  0  0  0  0  0  0
    5.6910    2.2969   24.1306 C   0  0  0  0  0  0  0  0  0  0  0  0
    6.1880    3.3874   23.8790 O   0  0  0  0  0  0  0  0  0  0  0  0
    4.4925    2.1463   25.0386 C   0  0  0  0  0  0  0  0  0  0  0  0
    3.6813    3.2823   25.2100 C   0  0  0  0  0  0  0  0  0  0  0  0
    3.9393    4.1883   24.6638 H   0  0  0  0  0  0  0  0  0  0  0  0
    2.5956    3.2604   26.0847 C   0  0  0  0  0  0  0  0  0  0  0  0
    1.9900    4.1556   26.2058 H   0  0  0  0  0  0  0  0  0  0  0  0
    2.3103    2.0963   26.8091 C   0  0  0  0  0  0  0  0  0  0  0  0
    1.4736    2.0850   27.5028 H   0  0  0  0  0  0  0  0  0  0  0  0
    3.1133    0.9594   26.6525 C   0  0  0  0  0  0  0  0  0  0  0  0
    2.9009    0.0572   27.2252 H   0  0  0  0  0  0  0  0  0  0  0  0
    4.1953    0.9754   25.7670 C   0  0  0  0  0  0  0  0  0  0  0  0
    4.8151    0.0788   25.6958 H   0  0  0  0  0  0  0  0  0  0  0  0
    5.3926    0.7556   20.1580 C   0  0  0  0  0  0  0  0  0  0  0  0
    4.9579    0.7983   21.1581 H   0  0  0  0  0  0  0  0  0  0  0  0
    4.7749    1.3738   19.0682 C   0  0  0  0  0  0  0  0  0  0  0  0
    3.8260    1.8845   19.1751 H   0  0  0  0  0  0  0  0  0  0  0  0
  1  2  1  0
  2  3  2  0
  3  4  1  0
  4  5  1  0
  4  6  2  0
  6  7  1  0
  7  8  2  0
  8  9  1  0
  8 10  1  0
 10 11  1  0
 10 12  2  0
 12 13  1  0
 12 14  1  0
 14 15  1  0
 15 16  1  0
 15 17  1  0
 15 18  1  0
 18 19  1  0
 18 20  1  0
 20 21  2  0
 20 22  1  0
 22 23  2  0
 23 24  1  0
 23 25  1  0
 25 26  1  0
 25 27  2  0
 27 28  1  0
 27 29  1  0
 29 30  1  0
 29 31  2  0
 31 32  1  0
  6 33  1  0
 33 34  1  0
 33 35  2  0
 35 36  1  0
 35  2  1  0
 14  7  1  0
 31 22  1  0
M  END
>  <cnnaffinity>  (1) 
-4.79027

>  <filename>  (1) 
O=C(NCn1cccc1-c1cccnc1)c1ccccc1

$$$$
