
     RDKit          3D

 33 35  0  0  0  0  0  0  0  0999 V2000
    5.4794   -4.6510   28.7455 H   0  0  0  0  0  0  0  0  0  0  0  0
    4.9580   -4.6859   27.9215 O   0  0  0  0  0  0  0  0  0  0  0  0
    5.9007   -4.1353   27.1432 C   0  0  0  0  0  0  0  0  0  0  0  0
    6.9484   -3.8292   27.6679 O   0  0  0  0  0  0  0  0  0  0  0  0
    5.5779   -3.9519   25.6995 C   0  0  0  0  0  0  0  0  0  0  0  0
    4.5191   -4.6133   25.0544 C   0  0  0  0  0  0  0  0  0  0  0  0
    3.8446   -5.2364   25.6328 H   0  0  0  0  0  0  0  0  0  0  0  0
    4.3408   -4.4704   23.6748 C   0  0  0  0  0  0  0  0  0  0  0  0
    3.5321   -4.9986   23.1788 H   0  0  0  0  0  0  0  0  0  0  0  0
    5.1959   -3.6559   22.9273 C   0  0  0  0  0  0  0  0  0  0  0  0
    5.0854   -3.4998   21.8584 H   0  0  0  0  0  0  0  0  0  0  0  0
    6.2528   -2.9923   23.5696 C   0  0  0  0  0  0  0  0  0  0  0  0
    7.1458   -2.1916   22.7872 N   0  0  0  0  0  0  0  0  0  0  0  0
    6.5777   -1.5191   21.7374 N   0  0  0  0  0  0  0  0  0  0  0  0
    7.3232   -0.7447   20.9923 C   0  0  0  0  0  0  0  0  0  0  0  0
    6.5945   -0.0249   19.9007 C   0  0  0  0  0  0  0  0  0  0  0  0
    7.1271    0.0265   18.5971 C   0  0  0  0  0  0  0  0  0  0  0  0
    8.0874   -0.4496   18.3923 H   0  0  0  0  0  0  0  0  0  0  0  0
    6.5382    0.6507   17.5716 N   0  0  0  0  0  0  0  0  0  0  0  0
    5.3874    1.2900   17.8273 C   0  0  0  0  0  0  0  0  0  0  0  0
    4.9431    1.8302   16.9943 H   0  0  0  0  0  0  0  0  0  0  0  0
    4.7724    1.3076   19.0844 C   0  0  0  0  0  0  0  0  0  0  0  0
    3.8570    1.8694   19.2241 H   0  0  0  0  0  0  0  0  0  0  0  0
    5.3727    0.6194   20.1393 C   0  0  0  0  0  0  0  0  0  0  0  0
    4.9300    0.5791   21.1353 H   0  0  0  0  0  0  0  0  0  0  0  0
    8.8191   -0.5896   21.2060 C   0  0  0  0  0  0  0  0  0  0  0  0
    9.5522    0.1311   20.5374 O   0  0  0  0  0  0  0  0  0  0  0  0
    9.3371   -1.3997   22.2997 C   0  0  0  0  0  0  0  0  0  0  0  0
   10.3972   -1.3512   22.4937 H   0  0  0  0  0  0  0  0  0  0  0  0
    8.4991   -2.1461   23.0360 C   0  0  0  0  0  0  0  0  0  0  0  0
    8.8509   -2.7608   23.8622 H   0  0  0  0  0  0  0  0  0  0  0  0
    6.4382   -3.1287   24.9513 C   0  0  0  0  0  0  0  0  0  0  0  0
    7.2373   -2.5872   25.4568 H   0  0  0  0  0  0  0  0  0  0  0  0
  1  2  1  0
  2  3  1  0
  3  4  2  0
  3  5  1  0
  5  6  2  0
  6  7  1  0
  6  8  1  0
  8  9  1  0
  8 10  2  0
 10 11  1  0
 10 12  1  0
 12 13  1  0
 13 14  1  0
 14 15  2  0
 15 16  1  0
 16 17  2  0
 17 18  1  0
 17 19  1  0
 19 20  2  0
 20 21  1  0
 20 22  1  0
 22 23  1  0
 22 24  2  0
 24 25  1  0
 15 26  1  0
 26 27  2  0
 26 28  1  0
 28 29  1  0
 28 30  2  0
 30 31  1  0
 12 32  2  0
 32 33  1  0
 32  5  1  0
 30 13  1  0
 24 16  1  0
M  END
>  <cnnaffinity>  (1) 
-5.20033

>  <filename>  (1) 
O=C(O)c1cccc(-n2ccc(=O)c(-c3cccnc3)n2)c1

$$$$
