
     RDKit          3D

 29 30  0  0  0  0  0  0  0  0999 V2000
    9.7405    3.6066   25.1817 H   0  0  0  0  0  0  0  0  0  0  0  0
   10.1738    3.2921   24.2381 C   0  0  0  0  0  0  0  0  0  0  0  0
    9.5455    2.3056   23.6156 N   0  0  0  0  0  0  0  0  0  0  0  0
   10.0700    1.9520   22.4628 C   0  0  0  0  0  0  0  0  0  0  0  0
    9.5356    0.9108   21.7625 N   0  0  0  0  0  0  0  0  0  0  0  0
   10.0986    0.7870   20.9439 H   0  0  0  0  0  0  0  0  0  0  0  0
    8.2291    0.4936   21.8446 C   0  0  0  0  0  0  0  0  0  0  0  0
    7.4438    0.8954   22.6676 O   0  0  0  0  0  0  0  0  0  0  0  0
    7.7472   -0.5480   20.7304 C   0  0  0  0  0  0  0  0  0  0  0  0
    7.0723   -1.5503   21.3575 F   0  0  0  0  0  0  0  0  0  0  0  0
    8.8390   -1.1380   20.1385 F   0  0  0  0  0  0  0  0  0  0  0  0
    6.8475    0.0533   19.6670 C   0  0  0  0  0  0  0  0  0  0  0  0
    7.1903   -0.0310   18.3098 C   0  0  0  0  0  0  0  0  0  0  0  0
    8.0675   -0.5974   18.0060 H   0  0  0  0  0  0  0  0  0  0  0  0
    6.4973    0.5607   17.3350 N   0  0  0  0  0  0  0  0  0  0  0  0
    5.4040    1.2519   17.6869 C   0  0  0  0  0  0  0  0  0  0  0  0
    4.8798    1.7538   16.8758 H   0  0  0  0  0  0  0  0  0  0  0  0
    4.9436    1.3487   19.0039 C   0  0  0  0  0  0  0  0  0  0  0  0
    4.0461    1.9212   19.2099 H   0  0  0  0  0  0  0  0  0  0  0  0
    5.6687    0.7280   20.0206 C   0  0  0  0  0  0  0  0  0  0  0  0
    5.3326    0.7717   21.0578 H   0  0  0  0  0  0  0  0  0  0  0  0
   11.1217    2.4676   21.8442 N   0  0  0  0  0  0  0  0  0  0  0  0
   11.7319    3.4870   22.4746 C   0  0  0  0  0  0  0  0  0  0  0  0
   12.9617    4.1788   21.8224 C   0  0  0  0  0  0  0  0  0  0  0  0
   12.9713    5.5080   22.0779 F   0  0  0  0  0  0  0  0  0  0  0  0
   12.9943    4.0349   20.5004 F   0  0  0  0  0  0  0  0  0  0  0  0
   14.1149    3.7061   22.3281 F   0  0  0  0  0  0  0  0  0  0  0  0
   11.2932    3.9379   23.7193 C   0  0  0  0  0  0  0  0  0  0  0  0
   11.7391    4.7859   24.2148 H   0  0  0  0  0  0  0  0  0  0  0  0
  1  2  1  0
  2  3  2  0
  3  4  1  0
  4  5  1  0
  5  6  1  0
  5  7  1  0
  7  8  2  0
  7  9  1  0
  9 10  1  0
  9 11  1  0
  9 12  1  0
 12 13  2  0
 13 14  1  0
 13 15  1  0
 15 16  2  0
 16 17  1  0
 16 18  1  0
 18 19  1  0
 18 20  2  0
 20 21  1  0
  4 22  2  0
 22 23  1  0
 23 24  1  0
 24 25  1  0
 24 26  1  0
 24 27  1  0
 23 28  2  0
 28 29  1  0
 28  2  1  0
 20 12  1  0
M  END
>  <cnnaffinity>  (1) 
-4.67002

>  <filename>  (1) 
O=C(Nc1nccc(C(F)(F)F)n1)C(F)(F)c1cccnc1

$$$$
