
     RDKit          3D

 37 39  0  0  0  0  0  0  0  0999 V2000
    4.9353    1.8192   16.9684 H   0  0  0  0  0  0  0  0  0  0  0  0
    5.3860    1.3072   17.8181 C   0  0  0  0  0  0  0  0  0  0  0  0
    6.5502    0.6807   17.5833 N   0  0  0  0  0  0  0  0  0  0  0  0
    7.1439    0.0704   18.6168 C   0  0  0  0  0  0  0  0  0  0  0  0
    8.0985   -0.4070   18.3832 H   0  0  0  0  0  0  0  0  0  0  0  0
    6.6108    0.0190   19.9207 C   0  0  0  0  0  0  0  0  0  0  0  0
    7.3730   -0.6522   21.0498 C   0  0  0  0  0  0  0  0  0  0  0  0
    6.7372   -0.8138   21.9291 H   0  0  0  0  0  0  0  0  0  0  0  0
    7.7077   -1.6527   20.7425 H   0  0  0  0  0  0  0  0  0  0  0  0
    8.5943    0.0630   21.4246 N   0  0  0  0  0  0  0  0  0  0  0  0
    8.7966    1.2456   22.0979 C   0  0  0  0  0  0  0  0  0  0  0  0
    7.7998    1.9048   22.7909 N   0  0  0  0  0  0  0  0  0  0  0  0
    6.8566    1.6211   22.6313 H   0  0  0  0  0  0  0  0  0  0  0  0
    8.0149    3.1819   23.2831 C   0  0  0  0  0  0  0  0  0  0  0  0
    9.0765    3.7491   23.2859 O   0  0  0  0  0  0  0  0  0  0  0  0
    6.8565    3.7240   23.7894 N   0  0  0  0  0  0  0  0  0  0  0  0
    6.1456    3.0591   24.0162 H   0  0  0  0  0  0  0  0  0  0  0  0
    6.7700    5.0354   24.3235 C   0  0  0  0  0  0  0  0  0  0  0  0
    7.4569    6.0780   23.6795 C   0  0  0  0  0  0  0  0  0  0  0  0
    8.0577    5.8360   22.8134 H   0  0  0  0  0  0  0  0  0  0  0  0
    7.3801    7.3811   24.1682 C   0  0  0  0  0  0  0  0  0  0  0  0
    7.9157    8.1769   23.6521 H   0  0  0  0  0  0  0  0  0  0  0  0
    6.6292    7.6547   25.3171 C   0  0  0  0  0  0  0  0  0  0  0  0
    6.5814    8.6702   25.7008 H   0  0  0  0  0  0  0  0  0  0  0  0
    5.9478    6.6183   25.9673 C   0  0  0  0  0  0  0  0  0  0  0  0
    5.3651    6.8327   26.8624 H   0  0  0  0  0  0  0  0  0  0  0  0
    6.0099    5.3083   25.4680 C   0  0  0  0  0  0  0  0  0  0  0  0
    5.4850    4.5074   25.9800 H   0  0  0  0  0  0  0  0  0  0  0  0
   10.0376    1.6216   22.0709 N   0  0  0  0  0  0  0  0  0  0  0  0
   10.7051    0.6636   21.3639 C   0  0  0  0  0  0  0  0  0  0  0  0
   11.7752    0.7431   21.2054 H   0  0  0  0  0  0  0  0  0  0  0  0
    9.8421   -0.3011   20.9413 C   0  0  0  0  0  0  0  0  0  0  0  0
    9.9735   -1.2011   20.3567 H   0  0  0  0  0  0  0  0  0  0  0  0
    5.3909    0.6699   20.1317 C   0  0  0  0  0  0  0  0  0  0  0  0
    4.9254    0.6641   21.1185 H   0  0  0  0  0  0  0  0  0  0  0  0
    4.7645    1.3277   19.0686 C   0  0  0  0  0  0  0  0  0  0  0  0
    3.8324    1.8688   19.2026 H   0  0  0  0  0  0  0  0  0  0  0  0
  1  2  1  0
  2  3  2  0
  3  4  1  0
  4  5  1  0
  4  6  2  0
  6  7  1  0
  7  8  1  0
  7  9  1  0
  7 10  1  0
 10 11  1  0
 11 12  1  0
 12 13  1  0
 12 14  1  0
 14 15  2  0
 14 16  1  0
 16 17  1  0
 16 18  1  0
 18 19  2  0
 19 20  1  0
 19 21  1  0
 21 22  1  0
 21 23  2  0
 23 24  1  0
 23 25  1  0
 25 26  1  0
 25 27  2  0
 27 28  1  0
 11 29  2  0
 29 30  1  0
 30 31  1  0
 30 32  2  0
 32 33  1  0
  6 34  1  0
 34 35  1  0
 34 36  2  0
 36 37  1  0
 36  2  1  0
 32 10  1  0
 27 18  1  0
M  END
>  <cnnaffinity>  (1) 
-5.08086

>  <filename>  (1) 
O=C(Nc1ccccc1)Nc1nccn1Cc1cccnc1

$$$$
