
     RDKit          3D

 41 43  0  0  0  0  0  0  0  0999 V2000
    5.0059    1.8238   16.9606 H   0  0  0  0  0  0  0  0  0  0  0  0
    5.4433    1.3017   17.8081 C   0  0  0  0  0  0  0  0  0  0  0  0
    6.5877    0.6428   17.5684 N   0  0  0  0  0  0  0  0  0  0  0  0
    7.1560    0.0068   18.6009 C   0  0  0  0  0  0  0  0  0  0  0  0
    8.0742   -0.5383   18.3772 H   0  0  0  0  0  0  0  0  0  0  0  0
    6.6359   -0.0185   19.9139 C   0  0  0  0  0  0  0  0  0  0  0  0
    7.3739   -0.7098   21.0134 C   0  0  0  0  0  0  0  0  0  0  0  0
    8.7976   -0.5947   21.1182 C   0  0  0  0  0  0  0  0  0  0  0  0
    9.3191    0.0828   20.4425 H   0  0  0  0  0  0  0  0  0  0  0  0
    9.4963   -1.3065   22.0467 C   0  0  0  0  0  0  0  0  0  0  0  0
   10.5713   -1.2727   22.1506 H   0  0  0  0  0  0  0  0  0  0  0  0
    8.8606   -2.2567   22.9478 C   0  0  0  0  0  0  0  0  0  0  0  0
    9.4852   -3.0233   23.6525 O   0  0  0  0  0  0  0  0  0  0  0  0
    7.4153   -2.2107   22.9065 N   0  0  0  0  0  0  0  0  0  0  0  0
    6.6289   -2.9550   23.7930 N   0  0  0  0  0  0  0  0  0  0  0  0
    6.5309   -3.9288   23.5526 H   0  0  0  0  0  0  0  0  0  0  0  0
    6.5308   -2.6450   25.1496 C   0  0  0  0  0  0  0  0  0  0  0  0
    6.9387   -1.6060   25.6190 O   0  0  0  0  0  0  0  0  0  0  0  0
    5.8165   -3.7266   25.9708 C   0  0  0  0  0  0  0  0  0  0  0  0
    5.5238   -4.5502   25.3076 H   0  0  0  0  0  0  0  0  0  0  0  0
    6.7579   -4.3196   27.0499 C   0  0  0  0  0  0  0  0  0  0  0  0
    7.5852   -4.8607   26.5671 H   0  0  0  0  0  0  0  0  0  0  0  0
    7.2136   -3.4979   27.6174 H   0  0  0  0  0  0  0  0  0  0  0  0
    6.0168   -5.2640   28.0084 C   0  0  0  0  0  0  0  0  0  0  0  0
    5.7357   -6.1917   27.4877 H   0  0  0  0  0  0  0  0  0  0  0  0
    6.6966   -5.5659   28.8134 H   0  0  0  0  0  0  0  0  0  0  0  0
    4.7537   -4.6168   28.5960 C   0  0  0  0  0  0  0  0  0  0  0  0
    5.0445   -3.7650   29.2278 H   0  0  0  0  0  0  0  0  0  0  0  0
    4.2371   -5.3192   29.2599 H   0  0  0  0  0  0  0  0  0  0  0  0
    3.8070   -4.1151   27.4972 C   0  0  0  0  0  0  0  0  0  0  0  0
    3.4264   -4.9709   26.9200 H   0  0  0  0  0  0  0  0  0  0  0  0
    2.9297   -3.6290   27.9394 H   0  0  0  0  0  0  0  0  0  0  0  0
    4.5203   -3.1283   26.5684 C   0  0  0  0  0  0  0  0  0  0  0  0
    3.8510   -2.8112   25.7569 H   0  0  0  0  0  0  0  0  0  0  0  0
    4.7830   -2.2199   27.1274 H   0  0  0  0  0  0  0  0  0  0  0  0
    6.7333   -1.4848   21.9448 C   0  0  0  0  0  0  0  0  0  0  0  0
    5.6574   -1.6083   21.9727 H   0  0  0  0  0  0  0  0  0  0  0  0
    5.4146    0.6446   20.1207 C   0  0  0  0  0  0  0  0  0  0  0  0
    4.9647    0.6503   21.1119 H   0  0  0  0  0  0  0  0  0  0  0  0
    4.8138    1.3215   19.0558 C   0  0  0  0  0  0  0  0  0  0  0  0
    3.8844    1.8645   19.1818 H   0  0  0  0  0  0  0  0  0  0  0  0
  1  2  1  0
  2  3  2  0
  3  4  1  0
  4  5  1  0
  4  6  2  0
  6  7  1  0
  7  8  1  0
  8  9  1  0
  8 10  2  0
 10 11  1  0
 10 12  1  0
 12 13  2  0
 12 14  1  0
 14 15  1  0
 15 16  1  0
 15 17  1  0
 17 18  2  0
 17 19  1  0
 19 20  1  0
 19 21  1  0
 21 22  1  0
 21 23  1  0
 21 24  1  0
 24 25  1  0
 24 26  1  0
 24 27  1  0
 27 28  1  0
 27 29  1  0
 27 30  1  0
 30 31  1  0
 30 32  1  0
 30 33  1  0
 33 34  1  0
 33 35  1  0
 14 36  1  0
 36 37  1  0
  6 38  1  0
 38 39  1  0
 38 40  2  0
 40 41  1  0
 40  2  1  0
 36  7  2  0
 33 19  1  0
M  END
>  <cnnaffinity>  (1) 
-5.21617

>  <filename>  (1) 
O=C(Nn1cc(-c2cccnc2)ccc1=O)C1CCCCC1

$$$$
