
     RDKit          3D

 36 39  0  0  0  0  0  0  0  0999 V2000
    5.0775    1.7770   16.9219 H   0  0  0  0  0  0  0  0  0  0  0  0
    5.4841    1.2693   17.7939 C   0  0  0  0  0  0  0  0  0  0  0  0
    6.6350    0.6066   17.6081 N   0  0  0  0  0  0  0  0  0  0  0  0
    7.1620   -0.0158   18.6660 C   0  0  0  0  0  0  0  0  0  0  0  0
    8.0964   -0.5450   18.4962 H   0  0  0  0  0  0  0  0  0  0  0  0
    6.5892   -0.0033   19.9466 C   0  0  0  0  0  0  0  0  0  0  0  0
    7.3724   -0.7035   21.0124 C   0  0  0  0  0  0  0  0  0  0  0  0
    8.2424   -1.5116   20.7297 O   0  0  0  0  0  0  0  0  0  0  0  0
    7.0974   -0.3725   22.3196 N   0  0  0  0  0  0  0  0  0  0  0  0
    7.9887   -0.7262   23.4362 C   0  0  0  0  0  0  0  0  0  0  0  0
    7.7056   -1.6378   23.9702 H   0  0  0  0  0  0  0  0  0  0  0  0
    9.0262   -0.8355   23.1045 H   0  0  0  0  0  0  0  0  0  0  0  0
    7.6487    0.6231   24.1143 C   0  0  0  0  0  0  0  0  0  0  0  0
    6.9588    0.4863   24.9557 H   0  0  0  0  0  0  0  0  0  0  0  0
    8.7815    1.5373   24.4680 C   0  0  0  0  0  0  0  0  0  0  0  0
   10.0951    1.2244   24.6644 C   0  0  0  0  0  0  0  0  0  0  0  0
   10.5558    0.2468   24.7612 H   0  0  0  0  0  0  0  0  0  0  0  0
   10.8433    2.3725   24.7704 N   0  0  0  0  0  0  0  0  0  0  0  0
   11.8197    2.4030   25.0082 H   0  0  0  0  0  0  0  0  0  0  0  0
   10.0096    3.4638   24.7220 C   0  0  0  0  0  0  0  0  0  0  0  0
   10.3120    4.8378   24.8023 C   0  0  0  0  0  0  0  0  0  0  0  0
   11.3417    5.1914   24.8423 H   0  0  0  0  0  0  0  0  0  0  0  0
    9.2421    5.7245   24.8045 C   0  0  0  0  0  0  0  0  0  0  0  0
    9.4412    6.7915   24.8644 H   0  0  0  0  0  0  0  0  0  0  0  0
    7.9026    5.2642   24.7284 C   0  0  0  0  0  0  0  0  0  0  0  0
    7.0865    5.9783   24.8179 H   0  0  0  0  0  0  0  0  0  0  0  0
    7.6223    3.9094   24.5839 C   0  0  0  0  0  0  0  0  0  0  0  0
    6.5926    3.5722   24.4799 H   0  0  0  0  0  0  0  0  0  0  0  0
    8.6878    2.9782   24.5758 C   0  0  0  0  0  0  0  0  0  0  0  0
    6.8362    0.9799   22.8444 C   0  0  0  0  0  0  0  0  0  0  0  0
    5.7755    1.1933   23.0193 H   0  0  0  0  0  0  0  0  0  0  0  0
    7.2753    1.7773   22.2302 H   0  0  0  0  0  0  0  0  0  0  0  0
    5.3684    0.6678   20.1202 C   0  0  0  0  0  0  0  0  0  0  0  0
    4.8559    0.6978   21.0846 H   0  0  0  0  0  0  0  0  0  0  0  0
    4.8151    1.3218   19.0220 C   0  0  0  0  0  0  0  0  0  0  0  0
    3.8897    1.8803   19.1075 H   0  0  0  0  0  0  0  0  0  0  0  0
  1  2  1  0
  2  3  2  0
  3  4  1  0
  4  5  1  0
  4  6  2  0
  6  7  1  0
  7  8  2  0
  7  9  1  0
  9 10  1  0
 10 11  1  0
 10 12  1  0
 10 13  1  0
 13 14  1  0
 13 15  1  0
 15 16  2  0
 16 17  1  0
 16 18  1  0
 18 19  1  0
 18 20  1  0
 20 21  2  0
 21 22  1  0
 21 23  1  0
 23 24  1  0
 23 25  2  0
 25 26  1  0
 25 27  1  0
 27 28  1  0
 27 29  2  0
 13 30  1  0
 30 31  1  0
 30 32  1  0
  6 33  1  0
 33 34  1  0
 33 35  2  0
 35 36  1  0
 35  2  1  0
 30  9  1  0
 29 15  1  0
 29 20  1  0
M  END
>  <cnnaffinity>  (1) 
-5.08802

>  <filename>  (1) 
O=C(c1cccnc1)N1CC(c2c[nH]c3ccccc23)C1

$$$$
