
     RDKit          3D

 30 32  0  0  0  0  0  0  0  0999 V2000
    4.9171    1.7960   16.9830 H   0  0  0  0  0  0  0  0  0  0  0  0
    5.3896    1.3010   17.8295 C   0  0  0  0  0  0  0  0  0  0  0  0
    6.5475    0.6740   17.5695 N   0  0  0  0  0  0  0  0  0  0  0  0
    7.1579    0.0495   18.5820 C   0  0  0  0  0  0  0  0  0  0  0  0
    8.1155   -0.4170   18.3694 H   0  0  0  0  0  0  0  0  0  0  0  0
    6.6361   -0.0103   19.8878 C   0  0  0  0  0  0  0  0  0  0  0  0
    7.3392   -0.6928   20.9464 N   0  0  0  0  0  0  0  0  0  0  0  0
    6.7220   -1.7417   21.5895 C   0  0  0  0  0  0  0  0  0  0  0  0
    5.7216   -1.9746   21.2253 H   0  0  0  0  0  0  0  0  0  0  0  0
    7.3344   -2.4463   22.5923 C   0  0  0  0  0  0  0  0  0  0  0  0
    6.6026   -3.6065   23.2202 C   0  0  0  0  0  0  0  0  0  0  0  0
    5.8819   -4.3370   22.5631 O   0  0  0  0  0  0  0  0  0  0  0  0
    6.7853   -3.8348   24.6752 C   0  0  0  0  0  0  0  0  0  0  0  0
    6.3537   -5.3659   25.3503 S   0  0  0  0  0  0  0  0  0  0  0  0
    6.7558   -4.8367   26.9293 C   0  0  0  0  0  0  0  0  0  0  0  0
    6.6430   -5.5033   27.7744 H   0  0  0  0  0  0  0  0  0  0  0  0
    7.1940   -3.5448   26.9370 C   0  0  0  0  0  0  0  0  0  0  0  0
    7.5318   -2.9914   27.7962 H   0  0  0  0  0  0  0  0  0  0  0  0
    7.2049   -2.9620   25.6501 C   0  0  0  0  0  0  0  0  0  0  0  0
    7.4894   -1.9250   25.4825 H   0  0  0  0  0  0  0  0  0  0  0  0
    8.6720   -2.0869   22.9628 C   0  0  0  0  0  0  0  0  0  0  0  0
    9.1982   -2.6464   23.7424 H   0  0  0  0  0  0  0  0  0  0  0  0
    9.2961   -1.0491   22.3426 C   0  0  0  0  0  0  0  0  0  0  0  0
   10.2975   -0.7205   22.5780 H   0  0  0  0  0  0  0  0  0  0  0  0
    8.6702   -0.2693   21.2934 C   0  0  0  0  0  0  0  0  0  0  0  0
    9.2194    0.6634   20.7237 O   0  0  0  0  0  0  0  0  0  0  0  0
    5.4270    0.6392   20.1491 C   0  0  0  0  0  0  0  0  0  0  0  0
    5.0295    0.6224   21.1665 H   0  0  0  0  0  0  0  0  0  0  0  0
    4.7989    1.3192   19.0989 C   0  0  0  0  0  0  0  0  0  0  0  0
    3.8687    1.8518   19.2509 H   0  0  0  0  0  0  0  0  0  0  0  0
  1  2  1  0
  2  3  2  0
  3  4  1  0
  4  5  1  0
  4  6  2  0
  6  7  1  0
  7  8  1  0
  8  9  1  0
  8 10  2  0
 10 11  1  0
 11 12  2  0
 11 13  1  0
 13 14  1  0
 14 15  1  0
 15 16  1  0
 15 17  2  0
 17 18  1  0
 17 19  1  0
 19 20  1  0
 10 21  1  0
 21 22  1  0
 21 23  2  0
 23 24  1  0
 23 25  1  0
 25 26  2  0
  6 27  1  0
 27 28  1  0
 27 29  2  0
 29 30  1  0
 29  2  1  0
 25  7  1  0
 19 13  2  0
M  END
>  <cnnaffinity>  (1) 
-5.36167

>  <filename>  (1) 
O=C(c1ccc(=O)n(-c2cccnc2)c1)c1cccs1

$$$$
