
     RDKit          3D

 26 28  0  0  0  0  0  0  0  0999 V2000
    4.9629    1.7890   17.0448 H   0  0  0  0  0  0  0  0  0  0  0  0
    5.4215    1.2556   17.8770 C   0  0  0  0  0  0  0  0  0  0  0  0
    6.5798    0.6364   17.5924 N   0  0  0  0  0  0  0  0  0  0  0  0
    7.1779   -0.0155   18.5942 C   0  0  0  0  0  0  0  0  0  0  0  0
    8.1370   -0.4853   18.3757 H   0  0  0  0  0  0  0  0  0  0  0  0
    6.6667   -0.1211   19.8979 C   0  0  0  0  0  0  0  0  0  0  0  0
    7.4623   -0.7951   20.9414 C   0  0  0  0  0  0  0  0  0  0  0  0
    8.7690   -0.3525   21.3227 C   0  0  0  0  0  0  0  0  0  0  0  0
    9.3325    0.3859   20.7558 H   0  0  0  0  0  0  0  0  0  0  0  0
    9.2624   -0.8590   22.4089 N   0  0  0  0  0  0  0  0  0  0  0  0
    8.1972   -1.9382   23.0854 S   0  0  0  0  0  0  0  0  0  0  0  0
    7.0535   -1.7918   21.7982 C   0  0  0  0  0  0  0  0  0  0  0  0
    5.8944   -2.7010   21.6130 C   0  0  0  0  0  0  0  0  0  0  0  0
    5.4930   -2.9806   20.4905 O   0  0  0  0  0  0  0  0  0  0  0  0
    5.2327   -3.2871   22.8058 C   0  0  0  0  0  0  0  0  0  0  0  0
    5.6881   -2.9845   24.0632 O   0  0  0  0  0  0  0  0  0  0  0  0
    4.8184   -3.5420   24.9380 C   0  0  0  0  0  0  0  0  0  0  0  0
    5.0248   -3.3513   25.9817 H   0  0  0  0  0  0  0  0  0  0  0  0
    3.8492   -4.2300   24.2827 C   0  0  0  0  0  0  0  0  0  0  0  0
    3.0190   -4.7506   24.7353 H   0  0  0  0  0  0  0  0  0  0  0  0
    4.1204   -4.0725   22.8924 C   0  0  0  0  0  0  0  0  0  0  0  0
    3.5459   -4.4306   22.0487 H   0  0  0  0  0  0  0  0  0  0  0  0
    5.4597    0.5374   20.1776 C   0  0  0  0  0  0  0  0  0  0  0  0
    5.0676    0.5162   21.1966 H   0  0  0  0  0  0  0  0  0  0  0  0
    4.8256    1.2400   19.1448 C   0  0  0  0  0  0  0  0  0  0  0  0
    3.9009    1.7869   19.3063 H   0  0  0  0  0  0  0  0  0  0  0  0
  1  2  1  0
  2  3  2  0
  3  4  1  0
  4  5  1  0
  4  6  2  0
  6  7  1  0
  7  8  1  0
  8  9  1  0
  8 10  2  0
 10 11  1  0
 11 12  1  0
 12 13  1  0
 13 14  2  0
 13 15  1  0
 15 16  1  0
 16 17  1  0
 17 18  1  0
 17 19  2  0
 19 20  1  0
 19 21  1  0
 21 22  1  0
  6 23  1  0
 23 24  1  0
 23 25  2  0
 25 26  1  0
 25  2  1  0
 12  7  2  0
 21 15  2  0
M  END
>  <cnnaffinity>  (1) 
-4.7155

>  <filename>  (1) 
O=C(c1ccco1)c1sncc1-c1cccnc1

$$$$
