
     RDKit          3D

 35 38  0  0  0  0  0  0  0  0999 V2000
    4.9442    1.8078   16.9729 H   0  0  0  0  0  0  0  0  0  0  0  0
    5.3983    1.2963   17.8202 C   0  0  0  0  0  0  0  0  0  0  0  0
    6.5557    0.6649   17.5679 N   0  0  0  0  0  0  0  0  0  0  0  0
    7.1537    0.0346   18.5828 C   0  0  0  0  0  0  0  0  0  0  0  0
    8.1049   -0.4410   18.3525 H   0  0  0  0  0  0  0  0  0  0  0  0
    6.6404    0.0023   19.8906 C   0  0  0  0  0  0  0  0  0  0  0  0
    7.3966   -0.6500   20.9565 C   0  0  0  0  0  0  0  0  0  0  0  0
    8.1911   -1.7550   20.7285 N   0  0  0  0  0  0  0  0  0  0  0  0
    8.6517   -2.0477   21.9104 C   0  0  0  0  0  0  0  0  0  0  0  0
    9.8049   -3.1751   22.5508 S   0  0  0  0  0  0  0  0  0  0  0  0
    9.7078   -2.4444   24.1288 C   0  0  0  0  0  0  0  0  0  0  0  0
   10.3389   -2.8633   24.9013 H   0  0  0  0  0  0  0  0  0  0  0  0
    8.8288   -1.4286   24.1652 C   0  0  0  0  0  0  0  0  0  0  0  0
    8.5195   -0.8033   24.9967 H   0  0  0  0  0  0  0  0  0  0  0  0
    8.2323   -1.2109   22.9178 N   0  0  0  0  0  0  0  0  0  0  0  0
    7.4273   -0.2757   22.3018 C   0  0  0  0  0  0  0  0  0  0  0  0
    6.8788    0.7912   23.0178 N   0  0  0  0  0  0  0  0  0  0  0  0
    6.8798    1.7083   22.6060 H   0  0  0  0  0  0  0  0  0  0  0  0
    6.2504    0.7172   24.2455 C   0  0  0  0  0  0  0  0  0  0  0  0
    6.1467   -0.3240   24.8696 O   0  0  0  0  0  0  0  0  0  0  0  0
    5.7411    2.0425   24.7724 C   0  0  0  0  0  0  0  0  0  0  0  0
    5.6482    2.1676   26.1716 C   0  0  0  0  0  0  0  0  0  0  0  0
    5.9419    1.3181   26.7835 H   0  0  0  0  0  0  0  0  0  0  0  0
    5.1595    3.3310   26.7675 C   0  0  0  0  0  0  0  0  0  0  0  0
    5.0908    3.3858   27.8516 H   0  0  0  0  0  0  0  0  0  0  0  0
    4.7367    4.4018   25.9742 C   0  0  0  0  0  0  0  0  0  0  0  0
    4.3515    5.3054   26.4435 H   0  0  0  0  0  0  0  0  0  0  0  0
    4.8112    4.2965   24.5798 C   0  0  0  0  0  0  0  0  0  0  0  0
    4.4824    5.1272   23.9566 H   0  0  0  0  0  0  0  0  0  0  0  0
    5.3124    3.1332   23.9820 C   0  0  0  0  0  0  0  0  0  0  0  0
    5.3210    3.1023   22.8917 H   0  0  0  0  0  0  0  0  0  0  0  0
    5.4148    0.6480   20.1331 C   0  0  0  0  0  0  0  0  0  0  0  0
    4.9754    0.6266   21.1332 H   0  0  0  0  0  0  0  0  0  0  0  0
    4.7907    1.3108   19.0810 C   0  0  0  0  0  0  0  0  0  0  0  0
    3.8598    1.8478   19.2218 H   0  0  0  0  0  0  0  0  0  0  0  0
  1  2  1  0
  2  3  2  0
  3  4  1  0
  4  5  1  0
  4  6  2  0
  6  7  1  0
  7  8  1  0
  8  9  2  0
  9 10  1  0
 10 11  1  0
 11 12  1  0
 11 13  2  0
 13 14  1  0
 13 15  1  0
 15 16  1  0
 16 17  1  0
 17 18  1  0
 17 19  1  0
 19 20  2  0
 19 21  1  0
 21 22  2  0
 22 23  1  0
 22 24  1  0
 24 25  1  0
 24 26  2  0
 26 27  1  0
 26 28  1  0
 28 29  1  0
 28 30  2  0
 30 31  1  0
  6 32  1  0
 32 33  1  0
 32 34  2  0
 34 35  1  0
 34  2  1  0
 16  7  2  0
 30 21  1  0
 15  9  1  0
M  END
>  <cnnaffinity>  (1) 
-5.40679

>  <filename>  (1) 
O=C(Nc1c(-c2cccnc2)nc2sccn12)c1ccccc1

$$$$
