
     RDKit          3D

 38 41  0  0  0  0  0  0  0  0999 V2000
    4.9677    1.8308   16.9698 H   0  0  0  0  0  0  0  0  0  0  0  0
    5.4147    1.3097   17.8147 C   0  0  0  0  0  0  0  0  0  0  0  0
    6.5558    0.6440   17.5753 N   0  0  0  0  0  0  0  0  0  0  0  0
    7.1368    0.0193   18.6040 C   0  0  0  0  0  0  0  0  0  0  0  0
    8.0686   -0.5011   18.3827 H   0  0  0  0  0  0  0  0  0  0  0  0
    6.6215    0.0204   19.9113 C   0  0  0  0  0  0  0  0  0  0  0  0
    7.3439   -0.6676   20.9827 C   0  0  0  0  0  0  0  0  0  0  0  0
    7.9484   -1.8944   20.7929 N   0  0  0  0  0  0  0  0  0  0  0  0
    8.3463   -2.2344   21.9889 C   0  0  0  0  0  0  0  0  0  0  0  0
    9.1508   -3.6083   22.7000 S   0  0  0  0  0  0  0  0  0  0  0  0
    9.1809   -2.8071   24.2597 C   0  0  0  0  0  0  0  0  0  0  0  0
    9.6879   -3.2795   25.0927 H   0  0  0  0  0  0  0  0  0  0  0  0
    8.5713   -1.6124   24.2332 C   0  0  0  0  0  0  0  0  0  0  0  0
    8.4449   -0.9243   25.0625 H   0  0  0  0  0  0  0  0  0  0  0  0
    8.0811   -1.2987   22.9632 N   0  0  0  0  0  0  0  0  0  0  0  0
    7.4682   -0.2529   22.3127 C   0  0  0  0  0  0  0  0  0  0  0  0
    7.1830    0.9440   22.9615 N   0  0  0  0  0  0  0  0  0  0  0  0
    6.6151    0.9216   23.7938 H   0  0  0  0  0  0  0  0  0  0  0  0
    7.3015    2.1826   22.3510 C   0  0  0  0  0  0  0  0  0  0  0  0
    7.9618    2.3589   21.3497 O   0  0  0  0  0  0  0  0  0  0  0  0
    6.5602    3.2904   23.0759 C   0  0  0  0  0  0  0  0  0  0  0  0
    6.6350    3.1027   24.1497 H   0  0  0  0  0  0  0  0  0  0  0  0
    7.1102    4.2099   22.8567 H   0  0  0  0  0  0  0  0  0  0  0  0
    5.1145    3.4613   22.6252 C   0  0  0  0  0  0  0  0  0  0  0  0
    4.0381    2.6963   23.1146 C   0  0  0  0  0  0  0  0  0  0  0  0
    4.1770    1.9840   23.9285 H   0  0  0  0  0  0  0  0  0  0  0  0
    2.7522    2.8790   22.5887 C   0  0  0  0  0  0  0  0  0  0  0  0
    1.9139    2.3054   22.9689 H   0  0  0  0  0  0  0  0  0  0  0  0
    2.5204    3.8212   21.5883 C   0  0  0  0  0  0  0  0  0  0  0  0
    1.5204    3.9244   21.1822 H   0  0  0  0  0  0  0  0  0  0  0  0
    3.5646    4.6304   21.1425 C   0  0  0  0  0  0  0  0  0  0  0  0
    3.3728    5.4222   20.4192 H   0  0  0  0  0  0  0  0  0  0  0  0
    4.8540    4.4360   21.6481 C   0  0  0  0  0  0  0  0  0  0  0  0
    5.6709    5.0699   21.2944 H   0  0  0  0  0  0  0  0  0  0  0  0
    5.4090    0.6987   20.1343 C   0  0  0  0  0  0  0  0  0  0  0  0
    4.9520    0.7257   21.1262 H   0  0  0  0  0  0  0  0  0  0  0  0
    4.8030    1.3544   19.0709 C   0  0  0  0  0  0  0  0  0  0  0  0
    3.8863    1.9159   19.2111 H   0  0  0  0  0  0  0  0  0  0  0  0
  1  2  1  0
  2  3  2  0
  3  4  1  0
  4  5  1  0
  4  6  2  0
  6  7  1  0
  7  8  1  0
  8  9  2  0
  9 10  1  0
 10 11  1  0
 11 12  1  0
 11 13  2  0
 13 14  1  0
 13 15  1  0
 15 16  1  0
 16 17  1  0
 17 18  1  0
 17 19  1  0
 19 20  2  0
 19 21  1  0
 21 22  1  0
 21 23  1  0
 21 24  1  0
 24 25  2  0
 25 26  1  0
 25 27  1  0
 27 28  1  0
 27 29  2  0
 29 30  1  0
 29 31  1  0
 31 32  1  0
 31 33  2  0
 33 34  1  0
  6 35  1  0
 35 36  1  0
 35 37  2  0
 37 38  1  0
 37  2  1  0
 16  7  2  0
 33 24  1  0
 15  9  1  0
M  END
>  <cnnaffinity>  (1) 
-5.02053

>  <filename>  (1) 
O=C(Cc1ccccc1)Nc1c(-c2cccnc2)nc2sccn12

$$$$
