
     RDKit          3D

 36 37  0  0  0  0  0  0  0  0999 V2000
   10.8361   -2.7311   25.2694 H   0  0  0  0  0  0  0  0  0  0  0  0
   10.8410   -3.0331   24.3359 O   0  0  0  0  0  0  0  0  0  0  0  0
   10.5443   -4.4097   24.4161 N   0  0  0  0  0  0  0  0  0  0  0  0
   10.3367   -4.7398   23.4829 H   0  0  0  0  0  0  0  0  0  0  0  0
    9.6263   -4.8131   25.3689 C   0  0  0  0  0  0  0  0  0  0  0  0
    9.4700   -4.2042   26.4137 O   0  0  0  0  0  0  0  0  0  0  0  0
    8.7719   -5.9900   24.9481 C   0  0  0  0  0  0  0  0  0  0  0  0
    9.2767   -6.5848   24.1793 H   0  0  0  0  0  0  0  0  0  0  0  0
    8.6453   -6.6295   25.8274 H   0  0  0  0  0  0  0  0  0  0  0  0
    7.4014   -5.4730   24.4415 C   0  0  0  0  0  0  0  0  0  0  0  0
    6.7764   -6.3049   24.1122 H   0  0  0  0  0  0  0  0  0  0  0  0
    6.8715   -5.0053   25.2839 H   0  0  0  0  0  0  0  0  0  0  0  0
    7.4964   -4.4790   23.2788 C   0  0  0  0  0  0  0  0  0  0  0  0
    8.2945   -4.7863   22.5860 H   0  0  0  0  0  0  0  0  0  0  0  0
    6.5769   -4.4990   22.6831 H   0  0  0  0  0  0  0  0  0  0  0  0
    7.7091   -3.0176   23.7074 C   0  0  0  0  0  0  0  0  0  0  0  0
    6.8083   -2.7021   24.2595 H   0  0  0  0  0  0  0  0  0  0  0  0
    8.5406   -2.8919   24.4094 H   0  0  0  0  0  0  0  0  0  0  0  0
    7.9173   -2.1331   22.5236 C   0  0  0  0  0  0  0  0  0  0  0  0
    9.0285   -1.4972   22.0936 C   0  0  0  0  0  0  0  0  0  0  0  0
   10.0343   -1.5429   22.4875 H   0  0  0  0  0  0  0  0  0  0  0  0
    8.7887   -0.7589   20.9267 N   0  0  0  0  0  0  0  0  0  0  0  0
    9.1060    0.2109   20.9588 H   0  0  0  0  0  0  0  0  0  0  0  0
    7.4028   -0.8595   20.7242 N   0  0  0  0  0  0  0  0  0  0  0  0
    6.7609   -0.1291   19.6992 C   0  0  0  0  0  0  0  0  0  0  0  0
    7.3635    0.0568   18.4382 C   0  0  0  0  0  0  0  0  0  0  0  0
    8.3278   -0.4039   18.2347 H   0  0  0  0  0  0  0  0  0  0  0  0
    6.8007    0.7646   17.4530 N   0  0  0  0  0  0  0  0  0  0  0  0
    5.6141    1.3483   17.6989 C   0  0  0  0  0  0  0  0  0  0  0  0
    5.1911    1.9453   16.8922 H   0  0  0  0  0  0  0  0  0  0  0  0
    4.9329    1.2146   18.9147 C   0  0  0  0  0  0  0  0  0  0  0  0
    3.9773    1.7094   19.0552 H   0  0  0  0  0  0  0  0  0  0  0  0
    5.5032    0.4426   19.9309 C   0  0  0  0  0  0  0  0  0  0  0  0
    5.0098    0.2756   20.8875 H   0  0  0  0  0  0  0  0  0  0  0  0
    6.8314   -1.8036   21.5903 C   0  0  0  0  0  0  0  0  0  0  0  0
    5.6879   -2.2258   21.5240 O   0  0  0  0  0  0  0  0  0  0  0  0
  1  2  1  0
  2  3  1  0
  3  4  1  0
  3  5  1  0
  5  6  2  0
  5  7  1  0
  7  8  1  0
  7  9  1  0
  7 10  1  0
 10 11  1  0
 10 12  1  0
 10 13  1  0
 13 14  1  0
 13 15  1  0
 13 16  1  0
 16 17  1  0
 16 18  1  0
 16 19  1  0
 19 20  2  0
 20 21  1  0
 20 22  1  0
 22 23  1  0
 22 24  1  0
 24 25  1  0
 25 26  2  0
 26 27  1  0
 26 28  1  0
 28 29  2  0
 29 30  1  0
 29 31  1  0
 31 32  1  0
 31 33  2  0
 33 34  1  0
 24 35  1  0
 35 36  2  0
 35 19  1  0
 33 25  1  0
M  END
>  <cnnaffinity>  (1) 
-5.00887

>  <filename>  (1) 
O=C(CCCCc1c[nH]n(-c2cccnc2)c1=O)NO

$$$$
