
     RDKit          3D

 31 32  0  0  0  0  0  0  0  0999 V2000
    4.9132    1.7836   16.9979 H   0  0  0  0  0  0  0  0  0  0  0  0
    5.3964    1.2964   17.8409 C   0  0  0  0  0  0  0  0  0  0  0  0
    6.5573    0.6764   17.5686 N   0  0  0  0  0  0  0  0  0  0  0  0
    7.1751    0.0631   18.5825 C   0  0  0  0  0  0  0  0  0  0  0  0
    8.1209   -0.4260   18.3769 H   0  0  0  0  0  0  0  0  0  0  0  0
    6.6679    0.0019   19.9012 C   0  0  0  0  0  0  0  0  0  0  0  0
    7.3608   -0.6853   20.9330 N   0  0  0  0  0  0  0  0  0  0  0  0
    6.7918   -1.1081   21.6530 H   0  0  0  0  0  0  0  0  0  0  0  0
    8.7161   -0.5792   21.1408 C   0  0  0  0  0  0  0  0  0  0  0  0
    9.4115    0.1455   20.4549 O   0  0  0  0  0  0  0  0  0  0  0  0
    9.3381   -1.3514   22.3520 C   0  0  0  0  0  0  0  0  0  0  0  0
   10.6000   -1.7417   22.0395 F   0  0  0  0  0  0  0  0  0  0  0  0
    8.6481   -2.5082   22.5876 F   0  0  0  0  0  0  0  0  0  0  0  0
    9.3974   -0.4830   23.6133 C   0  0  0  0  0  0  0  0  0  0  0  0
   10.0126    0.3894   23.3646 H   0  0  0  0  0  0  0  0  0  0  0  0
    9.9275   -1.0515   24.3846 H   0  0  0  0  0  0  0  0  0  0  0  0
    8.0289   -0.0454   24.0811 C   0  0  0  0  0  0  0  0  0  0  0  0
    7.4766    1.1595   23.6113 C   0  0  0  0  0  0  0  0  0  0  0  0
    8.0602    1.7713   22.9262 H   0  0  0  0  0  0  0  0  0  0  0  0
    6.1937    1.5617   23.9768 C   0  0  0  0  0  0  0  0  0  0  0  0
    5.7875    2.4965   23.5947 H   0  0  0  0  0  0  0  0  0  0  0  0
    5.4281    0.7590   24.8292 C   0  0  0  0  0  0  0  0  0  0  0  0
    4.4300    1.0654   25.1207 H   0  0  0  0  0  0  0  0  0  0  0  0
    5.9473   -0.4463   25.3074 C   0  0  0  0  0  0  0  0  0  0  0  0
    5.3717   -1.0840   25.9720 H   0  0  0  0  0  0  0  0  0  0  0  0
    7.2335   -0.8367   24.9298 C   0  0  0  0  0  0  0  0  0  0  0  0
    7.8319   -2.3406   25.5722 Cl  0  0  0  0  0  0  0  0  0  0  0  0
    5.4477    0.6317   20.1664 C   0  0  0  0  0  0  0  0  0  0  0  0
    5.0220    0.6190   21.1736 H   0  0  0  0  0  0  0  0  0  0  0  0
    4.8115    1.3048   19.1143 C   0  0  0  0  0  0  0  0  0  0  0  0
    3.8781    1.8395   19.2645 H   0  0  0  0  0  0  0  0  0  0  0  0
  1  2  1  0
  2  3  2  0
  3  4  1  0
  4  5  1  0
  4  6  2  0
  6  7  1  0
  7  8  1  0
  7  9  1  0
  9 10  2  0
  9 11  1  0
 11 12  1  0
 11 13  1  0
 11 14  1  0
 14 15  1  0
 14 16  1  0
 14 17  1  0
 17 18  2  0
 18 19  1  0
 18 20  1  0
 20 21  1  0
 20 22  2  0
 22 23  1  0
 22 24  1  0
 24 25  1  0
 24 26  2  0
 26 27  1  0
  6 28  1  0
 28 29  1  0
 28 30  2  0
 30 31  1  0
 30  2  1  0
 26 17  1  0
M  END
>  <cnnaffinity>  (1) 
-5.32565

>  <filename>  (1) 
O=C(Nc1cccnc1)C(F)(F)Cc1ccccc1Cl

$$$$
