
     RDKit          3D

 41 44  0  0  0  0  0  0  0  0999 V2000
    4.9361    1.8426   16.9314 H   0  0  0  0  0  0  0  0  0  0  0  0
    5.3763    1.3168   17.7749 C   0  0  0  0  0  0  0  0  0  0  0  0
    6.5284    0.6751   17.5288 N   0  0  0  0  0  0  0  0  0  0  0  0
    7.1151    0.0549   18.5557 C   0  0  0  0  0  0  0  0  0  0  0  0
    8.0445   -0.4697   18.3365 H   0  0  0  0  0  0  0  0  0  0  0  0
    6.6056    0.0662   19.8694 C   0  0  0  0  0  0  0  0  0  0  0  0
    7.3680   -0.5439   20.9587 C   0  0  0  0  0  0  0  0  0  0  0  0
    8.1577   -1.6000   20.7426 N   0  0  0  0  0  0  0  0  0  0  0  0
    8.6942   -1.8365   21.9337 N   0  0  0  0  0  0  0  0  0  0  0  0
    8.3299   -0.9995   22.9080 C   0  0  0  0  0  0  0  0  0  0  0  0
    7.4252   -0.1300   22.3301 C   0  0  0  0  0  0  0  0  0  0  0  0
    6.7128    0.9151   22.9880 N   0  0  0  0  0  0  0  0  0  0  0  0
    6.9322    1.8331   22.6296 H   0  0  0  0  0  0  0  0  0  0  0  0
    6.6241    0.9277   24.3775 C   0  0  0  0  0  0  0  0  0  0  0  0
    6.6266   -0.0618   25.0743 O   0  0  0  0  0  0  0  0  0  0  0  0
    6.5435    2.2096   24.8529 N   0  0  0  0  0  0  0  0  0  0  0  0
    6.3637    2.9461   24.1972 H   0  0  0  0  0  0  0  0  0  0  0  0
    6.4753    2.5313   26.2193 C   0  0  0  0  0  0  0  0  0  0  0  0
    7.1723    1.7751   27.1695 C   0  0  0  0  0  0  0  0  0  0  0  0
    7.7480    0.9251   26.8310 H   0  0  0  0  0  0  0  0  0  0  0  0
    7.0888    2.0932   28.5229 C   0  0  0  0  0  0  0  0  0  0  0  0
    7.6275    1.4935   29.2519 H   0  0  0  0  0  0  0  0  0  0  0  0
    6.2881    3.1613   28.9325 C   0  0  0  0  0  0  0  0  0  0  0  0
    6.1576    3.5330   30.6260 Cl  0  0  0  0  0  0  0  0  0  0  0  0
    5.5867    3.9249   27.9932 C   0  0  0  0  0  0  0  0  0  0  0  0
    4.9584    4.7448   28.3234 H   0  0  0  0  0  0  0  0  0  0  0  0
    5.6972    3.6125   26.6329 C   0  0  0  0  0  0  0  0  0  0  0  0
    5.1542    4.1861   25.8881 H   0  0  0  0  0  0  0  0  0  0  0  0
    9.1469   -1.2516   24.1463 C   0  0  0  0  0  0  0  0  0  0  0  0
    9.6329   -0.3337   24.4912 H   0  0  0  0  0  0  0  0  0  0  0  0
    8.5101   -1.6090   24.9580 H   0  0  0  0  0  0  0  0  0  0  0  0
   10.1770   -2.3067   23.6594 C   0  0  0  0  0  0  0  0  0  0  0  0
   11.1224   -1.8074   23.4827 H   0  0  0  0  0  0  0  0  0  0  0  0
   10.3299   -3.1093   24.3825 H   0  0  0  0  0  0  0  0  0  0  0  0
    9.6962   -2.8094   22.2754 C   0  0  0  0  0  0  0  0  0  0  0  0
   10.4775   -2.7631   21.5195 H   0  0  0  0  0  0  0  0  0  0  0  0
    9.2535   -3.8063   22.2906 H   0  0  0  0  0  0  0  0  0  0  0  0
    5.3753    0.6991   20.0998 C   0  0  0  0  0  0  0  0  0  0  0  0
    4.9262    0.6771   21.0967 H   0  0  0  0  0  0  0  0  0  0  0  0
    4.7571    1.3372   19.0295 C   0  0  0  0  0  0  0  0  0  0  0  0
    3.8230    1.8664   19.1515 H   0  0  0  0  0  0  0  0  0  0  0  0
  1  2  1  0
  2  3  2  0
  3  4  1  0
  4  5  1  0
  4  6  2  0
  6  7  1  0
  7  8  2  0
  8  9  1  0
  9 10  1  0
 10 11  2  0
 11 12  1  0
 12 13  1  0
 12 14  1  0
 14 15  2  0
 14 16  1  0
 16 17  1  0
 16 18  1  0
 18 19  2  0
 19 20  1  0
 19 21  1  0
 21 22  1  0
 21 23  2  0
 23 24  1  0
 23 25  1  0
 25 26  1  0
 25 27  2  0
 27 28  1  0
 10 29  1  0
 29 30  1  0
 29 31  1  0
 29 32  1  0
 32 33  1  0
 32 34  1  0
 32 35  1  0
 35 36  1  0
 35 37  1  0
  6 38  1  0
 38 39  1  0
 38 40  2  0
 40 41  1  0
 40  2  1  0
 11  7  1  0
 27 18  1  0
 35  9  1  0
M  END
>  <cnnaffinity>  (1) 
-5.88606

>  <filename>  (1) 
O=C(Nc1ccc(Cl)cc1)Nc1c(-c2cccnc2)nn2c1CCC2

$$$$
