
     RDKit          3D

 35 37  0  0  0  0  0  0  0  0999 V2000
    4.9245    1.7804   16.9963 H   0  0  0  0  0  0  0  0  0  0  0  0
    5.4023    1.2934   17.8405 C   0  0  0  0  0  0  0  0  0  0  0  0
    6.5662    0.6753   17.5863 N   0  0  0  0  0  0  0  0  0  0  0  0
    7.1654    0.0515   18.6019 C   0  0  0  0  0  0  0  0  0  0  0  0
    8.1103   -0.4374   18.3786 H   0  0  0  0  0  0  0  0  0  0  0  0
    6.6485    0.0262   19.9056 C   0  0  0  0  0  0  0  0  0  0  0  0
    7.3761   -0.7143   20.9354 C   0  0  0  0  0  0  0  0  0  0  0  0
    7.8888   -1.9074   20.7497 N   0  0  0  0  0  0  0  0  0  0  0  0
    8.4628   -2.2571   21.9426 C   0  0  0  0  0  0  0  0  0  0  0  0
    8.9457   -3.2179   22.0755 H   0  0  0  0  0  0  0  0  0  0  0  0
    8.3289   -1.2487   22.8510 C   0  0  0  0  0  0  0  0  0  0  0  0
    8.6727   -1.1563   23.8697 H   0  0  0  0  0  0  0  0  0  0  0  0
    7.5974   -0.2539   22.2117 N   0  0  0  0  0  0  0  0  0  0  0  0
    7.2961    1.0524   22.7581 C   0  0  0  0  0  0  0  0  0  0  0  0
    7.1965    1.8031   21.9666 H   0  0  0  0  0  0  0  0  0  0  0  0
    8.1413    1.3821   23.3720 H   0  0  0  0  0  0  0  0  0  0  0  0
    6.0854    1.0132   23.5601 N   0  0  0  0  0  0  0  0  0  0  0  0
    5.6087    0.1354   23.6440 H   0  0  0  0  0  0  0  0  0  0  0  0
    5.5842    2.1404   24.1639 C   0  0  0  0  0  0  0  0  0  0  0  0
    6.0896    3.2307   23.9440 O   0  0  0  0  0  0  0  0  0  0  0  0
    4.3888    1.9925   25.0994 C   0  0  0  0  0  0  0  0  0  0  0  0
    3.5578    3.1162   25.3243 C   0  0  0  0  0  0  0  0  0  0  0  0
    3.7720    4.0580   24.8211 H   0  0  0  0  0  0  0  0  0  0  0  0
    2.4693    3.0400   26.1975 C   0  0  0  0  0  0  0  0  0  0  0  0
    1.8306    3.9089   26.3528 H   0  0  0  0  0  0  0  0  0  0  0  0
    2.1956    1.8486   26.8795 C   0  0  0  0  0  0  0  0  0  0  0  0
    1.3447    1.7836   27.5563 H   0  0  0  0  0  0  0  0  0  0  0  0
    3.0285    0.7389   26.6905 C   0  0  0  0  0  0  0  0  0  0  0  0
    2.8295   -0.1908   27.2188 H   0  0  0  0  0  0  0  0  0  0  0  0
    4.1164    0.8108   25.8141 C   0  0  0  0  0  0  0  0  0  0  0  0
    4.7698   -0.0572   25.7157 H   0  0  0  0  0  0  0  0  0  0  0  0
    5.4296    0.6691   20.1602 C   0  0  0  0  0  0  0  0  0  0  0  0
    5.0000    0.6475   21.1658 H   0  0  0  0  0  0  0  0  0  0  0  0
    4.7979    1.3146   19.1024 C   0  0  0  0  0  0  0  0  0  0  0  0
    3.8670    1.8472   19.2543 H   0  0  0  0  0  0  0  0  0  0  0  0
  1  2  1  0
  2  3  2  0
  3  4  1  0
  4  5  1  0
  4  6  2  0
  6  7  1  0
  7  8  2  0
  8  9  1  0
  9 10  1  0
  9 11  2  0
 11 12  1  0
 11 13  1  0
 13 14  1  0
 14 15  1  0
 14 16  1  0
 14 17  1  0
 17 18  1  0
 17 19  1  0
 19 20  2  0
 19 21  1  0
 21 22  2  0
 22 23  1  0
 22 24  1  0
 24 25  1  0
 24 26  2  0
 26 27  1  0
 26 28  1  0
 28 29  1  0
 28 30  2  0
 30 31  1  0
  6 32  1  0
 32 33  1  0
 32 34  2  0
 34 35  1  0
 34  2  1  0
 13  7  1  0
 30 21  1  0
M  END
>  <cnnaffinity>  (1) 
-4.93178

>  <filename>  (1) 
O=C(NCn1ccnc1-c1cccnc1)c1ccccc1

$$$$
