
     RDKit          3D

 34 36  0  0  0  0  0  0  0  0999 V2000
    4.9197    1.7785   16.9996 H   0  0  0  0  0  0  0  0  0  0  0  0
    5.4044    1.2899   17.8401 C   0  0  0  0  0  0  0  0  0  0  0  0
    6.5681    0.6747   17.5786 N   0  0  0  0  0  0  0  0  0  0  0  0
    7.1810    0.0590   18.5933 C   0  0  0  0  0  0  0  0  0  0  0  0
    8.1266   -0.4286   18.3704 H   0  0  0  0  0  0  0  0  0  0  0  0
    6.6669    0.0077   19.9015 C   0  0  0  0  0  0  0  0  0  0  0  0
    7.3793   -0.6992   20.9711 C   0  0  0  0  0  0  0  0  0  0  0  0
    8.5755   -1.3519   20.8225 N   0  0  0  0  0  0  0  0  0  0  0  0
    8.9159   -1.8859   21.9517 N   0  0  0  0  0  0  0  0  0  0  0  0
    7.9598   -1.6066   22.8490 N   0  0  0  0  0  0  0  0  0  0  0  0
    8.0118   -2.1063   24.2122 C   0  0  0  0  0  0  0  0  0  0  0  0
    7.5820   -1.3364   24.8570 H   0  0  0  0  0  0  0  0  0  0  0  0
    9.0543   -2.2314   24.5131 H   0  0  0  0  0  0  0  0  0  0  0  0
    7.2461   -3.3393   24.3610 N   0  0  0  0  0  0  0  0  0  0  0  0
    6.9065   -3.7773   23.5275 H   0  0  0  0  0  0  0  0  0  0  0  0
    7.1547   -3.9847   25.5678 C   0  0  0  0  0  0  0  0  0  0  0  0
    7.7781   -3.5695   26.5307 O   0  0  0  0  0  0  0  0  0  0  0  0
    6.2433   -5.1991   25.6581 C   0  0  0  0  0  0  0  0  0  0  0  0
    6.4617   -6.1349   26.6955 C   0  0  0  0  0  0  0  0  0  0  0  0
    7.2854   -5.9928   27.3942 H   0  0  0  0  0  0  0  0  0  0  0  0
    5.6198   -7.2385   26.8466 C   0  0  0  0  0  0  0  0  0  0  0  0
    5.8107   -7.9650   27.6361 H   0  0  0  0  0  0  0  0  0  0  0  0
    4.5370   -7.4222   25.9785 C   0  0  0  0  0  0  0  0  0  0  0  0
    3.8895   -8.2914   26.0866 H   0  0  0  0  0  0  0  0  0  0  0  0
    4.3031   -6.4992   24.9559 C   0  0  0  0  0  0  0  0  0  0  0  0
    3.4693   -6.6435   24.2736 H   0  0  0  0  0  0  0  0  0  0  0  0
    5.1403   -5.3901   24.8042 C   0  0  0  0  0  0  0  0  0  0  0  0
    4.9033   -4.6570   24.0337 H   0  0  0  0  0  0  0  0  0  0  0  0
    6.9897   -0.8531   22.2799 C   0  0  0  0  0  0  0  0  0  0  0  0
    6.1180   -0.5088   22.8117 H   0  0  0  0  0  0  0  0  0  0  0  0
    5.4424    0.6522   20.1563 C   0  0  0  0  0  0  0  0  0  0  0  0
    4.9963    0.6434   21.1541 H   0  0  0  0  0  0  0  0  0  0  0  0
    4.8083    1.3083   19.1062 C   0  0  0  0  0  0  0  0  0  0  0  0
    3.8756    1.8415   19.2598 H   0  0  0  0  0  0  0  0  0  0  0  0
  1  2  1  0
  2  3  2  0
  3  4  1  0
  4  5  1  0
  4  6  2  0
  6  7  1  0
  7  8  1  0
  8  9  2  0
  9 10  1  0
 10 11  1  0
 11 12  1  0
 11 13  1  0
 11 14  1  0
 14 15  1  0
 14 16  1  0
 16 17  2  0
 16 18  1  0
 18 19  2  0
 19 20  1  0
 19 21  1  0
 21 22  1  0
 21 23  2  0
 23 24  1  0
 23 25  1  0
 25 26  1  0
 25 27  2  0
 27 28  1  0
 10 29  1  0
 29 30  1  0
  6 31  1  0
 31 32  1  0
 31 33  2  0
 33 34  1  0
 33  2  1  0
 29  7  2  0
 27 18  1  0
M  END
>  <cnnaffinity>  (1) 
-5.06727

>  <filename>  (1) 
O=C(NCn1cc(-c2cccnc2)nn1)c1ccccc1

$$$$
