
     RDKit          3D

 31 33  0  0  0  0  0  0  0  0999 V2000
    4.9555    1.8688   16.9611 H   0  0  0  0  0  0  0  0  0  0  0  0
    5.4192    1.3374   17.7903 C   0  0  0  0  0  0  0  0  0  0  0  0
    6.5802    0.7180   17.5253 N   0  0  0  0  0  0  0  0  0  0  0  0
    7.1825    0.0670   18.5275 C   0  0  0  0  0  0  0  0  0  0  0  0
    8.1284   -0.4148   18.2811 H   0  0  0  0  0  0  0  0  0  0  0  0
    6.6472   -0.0319   19.8306 C   0  0  0  0  0  0  0  0  0  0  0  0
    7.3545   -0.7204   20.8971 N   0  0  0  0  0  0  0  0  0  0  0  0
    8.6213   -0.2713   21.2420 C   0  0  0  0  0  0  0  0  0  0  0  0
    8.9843    0.5843   20.6752 H   0  0  0  0  0  0  0  0  0  0  0  0
    9.3806   -0.8546   22.1954 C   0  0  0  0  0  0  0  0  0  0  0  0
   10.7524   -0.3661   22.4562 C   0  0  0  0  0  0  0  0  0  0  0  0
   11.8613   -1.2127   22.3098 C   0  0  0  0  0  0  0  0  0  0  0  0
   11.7238   -2.2596   22.0768 H   0  0  0  0  0  0  0  0  0  0  0  0
   13.1377   -0.6877   22.5044 C   0  0  0  0  0  0  0  0  0  0  0  0
   14.2077   -1.4768   22.3479 F   0  0  0  0  0  0  0  0  0  0  0  0
   13.3602    0.6293   22.8874 C   0  0  0  0  0  0  0  0  0  0  0  0
   14.3701    1.0110   22.9936 H   0  0  0  0  0  0  0  0  0  0  0  0
   12.2384    1.4322   23.0717 C   0  0  0  0  0  0  0  0  0  0  0  0
   12.4277    2.6927   23.4938 F   0  0  0  0  0  0  0  0  0  0  0  0
   10.9436    0.9763   22.8338 C   0  0  0  0  0  0  0  0  0  0  0  0
   10.1189    1.6761   22.9297 H   0  0  0  0  0  0  0  0  0  0  0  0
    8.8234   -1.9926   22.9539 C   0  0  0  0  0  0  0  0  0  0  0  0
    9.3477   -2.6774   23.8027 O   0  0  0  0  0  0  0  0  0  0  0  0
    7.5168   -2.2849   22.6222 N   0  0  0  0  0  0  0  0  0  0  0  0
    7.1063   -3.0526   23.1158 H   0  0  0  0  0  0  0  0  0  0  0  0
    6.7541   -1.7845   21.6181 C   0  0  0  0  0  0  0  0  0  0  0  0
    5.6671   -2.2628   21.3845 O   0  0  0  0  0  0  0  0  0  0  0  0
    5.4347    0.6156   20.0915 C   0  0  0  0  0  0  0  0  0  0  0  0
    5.0028    0.5731   21.0900 H   0  0  0  0  0  0  0  0  0  0  0  0
    4.8143    1.3147   19.0497 C   0  0  0  0  0  0  0  0  0  0  0  0
    3.8836    1.8475   19.2060 H   0  0  0  0  0  0  0  0  0  0  0  0
  1  2  1  0
  2  3  2  0
  3  4  1  0
  4  5  1  0
  4  6  2  0
  6  7  1  0
  7  8  1  0
  8  9  1  0
  8 10  2  0
 10 11  1  0
 11 12  2  0
 12 13  1  0
 12 14  1  0
 14 15  1  0
 14 16  2  0
 16 17  1  0
 16 18  1  0
 18 19  1  0
 18 20  2  0
 20 21  1  0
 10 22  1  0
 22 23  2  0
 22 24  1  0
 24 25  1  0
 24 26  1  0
 26 27  2  0
  6 28  1  0
 28 29  1  0
 28 30  2  0
 30 31  1  0
 30  2  1  0
 26  7  1  0
 20 11  1  0
M  END
>  <cnnaffinity>  (1) 
-5.5691

>  <filename>  (1) 
O=c1[nH]c(=O)n(-c2cccnc2)cc1-c1cc(F)cc(F)c1

$$$$
