
     RDKit          3D

 31 33  0  0  0  0  0  0  0  0999 V2000
   12.3876   -3.2180   22.4824 H   0  0  0  0  0  0  0  0  0  0  0  0
   11.5612   -2.7225   22.5458 O   0  0  0  0  0  0  0  0  0  0  0  0
   11.8636   -1.4098   22.3593 C   0  0  0  0  0  0  0  0  0  0  0  0
   13.1959   -0.9883   22.4180 C   0  0  0  0  0  0  0  0  0  0  0  0
   13.9701   -1.7477   22.4901 H   0  0  0  0  0  0  0  0  0  0  0  0
   13.5075    0.3690   22.4024 C   0  0  0  0  0  0  0  0  0  0  0  0
   14.5388    0.6854   22.5551 H   0  0  0  0  0  0  0  0  0  0  0  0
   12.4886    1.3099   22.2097 C   0  0  0  0  0  0  0  0  0  0  0  0
   12.7309    2.3673   22.1915 H   0  0  0  0  0  0  0  0  0  0  0  0
   11.1678    0.8842   22.0375 C   0  0  0  0  0  0  0  0  0  0  0  0
   10.3759    1.6059   21.8290 H   0  0  0  0  0  0  0  0  0  0  0  0
   10.8308   -0.4824   22.1391 C   0  0  0  0  0  0  0  0  0  0  0  0
    9.4072   -0.9367   22.0063 C   0  0  0  0  0  0  0  0  0  0  0  0
    8.7080   -0.3824   21.0427 N   0  0  0  0  0  0  0  0  0  0  0  0
    7.3759   -0.6924   20.9314 N   0  0  0  0  0  0  0  0  0  0  0  0
    6.6835    0.0168   19.9019 C   0  0  0  0  0  0  0  0  0  0  0  0
    7.2402    0.0925   18.6144 C   0  0  0  0  0  0  0  0  0  0  0  0
    8.2090   -0.3664   18.4249 H   0  0  0  0  0  0  0  0  0  0  0  0
    6.6245    0.6936   17.5909 N   0  0  0  0  0  0  0  0  0  0  0  0
    5.4462    1.2940   17.8408 C   0  0  0  0  0  0  0  0  0  0  0  0
    4.9698    1.7731   16.9903 H   0  0  0  0  0  0  0  0  0  0  0  0
    4.8351    1.3056   19.0995 C   0  0  0  0  0  0  0  0  0  0  0  0
    3.8904    1.8235   19.2344 H   0  0  0  0  0  0  0  0  0  0  0  0
    5.4559    0.6373   20.1588 C   0  0  0  0  0  0  0  0  0  0  0  0
    5.0174    0.5957   21.1560 H   0  0  0  0  0  0  0  0  0  0  0  0
    6.6846   -1.7109   21.6847 C   0  0  0  0  0  0  0  0  0  0  0  0
    5.5577   -2.0906   21.4122 O   0  0  0  0  0  0  0  0  0  0  0  0
    7.5034   -2.2413   22.7631 C   0  0  0  0  0  0  0  0  0  0  0  0
    6.9794   -2.9528   23.3938 H   0  0  0  0  0  0  0  0  0  0  0  0
    8.8142   -1.8965   22.9070 C   0  0  0  0  0  0  0  0  0  0  0  0
    9.4367   -2.3337   23.6771 H   0  0  0  0  0  0  0  0  0  0  0  0
  1  2  1  0
  2  3  1  0
  3  4  2  0
  4  5  1  0
  4  6  1  0
  6  7  1  0
  6  8  2  0
  8  9  1  0
  8 10  1  0
 10 11  1  0
 10 12  2  0
 12 13  1  0
 13 14  2  0
 14 15  1  0
 15 16  1  0
 16 17  2  0
 17 18  1  0
 17 19  1  0
 19 20  2  0
 20 21  1  0
 20 22  1  0
 22 23  1  0
 22 24  2  0
 24 25  1  0
 15 26  1  0
 26 27  2  0
 26 28  1  0
 28 29  1  0
 28 30  2  0
 30 31  1  0
 12  3  1  0
 30 13  1  0
 24 16  1  0
M  END
>  <cnnaffinity>  (1) 
-5.57333

>  <filename>  (1) 
O=c1ccc(-c2ccccc2O)nn1-c1cccnc1

$$$$
