
     RDKit          3D

 36 38  0  0  0  0  0  0  0  0999 V2000
    4.9431    1.8185   16.9509 H   0  0  0  0  0  0  0  0  0  0  0  0
    5.4165    1.3116   17.7904 C   0  0  0  0  0  0  0  0  0  0  0  0
    6.5766    0.6863   17.5313 N   0  0  0  0  0  0  0  0  0  0  0  0
    7.1874    0.0683   18.5505 C   0  0  0  0  0  0  0  0  0  0  0  0
    8.1171   -0.4401   18.2987 H   0  0  0  0  0  0  0  0  0  0  0  0
    6.6901    0.0270   19.8661 C   0  0  0  0  0  0  0  0  0  0  0  0
    7.3770   -0.6919   20.9413 C   0  0  0  0  0  0  0  0  0  0  0  0
    6.8489   -1.2327   22.0627 C   0  0  0  0  0  0  0  0  0  0  0  0
    5.8353   -1.3224   22.3909 H   0  0  0  0  0  0  0  0  0  0  0  0
    7.8562   -1.8023   22.8086 N   0  0  0  0  0  0  0  0  0  0  0  0
    7.6486   -2.5645   24.0239 C   0  0  0  0  0  0  0  0  0  0  0  0
    6.8072   -2.1319   24.5832 H   0  0  0  0  0  0  0  0  0  0  0  0
    8.5295   -2.4593   24.6643 H   0  0  0  0  0  0  0  0  0  0  0  0
    7.3607   -4.0410   23.7030 C   0  0  0  0  0  0  0  0  0  0  0  0
    6.4262   -4.1265   23.1380 H   0  0  0  0  0  0  0  0  0  0  0  0
    8.1657   -4.4571   23.0805 H   0  0  0  0  0  0  0  0  0  0  0  0
    7.1815   -4.8219   24.8748 O   0  0  0  0  0  0  0  0  0  0  0  0
    8.2491   -5.0234   25.6982 C   0  0  0  0  0  0  0  0  0  0  0  0
    9.5800   -4.7370   25.3547 C   0  0  0  0  0  0  0  0  0  0  0  0
    9.8426   -4.3887   24.3644 H   0  0  0  0  0  0  0  0  0  0  0  0
   10.5729   -4.8589   26.3262 C   0  0  0  0  0  0  0  0  0  0  0  0
   11.6023   -4.6518   26.0621 H   0  0  0  0  0  0  0  0  0  0  0  0
   10.2554   -5.2520   27.6195 C   0  0  0  0  0  0  0  0  0  0  0  0
   11.0415   -5.2875   28.3623 H   0  0  0  0  0  0  0  0  0  0  0  0
    8.9415   -5.6293   27.9297 C   0  0  0  0  0  0  0  0  0  0  0  0
    8.7117   -6.0032   28.9228 H   0  0  0  0  0  0  0  0  0  0  0  0
    7.9450   -5.5442   26.9628 C   0  0  0  0  0  0  0  0  0  0  0  0
    6.9271   -5.8833   27.1405 H   0  0  0  0  0  0  0  0  0  0  0  0
    9.0601   -1.6760   22.1351 C   0  0  0  0  0  0  0  0  0  0  0  0
   10.1608   -2.0804   22.4667 O   0  0  0  0  0  0  0  0  0  0  0  0
    8.7374   -0.9949   20.9813 N   0  0  0  0  0  0  0  0  0  0  0  0
    9.4982   -0.6970   20.3995 H   0  0  0  0  0  0  0  0  0  0  0  0
    5.4628    0.6768   20.1082 C   0  0  0  0  0  0  0  0  0  0  0  0
    5.0274    0.6857   21.1097 H   0  0  0  0  0  0  0  0  0  0  0  0
    4.8201    1.3270   19.0558 C   0  0  0  0  0  0  0  0  0  0  0  0
    3.8795    1.8499   19.1959 H   0  0  0  0  0  0  0  0  0  0  0  0
  1  2  1  0
  2  3  2  0
  3  4  1  0
  4  5  1  0
  4  6  2  0
  6  7  1  0
  7  8  2  0
  8  9  1  0
  8 10  1  0
 10 11  1  0
 11 12  1  0
 11 13  1  0
 11 14  1  0
 14 15  1  0
 14 16  1  0
 14 17  1  0
 17 18  1  0
 18 19  2  0
 19 20  1  0
 19 21  1  0
 21 22  1  0
 21 23  2  0
 23 24  1  0
 23 25  1  0
 25 26  1  0
 25 27  2  0
 27 28  1  0
 10 29  1  0
 29 30  2  0
 29 31  1  0
 31 32  1  0
  6 33  1  0
 33 34  1  0
 33 35  2  0
 35 36  1  0
 35  2  1  0
 31  7  1  0
 27 18  1  0
M  END
>  <cnnaffinity>  (1) 
-5.24909

>  <filename>  (1) 
O=c1[nH]c(-c2cccnc2)cn1CCOc1ccccc1

$$$$
