
     RDKit          3D

 33 36  0  0  0  0  0  0  0  0999 V2000
    4.9300    1.8295   16.9368 H   0  0  0  0  0  0  0  0  0  0  0  0
    5.3768    1.3086   17.7816 C   0  0  0  0  0  0  0  0  0  0  0  0
    6.5363    0.6770   17.5351 N   0  0  0  0  0  0  0  0  0  0  0  0
    7.1398    0.0683   18.5587 C   0  0  0  0  0  0  0  0  0  0  0  0
    8.0920   -0.4105   18.3334 H   0  0  0  0  0  0  0  0  0  0  0  0
    6.6291    0.0498   19.8662 C   0  0  0  0  0  0  0  0  0  0  0  0
    7.3800   -0.5858   20.9434 C   0  0  0  0  0  0  0  0  0  0  0  0
    7.4811   -0.0837   22.2105 C   0  0  0  0  0  0  0  0  0  0  0  0
    7.0828    0.8799   22.4937 H   0  0  0  0  0  0  0  0  0  0  0  0
    8.1875   -0.8573   23.1791 C   0  0  0  0  0  0  0  0  0  0  0  0
    8.3447   -0.3252   24.5519 C   0  0  0  0  0  0  0  0  0  0  0  0
    9.5206   -0.3787   25.2270 C   0  0  0  0  0  0  0  0  0  0  0  0
   10.4489   -0.7985   24.8566 H   0  0  0  0  0  0  0  0  0  0  0  0
    9.4386    0.3111   26.7939 S   0  0  0  0  0  0  0  0  0  0  0  0
    7.7701    0.7528   26.5792 C   0  0  0  0  0  0  0  0  0  0  0  0
    6.9412    1.4298   27.4973 C   0  0  0  0  0  0  0  0  0  0  0  0
    7.3393    1.7974   28.4397 H   0  0  0  0  0  0  0  0  0  0  0  0
    5.6014    1.6113   27.1752 C   0  0  0  0  0  0  0  0  0  0  0  0
    4.9443    2.1146   27.8809 H   0  0  0  0  0  0  0  0  0  0  0  0
    5.0859    1.1314   25.9515 C   0  0  0  0  0  0  0  0  0  0  0  0
    4.0307    1.2647   25.7273 H   0  0  0  0  0  0  0  0  0  0  0  0
    5.9123    0.4891   25.0402 C   0  0  0  0  0  0  0  0  0  0  0  0
    5.5046    0.0937   24.1164 H   0  0  0  0  0  0  0  0  0  0  0  0
    7.2897    0.3120   25.3297 C   0  0  0  0  0  0  0  0  0  0  0  0
    8.7132   -2.0276   22.9301 N   0  0  0  0  0  0  0  0  0  0  0  0
    8.4672   -2.5883   21.7126 C   0  0  0  0  0  0  0  0  0  0  0  0
    8.5918   -3.7618   21.4427 O   0  0  0  0  0  0  0  0  0  0  0  0
    8.0479   -1.7427   20.6778 N   0  0  0  0  0  0  0  0  0  0  0  0
    7.7893   -2.3424   19.9097 H   0  0  0  0  0  0  0  0  0  0  0  0
    5.4043    0.6932   20.1000 C   0  0  0  0  0  0  0  0  0  0  0  0
    4.9655    0.6786   21.0974 H   0  0  0  0  0  0  0  0  0  0  0  0
    4.7634    1.3297   19.0395 C   0  0  0  0  0  0  0  0  0  0  0  0
    3.8333    1.8718   19.1773 H   0  0  0  0  0  0  0  0  0  0  0  0
  1  2  1  0
  2  3  2  0
  3  4  1  0
  4  5  1  0
  4  6  2  0
  6  7  1  0
  7  8  2  0
  8  9  1  0
  8 10  1  0
 10 11  1  0
 11 12  2  0
 12 13  1  0
 12 14  1  0
 14 15  1  0
 15 16  2  0
 16 17  1  0
 16 18  1  0
 18 19  1  0
 18 20  2  0
 20 21  1  0
 20 22  1  0
 22 23  1  0
 22 24  2  0
 10 25  2  0
 25 26  1  0
 26 27  2  0
 26 28  1  0
 28 29  1  0
  6 30  1  0
 30 31  1  0
 30 32  2  0
 32 33  1  0
 32  2  1  0
 28  7  1  0
 24 11  1  0
 24 15  1  0
M  END
>  <cnnaffinity>  (1) 
-5.49796

>  <filename>  (1) 
O=c1nc(-c2csc3ccccc23)cc(-c2cccnc2)[nH]1

$$$$
