
     RDKit          3D

 32 35  0  0  0  0  0  0  0  0999 V2000
    4.9221    1.7929   16.9941 H   0  0  0  0  0  0  0  0  0  0  0  0
    5.3933    1.2916   17.8346 C   0  0  0  0  0  0  0  0  0  0  0  0
    6.5499    0.6671   17.5658 N   0  0  0  0  0  0  0  0  0  0  0  0
    7.1721    0.0546   18.5772 C   0  0  0  0  0  0  0  0  0  0  0  0
    8.1280   -0.4182   18.3622 H   0  0  0  0  0  0  0  0  0  0  0  0
    6.6649    0.0108   19.8934 C   0  0  0  0  0  0  0  0  0  0  0  0
    7.3588   -0.6648   20.9334 N   0  0  0  0  0  0  0  0  0  0  0  0
    6.7628   -1.4364   21.9231 C   0  0  0  0  0  0  0  0  0  0  0  0
    5.7000   -1.6012   21.9410 H   0  0  0  0  0  0  0  0  0  0  0  0
    7.7237   -1.9323   22.7373 C   0  0  0  0  0  0  0  0  0  0  0  0
    7.6114   -2.7831   23.9238 C   0  0  0  0  0  0  0  0  0  0  0  0
    6.3395   -2.8728   24.5806 C   0  0  0  0  0  0  0  0  0  0  0  0
    5.5185   -2.2828   24.1878 H   0  0  0  0  0  0  0  0  0  0  0  0
    6.1286   -3.6670   25.6920 C   0  0  0  0  0  0  0  0  0  0  0  0
    5.1552   -3.7239   26.1747 H   0  0  0  0  0  0  0  0  0  0  0  0
    7.2453   -4.3987   26.1642 C   0  0  0  0  0  0  0  0  0  0  0  0
    8.5153   -4.3324   25.5412 C   0  0  0  0  0  0  0  0  0  0  0  0
    9.3365   -5.2026   26.3263 C   0  0  0  0  0  0  0  0  0  0  0  0
   10.3874   -5.4413   26.1881 H   0  0  0  0  0  0  0  0  0  0  0  0
    8.6543   -5.7391   27.3148 N   0  0  0  0  0  0  0  0  0  0  0  0
    7.3972   -5.2525   27.2109 N   0  0  0  0  0  0  0  0  0  0  0  0
    6.6875   -5.5418   27.8651 H   0  0  0  0  0  0  0  0  0  0  0  0
    8.6947   -3.5146   24.4053 C   0  0  0  0  0  0  0  0  0  0  0  0
    9.6588   -3.4712   23.9054 H   0  0  0  0  0  0  0  0  0  0  0  0
    8.9300   -1.4725   22.2203 N   0  0  0  0  0  0  0  0  0  0  0  0
    9.8678   -1.5568   22.5615 H   0  0  0  0  0  0  0  0  0  0  0  0
    8.7508   -0.6719   21.1270 C   0  0  0  0  0  0  0  0  0  0  0  0
    9.6337   -0.1213   20.5049 O   0  0  0  0  0  0  0  0  0  0  0  0
    5.4464    0.6467   20.1580 C   0  0  0  0  0  0  0  0  0  0  0  0
    5.0331    0.6366   21.1680 H   0  0  0  0  0  0  0  0  0  0  0  0
    4.8100    1.3078   19.1056 C   0  0  0  0  0  0  0  0  0  0  0  0
    3.8803    1.8381   19.2598 H   0  0  0  0  0  0  0  0  0  0  0  0
  1  2  1  0
  2  3  2  0
  3  4  1  0
  4  5  1  0
  4  6  2  0
  6  7  1  0
  7  8  1  0
  8  9  1  0
  8 10  2  0
 10 11  1  0
 11 12  2  0
 12 13  1  0
 12 14  1  0
 14 15  1  0
 14 16  2  0
 16 17  1  0
 17 18  1  0
 18 19  1  0
 18 20  2  0
 20 21  1  0
 21 22  1  0
 17 23  2  0
 23 24  1  0
 10 25  1  0
 25 26  1  0
 25 27  1  0
 27 28  2  0
  6 29  1  0
 29 30  1  0
 29 31  2  0
 31 32  1  0
 31  2  1  0
 27  7  1  0
 23 11  1  0
 21 16  1  0
M  END
>  <cnnaffinity>  (1) 
-5.68651

>  <filename>  (1) 
O=c1[nH]c(-c2ccc3[nH]ncc3c2)cn1-c1cccnc1

$$$$
