
     RDKit          3D

 32 34  0  0  0  0  0  0  0  0999 V2000
    4.9393    1.8043   16.9882 H   0  0  0  0  0  0  0  0  0  0  0  0
    5.3923    1.2922   17.8350 C   0  0  0  0  0  0  0  0  0  0  0  0
    6.5449    0.6586   17.5833 N   0  0  0  0  0  0  0  0  0  0  0  0
    7.1453    0.0401   18.6057 C   0  0  0  0  0  0  0  0  0  0  0  0
    8.1069   -0.4256   18.3944 H   0  0  0  0  0  0  0  0  0  0  0  0
    6.6188   -0.0084   19.9075 C   0  0  0  0  0  0  0  0  0  0  0  0
    7.3175   -0.7408   20.9857 C   0  0  0  0  0  0  0  0  0  0  0  0
    6.5884   -1.5149   21.7680 N   0  0  0  0  0  0  0  0  0  0  0  0
    7.1817   -2.2284   22.7956 C   0  0  0  0  0  0  0  0  0  0  0  0
    6.3088   -3.1180   23.6509 C   0  0  0  0  0  0  0  0  0  0  0  0
    6.9067   -3.7201   24.6978 N   0  0  0  0  0  0  0  0  0  0  0  0
    6.1709   -4.4950   25.5074 C   0  0  0  0  0  0  0  0  0  0  0  0
    6.8634   -5.2858   26.6443 C   0  0  0  0  0  0  0  0  0  0  0  0
    6.6437   -6.6102   26.4977 F   0  0  0  0  0  0  0  0  0  0  0  0
    6.3497   -4.9444   27.8445 F   0  0  0  0  0  0  0  0  0  0  0  0
    8.1830   -5.1130   26.7142 F   0  0  0  0  0  0  0  0  0  0  0  0
    4.7847   -4.6423   25.3555 C   0  0  0  0  0  0  0  0  0  0  0  0
    4.2322   -5.2625   26.0533 H   0  0  0  0  0  0  0  0  0  0  0  0
    4.1634   -4.0168   24.2754 C   0  0  0  0  0  0  0  0  0  0  0  0
    3.0836   -4.0745   24.1659 H   0  0  0  0  0  0  0  0  0  0  0  0
    4.9453   -3.3060   23.3651 C   0  0  0  0  0  0  0  0  0  0  0  0
    4.5484   -2.8685   22.4561 H   0  0  0  0  0  0  0  0  0  0  0  0
    8.5281   -2.1412   23.0618 C   0  0  0  0  0  0  0  0  0  0  0  0
    9.0204   -2.6764   23.8708 H   0  0  0  0  0  0  0  0  0  0  0  0
    9.2906   -1.3389   22.2553 N   0  0  0  0  0  0  0  0  0  0  0  0
   10.2888   -1.1690   22.3282 H   0  0  0  0  0  0  0  0  0  0  0  0
    8.8080   -0.5847   21.1945 C   0  0  0  0  0  0  0  0  0  0  0  0
    9.6254    0.0982   20.5904 O   0  0  0  0  0  0  0  0  0  0  0  0
    5.3958    0.6394   20.1464 C   0  0  0  0  0  0  0  0  0  0  0  0
    4.9499    0.6266   21.1424 H   0  0  0  0  0  0  0  0  0  0  0  0
    4.7798    1.3155   19.0931 C   0  0  0  0  0  0  0  0  0  0  0  0
    3.8578    1.8717   19.2308 H   0  0  0  0  0  0  0  0  0  0  0  0
  1  2  1  0
  2  3  2  0
  3  4  1  0
  4  5  1  0
  4  6  2  0
  6  7  1  0
  7  8  2  0
  8  9  1  0
  9 10  1  0
 10 11  2  0
 11 12  1  0
 12 13  1  0
 13 14  1  0
 13 15  1  0
 13 16  1  0
 12 17  2  0
 17 18  1  0
 17 19  1  0
 19 20  1  0
 19 21  2  0
 21 22  1  0
  9 23  2  0
 23 24  1  0
 23 25  1  0
 25 26  1  0
 25 27  1  0
 27 28  2  0
  6 29  1  0
 29 30  1  0
 29 31  2  0
 31 32  1  0
 31  2  1  0
 27  7  1  0
 21 10  1  0
M  END
>  <cnnaffinity>  (1) 
-5.50966

>  <filename>  (1) 
O=c1[nH]cc(-c2cccc(C(F)(F)F)n2)nc1-c1cccnc1

$$$$
