
     RDKit          3D

 32 35  0  0  0  0  0  0  0  0999 V2000
    4.9268    1.8022   16.9699 H   0  0  0  0  0  0  0  0  0  0  0  0
    5.3953    1.3015   17.8186 C   0  0  0  0  0  0  0  0  0  0  0  0
    6.5593    0.6808   17.5690 N   0  0  0  0  0  0  0  0  0  0  0  0
    7.1715    0.0669   18.5894 C   0  0  0  0  0  0  0  0  0  0  0  0
    8.1067   -0.4243   18.3301 H   0  0  0  0  0  0  0  0  0  0  0  0
    6.6681    0.0152   19.9039 C   0  0  0  0  0  0  0  0  0  0  0  0
    7.3477   -0.7027   20.9851 C   0  0  0  0  0  0  0  0  0  0  0  0
    6.8271   -1.2324   22.1028 C   0  0  0  0  0  0  0  0  0  0  0  0
    5.7982   -1.2898   22.3786 H   0  0  0  0  0  0  0  0  0  0  0  0
    7.8403   -1.8148   22.8597 N   0  0  0  0  0  0  0  0  0  0  0  0
    7.6752   -2.4625   24.0918 C   0  0  0  0  0  0  0  0  0  0  0  0
    6.1102   -2.4872   24.8915 S   0  0  0  0  0  0  0  0  0  0  0  0
    6.7769   -3.4214   26.2123 C   0  0  0  0  0  0  0  0  0  0  0  0
    6.1116   -3.9027   27.3515 C   0  0  0  0  0  0  0  0  0  0  0  0
    5.0575   -3.7018   27.5259 H   0  0  0  0  0  0  0  0  0  0  0  0
    6.8359   -4.6639   28.2637 C   0  0  0  0  0  0  0  0  0  0  0  0
    6.3519   -5.0219   29.1672 H   0  0  0  0  0  0  0  0  0  0  0  0
    8.1988   -4.9487   28.0510 C   0  0  0  0  0  0  0  0  0  0  0  0
    8.7393   -5.5921   28.7352 H   0  0  0  0  0  0  0  0  0  0  0  0
    8.8640   -4.4354   26.9526 C   0  0  0  0  0  0  0  0  0  0  0  0
    9.9229   -4.6175   26.8104 H   0  0  0  0  0  0  0  0  0  0  0  0
    8.1544   -3.6750   26.0063 C   0  0  0  0  0  0  0  0  0  0  0  0
    8.6381   -3.1117   24.7804 C   0  0  0  0  0  0  0  0  0  0  0  0
    9.6537   -3.1774   24.4113 H   0  0  0  0  0  0  0  0  0  0  0  0
    9.0606   -1.6441   22.1694 C   0  0  0  0  0  0  0  0  0  0  0  0
   10.1884   -1.9714   22.4686 O   0  0  0  0  0  0  0  0  0  0  0  0
    8.7051   -0.9929   21.0205 N   0  0  0  0  0  0  0  0  0  0  0  0
    9.4481   -0.6888   20.4220 H   0  0  0  0  0  0  0  0  0  0  0  0
    5.4394    0.6633   20.1377 C   0  0  0  0  0  0  0  0  0  0  0  0
    5.0048    0.6651   21.1365 H   0  0  0  0  0  0  0  0  0  0  0  0
    4.7995    1.3179   19.0852 C   0  0  0  0  0  0  0  0  0  0  0  0
    3.8651    1.8501   19.2279 H   0  0  0  0  0  0  0  0  0  0  0  0
  1  2  1  0
  2  3  2  0
  3  4  1  0
  4  5  1  0
  4  6  2  0
  6  7  1  0
  7  8  2  0
  8  9  1  0
  8 10  1  0
 10 11  1  0
 11 12  1  0
 12 13  1  0
 13 14  2  0
 14 15  1  0
 14 16  1  0
 16 17  1  0
 16 18  2  0
 18 19  1  0
 18 20  1  0
 20 21  1  0
 20 22  2  0
 22 23  1  0
 23 24  1  0
 10 25  1  0
 25 26  2  0
 25 27  1  0
 27 28  1  0
  6 29  1  0
 29 30  1  0
 29 31  2  0
 31 32  1  0
 31  2  1  0
 27  7  1  0
 23 11  2  0
 22 13  1  0
M  END
>  <cnnaffinity>  (1) 
-5.33954

>  <filename>  (1) 
O=c1[nH]c(-c2cccnc2)cn1-c1cc2ccccc2s1

$$$$
