
     RDKit          3D

 32 34  0  0  0  0  0  0  0  0999 V2000
   11.7403    3.3177   22.9052 H   0  0  0  0  0  0  0  0  0  0  0  0
   12.5022    2.8239   23.2319 O   0  0  0  0  0  0  0  0  0  0  0  0
   12.2611    1.5088   22.9729 C   0  0  0  0  0  0  0  0  0  0  0  0
   13.3451    0.6270   22.9707 C   0  0  0  0  0  0  0  0  0  0  0  0
   14.3402    1.0166   23.1347 H   0  0  0  0  0  0  0  0  0  0  0  0
   13.1316   -0.7249   22.6928 C   0  0  0  0  0  0  0  0  0  0  0  0
   13.9816   -1.4055   22.7157 H   0  0  0  0  0  0  0  0  0  0  0  0
   11.8401   -1.2016   22.4370 C   0  0  0  0  0  0  0  0  0  0  0  0
   11.6748   -2.2588   22.2304 H   0  0  0  0  0  0  0  0  0  0  0  0
   10.7426   -0.3221   22.4544 C   0  0  0  0  0  0  0  0  0  0  0  0
    9.3533   -0.8196   22.2206 C   0  0  0  0  0  0  0  0  0  0  0  0
    8.7871   -1.9120   22.9593 C   0  0  0  0  0  0  0  0  0  0  0  0
    9.3661   -2.3738   23.7612 H   0  0  0  0  0  0  0  0  0  0  0  0
    7.5330   -2.3629   22.6745 C   0  0  0  0  0  0  0  0  0  0  0  0
    7.0607   -3.1903   23.1851 H   0  0  0  0  0  0  0  0  0  0  0  0
    6.7154   -1.8040   21.6042 C   0  0  0  0  0  0  0  0  0  0  0  0
    5.6246   -2.2495   21.2916 O   0  0  0  0  0  0  0  0  0  0  0  0
    7.3317   -0.7039   20.9042 N   0  0  0  0  0  0  0  0  0  0  0  0
    6.6398   -0.0133   19.8436 C   0  0  0  0  0  0  0  0  0  0  0  0
    7.1759    0.0718   18.5419 C   0  0  0  0  0  0  0  0  0  0  0  0
    8.1195   -0.4222   18.3141 H   0  0  0  0  0  0  0  0  0  0  0  0
    6.5783    0.7147   17.5307 N   0  0  0  0  0  0  0  0  0  0  0  0
    5.4150    1.3337   17.7927 C   0  0  0  0  0  0  0  0  0  0  0  0
    4.9498    1.8552   16.9580 H   0  0  0  0  0  0  0  0  0  0  0  0
    4.8104    1.3220   19.0542 C   0  0  0  0  0  0  0  0  0  0  0  0
    3.8798    1.8552   19.2066 H   0  0  0  0  0  0  0  0  0  0  0  0
    5.4295    0.6342   20.1029 C   0  0  0  0  0  0  0  0  0  0  0  0
    5.0074    0.5983   21.1061 H   0  0  0  0  0  0  0  0  0  0  0  0
    8.5869   -0.2479   21.2476 C   0  0  0  0  0  0  0  0  0  0  0  0
    8.9465    0.6037   20.6801 H   0  0  0  0  0  0  0  0  0  0  0  0
   10.9727    1.0448   22.7017 C   0  0  0  0  0  0  0  0  0  0  0  0
   10.1509    1.7581   22.6853 H   0  0  0  0  0  0  0  0  0  0  0  0
  1  2  1  0
  2  3  1  0
  3  4  2  0
  4  5  1  0
  4  6  1  0
  6  7  1  0
  6  8  2  0
  8  9  1  0
  8 10  1  0
 10 11  1  0
 11 12  1  0
 12 13  1  0
 12 14  2  0
 14 15  1  0
 14 16  1  0
 16 17  2  0
 16 18  1  0
 18 19  1  0
 19 20  2  0
 20 21  1  0
 20 22  1  0
 22 23  2  0
 23 24  1  0
 23 25  1  0
 25 26  1  0
 25 27  2  0
 27 28  1  0
 18 29  1  0
 29 30  1  0
 10 31  2  0
 31 32  1  0
 31  3  1  0
 29 11  2  0
 27 19  1  0
M  END
>  <cnnaffinity>  (1) 
-4.90342

>  <filename>  (1) 
O=c1ccc(-c2cccc(O)c2)cn1-c1cccnc1

$$$$
