
     RDKit          3D

 38 41  0  0  0  0  0  0  0  0999 V2000
    4.9127    1.7788   16.9973 H   0  0  0  0  0  0  0  0  0  0  0  0
    5.4002    1.2937   17.8350 C   0  0  0  0  0  0  0  0  0  0  0  0
    6.5672    0.6824   17.5668 N   0  0  0  0  0  0  0  0  0  0  0  0
    7.1711    0.0597   18.5845 C   0  0  0  0  0  0  0  0  0  0  0  0
    8.1252   -0.4180   18.3626 H   0  0  0  0  0  0  0  0  0  0  0  0
    6.6496    0.0105   19.8870 C   0  0  0  0  0  0  0  0  0  0  0  0
    7.3337   -0.6604   20.9764 C   0  0  0  0  0  0  0  0  0  0  0  0
    7.2361   -0.4338   22.3032 C   0  0  0  0  0  0  0  0  0  0  0  0
    6.6368    0.2942   22.8320 H   0  0  0  0  0  0  0  0  0  0  0  0
    8.1010   -1.3011   22.9482 N   0  0  0  0  0  0  0  0  0  0  0  0
    8.1964   -1.4863   24.3880 C   0  0  0  0  0  0  0  0  0  0  0  0
    8.0796   -0.5118   24.8803 H   0  0  0  0  0  0  0  0  0  0  0  0
    9.1958   -1.8482   24.6323 H   0  0  0  0  0  0  0  0  0  0  0  0
    7.1457   -2.4427   24.9140 C   0  0  0  0  0  0  0  0  0  0  0  0
    7.4434   -3.8340   25.0265 C   0  0  0  0  0  0  0  0  0  0  0  0
    8.4402   -4.1890   24.7719 H   0  0  0  0  0  0  0  0  0  0  0  0
    6.4827   -4.7276   25.4351 C   0  0  0  0  0  0  0  0  0  0  0  0
    6.7114   -5.7867   25.5265 H   0  0  0  0  0  0  0  0  0  0  0  0
    5.1651   -4.2818   25.7514 C   0  0  0  0  0  0  0  0  0  0  0  0
    4.1464   -5.1834   26.1815 C   0  0  0  0  0  0  0  0  0  0  0  0
    4.3963   -6.2384   26.2721 H   0  0  0  0  0  0  0  0  0  0  0  0
    2.8834   -4.7213   26.4736 C   0  0  0  0  0  0  0  0  0  0  0  0
    2.1125   -5.4128   26.8019 H   0  0  0  0  0  0  0  0  0  0  0  0
    2.5738   -3.3340   26.3494 C   0  0  0  0  0  0  0  0  0  0  0  0
    1.5708   -2.9896   26.5858 H   0  0  0  0  0  0  0  0  0  0  0  0
    3.5340   -2.4393   25.9370 C   0  0  0  0  0  0  0  0  0  0  0  0
    3.3103   -1.3779   25.8388 H   0  0  0  0  0  0  0  0  0  0  0  0
    4.8534   -2.8889   25.6305 C   0  0  0  0  0  0  0  0  0  0  0  0
    5.8753   -1.9919   25.2071 C   0  0  0  0  0  0  0  0  0  0  0  0
    5.6163   -0.9391   25.1014 H   0  0  0  0  0  0  0  0  0  0  0  0
    8.7003   -2.1476   22.0243 C   0  0  0  0  0  0  0  0  0  0  0  0
    9.4612   -3.0731   22.2228 O   0  0  0  0  0  0  0  0  0  0  0  0
    8.2435   -1.6875   20.8105 N   0  0  0  0  0  0  0  0  0  0  0  0
    8.5153   -2.1491   19.9650 H   0  0  0  0  0  0  0  0  0  0  0  0
    5.4330    0.6620   20.1473 C   0  0  0  0  0  0  0  0  0  0  0  0
    5.0029    0.6304   21.1528 H   0  0  0  0  0  0  0  0  0  0  0  0
    4.7989    1.3157   19.0996 C   0  0  0  0  0  0  0  0  0  0  0  0
    3.8682    1.8475   19.2592 H   0  0  0  0  0  0  0  0  0  0  0  0
  1  2  1  0
  2  3  2  0
  3  4  1  0
  4  5  1  0
  4  6  2  0
  6  7  1  0
  7  8  2  0
  8  9  1  0
  8 10  1  0
 10 11  1  0
 11 12  1  0
 11 13  1  0
 11 14  1  0
 14 15  2  0
 15 16  1  0
 15 17  1  0
 17 18  1  0
 17 19  2  0
 19 20  1  0
 20 21  1  0
 20 22  2  0
 22 23  1  0
 22 24  1  0
 24 25  1  0
 24 26  2  0
 26 27  1  0
 26 28  1  0
 28 29  2  0
 29 30  1  0
 10 31  1  0
 31 32  2  0
 31 33  1  0
 33 34  1  0
  6 35  1  0
 35 36  1  0
 35 37  2  0
 37 38  1  0
 37  2  1  0
 33  7  1  0
 29 14  1  0
 28 19  1  0
M  END
>  <cnnaffinity>  (1) 
-5.43781

>  <filename>  (1) 
O=c1[nH]c(-c2cccnc2)cn1Cc1ccc2ccccc2c1

$$$$
