
     RDKit          3D

 39 42  0  0  0  0  0  0  0  0999 V2000
    4.9649    1.7704   17.0105 H   0  0  0  0  0  0  0  0  0  0  0  0
    5.4297    1.2665   17.8560 C   0  0  0  0  0  0  0  0  0  0  0  0
    6.5892    0.6425   17.6047 N   0  0  0  0  0  0  0  0  0  0  0  0
    7.2033    0.0432   18.6301 C   0  0  0  0  0  0  0  0  0  0  0  0
    8.1578   -0.4286   18.4111 H   0  0  0  0  0  0  0  0  0  0  0  0
    6.6782   -0.0019   19.9255 C   0  0  0  0  0  0  0  0  0  0  0  0
    7.4292   -0.7398   20.9653 C   0  0  0  0  0  0  0  0  0  0  0  0
    8.7346   -0.7162   20.8898 N   0  0  0  0  0  0  0  0  0  0  0  0
    9.4478   -1.3137   21.8870 C   0  0  0  0  0  0  0  0  0  0  0  0
   10.6540   -1.4120   21.9280 O   0  0  0  0  0  0  0  0  0  0  0  0
    8.7581   -1.8553   22.9612 N   0  0  0  0  0  0  0  0  0  0  0  0
    9.3533   -2.4470   23.4984 H   0  0  0  0  0  0  0  0  0  0  0  0
    7.4238   -2.0443   22.9436 C   0  0  0  0  0  0  0  0  0  0  0  0
    6.9367   -2.8132   23.9550 N   0  0  0  0  0  0  0  0  0  0  0  0
    5.6796   -3.5337   23.7573 C   0  0  0  0  0  0  0  0  0  0  0  0
    5.6434   -3.9025   22.7222 H   0  0  0  0  0  0  0  0  0  0  0  0
    4.8097   -2.8660   23.8962 H   0  0  0  0  0  0  0  0  0  0  0  0
    5.5200   -4.7186   24.7096 C   0  0  0  0  0  0  0  0  0  0  0  0
    4.4840   -5.6453   24.5027 C   0  0  0  0  0  0  0  0  0  0  0  0
    3.8050   -5.5226   23.6610 H   0  0  0  0  0  0  0  0  0  0  0  0
    4.3035   -6.7318   25.3661 C   0  0  0  0  0  0  0  0  0  0  0  0
    3.4969   -7.4444   25.1903 H   0  0  0  0  0  0  0  0  0  0  0  0
    5.1625   -6.8994   26.4588 C   0  0  0  0  0  0  0  0  0  0  0  0
    5.0336   -7.7422   27.1388 H   0  0  0  0  0  0  0  0  0  0  0  0
    6.1897   -5.9751   26.6790 C   0  0  0  0  0  0  0  0  0  0  0  0
    6.8604   -6.1053   27.5290 H   0  0  0  0  0  0  0  0  0  0  0  0
    6.3766   -4.8814   25.8174 C   0  0  0  0  0  0  0  0  0  0  0  0
    7.5166   -3.9004   26.0448 C   0  0  0  0  0  0  0  0  0  0  0  0
    7.6959   -3.7588   27.1173 H   0  0  0  0  0  0  0  0  0  0  0  0
    8.4336   -4.3295   25.6193 H   0  0  0  0  0  0  0  0  0  0  0  0
    7.2578   -2.5573   25.3635 C   0  0  0  0  0  0  0  0  0  0  0  0
    6.4100   -2.0437   25.8487 H   0  0  0  0  0  0  0  0  0  0  0  0
    8.1190   -1.8884   25.4614 H   0  0  0  0  0  0  0  0  0  0  0  0
    6.7061   -1.4552   21.9407 C   0  0  0  0  0  0  0  0  0  0  0  0
    5.6353   -1.5297   21.8965 H   0  0  0  0  0  0  0  0  0  0  0  0
    5.4551    0.6452   20.1744 C   0  0  0  0  0  0  0  0  0  0  0  0
    5.0106    0.6577   21.1750 H   0  0  0  0  0  0  0  0  0  0  0  0
    4.8214    1.2975   19.1180 C   0  0  0  0  0  0  0  0  0  0  0  0
    3.8833    1.8301   19.2558 H   0  0  0  0  0  0  0  0  0  0  0  0
  1  2  1  0
  2  3  2  0
  3  4  1  0
  4  5  1  0
  4  6  2  0
  6  7  1  0
  7  8  2  0
  8  9  1  0
  9 10  2  0
  9 11  1  0
 11 12  1  0
 11 13  1  0
 13 14  1  0
 14 15  1  0
 15 16  1  0
 15 17  1  0
 15 18  1  0
 18 19  2  0
 19 20  1  0
 19 21  1  0
 21 22  1  0
 21 23  2  0
 23 24  1  0
 23 25  1  0
 25 26  1  0
 25 27  2  0
 27 28  1  0
 28 29  1  0
 28 30  1  0
 28 31  1  0
 31 32  1  0
 31 33  1  0
 13 34  2  0
 34 35  1  0
  6 36  1  0
 36 37  1  0
 36 38  2  0
 38 39  1  0
 38  2  1  0
 34  7  1  0
 31 14  1  0
 27 18  1  0
M  END
>  <cnnaffinity>  (1) 
-5.39139

>  <filename>  (1) 
O=c1nc(-c2cccnc2)cc(N2CCc3ccccc3C2)[nH]1

$$$$
