
     RDKit          3D

 33 36  0  0  0  0  0  0  0  0999 V2000
    4.9207    1.8008   16.9695 H   0  0  0  0  0  0  0  0  0  0  0  0
    5.3933    1.3031   17.8162 C   0  0  0  0  0  0  0  0  0  0  0  0
    6.5584    0.6844   17.5609 N   0  0  0  0  0  0  0  0  0  0  0  0
    7.1713    0.0722   18.5823 C   0  0  0  0  0  0  0  0  0  0  0  0
    8.1080   -0.4225   18.3298 H   0  0  0  0  0  0  0  0  0  0  0  0
    6.6646    0.0215   19.8950 C   0  0  0  0  0  0  0  0  0  0  0  0
    7.3381   -0.6962   20.9773 C   0  0  0  0  0  0  0  0  0  0  0  0
    6.8200   -1.2255   22.1013 C   0  0  0  0  0  0  0  0  0  0  0  0
    5.7967   -1.3053   22.3875 H   0  0  0  0  0  0  0  0  0  0  0  0
    7.8330   -1.7977   22.8594 N   0  0  0  0  0  0  0  0  0  0  0  0
    7.6692   -2.4709   24.0999 C   0  0  0  0  0  0  0  0  0  0  0  0
    6.6845   -1.9997   25.0106 C   0  0  0  0  0  0  0  0  0  0  0  0
    6.0811   -1.1367   24.7415 H   0  0  0  0  0  0  0  0  0  0  0  0
    6.5054   -2.6224   26.2371 C   0  0  0  0  0  0  0  0  0  0  0  0
    5.7579   -2.2648   26.9377 H   0  0  0  0  0  0  0  0  0  0  0  0
    7.3025   -3.7385   26.5708 C   0  0  0  0  0  0  0  0  0  0  0  0
    7.3981   -4.6080   27.7123 C   0  0  0  0  0  0  0  0  0  0  0  0
    6.7976   -4.5631   28.6107 H   0  0  0  0  0  0  0  0  0  0  0  0
    8.3792   -5.5154   27.4423 C   0  0  0  0  0  0  0  0  0  0  0  0
    8.7503   -6.3382   28.0371 H   0  0  0  0  0  0  0  0  0  0  0  0
    8.9043   -5.2656   26.1908 N   0  0  0  0  0  0  0  0  0  0  0  0
    9.6440   -5.7697   25.7362 H   0  0  0  0  0  0  0  0  0  0  0  0
    8.2655   -4.1907   25.6332 C   0  0  0  0  0  0  0  0  0  0  0  0
    8.4673   -3.5733   24.3882 C   0  0  0  0  0  0  0  0  0  0  0  0
    9.2175   -3.8897   23.6724 H   0  0  0  0  0  0  0  0  0  0  0  0
    9.0420   -1.6350   22.1748 C   0  0  0  0  0  0  0  0  0  0  0  0
   10.1695   -1.9716   22.4728 O   0  0  0  0  0  0  0  0  0  0  0  0
    8.6943   -0.9813   21.0174 N   0  0  0  0  0  0  0  0  0  0  0  0
    9.4417   -0.6858   20.4199 H   0  0  0  0  0  0  0  0  0  0  0  0
    5.4373    0.6660   20.1338 C   0  0  0  0  0  0  0  0  0  0  0  0
    5.0056    0.6610   21.1346 H   0  0  0  0  0  0  0  0  0  0  0  0
    4.7976    1.3208   19.0832 C   0  0  0  0  0  0  0  0  0  0  0  0
    3.8635    1.8517   19.2308 H   0  0  0  0  0  0  0  0  0  0  0  0
  1  2  1  0
  2  3  2  0
  3  4  1  0
  4  5  1  0
  4  6  2  0
  6  7  1  0
  7  8  2  0
  8  9  1  0
  8 10  1  0
 10 11  1  0
 11 12  2  0
 12 13  1  0
 12 14  1  0
 14 15  1  0
 14 16  2  0
 16 17  1  0
 17 18  1  0
 17 19  2  0
 19 20  1  0
 19 21  1  0
 21 22  1  0
 21 23  1  0
 23 24  2  0
 24 25  1  0
 10 26  1  0
 26 27  2  0
 26 28  1  0
 28 29  1  0
  6 30  1  0
 30 31  1  0
 30 32  2  0
 32 33  1  0
 32  2  1  0
 28  7  1  0
 24 11  1  0
 23 16  1  0
M  END
>  <cnnaffinity>  (1) 
-5.30799

>  <filename>  (1) 
O=c1[nH]c(-c2cccnc2)cn1-c1ccc2cc[nH]c2c1

$$$$
