
     RDKit          3D

 28 30  0  0  0  0  0  0  0  0999 V2000
   13.9007   -1.1464   22.8706 H   0  0  0  0  0  0  0  0  0  0  0  0
   13.0016   -0.6432   22.5433 C   0  0  0  0  0  0  0  0  0  0  0  0
   12.7437    0.5903   22.1187 C   0  0  0  0  0  0  0  0  0  0  0  0
   13.3515    1.4790   22.0278 H   0  0  0  0  0  0  0  0  0  0  0  0
   11.3156    0.6599   21.6817 C   0  0  0  0  0  0  0  0  0  0  0  0
   10.7699    1.5678   21.1299 O   0  0  0  0  0  0  0  0  0  0  0  0
   10.7542   -0.5680   22.0364 N   0  0  0  0  0  0  0  0  0  0  0  0
    9.4087   -0.9005   21.9556 C   0  0  0  0  0  0  0  0  0  0  0  0
    8.7191   -0.3684   20.9922 N   0  0  0  0  0  0  0  0  0  0  0  0
    7.3841   -0.6661   20.9288 N   0  0  0  0  0  0  0  0  0  0  0  0
    6.6872    0.0270   19.8968 C   0  0  0  0  0  0  0  0  0  0  0  0
    7.2360    0.0937   18.6031 C   0  0  0  0  0  0  0  0  0  0  0  0
    8.2027   -0.3686   18.4074 H   0  0  0  0  0  0  0  0  0  0  0  0
    6.6118    0.6884   17.5829 N   0  0  0  0  0  0  0  0  0  0  0  0
    5.4359    1.2908   17.8384 C   0  0  0  0  0  0  0  0  0  0  0  0
    4.9535    1.7722   16.9911 H   0  0  0  0  0  0  0  0  0  0  0  0
    4.8336    1.3050   19.1011 C   0  0  0  0  0  0  0  0  0  0  0  0
    3.8906    1.8232   19.2440 H   0  0  0  0  0  0  0  0  0  0  0  0
    5.4630    0.6436   20.1579 C   0  0  0  0  0  0  0  0  0  0  0  0
    5.0318    0.5977   21.1563 H   0  0  0  0  0  0  0  0  0  0  0  0
    6.7119   -1.6814   21.6987 C   0  0  0  0  0  0  0  0  0  0  0  0
    5.5883   -2.0714   21.4378 O   0  0  0  0  0  0  0  0  0  0  0  0
    7.5516   -2.2011   22.7740 C   0  0  0  0  0  0  0  0  0  0  0  0
    7.0611   -2.9407   23.3964 H   0  0  0  0  0  0  0  0  0  0  0  0
    8.8569   -1.8357   22.8959 C   0  0  0  0  0  0  0  0  0  0  0  0
    9.5134   -2.2480   23.6558 H   0  0  0  0  0  0  0  0  0  0  0  0
   11.7460   -1.4419   22.4454 C   0  0  0  0  0  0  0  0  0  0  0  0
   11.5853   -2.6102   22.6828 O   0  0  0  0  0  0  0  0  0  0  0  0
  1  2  1  0
  2  3  2  0
  3  4  1  0
  3  5  1  0
  5  6  2  0
  5  7  1  0
  7  8  1  0
  8  9  2  0
  9 10  1  0
 10 11  1  0
 11 12  2  0
 12 13  1  0
 12 14  1  0
 14 15  2  0
 15 16  1  0
 15 17  1  0
 17 18  1  0
 17 19  2  0
 19 20  1  0
 10 21  1  0
 21 22  2  0
 21 23  1  0
 23 24  1  0
 23 25  2  0
 25 26  1  0
  7 27  1  0
 27 28  2  0
 27  2  1  0
 25  8  1  0
 19 11  1  0
M  END
>  <cnnaffinity>  (1) 
-5.42463

>  <filename>  (1) 
O=C1C=CC(=O)N1c1ccc(=O)n(-c2cccnc2)n1

$$$$
