
     RDKit          3D

 33 35  0  0  0  0  0  0  0  0999 V2000
    4.9589    1.7793   16.9791 H   0  0  0  0  0  0  0  0  0  0  0  0
    5.4148    1.3073   17.8475 C   0  0  0  0  0  0  0  0  0  0  0  0
    6.6035    0.7178   17.6414 N   0  0  0  0  0  0  0  0  0  0  0  0
    7.1907    0.1227   18.6887 C   0  0  0  0  0  0  0  0  0  0  0  0
    8.1521   -0.3504   18.4994 H   0  0  0  0  0  0  0  0  0  0  0  0
    6.6245    0.0883   19.9757 C   0  0  0  0  0  0  0  0  0  0  0  0
    7.2304   -0.6289   21.0574 N   0  0  0  0  0  0  0  0  0  0  0  0
    7.5256    0.1213   22.1656 N   0  0  0  0  0  0  0  0  0  0  0  0
    8.2215   -0.4403   23.1151 C   0  0  0  0  0  0  0  0  0  0  0  0
    8.4942    0.3825   24.3517 C   0  0  0  0  0  0  0  0  0  0  0  0
    7.6737    1.0994   24.4680 H   0  0  0  0  0  0  0  0  0  0  0  0
    8.4809   -0.2775   25.2254 H   0  0  0  0  0  0  0  0  0  0  0  0
    9.8204    1.1062   24.2599 C   0  0  0  0  0  0  0  0  0  0  0  0
   11.0070    0.5326   24.7373 C   0  0  0  0  0  0  0  0  0  0  0  0
   10.9797   -0.4143   25.2734 H   0  0  0  0  0  0  0  0  0  0  0  0
   12.2322    1.1732   24.5340 C   0  0  0  0  0  0  0  0  0  0  0  0
   13.1521    0.7069   24.8770 H   0  0  0  0  0  0  0  0  0  0  0  0
   12.2821    2.4082   23.8825 C   0  0  0  0  0  0  0  0  0  0  0  0
   13.2277    2.9077   23.6947 H   0  0  0  0  0  0  0  0  0  0  0  0
   11.0909    2.9947   23.4481 C   0  0  0  0  0  0  0  0  0  0  0  0
   11.1377    4.5666   22.7063 Cl  0  0  0  0  0  0  0  0  0  0  0  0
    9.8673    2.3438   23.6079 C   0  0  0  0  0  0  0  0  0  0  0  0
    8.9572    2.7906   23.2140 H   0  0  0  0  0  0  0  0  0  0  0  0
    8.7124   -1.7980   22.9988 C   0  0  0  0  0  0  0  0  0  0  0  0
    9.4111   -2.1657   23.7561 H   0  0  0  0  0  0  0  0  0  0  0  0
    8.2570   -2.5921   21.9902 C   0  0  0  0  0  0  0  0  0  0  0  0
    8.5087   -3.6390   21.8717 H   0  0  0  0  0  0  0  0  0  0  0  0
    7.2766   -2.0730   21.0307 C   0  0  0  0  0  0  0  0  0  0  0  0
    6.5973   -2.7323   20.2685 O   0  0  0  0  0  0  0  0  0  0  0  0
    5.4258    0.7670   20.1961 C   0  0  0  0  0  0  0  0  0  0  0  0
    5.0386    0.8449   21.2108 H   0  0  0  0  0  0  0  0  0  0  0  0
    4.7896    1.3585   19.0981 C   0  0  0  0  0  0  0  0  0  0  0  0
    3.8493    1.8840   19.2151 H   0  0  0  0  0  0  0  0  0  0  0  0
  1  2  1  0
  2  3  2  0
  3  4  1  0
  4  5  1  0
  4  6  2  0
  6  7  1  0
  7  8  1  0
  8  9  2  0
  9 10  1  0
 10 11  1  0
 10 12  1  0
 10 13  1  0
 13 14  2  0
 14 15  1  0
 14 16  1  0
 16 17  1  0
 16 18  2  0
 18 19  1  0
 18 20  1  0
 20 21  1  0
 20 22  2  0
 22 23  1  0
  9 24  1  0
 24 25  1  0
 24 26  2  0
 26 27  1  0
 26 28  1  0
 28 29  2  0
  6 30  1  0
 30 31  1  0
 30 32  2  0
 32 33  1  0
 32  2  1  0
 28  7  1  0
 22 13  1  0
M  END
>  <cnnaffinity>  (1) 
-5.47212

>  <filename>  (1) 
O=c1ccc(Cc2cccc(Cl)c2)nn1-c1cccnc1

$$$$
