
     RDKit          3D

 32 34  0  0  0  0  0  0  0  0999 V2000
    4.9754    1.8112   16.9990 H   0  0  0  0  0  0  0  0  0  0  0  0
    5.4309    1.2906   17.8413 C   0  0  0  0  0  0  0  0  0  0  0  0
    6.5801    0.6455   17.5911 N   0  0  0  0  0  0  0  0  0  0  0  0
    7.1717    0.0235   18.6216 C   0  0  0  0  0  0  0  0  0  0  0  0
    8.0857   -0.5078   18.3635 H   0  0  0  0  0  0  0  0  0  0  0  0
    6.6720    0.0028   19.9372 C   0  0  0  0  0  0  0  0  0  0  0  0
    7.3976   -0.6939   21.0415 C   0  0  0  0  0  0  0  0  0  0  0  0
    6.6033   -1.2327   22.0300 N   0  0  0  0  0  0  0  0  0  0  0  0
    7.1625   -1.9529   22.9911 C   0  0  0  0  0  0  0  0  0  0  0  0
    6.3821   -2.6347   24.0484 C   0  0  0  0  0  0  0  0  0  0  0  0
    6.7695   -2.3472   25.2967 N   0  0  0  0  0  0  0  0  0  0  0  0
    6.0298   -2.7501   26.3257 C   0  0  0  0  0  0  0  0  0  0  0  0
    6.3889   -2.4618   27.3103 H   0  0  0  0  0  0  0  0  0  0  0  0
    4.8588   -3.4935   26.1625 C   0  0  0  0  0  0  0  0  0  0  0  0
    4.2772   -3.7555   27.0327 H   0  0  0  0  0  0  0  0  0  0  0  0
    4.4943   -3.8961   24.8839 C   0  0  0  0  0  0  0  0  0  0  0  0
    3.5966   -4.5012   24.7454 H   0  0  0  0  0  0  0  0  0  0  0  0
    5.3078   -3.5215   23.8052 C   0  0  0  0  0  0  0  0  0  0  0  0
    5.1422   -4.1492   22.4467 C   0  0  0  0  0  0  0  0  0  0  0  0
    4.2174   -5.1244   22.4491 F   0  0  0  0  0  0  0  0  0  0  0  0
    6.2984   -4.6961   22.0147 F   0  0  0  0  0  0  0  0  0  0  0  0
    4.7656   -3.2679   21.5105 F   0  0  0  0  0  0  0  0  0  0  0  0
    8.6214   -2.1545   23.1291 C   0  0  0  0  0  0  0  0  0  0  0  0
    9.2472   -2.8241   23.9304 O   0  0  0  0  0  0  0  0  0  0  0  0
    9.3425   -1.4969   22.1302 N   0  0  0  0  0  0  0  0  0  0  0  0
   10.3378   -1.6537   22.2469 H   0  0  0  0  0  0  0  0  0  0  0  0
    8.7682   -0.8033   21.0891 C   0  0  0  0  0  0  0  0  0  0  0  0
    9.4417   -0.3610   20.3612 H   0  0  0  0  0  0  0  0  0  0  0  0
    5.4404    0.6443   20.1626 C   0  0  0  0  0  0  0  0  0  0  0  0
    4.9853    0.6038   21.1530 H   0  0  0  0  0  0  0  0  0  0  0  0
    4.8214    1.3051   19.0999 C   0  0  0  0  0  0  0  0  0  0  0  0
    3.8852    1.8358   19.2320 H   0  0  0  0  0  0  0  0  0  0  0  0
  1  2  1  0
  2  3  2  0
  3  4  1  0
  4  5  1  0
  4  6  2  0
  6  7  1  0
  7  8  1  0
  8  9  2  0
  9 10  1  0
 10 11  2  0
 11 12  1  0
 12 13  1  0
 12 14  2  0
 14 15  1  0
 14 16  1  0
 16 17  1  0
 16 18  2  0
 18 19  1  0
 19 20  1  0
 19 21  1  0
 19 22  1  0
  9 23  1  0
 23 24  2  0
 23 25  1  0
 25 26  1  0
 25 27  1  0
 27 28  1  0
  6 29  1  0
 29 30  1  0
 29 31  2  0
 31 32  1  0
 31  2  1  0
 27  7  2  0
 18 10  1  0
M  END
>  <cnnaffinity>  (1) 
-5.4722

>  <filename>  (1) 
O=c1[nH]cc(-c2cccnc2)nc1-c1ncccc1C(F)(F)F

$$$$
