
     RDKit          3D

 32 34  0  0  0  0  0  0  0  0999 V2000
    4.9201    1.8073   16.9774 H   0  0  0  0  0  0  0  0  0  0  0  0
    5.3943    1.3036   17.8156 C   0  0  0  0  0  0  0  0  0  0  0  0
    6.5599    0.6933   17.5495 N   0  0  0  0  0  0  0  0  0  0  0  0
    7.1694    0.0716   18.5657 C   0  0  0  0  0  0  0  0  0  0  0  0
    8.1232   -0.4066   18.3324 H   0  0  0  0  0  0  0  0  0  0  0  0
    6.6542    0.0026   19.8748 C   0  0  0  0  0  0  0  0  0  0  0  0
    7.3887   -0.6936   21.0107 C   0  0  2  0  0  0  0  0  0  0  0  0
    8.2351   -1.2514   20.5803 H   0  0  0  0  0  0  0  0  0  0  0  0
    6.5281   -1.7375   21.7439 C   0  0  0  0  0  0  0  0  0  0  0  0
    5.9506   -2.7033   21.2905 O   0  0  0  0  0  0  0  0  0  0  0  0
    6.5288   -1.4362   23.0648 N   0  0  0  0  0  0  0  0  0  0  0  0
    5.7696   -1.8914   23.5524 H   0  0  0  0  0  0  0  0  0  0  0  0
    7.0881   -0.1429   23.4095 C   0  0  0  0  0  0  0  0  0  0  0  0
    7.7416   -0.2425   24.2876 H   0  0  0  0  0  0  0  0  0  0  0  0
    6.3200    0.5972   23.6761 H   0  0  0  0  0  0  0  0  0  0  0  0
    7.8628    0.2927   22.1308 C   0  0  1  0  0  0  0  0  0  0  0  0
    7.6059    1.3315   21.8719 H   0  0  0  0  0  0  0  0  0  0  0  0
    9.3648    0.2469   22.3201 C   0  0  0  0  0  0  0  0  0  0  0  0
    9.9809   -0.9588   22.6859 C   0  0  0  0  0  0  0  0  0  0  0  0
    9.3660   -1.8317   22.9055 H   0  0  0  0  0  0  0  0  0  0  0  0
   11.3694   -1.0624   22.7719 C   0  0  0  0  0  0  0  0  0  0  0  0
   11.8360   -2.0324   22.9096 H   0  0  0  0  0  0  0  0  0  0  0  0
   12.1445    0.0939   22.6136 C   0  0  0  0  0  0  0  0  0  0  0  0
   13.8630    0.0203   22.8799 Cl  0  0  0  0  0  0  0  0  0  0  0  0
   11.5528    1.3104   22.2624 C   0  0  0  0  0  0  0  0  0  0  0  0
   12.1817    2.1771   22.0879 H   0  0  0  0  0  0  0  0  0  0  0  0
   10.1648    1.3769   22.0943 C   0  0  0  0  0  0  0  0  0  0  0  0
    9.7036    2.3053   21.7501 H   0  0  0  0  0  0  0  0  0  0  0  0
    5.4404    0.6526   20.1286 C   0  0  0  0  0  0  0  0  0  0  0  0
    5.0130    0.6382   21.1337 H   0  0  0  0  0  0  0  0  0  0  0  0
    4.7978    1.3155   19.0818 C   0  0  0  0  0  0  0  0  0  0  0  0
    3.8656    1.8473   19.2380 H   0  0  0  0  0  0  0  0  0  0  0  0
  1  2  1  0
  2  3  2  0
  3  4  1  0
  4  5  1  0
  4  6  2  0
  6  7  1  0
  7  8  1  6
  7  9  1  0
  9 10  2  0
  9 11  1  0
 11 12  1  0
 11 13  1  0
 13 14  1  0
 13 15  1  0
 13 16  1  0
 16 17  1  6
 16 18  1  0
 18 19  2  0
 19 20  1  0
 19 21  1  0
 21 22  1  0
 21 23  2  0
 23 24  1  0
 23 25  1  0
 25 26  1  0
 25 27  2  0
 27 28  1  0
  6 29  1  0
 29 30  1  0
 29 31  2  0
 31 32  1  0
 31  2  1  0
 16  7  1  0
 27 18  1  0
M  END
>  <cnnaffinity>  (1) 
-5.3598

>  <filename>  (1) 
O=C1NC[C@@H](c2ccc(Cl)cc2)[C@@H]1c1cccnc1

$$$$
