
     RDKit          3D

 32 34  0  0  0  0  0  0  0  0999 V2000
    5.0126    1.8639   16.9614 H   0  0  0  0  0  0  0  0  0  0  0  0
    5.4859    1.3278   17.7796 C   0  0  0  0  0  0  0  0  0  0  0  0
    6.6627    0.7401   17.5001 N   0  0  0  0  0  0  0  0  0  0  0  0
    7.2740    0.0753   18.4854 C   0  0  0  0  0  0  0  0  0  0  0  0
    8.2357   -0.3830   18.2548 H   0  0  0  0  0  0  0  0  0  0  0  0
    6.7254   -0.0733   19.7770 C   0  0  0  0  0  0  0  0  0  0  0  0
    7.3871   -0.8385   20.7675 N   0  0  0  0  0  0  0  0  0  0  0  0
    6.8457   -1.7656   21.6802 C   0  0  0  0  0  0  0  0  0  0  0  0
    5.7037   -2.1922   21.6284 O   0  0  0  0  0  0  0  0  0  0  0  0
    7.9737   -2.0642   22.6045 C   0  0  0  0  0  0  0  0  0  0  0  0
    7.8615   -2.8862   23.8275 C   0  0  0  0  0  0  0  0  0  0  0  0
    8.8303   -2.8382   24.8512 C   0  0  0  0  0  0  0  0  0  0  0  0
    9.6714   -2.1540   24.7736 H   0  0  0  0  0  0  0  0  0  0  0  0
    8.7036   -3.6433   25.9876 C   0  0  0  0  0  0  0  0  0  0  0  0
    9.4551   -3.6037   26.7718 H   0  0  0  0  0  0  0  0  0  0  0  0
    7.6051   -4.4996   26.1343 C   0  0  0  0  0  0  0  0  0  0  0  0
    7.5179   -5.1335   27.0144 H   0  0  0  0  0  0  0  0  0  0  0  0
    6.6040   -4.5087   25.1524 C   0  0  0  0  0  0  0  0  0  0  0  0
    5.3724   -5.3784   25.2871 C   0  0  0  0  0  0  0  0  0  0  0  0
    5.2108   -5.8749   26.5259 F   0  0  0  0  0  0  0  0  0  0  0  0
    4.2519   -4.6944   24.9779 F   0  0  0  0  0  0  0  0  0  0  0  0
    5.4181   -6.4253   24.4398 F   0  0  0  0  0  0  0  0  0  0  0  0
    6.7397   -3.7156   24.0069 C   0  0  0  0  0  0  0  0  0  0  0  0
    5.9691   -3.6886   23.2420 H   0  0  0  0  0  0  0  0  0  0  0  0
    9.0539   -1.4197   22.0998 C   0  0  0  0  0  0  0  0  0  0  0  0
   10.0711   -1.4119   22.4739 H   0  0  0  0  0  0  0  0  0  0  0  0
    8.7754   -0.7592   20.9065 N   0  0  0  0  0  0  0  0  0  0  0  0
    9.1228    0.1936   20.7998 H   0  0  0  0  0  0  0  0  0  0  0  0
    5.5036    0.5543   20.0615 C   0  0  0  0  0  0  0  0  0  0  0  0
    5.0759    0.4859   21.0619 H   0  0  0  0  0  0  0  0  0  0  0  0
    4.8772    1.2741   19.0402 C   0  0  0  0  0  0  0  0  0  0  0  0
    3.9434    1.8004   19.2086 H   0  0  0  0  0  0  0  0  0  0  0  0
  1  2  1  0
  2  3  2  0
  3  4  1  0
  4  5  1  0
  4  6  2  0
  6  7  1  0
  7  8  1  0
  8  9  2  0
  8 10  1  0
 10 11  1  0
 11 12  2  0
 12 13  1  0
 12 14  1  0
 14 15  1  0
 14 16  2  0
 16 17  1  0
 16 18  1  0
 18 19  1  0
 19 20  1  0
 19 21  1  0
 19 22  1  0
 18 23  2  0
 23 24  1  0
 10 25  2  0
 25 26  1  0
 25 27  1  0
 27 28  1  0
  6 29  1  0
 29 30  1  0
 29 31  2  0
 31 32  1  0
 31  2  1  0
 27  7  1  0
 23 11  1  0
M  END
>  <cnnaffinity>  (1) 
-5.3047

>  <filename>  (1) 
O=c1c(-c2cccc(C(F)(F)F)c2)c[nH]n1-c1cccnc1

$$$$
