
     RDKit          3D

 30 32  0  0  0  0  0  0  0  0999 V2000
    4.9458    1.8492   16.9732 H   0  0  0  0  0  0  0  0  0  0  0  0
    5.4137    1.3211   17.8002 C   0  0  0  0  0  0  0  0  0  0  0  0
    6.5781    0.7090   17.5298 N   0  0  0  0  0  0  0  0  0  0  0  0
    7.1740    0.0631   18.5369 C   0  0  0  0  0  0  0  0  0  0  0  0
    8.1244   -0.4128   18.3060 H   0  0  0  0  0  0  0  0  0  0  0  0
    6.6330   -0.0441   19.8368 C   0  0  0  0  0  0  0  0  0  0  0  0
    7.3628   -0.7230   20.8920 N   0  0  0  0  0  0  0  0  0  0  0  0
    8.6190   -0.2537   21.1862 C   0  0  0  0  0  0  0  0  0  0  0  0
    8.9995    0.5663   20.5785 H   0  0  0  0  0  0  0  0  0  0  0  0
    9.3383   -0.7669   22.2093 C   0  0  0  0  0  0  0  0  0  0  0  0
   10.6486   -0.2823   22.4996 C   0  0  0  0  0  0  0  0  0  0  0  0
   11.3438    0.3767   21.6455 N   0  0  0  0  0  0  0  0  0  0  0  0
   12.6015    0.7096   22.3142 C   0  0  0  0  0  0  0  0  0  0  0  0
   12.8508    1.7653   22.1590 H   0  0  0  0  0  0  0  0  0  0  0  0
   13.4146    0.1166   21.8736 H   0  0  0  0  0  0  0  0  0  0  0  0
   12.3930    0.3526   23.8130 C   0  0  0  0  0  0  0  0  0  0  0  0
   12.2504    1.2570   24.4207 H   0  0  0  0  0  0  0  0  0  0  0  0
   13.2344   -0.1998   24.2346 H   0  0  0  0  0  0  0  0  0  0  0  0
   11.1760   -0.4295   23.7340 N   0  0  0  0  0  0  0  0  0  0  0  0
   10.8172   -1.1882   24.3001 H   0  0  0  0  0  0  0  0  0  0  0  0
    8.8154   -1.7962   23.0520 C   0  0  0  0  0  0  0  0  0  0  0  0
    9.3130   -2.2736   24.0608 O   0  0  0  0  0  0  0  0  0  0  0  0
    7.6211   -2.2939   22.6196 N   0  0  0  0  0  0  0  0  0  0  0  0
    7.2250   -3.0256   23.1737 H   0  0  0  0  0  0  0  0  0  0  0  0
    6.8113   -1.8011   21.6396 C   0  0  0  0  0  0  0  0  0  0  0  0
    5.7297   -2.2959   21.4404 O   0  0  0  0  0  0  0  0  0  0  0  0
    5.4275    0.6079   20.1098 C   0  0  0  0  0  0  0  0  0  0  0  0
    4.9944    0.5816   21.1110 H   0  0  0  0  0  0  0  0  0  0  0  0
    4.8099    1.3038   19.0624 C   0  0  0  0  0  0  0  0  0  0  0  0
    3.8808    1.8419   19.2205 H   0  0  0  0  0  0  0  0  0  0  0  0
  1  2  1  0
  2  3  2  0
  3  4  1  0
  4  5  1  0
  4  6  2  0
  6  7  1  0
  7  8  1  0
  8  9  1  0
  8 10  2  0
 10 11  1  0
 11 12  2  0
 12 13  1  0
 13 14  1  0
 13 15  1  0
 13 16  1  0
 16 17  1  0
 16 18  1  0
 16 19  1  0
 19 20  1  0
 10 21  1  0
 21 22  2  0
 21 23  1  0
 23 24  1  0
 23 25  1  0
 25 26  2  0
  6 27  1  0
 27 28  1  0
 27 29  2  0
 29 30  1  0
 29  2  1  0
 25  7  1  0
 19 11  1  0
M  END
>  <cnnaffinity>  (1) 
-4.48342

>  <filename>  (1) 
O=c1[nH]c(=O)n(-c2cccnc2)cc1C1=NCCN1

$$$$
