
     RDKit          3D

 41 43  0  0  0  0  0  0  0  0999 V2000
    3.7614   -9.2106   25.6322 H   0  0  0  0  0  0  0  0  0  0  0  0
    3.2935   -8.8404   24.8719 O   0  0  0  0  0  0  0  0  0  0  0  0
    4.1053   -7.8666   24.2206 C   0  0  0  0  0  0  0  0  0  0  0  0
    5.0696   -8.2808   23.8883 H   0  0  0  0  0  0  0  0  0  0  0  0
    3.5439   -7.5920   23.3241 H   0  0  0  0  0  0  0  0  0  0  0  0
    4.3507   -6.5988   25.0587 C   0  0  0  0  0  0  0  0  0  0  0  0
    4.8698   -6.8967   25.9787 H   0  0  0  0  0  0  0  0  0  0  0  0
    3.3729   -6.1804   25.3664 H   0  0  0  0  0  0  0  0  0  0  0  0
    5.1936   -5.6065   24.3892 N   0  0  0  0  0  0  0  0  0  0  0  0
    4.6156   -5.0311   23.1508 C   0  0  0  0  0  0  0  0  0  0  0  0
    4.9182   -5.6572   22.3026 H   0  0  0  0  0  0  0  0  0  0  0  0
    3.5116   -5.0572   23.1631 H   0  0  0  0  0  0  0  0  0  0  0  0
    4.9939   -3.5447   22.9017 C   0  0  0  0  0  0  0  0  0  0  0  0
    4.3057   -2.9458   23.5091 H   0  0  0  0  0  0  0  0  0  0  0  0
    4.8379   -3.2573   21.8616 H   0  0  0  0  0  0  0  0  0  0  0  0
    6.3654   -3.2196   23.3043 N   0  0  0  0  0  0  0  0  0  0  0  0
    7.1065   -2.2809   22.6320 C   0  0  0  0  0  0  0  0  0  0  0  0
    6.5497   -1.6005   21.6525 N   0  0  0  0  0  0  0  0  0  0  0  0
    7.3370   -0.7285   20.9272 N   0  0  0  0  0  0  0  0  0  0  0  0
    6.6454   -0.0524   19.8787 C   0  0  0  0  0  0  0  0  0  0  0  0
    7.1647   -0.0007   18.5741 C   0  0  0  0  0  0  0  0  0  0  0  0
    8.1162   -0.4795   18.3492 H   0  0  0  0  0  0  0  0  0  0  0  0
    6.5494    0.6346   17.5698 N   0  0  0  0  0  0  0  0  0  0  0  0
    5.4056    1.2819   17.8461 C   0  0  0  0  0  0  0  0  0  0  0  0
    4.9547    1.8398   17.0288 H   0  0  0  0  0  0  0  0  0  0  0  0
    4.8082    1.2831   19.1127 C   0  0  0  0  0  0  0  0  0  0  0  0
    3.8949    1.8445   19.2791 H   0  0  0  0  0  0  0  0  0  0  0  0
    5.4255    0.5769   20.1468 C   0  0  0  0  0  0  0  0  0  0  0  0
    5.0039    0.4939   21.1482 H   0  0  0  0  0  0  0  0  0  0  0  0
    8.7167   -0.4208   21.1930 C   0  0  0  0  0  0  0  0  0  0  0  0
    9.3501    0.3961   20.5494 O   0  0  0  0  0  0  0  0  0  0  0  0
    9.2626   -1.2093   22.2963 C   0  0  0  0  0  0  0  0  0  0  0  0
   10.3090   -1.0171   22.5024 H   0  0  0  0  0  0  0  0  0  0  0  0
    8.5025   -2.0928   22.9867 C   0  0  0  0  0  0  0  0  0  0  0  0
    8.9100   -2.6780   23.8024 H   0  0  0  0  0  0  0  0  0  0  0  0
    6.7842   -3.7276   24.6199 C   0  0  0  0  0  0  0  0  0  0  0  0
    7.6734   -4.3588   24.5021 H   0  0  0  0  0  0  0  0  0  0  0  0
    7.0577   -2.8954   25.2863 H   0  0  0  0  0  0  0  0  0  0  0  0
    5.6966   -4.5705   25.2983 C   0  0  0  0  0  0  0  0  0  0  0  0
    4.9016   -3.8958   25.6713 H   0  0  0  0  0  0  0  0  0  0  0  0
    6.1462   -5.0404   26.1778 H   0  0  0  0  0  0  0  0  0  0  0  0
  1  2  1  0
  2  3  1  0
  3  4  1  0
  3  5  1  0
  3  6  1  0
  6  7  1  0
  6  8  1  0
  6  9  1  0
  9 10  1  0
 10 11  1  0
 10 12  1  0
 10 13  1  0
 13 14  1  0
 13 15  1  0
 13 16  1  0
 16 17  1  0
 17 18  2  0
 18 19  1  0
 19 20  1  0
 20 21  2  0
 21 22  1  0
 21 23  1  0
 23 24  2  0
 24 25  1  0
 24 26  1  0
 26 27  1  0
 26 28  2  0
 28 29  1  0
 19 30  1  0
 30 31  2  0
 30 32  1  0
 32 33  1  0
 32 34  2  0
 34 35  1  0
 16 36  1  0
 36 37  1  0
 36 38  1  0
 36 39  1  0
 39 40  1  0
 39 41  1  0
 39  9  1  0
 34 17  1  0
 28 20  1  0
M  END
>  <cnnaffinity>  (1) 
-5.10483

>  <filename>  (1) 
O=c1ccc(N2CCN(CCO)CC2)nn1-c1cccnc1

$$$$
