
     RDKit          3D

 29 31  0  0  0  0  0  0  0  0999 V2000
    4.9442    1.7864   16.7722 H   0  0  0  0  0  0  0  0  0  0  0  0
    5.3366    1.3777   17.6991 C   0  0  0  0  0  0  0  0  0  0  0  0
    6.5252    0.7689   17.5991 N   0  0  0  0  0  0  0  0  0  0  0  0
    7.0439    0.2552   18.7217 C   0  0  0  0  0  0  0  0  0  0  0  0
    8.0057   -0.2379   18.6028 H   0  0  0  0  0  0  0  0  0  0  0  0
    6.4344    0.3207   19.9926 C   0  0  0  0  0  0  0  0  0  0  0  0
    7.1421   -0.2431   21.2216 C   0  0  2  0  0  0  0  0  0  0  0  0
    6.5299   -0.0332   22.1026 H   0  0  0  0  0  0  0  0  0  0  0  0
    8.5612    0.3613   21.4196 C   0  0  0  0  0  0  0  0  0  0  0  0
    8.6763    1.3425   20.9533 H   0  0  0  0  0  0  0  0  0  0  0  0
    8.7799    0.4746   22.4940 H   0  0  0  0  0  0  0  0  0  0  0  0
    9.4313   -0.6047   20.7715 N   0  0  0  0  0  0  0  0  0  0  0  0
   10.4411   -0.6042   20.8335 H   0  0  0  0  0  0  0  0  0  0  0  0
    8.9358   -1.8657   20.8937 C   0  0  0  0  0  0  0  0  0  0  0  0
    9.6230   -2.8548   20.8160 O   0  0  0  0  0  0  0  0  0  0  0  0
    7.4191   -1.7718   21.0835 C   0  0  1  0  0  0  0  0  0  0  0  0
    7.0059   -2.1170   20.1307 H   0  0  0  0  0  0  0  0  0  0  0  0
    6.8595   -2.7265   22.1147 C   0  0  0  0  0  0  0  0  0  0  0  0
    5.7602   -3.6035   21.9428 C   0  0  0  0  0  0  0  0  0  0  0  0
    5.1068   -3.6775   21.0827 H   0  0  0  0  0  0  0  0  0  0  0  0
    5.5964   -4.4050   22.9855 N   0  0  0  0  0  0  0  0  0  0  0  0
    6.5794   -4.0594   23.8259 N   0  0  0  0  0  0  0  0  0  0  0  0
    6.6534   -4.5666   24.6941 H   0  0  0  0  0  0  0  0  0  0  0  0
    7.3684   -3.0652   23.3490 C   0  0  0  0  0  0  0  0  0  0  0  0
    8.2153   -2.6845   23.9083 H   0  0  0  0  0  0  0  0  0  0  0  0
    5.1862    0.9553   20.0614 C   0  0  0  0  0  0  0  0  0  0  0  0
    4.6639    1.0314   21.0166 H   0  0  0  0  0  0  0  0  0  0  0  0
    4.6238    1.4888   18.8958 C   0  0  0  0  0  0  0  0  0  0  0  0
    3.6629    1.9906   18.8973 H   0  0  0  0  0  0  0  0  0  0  0  0
  1  2  1  0
  2  3  2  0
  3  4  1  0
  4  5  1  0
  4  6  2  0
  6  7  1  0
  7  8  1  1
  7  9  1  0
  9 10  1  0
  9 11  1  0
  9 12  1  0
 12 13  1  0
 12 14  1  0
 14 15  2  0
 14 16  1  0
 16 17  1  6
 16 18  1  0
 18 19  1  0
 19 20  1  0
 19 21  2  0
 21 22  1  0
 22 23  1  0
 22 24  1  0
 24 25  1  0
  6 26  1  0
 26 27  1  0
 26 28  2  0
 28 29  1  0
 28  2  1  0
 16  7  1  0
 24 18  2  0
M  END
>  <cnnaffinity>  (1) 
-4.86052

>  <filename>  (1) 
O=C1NC[C@@H](c2cccnc2)[C@@H]1c1cn[nH]c1

$$$$
