
     RDKit          3D

 31 33  0  0  0  0  0  0  0  0999 V2000
    5.2085    2.1460   16.3617 H   0  0  0  0  0  0  0  0  0  0  0  0
    5.4892    1.7123   17.3208 C   0  0  0  0  0  0  0  0  0  0  0  0
    6.3413    0.6729   17.2680 N   0  0  0  0  0  0  0  0  0  0  0  0
    6.7367    0.1309   18.4254 C   0  0  0  0  0  0  0  0  0  0  0  0
    7.3978   -0.7339   18.3808 H   0  0  0  0  0  0  0  0  0  0  0  0
    6.3438    0.6380   19.6828 C   0  0  0  0  0  0  0  0  0  0  0  0
    6.8740    0.0760   20.8823 N   0  0  0  0  0  0  0  0  0  0  0  0
    6.9350   -1.3016   20.8579 N   0  0  0  0  0  0  0  0  0  0  0  0
    7.4766   -1.9003   21.8907 C   0  0  0  0  0  0  0  0  0  0  0  0
    7.4195   -3.2620   21.7991 N   0  0  0  0  0  0  0  0  0  0  0  0
    7.1143   -3.5040   20.8737 H   0  0  0  0  0  0  0  0  0  0  0  0
    7.7518   -4.2458   22.6890 C   0  0  0  0  0  0  0  0  0  0  0  0
    8.1357   -5.4703   22.1469 C   0  0  0  0  0  0  0  0  0  0  0  0
    8.1355   -5.5912   21.0703 H   0  0  0  0  0  0  0  0  0  0  0  0
    8.5119   -6.4744   23.0254 C   0  0  0  0  0  0  0  0  0  0  0  0
    8.8492   -7.4441   22.6573 H   0  0  0  0  0  0  0  0  0  0  0  0
    8.5204   -6.3259   24.3571 N   0  0  0  0  0  0  0  0  0  0  0  0
    8.0849   -5.1651   24.8535 C   0  0  0  0  0  0  0  0  0  0  0  0
    8.0708   -5.0747   25.9384 H   0  0  0  0  0  0  0  0  0  0  0  0
    7.6781   -4.0904   24.0735 C   0  0  0  0  0  0  0  0  0  0  0  0
    7.2999   -3.1857   24.5316 H   0  0  0  0  0  0  0  0  0  0  0  0
    8.1758   -1.2038   22.9249 C   0  0  0  0  0  0  0  0  0  0  0  0
    8.7002   -1.7856   23.6761 H   0  0  0  0  0  0  0  0  0  0  0  0
    8.2013    0.1532   22.8954 C   0  0  0  0  0  0  0  0  0  0  0  0
    8.7467    0.7644   23.6042 H   0  0  0  0  0  0  0  0  0  0  0  0
    7.4617    0.9205   21.8974 C   0  0  0  0  0  0  0  0  0  0  0  0
    7.3776    2.1348   21.9033 O   0  0  0  0  0  0  0  0  0  0  0  0
    5.4352    1.6981   19.7339 C   0  0  0  0  0  0  0  0  0  0  0  0
    5.0951    2.0958   20.6884 H   0  0  0  0  0  0  0  0  0  0  0  0
    5.0000    2.2364   18.5199 C   0  0  0  0  0  0  0  0  0  0  0  0
    4.2962    3.0623   18.4864 H   0  0  0  0  0  0  0  0  0  0  0  0
  1  2  1  0
  2  3  2  0
  3  4  1  0
  4  5  1  0
  4  6  2  0
  6  7  1  0
  7  8  1  0
  8  9  2  0
  9 10  1  0
 10 11  1  0
 10 12  1  0
 12 13  2  0
 13 14  1  0
 13 15  1  0
 15 16  1  0
 15 17  2  0
 17 18  1  0
 18 19  1  0
 18 20  2  0
 20 21  1  0
  9 22  1  0
 22 23  1  0
 22 24  2  0
 24 25  1  0
 24 26  1  0
 26 27  2  0
  6 28  1  0
 28 29  1  0
 28 30  2  0
 30 31  1  0
 30  2  1  0
 26  7  1  0
 20 12  1  0
M  END
>  <cnnaffinity>  (1) 
-4.94382

>  <filename>  (1) 
O=c1ccc(Nc2ccncc2)nn1-c1cccnc1

$$$$
