
     RDKit          3D

 35 37  0  0  0  0  0  0  0  0999 V2000
    4.9220    1.8009   16.9828 H   0  0  0  0  0  0  0  0  0  0  0  0
    5.3994    1.3032   17.8261 C   0  0  0  0  0  0  0  0  0  0  0  0
    6.5589    0.6827   17.5628 N   0  0  0  0  0  0  0  0  0  0  0  0
    7.1805    0.0757   18.5825 C   0  0  0  0  0  0  0  0  0  0  0  0
    8.1132   -0.4305   18.3447 H   0  0  0  0  0  0  0  0  0  0  0  0
    6.6737    0.0265   19.9015 C   0  0  0  0  0  0  0  0  0  0  0  0
    7.3491   -0.6775   20.9566 N   0  0  0  0  0  0  0  0  0  0  0  0
    8.6517   -0.4366   21.4508 C   0  0  0  0  0  0  0  0  0  0  0  0
    9.5030    0.7144   21.0282 C   0  0  0  0  0  0  0  0  0  0  0  0
   10.5242    0.5532   21.3856 H   0  0  0  0  0  0  0  0  0  0  0  0
    9.5586    0.7673   19.9390 H   0  0  0  0  0  0  0  0  0  0  0  0
    8.9976    2.0624   21.5427 C   0  0  0  0  0  0  0  0  0  0  0  0
    9.6701    2.8639   21.2084 H   0  0  0  0  0  0  0  0  0  0  0  0
    7.9938    2.2595   21.1417 H   0  0  0  0  0  0  0  0  0  0  0  0
    8.9752    2.0190   22.9644 O   0  0  0  0  0  0  0  0  0  0  0  0
    8.5130    3.0832   23.6821 C   0  0  0  0  0  0  0  0  0  0  0  0
    8.4942    2.8975   25.0759 C   0  0  0  0  0  0  0  0  0  0  0  0
    8.8267    1.9434   25.4738 H   0  0  0  0  0  0  0  0  0  0  0  0
    8.0564    3.9257   25.9085 C   0  0  0  0  0  0  0  0  0  0  0  0
    8.0451    3.7734   26.9848 H   0  0  0  0  0  0  0  0  0  0  0  0
    7.6297    5.1470   25.3683 C   0  0  0  0  0  0  0  0  0  0  0  0
    7.2851    5.9446   26.0226 H   0  0  0  0  0  0  0  0  0  0  0  0
    7.6469    5.3244   23.9836 C   0  0  0  0  0  0  0  0  0  0  0  0
    7.3160    6.2641   23.5507 H   0  0  0  0  0  0  0  0  0  0  0  0
    8.0860    4.2996   23.1322 C   0  0  0  0  0  0  0  0  0  0  0  0
    8.1016    4.4450   22.0559 H   0  0  0  0  0  0  0  0  0  0  0  0
    8.8327   -1.2970   22.4589 C   0  0  0  0  0  0  0  0  0  0  0  0
    9.6560   -1.4463   23.1465 H   0  0  0  0  0  0  0  0  0  0  0  0
    7.7101   -2.0698   22.6343 O   0  0  0  0  0  0  0  0  0  0  0  0
    6.7682   -1.7097   21.7088 C   0  0  0  0  0  0  0  0  0  0  0  0
    5.6981   -2.2478   21.5900 O   0  0  0  0  0  0  0  0  0  0  0  0
    5.4533    0.6570   20.1577 C   0  0  0  0  0  0  0  0  0  0  0  0
    5.0320    0.5956   21.1646 H   0  0  0  0  0  0  0  0  0  0  0  0
    4.8171    1.3166   19.0990 C   0  0  0  0  0  0  0  0  0  0  0  0
    3.8803    1.8371   19.2483 H   0  0  0  0  0  0  0  0  0  0  0  0
  1  2  1  0
  2  3  2  0
  3  4  1  0
  4  5  1  0
  4  6  2  0
  6  7  1  0
  7  8  1  0
  8  9  1  0
  9 10  1  0
  9 11  1  0
  9 12  1  0
 12 13  1  0
 12 14  1  0
 12 15  1  0
 15 16  1  0
 16 17  2  0
 17 18  1  0
 17 19  1  0
 19 20  1  0
 19 21  2  0
 21 22  1  0
 21 23  1  0
 23 24  1  0
 23 25  2  0
 25 26  1  0
  8 27  2  0
 27 28  1  0
 27 29  1  0
 29 30  1  0
 30 31  2  0
  6 32  1  0
 32 33  1  0
 32 34  2  0
 34 35  1  0
 34  2  1  0
 30  7  1  0
 25 16  1  0
M  END
>  <cnnaffinity>  (1) 
-5.00225

>  <filename>  (1) 
O=c1occ(CCOc2ccccc2)n1-c1cccnc1

$$$$
