
     RDKit          3D

 33 35  0  0  0  0  0  0  0  0999 V2000
    5.0695    1.6936   16.9502 H   0  0  0  0  0  0  0  0  0  0  0  0
    5.5629    1.2417   17.8086 C   0  0  0  0  0  0  0  0  0  0  0  0
    6.7491    0.6594   17.5750 N   0  0  0  0  0  0  0  0  0  0  0  0
    7.3839    0.0987   18.6120 C   0  0  0  0  0  0  0  0  0  0  0  0
    8.3560   -0.3450   18.4002 H   0  0  0  0  0  0  0  0  0  0  0  0
    6.8459    0.0523   19.9065 C   0  0  0  0  0  0  0  0  0  0  0  0
    7.5736   -0.6548   20.9956 C   0  0  0  0  0  0  0  0  0  0  0  0
    8.8788   -0.5422   21.0235 N   0  0  0  0  0  0  0  0  0  0  0  0
    9.5604   -1.1485   22.0561 N   0  0  0  0  0  0  0  0  0  0  0  0
   10.9613   -0.8765   22.1484 C   0  0  0  0  0  0  0  0  0  0  0  0
   11.8306   -1.9738   22.1705 C   0  0  0  0  0  0  0  0  0  0  0  0
   11.4125   -2.9691   22.2299 H   0  0  0  0  0  0  0  0  0  0  0  0
   13.2094   -1.7794   22.1283 C   0  0  0  0  0  0  0  0  0  0  0  0
   13.8728   -2.6384   22.0752 H   0  0  0  0  0  0  0  0  0  0  0  0
   13.7341   -0.4905   22.1938 C   0  0  0  0  0  0  0  0  0  0  0  0
   14.8044   -0.3441   22.2214 H   0  0  0  0  0  0  0  0  0  0  0  0
   12.8819    0.6103   22.2293 C   0  0  0  0  0  0  0  0  0  0  0  0
   13.2949    1.6152   22.2944 H   0  0  0  0  0  0  0  0  0  0  0  0
   11.4858    0.4392   22.1942 C   0  0  0  0  0  0  0  0  0  0  0  0
   10.6194    1.6882   22.2496 C   0  0  0  0  0  0  0  0  0  0  0  0
   11.3001    2.7474   22.7528 F   0  0  0  0  0  0  0  0  0  0  0  0
   10.1891    2.0610   21.0323 F   0  0  0  0  0  0  0  0  0  0  0  0
    9.5344    1.5296   23.0230 F   0  0  0  0  0  0  0  0  0  0  0  0
    8.9609   -1.9694   23.0569 C   0  0  0  0  0  0  0  0  0  0  0  0
    9.6205   -2.5350   23.9164 O   0  0  0  0  0  0  0  0  0  0  0  0
    7.5163   -2.0368   22.9674 C   0  0  0  0  0  0  0  0  0  0  0  0
    7.0545   -2.6309   23.7471 H   0  0  0  0  0  0  0  0  0  0  0  0
    6.8455   -1.4041   21.9752 C   0  0  0  0  0  0  0  0  0  0  0  0
    5.7657   -1.4801   21.8729 H   0  0  0  0  0  0  0  0  0  0  0  0
    5.6096    0.6739   20.1392 C   0  0  0  0  0  0  0  0  0  0  0  0
    5.1738    0.6907   21.1407 H   0  0  0  0  0  0  0  0  0  0  0  0
    4.9586    1.2816   19.0695 C   0  0  0  0  0  0  0  0  0  0  0  0
    4.0026    1.7747   19.2027 H   0  0  0  0  0  0  0  0  0  0  0  0
  1  2  1  0
  2  3  2  0
  3  4  1  0
  4  5  1  0
  4  6  2  0
  6  7  1  0
  7  8  2  0
  8  9  1  0
  9 10  1  0
 10 11  2  0
 11 12  1  0
 11 13  1  0
 13 14  1  0
 13 15  2  0
 15 16  1  0
 15 17  1  0
 17 18  1  0
 17 19  2  0
 19 20  1  0
 20 21  1  0
 20 22  1  0
 20 23  1  0
  9 24  1  0
 24 25  2  0
 24 26  1  0
 26 27  1  0
 26 28  2  0
 28 29  1  0
  6 30  1  0
 30 31  1  0
 30 32  2  0
 32 33  1  0
 32  2  1  0
 28  7  1  0
 19 10  1  0
M  END
>  <cnnaffinity>  (1) 
-5.8095

>  <filename>  (1) 
O=c1ccc(-c2cccnc2)nn1-c1ccccc1C(F)(F)F

$$$$
