
     RDKit          3D

 33 35  0  0  0  0  0  0  0  0999 V2000
    4.9068    1.7783   16.8903 H   0  0  0  0  0  0  0  0  0  0  0  0
    5.3681    1.3759   17.7907 C   0  0  0  0  0  0  0  0  0  0  0  0
    6.5572    0.7757   17.6262 N   0  0  0  0  0  0  0  0  0  0  0  0
    7.1137    0.2201   18.7083 C   0  0  0  0  0  0  0  0  0  0  0  0
    8.0673   -0.2804   18.5426 H   0  0  0  0  0  0  0  0  0  0  0  0
    6.5540    0.2435   20.0034 C   0  0  0  0  0  0  0  0  0  0  0  0
    7.2131   -0.4847   21.1246 C   0  0  0  0  0  0  0  0  0  0  0  0
    7.5556    0.1502   22.3833 C   0  0  0  0  0  0  0  0  0  0  0  0
    7.3028    1.1878   22.5910 H   0  0  0  0  0  0  0  0  0  0  0  0
    8.2380   -0.4611   23.3082 N   0  0  0  0  0  0  0  0  0  0  0  0
    8.6206   -1.7534   23.0907 N   0  0  0  0  0  0  0  0  0  0  0  0
    9.3502   -2.3972   24.1916 C   0  0  0  0  0  0  0  0  0  0  0  0
    9.6976   -1.6093   24.8666 H   0  0  0  0  0  0  0  0  0  0  0  0
   10.2294   -2.9044   23.7824 H   0  0  0  0  0  0  0  0  0  0  0  0
    8.5027   -3.4095   24.9439 C   0  0  0  0  0  0  0  0  0  0  0  0
    8.6565   -4.7808   24.6773 C   0  0  0  0  0  0  0  0  0  0  0  0
    9.3590   -5.0913   23.9106 H   0  0  0  0  0  0  0  0  0  0  0  0
    7.8740   -5.7309   25.3298 C   0  0  0  0  0  0  0  0  0  0  0  0
    8.0954   -6.7790   25.2036 H   0  0  0  0  0  0  0  0  0  0  0  0
    6.8455   -5.3359   26.1850 C   0  0  0  0  0  0  0  0  0  0  0  0
    6.2257   -6.0911   26.6669 H   0  0  0  0  0  0  0  0  0  0  0  0
    6.6240   -3.9744   26.4155 C   0  0  0  0  0  0  0  0  0  0  0  0
    5.7881   -3.6390   27.0225 H   0  0  0  0  0  0  0  0  0  0  0  0
    7.4922   -3.0299   25.8461 C   0  0  0  0  0  0  0  0  0  0  0  0
    7.2920   -1.3627   26.3251 Cl  0  0  0  0  0  0  0  0  0  0  0  0
    8.3030   -2.5364   21.9486 C   0  0  0  0  0  0  0  0  0  0  0  0
    8.6484   -3.7068   21.8276 O   0  0  0  0  0  0  0  0  0  0  0  0
    7.5523   -1.7952   20.9580 C   0  0  0  0  0  0  0  0  0  0  0  0
    7.2472   -2.3609   20.0931 H   0  0  0  0  0  0  0  0  0  0  0  0
    5.3340    0.9147   20.1555 C   0  0  0  0  0  0  0  0  0  0  0  0
    4.8702    0.9750   21.1393 H   0  0  0  0  0  0  0  0  0  0  0  0
    4.7220    1.4637   19.0257 C   0  0  0  0  0  0  0  0  0  0  0  0
    3.7499    1.9358   19.0816 H   0  0  0  0  0  0  0  0  0  0  0  0
  1  2  1  0
  2  3  2  0
  3  4  1  0
  4  5  1  0
  4  6  2  0
  6  7  1  0
  7  8  1  0
  8  9  1  0
  8 10  2  0
 10 11  1  0
 11 12  1  0
 12 13  1  0
 12 14  1  0
 12 15  1  0
 15 16  2  0
 16 17  1  0
 16 18  1  0
 18 19  1  0
 18 20  2  0
 20 21  1  0
 20 22  1  0
 22 23  1  0
 22 24  2  0
 24 25  1  0
 11 26  1  0
 26 27  2  0
 26 28  1  0
 28 29  1  0
  6 30  1  0
 30 31  1  0
 30 32  2  0
 32 33  1  0
 32  2  1  0
 28  7  2  0
 24 15  1  0
M  END
>  <cnnaffinity>  (1) 
-5.38538

>  <filename>  (1) 
O=c1cc(-c2cccnc2)cnn1Cc1ccccc1Cl

$$$$
