
     RDKit          3D

 31 34  0  0  0  0  0  0  0  0999 V2000
    5.9687   -2.9665   24.2627 H   0  0  0  0  0  0  0  0  0  0  0  0
    6.9917   -3.1470   24.6058 C   0  0  0  0  0  0  0  0  0  0  0  0
    7.1724   -3.7179   25.8091 C   0  0  0  0  0  0  0  0  0  0  0  0
    5.8218   -4.4554   26.6971 S   0  0  0  0  0  0  0  0  0  0  0  0
    6.8167   -4.7640   28.1117 C   0  0  0  0  0  0  0  0  0  0  0  0
    6.3492   -5.4774   29.5003 S   0  0  0  0  0  0  0  0  0  0  0  0
    8.0697   -4.3060   27.8631 N   0  0  0  0  0  0  0  0  0  0  0  0
    8.8118   -4.3549   28.5384 H   0  0  0  0  0  0  0  0  0  0  0  0
    8.3868   -3.7411   26.6542 C   0  0  0  0  0  0  0  0  0  0  0  0
    9.5082   -3.3472   26.4264 O   0  0  0  0  0  0  0  0  0  0  0  0
    7.9820   -2.7135   23.7264 N   0  0  0  0  0  0  0  0  0  0  0  0
    9.2948   -3.2003   23.5361 C   0  0  0  0  0  0  0  0  0  0  0  0
    9.7365   -3.7659   24.3408 H   0  0  0  0  0  0  0  0  0  0  0  0
    9.7684   -2.7296   22.3508 C   0  0  0  0  0  0  0  0  0  0  0  0
   10.7289   -2.7600   21.8638 H   0  0  0  0  0  0  0  0  0  0  0  0
    8.7442   -1.9667   21.8001 N   0  0  0  0  0  0  0  0  0  0  0  0
    8.5657   -1.2687   20.6588 N   0  0  0  0  0  0  0  0  0  0  0  0
    7.3726   -0.6783   20.8492 C   0  0  0  0  0  0  0  0  0  0  0  0
    6.7438    0.1282   19.7772 C   0  0  0  0  0  0  0  0  0  0  0  0
    7.2860    0.1761   18.4760 C   0  0  0  0  0  0  0  0  0  0  0  0
    8.2409   -0.2953   18.2524 H   0  0  0  0  0  0  0  0  0  0  0  0
    6.6773    0.7626   17.4386 N   0  0  0  0  0  0  0  0  0  0  0  0
    5.4940    1.3563   17.6606 C   0  0  0  0  0  0  0  0  0  0  0  0
    5.0092    1.8093   16.7974 H   0  0  0  0  0  0  0  0  0  0  0  0
    4.8866    1.4121   18.9187 C   0  0  0  0  0  0  0  0  0  0  0  0
    3.9387    1.9293   19.0404 H   0  0  0  0  0  0  0  0  0  0  0  0
    5.5289    0.8022   19.9928 C   0  0  0  0  0  0  0  0  0  0  0  0
    5.0918    0.8521   20.9899 H   0  0  0  0  0  0  0  0  0  0  0  0
    6.8021   -0.9934   22.1143 C   0  0  0  0  0  0  0  0  0  0  0  0
    5.9547   -0.5610   22.6115 H   0  0  0  0  0  0  0  0  0  0  0  0
    7.7005   -1.8893   22.6505 C   0  0  0  0  0  0  0  0  0  0  0  0
  1  2  1  0
  2  3  2  3
  3  4  1  0
  4  5  1  0
  5  6  2  0
  5  7  1  0
  7  8  1  0
  7  9  1  0
  9 10  2  0
  2 11  1  0
 11 12  1  0
 12 13  1  0
 12 14  2  0
 14 15  1  0
 14 16  1  0
 16 17  1  0
 17 18  2  0
 18 19  1  0
 19 20  2  0
 20 21  1  0
 20 22  1  0
 22 23  2  0
 23 24  1  0
 23 25  1  0
 25 26  1  0
 25 27  2  0
 27 28  1  0
 18 29  1  0
 29 30  1  0
 29 31  2  0
  9  3  1  0
 31 11  1  0
 31 16  1  0
 27 19  1  0
M  END
>  <cnnaffinity>  (1) 
-5.09314

>  <filename>  (1) 
O=C1NC(=S)SC1=Cn1ccn2nc(-c3cccnc3)cc12

$$$$
