
     RDKit          3D

 30 32  0  0  0  0  0  0  0  0999 V2000
    4.9402    1.8218   16.9415 H   0  0  0  0  0  0  0  0  0  0  0  0
    5.4052    1.3372   17.7987 C   0  0  0  0  0  0  0  0  0  0  0  0
    6.5752    0.7209   17.5659 N   0  0  0  0  0  0  0  0  0  0  0  0
    7.1487    0.0817   18.5963 C   0  0  0  0  0  0  0  0  0  0  0  0
    8.1067   -0.3980   18.3901 H   0  0  0  0  0  0  0  0  0  0  0  0
    6.6054    0.0194   19.9073 C   0  0  0  0  0  0  0  0  0  0  0  0
    7.2439   -0.7140   21.0382 C   0  0  0  0  0  0  0  0  0  0  0  0
    7.8068   -0.2082   22.1570 C   0  0  0  0  0  0  0  0  0  0  0  0
    7.6984    1.0791   22.6129 N   0  0  0  0  0  0  0  0  0  0  0  0
    7.0132    1.6376   22.1258 H   0  0  0  0  0  0  0  0  0  0  0  0
    8.0754    1.5699   23.8637 C   0  0  0  0  0  0  0  0  0  0  0  0
    9.3935    1.4650   24.2969 C   0  0  0  0  0  0  0  0  0  0  0  0
   10.1460    1.0417   23.6478 H   0  0  0  0  0  0  0  0  0  0  0  0
    9.7048    1.9539   25.5616 C   0  0  0  0  0  0  0  0  0  0  0  0
   10.7211    1.8798   25.9399 H   0  0  0  0  0  0  0  0  0  0  0  0
    8.8150    2.5227   26.3815 N   0  0  0  0  0  0  0  0  0  0  0  0
    7.5555    2.6143   25.9440 C   0  0  0  0  0  0  0  0  0  0  0  0
    6.8480    3.0607   26.6393 H   0  0  0  0  0  0  0  0  0  0  0  0
    7.1314    2.1730   24.6928 C   0  0  0  0  0  0  0  0  0  0  0  0
    6.0925    2.2621   24.4054 H   0  0  0  0  0  0  0  0  0  0  0  0
    8.4474   -1.3066   22.9462 C   0  0  0  0  0  0  0  0  0  0  0  0
    8.0478   -1.2987   23.9673 H   0  0  0  0  0  0  0  0  0  0  0  0
    9.5380   -1.2223   22.9924 H   0  0  0  0  0  0  0  0  0  0  0  0
    8.0767   -2.4934   22.2715 O   0  0  0  0  0  0  0  0  0  0  0  0
    7.2755   -2.1849   21.2072 C   0  0  0  0  0  0  0  0  0  0  0  0
    6.7005   -3.0442   20.5945 O   0  0  0  0  0  0  0  0  0  0  0  0
    5.3969    0.7029   20.1179 C   0  0  0  0  0  0  0  0  0  0  0  0
    4.9424    0.6923   21.1105 H   0  0  0  0  0  0  0  0  0  0  0  0
    4.7799    1.3549   19.0472 C   0  0  0  0  0  0  0  0  0  0  0  0
    3.8317    1.8668   19.1661 H   0  0  0  0  0  0  0  0  0  0  0  0
  1  2  1  0
  2  3  2  0
  3  4  1  0
  4  5  1  0
  4  6  2  0
  6  7  1  0
  7  8  2  0
  8  9  1  0
  9 10  1  0
  9 11  1  0
 11 12  2  0
 12 13  1  0
 12 14  1  0
 14 15  1  0
 14 16  2  0
 16 17  1  0
 17 18  1  0
 17 19  2  0
 19 20  1  0
  8 21  1  0
 21 22  1  0
 21 23  1  0
 21 24  1  0
 24 25  1  0
 25 26  2  0
  6 27  1  0
 27 28  1  0
 27 29  2  0
 29 30  1  0
 29  2  1  0
 25  7  1  0
 19 11  1  0
M  END
>  <cnnaffinity>  (1) 
-4.44662

>  <filename>  (1) 
O=C1OCC(Nc2ccncc2)=C1c1cccnc1

$$$$
