
     RDKit          3D

 33 36  0  0  0  0  0  0  0  0999 V2000
    4.9403    1.8085   16.9850 H   0  0  0  0  0  0  0  0  0  0  0  0
    5.3873    1.2975   17.8365 C   0  0  0  0  0  0  0  0  0  0  0  0
    6.5387    0.6607   17.5837 N   0  0  0  0  0  0  0  0  0  0  0  0
    7.1269    0.0267   18.6004 C   0  0  0  0  0  0  0  0  0  0  0  0
    8.1021   -0.4152   18.4021 H   0  0  0  0  0  0  0  0  0  0  0  0
    6.5891   -0.0412   19.9007 C   0  0  0  0  0  0  0  0  0  0  0  0
    7.3109   -0.7587   20.9958 C   0  0  0  0  0  0  0  0  0  0  0  0
    6.5693   -1.5068   21.7677 N   0  0  0  0  0  0  0  0  0  0  0  0
    7.1581   -2.2181   22.8006 N   0  0  0  0  0  0  0  0  0  0  0  0
    6.3149   -3.0420   23.5677 C   0  0  0  0  0  0  0  0  0  0  0  0
    6.8611   -3.9292   25.0042 S   0  0  0  0  0  0  0  0  0  0  0  0
    5.2435   -4.5140   25.3150 C   0  0  0  0  0  0  0  0  0  0  0  0
    4.8431   -5.3954   26.3347 C   0  0  0  0  0  0  0  0  0  0  0  0
    5.5660   -5.8237   27.0252 H   0  0  0  0  0  0  0  0  0  0  0  0
    3.4958   -5.7244   26.4302 C   0  0  0  0  0  0  0  0  0  0  0  0
    3.1620   -6.4065   27.2054 H   0  0  0  0  0  0  0  0  0  0  0  0
    2.5536   -5.1821   25.5353 C   0  0  0  0  0  0  0  0  0  0  0  0
    1.5026   -5.4426   25.6286 H   0  0  0  0  0  0  0  0  0  0  0  0
    2.9567   -4.3352   24.5155 C   0  0  0  0  0  0  0  0  0  0  0  0
    2.2052   -3.9243   23.8551 H   0  0  0  0  0  0  0  0  0  0  0  0
    4.3286   -4.0239   24.3549 C   0  0  0  0  0  0  0  0  0  0  0  0
    4.9977   -3.2681   23.3305 C   0  0  0  0  0  0  0  0  0  0  0  0
    4.5295   -2.9168   22.4219 H   0  0  0  0  0  0  0  0  0  0  0  0
    8.5226   -2.1199   23.0438 C   0  0  0  0  0  0  0  0  0  0  0  0
    8.8911   -2.7084   23.8810 H   0  0  0  0  0  0  0  0  0  0  0  0
    9.3335   -1.3600   22.2970 C   0  0  0  0  0  0  0  0  0  0  0  0
   10.3934   -1.2953   22.4818 H   0  0  0  0  0  0  0  0  0  0  0  0
    8.8088   -0.5713   21.1872 C   0  0  0  0  0  0  0  0  0  0  0  0
    9.5196    0.1545   20.5059 O   0  0  0  0  0  0  0  0  0  0  0  0
    5.3820    0.6247   20.1483 C   0  0  0  0  0  0  0  0  0  0  0  0
    4.9673    0.6136   21.1573 H   0  0  0  0  0  0  0  0  0  0  0  0
    4.7776    1.3181   19.0963 C   0  0  0  0  0  0  0  0  0  0  0  0
    3.8577    1.8769   19.2275 H   0  0  0  0  0  0  0  0  0  0  0  0
  1  2  1  0
  2  3  2  0
  3  4  1  0
  4  5  1  0
  4  6  2  0
  6  7  1  0
  7  8  2  0
  8  9  1  0
  9 10  1  0
 10 11  1  0
 11 12  1  0
 12 13  2  0
 13 14  1  0
 13 15  1  0
 15 16  1  0
 15 17  2  0
 17 18  1  0
 17 19  1  0
 19 20  1  0
 19 21  2  0
 21 22  1  0
 22 23  1  0
  9 24  1  0
 24 25  1  0
 24 26  2  0
 26 27  1  0
 26 28  1  0
 28 29  2  0
  6 30  1  0
 30 31  1  0
 30 32  2  0
 32 33  1  0
 32  2  1  0
 28  7  1  0
 22 10  2  0
 21 12  1  0
M  END
>  <cnnaffinity>  (1) 
-5.4724

>  <filename>  (1) 
O=c1ccn(-c2cc3ccccc3s2)nc1-c1cccnc1

$$$$
