
     RDKit          3D

 31 33  0  0  0  0  0  0  0  0999 V2000
    4.9846    2.0791   16.7391 H   0  0  0  0  0  0  0  0  0  0  0  0
    5.2590    1.4534   17.5861 C   0  0  0  0  0  0  0  0  0  0  0  0
    6.3182    0.6499   17.4031 N   0  0  0  0  0  0  0  0  0  0  0  0
    6.7072   -0.0811   18.4527 C   0  0  0  0  0  0  0  0  0  0  0  0
    7.5780   -0.7213   18.3024 H   0  0  0  0  0  0  0  0  0  0  0  0
    6.0810   -0.0786   19.7156 C   0  0  0  0  0  0  0  0  0  0  0  0
    6.7507   -0.8227   20.8231 C   0  0  0  0  0  0  0  0  0  0  0  0
    8.1459   -0.6346   21.0428 C   0  0  0  0  0  0  0  0  0  0  0  0
    8.6976    0.0289   20.3763 H   0  0  0  0  0  0  0  0  0  0  0  0
    8.8408   -1.2803   22.0399 C   0  0  0  0  0  0  0  0  0  0  0  0
   10.2614   -0.9697   22.2476 C   0  0  0  0  0  0  0  0  0  0  0  0
   11.2532   -1.9492   22.1418 C   0  0  0  0  0  0  0  0  0  0  0  0
   10.9463   -2.9771   22.0178 H   0  0  0  0  0  0  0  0  0  0  0  0
   12.5982   -1.5974   22.1878 C   0  0  0  0  0  0  0  0  0  0  0  0
   13.3698   -2.3502   22.0606 H   0  0  0  0  0  0  0  0  0  0  0  0
   12.9675   -0.2677   22.4106 C   0  0  0  0  0  0  0  0  0  0  0  0
   14.6359    0.1326   22.5022 Cl  0  0  0  0  0  0  0  0  0  0  0  0
   11.9814    0.7226   22.5539 C   0  0  0  0  0  0  0  0  0  0  0  0
   12.3737    2.3760   22.8742 Cl  0  0  0  0  0  0  0  0  0  0  0  0
   10.6424    0.3622   22.4448 C   0  0  0  0  0  0  0  0  0  0  0  0
    9.8708    1.1165   22.5446 H   0  0  0  0  0  0  0  0  0  0  0  0
    8.1464   -2.2479   22.8988 C   0  0  0  0  0  0  0  0  0  0  0  0
    8.5808   -2.9310   23.8138 O   0  0  0  0  0  0  0  0  0  0  0  0
    6.7769   -2.3593   22.6194 N   0  0  0  0  0  0  0  0  0  0  0  0
    6.3496   -2.9236   23.3410 H   0  0  0  0  0  0  0  0  0  0  0  0
    6.0897   -1.7021   21.6352 C   0  0  0  0  0  0  0  0  0  0  0  0
    5.0331   -1.9162   21.5071 H   0  0  0  0  0  0  0  0  0  0  0  0
    4.9244    0.7050   19.8566 C   0  0  0  0  0  0  0  0  0  0  0  0
    4.3573    0.7135   20.7891 H   0  0  0  0  0  0  0  0  0  0  0  0
    4.5299    1.5058   18.7778 C   0  0  0  0  0  0  0  0  0  0  0  0
    3.6878    2.1831   18.8478 H   0  0  0  0  0  0  0  0  0  0  0  0
  1  2  1  0
  2  3  2  0
  3  4  1  0
  4  5  1  0
  4  6  2  0
  6  7  1  0
  7  8  1  0
  8  9  1  0
  8 10  2  0
 10 11  1  0
 11 12  2  0
 12 13  1  0
 12 14  1  0
 14 15  1  0
 14 16  2  0
 16 17  1  0
 16 18  1  0
 18 19  1  0
 18 20  2  0
 20 21  1  0
 10 22  1  0
 22 23  2  0
 22 24  1  0
 24 25  1  0
 24 26  1  0
 26 27  1  0
  6 28  1  0
 28 29  1  0
 28 30  2  0
 30 31  1  0
 30  2  1  0
 26  7  2  0
 20 11  1  0
M  END
>  <cnnaffinity>  (1) 
-5.6075

>  <filename>  (1) 
O=c1[nH]cc(-c2cccnc2)cc1-c1ccc(Cl)c(Cl)c1

$$$$
