
     RDKit          3D

 32 34  0  0  0  0  0  0  0  0999 V2000
    4.9192    1.7979   16.9741 H   0  0  0  0  0  0  0  0  0  0  0  0
    5.3918    1.2999   17.8180 C   0  0  0  0  0  0  0  0  0  0  0  0
    6.5560    0.6813   17.5601 N   0  0  0  0  0  0  0  0  0  0  0  0
    7.1609    0.0581   18.5789 C   0  0  0  0  0  0  0  0  0  0  0  0
    8.1201   -0.4025   18.3403 H   0  0  0  0  0  0  0  0  0  0  0  0
    6.6443    0.0060   19.8869 C   0  0  0  0  0  0  0  0  0  0  0  0
    7.3334   -0.6577   20.9911 C   0  0  0  0  0  0  0  0  0  0  0  0
    7.2444   -0.4290   22.3194 C   0  0  0  0  0  0  0  0  0  0  0  0
    6.6517    0.2970   22.8559 H   0  0  0  0  0  0  0  0  0  0  0  0
    8.1126   -1.2911   22.9637 N   0  0  0  0  0  0  0  0  0  0  0  0
    8.2002   -1.4937   24.3977 C   0  0  0  0  0  0  0  0  0  0  0  0
    8.0845   -0.5088   24.8651 H   0  0  0  0  0  0  0  0  0  0  0  0
    9.2113   -1.8456   24.6142 H   0  0  0  0  0  0  0  0  0  0  0  0
    7.1507   -2.4585   24.9135 C   0  0  0  0  0  0  0  0  0  0  0  0
    5.8634   -2.0041   25.2404 C   0  0  0  0  0  0  0  0  0  0  0  0
    5.6208   -0.9465   25.1461 H   0  0  0  0  0  0  0  0  0  0  0  0
    4.8736   -2.8929   25.6659 C   0  0  0  0  0  0  0  0  0  0  0  0
    3.8745   -2.5474   25.9137 H   0  0  0  0  0  0  0  0  0  0  0  0
    5.1832   -4.2512   25.7650 C   0  0  0  0  0  0  0  0  0  0  0  0
    3.9586   -5.3686   26.2965 Cl  0  0  0  0  0  0  0  0  0  0  0  0
    6.4560   -4.7295   25.4471 C   0  0  0  0  0  0  0  0  0  0  0  0
    6.6689   -5.7905   25.5323 H   0  0  0  0  0  0  0  0  0  0  0  0
    7.4341   -3.8269   25.0212 C   0  0  0  0  0  0  0  0  0  0  0  0
    8.4239   -4.1930   24.7564 H   0  0  0  0  0  0  0  0  0  0  0  0
    8.7096   -2.1332   22.0399 C   0  0  0  0  0  0  0  0  0  0  0  0
    9.4558   -3.0709   22.2247 O   0  0  0  0  0  0  0  0  0  0  0  0
    8.2543   -1.6766   20.8269 N   0  0  0  0  0  0  0  0  0  0  0  0
    8.5211   -2.1729   19.9988 H   0  0  0  0  0  0  0  0  0  0  0  0
    5.4273    0.6613   20.1325 C   0  0  0  0  0  0  0  0  0  0  0  0
    4.9948    0.6398   21.1360 H   0  0  0  0  0  0  0  0  0  0  0  0
    4.7944    1.3201   19.0829 C   0  0  0  0  0  0  0  0  0  0  0  0
    3.8636    1.8519   19.2367 H   0  0  0  0  0  0  0  0  0  0  0  0
  1  2  1  0
  2  3  2  0
  3  4  1  0
  4  5  1  0
  4  6  2  0
  6  7  1  0
  7  8  2  0
  8  9  1  0
  8 10  1  0
 10 11  1  0
 11 12  1  0
 11 13  1  0
 11 14  1  0
 14 15  2  0
 15 16  1  0
 15 17  1  0
 17 18  1  0
 17 19  2  0
 19 20  1  0
 19 21  1  0
 21 22  1  0
 21 23  2  0
 23 24  1  0
 10 25  1  0
 25 26  2  0
 25 27  1  0
 27 28  1  0
  6 29  1  0
 29 30  1  0
 29 31  2  0
 31 32  1  0
 31  2  1  0
 27  7  1  0
 23 14  1  0
M  END
>  <cnnaffinity>  (1) 
-5.40168

>  <filename>  (1) 
O=c1[nH]c(-c2cccnc2)cn1Cc1ccc(Cl)cc1

$$$$
