
     RDKit          3D

 35 38  0  0  0  0  0  0  0  0999 V2000
    4.9142    1.7866   16.8515 H   0  0  0  0  0  0  0  0  0  0  0  0
    5.3528    1.3792   17.7596 C   0  0  0  0  0  0  0  0  0  0  0  0
    6.5700    0.8405   17.6140 N   0  0  0  0  0  0  0  0  0  0  0  0
    7.1467    0.3296   18.7056 C   0  0  0  0  0  0  0  0  0  0  0  0
    8.1351   -0.0936   18.5348 H   0  0  0  0  0  0  0  0  0  0  0  0
    6.5646    0.3339   19.9903 C   0  0  0  0  0  0  0  0  0  0  0  0
    7.2460   -0.4025   21.0967 C   0  0  0  0  0  0  0  0  0  0  0  0
    7.4585    0.4214   22.6237 S   0  0  0  0  0  0  0  0  0  0  0  0
    8.1653   -0.8192   23.6426 C   0  0  0  0  0  0  0  0  0  0  0  0
    8.2983   -0.3873   25.0870 C   0  0  0  0  0  0  0  0  0  0  0  0
    7.3905    0.4336   25.5782 N   0  0  0  0  0  0  0  0  0  0  0  0
    7.4331    0.7311   26.9089 C   0  0  0  0  0  0  0  0  0  0  0  0
    6.4635    1.6523   27.4007 C   0  0  0  0  0  0  0  0  0  0  0  0
    5.7437    2.0121   26.6694 H   0  0  0  0  0  0  0  0  0  0  0  0
    6.4831    2.0359   28.7224 C   0  0  0  0  0  0  0  0  0  0  0  0
    5.7667    2.7650   29.0903 H   0  0  0  0  0  0  0  0  0  0  0  0
    7.4426    1.4791   29.6194 C   0  0  0  0  0  0  0  0  0  0  0  0
    7.4325    1.7770   30.6634 H   0  0  0  0  0  0  0  0  0  0  0  0
    8.3823    0.5821   29.1699 C   0  0  0  0  0  0  0  0  0  0  0  0
    9.1187    0.1575   29.8483 H   0  0  0  0  0  0  0  0  0  0  0  0
    8.4146    0.1907   27.7991 C   0  0  0  0  0  0  0  0  0  0  0  0
    9.4100   -0.6610   27.2302 C   0  0  0  0  0  0  0  0  0  0  0  0
   10.1667   -1.0986   27.8831 H   0  0  0  0  0  0  0  0  0  0  0  0
    9.3752   -0.9086   25.8773 C   0  0  0  0  0  0  0  0  0  0  0  0
   10.1554   -1.4533   25.3619 H   0  0  0  0  0  0  0  0  0  0  0  0
    8.5003   -2.0585   23.2018 C   0  0  0  0  0  0  0  0  0  0  0  0
    8.9596   -2.8031   23.8517 H   0  0  0  0  0  0  0  0  0  0  0  0
    8.2394   -2.5804   21.8524 C   0  0  0  0  0  0  0  0  0  0  0  0
    8.5029   -3.7387   21.5633 O   0  0  0  0  0  0  0  0  0  0  0  0
    7.6368   -1.6690   20.8806 C   0  0  0  0  0  0  0  0  0  0  0  0
    7.4730   -2.1078   19.9100 H   0  0  0  0  0  0  0  0  0  0  0  0
    5.3053    0.9398   20.1267 C   0  0  0  0  0  0  0  0  0  0  0  0
    4.8318    1.0084   21.1068 H   0  0  0  0  0  0  0  0  0  0  0  0
    4.6820    1.4500   18.9843 C   0  0  0  0  0  0  0  0  0  0  0  0
    3.7113    1.9311   19.0291 H   0  0  0  0  0  0  0  0  0  0  0  0
  1  2  1  0
  2  3  2  0
  3  4  1  0
  4  5  1  0
  4  6  2  0
  6  7  1  0
  7  8  1  0
  8  9  1  0
  9 10  1  0
 10 11  2  0
 11 12  1  0
 12 13  2  0
 13 14  1  0
 13 15  1  0
 15 16  1  0
 15 17  2  0
 17 18  1  0
 17 19  1  0
 19 20  1  0
 19 21  2  0
 21 22  1  0
 22 23  1  0
 22 24  2  0
 24 25  1  0
  9 26  2  0
 26 27  1  0
 26 28  1  0
 28 29  2  0
 28 30  1  0
 30 31  1  0
  6 32  1  0
 32 33  1  0
 32 34  2  0
 34 35  1  0
 34  2  1  0
 30  7  2  0
 24 10  1  0
 21 12  1  0
M  END
>  <cnnaffinity>  (1) 
-5.53127

>  <filename>  (1) 
O=c1cc(-c2cccnc2)sc(-c2ccc3ccccc3n2)c1

$$$$
