
     RDKit          3D

 30 32  0  0  0  0  0  0  0  0999 V2000
    4.9058    1.8312   16.9525 H   0  0  0  0  0  0  0  0  0  0  0  0
    5.3893    1.3344   17.7908 C   0  0  0  0  0  0  0  0  0  0  0  0
    6.5547    0.7275   17.5166 N   0  0  0  0  0  0  0  0  0  0  0  0
    7.1764    0.1092   18.5300 C   0  0  0  0  0  0  0  0  0  0  0  0
    8.1182   -0.3782   18.2770 H   0  0  0  0  0  0  0  0  0  0  0  0
    6.6698    0.0232   19.8490 C   0  0  0  0  0  0  0  0  0  0  0  0
    7.3980   -0.6971   20.9422 C   0  0  0  0  0  0  0  0  0  0  0  0
    8.7035   -0.4307   21.2054 C   0  0  0  0  0  0  0  0  0  0  0  0
    9.2785    0.2899   20.6249 H   0  0  0  0  0  0  0  0  0  0  0  0
    9.4188   -1.0565   22.2224 N   0  0  0  0  0  0  0  0  0  0  0  0
   10.8258   -0.7327   22.3714 C   0  0  0  0  0  0  0  0  0  0  0  0
   11.2646    0.5853   22.6040 C   0  0  0  0  0  0  0  0  0  0  0  0
   10.5416    1.3976   22.6789 H   0  0  0  0  0  0  0  0  0  0  0  0
   12.5520    0.9053   22.7721 N   0  0  0  0  0  0  0  0  0  0  0  0
   13.4708   -0.0605   22.6348 C   0  0  0  0  0  0  0  0  0  0  0  0
   14.4991    0.2394   22.8147 H   0  0  0  0  0  0  0  0  0  0  0  0
   13.1469   -1.3806   22.3039 C   0  0  0  0  0  0  0  0  0  0  0  0
   13.9308   -2.1187   22.1480 H   0  0  0  0  0  0  0  0  0  0  0  0
   11.7947   -1.7333   22.2436 C   0  0  0  0  0  0  0  0  0  0  0  0
   11.4785   -2.7664   22.1407 H   0  0  0  0  0  0  0  0  0  0  0  0
    8.8068   -2.0311   23.0507 C   0  0  0  0  0  0  0  0  0  0  0  0
    9.3688   -2.6644   23.9127 O   0  0  0  0  0  0  0  0  0  0  0  0
    7.4785   -2.2166   22.8142 N   0  0  0  0  0  0  0  0  0  0  0  0
    7.0549   -2.9483   23.3533 H   0  0  0  0  0  0  0  0  0  0  0  0
    6.7192   -1.7464   21.7605 C   0  0  0  0  0  0  0  0  0  0  0  0
    5.6282   -2.2448   21.5800 O   0  0  0  0  0  0  0  0  0  0  0  0
    5.4401    0.6585   20.0961 C   0  0  0  0  0  0  0  0  0  0  0  0
    5.0083    0.6140   21.0950 H   0  0  0  0  0  0  0  0  0  0  0  0
    4.7941    1.3352   19.0548 C   0  0  0  0  0  0  0  0  0  0  0  0
    3.8523    1.8543   19.2051 H   0  0  0  0  0  0  0  0  0  0  0  0
  1  2  1  0
  2  3  2  0
  3  4  1  0
  4  5  1  0
  4  6  2  0
  6  7  1  0
  7  8  2  0
  8  9  1  0
  8 10  1  0
 10 11  1  0
 11 12  2  0
 12 13  1  0
 12 14  1  0
 14 15  2  0
 15 16  1  0
 15 17  1  0
 17 18  1  0
 17 19  2  0
 19 20  1  0
 10 21  1  0
 21 22  2  0
 21 23  1  0
 23 24  1  0
 23 25  1  0
 25 26  2  0
  6 27  1  0
 27 28  1  0
 27 29  2  0
 29 30  1  0
 29  2  1  0
 25  7  1  0
 19 11  1  0
M  END
>  <cnnaffinity>  (1) 
-4.8986

>  <filename>  (1) 
O=c1[nH]c(=O)n(-c2cccnc2)cc1-c1cccnc1

$$$$
