
     RDKit          3D

 32 35  0  0  0  0  0  0  0  0999 V2000
    4.9235    1.7993   16.9917 H   0  0  0  0  0  0  0  0  0  0  0  0
    5.3896    1.2928   17.8292 C   0  0  0  0  0  0  0  0  0  0  0  0
    6.5443    0.6671   17.5538 N   0  0  0  0  0  0  0  0  0  0  0  0
    7.1693    0.0572   18.5645 C   0  0  0  0  0  0  0  0  0  0  0  0
    8.1279   -0.4142   18.3549 H   0  0  0  0  0  0  0  0  0  0  0  0
    6.6644    0.0181   19.8821 C   0  0  0  0  0  0  0  0  0  0  0  0
    7.3671   -0.6499   20.9203 N   0  0  0  0  0  0  0  0  0  0  0  0
    6.7733   -1.4262   21.9058 C   0  0  0  0  0  0  0  0  0  0  0  0
    5.7008   -1.5616   21.9021 H   0  0  0  0  0  0  0  0  0  0  0  0
    7.7406   -1.9202   22.7210 C   0  0  0  0  0  0  0  0  0  0  0  0
    7.6662   -2.7670   23.9090 C   0  0  0  0  0  0  0  0  0  0  0  0
    8.6677   -3.1990   24.6343 N   0  0  0  0  0  0  0  0  0  0  0  0
    8.0817   -3.9538   25.6320 C   0  0  0  0  0  0  0  0  0  0  0  0
    8.6804   -4.6562   26.6932 C   0  0  0  0  0  0  0  0  0  0  0  0
    9.7659   -4.6331   26.7816 H   0  0  0  0  0  0  0  0  0  0  0  0
    7.8507   -5.3504   27.5733 C   0  0  0  0  0  0  0  0  0  0  0  0
    8.3014   -5.9041   28.3912 H   0  0  0  0  0  0  0  0  0  0  0  0
    6.4414   -5.3502   27.4088 C   0  0  0  0  0  0  0  0  0  0  0  0
    5.8250   -5.9046   28.1124 H   0  0  0  0  0  0  0  0  0  0  0  0
    5.8321   -4.6578   26.3623 C   0  0  0  0  0  0  0  0  0  0  0  0
    4.7530   -4.6490   26.2255 H   0  0  0  0  0  0  0  0  0  0  0  0
    6.6767   -3.9657   25.4839 C   0  0  0  0  0  0  0  0  0  0  0  0
    6.4485   -3.1978   24.3676 N   0  0  0  0  0  0  0  0  0  0  0  0
    5.5641   -2.9507   23.9708 H   0  0  0  0  0  0  0  0  0  0  0  0
    8.9435   -1.4356   22.2024 N   0  0  0  0  0  0  0  0  0  0  0  0
    9.8846   -1.5703   22.5233 H   0  0  0  0  0  0  0  0  0  0  0  0
    8.7644   -0.6509   21.1062 C   0  0  0  0  0  0  0  0  0  0  0  0
    9.6428   -0.1034   20.4726 O   0  0  0  0  0  0  0  0  0  0  0  0
    5.4449    0.6506   20.1520 C   0  0  0  0  0  0  0  0  0  0  0  0
    5.0388    0.6418   21.1655 H   0  0  0  0  0  0  0  0  0  0  0  0
    4.8060    1.3096   19.1004 C   0  0  0  0  0  0  0  0  0  0  0  0
    3.8769    1.8406   19.2570 H   0  0  0  0  0  0  0  0  0  0  0  0
  1  2  1  0
  2  3  2  0
  3  4  1  0
  4  5  1  0
  4  6  2  0
  6  7  1  0
  7  8  1  0
  8  9  1  0
  8 10  2  0
 10 11  1  0
 11 12  2  0
 12 13  1  0
 13 14  2  0
 14 15  1  0
 14 16  1  0
 16 17  1  0
 16 18  2  0
 18 19  1  0
 18 20  1  0
 20 21  1  0
 20 22  2  0
 22 23  1  0
 23 24  1  0
 10 25  1  0
 25 26  1  0
 25 27  1  0
 27 28  2  0
  6 29  1  0
 29 30  1  0
 29 31  2  0
 31 32  1  0
 31  2  1  0
 27  7  1  0
 23 11  1  0
 22 13  1  0
M  END
>  <cnnaffinity>  (1) 
-5.44587

>  <filename>  (1) 
O=c1[nH]c(-c2nc3ccccc3[nH]2)cn1-c1cccnc1

$$$$
