
     RDKit          3D

 33 35  0  0  0  0  0  0  0  0999 V2000
    7.6133   -4.3221   21.5247 H   0  0  0  0  0  0  0  0  0  0  0  0
    6.9703   -4.9606   21.1926 O   0  0  0  0  0  0  0  0  0  0  0  0
    5.8612   -4.8534   21.9639 C   0  0  0  0  0  0  0  0  0  0  0  0
    4.7963   -5.6963   21.6412 C   0  0  0  0  0  0  0  0  0  0  0  0
    4.9365   -6.4115   20.8408 H   0  0  0  0  0  0  0  0  0  0  0  0
    3.6169   -5.6353   22.3784 C   0  0  0  0  0  0  0  0  0  0  0  0
    2.3111   -6.6952   21.9467 Cl  0  0  0  0  0  0  0  0  0  0  0  0
    3.4896   -4.7713   23.4665 C   0  0  0  0  0  0  0  0  0  0  0  0
    2.5748   -4.7554   24.0477 H   0  0  0  0  0  0  0  0  0  0  0  0
    4.5779   -3.9631   23.8164 C   0  0  0  0  0  0  0  0  0  0  0  0
    4.5527   -3.3415   24.7024 H   0  0  0  0  0  0  0  0  0  0  0  0
    5.7521   -3.9777   23.0639 C   0  0  0  0  0  0  0  0  0  0  0  0
    6.8197   -3.2155   23.5118 O   0  0  0  0  0  0  0  0  0  0  0  0
    7.3979   -2.2771   22.6979 C   0  0  0  0  0  0  0  0  0  0  0  0
    6.7561   -1.6256   21.7033 C   0  0  0  0  0  0  0  0  0  0  0  0
    5.7168   -1.8285   21.4460 H   0  0  0  0  0  0  0  0  0  0  0  0
    7.4057   -0.6637   20.9275 N   0  0  0  0  0  0  0  0  0  0  0  0
    6.6862   -0.0204   19.8555 C   0  0  0  0  0  0  0  0  0  0  0  0
    7.1790    0.0094   18.5340 C   0  0  0  0  0  0  0  0  0  0  0  0
    8.1106   -0.4990   18.2855 H   0  0  0  0  0  0  0  0  0  0  0  0
    6.5536    0.6436   17.5363 N   0  0  0  0  0  0  0  0  0  0  0  0
    5.4112    1.2891   17.8203 C   0  0  0  0  0  0  0  0  0  0  0  0
    4.9414    1.8088   16.9905 H   0  0  0  0  0  0  0  0  0  0  0  0
    4.8297    1.2984   19.0912 C   0  0  0  0  0  0  0  0  0  0  0  0
    3.9041    1.8338   19.2617 H   0  0  0  0  0  0  0  0  0  0  0  0
    5.4712    0.6142   20.1260 C   0  0  0  0  0  0  0  0  0  0  0  0
    5.0631    0.5777   21.1369 H   0  0  0  0  0  0  0  0  0  0  0  0
    8.7293   -0.2512   21.2269 C   0  0  0  0  0  0  0  0  0  0  0  0
    9.3574    0.5883   20.6286 O   0  0  0  0  0  0  0  0  0  0  0  0
    9.2974   -0.8984   22.2796 N   0  0  0  0  0  0  0  0  0  0  0  0
   10.2579   -0.6676   22.4334 H   0  0  0  0  0  0  0  0  0  0  0  0
    8.8142   -1.9490   23.0160 C   0  0  0  0  0  0  0  0  0  0  0  0
    9.5585   -2.4810   23.8067 O   0  0  0  0  0  0  0  0  0  0  0  0
  1  2  1  0
  2  3  1  0
  3  4  2  0
  4  5  1  0
  4  6  1  0
  6  7  1  0
  6  8  2  0
  8  9  1  0
  8 10  1  0
 10 11  1  0
 10 12  2  0
 12 13  1  0
 13 14  1  0
 14 15  2  0
 15 16  1  0
 15 17  1  0
 17 18  1  0
 18 19  2  0
 19 20  1  0
 19 21  1  0
 21 22  2  0
 22 23  1  0
 22 24  1  0
 24 25  1  0
 24 26  2  0
 26 27  1  0
 17 28  1  0
 28 29  2  0
 28 30  1  0
 30 31  1  0
 30 32  1  0
 32 33  2  0
 12  3  1  0
 32 14  1  0
 26 18  1  0
M  END
>  <cnnaffinity>  (1) 
-4.81314

>  <filename>  (1) 
O=c1[nH]c(=O)n(-c2cccnc2)cc1Oc1ccc(Cl)cc1O

$$$$
