
     RDKit          3D

 32 34  0  0  0  0  0  0  0  0999 V2000
    4.9281    1.7841   16.9923 H   0  0  0  0  0  0  0  0  0  0  0  0
    5.3995    1.2933   17.8402 C   0  0  0  0  0  0  0  0  0  0  0  0
    6.5566    0.6673   17.5870 N   0  0  0  0  0  0  0  0  0  0  0  0
    7.1517    0.0437   18.6065 C   0  0  0  0  0  0  0  0  0  0  0  0
    8.1132   -0.4151   18.3858 H   0  0  0  0  0  0  0  0  0  0  0  0
    6.6187   -0.0156   19.9054 C   0  0  0  0  0  0  0  0  0  0  0  0
    7.3107   -0.7382   20.9837 C   0  0  0  0  0  0  0  0  0  0  0  0
    6.5830   -1.5106   21.7650 N   0  0  0  0  0  0  0  0  0  0  0  0
    7.1765   -2.2039   22.8044 C   0  0  0  0  0  0  0  0  0  0  0  0
    6.2866   -3.0507   23.6702 C   0  0  0  0  0  0  0  0  0  0  0  0
    6.6184   -3.3084   25.0161 C   0  0  0  0  0  0  0  0  0  0  0  0
    7.5126   -2.8749   25.4552 H   0  0  0  0  0  0  0  0  0  0  0  0
    5.7898   -4.1055   25.8132 C   0  0  0  0  0  0  0  0  0  0  0  0
    6.0602   -4.3016   26.8458 H   0  0  0  0  0  0  0  0  0  0  0  0
    4.6197   -4.6571   25.2937 C   0  0  0  0  0  0  0  0  0  0  0  0
    3.9672   -5.2773   25.9029 H   0  0  0  0  0  0  0  0  0  0  0  0
    4.2883   -4.3969   23.9563 C   0  0  0  0  0  0  0  0  0  0  0  0
    3.0364   -4.9866   23.4034 N   0  0  0  0  0  4  0  0  0  0  0  0
    2.7627   -4.7839   22.2368 O   0  0  0  0  0  0  0  0  0  0  0  0
    2.3506   -5.6534   24.1592 O   0  0  0  0  0  1  0  0  0  0  0  0
    5.1044   -3.6038   23.1460 C   0  0  0  0  0  0  0  0  0  0  0  0
    4.8278   -3.3908   22.1192 H   0  0  0  0  0  0  0  0  0  0  0  0
    8.5293   -2.1275   23.0251 C   0  0  0  0  0  0  0  0  0  0  0  0
    9.0414   -2.6850   23.8006 H   0  0  0  0  0  0  0  0  0  0  0  0
    9.3029   -1.3287   22.2169 N   0  0  0  0  0  0  0  0  0  0  0  0
   10.3022   -1.1744   22.3052 H   0  0  0  0  0  0  0  0  0  0  0  0
    8.8022   -0.5607   21.1742 C   0  0  0  0  0  0  0  0  0  0  0  0
    9.6012    0.1356   20.5620 O   0  0  0  0  0  0  0  0  0  0  0  0
    5.4089    0.6469   20.1568 C   0  0  0  0  0  0  0  0  0  0  0  0
    4.9789    0.6332   21.1623 H   0  0  0  0  0  0  0  0  0  0  0  0
    4.7988    1.3211   19.1037 C   0  0  0  0  0  0  0  0  0  0  0  0
    3.8688    1.8543   19.2484 H   0  0  0  0  0  0  0  0  0  0  0  0
  1  2  1  0
  2  3  2  0
  3  4  1  0
  4  5  1  0
  4  6  2  0
  6  7  1  0
  7  8  2  0
  8  9  1  0
  9 10  1  0
 10 11  2  0
 11 12  1  0
 11 13  1  0
 13 14  1  0
 13 15  2  0
 15 16  1  0
 15 17  1  0
 17 18  1  0
 18 19  2  0
 18 20  1  0
 17 21  2  0
 21 22  1  0
  9 23  2  0
 23 24  1  0
 23 25  1  0
 25 26  1  0
 25 27  1  0
 27 28  2  0
  6 29  1  0
 29 30  1  0
 29 31  2  0
 31 32  1  0
 31  2  1  0
 27  7  1  0
 21 10  1  0
M  CHG  2  18   1  20  -1
M  END
>  <cnnaffinity>  (1) 
-5.31467

>  <filename>  (1) 
O=c1[nH]cc(-c2cccc([N+](=O)[O-])c2)nc1-c1cccnc1

$$$$
