
     RDKit          3D

 30 32  0  0  0  0  0  0  0  0999 V2000
    4.9668    1.7781   16.9882 H   0  0  0  0  0  0  0  0  0  0  0  0
    5.4407    1.2950   17.8383 C   0  0  0  0  0  0  0  0  0  0  0  0
    6.6191    0.6970   17.5904 N   0  0  0  0  0  0  0  0  0  0  0  0
    7.2308    0.0849   18.6085 C   0  0  0  0  0  0  0  0  0  0  0  0
    8.2062   -0.3597   18.4210 H   0  0  0  0  0  0  0  0  0  0  0  0
    6.6673   -0.0010   19.8920 C   0  0  0  0  0  0  0  0  0  0  0  0
    7.3687   -0.7092   20.9201 N   0  0  0  0  0  0  0  0  0  0  0  0
    8.7001   -0.3950   21.0135 N   0  0  0  0  0  0  0  0  0  0  0  0
    9.4002   -0.9149   21.9938 C   0  0  0  0  0  0  0  0  0  0  0  0
   10.8386   -0.4970   22.1194 C   0  0  0  0  0  0  0  0  0  0  0  0
   11.8357   -1.4896   22.2107 C   0  0  0  0  0  0  0  0  0  0  0  0
   11.5491   -2.5383   22.2684 H   0  0  0  0  0  0  0  0  0  0  0  0
   13.1899   -1.1573   22.2624 C   0  0  0  0  0  0  0  0  0  0  0  0
   13.9377   -1.9479   22.2531 H   0  0  0  0  0  0  0  0  0  0  0  0
   13.5689    0.1834   22.3645 C   0  0  0  0  0  0  0  0  0  0  0  0
   14.6098    0.4754   22.4715 H   0  0  0  0  0  0  0  0  0  0  0  0
   12.5934    1.1882   22.3495 C   0  0  0  0  0  0  0  0  0  0  0  0
   13.1289    2.8225   22.5989 Cl  0  0  0  0  0  0  0  0  0  0  0  0
   11.2315    0.8628   22.1627 C   0  0  0  0  0  0  0  0  0  0  0  0
   10.0625    2.1324   22.0007 Cl  0  0  0  0  0  0  0  0  0  0  0  0
    8.8214   -1.8787   22.9016 C   0  0  0  0  0  0  0  0  0  0  0  0
    9.4397   -2.2943   23.6962 H   0  0  0  0  0  0  0  0  0  0  0  0
    7.5183   -2.2498   22.7581 C   0  0  0  0  0  0  0  0  0  0  0  0
    7.0072   -2.9704   23.3859 H   0  0  0  0  0  0  0  0  0  0  0  0
    6.6866   -1.7297   21.6796 C   0  0  0  0  0  0  0  0  0  0  0  0
    5.5647   -2.1158   21.4126 O   0  0  0  0  0  0  0  0  0  0  0  0
    5.4484    0.6326   20.1508 C   0  0  0  0  0  0  0  0  0  0  0  0
    5.0129    0.5970   21.1470 H   0  0  0  0  0  0  0  0  0  0  0  0
    4.8260    1.3077   19.0943 C   0  0  0  0  0  0  0  0  0  0  0  0
    3.8826    1.8309   19.2296 H   0  0  0  0  0  0  0  0  0  0  0  0
  1  2  1  0
  2  3  2  0
  3  4  1  0
  4  5  1  0
  4  6  2  0
  6  7  1  0
  7  8  1  0
  8  9  2  0
  9 10  1  0
 10 11  2  0
 11 12  1  0
 11 13  1  0
 13 14  1  0
 13 15  2  0
 15 16  1  0
 15 17  1  0
 17 18  1  0
 17 19  2  0
 19 20  1  0
  9 21  1  0
 21 22  1  0
 21 23  2  0
 23 24  1  0
 23 25  1  0
 25 26  2  0
  6 27  1  0
 27 28  1  0
 27 29  2  0
 29 30  1  0
 29  2  1  0
 25  7  1  0
 19 10  1  0
M  END
>  <cnnaffinity>  (1) 
-5.38749

>  <filename>  (1) 
O=c1ccc(-c2cccc(Cl)c2Cl)nn1-c1cccnc1

$$$$
