
     RDKit          3D

 37 39  0  0  0  0  0  0  0  0999 V2000
    4.9323    1.7968   16.9978 H   0  0  0  0  0  0  0  0  0  0  0  0
    5.4134    1.2828   17.8301 C   0  0  0  0  0  0  0  0  0  0  0  0
    6.5648    0.6489   17.5602 N   0  0  0  0  0  0  0  0  0  0  0  0
    7.1936    0.0249   18.5648 C   0  0  0  0  0  0  0  0  0  0  0  0
    8.1375   -0.4560   18.3172 H   0  0  0  0  0  0  0  0  0  0  0  0
    6.7083   -0.0260   19.8919 C   0  0  0  0  0  0  0  0  0  0  0  0
    7.3853   -0.7298   20.9315 N   0  0  0  0  0  0  0  0  0  0  0  0
    6.7333   -1.5005   21.9194 C   0  0  0  0  0  0  0  0  0  0  0  0
    5.6791   -1.6929   21.8917 H   0  0  0  0  0  0  0  0  0  0  0  0
    7.6833   -1.9620   22.7525 C   0  0  0  0  0  0  0  0  0  0  0  0
    7.6148   -2.6935   23.8914 N   0  0  0  0  0  0  0  0  0  0  0  0
    6.7001   -2.9980   24.1710 H   0  0  0  0  0  0  0  0  0  0  0  0
    8.7161   -3.2256   24.6550 C   0  0  0  0  0  0  0  0  0  0  0  0
    9.4596   -2.4346   24.8395 H   0  0  0  0  0  0  0  0  0  0  0  0
    9.4514   -4.4005   23.9856 C   0  0  0  0  0  0  0  0  0  0  0  0
    8.7239   -5.1989   23.7726 H   0  0  0  0  0  0  0  0  0  0  0  0
    9.8446   -4.0783   23.0201 H   0  0  0  0  0  0  0  0  0  0  0  0
   10.5559   -4.9387   24.9136 C   0  0  0  0  0  0  0  0  0  0  0  0
   11.2872   -4.1407   25.1226 H   0  0  0  0  0  0  0  0  0  0  0  0
   11.1289   -5.7381   24.4406 H   0  0  0  0  0  0  0  0  0  0  0  0
    9.9443   -5.4173   26.2382 C   0  0  0  0  0  0  0  0  0  0  0  0
    9.2444   -6.2460   26.0470 H   0  0  0  0  0  0  0  0  0  0  0  0
   10.7148   -5.8243   26.8961 H   0  0  0  0  0  0  0  0  0  0  0  0
    9.1985   -4.2729   26.9371 C   0  0  0  0  0  0  0  0  0  0  0  0
    9.9213   -3.4900   27.2086 H   0  0  0  0  0  0  0  0  0  0  0  0
    8.7291   -4.6183   27.8670 H   0  0  0  0  0  0  0  0  0  0  0  0
    8.1418   -3.6586   26.0112 C   0  0  0  0  0  0  0  0  0  0  0  0
    7.3586   -4.4066   25.8075 H   0  0  0  0  0  0  0  0  0  0  0  0
    7.6622   -2.7930   26.4864 H   0  0  0  0  0  0  0  0  0  0  0  0
    8.9014   -1.5441   22.2955 N   0  0  0  0  0  0  0  0  0  0  0  0
    9.7730   -1.6583   22.7723 H   0  0  0  0  0  0  0  0  0  0  0  0
    8.7683   -0.7396   21.1902 C   0  0  0  0  0  0  0  0  0  0  0  0
    9.6680   -0.1813   20.5976 O   0  0  0  0  0  0  0  0  0  0  0  0
    5.5015    0.6370   20.1529 C   0  0  0  0  0  0  0  0  0  0  0  0
    5.0992    0.6557   21.1644 H   0  0  0  0  0  0  0  0  0  0  0  0
    4.8491    1.2943   19.1057 C   0  0  0  0  0  0  0  0  0  0  0  0
    3.9177    1.8171   19.2671 H   0  0  0  0  0  0  0  0  0  0  0  0
  1  2  1  0
  2  3  2  0
  3  4  1  0
  4  5  1  0
  4  6  2  0
  6  7  1  0
  7  8  1  0
  8  9  1  0
  8 10  2  0
 10 11  1  0
 11 12  1  0
 11 13  1  0
 13 14  1  0
 13 15  1  0
 15 16  1  0
 15 17  1  0
 15 18  1  0
 18 19  1  0
 18 20  1  0
 18 21  1  0
 21 22  1  0
 21 23  1  0
 21 24  1  0
 24 25  1  0
 24 26  1  0
 24 27  1  0
 27 28  1  0
 27 29  1  0
 10 30  1  0
 30 31  1  0
 30 32  1  0
 32 33  2  0
  6 34  1  0
 34 35  1  0
 34 36  2  0
 36 37  1  0
 36  2  1  0
 32  7  1  0
 27 13  1  0
M  END
>  <cnnaffinity>  (1) 
-5.06752

>  <filename>  (1) 
O=c1[nH]c(NC2CCCCC2)cn1-c1cccnc1

$$$$
