
     RDKit          3D

 34 36  0  0  0  0  0  0  0  0999 V2000
    4.9312    1.8778   16.9318 H   0  0  0  0  0  0  0  0  0  0  0  0
    5.4046    1.3551   17.7612 C   0  0  0  0  0  0  0  0  0  0  0  0
    6.5781    0.7573   17.4968 N   0  0  0  0  0  0  0  0  0  0  0  0
    7.1770    0.1114   18.5050 C   0  0  0  0  0  0  0  0  0  0  0  0
    8.1261   -0.3582   18.2475 H   0  0  0  0  0  0  0  0  0  0  0  0
    6.6462   -0.0139   19.8155 C   0  0  0  0  0  0  0  0  0  0  0  0
    7.3701   -0.7468   20.9026 C   0  0  0  0  0  0  0  0  0  0  0  0
    8.6687   -0.4691   21.1561 C   0  0  0  0  0  0  0  0  0  0  0  0
    9.2086    0.3046   20.6095 H   0  0  0  0  0  0  0  0  0  0  0  0
    9.4092   -1.1371   22.1212 N   0  0  0  0  0  0  0  0  0  0  0  0
   10.8072   -0.8407   22.2542 C   0  0  0  0  0  0  0  0  0  0  0  0
   11.7857   -1.8285   22.1396 C   0  0  0  0  0  0  0  0  0  0  0  0
   11.4869   -2.8634   22.0475 H   0  0  0  0  0  0  0  0  0  0  0  0
   13.1323   -1.4601   22.1569 C   0  0  0  0  0  0  0  0  0  0  0  0
   13.8894   -2.2202   21.9994 H   0  0  0  0  0  0  0  0  0  0  0  0
   13.5116   -0.1340   22.3956 C   0  0  0  0  0  0  0  0  0  0  0  0
   14.5700    0.1164   22.4223 H   0  0  0  0  0  0  0  0  0  0  0  0
   12.5167    0.8385   22.5942 C   0  0  0  0  0  0  0  0  0  0  0  0
   12.7957    2.2754   22.9676 C   0  0  0  0  0  0  0  0  0  0  0  0
   12.1019    3.1421   22.2010 F   0  0  0  0  0  0  0  0  0  0  0  0
   12.3964    2.5039   24.2353 F   0  0  0  0  0  0  0  0  0  0  0  0
   14.0858    2.6122   22.8756 F   0  0  0  0  0  0  0  0  0  0  0  0
   11.1673    0.4835   22.4766 C   0  0  0  0  0  0  0  0  0  0  0  0
   10.3766    1.2271   22.5351 H   0  0  0  0  0  0  0  0  0  0  0  0
    8.8038   -2.0424   23.0041 C   0  0  0  0  0  0  0  0  0  0  0  0
    9.3707   -2.6713   23.8644 O   0  0  0  0  0  0  0  0  0  0  0  0
    7.4621   -2.1829   22.8338 N   0  0  0  0  0  0  0  0  0  0  0  0
    7.0800   -2.9460   23.3554 H   0  0  0  0  0  0  0  0  0  0  0  0
    6.7213   -1.8055   21.7337 C   0  0  0  0  0  0  0  0  0  0  0  0
    5.6683   -2.3767   21.5424 O   0  0  0  0  0  0  0  0  0  0  0  0
    5.4221    0.6319   20.0590 C   0  0  0  0  0  0  0  0  0  0  0  0
    4.9839    0.5960   21.0581 H   0  0  0  0  0  0  0  0  0  0  0  0
    4.7963    1.3258   19.0192 C   0  0  0  0  0  0  0  0  0  0  0  0
    3.8622    1.8555   19.1728 H   0  0  0  0  0  0  0  0  0  0  0  0
  1  2  1  0
  2  3  2  0
  3  4  1  0
  4  5  1  0
  4  6  2  0
  6  7  1  0
  7  8  2  0
  8  9  1  0
  8 10  1  0
 10 11  1  0
 11 12  2  0
 12 13  1  0
 12 14  1  0
 14 15  1  0
 14 16  2  0
 16 17  1  0
 16 18  1  0
 18 19  1  0
 19 20  1  0
 19 21  1  0
 19 22  1  0
 18 23  2  0
 23 24  1  0
 10 25  1  0
 25 26  2  0
 25 27  1  0
 27 28  1  0
 27 29  1  0
 29 30  2  0
  6 31  1  0
 31 32  1  0
 31 33  2  0
 33 34  1  0
 33  2  1  0
 29  7  1  0
 23 11  1  0
M  END
>  <cnnaffinity>  (1) 
-5.35206

>  <filename>  (1) 
O=c1[nH]c(=O)n(-c2cccc(C(F)(F)F)c2)cc1-c1cccnc1

$$$$
