
     RDKit          3D

 46 49  0  0  0  0  0  0  0  0999 V2000
    4.9201    1.7758   16.9986 H   0  0  0  0  0  0  0  0  0  0  0  0
    5.4075    1.2899   17.8408 C   0  0  0  0  0  0  0  0  0  0  0  0
    6.5706    0.6707   17.5868 N   0  0  0  0  0  0  0  0  0  0  0  0
    7.1726    0.0624   18.6106 C   0  0  0  0  0  0  0  0  0  0  0  0
    8.1187   -0.4251   18.3731 H   0  0  0  0  0  0  0  0  0  0  0  0
    6.6499    0.0093   19.9131 C   0  0  0  0  0  0  0  0  0  0  0  0
    7.3478   -0.7308   20.9819 C   0  0  0  0  0  0  0  0  0  0  0  0
    6.6493   -1.2704   21.9374 N   0  0  0  0  0  0  0  0  0  0  0  0
    7.3093   -1.9531   22.9571 N   0  0  0  0  0  0  0  0  0  0  0  0
    6.3969   -2.6306   23.7871 N   0  0  0  0  0  0  0  0  0  0  0  0
    6.6002   -4.1063   23.7868 C   0  0  0  0  0  0  0  0  0  0  0  0
    7.5822   -4.3577   24.2110 H   0  0  0  0  0  0  0  0  0  0  0  0
    6.5811   -4.4522   22.7495 H   0  0  0  0  0  0  0  0  0  0  0  0
    5.5038   -4.8186   24.5985 C   0  0  0  0  0  0  0  0  0  0  0  0
    4.5396   -4.7300   24.0629 H   0  0  0  0  0  0  0  0  0  0  0  0
    5.7311   -5.8906   24.6309 H   0  0  0  0  0  0  0  0  0  0  0  0
    5.4408   -4.2951   25.9615 N   0  0  0  0  0  0  0  0  0  0  0  0
    5.0592   -5.1261   27.0408 C   0  0  0  0  0  0  0  0  0  0  0  0
    3.9466   -4.8332   27.8515 C   0  0  0  0  0  0  0  0  0  0  0  0
    3.3439   -3.9593   27.6184 H   0  0  0  0  0  0  0  0  0  0  0  0
    3.6217   -5.6631   28.9288 C   0  0  0  0  0  0  0  0  0  0  0  0
    2.7603   -5.4255   29.5485 H   0  0  0  0  0  0  0  0  0  0  0  0
    4.4053   -6.7860   29.2182 C   0  0  0  0  0  0  0  0  0  0  0  0
    4.1541   -7.4275   30.0564 H   0  0  0  0  0  0  0  0  0  0  0  0
    5.5169   -7.0787   28.4195 C   0  0  0  0  0  0  0  0  0  0  0  0
    6.1319   -7.9501   28.6329 H   0  0  0  0  0  0  0  0  0  0  0  0
    5.8362   -6.2620   27.3337 C   0  0  0  0  0  0  0  0  0  0  0  0
    6.7081   -6.4666   26.7174 H   0  0  0  0  0  0  0  0  0  0  0  0
    5.3043   -2.8443   26.0310 C   0  0  0  0  0  0  0  0  0  0  0  0
    4.3140   -2.4802   25.6970 H   0  0  0  0  0  0  0  0  0  0  0  0
    5.4154   -2.5348   27.0784 H   0  0  0  0  0  0  0  0  0  0  0  0
    6.3998   -2.1465   25.1968 C   0  0  0  0  0  0  0  0  0  0  0  0
    7.3760   -2.3338   25.6658 H   0  0  0  0  0  0  0  0  0  0  0  0
    6.2294   -1.0665   25.1982 H   0  0  0  0  0  0  0  0  0  0  0  0
    8.7005   -1.9274   23.2322 C   0  0  0  0  0  0  0  0  0  0  0  0
    9.2217   -2.5925   24.1095 O   0  0  0  0  0  0  0  0  0  0  0  0
    9.4435   -0.9682   22.3375 C   0  0  0  0  0  0  0  0  0  0  0  0
   10.4800   -1.3009   22.3139 H   0  0  0  0  0  0  0  0  0  0  0  0
    9.4364    0.0145   22.8256 H   0  0  0  0  0  0  0  0  0  0  0  0
    8.8470   -0.8842   20.9329 C   0  0  0  0  0  0  0  0  0  0  0  0
    9.0800   -1.8038   20.3796 H   0  0  0  0  0  0  0  0  0  0  0  0
    9.3201   -0.0596   20.3832 H   0  0  0  0  0  0  0  0  0  0  0  0
    5.4297    0.6586   20.1619 C   0  0  0  0  0  0  0  0  0  0  0  0
    4.9980    0.6283   21.1651 H   0  0  0  0  0  0  0  0  0  0  0  0
    4.8081    1.3146   19.1060 C   0  0  0  0  0  0  0  0  0  0  0  0
    3.8734    1.8448   19.2578 H   0  0  0  0  0  0  0  0  0  0  0  0
  1  2  1  0
  2  3  2  0
  3  4  1  0
  4  5  1  0
  4  6  2  0
  6  7  1  0
  7  8  2  0
  8  9  1  0
  9 10  1  0
 10 11  1  0
 11 12  1  0
 11 13  1  0
 11 14  1  0
 14 15  1  0
 14 16  1  0
 14 17  1  0
 17 18  1  0
 18 19  2  0
 19 20  1  0
 19 21  1  0
 21 22  1  0
 21 23  2  0
 23 24  1  0
 23 25  1  0
 25 26  1  0
 25 27  2  0
 27 28  1  0
 17 29  1  0
 29 30  1  0
 29 31  1  0
 29 32  1  0
 32 33  1  0
 32 34  1  0
  9 35  1  0
 35 36  2  0
 35 37  1  0
 37 38  1  0
 37 39  1  0
 37 40  1  0
 40 41  1  0
 40 42  1  0
  6 43  1  0
 43 44  1  0
 43 45  2  0
 45 46  1  0
 45  2  1  0
 40  7  1  0
 32 10  1  0
 27 18  1  0
M  END
>  <cnnaffinity>  (1) 
-5.29027

>  <filename>  (1) 
O=C1CCC(c2cccnc2)=NN1N1CCN(c2ccccc2)CC1

$$$$
