
     RDKit          3D

 38 40  0  0  0  0  0  0  0  0999 V2000
    5.2999    1.9601   16.3430 H   0  0  0  0  0  0  0  0  0  0  0  0
    5.6484    1.6703   17.3311 C   0  0  0  0  0  0  0  0  0  0  0  0
    6.5620    0.6890   17.3922 N   0  0  0  0  0  0  0  0  0  0  0  0
    6.9831    0.3063   18.6012 C   0  0  0  0  0  0  0  0  0  0  0  0
    7.7057   -0.5015   18.6320 H   0  0  0  0  0  0  0  0  0  0  0  0
    6.5414    0.8863   19.8140 C   0  0  0  0  0  0  0  0  0  0  0  0
    7.0100    0.3716   21.0777 N   0  0  0  0  0  0  0  0  0  0  0  0
    7.5745   -0.8802   21.0153 N   0  0  0  0  0  0  0  0  0  0  0  0
    7.9645   -1.4746   22.1117 C   0  0  0  0  0  0  0  0  0  0  0  0
    8.6265   -2.8556   21.9633 C   0  0  0  0  0  0  0  0  0  0  0  0
    9.2001   -2.8185   21.0268 H   0  0  0  0  0  0  0  0  0  0  0  0
    9.3762   -2.9427   22.7709 H   0  0  0  0  0  0  0  0  0  0  0  0
    7.7997   -4.0814   21.9410 N   0  0  0  0  0  0  0  0  0  0  0  0
    7.6451   -4.8790   20.7480 C   0  0  0  0  0  0  0  0  0  0  0  0
    6.8676   -4.5310   20.0399 H   0  0  0  0  0  0  0  0  0  0  0  0
    8.5913   -5.0240   20.2147 H   0  0  0  0  0  0  0  0  0  0  0  0
    6.5212   -6.8433   22.2018 C   0  0  0  0  0  0  0  0  0  0  0  0
    7.1932   -6.1871   21.2618 H   0  0  0  0  0  0  0  0  0  0  0  0
    7.7478   -7.7770   22.5431 H   0  0  0  0  0  0  0  0  0  0  0  0
    6.3539   -6.6780   22.1750 C   0  0  0  0  0  0  0  0  0  0  0  0
    5.5200   -7.5563   22.5150 H   0  0  0  0  0  0  0  0  0  0  0  0
    5.4181   -6.4290   21.4422 H   0  0  0  0  0  0  0  0  0  0  0  0
    6.3310   -5.6937   23.2643 C   0  0  0  0  0  0  0  0  0  0  0  0
    5.3157   -5.5258   23.7333 H   0  0  0  0  0  0  0  0  0  0  0  0
    6.9517   -5.8255   24.2081 H   0  0  0  0  0  0  0  0  0  0  0  0
    6.6525   -4.2390   22.8326 C   0  0  0  0  0  0  0  0  0  0  0  0
    5.7521   -3.7765   22.3622 H   0  0  0  0  0  0  0  0  0  0  0  0
    6.8229   -3.6267   23.7348 H   0  0  0  0  0  0  0  0  0  0  0  0
    7.9041   -0.8215   23.3988 C   0  0  0  0  0  0  0  0  0  0  0  0
    8.2808   -1.3276   24.2855 H   0  0  0  0  0  0  0  0  0  0  0  0
    7.4007    0.4370   23.4715 C   0  0  0  0  0  0  0  0  0  0  0  0
    7.3202    1.0192   24.3810 H   0  0  0  0  0  0  0  0  0  0  0  0
    6.9117    1.1391   22.2966 C   0  0  0  0  0  0  0  0  0  0  0  0
    6.4674    2.2745   22.3632 O   0  0  0  0  0  0  0  0  0  0  0  0
    5.6220    1.9449   19.7290 C   0  0  0  0  0  0  0  0  0  0  0  0
    5.3076    2.4797   20.6179 H   0  0  0  0  0  0  0  0  0  0  0  0
    5.1543    2.3124   18.4650 C   0  0  0  0  0  0  0  0  0  0  0  0
    4.4301    3.1136   18.3607 H   0  0  0  0  0  0  0  0  0  0  0  0
  1  2  1  0
  2  3  2  0
  3  4  1  0
  4  5  1  0
  4  6  2  0
  6  7  1  0
  7  8  1  0
  8  9  2  0
  9 10  1  0
 10 11  1  0
 10 12  1  0
 10 13  1  0
 13 14  1  0
 14 15  1  0
 14 16  1  0
 14 17  1  0
 17 18  1  0
 17 19  1  0
 17 20  1  0
 20 21  1  0
 20 22  1  0
 20 23  1  0
 23 24  1  0
 23 25  1  0
 23 26  1  0
 26 27  1  0
 26 28  1  0
  9 29  1  0
 29 30  1  0
 29 31  2  0
 31 32  1  0
 31 33  1  0
 33 34  2  0
  6 35  1  0
 35 36  1  0
 35 37  2  0
 37 38  1  0
 37  2  1  0
 33  7  1  0
 26 13  1  0
M  END
>  <cnnaffinity>  (1) 
-4.69044

>  <filename>  (1) 
O=c1ccc(CN2CCCCC2)nn1-c1cccnc1

$$$$
