
     RDKit          3D

 29 31  0  0  0  0  0  0  0  0999 V2000
    4.9069    1.7760   17.0018 H   0  0  0  0  0  0  0  0  0  0  0  0
    5.3977    1.2940   17.8428 C   0  0  0  0  0  0  0  0  0  0  0  0
    6.5631    0.6786   17.5789 N   0  0  0  0  0  0  0  0  0  0  0  0
    7.1800    0.0590   18.5921 C   0  0  0  0  0  0  0  0  0  0  0  0
    8.1292   -0.4309   18.3835 H   0  0  0  0  0  0  0  0  0  0  0  0
    6.6668    0.0020   19.9081 C   0  0  0  0  0  0  0  0  0  0  0  0
    7.3586   -0.6859   20.9482 N   0  0  0  0  0  0  0  0  0  0  0  0
    6.7689   -1.4490   21.9491 C   0  0  0  0  0  0  0  0  0  0  0  0
    5.7018   -1.5989   21.9855 H   0  0  0  0  0  0  0  0  0  0  0  0
    7.7393   -1.9399   22.7521 C   0  0  0  0  0  0  0  0  0  0  0  0
    7.6145   -2.7887   23.9322 C   0  0  0  0  0  0  0  0  0  0  0  0
    6.3719   -2.8626   24.5829 C   0  0  0  0  0  0  0  0  0  0  0  0
    5.5310   -2.2748   24.2248 H   0  0  0  0  0  0  0  0  0  0  0  0
    6.2105   -3.6702   25.7004 C   0  0  0  0  0  0  0  0  0  0  0  0
    5.2497   -3.7181   26.1970 H   0  0  0  0  0  0  0  0  0  0  0  0
    7.2857   -4.4223   26.1895 C   0  0  0  0  0  0  0  0  0  0  0  0
    7.0398   -5.4138   27.5850 Cl  0  0  0  0  0  0  0  0  0  0  0  0
    8.5322   -4.3574   25.5420 C   0  0  0  0  0  0  0  0  0  0  0  0
    9.8921   -5.2698   26.1048 Cl  0  0  0  0  0  0  0  0  0  0  0  0
    8.6903   -3.5448   24.4202 C   0  0  0  0  0  0  0  0  0  0  0  0
    9.6546   -3.5204   23.9226 H   0  0  0  0  0  0  0  0  0  0  0  0
    8.9448   -1.4784   22.2340 N   0  0  0  0  0  0  0  0  0  0  0  0
    9.8718   -1.6052   22.5937 H   0  0  0  0  0  0  0  0  0  0  0  0
    8.7516   -0.6812   21.1359 C   0  0  0  0  0  0  0  0  0  0  0  0
    9.5940   -0.1084   20.4751 O   0  0  0  0  0  0  0  0  0  0  0  0
    5.4470    0.6450   20.1624 C   0  0  0  0  0  0  0  0  0  0  0  0
    5.0142    0.6302   21.1622 H   0  0  0  0  0  0  0  0  0  0  0  0
    4.8080    1.3113   19.1112 C   0  0  0  0  0  0  0  0  0  0  0  0
    3.8731    1.8439   19.2680 H   0  0  0  0  0  0  0  0  0  0  0  0
  1  2  1  0
  2  3  2  0
  3  4  1  0
  4  5  1  0
  4  6  2  0
  6  7  1  0
  7  8  1  0
  8  9  1  0
  8 10  2  0
 10 11  1  0
 11 12  2  0
 12 13  1  0
 12 14  1  0
 14 15  1  0
 14 16  2  0
 16 17  1  0
 16 18  1  0
 18 19  1  0
 18 20  2  0
 20 21  1  0
 10 22  1  0
 22 23  1  0
 22 24  1  0
 24 25  2  0
  6 26  1  0
 26 27  1  0
 26 28  2  0
 28 29  1  0
 28  2  1  0
 24  7  1  0
 20 11  1  0
M  END
>  <cnnaffinity>  (1) 
-5.84025

>  <filename>  (1) 
O=c1[nH]c(-c2ccc(Cl)c(Cl)c2)cn1-c1cccnc1

$$$$
