
     RDKit          3D

 33 35  0  0  0  0  0  0  0  0999 V2000
    5.0374    1.8913   16.9615 H   0  0  0  0  0  0  0  0  0  0  0  0
    5.4691    1.3427   17.8007 C   0  0  0  0  0  0  0  0  0  0  0  0
    6.6289    0.7076   17.5688 N   0  0  0  0  0  0  0  0  0  0  0  0
    7.1910    0.0262   18.5762 C   0  0  0  0  0  0  0  0  0  0  0  0
    8.1374   -0.4654   18.3545 H   0  0  0  0  0  0  0  0  0  0  0  0
    6.6105   -0.0889   19.8545 C   0  0  0  0  0  0  0  0  0  0  0  0
    7.2189   -0.8644   20.9131 N   0  0  0  0  0  0  0  0  0  0  0  0
    8.4796   -0.4797   21.4131 C   0  0  0  0  0  0  0  0  0  0  0  0
    8.9368    0.3695   20.9062 H   0  0  0  0  0  0  0  0  0  0  0  0
    9.0829   -1.1061   22.4550 C   0  0  0  0  0  0  0  0  0  0  0  0
   10.3080   -0.7037   23.0062 N   0  0  0  0  0  0  0  0  0  0  0  0
   10.7929   -1.4021   23.5605 H   0  0  0  0  0  0  0  0  0  0  0  0
   11.1327    0.3893   22.5223 C   0  0  0  0  0  0  0  0  0  0  0  0
   10.5785    1.3374   22.6293 H   0  0  0  0  0  0  0  0  0  0  0  0
   11.3559    0.2822   21.4459 H   0  0  0  0  0  0  0  0  0  0  0  0
   12.4417    0.4285   23.2858 C   0  0  0  0  0  0  0  0  0  0  0  0
   12.3483    0.1925   24.3440 H   0  0  0  0  0  0  0  0  0  0  0  0
   13.7416    0.0243   22.6397 C   0  0  0  0  0  0  0  0  0  0  0  0
   14.4723   -0.5014   23.2458 H   0  0  0  0  0  0  0  0  0  0  0  0
   13.7604   -0.2929   21.6039 H   0  0  0  0  0  0  0  0  0  0  0  0
   13.4696    1.4709   22.9510 C   0  0  0  0  0  0  0  0  0  0  0  0
   14.0219    1.9369   23.7595 H   0  0  0  0  0  0  0  0  0  0  0  0
   13.2375    2.1618   22.1433 H   0  0  0  0  0  0  0  0  0  0  0  0
    8.3482   -2.2904   23.0650 C   0  0  0  0  0  0  0  0  0  0  0  0
    8.7451   -3.0407   23.9361 O   0  0  0  0  0  0  0  0  0  0  0  0
    7.1022   -2.5234   22.5546 N   0  0  0  0  0  0  0  0  0  0  0  0
    6.5912   -3.2829   22.9540 H   0  0  0  0  0  0  0  0  0  0  0  0
    6.4886   -1.9221   21.5045 C   0  0  0  0  0  0  0  0  0  0  0  0
    5.4148   -2.3411   21.1522 O   0  0  0  0  0  0  0  0  0  0  0  0
    5.4019    0.5786   20.0853 C   0  0  0  0  0  0  0  0  0  0  0  0
    4.9349    0.5229   21.0667 H   0  0  0  0  0  0  0  0  0  0  0  0
    4.8277    1.3128   19.0428 C   0  0  0  0  0  0  0  0  0  0  0  0
    3.9029    1.8621   19.1802 H   0  0  0  0  0  0  0  0  0  0  0  0
  1  2  1  0
  2  3  2  0
  3  4  1  0
  4  5  1  0
  4  6  2  0
  6  7  1  0
  7  8  1  0
  8  9  1  0
  8 10  2  0
 10 11  1  0
 11 12  1  0
 11 13  1  0
 13 14  1  0
 13 15  1  0
 13 16  1  0
 16 17  1  0
 16 18  1  0
 18 19  1  0
 18 20  1  0
 18 21  1  0
 21 22  1  0
 21 23  1  0
 10 24  1  0
 24 25  2  0
 24 26  1  0
 26 27  1  0
 26 28  1  0
 28 29  2  0
  6 30  1  0
 30 31  1  0
 30 32  2  0
 32 33  1  0
 32  2  1  0
 28  7  1  0
 21 16  1  0
M  END
>  <cnnaffinity>  (1) 
-5.02079

>  <filename>  (1) 
O=c1[nH]c(=O)n(-c2cccnc2)cc1NCC1CC1

$$$$
