
     RDKit          3D

 31 33  0  0  0  0  0  0  0  0999 V2000
    4.8760    1.8213   17.0066 H   0  0  0  0  0  0  0  0  0  0  0  0
    5.3906    1.3030   17.8093 C   0  0  0  0  0  0  0  0  0  0  0  0
    6.5649    0.7012   17.5455 N   0  0  0  0  0  0  0  0  0  0  0  0
    7.1974    0.0914   18.5667 C   0  0  0  0  0  0  0  0  0  0  0  0
    8.1421   -0.4094   18.3699 H   0  0  0  0  0  0  0  0  0  0  0  0
    6.6815    0.0412   19.8758 C   0  0  0  0  0  0  0  0  0  0  0  0
    7.4032   -0.6472   20.9542 C   0  0  0  0  0  0  0  0  0  0  0  0
    8.7403   -0.3785   21.1668 C   0  0  0  0  0  0  0  0  0  0  0  0
    9.2505    0.3492   20.5291 H   0  0  0  0  0  0  0  0  0  0  0  0
    9.4404   -1.0443   22.1925 N   0  0  0  0  0  0  0  0  0  0  0  0
   10.7964   -0.7414   22.3716 C   0  0  0  0  0  0  0  0  0  0  0  0
   11.7670   -1.7446   22.2830 C   0  0  0  0  0  0  0  0  0  0  0  0
   11.4490   -2.7725   22.1461 H   0  0  0  0  0  0  0  0  0  0  0  0
   13.1298   -1.4204   22.3635 C   0  0  0  0  0  0  0  0  0  0  0  0
   13.8918   -2.1845   22.2276 H   0  0  0  0  0  0  0  0  0  0  0  0
   13.5161   -0.1164   22.6847 C   0  0  0  0  0  0  0  0  0  0  0  0
   14.5602    0.1158   22.8632 H   0  0  0  0  0  0  0  0  0  0  0  0
   12.5589    0.8952   22.7822 C   0  0  0  0  0  0  0  0  0  0  0  0
   13.1100    2.6918   23.1318 Br  0  0  0  0  0  0  0  0  0  0  0  0
   11.2058    0.5803   22.5987 C   0  0  0  0  0  0  0  0  0  0  0  0
   10.4618    1.3688   22.6418 H   0  0  0  0  0  0  0  0  0  0  0  0
    8.7812   -1.9923   22.9757 C   0  0  0  0  0  0  0  0  0  0  0  0
    9.2834   -2.6133   23.8938 O   0  0  0  0  0  0  0  0  0  0  0  0
    7.4736   -2.2842   22.7845 N   0  0  0  0  0  0  0  0  0  0  0  0
    7.0195   -2.9482   23.3877 H   0  0  0  0  0  0  0  0  0  0  0  0
    6.7595   -1.6493   21.8240 C   0  0  0  0  0  0  0  0  0  0  0  0
    5.6645   -2.1306   21.6155 O   0  0  0  0  0  0  0  0  0  0  0  0
    5.4574    0.6448   20.1364 C   0  0  0  0  0  0  0  0  0  0  0  0
    5.0335    0.6145   21.1371 H   0  0  0  0  0  0  0  0  0  0  0  0
    4.8197    1.2964   19.0854 C   0  0  0  0  0  0  0  0  0  0  0  0
    3.8870    1.8134   19.2463 H   0  0  0  0  0  0  0  0  0  0  0  0
  1  2  1  0
  2  3  2  0
  3  4  1  0
  4  5  1  0
  4  6  2  0
  6  7  1  0
  7  8  2  0
  8  9  1  0
  8 10  1  0
 10 11  1  0
 11 12  2  0
 12 13  1  0
 12 14  1  0
 14 15  1  0
 14 16  2  0
 16 17  1  0
 16 18  1  0
 18 19  1  0
 18 20  2  0
 20 21  1  0
 10 22  1  0
 22 23  2  0
 22 24  1  0
 24 25  1  0
 24 26  1  0
 26 27  2  0
  6 28  1  0
 28 29  1  0
 28 30  2  0
 30 31  1  0
 30  2  1  0
 26  7  1  0
 20 11  1  0
M  END
>  <cnnaffinity>  (1) 
-5.65721

>  <filename>  (1) 
O=c1[nH]c(=O)n(-c2cccc(Br)c2)cc1-c1cccnc1

$$$$
