
     RDKit          3D

 31 34  0  0  0  0  0  0  0  0999 V2000
    4.9264    1.8030   16.9666 H   0  0  0  0  0  0  0  0  0  0  0  0
    5.3944    1.3023   17.8153 C   0  0  0  0  0  0  0  0  0  0  0  0
    6.5590    0.6819   17.5672 N   0  0  0  0  0  0  0  0  0  0  0  0
    7.1720    0.0686   18.5892 C   0  0  0  0  0  0  0  0  0  0  0  0
    8.1075   -0.4230   18.3280 H   0  0  0  0  0  0  0  0  0  0  0  0
    6.6677    0.0184   19.9047 C   0  0  0  0  0  0  0  0  0  0  0  0
    7.3305   -0.7062   20.9982 C   0  0  0  0  0  0  0  0  0  0  0  0
    6.7982   -1.2329   22.1190 C   0  0  0  0  0  0  0  0  0  0  0  0
    5.7786   -1.3038   22.4157 H   0  0  0  0  0  0  0  0  0  0  0  0
    7.8069   -1.8165   22.8716 N   0  0  0  0  0  0  0  0  0  0  0  0
    7.6469   -2.4569   24.0937 C   0  0  0  0  0  0  0  0  0  0  0  0
    6.4821   -2.5603   24.6323 N   0  0  0  0  0  0  0  0  0  0  0  0
    6.5744   -3.2356   25.8402 C   0  0  0  0  0  0  0  0  0  0  0  0
    5.5082   -3.5321   26.7099 C   0  0  0  0  0  0  0  0  0  0  0  0
    4.5050   -3.2114   26.4550 H   0  0  0  0  0  0  0  0  0  0  0  0
    5.7565   -4.2348   27.8857 C   0  0  0  0  0  0  0  0  0  0  0  0
    4.9465   -4.4610   28.5744 H   0  0  0  0  0  0  0  0  0  0  0  0
    7.0612   -4.6516   28.2056 C   0  0  0  0  0  0  0  0  0  0  0  0
    7.2389   -5.1891   29.1316 H   0  0  0  0  0  0  0  0  0  0  0  0
    8.1292   -4.3545   27.3671 C   0  0  0  0  0  0  0  0  0  0  0  0
    9.1307   -4.6677   27.6416 H   0  0  0  0  0  0  0  0  0  0  0  0
    7.8809   -3.6481   26.1857 C   0  0  0  0  0  0  0  0  0  0  0  0
    9.0060   -3.1551   24.9533 S   0  0  0  0  0  0  0  0  0  0  0  0
    9.0249   -1.6618   22.2012 C   0  0  0  0  0  0  0  0  0  0  0  0
   10.1215   -2.0242   22.5560 O   0  0  0  0  0  0  0  0  0  0  0  0
    8.6880   -1.0071   21.0482 N   0  0  0  0  0  0  0  0  0  0  0  0
    9.4331   -0.7140   20.4479 H   0  0  0  0  0  0  0  0  0  0  0  0
    5.4392    0.6672   20.1345 C   0  0  0  0  0  0  0  0  0  0  0  0
    5.0058    0.6692   21.1345 H   0  0  0  0  0  0  0  0  0  0  0  0
    4.7995    1.3201   19.0811 C   0  0  0  0  0  0  0  0  0  0  0  0
    3.8655    1.8503   19.2265 H   0  0  0  0  0  0  0  0  0  0  0  0
  1  2  1  0
  2  3  2  0
  3  4  1  0
  4  5  1  0
  4  6  2  0
  6  7  1  0
  7  8  2  0
  8  9  1  0
  8 10  1  0
 10 11  1  0
 11 12  2  0
 12 13  1  0
 13 14  2  0
 14 15  1  0
 14 16  1  0
 16 17  1  0
 16 18  2  0
 18 19  1  0
 18 20  1  0
 20 21  1  0
 20 22  2  0
 22 23  1  0
 10 24  1  0
 24 25  2  0
 24 26  1  0
 26 27  1  0
  6 28  1  0
 28 29  1  0
 28 30  2  0
 30 31  1  0
 30  2  1  0
 26  7  1  0
 23 11  1  0
 22 13  1  0
M  END
>  <cnnaffinity>  (1) 
-5.40715

>  <filename>  (1) 
O=c1[nH]c(-c2cccnc2)cn1-c1nc2ccccc2s1

$$$$
