
     RDKit          3D

 30 32  0  0  0  0  0  0  0  0999 V2000
    4.9806    2.1166   16.5751 H   0  0  0  0  0  0  0  0  0  0  0  0
    5.3304    1.5684   17.4470 C   0  0  0  0  0  0  0  0  0  0  0  0
    6.4750    0.8841   17.2957 N   0  0  0  0  0  0  0  0  0  0  0  0
    6.9324    0.2128   18.3563 C   0  0  0  0  0  0  0  0  0  0  0  0
    7.8776   -0.3102   18.2181 H   0  0  0  0  0  0  0  0  0  0  0  0
    6.2816    0.1898   19.5949 C   0  0  0  0  0  0  0  0  0  0  0  0
    6.8657   -0.6089   20.6865 C   0  0  0  0  0  0  0  0  0  0  0  0
    7.2653   -1.8138   20.3822 N   0  0  0  0  0  0  0  0  0  0  0  0
    7.8672   -2.5658   21.3556 C   0  0  0  0  0  0  0  0  0  0  0  0
    8.2971   -3.6885   21.2204 O   0  0  0  0  0  0  0  0  0  0  0  0
    8.0175   -1.9957   22.6149 N   0  0  0  0  0  0  0  0  0  0  0  0
    8.5009   -2.6146   23.2393 H   0  0  0  0  0  0  0  0  0  0  0  0
    7.5535   -0.7755   22.9686 C   0  0  0  0  0  0  0  0  0  0  0  0
    7.6735   -0.4058   24.3986 C   0  0  0  0  0  0  0  0  0  0  0  0
    6.4942   -0.1496   25.1201 C   0  0  0  0  0  0  0  0  0  0  0  0
    5.5521   -0.0929   24.5817 H   0  0  0  0  0  0  0  0  0  0  0  0
    6.5110   -0.0094   26.5072 C   0  0  0  0  0  0  0  0  0  0  0  0
    5.5852    0.1357   27.0523 H   0  0  0  0  0  0  0  0  0  0  0  0
    7.7167   -0.0808   27.2027 C   0  0  0  0  0  0  0  0  0  0  0  0
    7.7695    0.0135   28.2853 H   0  0  0  0  0  0  0  0  0  0  0  0
    8.9029   -0.2968   26.4986 C   0  0  0  0  0  0  0  0  0  0  0  0
   10.3550   -0.4232   27.4028 Cl  0  0  0  0  0  0  0  0  0  0  0  0
    8.9004   -0.4364   25.1013 C   0  0  0  0  0  0  0  0  0  0  0  0
   10.3961   -0.6451   24.2513 Cl  0  0  0  0  0  0  0  0  0  0  0  0
    6.9527   -0.0386   21.9874 C   0  0  0  0  0  0  0  0  0  0  0  0
    6.5740    0.9564   22.1767 H   0  0  0  0  0  0  0  0  0  0  0  0
    5.1099    0.9368   19.7535 C   0  0  0  0  0  0  0  0  0  0  0  0
    4.6106    0.9726   20.7242 H   0  0  0  0  0  0  0  0  0  0  0  0
    4.6124    1.6229   18.6480 C   0  0  0  0  0  0  0  0  0  0  0  0
    3.7065    2.2151   18.7173 H   0  0  0  0  0  0  0  0  0  0  0  0
  1  2  1  0
  2  3  2  0
  3  4  1  0
  4  5  1  0
  4  6  2  0
  6  7  1  0
  7  8  2  0
  8  9  1  0
  9 10  2  0
  9 11  1  0
 11 12  1  0
 11 13  1  0
 13 14  1  0
 14 15  2  0
 15 16  1  0
 15 17  1  0
 17 18  1  0
 17 19  2  0
 19 20  1  0
 19 21  1  0
 21 22  1  0
 21 23  2  0
 23 24  1  0
 13 25  2  0
 25 26  1  0
  6 27  1  0
 27 28  1  0
 27 29  2  0
 29 30  1  0
 29  2  1  0
 25  7  1  0
 23 14  1  0
M  END
>  <cnnaffinity>  (1) 
-5.59485

>  <filename>  (1) 
O=c1nc(-c2cccnc2)cc(-c2cccc(Cl)c2Cl)[nH]1

$$$$
