
     RDKit          3D

 34 37  0  0  0  0  0  0  0  0999 V2000
    4.9032    1.8291   16.9506 H   0  0  0  0  0  0  0  0  0  0  0  0
    5.3845    1.3309   17.7919 C   0  0  0  0  0  0  0  0  0  0  0  0
    6.5506    0.7212   17.5238 N   0  0  0  0  0  0  0  0  0  0  0  0
    7.1735    0.1051   18.5369 C   0  0  0  0  0  0  0  0  0  0  0  0
    8.1126   -0.3829   18.2784 H   0  0  0  0  0  0  0  0  0  0  0  0
    6.6713    0.0236   19.8571 C   0  0  0  0  0  0  0  0  0  0  0  0
    7.3954   -0.7052   20.9419 C   0  0  0  0  0  0  0  0  0  0  0  0
    8.7036   -0.4563   21.1916 C   0  0  0  0  0  0  0  0  0  0  0  0
    9.2867    0.2716   20.6265 H   0  0  0  0  0  0  0  0  0  0  0  0
    9.4144   -1.1012   22.1991 N   0  0  0  0  0  0  0  0  0  0  0  0
   10.7964   -0.7820   22.3850 C   0  0  0  0  0  0  0  0  0  0  0  0
   11.8015   -1.6703   22.2213 C   0  0  0  0  0  0  0  0  0  0  0  0
   11.6932   -2.7367   22.0764 H   0  0  0  0  0  0  0  0  0  0  0  0
   13.3761   -0.9537   22.3352 S   0  0  0  0  0  0  0  0  0  0  0  0
   12.6862    0.5964   22.7394 C   0  0  0  0  0  0  0  0  0  0  0  0
   13.3819    1.7736   23.0729 C   0  0  0  0  0  0  0  0  0  0  0  0
   14.4639    1.7698   23.1360 H   0  0  0  0  0  0  0  0  0  0  0  0
   12.6524    2.9323   23.3022 C   0  0  0  0  0  0  0  0  0  0  0  0
   13.1757    3.8569   23.5339 H   0  0  0  0  0  0  0  0  0  0  0  0
   11.2456    2.9260   23.2138 C   0  0  0  0  0  0  0  0  0  0  0  0
   10.6928    3.8490   23.3583 H   0  0  0  0  0  0  0  0  0  0  0  0
   10.5576    1.7547   22.9249 C   0  0  0  0  0  0  0  0  0  0  0  0
    9.4721    1.7529   22.8634 H   0  0  0  0  0  0  0  0  0  0  0  0
   11.2752    0.5586   22.6938 C   0  0  0  0  0  0  0  0  0  0  0  0
    8.7994   -2.0449   23.0427 C   0  0  0  0  0  0  0  0  0  0  0  0
    9.3568   -2.6617   23.9208 O   0  0  0  0  0  0  0  0  0  0  0  0
    7.4756   -2.2297   22.8024 N   0  0  0  0  0  0  0  0  0  0  0  0
    7.0401   -2.9425   23.3491 H   0  0  0  0  0  0  0  0  0  0  0  0
    6.7140   -1.7483   21.7594 C   0  0  0  0  0  0  0  0  0  0  0  0
    5.6162   -2.2354   21.5979 O   0  0  0  0  0  0  0  0  0  0  0  0
    5.4427    0.6639   20.0999 C   0  0  0  0  0  0  0  0  0  0  0  0
    5.0130    0.6127   21.0991 H   0  0  0  0  0  0  0  0  0  0  0  0
    4.7921    1.3366   19.0585 C   0  0  0  0  0  0  0  0  0  0  0  0
    3.8490    1.8591   19.2060 H   0  0  0  0  0  0  0  0  0  0  0  0
  1  2  1  0
  2  3  2  0
  3  4  1  0
  4  5  1  0
  4  6  2  0
  6  7  1  0
  7  8  2  0
  8  9  1  0
  8 10  1  0
 10 11  1  0
 11 12  2  0
 12 13  1  0
 12 14  1  0
 14 15  1  0
 15 16  2  0
 16 17  1  0
 16 18  1  0
 18 19  1  0
 18 20  2  0
 20 21  1  0
 20 22  1  0
 22 23  1  0
 22 24  2  0
 10 25  1  0
 25 26  2  0
 25 27  1  0
 27 28  1  0
 27 29  1  0
 29 30  2  0
  6 31  1  0
 31 32  1  0
 31 33  2  0
 33 34  1  0
 33  2  1  0
 29  7  1  0
 24 11  1  0
 24 15  1  0
M  END
>  <cnnaffinity>  (1) 
-5.81539

>  <filename>  (1) 
O=c1[nH]c(=O)n(-c2csc3ccccc23)cc1-c1cccnc1

$$$$
