
     RDKit          3D

 36 39  0  0  0  0  0  0  0  0999 V2000
    5.1860    2.1910   16.4719 H   0  0  0  0  0  0  0  0  0  0  0  0
    5.3785    1.5021   17.2928 C   0  0  0  0  0  0  0  0  0  0  0  0
    6.3756    0.6251   17.1015 N   0  0  0  0  0  0  0  0  0  0  0  0
    6.6510   -0.2114   18.1117 C   0  0  0  0  0  0  0  0  0  0  0  0
    7.4597   -0.9226   17.9514 H   0  0  0  0  0  0  0  0  0  0  0  0
    5.9917   -0.2035   19.3581 C   0  0  0  0  0  0  0  0  0  0  0  0
    6.4873   -1.0124   20.5016 C   0  0  0  0  0  0  0  0  0  0  0  0
    6.9967   -0.3824   21.6166 C   0  0  0  0  0  0  0  0  0  0  0  0
    7.0075    0.7065   21.6619 H   0  0  0  0  0  0  0  0  0  0  0  0
    7.5876   -1.0928   22.7033 C   0  0  0  0  0  0  0  0  0  0  0  0
    7.8721   -0.3895   23.9936 C   0  0  0  0  0  0  0  0  0  0  0  0
    6.7808    0.0141   24.7635 C   0  0  0  0  0  0  0  0  0  0  0  0
    5.7786   -0.0756   24.3517 H   0  0  0  0  0  0  0  0  0  0  0  0
    6.8439    0.5231   26.0305 N   0  0  0  0  0  0  0  0  0  0  0  0
    8.0425    0.6863   26.5766 C   0  0  0  0  0  0  0  0  0  0  0  0
    8.0498    1.0677   27.5993 H   0  0  0  0  0  0  0  0  0  0  0  0
    9.2513    0.3816   25.8953 C   0  0  0  0  0  0  0  0  0  0  0  0
   10.5917    0.5623   26.4114 C   0  0  0  0  0  0  0  0  0  0  0  0
   10.7580   -0.1278   27.3206 H   0  0  0  0  0  0  0  0  0  0  0  0
   11.8173    0.2432   24.9609 C   0  0  0  0  0  0  0  0  0  0  0  0
   12.5356   -0.6233   25.3158 H   0  0  0  0  0  0  0  0  0  0  0  0
   11.5214    0.4246   24.8957 C   0  0  0  0  0  0  0  0  0  0  0  0
   12.4555    1.2737   24.7187 H   0  0  0  0  0  0  0  0  0  0  0  0
   10.4580   -0.2682   23.8953 C   0  0  0  0  0  0  0  0  0  0  0  0
   10.4781    0.1220   22.8817 H   0  0  0  0  0  0  0  0  0  0  0  0
    9.1839   -0.1344   24.5483 C   0  0  0  0  0  0  0  0  0  0  0  0
    7.6920   -2.4566   22.6044 C   0  0  0  0  0  0  0  0  0  0  0  0
    8.1619   -3.0589   23.3803 H   0  0  0  0  0  0  0  0  0  0  0  0
    7.1716   -3.0909   21.5082 N   0  0  0  0  0  0  0  0  0  0  0  0
    7.1115   -4.0911   21.3960 H   0  0  0  0  0  0  0  0  0  0  0  0
    6.4604   -2.4871   20.4631 C   0  0  0  0  0  0  0  0  0  0  0  0
    5.9139   -3.2284   19.6617 O   0  0  0  0  0  0  0  0  0  0  0  0
    4.9230    0.6943   19.5134 C   0  0  0  0  0  0  0  0  0  0  0  0
    4.3605    0.7117   20.4488 H   0  0  0  0  0  0  0  0  0  0  0  0
    4.6078    1.5560   18.4604 C   0  0  0  0  0  0  0  0  0  0  0  0
    3.8036    2.2812   18.5363 H   0  0  0  0  0  0  0  0  0  0  0  0
  1  2  1  0
  2  3  2  0
  3  4  1  0
  4  5  1  0
  4  6  2  0
  6  7  1  0
  7  8  2  0
  8  9  1  0
  8 10  1  0
 10 11  1  0
 11 12  2  0
 12 13  1  0
 12 14  1  0
 14 15  2  0
 15 16  1  0
 15 17  1  0
 17 18  2  0
 18 19  1  0
 18 20  1  0
 20 21  1  0
 20 22  2  0
 22 23  1  0
 22 24  1  0
 24 25  1  0
 24 26  2  0
 10 27  2  0
 27 28  1  0
 27 29  1  0
 29 30  1  0
 29 31  1  0
 31 32  2  0
  6 33  1  0
 33 34  1  0
 33 35  2  0
 35 36  1  0
 35  2  1  0
 31  7  1  0
 26 11  1  0
 26 17  1  0
M  END
>  <cnnaffinity>  (1) 
-5.3028

>  <filename>  (1) 
O=c1[nH]cc(-c2cncc3ccccc23)cc1-c1cccnc1

$$$$
