
     RDKit          3D

 31 33  0  0  0  0  0  0  0  0999 V2000
    4.9450    1.9058   16.9173 H   0  0  0  0  0  0  0  0  0  0  0  0
    5.3898    1.3662   17.7505 C   0  0  0  0  0  0  0  0  0  0  0  0
    6.5561    0.7509   17.4952 N   0  0  0  0  0  0  0  0  0  0  0  0
    7.1331    0.0870   18.5042 C   0  0  0  0  0  0  0  0  0  0  0  0
    8.0887   -0.3861   18.2728 H   0  0  0  0  0  0  0  0  0  0  0  0
    6.5701   -0.0441   19.7965 C   0  0  0  0  0  0  0  0  0  0  0  0
    7.2599   -0.7901   20.8867 C   0  0  0  0  0  0  0  0  0  0  0  0
    8.5511   -0.5012   21.1741 C   0  0  0  0  0  0  0  0  0  0  0  0
    9.1147    0.2411   20.6041 H   0  0  0  0  0  0  0  0  0  0  0  0
    9.2519   -1.1124   22.2071 N   0  0  0  0  0  0  0  0  0  0  0  0
   10.6341   -0.7560   22.3899 C   0  0  0  0  0  0  0  0  0  0  0  0
   11.6591   -1.6875   22.2061 C   0  0  0  0  0  0  0  0  0  0  0  0
   11.4265   -2.7423   22.1293 H   0  0  0  0  0  0  0  0  0  0  0  0
   12.9856   -1.2524   22.1587 C   0  0  0  0  0  0  0  0  0  0  0  0
   13.7972   -1.9476   21.9683 H   0  0  0  0  0  0  0  0  0  0  0  0
   13.2877    0.0935   22.3868 C   0  0  0  0  0  0  0  0  0  0  0  0
   14.9220    0.6052   22.3273 Cl  0  0  0  0  0  0  0  0  0  0  0  0
   12.2683    1.0062   22.6828 C   0  0  0  0  0  0  0  0  0  0  0  0
   12.6145    2.6480   23.0940 Cl  0  0  0  0  0  0  0  0  0  0  0  0
   10.9400    0.5817   22.6568 C   0  0  0  0  0  0  0  0  0  0  0  0
   10.1492    1.2957   22.8541 H   0  0  0  0  0  0  0  0  0  0  0  0
    8.6410   -2.0719   23.0347 C   0  0  0  0  0  0  0  0  0  0  0  0
    9.1933   -2.7226   23.8872 O   0  0  0  0  0  0  0  0  0  0  0  0
    7.3048   -2.2278   22.8141 N   0  0  0  0  0  0  0  0  0  0  0  0
    6.9102   -2.9956   23.3212 H   0  0  0  0  0  0  0  0  0  0  0  0
    6.5804   -1.8419   21.7036 C   0  0  0  0  0  0  0  0  0  0  0  0
    5.5250   -2.4052   21.5000 O   0  0  0  0  0  0  0  0  0  0  0  0
    5.3564    0.6187   20.0339 C   0  0  0  0  0  0  0  0  0  0  0  0
    4.9151    0.5812   21.0291 H   0  0  0  0  0  0  0  0  0  0  0  0
    4.7594    1.3390   18.9968 C   0  0  0  0  0  0  0  0  0  0  0  0
    3.8362    1.8890   19.1430 H   0  0  0  0  0  0  0  0  0  0  0  0
  1  2  1  0
  2  3  2  0
  3  4  1  0
  4  5  1  0
  4  6  2  0
  6  7  1  0
  7  8  2  0
  8  9  1  0
  8 10  1  0
 10 11  1  0
 11 12  2  0
 12 13  1  0
 12 14  1  0
 14 15  1  0
 14 16  2  0
 16 17  1  0
 16 18  1  0
 18 19  1  0
 18 20  2  0
 20 21  1  0
 10 22  1  0
 22 23  2  0
 22 24  1  0
 24 25  1  0
 24 26  1  0
 26 27  2  0
  6 28  1  0
 28 29  1  0
 28 30  2  0
 30 31  1  0
 30  2  1  0
 26  7  1  0
 20 11  1  0
M  END
>  <cnnaffinity>  (1) 
-5.79455

>  <filename>  (1) 
O=c1[nH]c(=O)n(-c2ccc(Cl)c(Cl)c2)cc1-c1cccnc1

$$$$
