
     RDKit          3D

 34 37  0  0  0  0  0  0  0  0999 V2000
    4.9263    1.8029   16.9660 H   0  0  0  0  0  0  0  0  0  0  0  0
    5.3951    1.3019   17.8156 C   0  0  0  0  0  0  0  0  0  0  0  0
    6.5600    0.6808   17.5690 N   0  0  0  0  0  0  0  0  0  0  0  0
    7.1737    0.0689   18.5923 C   0  0  0  0  0  0  0  0  0  0  0  0
    8.1082   -0.4224   18.3265 H   0  0  0  0  0  0  0  0  0  0  0  0
    6.6711    0.0206   19.9091 C   0  0  0  0  0  0  0  0  0  0  0  0
    7.3307   -0.7047   21.0066 C   0  0  0  0  0  0  0  0  0  0  0  0
    6.7907   -1.2455   22.1153 C   0  0  0  0  0  0  0  0  0  0  0  0
    5.7661   -1.3222   22.3909 H   0  0  0  0  0  0  0  0  0  0  0  0
    7.7851   -1.8550   22.8724 N   0  0  0  0  0  0  0  0  0  0  0  0
    7.6082   -2.5196   24.0980 C   0  0  0  0  0  0  0  0  0  0  0  0
    6.4162   -3.0223   24.3101 N   0  0  0  0  0  0  0  0  0  0  0  0
    6.1984   -3.6766   25.4951 C   0  0  0  0  0  0  0  0  0  0  0  0
    4.9108   -4.2376   25.7515 C   0  0  0  0  0  0  0  0  0  0  0  0
    4.1550   -4.1081   24.9835 H   0  0  0  0  0  0  0  0  0  0  0  0
    4.6597   -4.9056   26.9329 C   0  0  0  0  0  0  0  0  0  0  0  0
    3.6804   -5.3349   27.1290 H   0  0  0  0  0  0  0  0  0  0  0  0
    5.6765   -5.0477   27.9174 C   0  0  0  0  0  0  0  0  0  0  0  0
    5.4557   -5.5797   28.8413 H   0  0  0  0  0  0  0  0  0  0  0  0
    6.9248   -4.5147   27.6993 C   0  0  0  0  0  0  0  0  0  0  0  0
    7.7082   -4.6201   28.4438 H   0  0  0  0  0  0  0  0  0  0  0  0
    7.2119   -3.8136   26.4938 C   0  0  0  0  0  0  0  0  0  0  0  0
    8.4802   -3.2229   26.2173 C   0  0  0  0  0  0  0  0  0  0  0  0
    9.2727   -3.3120   26.9550 H   0  0  0  0  0  0  0  0  0  0  0  0
    8.6890   -2.5733   25.0286 C   0  0  0  0  0  0  0  0  0  0  0  0
    9.6253   -2.1136   24.7477 H   0  0  0  0  0  0  0  0  0  0  0  0
    9.0038   -1.6994   22.2132 C   0  0  0  0  0  0  0  0  0  0  0  0
   10.1162   -2.0604   22.5337 O   0  0  0  0  0  0  0  0  0  0  0  0
    8.6805   -1.0222   21.0650 N   0  0  0  0  0  0  0  0  0  0  0  0
    9.4310   -0.7455   20.4629 H   0  0  0  0  0  0  0  0  0  0  0  0
    5.4419    0.6686   20.1353 C   0  0  0  0  0  0  0  0  0  0  0  0
    5.0069    0.6703   21.1335 H   0  0  0  0  0  0  0  0  0  0  0  0
    4.8004    1.3200   19.0817 C   0  0  0  0  0  0  0  0  0  0  0  0
    3.8654    1.8500   19.2260 H   0  0  0  0  0  0  0  0  0  0  0  0
  1  2  1  0
  2  3  2  0
  3  4  1  0
  4  5  1  0
  4  6  2  0
  6  7  1  0
  7  8  2  0
  8  9  1  0
  8 10  1  0
 10 11  1  0
 11 12  2  0
 12 13  1  0
 13 14  2  0
 14 15  1  0
 14 16  1  0
 16 17  1  0
 16 18  2  0
 18 19  1  0
 18 20  1  0
 20 21  1  0
 20 22  2  0
 22 23  1  0
 23 24  1  0
 23 25  2  0
 25 26  1  0
 10 27  1  0
 27 28  2  0
 27 29  1  0
 29 30  1  0
  6 31  1  0
 31 32  1  0
 31 33  2  0
 33 34  1  0
 33  2  1  0
 29  7  1  0
 25 11  1  0
 22 13  1  0
M  END
>  <cnnaffinity>  (1) 
-5.52153

>  <filename>  (1) 
O=c1[nH]c(-c2cccnc2)cn1-c1ccc2ccccc2n1

$$$$
