
     RDKit          3D

 35 38  0  0  0  0  0  0  0  0999 V2000
    5.8045    2.1065   16.4525 H   0  0  0  0  0  0  0  0  0  0  0  0
    6.0874    1.5446   17.3415 C   0  0  0  0  0  0  0  0  0  0  0  0
    7.3456    1.0756   17.3713 N   0  0  0  0  0  0  0  0  0  0  0  0
    7.7323    0.4259   18.4738 C   0  0  0  0  0  0  0  0  0  0  0  0
    8.7554    0.0563   18.4983 H   0  0  0  0  0  0  0  0  0  0  0  0
    6.8938    0.1818   19.5776 C   0  0  0  0  0  0  0  0  0  0  0  0
    7.4024   -0.6112   20.7196 C   0  0  0  0  0  0  0  0  0  0  0  0
    8.7497   -0.4265   20.9204 O   0  0  0  0  0  0  0  0  0  0  0  0
    9.3938   -1.1579   21.8713 C   0  0  0  0  0  0  0  0  0  0  0  0
   10.8074   -0.7766   22.0602 C   0  0  0  0  0  0  0  0  0  0  0  0
   11.7637   -1.7909   22.1272 C   0  0  0  0  0  0  0  0  0  0  0  0
   11.4723   -2.8330   22.0639 H   0  0  0  0  0  0  0  0  0  0  0  0
   13.0951   -1.5603   22.2548 N   0  0  0  0  0  0  0  0  0  0  0  0
   13.5081   -0.3268   22.3951 C   0  0  0  0  0  0  0  0  0  0  0  0
   14.5816   -0.1934   22.5300 H   0  0  0  0  0  0  0  0  0  0  0  0
   12.6230    0.8337   22.3835 C   0  0  0  0  0  0  0  0  0  0  0  0
   13.1373    2.1398   22.5663 C   0  0  0  0  0  0  0  0  0  0  0  0
   14.1937    2.3430   22.6861 H   0  0  0  0  0  0  0  0  0  0  0  0
   10.7965    3.0060   22.7543 C   0  0  0  0  0  0  0  0  0  0  0  0
   12.0718    3.1366   22.5774 H   0  0  0  0  0  0  0  0  0  0  0  0
   10.4716    2.8074   22.8114 C   0  0  0  0  0  0  0  0  0  0  0  0
   10.5334    3.0799   23.9399 H   0  0  0  0  0  0  0  0  0  0  0  0
   10.3247    1.7506   22.0661 C   0  0  0  0  0  0  0  0  0  0  0  0
    9.3312    1.5815   22.3643 H   0  0  0  0  0  0  0  0  0  0  0  0
   11.2392    0.5552   22.2136 C   0  0  0  0  0  0  0  0  0  0  0  0
    8.7758   -2.1453   22.5526 C   0  0  0  0  0  0  0  0  0  0  0  0
    9.2910   -2.7462   23.2823 H   0  0  0  0  0  0  0  0  0  0  0  0
    7.3367   -2.3503   22.4333 C   0  0  0  0  0  0  0  0  0  0  0  0
    6.7363   -3.1850   23.0913 O   0  0  0  0  0  0  0  0  0  0  0  0
    6.6834   -1.4759   21.4590 C   0  0  0  0  0  0  0  0  0  0  0  0
    5.6182   -1.6005   21.3260 H   0  0  0  0  0  0  0  0  0  0  0  0
    5.5796    0.6657   19.5218 C   0  0  0  0  0  0  0  0  0  0  0  0
    4.8998    0.5283   20.3634 H   0  0  0  0  0  0  0  0  0  0  0  0
    5.1744    1.3667   18.3859 C   0  0  0  0  0  0  0  0  0  0  0  0
    4.1814    1.7986   18.3118 H   0  0  0  0  0  0  0  0  0  0  0  0
  1  2  1  0
  2  3  2  0
  3  4  1  0
  4  5  1  0
  4  6  2  0
  6  7  1  0
  7  8  1  0
  8  9  1  0
  9 10  1  0
 10 11  2  0
 11 12  1  0
 11 13  1  0
 13 14  2  0
 14 15  1  0
 14 16  1  0
 16 17  2  0
 17 18  1  0
 17 19  1  0
 19 20  1  0
 19 21  2  0
 21 22  1  0
 21 23  1  0
 23 24  1  0
 23 25  2  0
  9 26  2  0
 26 27  1  0
 26 28  1  0
 28 29  2  0
 28 30  1  0
 30 31  1  0
  6 32  1  0
 32 33  1  0
 32 34  2  0
 34 35  1  0
 34  2  1  0
 30  7  2  0
 25 10  1  0
 25 16  1  0
M  END
>  <cnnaffinity>  (1) 
-6.01703

>  <filename>  (1) 
O=c1cc(-c2cccnc2)oc(-c2cncc3ccccc23)c1

$$$$
