
     RDKit          3D

 31 33  0  0  0  0  0  0  0  0999 V2000
    4.8880    1.7930   17.0116 H   0  0  0  0  0  0  0  0  0  0  0  0
    5.4011    1.2958   17.8274 C   0  0  0  0  0  0  0  0  0  0  0  0
    6.5730    0.6830   17.5713 N   0  0  0  0  0  0  0  0  0  0  0  0
    7.1862    0.0654   18.5987 C   0  0  0  0  0  0  0  0  0  0  0  0
    8.1288   -0.4350   18.4003 H   0  0  0  0  0  0  0  0  0  0  0  0
    6.6490    0.0007   19.8995 C   0  0  0  0  0  0  0  0  0  0  0  0
    7.3496   -0.7112   20.9713 C   0  0  0  0  0  0  0  0  0  0  0  0
    8.7980   -0.5440   21.1140 C   0  0  0  0  0  0  0  0  0  0  0  0
    9.3367    0.1180   20.4349 H   0  0  0  0  0  0  0  0  0  0  0  0
    9.4454   -1.2121   22.1304 C   0  0  0  0  0  0  0  0  0  0  0  0
   10.5131   -1.1105   22.2720 H   0  0  0  0  0  0  0  0  0  0  0  0
    8.6948   -2.0686   23.0459 C   0  0  0  0  0  0  0  0  0  0  0  0
    9.3227   -2.6661   23.9139 O   0  0  0  0  0  0  0  0  0  0  0  0
    7.3156   -2.2219   22.8820 N   0  0  0  0  0  0  0  0  0  0  0  0
    6.5684   -3.0296   23.7396 C   0  0  0  0  0  0  0  0  0  0  0  0
    6.6032   -2.8117   25.1225 C   0  0  0  0  0  0  0  0  0  0  0  0
    7.1972   -1.9959   25.5232 H   0  0  0  0  0  0  0  0  0  0  0  0
    5.8567   -3.6237   25.9830 C   0  0  0  0  0  0  0  0  0  0  0  0
    5.8735   -3.4449   27.0537 H   0  0  0  0  0  0  0  0  0  0  0  0
    5.0806   -4.6680   25.4705 C   0  0  0  0  0  0  0  0  0  0  0  0
    4.0640   -5.7821   26.6464 Br  0  0  0  0  0  0  0  0  0  0  0  0
    5.0525   -4.8926   24.0903 C   0  0  0  0  0  0  0  0  0  0  0  0
    4.4547   -5.7056   23.6928 H   0  0  0  0  0  0  0  0  0  0  0  0
    5.7900   -4.0746   23.2287 C   0  0  0  0  0  0  0  0  0  0  0  0
    5.7773   -4.2569   22.1591 H   0  0  0  0  0  0  0  0  0  0  0  0
    6.6584   -1.5351   21.8452 C   0  0  0  0  0  0  0  0  0  0  0  0
    5.5824   -1.6476   21.7140 H   0  0  0  0  0  0  0  0  0  0  0  0
    5.4340    0.6390   20.1572 C   0  0  0  0  0  0  0  0  0  0  0  0
    5.0060    0.6302   21.1612 H   0  0  0  0  0  0  0  0  0  0  0  0
    4.8129    1.3068   19.1009 C   0  0  0  0  0  0  0  0  0  0  0  0
    3.8792    1.8363   19.2612 H   0  0  0  0  0  0  0  0  0  0  0  0
  1  2  1  0
  2  3  2  0
  3  4  1  0
  4  5  1  0
  4  6  2  0
  6  7  1  0
  7  8  1  0
  8  9  1  0
  8 10  2  0
 10 11  1  0
 10 12  1  0
 12 13  2  0
 12 14  1  0
 14 15  1  0
 15 16  2  0
 16 17  1  0
 16 18  1  0
 18 19  1  0
 18 20  2  0
 20 21  1  0
 20 22  1  0
 22 23  1  0
 22 24  2  0
 24 25  1  0
 14 26  1  0
 26 27  1  0
  6 28  1  0
 28 29  1  0
 28 30  2  0
 30 31  1  0
 30  2  1  0
 26  7  2  0
 24 15  1  0
M  END
>  <cnnaffinity>  (1) 
-5.33942

>  <filename>  (1) 
O=c1ccc(-c2cccnc2)cn1-c1ccc(Br)cc1

$$$$
