
     RDKit          3D

 32 34  0  0  0  0  0  0  0  0999 V2000
    5.0896    1.8098   16.9129 H   0  0  0  0  0  0  0  0  0  0  0  0
    5.5419    1.2788   17.7499 C   0  0  0  0  0  0  0  0  0  0  0  0
    6.6780    0.6099   17.4926 N   0  0  0  0  0  0  0  0  0  0  0  0
    7.2633   -0.0349   18.5102 C   0  0  0  0  0  0  0  0  0  0  0  0
    8.1814   -0.5643   18.2666 H   0  0  0  0  0  0  0  0  0  0  0  0
    6.7547   -0.0628   19.8194 C   0  0  0  0  0  0  0  0  0  0  0  0
    7.4193   -0.7942   20.8968 C   0  0  0  0  0  0  0  0  0  0  0  0
    6.8626   -1.3501   21.9896 C   0  0  0  0  0  0  0  0  0  0  0  0
    5.8361   -1.3689   22.2677 H   0  0  0  0  0  0  0  0  0  0  0  0
    7.8946   -1.9710   22.7861 C   0  0  0  0  0  0  0  0  0  0  0  0
    7.8175   -2.6376   23.8070 O   0  0  0  0  0  0  0  0  0  0  0  0
    9.0636   -1.6476   22.1074 N   0  0  0  0  0  0  0  0  0  0  0  0
   10.3971   -2.0272   22.5160 C   0  0  0  0  0  0  0  0  0  0  0  0
   10.2506   -2.7054   23.3615 H   0  0  0  0  0  0  0  0  0  0  0  0
   10.8818   -2.5808   21.7072 H   0  0  0  0  0  0  0  0  0  0  0  0
   11.2858   -0.8589   22.9243 C   0  0  0  0  0  0  0  0  0  0  0  0
   12.4731   -0.6037   22.2150 C   0  0  0  0  0  0  0  0  0  0  0  0
   12.7477   -1.2874   21.4092 H   0  0  0  0  0  0  0  0  0  0  0  0
   13.2892    0.4912   22.5338 C   0  0  0  0  0  0  0  0  0  0  0  0
   14.1836    0.6729   21.9449 H   0  0  0  0  0  0  0  0  0  0  0  0
   12.9441    1.3318   23.5983 C   0  0  0  0  0  0  0  0  0  0  0  0
   13.5786    2.1754   23.8618 H   0  0  0  0  0  0  0  0  0  0  0  0
   11.7839    1.0785   24.3368 C   0  0  0  0  0  0  0  0  0  0  0  0
   11.4937    1.7107   25.1695 H   0  0  0  0  0  0  0  0  0  0  0  0
   10.9775   -0.0182   24.0098 C   0  0  0  0  0  0  0  0  0  0  0  0
    9.6108   -0.3096   25.0553 Cl  0  0  0  0  0  0  0  0  0  0  0  0
    8.8013   -1.0293   20.8669 N   0  0  0  0  0  0  0  0  0  0  0  0
    9.3307   -0.1621   20.7497 H   0  0  0  0  0  0  0  0  0  0  0  0
    5.5577    0.6304   20.0605 C   0  0  0  0  0  0  0  0  0  0  0  0
    5.1337    0.6492   21.0645 H   0  0  0  0  0  0  0  0  0  0  0  0
    4.9457    1.3148   19.0144 C   0  0  0  0  0  0  0  0  0  0  0  0
    4.0356    1.8862   19.1691 H   0  0  0  0  0  0  0  0  0  0  0  0
  1  2  1  0
  2  3  2  0
  3  4  1  0
  4  5  1  0
  4  6  2  0
  6  7  1  0
  7  8  2  0
  8  9  1  0
  8 10  1  0
 10 11  2  0
 10 12  1  0
 12 13  1  0
 13 14  1  0
 13 15  1  0
 13 16  1  0
 16 17  2  0
 17 18  1  0
 17 19  1  0
 19 20  1  0
 19 21  2  0
 21 22  1  0
 21 23  1  0
 23 24  1  0
 23 25  2  0
 25 26  1  0
 12 27  1  0
 27 28  1  0
  6 29  1  0
 29 30  1  0
 29 31  2  0
 31 32  1  0
 31  2  1  0
 27  7  1  0
 25 16  1  0
M  END
>  <cnnaffinity>  (1) 
-5.56575

>  <filename>  (1) 
O=c1cc(-c2cccnc2)[nH]n1Cc1ccccc1Cl

$$$$
