
     RDKit          3D

 31 33  0  0  0  0  0  0  0  0999 V2000
    2.9860   -4.6790   22.5751 H   0  0  0  0  0  0  0  0  0  0  0  0
    3.1048   -4.9362   23.4937 O   0  0  0  0  0  0  0  0  0  0  0  0
    4.2690   -4.3918   23.9359 C   0  0  0  0  0  0  0  0  0  0  0  0
    4.6089   -4.6574   25.2648 C   0  0  0  0  0  0  0  0  0  0  0  0
    3.9399   -5.2767   25.8487 H   0  0  0  0  0  0  0  0  0  0  0  0
    5.7801   -4.1167   25.7892 C   0  0  0  0  0  0  0  0  0  0  0  0
    6.0457   -4.3235   26.8215 H   0  0  0  0  0  0  0  0  0  0  0  0
    6.6132   -3.3193   25.0015 C   0  0  0  0  0  0  0  0  0  0  0  0
    7.5062   -2.8988   25.4538 H   0  0  0  0  0  0  0  0  0  0  0  0
    6.2804   -3.0521   23.6587 C   0  0  0  0  0  0  0  0  0  0  0  0
    7.1796   -2.2001   22.8022 C   0  0  0  0  0  0  0  0  0  0  0  0
    6.5885   -1.5059   21.7624 N   0  0  0  0  0  0  0  0  0  0  0  0
    7.3174   -0.7336   20.9820 C   0  0  0  0  0  0  0  0  0  0  0  0
    6.6216   -0.0123   19.9047 C   0  0  0  0  0  0  0  0  0  0  0  0
    7.1518    0.0443   18.6051 C   0  0  0  0  0  0  0  0  0  0  0  0
    8.1145   -0.4163   18.3859 H   0  0  0  0  0  0  0  0  0  0  0  0
    6.5551    0.6671   17.5858 N   0  0  0  0  0  0  0  0  0  0  0  0
    5.3979    1.2935   17.8397 C   0  0  0  0  0  0  0  0  0  0  0  0
    4.9284    1.7858   16.9918 H   0  0  0  0  0  0  0  0  0  0  0  0
    4.7971    1.3199   19.1033 C   0  0  0  0  0  0  0  0  0  0  0  0
    3.8676    1.8557   19.2477 H   0  0  0  0  0  0  0  0  0  0  0  0
    5.4091    0.6466   20.1551 C   0  0  0  0  0  0  0  0  0  0  0  0
    4.9783    0.6340   21.1586 H   0  0  0  0  0  0  0  0  0  0  0  0
    8.8044   -0.5608   21.1747 C   0  0  0  0  0  0  0  0  0  0  0  0
    9.6002    0.1372   20.5602 O   0  0  0  0  0  0  0  0  0  0  0  0
    9.3058   -1.3280   22.2176 N   0  0  0  0  0  0  0  0  0  0  0  0
   10.3024   -1.1732   22.3061 H   0  0  0  0  0  0  0  0  0  0  0  0
    8.5306   -2.1258   23.0266 C   0  0  0  0  0  0  0  0  0  0  0  0
    9.0448   -2.6847   23.8026 H   0  0  0  0  0  0  0  0  0  0  0  0
    5.0929   -3.5999   23.1328 C   0  0  0  0  0  0  0  0  0  0  0  0
    4.8246   -3.3659   22.1047 H   0  0  0  0  0  0  0  0  0  0  0  0
  1  2  1  0
  2  3  1  0
  3  4  2  0
  4  5  1  0
  4  6  1  0
  6  7  1  0
  6  8  2  0
  8  9  1  0
  8 10  1  0
 10 11  1  0
 11 12  1  0
 12 13  2  0
 13 14  1  0
 14 15  2  0
 15 16  1  0
 15 17  1  0
 17 18  2  0
 18 19  1  0
 18 20  1  0
 20 21  1  0
 20 22  2  0
 22 23  1  0
 13 24  1  0
 24 25  2  0
 24 26  1  0
 26 27  1  0
 26 28  1  0
 28 29  1  0
 10 30  2  0
 30 31  1  0
 30  3  1  0
 28 11  2  0
 22 14  1  0
M  END
>  <cnnaffinity>  (1) 
-5.23554

>  <filename>  (1) 
O=c1[nH]cc(-c2cccc(O)c2)nc1-c1cccnc1

$$$$
