
     RDKit          3D

 18 19  0  0  0  0  0  0  0  0999 V2000
    4.9490    1.8230   16.9925 H   0  0  0  0  0  0  0  0  0  0  0  0
    5.4256    1.3148   17.8273 C   0  0  0  0  0  0  0  0  0  0  0  0
    6.5902    0.6980   17.5582 N   0  0  0  0  0  0  0  0  0  0  0  0
    7.2045    0.0445   18.5496 C   0  0  0  0  0  0  0  0  0  0  0  0
    8.1553   -0.4350   18.3106 H   0  0  0  0  0  0  0  0  0  0  0  0
    6.6754   -0.0423   19.8552 C   0  0  0  0  0  0  0  0  0  0  0  0
    7.3495   -0.7666   20.9041 N   0  0  0  0  0  0  0  0  0  0  0  0
    8.6100   -0.5266   21.4365 C   0  0  0  0  0  0  0  0  0  0  0  0
    9.6754    0.6067   20.7575 Cl  0  0  0  0  0  0  0  0  0  0  0  0
    8.9080   -1.2593   22.4543 N   0  0  0  0  0  0  0  0  0  0  0  0
    7.7846   -2.0446   22.5966 N   0  0  0  0  0  0  0  0  0  0  0  0
    7.6573   -2.7046   23.3431 H   0  0  0  0  0  0  0  0  0  0  0  0
    6.7967   -1.8047   21.6893 C   0  0  0  0  0  0  0  0  0  0  0  0
    5.7292   -2.3700   21.5689 O   0  0  0  0  0  0  0  0  0  0  0  0
    5.4709    0.6224   20.1275 C   0  0  0  0  0  0  0  0  0  0  0  0
    5.0605    0.5825   21.1337 H   0  0  0  0  0  0  0  0  0  0  0  0
    4.8281    1.3151   19.0912 C   0  0  0  0  0  0  0  0  0  0  0  0
    3.8853    1.8398   19.2462 H   0  0  0  0  0  0  0  0  0  0  0  0
  1  2  1  0
  2  3  2  0
  3  4  1  0
  4  5  1  0
  4  6  2  0
  6  7  1  0
  7  8  1  0
  8  9  1  0
  8 10  2  0
 10 11  1  0
 11 12  1  0
 11 13  1  0
 13 14  2  0
  6 15  1  0
 15 16  1  0
 15 17  2  0
 17 18  1  0
 17  2  1  0
 13  7  1  0
M  END
>  <cnnaffinity>  (1) 
-4.11621

>  <filename>  (1) 
O=c1[nH]nc(Cl)n1-c1cccnc1

$$$$
