
     RDKit          3D

 31 33  0  0  0  0  0  0  0  0999 V2000
    4.9719    1.7761   16.9868 H   0  0  0  0  0  0  0  0  0  0  0  0
    5.4467    1.3012   17.8392 C   0  0  0  0  0  0  0  0  0  0  0  0
    6.6262    0.7022   17.5876 N   0  0  0  0  0  0  0  0  0  0  0  0
    7.2395    0.0898   18.6044 C   0  0  0  0  0  0  0  0  0  0  0  0
    8.2120   -0.3598   18.4116 H   0  0  0  0  0  0  0  0  0  0  0  0
    6.6794    0.0070   19.8912 C   0  0  0  0  0  0  0  0  0  0  0  0
    7.3629   -0.7149   20.9082 N   0  0  0  0  0  0  0  0  0  0  0  0
    8.7058   -0.4275   20.9763 N   0  0  0  0  0  0  0  0  0  0  0  0
    9.3826   -0.9714   21.9427 C   0  0  0  0  0  0  0  0  0  0  0  0
   11.0792   -0.4476   22.1131 S   0  0  0  0  0  0  0  0  0  0  0  0
   10.7620    0.9156   23.2320 C   0  0  0  0  0  0  0  0  0  0  0  0
   10.4637    2.1930   22.7337 C   0  0  0  0  0  0  0  0  0  0  0  0
   10.5365    2.3899   21.6642 H   0  0  0  0  0  0  0  0  0  0  0  0
   10.0234    3.1913   23.6101 C   0  0  0  0  0  0  0  0  0  0  0  0
    9.8028    4.1785   23.2176 H   0  0  0  0  0  0  0  0  0  0  0  0
    9.8339    2.9178   24.9691 C   0  0  0  0  0  0  0  0  0  0  0  0
    9.3856    3.6544   25.6354 H   0  0  0  0  0  0  0  0  0  0  0  0
   10.1962    1.6667   25.4747 C   0  0  0  0  0  0  0  0  0  0  0  0
   10.0577    1.4300   26.5229 H   0  0  0  0  0  0  0  0  0  0  0  0
   10.6909    0.6849   24.6149 C   0  0  0  0  0  0  0  0  0  0  0  0
   10.9955   -0.2737   25.0200 H   0  0  0  0  0  0  0  0  0  0  0  0
    8.8125   -1.9221   22.8760 C   0  0  0  0  0  0  0  0  0  0  0  0
    9.4414   -2.3555   23.6528 H   0  0  0  0  0  0  0  0  0  0  0  0
    7.5052   -2.2758   22.7283 C   0  0  0  0  0  0  0  0  0  0  0  0
    6.9847   -2.9844   23.3603 H   0  0  0  0  0  0  0  0  0  0  0  0
    6.6756   -1.7435   21.6506 C   0  0  0  0  0  0  0  0  0  0  0  0
    5.5500   -2.1242   21.3741 O   0  0  0  0  0  0  0  0  0  0  0  0
    5.4583    0.6369   20.1509 C   0  0  0  0  0  0  0  0  0  0  0  0
    5.0226    0.5954   21.1470 H   0  0  0  0  0  0  0  0  0  0  0  0
    4.8333    1.3109   19.0967 C   0  0  0  0  0  0  0  0  0  0  0  0
    3.8836    1.8252   19.2289 H   0  0  0  0  0  0  0  0  0  0  0  0
  1  2  1  0
  2  3  2  0
  3  4  1  0
  4  5  1  0
  4  6  2  0
  6  7  1  0
  7  8  1  0
  8  9  2  0
  9 10  1  0
 10 11  1  0
 11 12  2  0
 12 13  1  0
 12 14  1  0
 14 15  1  0
 14 16  2  0
 16 17  1  0
 16 18  1  0
 18 19  1  0
 18 20  2  0
 20 21  1  0
  9 22  1  0
 22 23  1  0
 22 24  2  0
 24 25  1  0
 24 26  1  0
 26 27  2  0
  6 28  1  0
 28 29  1  0
 28 30  2  0
 30 31  1  0
 30  2  1  0
 26  7  1  0
 20 11  1  0
M  END
>  <cnnaffinity>  (1) 
-5.29061

>  <filename>  (1) 
O=c1ccc(Sc2ccccc2)nn1-c1cccnc1

$$$$
