
     RDKit          3D

 31 33  0  0  0  0  0  0  0  0999 V2000
    4.9127    1.7873   16.9926 H   0  0  0  0  0  0  0  0  0  0  0  0
    5.3989    1.2953   17.8315 C   0  0  0  0  0  0  0  0  0  0  0  0
    6.5636    0.6849   17.5668 N   0  0  0  0  0  0  0  0  0  0  0  0
    7.1738    0.0676   18.5833 C   0  0  0  0  0  0  0  0  0  0  0  0
    8.1229   -0.4180   18.3550 H   0  0  0  0  0  0  0  0  0  0  0  0
    6.6613    0.0102   19.8887 C   0  0  0  0  0  0  0  0  0  0  0  0
    7.3937   -0.6887   21.0125 C   0  0  2  0  0  0  0  0  0  0  0  0
    8.1998   -1.2919   20.5788 H   0  0  0  0  0  0  0  0  0  0  0  0
    6.5184   -1.6805   21.7852 C   0  0  0  0  0  0  0  0  0  0  0  0
    5.8656   -2.6071   21.3505 O   0  0  0  0  0  0  0  0  0  0  0  0
    6.6073   -1.3513   23.0947 N   0  0  0  0  0  0  0  0  0  0  0  0
    6.0321   -1.8833   23.7264 H   0  0  0  0  0  0  0  0  0  0  0  0
    7.4313   -0.2235   23.4497 C   0  0  0  0  0  0  0  0  0  0  0  0
    8.2485   -0.5370   24.1196 H   0  0  0  0  0  0  0  0  0  0  0  0
    6.8669    0.5571   23.9836 H   0  0  0  0  0  0  0  0  0  0  0  0
    7.9483    0.2925   22.0850 C   0  0  1  0  0  0  0  0  0  0  0  0
    7.5279    1.2890   21.9117 H   0  0  0  0  0  0  0  0  0  0  0  0
    9.4465    0.4303   22.0272 C   0  0  0  0  0  0  0  0  0  0  0  0
   10.2794   -0.6668   22.2644 C   0  0  0  0  0  0  0  0  0  0  0  0
    9.8715   -1.6410   22.5017 H   0  0  0  0  0  0  0  0  0  0  0  0
   11.6595   -0.4957   22.1999 C   0  0  0  0  0  0  0  0  0  0  0  0
   12.3226   -1.3349   22.3873 H   0  0  0  0  0  0  0  0  0  0  0  0
   12.2509    0.6718   21.9194 N   0  0  0  0  0  0  0  0  0  0  0  0
   11.4491    1.7120   21.6683 C   0  0  0  0  0  0  0  0  0  0  0  0
   11.9404    2.6513   21.4263 H   0  0  0  0  0  0  0  0  0  0  0  0
   10.0576    1.6450   21.7059 C   0  0  0  0  0  0  0  0  0  0  0  0
    9.4638    2.5271   21.4968 H   0  0  0  0  0  0  0  0  0  0  0  0
    5.4455    0.6503   20.1489 C   0  0  0  0  0  0  0  0  0  0  0  0
    5.0155    0.6284   21.1534 H   0  0  0  0  0  0  0  0  0  0  0  0
    4.8076    1.3097   19.0986 C   0  0  0  0  0  0  0  0  0  0  0  0
    3.8792    1.8409   19.2552 H   0  0  0  0  0  0  0  0  0  0  0  0
  1  2  1  0
  2  3  2  0
  3  4  1  0
  4  5  1  0
  4  6  2  0
  6  7  1  0
  7  8  1  6
  7  9  1  0
  9 10  2  0
  9 11  1  0
 11 12  1  0
 11 13  1  0
 13 14  1  0
 13 15  1  0
 13 16  1  0
 16 17  1  6
 16 18  1  0
 18 19  2  0
 19 20  1  0
 19 21  1  0
 21 22  1  0
 21 23  2  0
 23 24  1  0
 24 25  1  0
 24 26  2  0
 26 27  1  0
  6 28  1  0
 28 29  1  0
 28 30  2  0
 30 31  1  0
 30  2  1  0
 16  7  1  0
 26 18  1  0
M  END
>  <cnnaffinity>  (1) 
-5.21543

>  <filename>  (1) 
O=C1NC[C@@H](c2ccncc2)[C@@H]1c1cccnc1

$$$$
