
     RDKit          3D

 31 33  0  0  0  0  0  0  0  0999 V2000
    4.9600    1.8896   16.9473 H   0  0  0  0  0  0  0  0  0  0  0  0
    5.4133    1.3473   17.7750 C   0  0  0  0  0  0  0  0  0  0  0  0
    6.5728    0.7242   17.5151 N   0  0  0  0  0  0  0  0  0  0  0  0
    7.1646    0.0634   18.5166 C   0  0  0  0  0  0  0  0  0  0  0  0
    8.1110   -0.4169   18.2763 H   0  0  0  0  0  0  0  0  0  0  0  0
    6.6189   -0.0381   19.8146 C   0  0  0  0  0  0  0  0  0  0  0  0
    7.3174   -0.7275   20.8863 N   0  0  0  0  0  0  0  0  0  0  0  0
    8.5801   -0.2736   21.2394 C   0  0  0  0  0  0  0  0  0  0  0  0
    8.9384    0.5891   20.6819 H   0  0  0  0  0  0  0  0  0  0  0  0
    9.3420   -0.8593   22.1914 C   0  0  0  0  0  0  0  0  0  0  0  0
   10.7173   -0.3735   22.4409 C   0  0  0  0  0  0  0  0  0  0  0  0
   11.8189   -1.2336   22.3041 C   0  0  0  0  0  0  0  0  0  0  0  0
   11.6526   -2.2791   22.0607 H   0  0  0  0  0  0  0  0  0  0  0  0
   13.1195   -0.7541   22.4791 C   0  0  0  0  0  0  0  0  0  0  0  0
   13.9861   -1.3951   22.3739 H   0  0  0  0  0  0  0  0  0  0  0  0
   13.3194    0.5798   22.8181 C   0  0  0  0  0  0  0  0  0  0  0  0
   14.5631    1.0469   22.9697 F   0  0  0  0  0  0  0  0  0  0  0  0
   12.2268    1.4371   23.0002 C   0  0  0  0  0  0  0  0  0  0  0  0
   12.4329    2.7013   23.3949 F   0  0  0  0  0  0  0  0  0  0  0  0
   10.9331    0.9797   22.7795 C   0  0  0  0  0  0  0  0  0  0  0  0
   10.1121    1.6898   22.8665 H   0  0  0  0  0  0  0  0  0  0  0  0
    8.7762   -1.9984   22.9474 C   0  0  0  0  0  0  0  0  0  0  0  0
    9.2995   -2.6910   23.7895 O   0  0  0  0  0  0  0  0  0  0  0  0
    7.4647   -2.2773   22.6284 N   0  0  0  0  0  0  0  0  0  0  0  0
    7.0598   -3.0565   23.1098 H   0  0  0  0  0  0  0  0  0  0  0  0
    6.7139   -1.7939   21.6051 C   0  0  0  0  0  0  0  0  0  0  0  0
    5.6379   -2.2858   21.3628 O   0  0  0  0  0  0  0  0  0  0  0  0
    5.4099    0.6159   20.0717 C   0  0  0  0  0  0  0  0  0  0  0  0
    4.9702    0.5722   21.0676 H   0  0  0  0  0  0  0  0  0  0  0  0
    4.7978    1.3234   19.0303 C   0  0  0  0  0  0  0  0  0  0  0  0
    3.8697    1.8642   19.1841 H   0  0  0  0  0  0  0  0  0  0  0  0
  1  2  1  0
  2  3  2  0
  3  4  1  0
  4  5  1  0
  4  6  2  0
  6  7  1  0
  7  8  1  0
  8  9  1  0
  8 10  2  0
 10 11  1  0
 11 12  2  0
 12 13  1  0
 12 14  1  0
 14 15  1  0
 14 16  2  0
 16 17  1  0
 16 18  1  0
 18 19  1  0
 18 20  2  0
 20 21  1  0
 10 22  1  0
 22 23  2  0
 22 24  1  0
 24 25  1  0
 24 26  1  0
 26 27  2  0
  6 28  1  0
 28 29  1  0
 28 30  2  0
 30 31  1  0
 30  2  1  0
 26  7  1  0
 20 11  1  0
M  END
>  <cnnaffinity>  (1) 
-5.44635

>  <filename>  (1) 
O=c1[nH]c(=O)n(-c2cccnc2)cc1-c1ccc(F)c(F)c1

$$$$
