
     RDKit          3D

 32 35  0  0  0  0  0  0  0  0999 V2000
    4.9299    1.7893   16.8940 H   0  0  0  0  0  0  0  0  0  0  0  0
    5.3976    1.3336   17.7645 C   0  0  0  0  0  0  0  0  0  0  0  0
    6.5859    0.7474   17.5535 N   0  0  0  0  0  0  0  0  0  0  0  0
    7.1820    0.1697   18.6034 C   0  0  0  0  0  0  0  0  0  0  0  0
    8.1512   -0.2695   18.3770 H   0  0  0  0  0  0  0  0  0  0  0  0
    6.6476    0.1341   19.9058 C   0  0  0  0  0  0  0  0  0  0  0  0
    7.3743   -0.5289   21.0331 C   0  0  0  0  0  0  0  0  0  0  0  0
    7.0320   -0.1312   22.2992 N   0  0  0  0  0  0  0  0  0  0  0  0
    7.6738   -0.6396   23.3368 C   0  0  0  0  0  0  0  0  0  0  0  0
    7.5407   -0.0134   24.6488 C   0  0  0  0  0  0  0  0  0  0  0  0
    6.8111    1.0056   24.9701 N   0  0  0  0  0  0  0  0  0  0  0  0
    7.0561    1.2020   26.3228 C   0  0  0  0  0  0  0  0  0  0  0  0
    6.5374    2.1393   27.2399 C   0  0  0  0  0  0  0  0  0  0  0  0
    5.8456    2.9061   26.8952 H   0  0  0  0  0  0  0  0  0  0  0  0
    6.9421    2.0302   28.5728 C   0  0  0  0  0  0  0  0  0  0  0  0
    6.5322    2.7132   29.3122 H   0  0  0  0  0  0  0  0  0  0  0  0
    7.8596    1.0359   28.9808 C   0  0  0  0  0  0  0  0  0  0  0  0
    8.1581    0.9722   30.0250 H   0  0  0  0  0  0  0  0  0  0  0  0
    8.4036    0.1231   28.0680 C   0  0  0  0  0  0  0  0  0  0  0  0
    9.1259   -0.6311   28.3655 H   0  0  0  0  0  0  0  0  0  0  0  0
    7.9724    0.2336   26.7492 C   0  0  0  0  0  0  0  0  0  0  0  0
    8.2930   -0.5303   25.6767 O   0  0  0  0  0  0  0  0  0  0  0  0
    8.5801   -1.8171   23.2411 C   0  0  0  0  0  0  0  0  0  0  0  0
    9.0604   -2.5131   24.1065 O   0  0  0  0  0  0  0  0  0  0  0  0
    8.9026   -2.1104   21.9121 N   0  0  0  0  0  0  0  0  0  0  0  0
    9.5330   -2.9072   21.8937 H   0  0  0  0  0  0  0  0  0  0  0  0
    8.3500   -1.4768   20.8260 C   0  0  0  0  0  0  0  0  0  0  0  0
    8.7388   -1.7366   19.8493 H   0  0  0  0  0  0  0  0  0  0  0  0
    5.4115    0.7779   20.1053 C   0  0  0  0  0  0  0  0  0  0  0  0
    4.9909    0.8258   21.1113 H   0  0  0  0  0  0  0  0  0  0  0  0
    4.7750    1.3769   19.0172 C   0  0  0  0  0  0  0  0  0  0  0  0
    3.8282    1.8991   19.1285 H   0  0  0  0  0  0  0  0  0  0  0  0
  1  2  1  0
  2  3  2  0
  3  4  1  0
  4  5  1  0
  4  6  2  0
  6  7  1  0
  7  8  1  0
  8  9  2  0
  9 10  1  0
 10 11  2  0
 11 12  1  0
 12 13  2  0
 13 14  1  0
 13 15  1  0
 15 16  1  0
 15 17  2  0
 17 18  1  0
 17 19  1  0
 19 20  1  0
 19 21  2  0
 21 22  1  0
  9 23  1  0
 23 24  2  0
 23 25  1  0
 25 26  1  0
 25 27  1  0
 27 28  1  0
  6 29  1  0
 29 30  1  0
 29 31  2  0
 31 32  1  0
 31  2  1  0
 27  7  2  0
 22 10  1  0
 21 12  1  0
M  END
>  <cnnaffinity>  (1) 
-5.27192

>  <filename>  (1) 
O=c1[nH]cc(-c2cccnc2)nc1-c1nc2ccccc2o1

$$$$
