
     RDKit          3D

 44 47  0  0  0  0  0  0  0  0999 V2000
    4.8816    1.7580   17.0047 H   0  0  0  0  0  0  0  0  0  0  0  0
    5.3938    1.3685   17.8829 C   0  0  0  0  0  0  0  0  0  0  0  0
    6.5885    0.7995   17.6602 N   0  0  0  0  0  0  0  0  0  0  0  0
    7.2416    0.2896   18.7110 C   0  0  0  0  0  0  0  0  0  0  0  0
    8.2280   -0.1250   18.5021 H   0  0  0  0  0  0  0  0  0  0  0  0
    6.7321    0.2820   20.0244 C   0  0  0  0  0  0  0  0  0  0  0  0
    7.3858   -0.4563   21.0607 N   0  0  0  0  0  0  0  0  0  0  0  0
    7.4939    0.1365   22.2959 N   0  0  0  0  0  0  0  0  0  0  0  0
    8.0217   -0.5588   23.2821 C   0  0  0  0  0  0  0  0  0  0  0  0
    8.0949    0.0318   24.5467 N   0  0  0  0  0  0  0  0  0  0  0  0
    7.4458   -0.6793   25.6698 C   0  0  0  0  0  0  0  0  0  0  0  0
    6.3492   -0.5336   25.6412 H   0  0  0  0  0  0  0  0  0  0  0  0
    7.6667   -1.7478   25.5787 H   0  0  0  0  0  0  0  0  0  0  0  0
    7.9862   -0.1842   27.0174 C   0  0  0  0  0  0  0  0  0  0  0  0
    9.0505   -0.4824   27.0981 H   0  0  0  0  0  0  0  0  0  0  0  0
    7.4336   -0.6950   27.8144 H   0  0  0  0  0  0  0  0  0  0  0  0
    7.8164    1.2701   27.1211 N   0  0  0  0  0  0  0  0  0  0  0  0
    7.7356    1.9099   28.3751 C   0  0  0  0  0  0  0  0  0  0  0  0
    8.1428    1.3050   29.5799 C   0  0  0  0  0  0  0  0  0  0  0  0
    8.6278    0.3350   29.5311 H   0  0  0  0  0  0  0  0  0  0  0  0
    8.0343    1.9956   30.7927 C   0  0  0  0  0  0  0  0  0  0  0  0
    8.3151    1.4992   31.7212 H   0  0  0  0  0  0  0  0  0  0  0  0
    7.5558    3.3082   30.8157 C   0  0  0  0  0  0  0  0  0  0  0  0
    7.5167    3.8594   31.7518 H   0  0  0  0  0  0  0  0  0  0  0  0
    7.1313    3.9143   29.6277 C   0  0  0  0  0  0  0  0  0  0  0  0
    6.7893    4.9472   29.6300 H   0  0  0  0  0  0  0  0  0  0  0  0
    7.2067    3.2148   28.4208 C   0  0  0  0  0  0  0  0  0  0  0  0
    6.8454    3.6498   27.4940 H   0  0  0  0  0  0  0  0  0  0  0  0
    8.5713    1.9295   26.0402 C   0  0  0  0  0  0  0  0  0  0  0  0
    8.5101    3.0184   26.1340 H   0  0  0  0  0  0  0  0  0  0  0  0
    9.6450    1.6703   26.1015 H   0  0  0  0  0  0  0  0  0  0  0  0
    8.0176    1.4941   24.6732 C   0  0  0  0  0  0  0  0  0  0  0  0
    6.9764    1.8388   24.5781 H   0  0  0  0  0  0  0  0  0  0  0  0
    8.5976    1.9598   23.8713 H   0  0  0  0  0  0  0  0  0  0  0  0
    8.5579   -1.9906   23.1276 C   0  0  0  0  0  0  0  0  0  0  0  0
    9.0894   -2.6759   23.9981 O   0  0  0  0  0  0  0  0  0  0  0  0
    8.3512   -2.5144   21.7978 C   0  0  0  0  0  0  0  0  0  0  0  0
    8.6985   -3.5210   21.6246 H   0  0  0  0  0  0  0  0  0  0  0  0
    7.7496   -1.7619   20.8510 C   0  0  0  0  0  0  0  0  0  0  0  0
    7.4801   -2.1496   19.8760 H   0  0  0  0  0  0  0  0  0  0  0  0
    5.5130    0.9322   20.2557 C   0  0  0  0  0  0  0  0  0  0  0  0
    5.1332    0.9930   21.2741 H   0  0  0  0  0  0  0  0  0  0  0  0
    4.8242    1.4623   19.1566 C   0  0  0  0  0  0  0  0  0  0  0  0
    3.8633    1.9495   19.2716 H   0  0  0  0  0  0  0  0  0  0  0  0
  1  2  1  0
  2  3  2  0
  3  4  1  0
  4  5  1  0
  4  6  2  0
  6  7  1  0
  7  8  1  0
  8  9  2  0
  9 10  1  0
 10 11  1  0
 11 12  1  0
 11 13  1  0
 11 14  1  0
 14 15  1  0
 14 16  1  0
 14 17  1  0
 17 18  1  0
 18 19  2  0
 19 20  1  0
 19 21  1  0
 21 22  1  0
 21 23  2  0
 23 24  1  0
 23 25  1  0
 25 26  1  0
 25 27  2  0
 27 28  1  0
 17 29  1  0
 29 30  1  0
 29 31  1  0
 29 32  1  0
 32 33  1  0
 32 34  1  0
  9 35  1  0
 35 36  2  0
 35 37  1  0
 37 38  1  0
 37 39  2  0
 39 40  1  0
  6 41  1  0
 41 42  1  0
 41 43  2  0
 43 44  1  0
 43  2  1  0
 39  7  1  0
 32 10  1  0
 27 18  1  0
M  END
>  <cnnaffinity>  (1) 
-5.16359

>  <filename>  (1) 
O=c1ccn(-c2cccnc2)nc1N1CCN(c2ccccc2)CC1

$$$$
