
     RDKit          3D

 39 42  0  0  0  0  0  0  0  0999 V2000
    4.9193    1.7959   16.9748 H   0  0  0  0  0  0  0  0  0  0  0  0
    5.3935    1.3012   17.8198 C   0  0  0  0  0  0  0  0  0  0  0  0
    6.5582    0.6842   17.5633 N   0  0  0  0  0  0  0  0  0  0  0  0
    7.1716    0.0733   18.5848 C   0  0  0  0  0  0  0  0  0  0  0  0
    8.1092   -0.4229   18.3360 H   0  0  0  0  0  0  0  0  0  0  0  0
    6.6640    0.0233   19.8973 C   0  0  0  0  0  0  0  0  0  0  0  0
    7.3359   -0.6991   20.9852 C   0  0  0  0  0  0  0  0  0  0  0  0
    6.8207   -1.2326   22.1082 C   0  0  0  0  0  0  0  0  0  0  0  0
    5.8007   -1.2641   22.4124 H   0  0  0  0  0  0  0  0  0  0  0  0
    7.8293   -1.8248   22.8536 N   0  0  0  0  0  0  0  0  0  0  0  0
    7.6647   -2.4743   24.1084 C   0  0  0  0  0  0  0  0  0  0  0  0
    8.6500   -2.3446   25.0923 C   0  0  0  0  0  0  0  0  0  0  0  0
    9.5370   -1.7594   24.8727 H   0  0  0  0  0  0  0  0  0  0  0  0
    8.4795   -2.9947   26.3150 C   0  0  0  0  0  0  0  0  0  0  0  0
    9.2530   -2.9215   27.0713 H   0  0  0  0  0  0  0  0  0  0  0  0
    7.3389   -3.7640   26.5586 C   0  0  0  0  0  0  0  0  0  0  0  0
    7.2123   -4.2637   27.5154 H   0  0  0  0  0  0  0  0  0  0  0  0
    6.3341   -3.8895   25.5820 C   0  0  0  0  0  0  0  0  0  0  0  0
    5.1055   -4.7015   25.8549 C   0  0  0  0  0  0  0  0  0  0  0  0
    5.1863   -5.9387   26.5226 C   0  0  0  0  0  0  0  0  0  0  0  0
    6.1601   -6.3095   26.8348 H   0  0  0  0  0  0  0  0  0  0  0  0
    4.0398   -6.6998   26.7736 C   0  0  0  0  0  0  0  0  0  0  0  0
    4.1283   -7.6510   27.2956 H   0  0  0  0  0  0  0  0  0  0  0  0
    2.7851   -6.2297   26.3673 C   0  0  0  0  0  0  0  0  0  0  0  0
    1.8923   -6.8193   26.5651 H   0  0  0  0  0  0  0  0  0  0  0  0
    2.6855   -4.9981   25.7084 C   0  0  0  0  0  0  0  0  0  0  0  0
    1.7162   -4.6272   25.3841 H   0  0  0  0  0  0  0  0  0  0  0  0
    3.8366   -4.2446   25.4537 C   0  0  0  0  0  0  0  0  0  0  0  0
    3.7664   -3.2823   24.9506 H   0  0  0  0  0  0  0  0  0  0  0  0
    6.5107   -3.2281   24.3551 C   0  0  0  0  0  0  0  0  0  0  0  0
    5.7540   -3.3169   23.5810 H   0  0  0  0  0  0  0  0  0  0  0  0
    9.0377   -1.6554   22.1710 C   0  0  0  0  0  0  0  0  0  0  0  0
   10.1660   -1.9950   22.4565 O   0  0  0  0  0  0  0  0  0  0  0  0
    8.6881   -0.9875   21.0225 N   0  0  0  0  0  0  0  0  0  0  0  0
    9.4228   -0.7048   20.4058 H   0  0  0  0  0  0  0  0  0  0  0  0
    5.4351    0.6649   20.1373 C   0  0  0  0  0  0  0  0  0  0  0  0
    5.0050    0.6569   21.1421 H   0  0  0  0  0  0  0  0  0  0  0  0
    4.7981    1.3205   19.0854 C   0  0  0  0  0  0  0  0  0  0  0  0
    3.8653    1.8504   19.2375 H   0  0  0  0  0  0  0  0  0  0  0  0
  1  2  1  0
  2  3  2  0
  3  4  1  0
  4  5  1  0
  4  6  2  0
  6  7  1  0
  7  8  2  0
  8  9  1  0
  8 10  1  0
 10 11  1  0
 11 12  2  0
 12 13  1  0
 12 14  1  0
 14 15  1  0
 14 16  2  0
 16 17  1  0
 16 18  1  0
 18 19  1  0
 19 20  2  0
 20 21  1  0
 20 22  1  0
 22 23  1  0
 22 24  2  0
 24 25  1  0
 24 26  1  0
 26 27  1  0
 26 28  2  0
 28 29  1  0
 18 30  2  0
 30 31  1  0
 10 32  1  0
 32 33  2  0
 32 34  1  0
 34 35  1  0
  6 36  1  0
 36 37  1  0
 36 38  2  0
 38 39  1  0
 38  2  1  0
 34  7  1  0
 30 11  1  0
 28 19  1  0
M  END
>  <cnnaffinity>  (1) 
-5.61386

>  <filename>  (1) 
O=c1[nH]c(-c2cccnc2)cn1-c1cccc(-c2ccccc2)c1

$$$$
