
     RDKit          3D

 32 34  0  0  0  0  0  0  0  0999 V2000
    4.9112    1.7830   16.9918 H   0  0  0  0  0  0  0  0  0  0  0  0
    5.3943    1.2971   17.8345 C   0  0  0  0  0  0  0  0  0  0  0  0
    6.5581    0.6776   17.5740 N   0  0  0  0  0  0  0  0  0  0  0  0
    7.1667    0.0579   18.5895 C   0  0  0  0  0  0  0  0  0  0  0  0
    8.1200   -0.4225   18.3878 H   0  0  0  0  0  0  0  0  0  0  0  0
    6.6392    0.0005   19.8927 C   0  0  0  0  0  0  0  0  0  0  0  0
    7.3517   -0.6796   20.9053 N   0  0  0  0  0  0  0  0  0  0  0  0
    8.7529   -0.6460   21.1436 C   0  0  0  0  0  0  0  0  0  0  0  0
    9.5678   -0.0407   20.4720 O   0  0  0  0  0  0  0  0  0  0  0  0
    8.9040   -1.4633   22.3195 C   0  0  0  0  0  0  0  0  0  0  0  0
    9.8588   -1.6612   22.7617 H   0  0  0  0  0  0  0  0  0  0  0  0
    7.6899   -1.9095   22.7192 C   0  0  0  0  0  0  0  0  0  0  0  0
    7.3774   -2.7382   23.9026 C   0  0  0  0  0  0  0  0  0  0  0  0
    7.9303   -2.3238   25.1254 C   0  0  0  0  0  0  0  0  0  0  0  0
    8.5557   -1.4341   25.1424 H   0  0  0  0  0  0  0  0  0  0  0  0
    7.6566   -3.0142   26.3013 C   0  0  0  0  0  0  0  0  0  0  0  0
    8.0814   -2.6726   27.2393 H   0  0  0  0  0  0  0  0  0  0  0  0
    6.8312   -4.1383   26.2635 C   0  0  0  0  0  0  0  0  0  0  0  0
    6.6050   -4.6773   27.1752 H   0  0  0  0  0  0  0  0  0  0  0  0
    6.3014   -4.5861   25.0543 C   0  0  0  0  0  0  0  0  0  0  0  0
    5.6641   -5.4670   25.0403 H   0  0  0  0  0  0  0  0  0  0  0  0
    6.5949   -3.9168   23.8570 C   0  0  0  0  0  0  0  0  0  0  0  0
    6.0325   -4.4659   22.5468 C   0  0  0  0  0  0  0  0  0  0  0  0
    4.8604   -3.8620   22.2280 F   0  0  0  0  0  0  0  0  0  0  0  0
    5.7770   -5.7876   22.6195 F   0  0  0  0  0  0  0  0  0  0  0  0
    6.8569   -4.2963   21.4968 F   0  0  0  0  0  0  0  0  0  0  0  0
    6.7320   -1.4122   21.9029 N   0  0  0  0  0  0  0  0  0  0  0  0
    5.7305   -1.5533   21.9323 H   0  0  0  0  0  0  0  0  0  0  0  0
    5.4280    0.6544   20.1575 C   0  0  0  0  0  0  0  0  0  0  0  0
    5.0142    0.6343   21.1688 H   0  0  0  0  0  0  0  0  0  0  0  0
    4.8007    1.3185   19.1032 C   0  0  0  0  0  0  0  0  0  0  0  0
    3.8679    1.8482   19.2604 H   0  0  0  0  0  0  0  0  0  0  0  0
  1  2  1  0
  2  3  2  0
  3  4  1  0
  4  5  1  0
  4  6  2  0
  6  7  1  0
  7  8  1  0
  8  9  2  0
  8 10  1  0
 10 11  1  0
 10 12  2  0
 12 13  1  0
 13 14  2  0
 14 15  1  0
 14 16  1  0
 16 17  1  0
 16 18  2  0
 18 19  1  0
 18 20  1  0
 20 21  1  0
 20 22  2  0
 22 23  1  0
 23 24  1  0
 23 25  1  0
 23 26  1  0
 12 27  1  0
 27 28  1  0
  6 29  1  0
 29 30  1  0
 29 31  2  0
 31 32  1  0
 31  2  1  0
 27  7  1  0
 22 13  1  0
M  END
>  <cnnaffinity>  (1) 
-5.56716

>  <filename>  (1) 
O=c1cc(-c2ccccc2C(F)(F)F)[nH]n1-c1cccnc1

$$$$
