
     RDKit          3D

 36 39  0  0  0  0  0  0  0  0999 V2000
    4.9127    1.8266   16.9731 H   0  0  0  0  0  0  0  0  0  0  0  0
    5.3788    1.3073   17.8087 C   0  0  0  0  0  0  0  0  0  0  0  0
    6.5325    0.6752   17.5399 N   0  0  0  0  0  0  0  0  0  0  0  0
    7.1618    0.0596   18.5493 C   0  0  0  0  0  0  0  0  0  0  0  0
    8.1126   -0.4156   18.3150 H   0  0  0  0  0  0  0  0  0  0  0  0
    6.6575    0.0140   19.8638 C   0  0  0  0  0  0  0  0  0  0  0  0
    7.3397   -0.6944   20.9351 N   0  0  0  0  0  0  0  0  0  0  0  0
    6.6919   -1.7466   21.5640 C   0  0  0  0  0  0  0  0  0  0  0  0
    5.6808   -1.9599   21.2088 H   0  0  0  0  0  0  0  0  0  0  0  0
    7.2843   -2.4564   22.5593 C   0  0  0  0  0  0  0  0  0  0  0  0
    6.6198   -3.5591   23.2475 C   0  0  0  0  0  0  0  0  0  0  0  0
    5.8652   -4.3402   22.4983 N   0  0  0  0  0  0  0  0  0  0  0  0
    5.2003   -5.3629   23.1130 C   0  0  0  0  0  0  0  0  0  0  0  0
    4.3799   -6.1813   22.2892 C   0  0  0  0  0  0  0  0  0  0  0  0
    4.4307   -5.9600   21.2322 H   0  0  0  0  0  0  0  0  0  0  0  0
    3.6122   -7.1811   22.8395 C   0  0  0  0  0  0  0  0  0  0  0  0
    2.9346   -7.7662   22.2173 H   0  0  0  0  0  0  0  0  0  0  0  0
    3.7091   -7.4700   24.2327 C   0  0  0  0  0  0  0  0  0  0  0  0
    3.1461   -8.3067   24.6367 H   0  0  0  0  0  0  0  0  0  0  0  0
    4.5054   -6.7057   25.0605 C   0  0  0  0  0  0  0  0  0  0  0  0
    4.5664   -6.9113   26.1306 H   0  0  0  0  0  0  0  0  0  0  0  0
    5.2532   -5.6149   24.5211 C   0  0  0  0  0  0  0  0  0  0  0  0
    6.0563   -4.7316   25.2988 C   0  0  0  0  0  0  0  0  0  0  0  0
    6.1077   -4.8668   26.3791 H   0  0  0  0  0  0  0  0  0  0  0  0
    6.7428   -3.7243   24.6691 C   0  0  0  0  0  0  0  0  0  0  0  0
    7.3875   -3.0367   25.1990 H   0  0  0  0  0  0  0  0  0  0  0  0
    8.6356   -2.1253   22.9927 C   0  0  0  0  0  0  0  0  0  0  0  0
    9.2987   -2.6618   23.8532 O   0  0  0  0  0  0  0  0  0  0  0  0
    9.1917   -1.0705   22.3145 N   0  0  0  0  0  0  0  0  0  0  0  0
   10.1329   -0.8285   22.5575 H   0  0  0  0  0  0  0  0  0  0  0  0
    8.6577   -0.3280   21.3127 C   0  0  0  0  0  0  0  0  0  0  0  0
    9.3008    0.5563   20.7998 O   0  0  0  0  0  0  0  0  0  0  0  0
    5.4413    0.6555   20.1228 C   0  0  0  0  0  0  0  0  0  0  0  0
    5.0351    0.6309   21.1340 H   0  0  0  0  0  0  0  0  0  0  0  0
    4.7917    1.3262   19.0786 C   0  0  0  0  0  0  0  0  0  0  0  0
    3.8590    1.8628   19.2348 H   0  0  0  0  0  0  0  0  0  0  0  0
  1  2  1  0
  2  3  2  0
  3  4  1  0
  4  5  1  0
  4  6  2  0
  6  7  1  0
  7  8  1  0
  8  9  1  0
  8 10  2  0
 10 11  1  0
 11 12  2  0
 12 13  1  0
 13 14  2  0
 14 15  1  0
 14 16  1  0
 16 17  1  0
 16 18  2  0
 18 19  1  0
 18 20  1  0
 20 21  1  0
 20 22  2  0
 22 23  1  0
 23 24  1  0
 23 25  2  0
 25 26  1  0
 10 27  1  0
 27 28  2  0
 27 29  1  0
 29 30  1  0
 29 31  1  0
 31 32  2  0
  6 33  1  0
 33 34  1  0
 33 35  2  0
 35 36  1  0
 35  2  1  0
 31  7  1  0
 25 11  1  0
 22 13  1  0
M  END
>  <cnnaffinity>  (1) 
-5.60013

>  <filename>  (1) 
O=c1[nH]c(=O)n(-c2cccnc2)cc1-c1ccc2ccccc2n1

$$$$
