
     RDKit          3D

 30 32  0  0  0  0  0  0  0  0999 V2000
    4.9176    1.7820   16.9935 H   0  0  0  0  0  0  0  0  0  0  0  0
    5.4013    1.2953   17.8381 C   0  0  0  0  0  0  0  0  0  0  0  0
    6.5644    0.6755   17.5790 N   0  0  0  0  0  0  0  0  0  0  0  0
    7.1755    0.0621   18.5994 C   0  0  0  0  0  0  0  0  0  0  0  0
    8.1147   -0.4368   18.3719 H   0  0  0  0  0  0  0  0  0  0  0  0
    6.6602    0.0047   19.9066 C   0  0  0  0  0  0  0  0  0  0  0  0
    7.3444   -0.6953   20.9526 N   0  0  0  0  0  0  0  0  0  0  0  0
    6.5564   -1.4302   21.8020 N   0  0  0  0  0  0  0  0  0  0  0  0
    7.1257   -2.0799   22.7900 C   0  0  0  0  0  0  0  0  0  0  0  0
    6.2318   -2.8520   23.7086 C   0  0  0  0  0  0  0  0  0  0  0  0
    6.4504   -2.8839   25.1000 C   0  0  0  0  0  0  0  0  0  0  0  0
    7.2937   -2.3490   25.5288 H   0  0  0  0  0  0  0  0  0  0  0  0
    5.6129   -3.6208   25.9281 C   0  0  0  0  0  0  0  0  0  0  0  0
    5.7686   -3.6431   27.0022 H   0  0  0  0  0  0  0  0  0  0  0  0
    4.5441   -4.3456   25.3864 C   0  0  0  0  0  0  0  0  0  0  0  0
    3.5136   -5.2314   26.4551 Cl  0  0  0  0  0  0  0  0  0  0  0  0
    4.3281   -4.3348   23.9984 C   0  0  0  0  0  0  0  0  0  0  0  0
    3.0120   -5.1895   23.2712 Cl  0  0  0  0  0  0  0  0  0  0  0  0
    5.1732   -3.5948   23.1696 C   0  0  0  0  0  0  0  0  0  0  0  0
    5.0074   -3.5786   22.0984 H   0  0  0  0  0  0  0  0  0  0  0  0
    8.6188   -2.0923   23.0235 C   0  0  0  0  0  0  0  0  0  0  0  0
    9.1858   -2.7257   23.9075 O   0  0  0  0  0  0  0  0  0  0  0  0
    9.3677   -1.2607   22.0862 C   0  0  0  0  0  0  0  0  0  0  0  0
   10.4428   -1.2203   22.2154 H   0  0  0  0  0  0  0  0  0  0  0  0
    8.7139   -0.6121   21.1083 C   0  0  0  0  0  0  0  0  0  0  0  0
    9.2276    0.0334   20.3927 H   0  0  0  0  0  0  0  0  0  0  0  0
    5.4407    0.6450   20.1663 C   0  0  0  0  0  0  0  0  0  0  0  0
    5.0305    0.5996   21.1767 H   0  0  0  0  0  0  0  0  0  0  0  0
    4.8121    1.3122   19.1094 C   0  0  0  0  0  0  0  0  0  0  0  0
    3.8773    1.8423   19.2612 H   0  0  0  0  0  0  0  0  0  0  0  0
  1  2  1  0
  2  3  2  0
  3  4  1  0
  4  5  1  0
  4  6  2  0
  6  7  1  0
  7  8  1  0
  8  9  2  0
  9 10  1  0
 10 11  2  0
 11 12  1  0
 11 13  1  0
 13 14  1  0
 13 15  2  0
 15 16  1  0
 15 17  1  0
 17 18  1  0
 17 19  2  0
 19 20  1  0
  9 21  1  0
 21 22  2  0
 21 23  1  0
 23 24  1  0
 23 25  2  0
 25 26  1  0
  6 27  1  0
 27 28  1  0
 27 29  2  0
 29 30  1  0
 29  2  1  0
 25  7  1  0
 19 10  1  0
M  END
>  <cnnaffinity>  (1) 
-5.41981

>  <filename>  (1) 
O=c1ccn(-c2cccnc2)nc1-c1ccc(Cl)c(Cl)c1

$$$$
