
     RDKit          3D

 39 41  0  0  0  0  0  0  0  0999 V2000
    4.9971    1.9499   16.9218 H   0  0  0  0  0  0  0  0  0  0  0  0
    5.4150    1.3717   17.7434 C   0  0  0  0  0  0  0  0  0  0  0  0
    6.5627    0.7236   17.4816 N   0  0  0  0  0  0  0  0  0  0  0  0
    7.1093    0.0233   18.4799 C   0  0  0  0  0  0  0  0  0  0  0  0
    8.0555   -0.4693   18.2644 H   0  0  0  0  0  0  0  0  0  0  0  0
    6.5315   -0.1079   19.7612 C   0  0  0  0  0  0  0  0  0  0  0  0
    7.2271   -0.8120   20.8163 N   0  0  0  0  0  0  0  0  0  0  0  0
    8.5250   -0.4104   21.0906 C   0  0  0  0  0  0  0  0  0  0  0  0
    8.8606    0.4802   20.5593 H   0  0  0  0  0  0  0  0  0  0  0  0
    9.2873   -1.0455   21.9942 C   0  0  0  0  0  0  0  0  0  0  0  0
   10.6807   -0.5952   22.2456 C   0  0  0  0  0  0  0  0  0  0  0  0
   11.2539   -0.5898   21.3007 H   0  0  0  0  0  0  0  0  0  0  0  0
   11.1768   -1.3100   22.9170 H   0  0  0  0  0  0  0  0  0  0  0  0
   10.6341    0.7730   22.7768 N   0  0  0  0  0  0  0  0  0  0  0  0
   11.8759    1.5253   22.5781 C   0  0  0  0  0  0  0  0  0  0  0  0
   11.6915    2.5602   22.9124 H   0  0  0  0  0  0  0  0  0  0  0  0
   12.0824    1.5931   21.5014 H   0  0  0  0  0  0  0  0  0  0  0  0
   13.0407    0.8920   23.3629 C   0  0  0  0  0  0  0  0  0  0  0  0
   13.9691    1.4562   23.2072 H   0  0  0  0  0  0  0  0  0  0  0  0
   13.1992   -0.1283   22.9812 H   0  0  0  0  0  0  0  0  0  0  0  0
   12.6949    0.8130   24.8615 C   0  0  0  0  0  0  0  0  0  0  0  0
   12.6950    1.8275   25.2628 H   0  0  0  0  0  0  0  0  0  0  0  0
   13.4786    0.2613   25.3952 H   0  0  0  0  0  0  0  0  0  0  0  0
   11.2952    0.2224   25.1295 C   0  0  0  0  0  0  0  0  0  0  0  0
   10.9967    0.3986   26.1686 H   0  0  0  0  0  0  0  0  0  0  0  0
   11.2922   -0.8635   24.9867 H   0  0  0  0  0  0  0  0  0  0  0  0
   10.2333    0.8275   24.1885 C   0  0  0  0  0  0  0  0  0  0  0  0
    9.2682    0.3228   24.2915 H   0  0  0  0  0  0  0  0  0  0  0  0
   10.0505    1.8868   24.4263 H   0  0  0  0  0  0  0  0  0  0  0  0
    8.6635   -1.9874   22.9151 C   0  0  0  0  0  0  0  0  0  0  0  0
    9.1549   -2.4303   23.9324 O   0  0  0  0  0  0  0  0  0  0  0  0
    7.4017   -2.3789   22.5468 N   0  0  0  0  0  0  0  0  0  0  0  0
    6.9244   -3.0207   23.1504 H   0  0  0  0  0  0  0  0  0  0  0  0
    6.6323   -1.8788   21.5379 C   0  0  0  0  0  0  0  0  0  0  0  0
    5.5461   -2.3576   21.3072 O   0  0  0  0  0  0  0  0  0  0  0  0
    5.3282    0.5538   20.0164 C   0  0  0  0  0  0  0  0  0  0  0  0
    4.8708    0.4703   21.0037 H   0  0  0  0  0  0  0  0  0  0  0  0
    4.7678    1.3201   18.9848 C   0  0  0  0  0  0  0  0  0  0  0  0
    3.8500    1.8809   19.1353 H   0  0  0  0  0  0  0  0  0  0  0  0
  1  2  1  0
  2  3  2  0
  3  4  1  0
  4  5  1  0
  4  6  2  0
  6  7  1  0
  7  8  1  0
  8  9  1  0
  8 10  2  0
 10 11  1  0
 11 12  1  0
 11 13  1  0
 11 14  1  0
 14 15  1  0
 15 16  1  0
 15 17  1  0
 15 18  1  0
 18 19  1  0
 18 20  1  0
 18 21  1  0
 21 22  1  0
 21 23  1  0
 21 24  1  0
 24 25  1  0
 24 26  1  0
 24 27  1  0
 27 28  1  0
 27 29  1  0
 10 30  1  0
 30 31  2  0
 30 32  1  0
 32 33  1  0
 32 34  1  0
 34 35  2  0
  6 36  1  0
 36 37  1  0
 36 38  2  0
 38 39  1  0
 38  2  1  0
 34  7  1  0
 27 14  1  0
M  END
>  <cnnaffinity>  (1) 
-5.14406

>  <filename>  (1) 
O=c1[nH]c(=O)n(-c2cccnc2)cc1CN1CCCCC1

$$$$
