
     RDKit          3D

 33 35  0  0  0  0  0  0  0  0999 V2000
    5.0425    1.9599   16.6681 H   0  0  0  0  0  0  0  0  0  0  0  0
    5.3946    1.4764   17.5762 C   0  0  0  0  0  0  0  0  0  0  0  0
    6.5419    0.7888   17.4633 N   0  0  0  0  0  0  0  0  0  0  0  0
    6.9912    0.1678   18.5562 C   0  0  0  0  0  0  0  0  0  0  0  0
    7.9304   -0.3754   18.4483 H   0  0  0  0  0  0  0  0  0  0  0  0
    6.3409    0.2034   19.7968 C   0  0  0  0  0  0  0  0  0  0  0  0
    6.9473   -0.5477   20.9144 C   0  0  0  0  0  0  0  0  0  0  0  0
    7.4566   -1.7113   20.6124 N   0  0  0  0  0  0  0  0  0  0  0  0
    8.0187   -2.4601   21.6044 C   0  0  0  0  0  0  0  0  0  0  0  0
    8.5645   -3.5303   21.4417 O   0  0  0  0  0  0  0  0  0  0  0  0
    7.9701   -1.9500   22.9087 N   0  0  0  0  0  0  0  0  0  0  0  0
    8.4989   -2.5482   23.5150 H   0  0  0  0  0  0  0  0  0  0  0  0
    7.5435   -0.7013   23.2329 C   0  0  0  0  0  0  0  0  0  0  0  0
    7.7925   -0.1963   24.6291 C   0  0  0  0  0  0  0  0  0  0  0  0
    7.6566   -1.0278   25.3262 H   0  0  0  0  0  0  0  0  0  0  0  0
    7.0441    0.5579   24.8899 H   0  0  0  0  0  0  0  0  0  0  0  0
    9.1967    0.3806   24.7768 C   0  0  0  0  0  0  0  0  0  0  0  0
   10.2637   -0.4454   25.1617 C   0  0  0  0  0  0  0  0  0  0  0  0
   10.0440   -1.4546   25.5033 H   0  0  0  0  0  0  0  0  0  0  0  0
   11.5841    0.0113   25.1387 C   0  0  0  0  0  0  0  0  0  0  0  0
   12.3943   -0.6277   25.4655 H   0  0  0  0  0  0  0  0  0  0  0  0
   11.8642    1.3128   24.7182 C   0  0  0  0  0  0  0  0  0  0  0  0
   12.8914    1.6609   24.6658 H   0  0  0  0  0  0  0  0  0  0  0  0
   10.8215    2.1780   24.3898 C   0  0  0  0  0  0  0  0  0  0  0  0
   11.0170    3.1998   24.0767 H   0  0  0  0  0  0  0  0  0  0  0  0
    9.5033    1.7148   24.4474 C   0  0  0  0  0  0  0  0  0  0  0  0
    8.2274    2.8613   24.1095 Cl  0  0  0  0  0  0  0  0  0  0  0  0
    6.9879    0.0215   22.2143 C   0  0  0  0  0  0  0  0  0  0  0  0
    6.6292    1.0286   22.3635 H   0  0  0  0  0  0  0  0  0  0  0  0
    5.1555    0.9472   19.9086 C   0  0  0  0  0  0  0  0  0  0  0  0
    4.6184    1.0155   20.8569 H   0  0  0  0  0  0  0  0  0  0  0  0
    4.6710    1.5855   18.7676 C   0  0  0  0  0  0  0  0  0  0  0  0
    3.7566    2.1714   18.7848 H   0  0  0  0  0  0  0  0  0  0  0  0
  1  2  1  0
  2  3  2  0
  3  4  1  0
  4  5  1  0
  4  6  2  0
  6  7  1  0
  7  8  2  0
  8  9  1  0
  9 10  2  0
  9 11  1  0
 11 12  1  0
 11 13  1  0
 13 14  1  0
 14 15  1  0
 14 16  1  0
 14 17  1  0
 17 18  2  0
 18 19  1  0
 18 20  1  0
 20 21  1  0
 20 22  2  0
 22 23  1  0
 22 24  1  0
 24 25  1  0
 24 26  2  0
 26 27  1  0
 13 28  2  0
 28 29  1  0
  6 30  1  0
 30 31  1  0
 30 32  2  0
 32 33  1  0
 32  2  1  0
 28  7  1  0
 26 17  1  0
M  END
>  <cnnaffinity>  (1) 
-5.39587

>  <filename>  (1) 
O=c1nc(-c2cccnc2)cc(Cc2ccccc2Cl)[nH]1

$$$$
