
     RDKit          3D

 32 34  0  0  0  0  0  0  0  0999 V2000
   10.1749   -0.3904   22.4910 H   0  0  0  0  0  0  0  0  0  0  0  0
    9.2270   -0.8015   22.1998 C   0  0  0  0  0  0  0  0  0  0  0  0
    8.4740   -1.5087   23.0613 C   0  0  0  0  0  0  0  0  0  0  0  0
    8.7094   -1.5362   24.5226 C   0  0  0  0  0  0  0  0  0  0  0  0
    8.9015   -0.3049   25.1812 C   0  0  0  0  0  0  0  0  0  0  0  0
    8.7247    0.6061   24.6128 H   0  0  0  0  0  0  0  0  0  0  0  0
    9.2550   -0.2727   26.5266 C   0  0  0  0  0  0  0  0  0  0  0  0
    9.4119    0.6815   27.0161 H   0  0  0  0  0  0  0  0  0  0  0  0
    9.4382   -1.4653   27.2373 C   0  0  0  0  0  0  0  0  0  0  0  0
    9.8012   -1.4286   28.2586 H   0  0  0  0  0  0  0  0  0  0  0  0
    9.1848   -2.6858   26.5919 C   0  0  0  0  0  0  0  0  0  0  0  0
    9.3852   -4.1969   27.4365 Cl  0  0  0  0  0  0  0  0  0  0  0  0
    8.7919   -2.7309   25.2540 C   0  0  0  0  0  0  0  0  0  0  0  0
    8.6001   -3.6922   24.7799 H   0  0  0  0  0  0  0  0  0  0  0  0
    7.3936   -2.2165   22.5426 N   0  0  0  0  0  0  0  0  0  0  0  0
    6.7187   -2.6570   23.1395 H   0  0  0  0  0  0  0  0  0  0  0  0
    6.6975   -1.7813   21.4260 C   0  0  0  0  0  0  0  0  0  0  0  0
    5.5867   -2.2316   21.2350 O   0  0  0  0  0  0  0  0  0  0  0  0
    7.3580   -0.8630   20.6150 N   0  0  0  0  0  0  0  0  0  0  0  0
    6.6449   -0.1012   19.6350 C   0  0  0  0  0  0  0  0  0  0  0  0
    7.1554    0.0944   18.3300 C   0  0  0  0  0  0  0  0  0  0  0  0
    8.1075   -0.3582   18.0576 H   0  0  0  0  0  0  0  0  0  0  0  0
    6.5443    0.8111   17.3797 N   0  0  0  0  0  0  0  0  0  0  0  0
    5.3874    1.4072   17.7103 C   0  0  0  0  0  0  0  0  0  0  0  0
    4.9068    1.9819   16.9233 H   0  0  0  0  0  0  0  0  0  0  0  0
    4.8060    1.2999   18.9784 C   0  0  0  0  0  0  0  0  0  0  0  0
    3.8782    1.8215   19.1860 H   0  0  0  0  0  0  0  0  0  0  0  0
    5.4358    0.5294   19.9623 C   0  0  0  0  0  0  0  0  0  0  0  0
    5.0207    0.4299   20.9656 H   0  0  0  0  0  0  0  0  0  0  0  0
    8.7957   -0.5903   20.7874 C   0  0  0  0  0  0  0  0  0  0  0  0
    8.9823    0.4642   20.5334 H   0  0  0  0  0  0  0  0  0  0  0  0
    9.4075   -1.1709   20.0647 H   0  0  0  0  0  0  0  0  0  0  0  0
  1  2  1  0
  2  3  2  0
  3  4  1  0
  4  5  2  0
  5  6  1  0
  5  7  1  0
  7  8  1  0
  7  9  2  0
  9 10  1  0
  9 11  1  0
 11 12  1  0
 11 13  2  0
 13 14  1  0
  3 15  1  0
 15 16  1  0
 15 17  1  0
 17 18  2  0
 17 19  1  0
 19 20  1  0
 20 21  2  0
 21 22  1  0
 21 23  1  0
 23 24  2  0
 24 25  1  0
 24 26  1  0
 26 27  1  0
 26 28  2  0
 28 29  1  0
 19 30  1  0
 30 31  1  0
 30 32  1  0
 30  2  1  0
 13  4  1  0
 28 20  1  0
M  END
>  <cnnaffinity>  (1) 
-4.94791

>  <filename>  (1) 
O=C1NC(c2cccc(Cl)c2)=CCN1c1cccnc1

$$$$
