
     RDKit          3D

 29 31  0  0  0  0  0  0  0  0999 V2000
   10.2410   -3.0685   22.6662 H   0  0  0  0  0  0  0  0  0  0  0  0
    9.9073   -2.1412   22.1910 C   0  0  0  0  0  0  0  0  0  0  0  0
   10.8671   -1.2032   21.9437 C   0  0  0  0  0  0  0  0  0  0  0  0
   12.5908   -1.5731   22.1611 S   0  0  0  0  0  0  0  0  0  0  0  0
   13.0284    0.1206   22.3356 C   0  0  0  0  0  0  0  0  0  0  0  0
   14.4500    0.6951   22.8729 S   0  0  0  0  0  0  0  0  0  0  0  0
   11.9681    0.8698   21.9559 N   0  0  0  0  0  0  0  0  0  0  0  0
   12.0023    1.8745   21.9357 H   0  0  0  0  0  0  0  0  0  0  0  0
   10.7583    0.2711   21.6747 C   0  0  0  0  0  0  0  0  0  0  0  0
    9.8296    0.9430   21.2975 O   0  0  0  0  0  0  0  0  0  0  0  0
    8.4914   -2.0697   21.9003 C   0  0  0  0  0  0  0  0  0  0  0  0
    7.9505   -1.2298   20.9524 C   0  0  0  0  0  0  0  0  0  0  0  0
    8.5950   -0.5253   20.4674 H   0  0  0  0  0  0  0  0  0  0  0  0
    6.5571   -1.2252   20.7112 C   0  0  0  0  0  0  0  0  0  0  0  0
    6.0892   -0.2766   19.6806 C   0  0  0  0  0  0  0  0  0  0  0  0
    6.8557   -0.2274   18.5068 C   0  0  0  0  0  0  0  0  0  0  0  0
    7.7511   -0.8470   18.4198 H   0  0  0  0  0  0  0  0  0  0  0  0
    6.5957    0.5642   17.4707 N   0  0  0  0  0  0  0  0  0  0  0  0
    5.5517    1.3956   17.5883 C   0  0  0  0  0  0  0  0  0  0  0  0
    5.3739    2.0448   16.7346 H   0  0  0  0  0  0  0  0  0  0  0  0
    4.7374    1.4481   18.7232 C   0  0  0  0  0  0  0  0  0  0  0  0
    3.9199    2.1569   18.7364 H   0  0  0  0  0  0  0  0  0  0  0  0
    5.0030    0.5996   19.8021 C   0  0  0  0  0  0  0  0  0  0  0  0
    4.4059    0.6533   20.7164 H   0  0  0  0  0  0  0  0  0  0  0  0
    5.7024   -2.0034   21.3113 N   0  0  0  0  0  0  0  0  0  0  0  0
    6.1982   -2.8482   22.2803 C   0  0  0  0  0  0  0  0  0  0  0  0
    5.5322   -3.5710   22.9893 O   0  0  0  0  0  0  0  0  0  0  0  0
    7.5890   -2.9014   22.4900 N   0  0  0  0  0  0  0  0  0  0  0  0
    7.7644   -3.4948   23.2815 H   0  0  0  0  0  0  0  0  0  0  0  0
  1  2  1  0
  2  3  2  3
  3  4  1  0
  4  5  1  0
  5  6  2  0
  5  7  1  0
  7  8  1  0
  7  9  1  0
  9 10  2  0
  2 11  1  0
 11 12  2  0
 12 13  1  0
 12 14  1  0
 14 15  1  0
 15 16  2  0
 16 17  1  0
 16 18  1  0
 18 19  2  0
 19 20  1  0
 19 21  1  0
 21 22  1  0
 21 23  2  0
 23 24  1  0
 14 25  2  0
 25 26  1  0
 26 27  2  0
 26 28  1  0
 28 29  1  0
  9  3  1  0
 28 11  1  0
 23 15  1  0
M  END
>  <cnnaffinity>  (1) 
-5.82479

>  <filename>  (1) 
O=C1NC(=S)SC1=Cc1cc(-c2cccnc2)nc(=O)[nH]1

$$$$
