
     RDKit          3D

 32 34  0  0  0  0  0  0  0  0999 V2000
    4.7536   -2.3898   27.0258 H   0  0  0  0  0  0  0  0  0  0  0  0
    5.0058   -2.3449   26.0942 O   0  0  0  0  0  0  0  0  0  0  0  0
    5.8073   -3.4004   25.8332 C   0  0  0  0  0  0  0  0  0  0  0  0
    6.0309   -4.3864   26.7985 C   0  0  0  0  0  0  0  0  0  0  0  0
    5.5213   -4.3468   27.7590 H   0  0  0  0  0  0  0  0  0  0  0  0
    6.8964   -5.4446   26.5185 C   0  0  0  0  0  0  0  0  0  0  0  0
    7.3185   -6.5355   27.7942 Cl  0  0  0  0  0  0  0  0  0  0  0  0
    7.4683   -5.5992   25.2609 C   0  0  0  0  0  0  0  0  0  0  0  0
    8.1325   -6.4376   25.0819 H   0  0  0  0  0  0  0  0  0  0  0  0
    7.2004   -4.6399   24.2813 C   0  0  0  0  0  0  0  0  0  0  0  0
    7.6098   -4.7537   23.2878 H   0  0  0  0  0  0  0  0  0  0  0  0
    6.4378   -3.5104   24.5718 C   0  0  0  0  0  0  0  0  0  0  0  0
    6.2022   -2.5329   23.6087 O   0  0  0  0  0  0  0  0  0  0  0  0
    7.1894   -1.9662   22.9132 C   0  0  0  0  0  0  0  0  0  0  0  0
    6.6518   -1.1887   21.9596 O   0  0  0  0  0  0  0  0  0  0  0  0
    7.4324   -0.6594   20.9635 C   0  0  0  0  0  0  0  0  0  0  0  0
    6.6496    0.0009   19.9082 C   0  0  0  0  0  0  0  0  0  0  0  0
    7.1603    0.0316   18.6012 C   0  0  0  0  0  0  0  0  0  0  0  0
    8.0802   -0.5037   18.3657 H   0  0  0  0  0  0  0  0  0  0  0  0
    6.5712    0.6587   17.5782 N   0  0  0  0  0  0  0  0  0  0  0  0
    5.4207    1.2980   17.8394 C   0  0  0  0  0  0  0  0  0  0  0  0
    4.9726    1.8199   16.9983 H   0  0  0  0  0  0  0  0  0  0  0  0
    4.7967    1.2955   19.0938 C   0  0  0  0  0  0  0  0  0  0  0  0
    3.8580    1.8261   19.2254 H   0  0  0  0  0  0  0  0  0  0  0  0
    5.4088    0.6239   20.1502 C   0  0  0  0  0  0  0  0  0  0  0  0
    4.9498    0.5751   21.1383 H   0  0  0  0  0  0  0  0  0  0  0  0
    8.7783   -0.7569   21.0114 C   0  0  0  0  0  0  0  0  0  0  0  0
    9.4383   -0.3335   20.2710 H   0  0  0  0  0  0  0  0  0  0  0  0
    9.4286   -1.4437   22.1294 C   0  0  0  0  0  0  0  0  0  0  0  0
   10.6427   -1.5100   22.2344 O   0  0  0  0  0  0  0  0  0  0  0  0
    8.5244   -2.0573   23.0897 C   0  0  0  0  0  0  0  0  0  0  0  0
    8.9669   -2.5803   23.9170 H   0  0  0  0  0  0  0  0  0  0  0  0
  1  2  1  0
  2  3  1  0
  3  4  2  0
  4  5  1  0
  4  6  1  0
  6  7  1  0
  6  8  2  0
  8  9  1  0
  8 10  1  0
 10 11  1  0
 10 12  2  0
 12 13  1  0
 13 14  1  0
 14 15  1  0
 15 16  1  0
 16 17  1  0
 17 18  2  0
 18 19  1  0
 18 20  1  0
 20 21  2  0
 21 22  1  0
 21 23  1  0
 23 24  1  0
 23 25  2  0
 25 26  1  0
 16 27  2  0
 27 28  1  0
 27 29  1  0
 29 30  2  0
 29 31  1  0
 31 32  1  0
 12  3  1  0
 31 14  2  0
 25 17  1  0
M  END
>  <cnnaffinity>  (1) 
-5.37557

>  <filename>  (1) 
O=c1cc(Oc2ccc(Cl)cc2O)oc(-c2cccnc2)c1

$$$$
