
     RDKit          3D

 33 35  0  0  0  0  0  0  0  0999 V2000
    5.0381    1.8387   17.0374 H   0  0  0  0  0  0  0  0  0  0  0  0
    5.4366    1.2828   17.8816 C   0  0  0  0  0  0  0  0  0  0  0  0
    6.5802    0.6211   17.6489 N   0  0  0  0  0  0  0  0  0  0  0  0
    7.1120   -0.0442   18.6743 C   0  0  0  0  0  0  0  0  0  0  0  0
    8.0321   -0.5891   18.4583 H   0  0  0  0  0  0  0  0  0  0  0  0
    6.5477   -0.1037   19.9612 C   0  0  0  0  0  0  0  0  0  0  0  0
    7.3342   -0.8007   20.9960 C   0  0  0  0  0  0  0  0  0  0  0  0
    6.5874   -1.4489   21.9546 O   0  0  0  0  0  0  0  0  0  0  0  0
    7.2204   -2.2073   22.9054 C   0  0  0  0  0  0  0  0  0  0  0  0
    6.1207   -3.1031   24.0797 S   0  0  0  0  0  0  0  0  0  0  0  0
    4.7450   -3.1072   23.6102 O   0  0  0  0  0  0  0  0  0  0  0  0
    6.7687   -4.3627   24.4393 O   0  0  0  0  0  0  0  0  0  0  0  0
    6.2855   -2.0111   25.5064 C   0  0  0  0  0  0  0  0  0  0  0  0
    5.4071   -0.9407   25.7152 C   0  0  0  0  0  0  0  0  0  0  0  0
    4.5170   -0.8011   25.1103 H   0  0  0  0  0  0  0  0  0  0  0  0
    5.6672   -0.0237   26.7397 C   0  0  0  0  0  0  0  0  0  0  0  0
    4.9985    0.8083   26.9355 H   0  0  0  0  0  0  0  0  0  0  0  0
    6.8047   -0.1807   27.5320 C   0  0  0  0  0  0  0  0  0  0  0  0
    7.1506    0.9430   28.8171 Cl  0  0  0  0  0  0  0  0  0  0  0  0
    7.6773   -1.2489   27.3247 C   0  0  0  0  0  0  0  0  0  0  0  0
    8.5543   -1.3606   27.9508 H   0  0  0  0  0  0  0  0  0  0  0  0
    7.4186   -2.1708   26.3163 C   0  0  0  0  0  0  0  0  0  0  0  0
    8.1144   -2.9982   26.1837 H   0  0  0  0  0  0  0  0  0  0  0  0
    8.5695   -2.2289   23.0103 C   0  0  0  0  0  0  0  0  0  0  0  0
    9.1261   -2.7578   23.7740 H   0  0  0  0  0  0  0  0  0  0  0  0
    9.4194   -1.4732   22.0791 C   0  0  0  0  0  0  0  0  0  0  0  0
   10.6333   -1.4307   22.1930 O   0  0  0  0  0  0  0  0  0  0  0  0
    8.6875   -0.7970   21.0222 C   0  0  0  0  0  0  0  0  0  0  0  0
    9.2846   -0.2694   20.2948 H   0  0  0  0  0  0  0  0  0  0  0  0
    5.3220    0.5549   20.1762 C   0  0  0  0  0  0  0  0  0  0  0  0
    4.8286    0.5220   21.1486 H   0  0  0  0  0  0  0  0  0  0  0  0
    4.7692    1.2732   19.1126 C   0  0  0  0  0  0  0  0  0  0  0  0
    3.8484    1.8416   19.2174 H   0  0  0  0  0  0  0  0  0  0  0  0
  1  2  1  0
  2  3  2  0
  3  4  1  0
  4  5  1  0
  4  6  2  0
  6  7  1  0
  7  8  1  0
  8  9  1  0
  9 10  1  0
 10 11  2  0
 10 12  2  0
 10 13  1  0
 13 14  2  0
 14 15  1  0
 14 16  1  0
 16 17  1  0
 16 18  2  0
 18 19  1  0
 18 20  1  0
 20 21  1  0
 20 22  2  0
 22 23  1  0
  9 24  2  0
 24 25  1  0
 24 26  1  0
 26 27  2  0
 26 28  1  0
 28 29  1  0
  6 30  1  0
 30 31  1  0
 30 32  2  0
 32 33  1  0
 32  2  1  0
 28  7  2  0
 22 13  1  0
M  END
>  <cnnaffinity>  (1) 
-5.34699

>  <filename>  (1) 
O=c1cc(-c2cccnc2)oc(S(=O)(=O)c2ccc(Cl)cc2)c1

$$$$
