
     RDKit          3D

 31 33  0  0  0  0  0  0  0  0999 V2000
    5.0334    1.6314   17.0254 H   0  0  0  0  0  0  0  0  0  0  0  0
    5.4910    1.2127   17.9205 C   0  0  0  0  0  0  0  0  0  0  0  0
    6.6746    0.5990   17.7512 N   0  0  0  0  0  0  0  0  0  0  0  0
    7.2654    0.0801   18.8337 C   0  0  0  0  0  0  0  0  0  0  0  0
    8.2425   -0.3744   18.6790 H   0  0  0  0  0  0  0  0  0  0  0  0
    6.7094    0.1326   20.1298 C   0  0  0  0  0  0  0  0  0  0  0  0
    7.3550   -0.4671   21.2360 N   0  0  0  0  0  0  0  0  0  0  0  0
    8.0612   -1.6829   21.1847 C   0  0  0  0  0  0  0  0  0  0  0  0
    8.1666   -2.2957   20.3156 H   0  0  0  0  0  0  0  0  0  0  0  0
    8.4518   -1.9558   22.4359 C   0  0  0  0  0  0  0  0  0  0  0  0
    9.0999   -3.0525   22.9119 N   0  0  0  0  0  0  0  0  0  0  0  0
    9.7623   -3.4478   22.2651 H   0  0  0  0  0  0  0  0  0  0  0  0
    9.4714   -3.1502   24.2982 C   0  0  0  0  0  0  0  0  0  0  0  0
   10.1343   -2.3305   24.6234 H   0  0  0  0  0  0  0  0  0  0  0  0
    8.5591   -3.0956   24.9116 H   0  0  0  0  0  0  0  0  0  0  0  0
   10.1681   -4.4613   24.5228 C   0  0  0  0  0  0  0  0  0  0  0  0
   11.1104   -4.5370   23.9886 H   0  0  0  0  0  0  0  0  0  0  0  0
    9.3686   -5.7162   24.7098 C   0  0  0  0  0  0  0  0  0  0  0  0
    9.7464   -6.6654   24.3512 H   0  0  0  0  0  0  0  0  0  0  0  0
    8.2933   -5.6178   24.6398 H   0  0  0  0  0  0  0  0  0  0  0  0
   10.0717   -5.0911   25.8814 C   0  0  0  0  0  0  0  0  0  0  0  0
   10.9497   -5.5807   26.2820 H   0  0  0  0  0  0  0  0  0  0  0  0
    9.4736   -4.5727   26.6304 H   0  0  0  0  0  0  0  0  0  0  0  0
    8.0081   -0.9700   23.2709 N   0  0  0  0  0  0  0  0  0  0  0  0
    8.1777   -0.8614   24.2496 H   0  0  0  0  0  0  0  0  0  0  0  0
    7.3241   -0.0122   22.5656 C   0  0  0  0  0  0  0  0  0  0  0  0
    6.8374    0.9879   23.0472 O   0  0  0  0  0  0  0  0  0  0  0  0
    5.4896    0.8006   20.2985 C   0  0  0  0  0  0  0  0  0  0  0  0
    5.0763    0.9116   21.2995 H   0  0  0  0  0  0  0  0  0  0  0  0
    4.8660    1.3331   19.1679 C   0  0  0  0  0  0  0  0  0  0  0  0
    3.9190    1.8591   19.2472 H   0  0  0  0  0  0  0  0  0  0  0  0
  1  2  1  0
  2  3  2  0
  3  4  1  0
  4  5  1  0
  4  6  2  0
  6  7  1  0
  7  8  1  0
  8  9  1  0
  8 10  2  0
 10 11  1  0
 11 12  1  0
 11 13  1  0
 13 14  1  0
 13 15  1  0
 13 16  1  0
 16 17  1  0
 16 18  1  0
 18 19  1  0
 18 20  1  0
 18 21  1  0
 21 22  1  0
 21 23  1  0
 10 24  1  0
 24 25  1  0
 24 26  1  0
 26 27  2  0
  6 28  1  0
 28 29  1  0
 28 30  2  0
 30 31  1  0
 30  2  1  0
 26  7  1  0
 21 16  1  0
M  END
>  <cnnaffinity>  (1) 
-4.88807

>  <filename>  (1) 
O=c1[nH]c(NCC2CC2)cn1-c1cccnc1

$$$$
