
     RDKit          3D

 23 24  0  0  0  0  0  0  0  0999 V2000
    4.9183    1.7930   16.9794 H   0  0  0  0  0  0  0  0  0  0  0  0
    5.4004    1.2994   17.8228 C   0  0  0  0  0  0  0  0  0  0  0  0
    6.5676    0.6922   17.5618 N   0  0  0  0  0  0  0  0  0  0  0  0
    7.2022    0.1024   18.5792 C   0  0  0  0  0  0  0  0  0  0  0  0
    8.1482   -0.3790   18.3315 H   0  0  0  0  0  0  0  0  0  0  0  0
    6.6883    0.0442   19.8862 C   0  0  0  0  0  0  0  0  0  0  0  0
    7.4424   -0.6977   20.9115 C   0  0  0  0  0  0  0  0  0  0  0  0
    8.7379   -0.4952   20.9941 N   0  0  0  0  0  0  0  0  0  0  0  0
    9.4664   -1.0998   21.9981 C   0  0  0  0  0  0  0  0  0  0  0  0
   10.9760   -0.8596   22.0874 C   0  0  0  0  0  0  0  0  0  0  0  0
   11.6621   -2.0193   21.9834 F   0  0  0  0  0  0  0  0  0  0  0  0
   11.4464   -0.0357   21.1552 F   0  0  0  0  0  0  0  0  0  0  0  0
   11.3163   -0.3344   23.2862 F   0  0  0  0  0  0  0  0  0  0  0  0
    8.8902   -1.9185   22.9341 C   0  0  0  0  0  0  0  0  0  0  0  0
    9.4375   -2.4299   23.7161 H   0  0  0  0  0  0  0  0  0  0  0  0
    7.5429   -2.1379   22.8452 N   0  0  0  0  0  0  0  0  0  0  0  0
    6.9946   -2.7711   23.4101 H   0  0  0  0  0  0  0  0  0  0  0  0
    6.7367   -1.6971   21.8058 C   0  0  0  0  0  0  0  0  0  0  0  0
    5.6203   -2.1865   21.7213 O   0  0  0  0  0  0  0  0  0  0  0  0
    5.4589    0.6715   20.1425 C   0  0  0  0  0  0  0  0  0  0  0  0
    5.0061    0.6169   21.1314 H   0  0  0  0  0  0  0  0  0  0  0  0
    4.8111    1.3242   19.0894 C   0  0  0  0  0  0  0  0  0  0  0  0
    3.8679    1.8423   19.2360 H   0  0  0  0  0  0  0  0  0  0  0  0
  1  2  1  0
  2  3  2  0
  3  4  1  0
  4  5  1  0
  4  6  2  0
  6  7  1  0
  7  8  2  0
  8  9  1  0
  9 10  1  0
 10 11  1  0
 10 12  1  0
 10 13  1  0
  9 14  2  0
 14 15  1  0
 14 16  1  0
 16 17  1  0
 16 18  1  0
 18 19  2  0
  6 20  1  0
 20 21  1  0
 20 22  2  0
 22 23  1  0
 22  2  1  0
 18  7  1  0
M  END
>  <cnnaffinity>  (1) 
-5.06076

>  <filename>  (1) 
O=c1[nH]cc(C(F)(F)F)nc1-c1cccnc1

$$$$
