
     RDKit          3D

 25 26  0  0  0  0  0  0  0  0999 V2000
    5.0800    1.8455   16.9556 H   0  0  0  0  0  0  0  0  0  0  0  0
    5.5227    1.3290   17.8056 C   0  0  0  0  0  0  0  0  0  0  0  0
    6.6997    0.7211   17.5775 N   0  0  0  0  0  0  0  0  0  0  0  0
    7.2633    0.0685   18.6011 C   0  0  0  0  0  0  0  0  0  0  0  0
    8.2222   -0.4138   18.4139 H   0  0  0  0  0  0  0  0  0  0  0  0
    6.6759   -0.0347   19.8759 C   0  0  0  0  0  0  0  0  0  0  0  0
    7.3189   -0.7484   20.9562 N   0  0  0  0  0  0  0  0  0  0  0  0
    8.5227   -0.2548   21.4507 C   0  0  0  0  0  0  0  0  0  0  0  0
    8.8886    0.6394   20.9449 H   0  0  0  0  0  0  0  0  0  0  0  0
    9.1500   -0.8112   22.5078 C   0  0  0  0  0  0  0  0  0  0  0  0
   10.6880   -0.1660   23.1310 S   0  0  0  0  0  0  0  0  0  0  0  0
   12.0128   -1.0299   22.1417 C   0  0  0  0  0  0  0  0  0  0  0  0
   13.1799   -0.5647   22.5718 F   0  0  0  0  0  0  0  0  0  0  0  0
   11.8596   -0.7483   20.8556 F   0  0  0  0  0  0  0  0  0  0  0  0
   11.9700   -2.3421   22.3041 F   0  0  0  0  0  0  0  0  0  0  0  0
    8.4635   -1.9098   23.2307 C   0  0  0  0  0  0  0  0  0  0  0  0
    8.8294   -2.4654   24.2388 O   0  0  0  0  0  0  0  0  0  0  0  0
    7.2908   -2.3253   22.6617 N   0  0  0  0  0  0  0  0  0  0  0  0
    6.8181   -3.0723   23.1321 H   0  0  0  0  0  0  0  0  0  0  0  0
    6.6543   -1.8290   21.5769 C   0  0  0  0  0  0  0  0  0  0  0  0
    5.6150   -2.3178   21.1988 O   0  0  0  0  0  0  0  0  0  0  0  0
    5.4564    0.6084   20.1072 C   0  0  0  0  0  0  0  0  0  0  0  0
    5.0033    0.5583   21.0989 H   0  0  0  0  0  0  0  0  0  0  0  0
    4.8726    1.3100   19.0461 C   0  0  0  0  0  0  0  0  0  0  0  0
    3.9304    1.8357   19.1725 H   0  0  0  0  0  0  0  0  0  0  0  0
  1  2  1  0
  2  3  2  0
  3  4  1  0
  4  5  1  0
  4  6  2  0
  6  7  1  0
  7  8  1  0
  8  9  1  0
  8 10  2  0
 10 11  1  0
 11 12  1  0
 12 13  1  0
 12 14  1  0
 12 15  1  0
 10 16  1  0
 16 17  2  0
 16 18  1  0
 18 19  1  0
 18 20  1  0
 20 21  2  0
  6 22  1  0
 22 23  1  0
 22 24  2  0
 24 25  1  0
 24  2  1  0
 20  7  1  0
M  END
>  <cnnaffinity>  (1) 
-5.05811

>  <filename>  (1) 
O=c1[nH]c(=O)n(-c2cccnc2)cc1SC(F)(F)F

$$$$
