
     RDKit          3D

 29 31  0  0  0  0  0  0  0  0999 V2000
   14.2716    0.8285   23.2881 H   0  0  0  0  0  0  0  0  0  0  0  0
   13.2693    0.4841   23.0246 C   0  0  0  0  0  0  0  0  0  0  0  0
   12.3020    1.4002   23.0220 N   0  0  0  0  0  0  0  0  0  0  0  0
   11.0698    0.9703   22.7440 C   0  0  0  0  0  0  0  0  0  0  0  0
   10.3075    1.7529   22.7367 H   0  0  0  0  0  0  0  0  0  0  0  0
   10.7409   -0.3864   22.5262 C   0  0  0  0  0  0  0  0  0  0  0  0
    9.3393   -0.8942   22.2675 C   0  0  0  0  0  0  0  0  0  0  0  0
    8.6040   -0.3054   21.2930 C   0  0  0  0  0  0  0  0  0  0  0  0
    9.0071    0.5231   20.7154 H   0  0  0  0  0  0  0  0  0  0  0  0
    7.3225   -0.7105   20.9287 N   0  0  0  0  0  0  0  0  0  0  0  0
    6.6403   -0.0064   19.8560 C   0  0  0  0  0  0  0  0  0  0  0  0
    7.1715    0.0720   18.5517 C   0  0  0  0  0  0  0  0  0  0  0  0
    8.1194   -0.4088   18.3111 H   0  0  0  0  0  0  0  0  0  0  0  0
    6.5590    0.7076   17.5459 N   0  0  0  0  0  0  0  0  0  0  0  0
    5.3965    1.3267   17.8058 C   0  0  0  0  0  0  0  0  0  0  0  0
    4.9261    1.8317   16.9654 H   0  0  0  0  0  0  0  0  0  0  0  0
    4.7950    1.3303   19.0685 C   0  0  0  0  0  0  0  0  0  0  0  0
    3.8572    1.8603   19.2171 H   0  0  0  0  0  0  0  0  0  0  0  0
    5.4280    0.6457   20.1131 C   0  0  0  0  0  0  0  0  0  0  0  0
    5.0059    0.6091   21.1160 H   0  0  0  0  0  0  0  0  0  0  0  0
    6.6796   -1.7814   21.6005 C   0  0  0  0  0  0  0  0  0  0  0  0
    5.5879   -2.2188   21.3273 O   0  0  0  0  0  0  0  0  0  0  0  0
    7.4156   -2.3336   22.6000 N   0  0  0  0  0  0  0  0  0  0  0  0
    6.9710   -3.0889   23.0865 H   0  0  0  0  0  0  0  0  0  0  0  0
    8.7037   -2.0401   23.0060 C   0  0  0  0  0  0  0  0  0  0  0  0
    9.1704   -2.7173   23.8936 O   0  0  0  0  0  0  0  0  0  0  0  0
   11.8656   -1.2262   22.5297 C   0  0  0  0  0  0  0  0  0  0  0  0
   11.7317   -2.2969   22.3773 H   0  0  0  0  0  0  0  0  0  0  0  0
   13.1165   -0.8050   22.7439 N   0  0  0  0  0  0  0  0  0  0  0  0
  1  2  1  0
  2  3  2  0
  3  4  1  0
  4  5  1  0
  4  6  2  0
  6  7  1  0
  7  8  2  0
  8  9  1  0
  8 10  1  0
 10 11  1  0
 11 12  2  0
 12 13  1  0
 12 14  1  0
 14 15  2  0
 15 16  1  0
 15 17  1  0
 17 18  1  0
 17 19  2  0
 19 20  1  0
 10 21  1  0
 21 22  2  0
 21 23  1  0
 23 24  1  0
 23 25  1  0
 25 26  2  0
  6 27  1  0
 27 28  1  0
 27 29  2  0
 29  2  1  0
 25  7  1  0
 19 11  1  0
M  END
>  <cnnaffinity>  (1) 
-4.70695

>  <filename>  (1) 
O=c1[nH]c(=O)n(-c2cccnc2)cc1-c1cncnc1

$$$$
