
     RDKit          3D

 34 37  0  0  0  0  0  0  0  0999 V2000
    5.3118    1.8181   17.3040 H   0  0  0  0  0  0  0  0  0  0  0  0
    5.6043    1.2258   18.1702 C   0  0  0  0  0  0  0  0  0  0  0  0
    6.6533    0.4094   17.9966 N   0  0  0  0  0  0  0  0  0  0  0  0
    7.0445   -0.3086   19.0536 C   0  0  0  0  0  0  0  0  0  0  0  0
    7.8875   -0.9748   18.8854 H   0  0  0  0  0  0  0  0  0  0  0  0
    6.4436   -0.2675   20.3303 C   0  0  0  0  0  0  0  0  0  0  0  0
    6.9800   -1.0598   21.4428 C   0  0  0  0  0  0  0  0  0  0  0  0
    6.8705   -0.8594   22.7915 C   0  0  0  0  0  0  0  0  0  0  0  0
    6.4646    0.3704   23.4945 C   0  0  0  0  0  0  0  0  0  0  0  0
    5.4889    0.3725   24.4873 C   0  0  0  0  0  0  0  0  0  0  0  0
    5.0840   -0.5784   24.8268 H   0  0  0  0  0  0  0  0  0  0  0  0
    4.9298    1.4860   25.0262 N   0  0  0  0  0  0  0  0  0  0  0  0
    5.3592    2.6544   24.5917 C   0  0  0  0  0  0  0  0  0  0  0  0
    4.8490    3.5348   24.9812 H   0  0  0  0  0  0  0  0  0  0  0  0
    6.4142    2.8242   23.6451 C   0  0  0  0  0  0  0  0  0  0  0  0
    6.8563    4.1089   23.1967 C   0  0  0  0  0  0  0  0  0  0  0  0
    6.3589    5.0030   23.5602 H   0  0  0  0  0  0  0  0  0  0  0  0
    7.9021    4.2197   22.3114 C   0  0  0  0  0  0  0  0  0  0  0  0
    8.2266    5.1919   21.9489 H   0  0  0  0  0  0  0  0  0  0  0  0
    8.5695    3.0594   21.8511 C   0  0  0  0  0  0  0  0  0  0  0  0
    9.4208    3.1339   21.1885 H   0  0  0  0  0  0  0  0  0  0  0  0
    8.1422    1.8081   22.2322 C   0  0  0  0  0  0  0  0  0  0  0  0
    8.6313    0.9313   21.8241 H   0  0  0  0  0  0  0  0  0  0  0  0
    7.0229    1.6521   23.1123 C   0  0  0  0  0  0  0  0  0  0  0  0
    7.3460   -2.1117   23.4580 C   0  0  0  0  0  0  0  0  0  0  0  0
    7.3280   -2.4408   24.6138 O   0  0  0  0  0  0  0  0  0  0  0  0
    7.8616   -2.9290   22.4941 O   0  0  0  0  0  0  0  0  0  0  0  0
    7.7697   -2.3159   21.2271 C   0  0  0  0  0  0  0  0  0  0  0  0
    8.7836   -2.1025   20.8520 H   0  0  0  0  0  0  0  0  0  0  0  0
    7.2703   -2.9964   20.5298 H   0  0  0  0  0  0  0  0  0  0  0  0
    5.3210    0.5704   20.4738 C   0  0  0  0  0  0  0  0  0  0  0  0
    4.7889    0.6102   21.4252 H   0  0  0  0  0  0  0  0  0  0  0  0
    4.9073    1.3307   19.3788 C   0  0  0  0  0  0  0  0  0  0  0  0
    4.0661    2.0127   19.4465 H   0  0  0  0  0  0  0  0  0  0  0  0
  1  2  1  0
  2  3  2  0
  3  4  1  0
  4  5  1  0
  4  6  2  0
  6  7  1  0
  7  8  2  0
  8  9  1  0
  9 10  2  0
 10 11  1  0
 10 12  1  0
 12 13  2  0
 13 14  1  0
 13 15  1  0
 15 16  2  0
 16 17  1  0
 16 18  1  0
 18 19  1  0
 18 20  2  0
 20 21  1  0
 20 22  1  0
 22 23  1  0
 22 24  2  0
  8 25  1  0
 25 26  2  0
 25 27  1  0
 27 28  1  0
 28 29  1  0
 28 30  1  0
  6 31  1  0
 31 32  1  0
 31 33  2  0
 33 34  1  0
 33  2  1  0
 28  7  1  0
 24  9  1  0
 24 15  1  0
M  END
>  <cnnaffinity>  (1) 
-4.81639

>  <filename>  (1) 
O=C1OCC(c2cccnc2)=C1c1cncc2ccccc12

$$$$
