
     RDKit          3D

 33 35  0  0  0  0  0  0  0  0999 V2000
    5.0518    1.8131   16.9255 H   0  0  0  0  0  0  0  0  0  0  0  0
    5.4834    1.3019   17.7834 C   0  0  0  0  0  0  0  0  0  0  0  0
    6.6359    0.6499   17.5664 N   0  0  0  0  0  0  0  0  0  0  0  0
    7.1922    0.0261   18.6141 C   0  0  0  0  0  0  0  0  0  0  0  0
    8.1276   -0.4946   18.4155 H   0  0  0  0  0  0  0  0  0  0  0  0
    6.6406   -0.0156   19.9083 C   0  0  0  0  0  0  0  0  0  0  0  0
    7.3088   -0.7857   20.9973 C   0  0  0  0  0  0  0  0  0  0  0  0
    8.7358   -0.7517   21.1878 C   0  0  0  0  0  0  0  0  0  0  0  0
    9.3379   -0.1424   20.5151 H   0  0  0  0  0  0  0  0  0  0  0  0
    9.3694   -1.4449   22.2056 C   0  0  0  0  0  0  0  0  0  0  0  0
   10.7535   -1.4196   22.3900 N   0  0  0  0  0  0  0  0  0  0  0  0
   11.1029   -1.8841   23.2215 H   0  0  0  0  0  0  0  0  0  0  0  0
   11.6572   -0.4555   21.7848 C   0  0  0  0  0  0  0  0  0  0  0  0
   11.7669   -0.6753   20.7116 H   0  0  0  0  0  0  0  0  0  0  0  0
   11.2410    0.5679   21.8546 H   0  0  0  0  0  0  0  0  0  0  0  0
   13.0330   -0.4811   22.4440 C   0  0  0  0  0  0  0  0  0  0  0  0
   13.5823   -1.4114   22.2729 H   0  0  0  0  0  0  0  0  0  0  0  0
   13.2906    0.3072   23.7108 C   0  0  0  0  0  0  0  0  0  0  0  0
   14.0286   -0.0035   24.4440 H   0  0  0  0  0  0  0  0  0  0  0  0
   12.4437    0.8417   24.1377 H   0  0  0  0  0  0  0  0  0  0  0  0
   13.8401    0.7917   22.4100 C   0  0  0  0  0  0  0  0  0  0  0  0
   13.3729    1.6721   21.9746 H   0  0  0  0  0  0  0  0  0  0  0  0
   14.9171    0.7362   22.2560 H   0  0  0  0  0  0  0  0  0  0  0  0
    8.5070   -2.2760   23.1346 C   0  0  0  0  0  0  0  0  0  0  0  0
    8.8511   -2.9340   24.1102 O   0  0  0  0  0  0  0  0  0  0  0  0
    7.1494   -2.2791   22.8279 N   0  0  0  0  0  0  0  0  0  0  0  0
    6.6731   -2.8268   23.5324 H   0  0  0  0  0  0  0  0  0  0  0  0
    6.5483   -1.5693   21.8237 C   0  0  0  0  0  0  0  0  0  0  0  0
    5.4764   -1.6798   21.6872 H   0  0  0  0  0  0  0  0  0  0  0  0
    5.4260    0.6671   20.1034 C   0  0  0  0  0  0  0  0  0  0  0  0
    4.9572    0.6900   21.0882 H   0  0  0  0  0  0  0  0  0  0  0  0
    4.8452    1.3417   19.0282 C   0  0  0  0  0  0  0  0  0  0  0  0
    3.9191    1.8941   19.1421 H   0  0  0  0  0  0  0  0  0  0  0  0
  1  2  1  0
  2  3  2  0
  3  4  1  0
  4  5  1  0
  4  6  2  0
  6  7  1  0
  7  8  1  0
  8  9  1  0
  8 10  2  0
 10 11  1  0
 11 12  1  0
 11 13  1  0
 13 14  1  0
 13 15  1  0
 13 16  1  0
 16 17  1  0
 16 18  1  0
 18 19  1  0
 18 20  1  0
 18 21  1  0
 21 22  1  0
 21 23  1  0
 10 24  1  0
 24 25  2  0
 24 26  1  0
 26 27  1  0
 26 28  1  0
 28 29  1  0
  6 30  1  0
 30 31  1  0
 30 32  2  0
 32 33  1  0
 32  2  1  0
 28  7  2  0
 21 16  1  0
M  END
>  <cnnaffinity>  (1) 
-4.79876

>  <filename>  (1) 
O=c1[nH]cc(-c2cccnc2)cc1NCC1CC1

$$$$
