
     RDKit          3D

 30 32  0  0  0  0  0  0  0  0999 V2000
    4.9353    1.7881   16.9252 H   0  0  0  0  0  0  0  0  0  0  0  0
    5.3982    1.3062   17.7792 C   0  0  0  0  0  0  0  0  0  0  0  0
    6.5530    0.6484   17.5827 N   0  0  0  0  0  0  0  0  0  0  0  0
    7.1371    0.0750   18.6468 C   0  0  0  0  0  0  0  0  0  0  0  0
    8.0722   -0.4644   18.5122 H   0  0  0  0  0  0  0  0  0  0  0  0
    6.5983    0.1519   19.9379 C   0  0  0  0  0  0  0  0  0  0  0  0
    7.2910   -0.4778   21.0416 C   0  0  0  0  0  0  0  0  0  0  0  0
    6.9677   -0.1152   22.3316 O   0  0  0  0  0  0  0  0  0  0  0  0
    7.6919   -0.6487   23.3860 C   0  0  0  0  0  0  0  0  0  0  0  0
    7.5115   -0.0815   24.7220 C   0  0  0  0  0  0  0  0  0  0  0  0
    8.4567   -0.2531   25.7517 C   0  0  0  0  0  0  0  0  0  0  0  0
    9.3639   -0.8314   25.5873 H   0  0  0  0  0  0  0  0  0  0  0  0
    8.2466    0.3476   27.0002 C   0  0  0  0  0  0  0  0  0  0  0  0
    8.9780    0.2263   27.7895 H   0  0  0  0  0  0  0  0  0  0  0  0
    7.1020    1.1119   27.2456 C   0  0  0  0  0  0  0  0  0  0  0  0
    6.8108    1.9427   28.9503 Br  0  0  0  0  0  0  0  0  0  0  0  0
    6.1644    1.2595   26.2213 C   0  0  0  0  0  0  0  0  0  0  0  0
    5.2671    1.8364   26.3925 H   0  0  0  0  0  0  0  0  0  0  0  0
    6.3656    0.6741   24.9726 C   0  0  0  0  0  0  0  0  0  0  0  0
    5.6290    0.7979   24.1820 H   0  0  0  0  0  0  0  0  0  0  0  0
    8.5398   -1.7119   23.2120 C   0  0  0  0  0  0  0  0  0  0  0  0
    9.0486   -2.1739   24.0509 H   0  0  0  0  0  0  0  0  0  0  0  0
    8.6973   -2.2299   21.8859 C   0  0  0  0  0  0  0  0  0  0  0  0
    9.0294   -3.3829   21.7051 O   0  0  0  0  0  0  0  0  0  0  0  0
    8.2075   -1.4571   20.7826 C   0  0  0  0  0  0  0  0  0  0  0  0
    8.4869   -1.7174   19.7766 H   0  0  0  0  0  0  0  0  0  0  0  0
    5.3777    0.8031   20.1415 C   0  0  0  0  0  0  0  0  0  0  0  0
    4.9090    0.8417   21.1295 H   0  0  0  0  0  0  0  0  0  0  0  0
    4.7744    1.3802   19.0302 C   0  0  0  0  0  0  0  0  0  0  0  0
    3.8254    1.8883   19.1171 H   0  0  0  0  0  0  0  0  0  0  0  0
  1  2  1  0
  2  3  2  0
  3  4  1  0
  4  5  1  0
  4  6  2  0
  6  7  1  0
  7  8  1  0
  8  9  1  0
  9 10  1  0
 10 11  2  0
 11 12  1  0
 11 13  1  0
 13 14  1  0
 13 15  2  0
 15 16  1  0
 15 17  1  0
 17 18  1  0
 17 19  2  0
 19 20  1  0
  9 21  2  0
 21 22  1  0
 21 23  1  0
 23 24  2  0
 23 25  1  0
 25 26  1  0
  6 27  1  0
 27 28  1  0
 27 29  2  0
 29 30  1  0
 29  2  1  0
 25  7  2  0
 19 10  1  0
M  END
>  <cnnaffinity>  (1) 
-5.16421

>  <filename>  (1) 
O=c1cc(-c2ccc(Br)cc2)oc(-c2cccnc2)c1

$$$$
