
     RDKit          3D

 28 30  0  0  0  0  0  0  0  0999 V2000
    4.9177    1.7878   16.9964 H   0  0  0  0  0  0  0  0  0  0  0  0
    5.3953    1.2921   17.8392 C   0  0  0  0  0  0  0  0  0  0  0  0
    6.5549    0.6689   17.5743 N   0  0  0  0  0  0  0  0  0  0  0  0
    7.1727    0.0533   18.5877 C   0  0  0  0  0  0  0  0  0  0  0  0
    8.1272   -0.4211   18.3733 H   0  0  0  0  0  0  0  0  0  0  0  0
    6.6638    0.0017   19.9036 C   0  0  0  0  0  0  0  0  0  0  0  0
    7.3575   -0.6770   20.9456 N   0  0  0  0  0  0  0  0  0  0  0  0
    6.7668   -1.4440   21.9410 C   0  0  0  0  0  0  0  0  0  0  0  0
    5.6994   -1.6036   21.9864 H   0  0  0  0  0  0  0  0  0  0  0  0
    7.7281   -1.9411   22.7545 C   0  0  0  0  0  0  0  0  0  0  0  0
    7.5630   -2.8008   23.9454 C   0  0  0  0  0  0  0  0  0  0  0  0
    6.2932   -3.1276   24.2645 N   0  0  0  0  0  0  0  0  0  0  0  0
    6.0873   -3.8961   25.3359 C   0  0  0  0  0  0  0  0  0  0  0  0
    5.0553   -4.1431   25.5817 H   0  0  0  0  0  0  0  0  0  0  0  0
    7.1354   -4.3827   26.1276 C   0  0  0  0  0  0  0  0  0  0  0  0
    6.8602   -5.1555   27.1858 F   0  0  0  0  0  0  0  0  0  0  0  0
    8.4559   -4.0698   25.8187 C   0  0  0  0  0  0  0  0  0  0  0  0
    9.2749   -4.4497   26.4317 H   0  0  0  0  0  0  0  0  0  0  0  0
    8.6608   -3.2583   24.6998 C   0  0  0  0  0  0  0  0  0  0  0  0
    9.6648   -2.9795   24.4075 H   0  0  0  0  0  0  0  0  0  0  0  0
    8.9388   -1.4629   22.2327 N   0  0  0  0  0  0  0  0  0  0  0  0
    9.8901   -1.5765   22.5340 H   0  0  0  0  0  0  0  0  0  0  0  0
    8.7529   -0.6721   21.1304 C   0  0  0  0  0  0  0  0  0  0  0  0
    9.6232   -0.1211   20.4898 O   0  0  0  0  0  0  0  0  0  0  0  0
    5.4473    0.6410   20.1635 C   0  0  0  0  0  0  0  0  0  0  0  0
    5.0259    0.6350   21.1693 H   0  0  0  0  0  0  0  0  0  0  0  0
    4.8124    1.3059   19.1101 C   0  0  0  0  0  0  0  0  0  0  0  0
    3.8818    1.8370   19.2641 H   0  0  0  0  0  0  0  0  0  0  0  0
  1  2  1  0
  2  3  2  0
  3  4  1  0
  4  5  1  0
  4  6  2  0
  6  7  1  0
  7  8  1  0
  8  9  1  0
  8 10  2  0
 10 11  1  0
 11 12  2  0
 12 13  1  0
 13 14  1  0
 13 15  2  0
 15 16  1  0
 15 17  1  0
 17 18  1  0
 17 19  2  0
 19 20  1  0
 10 21  1  0
 21 22  1  0
 21 23  1  0
 23 24  2  0
  6 25  1  0
 25 26  1  0
 25 27  2  0
 27 28  1  0
 27  2  1  0
 23  7  1  0
 19 11  1  0
M  END
>  <cnnaffinity>  (1) 
-5.36118

>  <filename>  (1) 
O=c1[nH]c(-c2ccc(F)cn2)cn1-c1cccnc1

$$$$
