
     RDKit          3D

 33 35  0  0  0  0  0  0  0  0999 V2000
    4.9386    1.8802   16.9313 H   0  0  0  0  0  0  0  0  0  0  0  0
    5.4078    1.3562   17.7625 C   0  0  0  0  0  0  0  0  0  0  0  0
    6.5742    0.7422   17.5015 N   0  0  0  0  0  0  0  0  0  0  0  0
    7.1714    0.0966   18.5125 C   0  0  0  0  0  0  0  0  0  0  0  0
    8.1101   -0.4087   18.2870 H   0  0  0  0  0  0  0  0  0  0  0  0
    6.6375    0.0180   19.8132 C   0  0  0  0  0  0  0  0  0  0  0  0
    7.3103   -0.6843   20.8781 N   0  0  0  0  0  0  0  0  0  0  0  0
    8.5784   -0.2754   21.2563 C   0  0  0  0  0  0  0  0  0  0  0  0
    8.9946    0.5573   20.6905 H   0  0  0  0  0  0  0  0  0  0  0  0
    9.2562   -0.8844   22.2633 C   0  0  0  0  0  0  0  0  0  0  0  0
   10.2779   -0.5843   22.4767 H   0  0  0  0  0  0  0  0  0  0  0  0
    8.6344   -1.9285   23.0190 C   0  0  0  0  0  0  0  0  0  0  0  0
    9.3851   -2.6067   24.1367 C   0  0  0  0  0  0  0  0  0  0  0  0
   10.5239   -3.1922   23.7468 N   0  0  0  0  0  0  0  0  0  0  0  0
   11.0808   -4.0920   24.5519 C   0  0  0  0  0  0  0  0  0  0  0  0
   11.9482   -4.6097   24.1619 H   0  0  0  0  0  0  0  0  0  0  0  0
   10.5762   -4.3955   25.8149 C   0  0  0  0  0  0  0  0  0  0  0  0
   11.0500   -5.1734   26.3953 H   0  0  0  0  0  0  0  0  0  0  0  0
    9.5025   -3.6638   26.3077 C   0  0  0  0  0  0  0  0  0  0  0  0
    9.1689   -3.8492   27.3299 H   0  0  0  0  0  0  0  0  0  0  0  0
    8.9103   -2.7172   25.4589 C   0  0  0  0  0  0  0  0  0  0  0  0
    7.7391   -1.8794   25.8881 C   0  0  0  0  0  0  0  0  0  0  0  0
    7.7240   -1.6682   27.2143 F   0  0  0  0  0  0  0  0  0  0  0  0
    6.5732   -2.4871   25.5781 F   0  0  0  0  0  0  0  0  0  0  0  0
    7.7195   -0.6768   25.2872 F   0  0  0  0  0  0  0  0  0  0  0  0
    7.3848   -2.3469   22.6459 C   0  0  0  0  0  0  0  0  0  0  0  0
    6.8636   -3.1704   23.1112 H   0  0  0  0  0  0  0  0  0  0  0  0
    6.6403   -1.7731   21.5428 C   0  0  0  0  0  0  0  0  0  0  0  0
    5.5600   -2.1965   21.1718 O   0  0  0  0  0  0  0  0  0  0  0  0
    5.4221    0.6566   20.0698 C   0  0  0  0  0  0  0  0  0  0  0  0
    4.9939    0.6176   21.0704 H   0  0  0  0  0  0  0  0  0  0  0  0
    4.8023    1.3412   19.0224 C   0  0  0  0  0  0  0  0  0  0  0  0
    3.8688    1.8676   19.1793 H   0  0  0  0  0  0  0  0  0  0  0  0
  1  2  1  0
  2  3  2  0
  3  4  1  0
  4  5  1  0
  4  6  2  0
  6  7  1  0
  7  8  1  0
  8  9  1  0
  8 10  2  0
 10 11  1  0
 10 12  1  0
 12 13  1  0
 13 14  2  0
 14 15  1  0
 15 16  1  0
 15 17  2  0
 17 18  1  0
 17 19  1  0
 19 20  1  0
 19 21  2  0
 21 22  1  0
 22 23  1  0
 22 24  1  0
 22 25  1  0
 12 26  2  0
 26 27  1  0
 26 28  1  0
 28 29  2  0
  6 30  1  0
 30 31  1  0
 30 32  2  0
 32 33  1  0
 32  2  1  0
 28  7  1  0
 21 13  1  0
M  END
>  <cnnaffinity>  (1) 
-5.88073

>  <filename>  (1) 
O=c1cc(-c2ncccc2C(F)(F)F)ccn1-c1cccnc1

$$$$
