
     RDKit          3D

 31 33  0  0  0  0  0  0  0  0999 V2000
    4.9138    1.7747   17.0037 H   0  0  0  0  0  0  0  0  0  0  0  0
    5.4040    1.2918   17.8448 C   0  0  0  0  0  0  0  0  0  0  0  0
    6.5715    0.6808   17.5841 N   0  0  0  0  0  0  0  0  0  0  0  0
    7.1751    0.0548   18.5972 C   0  0  0  0  0  0  0  0  0  0  0  0
    8.1228   -0.4363   18.3773 H   0  0  0  0  0  0  0  0  0  0  0  0
    6.6521    0.0126   19.8954 C   0  0  0  0  0  0  0  0  0  0  0  0
    7.3776   -0.7331   20.9096 C   0  0  0  0  0  0  0  0  0  0  0  0
    7.9502   -1.8762   20.6800 N   0  0  0  0  0  0  0  0  0  0  0  0
    8.4359   -2.2420   21.9044 N   0  0  0  0  0  0  0  0  0  0  0  0
    8.9477   -3.0918   22.0652 H   0  0  0  0  0  0  0  0  0  0  0  0
    8.2118   -1.3365   22.8939 C   0  0  0  0  0  0  0  0  0  0  0  0
    8.5619   -1.3961   24.0555 O   0  0  0  0  0  0  0  0  0  0  0  0
    7.4963   -0.3285   22.2319 N   0  0  0  0  0  0  0  0  0  0  0  0
    7.1375    0.9200   22.8461 C   0  0  0  0  0  0  0  0  0  0  0  0
    7.4393    2.1409   22.2241 C   0  0  0  0  0  0  0  0  0  0  0  0
    7.9351    2.1461   21.2614 H   0  0  0  0  0  0  0  0  0  0  0  0
    7.0755    3.3502   22.8160 C   0  0  0  0  0  0  0  0  0  0  0  0
    7.3164    4.2870   22.3152 H   0  0  0  0  0  0  0  0  0  0  0  0
    6.4083    3.3565   24.0508 C   0  0  0  0  0  0  0  0  0  0  0  0
    6.0656    4.6674   24.7214 C   0  0  0  0  0  0  0  0  0  0  0  0
    5.8126    5.6516   23.8377 F   0  0  0  0  0  0  0  0  0  0  0  0
    4.9826    4.5728   25.5180 F   0  0  0  0  0  0  0  0  0  0  0  0
    7.0789    5.0989   25.4996 F   0  0  0  0  0  0  0  0  0  0  0  0
    6.1365    2.1389   24.6945 C   0  0  0  0  0  0  0  0  0  0  0  0
    5.6548    2.1310   25.6716 H   0  0  0  0  0  0  0  0  0  0  0  0
    6.4931    0.9318   24.0905 C   0  0  0  0  0  0  0  0  0  0  0  0
    6.2788   -0.0019   24.5947 H   0  0  0  0  0  0  0  0  0  0  0  0
    5.4309    0.6498   20.1545 C   0  0  0  0  0  0  0  0  0  0  0  0
    5.0090    0.6332   21.1619 H   0  0  0  0  0  0  0  0  0  0  0  0
    4.8012    1.3108   19.1081 C   0  0  0  0  0  0  0  0  0  0  0  0
    3.8716    1.8449   19.2630 H   0  0  0  0  0  0  0  0  0  0  0  0
  1  2  1  0
  2  3  2  0
  3  4  1  0
  4  5  1  0
  4  6  2  0
  6  7  1  0
  7  8  2  0
  8  9  1  0
  9 10  1  0
  9 11  1  0
 11 12  2  0
 11 13  1  0
 13 14  1  0
 14 15  2  0
 15 16  1  0
 15 17  1  0
 17 18  1  0
 17 19  2  0
 19 20  1  0
 20 21  1  0
 20 22  1  0
 20 23  1  0
 19 24  1  0
 24 25  1  0
 24 26  2  0
 26 27  1  0
  6 28  1  0
 28 29  1  0
 28 30  2  0
 30 31  1  0
 30  2  1  0
 13  7  1  0
 26 14  1  0
M  END
>  <cnnaffinity>  (1) 
-5.0641

>  <filename>  (1) 
O=c1[nH]nc(-c2cccnc2)n1-c1ccc(C(F)(F)F)cc1

$$$$
