
     RDKit          3D

 35 37  0  0  0  0  0  0  0  0999 V2000
    5.1207    2.0832   16.9658 H   0  0  0  0  0  0  0  0  0  0  0  0
    5.3569    1.3555   17.7401 C   0  0  0  0  0  0  0  0  0  0  0  0
    6.4102    0.5578   17.4975 N   0  0  0  0  0  0  0  0  0  0  0  0
    6.7599   -0.3090   18.4552 C   0  0  0  0  0  0  0  0  0  0  0  0
    7.6212   -0.9447   18.2507 H   0  0  0  0  0  0  0  0  0  0  0  0
    6.0900   -0.4275   19.6905 C   0  0  0  0  0  0  0  0  0  0  0  0
    6.7086   -1.1405   20.7837 N   0  0  0  0  0  0  0  0  0  0  0  0
    7.8714   -0.5674   21.2623 C   0  0  0  0  0  0  0  0  0  0  0  0
    8.2016    0.3350   20.7610 H   0  0  0  0  0  0  0  0  0  0  0  0
    8.5880   -1.0824   22.3126 C   0  0  0  0  0  0  0  0  0  0  0  0
    9.7878   -0.5256   22.6887 N   0  0  0  0  0  0  0  0  0  0  0  0
   10.3328   -1.0111   23.3841 H   0  0  0  0  0  0  0  0  0  0  0  0
   10.5065    0.3597   21.7817 C   0  0  0  0  0  0  0  0  0  0  0  0
   10.0096    1.3376   21.7684 H   0  0  0  0  0  0  0  0  0  0  0  0
   10.4700   -0.0344   20.7567 H   0  0  0  0  0  0  0  0  0  0  0  0
   11.9424    0.5349   22.1978 C   0  0  0  0  0  0  0  0  0  0  0  0
   12.8439   -0.5385   22.1734 C   0  0  0  0  0  0  0  0  0  0  0  0
   12.5724   -1.4878   21.7212 H   0  0  0  0  0  0  0  0  0  0  0  0
   14.1097   -0.3674   22.7320 C   0  0  0  0  0  0  0  0  0  0  0  0
   14.8107   -1.2030   22.7450 H   0  0  0  0  0  0  0  0  0  0  0  0
   14.5138    0.7801   23.2884 N   0  0  0  0  0  0  0  0  0  0  0  0
   13.6772    1.8222   23.2479 C   0  0  0  0  0  0  0  0  0  0  0  0
   14.0266    2.7541   23.6895 H   0  0  0  0  0  0  0  0  0  0  0  0
   12.4062    1.7617   22.6848 C   0  0  0  0  0  0  0  0  0  0  0  0
   11.8017    2.6631   22.6784 H   0  0  0  0  0  0  0  0  0  0  0  0
    8.0295   -2.2052   23.0141 C   0  0  0  0  0  0  0  0  0  0  0  0
    8.5476   -2.5803   23.8999 H   0  0  0  0  0  0  0  0  0  0  0  0
    6.8912   -2.7926   22.5569 C   0  0  0  0  0  0  0  0  0  0  0  0
    6.4689   -3.6747   23.0153 H   0  0  0  0  0  0  0  0  0  0  0  0
    6.1941   -2.3636   21.3371 C   0  0  0  0  0  0  0  0  0  0  0  0
    5.2940   -2.9961   20.8205 O   0  0  0  0  0  0  0  0  0  0  0  0
    4.9390    0.3417   19.8931 C   0  0  0  0  0  0  0  0  0  0  0  0
    4.3651    0.2398   20.8134 H   0  0  0  0  0  0  0  0  0  0  0  0
    4.5870    1.2724   18.9051 C   0  0  0  0  0  0  0  0  0  0  0  0
    3.7594    1.9582   19.0448 H   0  0  0  0  0  0  0  0  0  0  0  0
  1  2  1  0
  2  3  2  0
  3  4  1  0
  4  5  1  0
  4  6  2  0
  6  7  1  0
  7  8  1  0
  8  9  1  0
  8 10  2  0
 10 11  1  0
 11 12  1  0
 11 13  1  0
 13 14  1  0
 13 15  1  0
 13 16  1  0
 16 17  2  0
 17 18  1  0
 17 19  1  0
 19 20  1  0
 19 21  2  0
 21 22  1  0
 22 23  1  0
 22 24  2  0
 24 25  1  0
 10 26  1  0
 26 27  1  0
 26 28  2  0
 28 29  1  0
 28 30  1  0
 30 31  2  0
  6 32  1  0
 32 33  1  0
 32 34  2  0
 34 35  1  0
 34  2  1  0
 30  7  1  0
 24 16  1  0
M  END
>  <cnnaffinity>  (1) 
-5.66671

>  <filename>  (1) 
O=c1ccc(NCc2ccncc2)cn1-c1cccnc1

$$$$
