
     RDKit          3D

 28 30  0  0  0  0  0  0  0  0999 V2000
    4.9193    1.7932   16.9797 H   0  0  0  0  0  0  0  0  0  0  0  0
    5.3945    1.2975   17.8232 C   0  0  0  0  0  0  0  0  0  0  0  0
    6.5591    0.6789   17.5660 N   0  0  0  0  0  0  0  0  0  0  0  0
    7.1639    0.0564   18.5859 C   0  0  0  0  0  0  0  0  0  0  0  0
    8.1214   -0.4066   18.3471 H   0  0  0  0  0  0  0  0  0  0  0  0
    6.6476    0.0066   19.8952 C   0  0  0  0  0  0  0  0  0  0  0  0
    7.3368   -0.6541   21.0038 C   0  0  0  0  0  0  0  0  0  0  0  0
    7.2465   -0.4378   22.3316 C   0  0  0  0  0  0  0  0  0  0  0  0
    6.6526    0.2911   22.8602 H   0  0  0  0  0  0  0  0  0  0  0  0
    8.0963   -1.3233   22.9896 N   0  0  0  0  0  0  0  0  0  0  0  0
    8.2633   -1.4174   24.3958 C   0  0  0  0  0  0  0  0  0  0  0  0
    8.2201   -0.2687   25.2148 C   0  0  0  0  0  0  0  0  0  0  0  0
    8.0650    0.7216   24.7928 H   0  0  0  0  0  0  0  0  0  0  0  0
    8.3969   -0.3062   26.5363 N   0  0  0  0  0  0  0  0  0  0  0  0
    8.6183   -1.4941   27.1086 C   0  0  0  0  0  0  0  0  0  0  0  0
    8.7709   -1.4778   28.1813 H   0  0  0  0  0  0  0  0  0  0  0  0
    8.6612   -2.6902   26.3859 C   0  0  0  0  0  0  0  0  0  0  0  0
    8.8442   -3.6214   26.9035 H   0  0  0  0  0  0  0  0  0  0  0  0
    8.4831   -2.6602   25.0022 C   0  0  0  0  0  0  0  0  0  0  0  0
    8.5291   -3.5588   24.3868 H   0  0  0  0  0  0  0  0  0  0  0  0
    8.7342   -2.1298   22.0308 C   0  0  0  0  0  0  0  0  0  0  0  0
    9.5244   -3.0389   22.1632 O   0  0  0  0  0  0  0  0  0  0  0  0
    8.2594   -1.6686   20.8329 N   0  0  0  0  0  0  0  0  0  0  0  0
    8.5414   -2.1480   20.0006 H   0  0  0  0  0  0  0  0  0  0  0  0
    5.4288    0.6604   20.1381 C   0  0  0  0  0  0  0  0  0  0  0  0
    4.9935    0.6391   21.1397 H   0  0  0  0  0  0  0  0  0  0  0  0
    4.7960    1.3181   19.0875 C   0  0  0  0  0  0  0  0  0  0  0  0
    3.8654    1.8506   19.2418 H   0  0  0  0  0  0  0  0  0  0  0  0
  1  2  1  0
  2  3  2  0
  3  4  1  0
  4  5  1  0
  4  6  2  0
  6  7  1  0
  7  8  2  0
  8  9  1  0
  8 10  1  0
 10 11  1  0
 11 12  2  0
 12 13  1  0
 12 14  1  0
 14 15  2  0
 15 16  1  0
 15 17  1  0
 17 18  1  0
 17 19  2  0
 19 20  1  0
 10 21  1  0
 21 22  2  0
 21 23  1  0
 23 24  1  0
  6 25  1  0
 25 26  1  0
 25 27  2  0
 27 28  1  0
 27  2  1  0
 23  7  1  0
 19 11  1  0
M  END
>  <cnnaffinity>  (1) 
-5.2781

>  <filename>  (1) 
O=c1[nH]c(-c2cccnc2)cn1-c1cccnc1

$$$$
