
     RDKit          3D

 36 39  0  0  0  0  0  0  0  0999 V2000
    4.9298    1.7953   16.7539 H   0  0  0  0  0  0  0  0  0  0  0  0
    5.3316    1.4041   17.6843 C   0  0  0  0  0  0  0  0  0  0  0  0
    6.5302    0.8119   17.5855 N   0  0  0  0  0  0  0  0  0  0  0  0
    7.0487    0.3088   18.7120 C   0  0  0  0  0  0  0  0  0  0  0  0
    8.0311   -0.1471   18.6138 H   0  0  0  0  0  0  0  0  0  0  0  0
    6.4273    0.3470   19.9785 C   0  0  0  0  0  0  0  0  0  0  0  0
    7.1351   -0.2554   21.1872 C   0  0  2  0  0  0  0  0  0  0  0  0
    6.5190   -0.0929   22.0773 H   0  0  0  0  0  0  0  0  0  0  0  0
    8.5494    0.3604   21.4027 C   0  0  0  0  0  0  0  0  0  0  0  0
    8.7477    0.5057   22.4789 H   0  0  0  0  0  0  0  0  0  0  0  0
    8.6658    1.3306   20.9053 H   0  0  0  0  0  0  0  0  0  0  0  0
    9.4303   -0.6201   20.7922 N   0  0  0  0  0  0  0  0  0  0  0  0
   10.4368   -0.6208   20.8955 H   0  0  0  0  0  0  0  0  0  0  0  0
    8.9291   -1.8796   20.8858 C   0  0  0  0  0  0  0  0  0  0  0  0
    9.6183   -2.8702   20.8724 O   0  0  0  0  0  0  0  0  0  0  0  0
    7.4183   -1.7853   21.0017 C   0  0  1  0  0  0  0  0  0  0  0  0
    7.0204   -2.1278   20.0413 H   0  0  0  0  0  0  0  0  0  0  0  0
    6.8470   -2.7429   22.0056 C   0  0  0  0  0  0  0  0  0  0  0  0
    5.8144   -3.6195   21.8241 C   0  0  0  0  0  0  0  0  0  0  0  0
    5.2869   -3.7828   20.8949 H   0  0  0  0  0  0  0  0  0  0  0  0
    5.6077   -4.3229   23.0551 C   0  0  0  0  0  0  0  0  0  0  0  0
    4.7124   -5.3268   23.4891 C   0  0  0  0  0  0  0  0  0  0  0  0
    3.9838   -5.7374   22.7954 H   0  0  0  0  0  0  0  0  0  0  0  0
    4.8015   -5.7910   24.7959 C   0  0  0  0  0  0  0  0  0  0  0  0
    4.1087   -6.5502   25.1526 H   0  0  0  0  0  0  0  0  0  0  0  0
    5.8010   -5.2962   25.6723 C   0  0  0  0  0  0  0  0  0  0  0  0
    5.8652   -5.6881   26.6828 H   0  0  0  0  0  0  0  0  0  0  0  0
    6.7154   -4.3334   25.2574 C   0  0  0  0  0  0  0  0  0  0  0  0
    7.5106   -3.9718   25.9006 H   0  0  0  0  0  0  0  0  0  0  0  0
    6.5928   -3.8435   23.9497 C   0  0  0  0  0  0  0  0  0  0  0  0
    7.3345   -2.8790   23.2926 N   0  0  0  0  0  0  0  0  0  0  0  0
    8.2836   -2.6648   23.5560 H   0  0  0  0  0  0  0  0  0  0  0  0
    5.1817    0.9928   20.0539 C   0  0  0  0  0  0  0  0  0  0  0  0
    4.6637    1.0995   21.0116 H   0  0  0  0  0  0  0  0  0  0  0  0
    4.6196    1.5190   18.8832 C   0  0  0  0  0  0  0  0  0  0  0  0
    3.6537    2.0184   18.8806 H   0  0  0  0  0  0  0  0  0  0  0  0
  1  2  1  0
  2  3  2  0
  3  4  1  0
  4  5  1  0
  4  6  2  0
  6  7  1  0
  7  8  1  1
  7  9  1  0
  9 10  1  0
  9 11  1  0
  9 12  1  0
 12 13  1  0
 12 14  1  0
 14 15  2  0
 14 16  1  0
 16 17  1  6
 16 18  1  0
 18 19  2  0
 19 20  1  0
 19 21  1  0
 21 22  2  0
 22 23  1  0
 22 24  1  0
 24 25  1  0
 24 26  2  0
 26 27  1  0
 26 28  1  0
 28 29  1  0
 28 30  2  0
 30 31  1  0
 31 32  1  0
  6 33  1  0
 33 34  1  0
 33 35  2  0
 35 36  1  0
 35  2  1  0
 16  7  1  0
 31 18  1  0
 30 21  1  0
M  END
>  <cnnaffinity>  (1) 
-5.13467

>  <filename>  (1) 
O=C1NC[C@@H](c2cccnc2)[C@@H]1c1cc2ccccc2[nH]1

$$$$
