
     RDKit          3D

 41 43  0  0  0  0  0  0  0  0999 V2000
    4.9890    1.7020   16.9104 H   0  0  0  0  0  0  0  0  0  0  0  0
    5.4695    1.2586   17.7799 C   0  0  0  0  0  0  0  0  0  0  0  0
    6.6278    0.6161   17.5455 N   0  0  0  0  0  0  0  0  0  0  0  0
    7.2401    0.0713   18.5997 C   0  0  0  0  0  0  0  0  0  0  0  0
    8.1981   -0.3998   18.3888 H   0  0  0  0  0  0  0  0  0  0  0  0
    6.7425    0.0959   19.9245 C   0  0  0  0  0  0  0  0  0  0  0  0
    7.4307   -0.5913   21.0332 C   0  0  0  0  0  0  0  0  0  0  0  0
    8.4650   -1.4544   20.9243 C   0  0  0  0  0  0  0  0  0  0  0  0
    8.9979   -1.7379   20.0241 H   0  0  0  0  0  0  0  0  0  0  0  0
    8.8192   -2.0490   22.1317 N   0  0  0  0  0  0  0  0  0  0  0  0
    9.7986   -1.9338   22.4176 H   0  0  0  0  0  0  0  0  0  0  0  0
    7.9951   -1.4315   23.1004 N   0  0  0  0  0  0  0  0  0  0  0  0
    8.7455   -0.9641   24.1729 O   0  0  0  0  0  0  0  0  0  0  0  0
    9.3376   -2.0150   24.9624 C   0  0  0  0  0  0  0  0  0  0  0  0
    9.5330   -1.5095   25.9117 H   0  0  0  0  0  0  0  0  0  0  0  0
   10.3066   -2.2993   24.5284 H   0  0  0  0  0  0  0  0  0  0  0  0
    8.4466   -3.2445   25.1267 C   0  0  0  0  0  0  0  0  0  0  0  0
    8.0958   -3.5345   24.1288 H   0  0  0  0  0  0  0  0  0  0  0  0
    7.5542   -2.9321   25.6930 H   0  0  0  0  0  0  0  0  0  0  0  0
    9.1802   -4.3415   25.7650 N   0  0  0  0  0  0  0  0  0  0  0  0
    9.2140   -4.2570   27.2369 C   0  0  0  0  0  0  0  0  0  0  0  0
   10.1773   -4.6538   27.5933 H   0  0  0  0  0  0  0  0  0  0  0  0
    9.2067   -3.1921   27.4783 H   0  0  0  0  0  0  0  0  0  0  0  0
    8.0508   -4.9829   27.9715 C   0  0  0  0  0  0  0  0  0  0  0  0
    7.7399   -4.4211   28.8533 H   0  0  0  0  0  0  0  0  0  0  0  0
    8.4182   -5.9525   28.3272 H   0  0  0  0  0  0  0  0  0  0  0  0
    6.8335   -5.2268   27.0760 C   0  0  0  0  0  0  0  0  0  0  0  0
    6.0718   -5.7977   27.6200 H   0  0  0  0  0  0  0  0  0  0  0  0
    6.3504   -4.2721   26.8357 H   0  0  0  0  0  0  0  0  0  0  0  0
    7.2573   -5.9767   25.7945 C   0  0  0  0  0  0  0  0  0  0  0  0
    6.5566   -5.7607   24.9790 H   0  0  0  0  0  0  0  0  0  0  0  0
    7.2067   -7.0448   26.0050 H   0  0  0  0  0  0  0  0  0  0  0  0
    8.7066   -5.6538   25.3341 C   0  0  0  0  0  0  0  0  0  0  0  0
    8.7927   -5.6984   24.2407 H   0  0  0  0  0  0  0  0  0  0  0  0
    9.4085   -6.4074   25.7138 H   0  0  0  0  0  0  0  0  0  0  0  0
    7.1258   -0.4664   22.4891 C   0  0  0  0  0  0  0  0  0  0  0  0
    6.3678    0.2465   23.1142 O   0  0  0  0  0  0  0  0  0  0  0  0
    5.5374    0.7859   20.1412 C   0  0  0  0  0  0  0  0  0  0  0  0
    5.1461    0.8550   21.1551 H   0  0  0  0  0  0  0  0  0  0  0  0
    4.8982    1.3733   19.0495 C   0  0  0  0  0  0  0  0  0  0  0  0
    3.9794    1.9376   19.1719 H   0  0  0  0  0  0  0  0  0  0  0  0
  1  2  1  0
  2  3  2  0
  3  4  1  0
  4  5  1  0
  4  6  2  0
  6  7  1  0
  7  8  2  0
  8  9  1  0
  8 10  1  0
 10 11  1  0
 10 12  1  0
 12 13  1  0
 13 14  1  0
 14 15  1  0
 14 16  1  0
 14 17  1  0
 17 18  1  0
 17 19  1  0
 17 20  1  0
 20 21  1  0
 21 22  1  0
 21 23  1  0
 21 24  1  0
 24 25  1  0
 24 26  1  0
 24 27  1  0
 27 28  1  0
 27 29  1  0
 27 30  1  0
 30 31  1  0
 30 32  1  0
 30 33  1  0
 33 34  1  0
 33 35  1  0
 12 36  1  0
 36 37  2  0
  6 38  1  0
 38 39  1  0
 38 40  2  0
 40 41  1  0
 40  2  1  0
 36  7  1  0
 33 20  1  0
M  END
>  <cnnaffinity>  (1) 
-4.73717

>  <filename>  (1) 
O=c1c(-c2cccnc2)c[nH]n1OCCN1CCCCC1

$$$$
