
     RDKit          3D

 33 35  0  0  0  0  0  0  0  0999 V2000
    4.9095    1.7879   16.9905 H   0  0  0  0  0  0  0  0  0  0  0  0
    5.3939    1.2988   17.8329 C   0  0  0  0  0  0  0  0  0  0  0  0
    6.5560    0.6815   17.5624 N   0  0  0  0  0  0  0  0  0  0  0  0
    7.1701    0.0649   18.5777 C   0  0  0  0  0  0  0  0  0  0  0  0
    8.1215   -0.4172   18.3691 H   0  0  0  0  0  0  0  0  0  0  0  0
    6.6491   -0.0002   19.8862 C   0  0  0  0  0  0  0  0  0  0  0  0
    7.3520   -0.6895   20.9514 N   0  0  0  0  0  0  0  0  0  0  0  0
    8.6224   -0.2048   21.3885 C   0  0  0  0  0  0  0  0  0  0  0  0
    9.0960    0.7802   20.8609 O   0  0  0  0  0  0  0  0  0  0  0  0
    9.2803   -0.9423   22.4222 C   0  0  0  0  0  0  0  0  0  0  0  0
   10.2260   -0.5436   22.7424 H   0  0  0  0  0  0  0  0  0  0  0  0
    8.6987   -2.0173   22.9664 C   0  0  0  0  0  0  0  0  0  0  0  0
    9.2603   -2.7723   23.9451 N   0  0  0  0  0  0  0  0  0  0  0  0
   10.2585   -2.6721   23.9727 H   0  0  0  0  0  0  0  0  0  0  0  0
    8.6714   -3.4208   25.0534 C   0  0  0  0  0  0  0  0  0  0  0  0
    7.4362   -3.0058   25.5739 C   0  0  0  0  0  0  0  0  0  0  0  0
    6.9586   -2.1329   25.1447 H   0  0  0  0  0  0  0  0  0  0  0  0
    6.8384   -3.6929   26.6320 C   0  0  0  0  0  0  0  0  0  0  0  0
    5.8750   -3.3880   27.0224 H   0  0  0  0  0  0  0  0  0  0  0  0
    7.4928   -4.7909   27.1800 C   0  0  0  0  0  0  0  0  0  0  0  0
    6.9120   -5.4529   28.1950 F   0  0  0  0  0  0  0  0  0  0  0  0
    8.7355   -5.2073   26.7076 C   0  0  0  0  0  0  0  0  0  0  0  0
    9.2123   -6.0636   27.1721 H   0  0  0  0  0  0  0  0  0  0  0  0
    9.3332   -4.5069   25.6522 C   0  0  0  0  0  0  0  0  0  0  0  0
   10.3028   -4.8261   25.2772 H   0  0  0  0  0  0  0  0  0  0  0  0
    7.4895   -2.4197   22.5138 N   0  0  0  0  0  0  0  0  0  0  0  0
    7.0495   -3.2516   22.8464 H   0  0  0  0  0  0  0  0  0  0  0  0
    6.7845   -1.8192   21.5137 C   0  0  0  0  0  0  0  0  0  0  0  0
    5.7358   -2.3159   21.1710 O   0  0  0  0  0  0  0  0  0  0  0  0
    5.4427    0.6442   20.1567 C   0  0  0  0  0  0  0  0  0  0  0  0
    5.0205    0.6146   21.1627 H   0  0  0  0  0  0  0  0  0  0  0  0
    4.8072    1.3163   19.1034 C   0  0  0  0  0  0  0  0  0  0  0  0
    3.8736    1.8456   19.2588 H   0  0  0  0  0  0  0  0  0  0  0  0
  1  2  1  0
  2  3  2  0
  3  4  1  0
  4  5  1  0
  4  6  2  0
  6  7  1  0
  7  8  1  0
  8  9  2  0
  8 10  1  0
 10 11  1  0
 10 12  2  0
 12 13  1  0
 13 14  1  0
 13 15  1  0
 15 16  2  0
 16 17  1  0
 16 18  1  0
 18 19  1  0
 18 20  2  0
 20 21  1  0
 20 22  1  0
 22 23  1  0
 22 24  2  0
 24 25  1  0
 12 26  1  0
 26 27  1  0
 26 28  1  0
 28 29  2  0
  6 30  1  0
 30 31  1  0
 30 32  2  0
 32 33  1  0
 32  2  1  0
 28  7  1  0
 24 15  1  0
M  END
>  <cnnaffinity>  (1) 
-5.56211

>  <filename>  (1) 
O=c1cc(Nc2ccc(F)cc2)[nH]c(=O)n1-c1cccnc1

$$$$
