
     RDKit          3D

 32 34  0  0  0  0  0  0  0  0999 V2000
    5.0519    1.9845   16.9058 H   0  0  0  0  0  0  0  0  0  0  0  0
    5.5104    1.3878   17.6915 C   0  0  0  0  0  0  0  0  0  0  0  0
    6.6759    0.7906   17.3871 N   0  0  0  0  0  0  0  0  0  0  0  0
    7.2663    0.0606   18.3396 C   0  0  0  0  0  0  0  0  0  0  0  0
    8.2240   -0.3788   18.0831 H   0  0  0  0  0  0  0  0  0  0  0  0
    6.7070   -0.1459   19.6201 C   0  0  0  0  0  0  0  0  0  0  0  0
    7.3390   -0.9196   20.6200 N   0  0  0  0  0  0  0  0  0  0  0  0
    6.7839   -1.9327   21.4411 C   0  0  0  0  0  0  0  0  0  0  0  0
    5.6131   -2.2686   21.4928 O   0  0  0  0  0  0  0  0  0  0  0  0
    7.9417   -2.4374   22.1606 C   0  0  0  0  0  0  0  0  0  0  0  0
    7.8572   -3.2164   22.8964 H   0  0  0  0  0  0  0  0  0  0  0  0
    9.0453   -1.7730   21.7506 C   0  0  0  0  0  0  0  0  0  0  0  0
   10.4388   -1.7825   22.2777 C   0  0  0  0  0  0  0  0  0  0  0  0
   11.1391   -1.5830   21.4628 H   0  0  0  0  0  0  0  0  0  0  0  0
   10.6607   -2.7829   22.6594 H   0  0  0  0  0  0  0  0  0  0  0  0
   10.5960   -0.7546   23.3885 C   0  0  0  0  0  0  0  0  0  0  0  0
   10.1888   -1.1000   24.6863 C   0  0  0  0  0  0  0  0  0  0  0  0
    9.8524   -2.1177   24.8585 H   0  0  0  0  0  0  0  0  0  0  0  0
   10.1644   -0.1655   25.7217 C   0  0  0  0  0  0  0  0  0  0  0  0
    9.7933   -0.4578   26.7000 H   0  0  0  0  0  0  0  0  0  0  0  0
   10.5806    1.1433   25.4742 C   0  0  0  0  0  0  0  0  0  0  0  0
   10.5679    1.8788   26.2695 H   0  0  0  0  0  0  0  0  0  0  0  0
   11.0403    1.5069   24.2069 C   0  0  0  0  0  0  0  0  0  0  0  0
   11.3897    2.5104   23.9957 H   0  0  0  0  0  0  0  0  0  0  0  0
   11.0454    0.5578   23.1786 C   0  0  0  0  0  0  0  0  0  0  0  0
   11.6239    1.0639   21.6088 Cl  0  0  0  0  0  0  0  0  0  0  0  0
    8.7332   -0.8363   20.7667 N   0  0  0  0  0  0  0  0  0  0  0  0
    9.0234    0.1201   21.0086 H   0  0  0  0  0  0  0  0  0  0  0  0
    5.4945    0.4787   19.9223 C   0  0  0  0  0  0  0  0  0  0  0  0
    5.0687    0.3203   20.9103 H   0  0  0  0  0  0  0  0  0  0  0  0
    4.8963    1.2793   18.9451 C   0  0  0  0  0  0  0  0  0  0  0  0
    3.9760    1.8167   19.1514 H   0  0  0  0  0  0  0  0  0  0  0  0
  1  2  1  0
  2  3  2  0
  3  4  1  0
  4  5  1  0
  4  6  2  0
  6  7  1  0
  7  8  1  0
  8  9  2  0
  8 10  1  0
 10 11  1  0
 10 12  2  0
 12 13  1  0
 13 14  1  0
 13 15  1  0
 13 16  1  0
 16 17  2  0
 17 18  1  0
 17 19  1  0
 19 20  1  0
 19 21  2  0
 21 22  1  0
 21 23  1  0
 23 24  1  0
 23 25  2  0
 25 26  1  0
 12 27  1  0
 27 28  1  0
  6 29  1  0
 29 30  1  0
 29 31  2  0
 31 32  1  0
 31  2  1  0
 27  7  1  0
 25 16  1  0
M  END
>  <cnnaffinity>  (1) 
-5.13902

>  <filename>  (1) 
O=c1cc(Cc2ccccc2Cl)[nH]n1-c1cccnc1

$$$$
