
     RDKit          3D

 30 32  0  0  0  0  0  0  0  0999 V2000
    4.9847    1.9148   16.8652 H   0  0  0  0  0  0  0  0  0  0  0  0
    5.3841    1.3712   17.7160 C   0  0  0  0  0  0  0  0  0  0  0  0
    6.5257    0.6961   17.4974 N   0  0  0  0  0  0  0  0  0  0  0  0
    7.0375    0.0160   18.5311 C   0  0  0  0  0  0  0  0  0  0  0  0
    7.9813   -0.4956   18.3345 H   0  0  0  0  0  0  0  0  0  0  0  0
    6.4378   -0.0695   19.8062 C   0  0  0  0  0  0  0  0  0  0  0  0
    7.0747   -0.8491   20.9060 C   0  0  0  0  0  0  0  0  0  0  0  0
    6.3469   -1.6859   21.8175 C   0  0  0  0  0  0  0  0  0  0  0  0
    5.2755   -1.8163   21.6573 H   0  0  0  0  0  0  0  0  0  0  0  0
    6.9907   -2.3311   22.8336 C   0  0  0  0  0  0  0  0  0  0  0  0
    6.4891   -2.9493   23.5693 H   0  0  0  0  0  0  0  0  0  0  0  0
    8.4372   -2.2485   23.0253 C   0  0  0  0  0  0  0  0  0  0  0  0
    9.0428   -2.8833   23.8733 O   0  0  0  0  0  0  0  0  0  0  0  0
    9.0946   -1.3327   22.1246 N   0  0  0  0  0  0  0  0  0  0  0  0
   10.4841   -0.9851   22.2496 C   0  0  0  0  0  0  0  0  0  0  0  0
   10.8726    0.3603   22.3500 C   0  0  0  0  0  0  0  0  0  0  0  0
   10.1294    1.1514   22.4157 H   0  0  0  0  0  0  0  0  0  0  0  0
   12.1437    0.7580   22.3856 N   0  0  0  0  0  0  0  0  0  0  0  0
   13.0764   -0.1734   22.2602 C   0  0  0  0  0  0  0  0  0  0  0  0
   14.7005    0.4040   22.3254 Cl  0  0  0  0  0  0  0  0  0  0  0  0
   12.8222   -1.5378   22.0862 C   0  0  0  0  0  0  0  0  0  0  0  0
   13.6377   -2.2342   21.9183 H   0  0  0  0  0  0  0  0  0  0  0  0
   11.4900   -1.9515   22.1513 C   0  0  0  0  0  0  0  0  0  0  0  0
   11.2092   -2.9975   22.1516 H   0  0  0  0  0  0  0  0  0  0  0  0
    8.4163   -0.7207   21.0937 C   0  0  0  0  0  0  0  0  0  0  0  0
    9.0307   -0.0952   20.4446 H   0  0  0  0  0  0  0  0  0  0  0  0
    5.2648    0.6716   20.0097 C   0  0  0  0  0  0  0  0  0  0  0  0
    4.8252    0.7130   21.0062 H   0  0  0  0  0  0  0  0  0  0  0  0
    4.7211    1.3965   18.9475 C   0  0  0  0  0  0  0  0  0  0  0  0
    3.8132    1.9826   19.0653 H   0  0  0  0  0  0  0  0  0  0  0  0
  1  2  1  0
  2  3  2  0
  3  4  1  0
  4  5  1  0
  4  6  2  0
  6  7  1  0
  7  8  1  0
  8  9  1  0
  8 10  2  0
 10 11  1  0
 10 12  1  0
 12 13  2  0
 12 14  1  0
 14 15  1  0
 15 16  2  0
 16 17  1  0
 16 18  1  0
 18 19  2  0
 19 20  1  0
 19 21  1  0
 21 22  1  0
 21 23  2  0
 23 24  1  0
 14 25  1  0
 25 26  1  0
  6 27  1  0
 27 28  1  0
 27 29  2  0
 29 30  1  0
 29  2  1  0
 25  7  2  0
 23 15  1  0
M  END
>  <cnnaffinity>  (1) 
-5.38058

>  <filename>  (1) 
O=c1ccc(-c2cccnc2)cn1-c1ccc(Cl)nc1

$$$$
