
     RDKit          3D

 36 39  0  0  0  0  0  0  0  0999 V2000
    5.0430    1.7694   16.9447 H   0  0  0  0  0  0  0  0  0  0  0  0
    5.4883    1.2796   17.8075 C   0  0  0  0  0  0  0  0  0  0  0  0
    6.6623    0.6558   17.5987 N   0  0  0  0  0  0  0  0  0  0  0  0
    7.2435    0.0493   18.6441 C   0  0  0  0  0  0  0  0  0  0  0  0
    8.2050   -0.4350   18.4774 H   0  0  0  0  0  0  0  0  0  0  0  0
    6.6650   -0.0007   19.9241 C   0  0  0  0  0  0  0  0  0  0  0  0
    7.3288   -0.6978   20.9812 N   0  0  0  0  0  0  0  0  0  0  0  0
    8.6886   -0.5368   21.0360 N   0  0  0  0  0  0  0  0  0  0  0  0
    9.3545   -1.1126   22.0142 C   0  0  0  0  0  0  0  0  0  0  0  0
   10.8298   -0.8790   22.0714 C   0  0  0  0  0  0  0  0  0  0  0  0
   11.6538   -1.9930   22.0586 C   0  0  0  0  0  0  0  0  0  0  0  0
   11.2006   -2.9783   22.0841 H   0  0  0  0  0  0  0  0  0  0  0  0
   13.0628   -1.8727   22.0763 C   0  0  0  0  0  0  0  0  0  0  0  0
   13.6868   -2.7562   21.9768 H   0  0  0  0  0  0  0  0  0  0  0  0
   13.6492   -0.6514   22.2760 C   0  0  0  0  0  0  0  0  0  0  0  0
   14.7289   -0.5584   22.3710 H   0  0  0  0  0  0  0  0  0  0  0  0
   12.8493    0.5190   22.3844 C   0  0  0  0  0  0  0  0  0  0  0  0
   13.4478    1.7810   22.6723 C   0  0  0  0  0  0  0  0  0  0  0  0
   14.5211    1.8089   22.8456 H   0  0  0  0  0  0  0  0  0  0  0  0
   12.6945    2.9278   22.6791 C   0  0  0  0  0  0  0  0  0  0  0  0
   13.1502    3.8882   22.9035 H   0  0  0  0  0  0  0  0  0  0  0  0
   11.3096    2.8654   22.3716 C   0  0  0  0  0  0  0  0  0  0  0  0
   10.7435    3.7890   22.2996 H   0  0  0  0  0  0  0  0  0  0  0  0
   10.6859    1.6556   22.1507 C   0  0  0  0  0  0  0  0  0  0  0  0
    9.6249    1.6089   21.9245 H   0  0  0  0  0  0  0  0  0  0  0  0
   11.4259    0.4312   22.1825 C   0  0  0  0  0  0  0  0  0  0  0  0
    8.7158   -2.0865   22.9735 C   0  0  0  0  0  0  0  0  0  0  0  0
    9.3295   -2.7591   23.7977 O   0  0  0  0  0  0  0  0  0  0  0  0
    7.2677   -2.1775   22.8412 C   0  0  0  0  0  0  0  0  0  0  0  0
    6.7397   -2.7984   23.5509 H   0  0  0  0  0  0  0  0  0  0  0  0
    6.6443   -1.4881   21.8715 C   0  0  0  0  0  0  0  0  0  0  0  0
    5.5688   -1.5421   21.7074 H   0  0  0  0  0  0  0  0  0  0  0  0
    5.4409    0.6537   20.1316 C   0  0  0  0  0  0  0  0  0  0  0  0
    5.0039    0.6817   21.1295 H   0  0  0  0  0  0  0  0  0  0  0  0
    4.8473    1.3105   19.0506 C   0  0  0  0  0  0  0  0  0  0  0  0
    3.9083    1.8445   19.1629 H   0  0  0  0  0  0  0  0  0  0  0  0
  1  2  1  0
  2  3  2  0
  3  4  1  0
  4  5  1  0
  4  6  2  0
  6  7  1  0
  7  8  1  0
  8  9  2  0
  9 10  1  0
 10 11  2  0
 11 12  1  0
 11 13  1  0
 13 14  1  0
 13 15  2  0
 15 16  1  0
 15 17  1  0
 17 18  2  0
 18 19  1  0
 18 20  1  0
 20 21  1  0
 20 22  2  0
 22 23  1  0
 22 24  1  0
 24 25  1  0
 24 26  2  0
  9 27  1  0
 27 28  2  0
 27 29  1  0
 29 30  1  0
 29 31  2  0
 31 32  1  0
  6 33  1  0
 33 34  1  0
 33 35  2  0
 35 36  1  0
 35  2  1  0
 31  7  1  0
 26 10  1  0
 26 17  1  0
M  END
>  <cnnaffinity>  (1) 
-6.08407

>  <filename>  (1) 
O=c1ccn(-c2cccnc2)nc1-c1cccc2ccccc12

$$$$
