
     RDKit          3D

 33 35  0  0  0  0  0  0  0  0999 V2000
    7.8752    3.4210   22.1422 H   0  0  0  0  0  0  0  0  0  0  0  0
    7.6925    3.9593   22.9285 O   0  0  0  0  0  0  0  0  0  0  0  0
    7.0972    3.1617   23.8506 C   0  0  0  0  0  0  0  0  0  0  0  0
    6.6715    3.7479   25.0368 C   0  0  0  0  0  0  0  0  0  0  0  0
    6.8502    4.8073   25.1641 H   0  0  0  0  0  0  0  0  0  0  0  0
    6.0364    2.9684   26.0069 C   0  0  0  0  0  0  0  0  0  0  0  0
    5.5383    3.7180   27.4922 Cl  0  0  0  0  0  0  0  0  0  0  0  0
    5.7911    1.6119   25.7931 C   0  0  0  0  0  0  0  0  0  0  0  0
    5.2903    1.0276   26.5582 H   0  0  0  0  0  0  0  0  0  0  0  0
    6.2183    1.0139   24.5939 C   0  0  0  0  0  0  0  0  0  0  0  0
    5.9991   -0.0335   24.3949 H   0  0  0  0  0  0  0  0  0  0  0  0
    6.9145    1.7718   23.6483 C   0  0  0  0  0  0  0  0  0  0  0  0
    7.4150    1.3111   22.4369 O   0  0  0  0  0  0  0  0  0  0  0  0
    7.6907    0.0066   22.2238 C   0  0  0  0  0  0  0  0  0  0  0  0
    7.3417   -0.6067   21.0316 C   0  0  0  0  0  0  0  0  0  0  0  0
    6.6404    0.1017   19.9164 C   0  0  0  0  0  0  0  0  0  0  0  0
    7.1355    0.0895   18.5901 C   0  0  0  0  0  0  0  0  0  0  0  0
    8.0808   -0.4078   18.3655 H   0  0  0  0  0  0  0  0  0  0  0  0
    6.5348    0.6851   17.5532 N   0  0  0  0  0  0  0  0  0  0  0  0
    5.3746    1.3144   17.8012 C   0  0  0  0  0  0  0  0  0  0  0  0
    4.9094    1.8032   16.9497 H   0  0  0  0  0  0  0  0  0  0  0  0
    4.7748    1.3637   19.0631 C   0  0  0  0  0  0  0  0  0  0  0  0
    3.8243    1.8695   19.1878 H   0  0  0  0  0  0  0  0  0  0  0  0
    5.4283    0.7682   20.1430 C   0  0  0  0  0  0  0  0  0  0  0  0
    5.0173    0.7913   21.1533 H   0  0  0  0  0  0  0  0  0  0  0  0
    7.6455   -1.9947   20.9037 C   0  0  0  0  0  0  0  0  0  0  0  0
    7.2200   -2.5010   20.0467 H   0  0  0  0  0  0  0  0  0  0  0  0
    8.3578   -2.6841   21.8383 C   0  0  0  0  0  0  0  0  0  0  0  0
    8.6880   -3.7047   21.7357 H   0  0  0  0  0  0  0  0  0  0  0  0
    8.7537   -2.0356   23.0699 C   0  0  0  0  0  0  0  0  0  0  0  0
    9.3481   -2.5412   23.9994 O   0  0  0  0  0  0  0  0  0  0  0  0
    8.3899   -0.6936   23.1727 N   0  0  0  0  0  0  0  0  0  0  0  0
    8.6210   -0.3740   24.1027 H   0  0  0  0  0  0  0  0  0  0  0  0
  1  2  1  0
  2  3  1  0
  3  4  2  0
  4  5  1  0
  4  6  1  0
  6  7  1  0
  6  8  2  0
  8  9  1  0
  8 10  1  0
 10 11  1  0
 10 12  2  0
 12 13  1  0
 13 14  1  0
 14 15  2  0
 15 16  1  0
 16 17  2  0
 17 18  1  0
 17 19  1  0
 19 20  2  0
 20 21  1  0
 20 22  1  0
 22 23  1  0
 22 24  2  0
 24 25  1  0
 15 26  1  0
 26 27  1  0
 26 28  2  0
 28 29  1  0
 28 30  1  0
 30 31  2  0
 30 32  1  0
 32 33  1  0
 12  3  1  0
 32 14  1  0
 24 16  1  0
M  END
>  <cnnaffinity>  (1) 
-5.42134

>  <filename>  (1) 
O=c1ccc(-c2cccnc2)c(Oc2ccc(Cl)cc2O)[nH]1

$$$$
