
     RDKit          3D

 33 35  0  0  0  0  0  0  0  0999 V2000
    4.9133    1.7909   16.9854 H   0  0  0  0  0  0  0  0  0  0  0  0
    5.3934    1.3003   17.8259 C   0  0  0  0  0  0  0  0  0  0  0  0
    6.5549    0.6824   17.5550 N   0  0  0  0  0  0  0  0  0  0  0  0
    7.1690    0.0798   18.5789 C   0  0  0  0  0  0  0  0  0  0  0  0
    8.1071   -0.4233   18.3467 H   0  0  0  0  0  0  0  0  0  0  0  0
    6.6649    0.0283   19.8914 C   0  0  0  0  0  0  0  0  0  0  0  0
    7.3840   -0.6929   20.9696 C   0  0  0  0  0  0  0  0  0  0  0  0
    6.6818   -1.5488   21.8650 C   0  0  0  0  0  0  0  0  0  0  0  0
    5.6079   -1.6748   21.7109 H   0  0  0  0  0  0  0  0  0  0  0  0
    7.3232   -2.2246   22.8785 C   0  0  0  0  0  0  0  0  0  0  0  0
    6.6053   -3.0794   23.8240 C   0  0  0  0  0  0  0  0  0  0  0  0
    5.6207   -3.8225   23.2836 N   0  0  0  0  0  0  0  0  0  0  0  0
    4.9013   -4.6302   24.0753 C   0  0  0  0  0  0  0  0  0  0  0  0
    3.7773   -5.5043   23.4495 C   0  0  0  0  0  0  0  0  0  0  0  0
    3.9862   -6.8127   23.7164 F   0  0  0  0  0  0  0  0  0  0  0  0
    3.6536   -5.3777   22.1251 F   0  0  0  0  0  0  0  0  0  0  0  0
    2.5779   -5.2041   23.9966 F   0  0  0  0  0  0  0  0  0  0  0  0
    5.1032   -4.6978   25.4663 C   0  0  0  0  0  0  0  0  0  0  0  0
    4.4914   -5.3534   26.0781 H   0  0  0  0  0  0  0  0  0  0  0  0
    6.0960   -3.8982   26.0399 C   0  0  0  0  0  0  0  0  0  0  0  0
    6.2764   -3.9241   27.1159 H   0  0  0  0  0  0  0  0  0  0  0  0
    6.8590   -3.0804   25.2070 C   0  0  0  0  0  0  0  0  0  0  0  0
    7.6451   -2.4374   25.5760 H   0  0  0  0  0  0  0  0  0  0  0  0
    8.7620   -2.0933   23.0479 C   0  0  0  0  0  0  0  0  0  0  0  0
    9.5031   -2.6141   23.8619 O   0  0  0  0  0  0  0  0  0  0  0  0
    9.3603   -1.2264   22.1231 N   0  0  0  0  0  0  0  0  0  0  0  0
   10.3491   -1.1963   22.2927 H   0  0  0  0  0  0  0  0  0  0  0  0
    8.7339   -0.5534   21.1187 C   0  0  0  0  0  0  0  0  0  0  0  0
    9.3259    0.0973   20.4713 H   0  0  0  0  0  0  0  0  0  0  0  0
    5.4376    0.6569   20.1449 C   0  0  0  0  0  0  0  0  0  0  0  0
    5.0198    0.6320   21.1548 H   0  0  0  0  0  0  0  0  0  0  0  0
    4.8038    1.3178   19.0953 C   0  0  0  0  0  0  0  0  0  0  0  0
    3.8708    1.8445   19.2516 H   0  0  0  0  0  0  0  0  0  0  0  0
  1  2  1  0
  2  3  2  0
  3  4  1  0
  4  5  1  0
  4  6  2  0
  6  7  1  0
  7  8  1  0
  8  9  1  0
  8 10  2  0
 10 11  1  0
 11 12  2  0
 12 13  1  0
 13 14  1  0
 14 15  1  0
 14 16  1  0
 14 17  1  0
 13 18  2  0
 18 19  1  0
 18 20  1  0
 20 21  1  0
 20 22  2  0
 22 23  1  0
 10 24  1  0
 24 25  2  0
 24 26  1  0
 26 27  1  0
 26 28  1  0
 28 29  1  0
  6 30  1  0
 30 31  1  0
 30 32  2  0
 32 33  1  0
 32  2  1  0
 28  7  2  0
 22 11  1  0
M  END
>  <cnnaffinity>  (1) 
-5.49412

>  <filename>  (1) 
O=c1[nH]cc(-c2cccnc2)cc1-c1cccc(C(F)(F)F)n1

$$$$
