
     RDKit          3D

 43 46  0  0  0  0  0  0  0  0999 V2000
    1.5450   -8.1297   25.1384 H   0  0  0  0  0  0  0  0  0  0  0  0
    1.9101   -7.2200   25.6172 C   0  0  0  0  0  0  0  0  0  0  0  0
    2.8753   -6.5793   24.9564 N   0  0  0  0  0  0  0  0  0  0  0  0
    3.3848   -5.4738   25.5214 C   0  0  0  0  0  0  0  0  0  0  0  0
    4.4054   -4.8451   24.8398 N   0  0  0  0  0  0  0  0  0  0  0  0
    4.6803   -5.1112   23.4208 C   0  0  0  0  0  0  0  0  0  0  0  0
    5.4216   -5.9227   23.3305 H   0  0  0  0  0  0  0  0  0  0  0  0
    3.7649   -5.4589   22.9333 H   0  0  0  0  0  0  0  0  0  0  0  0
    5.2044   -3.8530   22.6779 C   0  0  0  0  0  0  0  0  0  0  0  0
    4.4007   -3.1109   22.5829 H   0  0  0  0  0  0  0  0  0  0  0  0
    5.4782   -4.1585   21.6622 H   0  0  0  0  0  0  0  0  0  0  0  0
    6.3785   -3.2454   23.3242 N   0  0  0  0  0  0  0  0  0  0  0  0
    7.1308   -2.3131   22.6322 C   0  0  0  0  0  0  0  0  0  0  0  0
    6.5704   -1.6531   21.6414 N   0  0  0  0  0  0  0  0  0  0  0  0
    7.3323   -0.7329   20.9455 N   0  0  0  0  0  0  0  0  0  0  0  0
    6.6351   -0.0407   19.9040 C   0  0  0  0  0  0  0  0  0  0  0  0
    7.1587    0.0239   18.5992 C   0  0  0  0  0  0  0  0  0  0  0  0
    8.1209   -0.4269   18.3781 H   0  0  0  0  0  0  0  0  0  0  0  0
    6.5524    0.6522   17.5868 N   0  0  0  0  0  0  0  0  0  0  0  0
    5.4009    1.2882   17.8497 C   0  0  0  0  0  0  0  0  0  0  0  0
    4.9415    1.7959   17.0046 H   0  0  0  0  0  0  0  0  0  0  0  0
    4.8071    1.3035   19.1181 C   0  0  0  0  0  0  0  0  0  0  0  0
    3.8806    1.8494   19.2615 H   0  0  0  0  0  0  0  0  0  0  0  0
    5.4259    0.6141   20.1687 C   0  0  0  0  0  0  0  0  0  0  0  0
    5.0122    0.5850   21.1765 H   0  0  0  0  0  0  0  0  0  0  0  0
    8.7112   -0.4139   21.2079 C   0  0  0  0  0  0  0  0  0  0  0  0
    9.3274    0.4255   20.5696 O   0  0  0  0  0  0  0  0  0  0  0  0
    9.2763   -1.2130   22.2953 C   0  0  0  0  0  0  0  0  0  0  0  0
   10.3280   -1.0124   22.4778 H   0  0  0  0  0  0  0  0  0  0  0  0
    8.5272   -2.1130   22.9812 C   0  0  0  0  0  0  0  0  0  0  0  0
    8.9293   -2.7411   23.7697 H   0  0  0  0  0  0  0  0  0  0  0  0
    6.6356   -3.6661   24.7074 C   0  0  0  0  0  0  0  0  0  0  0  0
    7.2486   -4.5823   24.7302 H   0  0  0  0  0  0  0  0  0  0  0  0
    7.1765   -2.8805   25.2428 H   0  0  0  0  0  0  0  0  0  0  0  0
    5.3341   -3.9279   25.5138 C   0  0  0  0  0  0  0  0  0  0  0  0
    5.6396   -4.3501   26.4832 H   0  0  0  0  0  0  0  0  0  0  0  0
    4.8398   -2.9633   25.7080 H   0  0  0  0  0  0  0  0  0  0  0  0
    2.8928   -4.9559   26.7467 C   0  0  0  0  0  0  0  0  0  0  0  0
    3.3310   -4.0429   27.1223 H   0  0  0  0  0  0  0  0  0  0  0  0
    1.8601   -5.6202   27.4024 C   0  0  0  0  0  0  0  0  0  0  0  0
    1.4537   -5.2373   28.3438 H   0  0  0  0  0  0  0  0  0  0  0  0
    1.3587   -6.7939   26.8239 C   0  0  0  0  0  0  0  0  0  0  0  0
    0.5618   -7.3714   27.2777 H   0  0  0  0  0  0  0  0  0  0  0  0
  1  2  1  0
  2  3  2  0
  3  4  1  0
  4  5  1  0
  5  6  1  0
  6  7  1  0
  6  8  1  0
  6  9  1  0
  9 10  1  0
  9 11  1  0
  9 12  1  0
 12 13  1  0
 13 14  2  0
 14 15  1  0
 15 16  1  0
 16 17  2  0
 17 18  1  0
 17 19  1  0
 19 20  2  0
 20 21  1  0
 20 22  1  0
 22 23  1  0
 22 24  2  0
 24 25  1  0
 15 26  1  0
 26 27  2  0
 26 28  1  0
 28 29  1  0
 28 30  2  0
 30 31  1  0
 12 32  1  0
 32 33  1  0
 32 34  1  0
 32 35  1  0
 35 36  1  0
 35 37  1  0
  4 38  2  0
 38 39  1  0
 38 40  1  0
 40 41  1  0
 40 42  2  0
 42 43  1  0
 42  2  1  0
 35  5  1  0
 30 13  1  0
 24 16  1  0
M  END
>  <cnnaffinity>  (1) 
-5.40865

>  <filename>  (1) 
O=c1ccc(N2CCN(c3ccccn3)CC2)nn1-c1cccnc1

$$$$
