
     RDKit          3D

 34 36  0  0  0  0  0  0  0  0999 V2000
    4.9723    1.8063   16.7548 H   0  0  0  0  0  0  0  0  0  0  0  0
    5.3282    1.3764   17.6906 C   0  0  0  0  0  0  0  0  0  0  0  0
    6.4975    0.7257   17.6254 N   0  0  0  0  0  0  0  0  0  0  0  0
    6.9714    0.2022   18.7641 C   0  0  0  0  0  0  0  0  0  0  0  0
    7.9403   -0.2817   18.6783 H   0  0  0  0  0  0  0  0  0  0  0  0
    6.3278    0.2709   20.0195 C   0  0  0  0  0  0  0  0  0  0  0  0
    6.9869   -0.3192   21.2684 C   0  0  2  0  0  0  0  0  0  0  0  0
    6.3625   -0.0784   22.1349 H   0  0  0  0  0  0  0  0  0  0  0  0
    8.4347    0.2290   21.4563 C   0  0  0  0  0  0  0  0  0  0  0  0
    8.5792    1.2040   20.9785 H   0  0  0  0  0  0  0  0  0  0  0  0
    8.6798    0.3320   22.5270 H   0  0  0  0  0  0  0  0  0  0  0  0
    9.2495   -0.7813   20.7981 N   0  0  0  0  0  0  0  0  0  0  0  0
   10.2534   -0.8610   20.8768 H   0  0  0  0  0  0  0  0  0  0  0  0
    8.6935   -2.0123   20.9288 C   0  0  0  0  0  0  0  0  0  0  0  0
    9.3443   -3.0299   20.8932 O   0  0  0  0  0  0  0  0  0  0  0  0
    7.2052   -1.8646   21.1795 C   0  0  1  0  0  0  0  0  0  0  0  0
    6.6861   -2.2636   20.3024 H   0  0  0  0  0  0  0  0  0  0  0  0
    6.8008   -2.7264   22.3692 C   0  0  0  0  0  0  0  0  0  0  0  0
    7.5370   -2.7143   23.5682 C   0  0  0  0  0  0  0  0  0  0  0  0
    8.4230   -2.0858   23.6445 H   0  0  0  0  0  0  0  0  0  0  0  0
    7.1875   -3.5617   24.6289 C   0  0  0  0  0  0  0  0  0  0  0  0
    7.7797   -3.5846   25.5403 H   0  0  0  0  0  0  0  0  0  0  0  0
    6.0851   -4.4129   24.5244 C   0  0  0  0  0  0  0  0  0  0  0  0
    5.7812   -5.0608   25.3436 H   0  0  0  0  0  0  0  0  0  0  0  0
    5.3695   -4.4332   23.3221 C   0  0  0  0  0  0  0  0  0  0  0  0
    4.2142   -5.3491   23.1811 N   0  0  0  0  0  4  0  0  0  0  0  0
    3.9235   -5.7252   22.0573 O   0  0  0  0  0  0  0  0  0  0  0  0
    3.6087   -5.6683   24.1909 O   0  0  0  0  0  1  0  0  0  0  0  0
    5.7349   -3.6239   22.2448 C   0  0  0  0  0  0  0  0  0  0  0  0
    5.2102   -3.7312   21.3023 H   0  0  0  0  0  0  0  0  0  0  0  0
    5.0997    0.9520   20.0539 C   0  0  0  0  0  0  0  0  0  0  0  0
    4.5566    1.0669   20.9949 H   0  0  0  0  0  0  0  0  0  0  0  0
    4.5916    1.5066   18.8714 C   0  0  0  0  0  0  0  0  0  0  0  0
    3.6543    2.0520   18.8499 H   0  0  0  0  0  0  0  0  0  0  0  0
  1  2  1  0
  2  3  2  0
  3  4  1  0
  4  5  1  0
  4  6  2  0
  6  7  1  0
  7  8  1  1
  7  9  1  0
  9 10  1  0
  9 11  1  0
  9 12  1  0
 12 13  1  0
 12 14  1  0
 14 15  2  0
 14 16  1  0
 16 17  1  6
 16 18  1  0
 18 19  2  0
 19 20  1  0
 19 21  1  0
 21 22  1  0
 21 23  2  0
 23 24  1  0
 23 25  1  0
 25 26  1  0
 26 27  2  0
 26 28  1  0
 25 29  2  0
 29 30  1  0
  6 31  1  0
 31 32  1  0
 31 33  2  0
 33 34  1  0
 33  2  1  0
 16  7  1  0
 29 18  1  0
M  CHG  2  26   1  28  -1
M  END
>  <cnnaffinity>  (1) 
-5.19595

>  <filename>  (1) 
O=C1NC[C@@H](c2cccnc2)[C@@H]1c1cccc([N+](=O)[O-])c1

$$$$
