
     RDKit          3D

 34 37  0  0  0  0  0  0  0  0999 V2000
    4.9096    1.7791   16.9964 H   0  0  0  0  0  0  0  0  0  0  0  0
    5.3968    1.2957   17.8372 C   0  0  0  0  0  0  0  0  0  0  0  0
    6.5616    0.6779   17.5756 N   0  0  0  0  0  0  0  0  0  0  0  0
    7.1709    0.0594   18.5923 C   0  0  0  0  0  0  0  0  0  0  0  0
    8.1234   -0.4259   18.3886 H   0  0  0  0  0  0  0  0  0  0  0  0
    6.6408    0.0001   19.8976 C   0  0  0  0  0  0  0  0  0  0  0  0
    7.3464   -0.6829   20.9144 N   0  0  0  0  0  0  0  0  0  0  0  0
    8.7473   -0.6526   21.1410 C   0  0  0  0  0  0  0  0  0  0  0  0
    9.5625   -0.0446   20.4680 O   0  0  0  0  0  0  0  0  0  0  0  0
    8.9056   -1.4898   22.3005 C   0  0  0  0  0  0  0  0  0  0  0  0
    9.8679   -1.6838   22.7295 H   0  0  0  0  0  0  0  0  0  0  0  0
    7.6970   -1.9407   22.7235 C   0  0  0  0  0  0  0  0  0  0  0  0
    7.4361   -2.8218   23.8969 C   0  0  0  0  0  0  0  0  0  0  0  0
    8.4996   -3.2311   24.5690 N   0  0  0  0  0  0  0  0  0  0  0  0
    8.3041   -4.0405   25.6504 C   0  0  0  0  0  0  0  0  0  0  0  0
    9.4394   -4.4900   26.3926 C   0  0  0  0  0  0  0  0  0  0  0  0
   10.4223   -4.1707   26.0630 H   0  0  0  0  0  0  0  0  0  0  0  0
    9.2698   -5.3033   27.4898 C   0  0  0  0  0  0  0  0  0  0  0  0
   10.1345   -5.6320   28.0589 H   0  0  0  0  0  0  0  0  0  0  0  0
    7.9694   -5.7196   27.9001 C   0  0  0  0  0  0  0  0  0  0  0  0
    7.8585   -6.3704   28.7644 H   0  0  0  0  0  0  0  0  0  0  0  0
    6.8582   -5.3032   27.2059 C   0  0  0  0  0  0  0  0  0  0  0  0
    5.8552   -5.6057   27.5037 H   0  0  0  0  0  0  0  0  0  0  0  0
    7.0002   -4.4573   26.0713 C   0  0  0  0  0  0  0  0  0  0  0  0
    5.8827   -3.9964   25.3196 C   0  0  0  0  0  0  0  0  0  0  0  0
    4.8786   -4.2950   25.6165 H   0  0  0  0  0  0  0  0  0  0  0  0
    6.0919   -3.1853   24.2396 C   0  0  0  0  0  0  0  0  0  0  0  0
    5.2538   -2.8182   23.6543 H   0  0  0  0  0  0  0  0  0  0  0  0
    6.7315   -1.4328   21.8942 N   0  0  0  0  0  0  0  0  0  0  0  0
    5.7286   -1.5665   21.8786 H   0  0  0  0  0  0  0  0  0  0  0  0
    5.4291    0.6538   20.1589 C   0  0  0  0  0  0  0  0  0  0  0  0
    5.0126    0.6343   21.1667 H   0  0  0  0  0  0  0  0  0  0  0  0
    4.8014    1.3172   19.1050 C   0  0  0  0  0  0  0  0  0  0  0  0
    3.8681    1.8476   19.2638 H   0  0  0  0  0  0  0  0  0  0  0  0
  1  2  1  0
  2  3  2  0
  3  4  1  0
  4  5  1  0
  4  6  2  0
  6  7  1  0
  7  8  1  0
  8  9  2  0
  8 10  1  0
 10 11  1  0
 10 12  2  0
 12 13  1  0
 13 14  2  0
 14 15  1  0
 15 16  2  0
 16 17  1  0
 16 18  1  0
 18 19  1  0
 18 20  2  0
 20 21  1  0
 20 22  1  0
 22 23  1  0
 22 24  2  0
 24 25  1  0
 25 26  1  0
 25 27  2  0
 27 28  1  0
 12 29  1  0
 29 30  1  0
  6 31  1  0
 31 32  1  0
 31 33  2  0
 33 34  1  0
 33  2  1  0
 29  7  1  0
 27 13  1  0
 24 15  1  0
M  END
>  <cnnaffinity>  (1) 
-5.37899

>  <filename>  (1) 
O=c1cc(-c2ccc3ccccc3n2)[nH]n1-c1cccnc1

$$$$
