
     RDKit          3D

 29 31  0  0  0  0  0  0  0  0999 V2000
    4.9204    1.7977   16.9925 H   0  0  0  0  0  0  0  0  0  0  0  0
    5.3914    1.2924   17.8310 C   0  0  0  0  0  0  0  0  0  0  0  0
    6.5483    0.6670   17.5577 N   0  0  0  0  0  0  0  0  0  0  0  0
    7.1717    0.0577   18.5708 C   0  0  0  0  0  0  0  0  0  0  0  0
    8.1279   -0.4157   18.3621 H   0  0  0  0  0  0  0  0  0  0  0  0
    6.6691    0.0161   19.8868 C   0  0  0  0  0  0  0  0  0  0  0  0
    7.3668   -0.6543   20.9294 N   0  0  0  0  0  0  0  0  0  0  0  0
    6.7677   -1.4336   21.9098 C   0  0  0  0  0  0  0  0  0  0  0  0
    5.7061   -1.6080   21.9586 H   0  0  0  0  0  0  0  0  0  0  0  0
    7.7304   -1.9175   22.7254 C   0  0  0  0  0  0  0  0  0  0  0  0
    7.6166   -2.7773   23.9058 C   0  0  0  0  0  0  0  0  0  0  0  0
    8.4144   -2.6331   25.0588 C   0  0  0  0  0  0  0  0  0  0  0  0
    9.3670   -1.6783   25.0756 F   0  0  0  0  0  0  0  0  0  0  0  0
    8.2736   -3.4203   26.1980 C   0  0  0  0  0  0  0  0  0  0  0  0
    8.9391   -3.2328   27.0351 H   0  0  0  0  0  0  0  0  0  0  0  0
    7.2933   -4.4214   26.2117 C   0  0  0  0  0  0  0  0  0  0  0  0
    7.1694   -5.0548   27.0893 H   0  0  0  0  0  0  0  0  0  0  0  0
    6.4728   -4.6141   25.0952 C   0  0  0  0  0  0  0  0  0  0  0  0
    5.6923   -5.3665   25.0511 H   0  0  0  0  0  0  0  0  0  0  0  0
    6.6499   -3.7977   23.9833 C   0  0  0  0  0  0  0  0  0  0  0  0
    5.8407   -4.0166   22.9251 F   0  0  0  0  0  0  0  0  0  0  0  0
    8.9334   -1.4328   22.2419 N   0  0  0  0  0  0  0  0  0  0  0  0
    9.8655   -1.5762   22.5727 H   0  0  0  0  0  0  0  0  0  0  0  0
    8.7612   -0.6588   21.1299 C   0  0  0  0  0  0  0  0  0  0  0  0
    9.6439   -0.1261   20.4929 O   0  0  0  0  0  0  0  0  0  0  0  0
    5.4501    0.6483   20.1542 C   0  0  0  0  0  0  0  0  0  0  0  0
    5.0373    0.6400   21.1671 H   0  0  0  0  0  0  0  0  0  0  0  0
    4.8086    1.3079   19.1028 C   0  0  0  0  0  0  0  0  0  0  0  0
    3.8785    1.8375   19.2614 H   0  0  0  0  0  0  0  0  0  0  0  0
  1  2  1  0
  2  3  2  0
  3  4  1  0
  4  5  1  0
  4  6  2  0
  6  7  1  0
  7  8  1  0
  8  9  1  0
  8 10  2  0
 10 11  1  0
 11 12  2  0
 12 13  1  0
 12 14  1  0
 14 15  1  0
 14 16  2  0
 16 17  1  0
 16 18  1  0
 18 19  1  0
 18 20  2  0
 20 21  1  0
 10 22  1  0
 22 23  1  0
 22 24  1  0
 24 25  2  0
  6 26  1  0
 26 27  1  0
 26 28  2  0
 28 29  1  0
 28  2  1  0
 24  7  1  0
 20 11  1  0
M  END
>  <cnnaffinity>  (1) 
-5.58913

>  <filename>  (1) 
O=c1[nH]c(-c2c(F)cccc2F)cn1-c1cccnc1

$$$$
