
     RDKit          3D

 29 31  0  0  0  0  0  0  0  0999 V2000
    4.9205    1.7967   16.9756 H   0  0  0  0  0  0  0  0  0  0  0  0
    5.3931    1.2987   17.8197 C   0  0  0  0  0  0  0  0  0  0  0  0
    6.5571    0.6789   17.5640 N   0  0  0  0  0  0  0  0  0  0  0  0
    7.1619    0.0562   18.5841 C   0  0  0  0  0  0  0  0  0  0  0  0
    8.1205   -0.4039   18.3434 H   0  0  0  0  0  0  0  0  0  0  0  0
    6.6464    0.0057   19.8943 C   0  0  0  0  0  0  0  0  0  0  0  0
    7.3346   -0.6538   21.0080 C   0  0  0  0  0  0  0  0  0  0  0  0
    7.2404   -0.4371   22.3359 C   0  0  0  0  0  0  0  0  0  0  0  0
    6.6460    0.2936   22.8619 H   0  0  0  0  0  0  0  0  0  0  0  0
    8.0930   -1.3171   22.9961 N   0  0  0  0  0  0  0  0  0  0  0  0
    8.2705   -1.4051   24.4003 C   0  0  0  0  0  0  0  0  0  0  0  0
    8.2378   -0.2325   25.1666 C   0  0  0  0  0  0  0  0  0  0  0  0
    8.0852    0.7288   24.6854 H   0  0  0  0  0  0  0  0  0  0  0  0
    8.4224   -0.3064   26.5461 C   0  0  0  0  0  0  0  0  0  0  0  0
    8.3999    0.5963   27.1504 H   0  0  0  0  0  0  0  0  0  0  0  0
    8.6359   -1.5427   27.1561 C   0  0  0  0  0  0  0  0  0  0  0  0
    8.8101   -1.5734   28.2206 H   0  0  0  0  0  0  0  0  0  0  0  0
    8.6489   -2.7131   26.3921 C   0  0  0  0  0  0  0  0  0  0  0  0
    8.8182   -3.6746   26.8675 H   0  0  0  0  0  0  0  0  0  0  0  0
    8.4668   -2.6508   25.0094 C   0  0  0  0  0  0  0  0  0  0  0  0
    8.4994   -3.5406   24.3895 H   0  0  0  0  0  0  0  0  0  0  0  0
    8.7339   -2.1202   22.0497 C   0  0  0  0  0  0  0  0  0  0  0  0
    9.5220   -3.0315   22.1822 O   0  0  0  0  0  0  0  0  0  0  0  0
    8.2643   -1.6632   20.8458 N   0  0  0  0  0  0  0  0  0  0  0  0
    8.5447   -2.1523   20.0188 H   0  0  0  0  0  0  0  0  0  0  0  0
    5.4274    0.6603   20.1350 C   0  0  0  0  0  0  0  0  0  0  0  0
    4.9918    0.6400   21.1364 H   0  0  0  0  0  0  0  0  0  0  0  0
    4.7953    1.3188   19.0840 C   0  0  0  0  0  0  0  0  0  0  0  0
    3.8646    1.8509   19.2380 H   0  0  0  0  0  0  0  0  0  0  0  0
  1  2  1  0
  2  3  2  0
  3  4  1  0
  4  5  1  0
  4  6  2  0
  6  7  1  0
  7  8  2  0
  8  9  1  0
  8 10  1  0
 10 11  1  0
 11 12  2  0
 12 13  1  0
 12 14  1  0
 14 15  1  0
 14 16  2  0
 16 17  1  0
 16 18  1  0
 18 19  1  0
 18 20  2  0
 20 21  1  0
 10 22  1  0
 22 23  2  0
 22 24  1  0
 24 25  1  0
  6 26  1  0
 26 27  1  0
 26 28  2  0
 28 29  1  0
 28  2  1  0
 24  7  1  0
 20 11  1  0
M  END
>  <cnnaffinity>  (1) 
-5.18488

>  <filename>  (1) 
O=c1[nH]c(-c2cccnc2)cn1-c1ccccc1

$$$$
