
     RDKit          3D

 27 29  0  0  0  0  0  0  0  0999 V2000
    4.9556    1.8279   16.9754 H   0  0  0  0  0  0  0  0  0  0  0  0
    5.3930    1.2944   17.8185 C   0  0  0  0  0  0  0  0  0  0  0  0
    6.5437    0.6502   17.5812 N   0  0  0  0  0  0  0  0  0  0  0  0
    7.1286    0.0333   18.6137 C   0  0  0  0  0  0  0  0  0  0  0  0
    8.0830   -0.4467   18.4046 H   0  0  0  0  0  0  0  0  0  0  0  0
    6.5981   -0.0128   19.9160 C   0  0  0  0  0  0  0  0  0  0  0  0
    7.3112   -0.7560   20.9908 C   0  0  0  0  0  0  0  0  0  0  0  0
    6.6031   -1.5753   21.7418 N   0  0  0  0  0  0  0  0  0  0  0  0
    7.2138   -2.2953   22.7645 C   0  0  0  0  0  0  0  0  0  0  0  0
    6.3649   -3.2084   23.5902 C   0  0  0  0  0  0  0  0  0  0  0  0
    5.0188   -3.3802   23.3978 C   0  0  0  0  0  0  0  0  0  0  0  0
    4.4203   -2.9674   22.5945 H   0  0  0  0  0  0  0  0  0  0  0  0
    4.3027   -4.3808   24.5824 S   0  0  0  0  0  0  0  0  0  0  0  0
    5.8197   -4.6538   25.3459 C   0  0  0  0  0  0  0  0  0  0  0  0
    5.8759   -5.2597   26.2436 H   0  0  0  0  0  0  0  0  0  0  0  0
    6.8265   -3.9913   24.7181 C   0  0  0  0  0  0  0  0  0  0  0  0
    7.8558   -4.0913   25.0521 H   0  0  0  0  0  0  0  0  0  0  0  0
    8.5526   -2.1557   23.0375 C   0  0  0  0  0  0  0  0  0  0  0  0
    9.0475   -2.6524   23.8689 H   0  0  0  0  0  0  0  0  0  0  0  0
    9.3088   -1.3120   22.2600 N   0  0  0  0  0  0  0  0  0  0  0  0
   10.3093   -1.1529   22.3478 H   0  0  0  0  0  0  0  0  0  0  0  0
    8.8151   -0.5771   21.1850 C   0  0  0  0  0  0  0  0  0  0  0  0
    9.6168    0.0938   20.5560 O   0  0  0  0  0  0  0  0  0  0  0  0
    5.3676    0.6327   20.1334 C   0  0  0  0  0  0  0  0  0  0  0  0
    4.8927    0.6049   21.1160 H   0  0  0  0  0  0  0  0  0  0  0  0
    4.7695    1.3148   19.0707 C   0  0  0  0  0  0  0  0  0  0  0  0
    3.8490    1.8769   19.1977 H   0  0  0  0  0  0  0  0  0  0  0  0
  1  2  1  0
  2  3  2  0
  3  4  1  0
  4  5  1  0
  4  6  2  0
  6  7  1  0
  7  8  2  0
  8  9  1  0
  9 10  1  0
 10 11  2  0
 11 12  1  0
 11 13  1  0
 13 14  1  0
 14 15  1  0
 14 16  2  0
 16 17  1  0
  9 18  2  0
 18 19  1  0
 18 20  1  0
 20 21  1  0
 20 22  1  0
 22 23  2  0
  6 24  1  0
 24 25  1  0
 24 26  2  0
 26 27  1  0
 26  2  1  0
 22  7  1  0
 16 10  1  0
M  END
>  <cnnaffinity>  (1) 
-5.13192

>  <filename>  (1) 
O=c1[nH]cc(-c2ccsc2)nc1-c1cccnc1

$$$$
