
     RDKit          3D

 32 34  0  0  0  0  0  0  0  0999 V2000
    4.9173    1.7925   16.9854 H   0  0  0  0  0  0  0  0  0  0  0  0
    5.3959    1.3002   17.8286 C   0  0  0  0  0  0  0  0  0  0  0  0
    6.5592    0.6860   17.5669 N   0  0  0  0  0  0  0  0  0  0  0  0
    7.1829    0.0786   18.5810 C   0  0  0  0  0  0  0  0  0  0  0  0
    8.1233   -0.4233   18.3515 H   0  0  0  0  0  0  0  0  0  0  0  0
    6.6653    0.0273   19.8881 C   0  0  0  0  0  0  0  0  0  0  0  0
    7.3709   -0.6669   20.9356 N   0  0  0  0  0  0  0  0  0  0  0  0
    8.6636   -0.2614   21.2671 C   0  0  0  0  0  0  0  0  0  0  0  0
    9.0501    0.5631   20.6722 H   0  0  0  0  0  0  0  0  0  0  0  0
    9.3669   -0.8397   22.2654 C   0  0  0  0  0  0  0  0  0  0  0  0
   10.6507   -0.5018   22.6020 O   0  0  0  0  0  0  0  0  0  0  0  0
   11.1175    0.7965   22.5274 C   0  0  0  0  0  0  0  0  0  0  0  0
   10.3102    1.9269   22.7238 C   0  0  0  0  0  0  0  0  0  0  0  0
    9.2543    1.8048   22.9449 H   0  0  0  0  0  0  0  0  0  0  0  0
   10.8734    3.2086   22.6510 C   0  0  0  0  0  0  0  0  0  0  0  0
   10.2661    4.1025   22.7701 H   0  0  0  0  0  0  0  0  0  0  0  0
   12.2461    3.3420   22.4469 C   0  0  0  0  0  0  0  0  0  0  0  0
   12.9628    4.9187   22.3077 Cl  0  0  0  0  0  0  0  0  0  0  0  0
   13.0667    2.2143   22.3725 C   0  0  0  0  0  0  0  0  0  0  0  0
   14.1431    2.3531   22.3822 H   0  0  0  0  0  0  0  0  0  0  0  0
   12.4981    0.9396   22.3495 C   0  0  0  0  0  0  0  0  0  0  0  0
   13.1042    0.0474   22.2194 H   0  0  0  0  0  0  0  0  0  0  0  0
    8.7710   -1.9904   23.0026 C   0  0  0  0  0  0  0  0  0  0  0  0
    9.2384   -2.6670   23.8900 O   0  0  0  0  0  0  0  0  0  0  0  0
    7.5048   -2.3035   22.5792 N   0  0  0  0  0  0  0  0  0  0  0  0
    7.0605   -3.0666   23.0505 H   0  0  0  0  0  0  0  0  0  0  0  0
    6.7458   -1.7415   21.6073 C   0  0  0  0  0  0  0  0  0  0  0  0
    5.6518   -2.1969   21.3778 O   0  0  0  0  0  0  0  0  0  0  0  0
    5.4457    0.6554   20.1527 C   0  0  0  0  0  0  0  0  0  0  0  0
    5.0220    0.6088   21.1561 H   0  0  0  0  0  0  0  0  0  0  0  0
    4.8108    1.3169   19.0986 C   0  0  0  0  0  0  0  0  0  0  0  0
    3.8774    1.8408   19.2507 H   0  0  0  0  0  0  0  0  0  0  0  0
  1  2  1  0
  2  3  2  0
  3  4  1  0
  4  5  1  0
  4  6  2  0
  6  7  1  0
  7  8  1  0
  8  9  1  0
  8 10  2  0
 10 11  1  0
 11 12  1  0
 12 13  2  0
 13 14  1  0
 13 15  1  0
 15 16  1  0
 15 17  2  0
 17 18  1  0
 17 19  1  0
 19 20  1  0
 19 21  2  0
 21 22  1  0
 10 23  1  0
 23 24  2  0
 23 25  1  0
 25 26  1  0
 25 27  1  0
 27 28  2  0
  6 29  1  0
 29 30  1  0
 29 31  2  0
 31 32  1  0
 31  2  1  0
 27  7  1  0
 21 12  1  0
M  END
>  <cnnaffinity>  (1) 
-5.44402

>  <filename>  (1) 
O=c1[nH]c(=O)n(-c2cccnc2)cc1Oc1ccc(Cl)cc1

$$$$
