
     RDKit          3D

 31 33  0  0  0  0  0  0  0  0999 V2000
    4.9198    1.8025   16.9809 H   0  0  0  0  0  0  0  0  0  0  0  0
    5.3956    1.3012   17.8201 C   0  0  0  0  0  0  0  0  0  0  0  0
    6.5606    0.6906   17.5540 N   0  0  0  0  0  0  0  0  0  0  0  0
    7.1710    0.0709   18.5722 C   0  0  0  0  0  0  0  0  0  0  0  0
    8.1223   -0.4090   18.3365 H   0  0  0  0  0  0  0  0  0  0  0  0
    6.6584    0.0044   19.8819 C   0  0  0  0  0  0  0  0  0  0  0  0
    7.3957   -0.6996   21.0118 C   0  0  2  0  0  0  0  0  0  0  0  0
    8.2341   -1.2594   20.5735 H   0  0  0  0  0  0  0  0  0  0  0  0
    6.5334   -1.7364   21.7445 C   0  0  0  0  0  0  0  0  0  0  0  0
    5.9552   -2.7040   21.2911 O   0  0  0  0  0  0  0  0  0  0  0  0
    6.5237   -1.4228   23.0627 N   0  0  0  0  0  0  0  0  0  0  0  0
    5.7738   -1.8820   23.5577 H   0  0  0  0  0  0  0  0  0  0  0  0
    7.0986   -0.1416   23.4081 C   0  0  0  0  0  0  0  0  0  0  0  0
    7.7450   -0.2449   24.2931 H   0  0  0  0  0  0  0  0  0  0  0  0
    6.3435    0.6162   23.6698 H   0  0  0  0  0  0  0  0  0  0  0  0
    7.8815    0.2751   22.1300 C   0  0  1  0  0  0  0  0  0  0  0  0
    7.6306    1.3125   21.8710 H   0  0  0  0  0  0  0  0  0  0  0  0
    9.3826    0.2398   22.3084 C   0  0  0  0  0  0  0  0  0  0  0  0
   10.0402   -0.9314   22.7237 C   0  0  0  0  0  0  0  0  0  0  0  0
    9.4767   -1.8454   22.9299 H   0  0  0  0  0  0  0  0  0  0  0  0
   11.3634   -1.0257   22.8937 N   0  0  0  0  0  0  0  0  0  0  0  0
   12.1029    0.0632   22.6618 C   0  0  0  0  0  0  0  0  0  0  0  0
   13.1750   -0.0555   22.8283 H   0  0  0  0  0  0  0  0  0  0  0  0
   11.5603    1.2823   22.2411 C   0  0  0  0  0  0  0  0  0  0  0  0
   12.2147    2.1292   22.0657 H   0  0  0  0  0  0  0  0  0  0  0  0
   10.1767    1.3698   22.0615 C   0  0  0  0  0  0  0  0  0  0  0  0
    9.7075    2.3003   21.7276 H   0  0  0  0  0  0  0  0  0  0  0  0
    5.4440    0.6521   20.1351 C   0  0  0  0  0  0  0  0  0  0  0  0
    5.0142    0.6356   21.1395 H   0  0  0  0  0  0  0  0  0  0  0  0
    4.8005    1.3139   19.0868 C   0  0  0  0  0  0  0  0  0  0  0  0
    3.8697    1.8448   19.2426 H   0  0  0  0  0  0  0  0  0  0  0  0
  1  2  1  0
  2  3  2  0
  3  4  1  0
  4  5  1  0
  4  6  2  0
  6  7  1  0
  7  8  1  6
  7  9  1  0
  9 10  2  0
  9 11  1  0
 11 12  1  0
 11 13  1  0
 13 14  1  0
 13 15  1  0
 13 16  1  0
 16 17  1  6
 16 18  1  0
 18 19  2  0
 19 20  1  0
 19 21  1  0
 21 22  2  0
 22 23  1  0
 22 24  1  0
 24 25  1  0
 24 26  2  0
 26 27  1  0
  6 28  1  0
 28 29  1  0
 28 30  2  0
 30 31  1  0
 30  2  1  0
 16  7  1  0
 26 18  1  0
M  END
>  <cnnaffinity>  (1) 
-5.21839

>  <filename>  (1) 
O=C1NC[C@@H](c2cccnc2)[C@@H]1c1cccnc1

$$$$
