
     RDKit          3D

 30 32  0  0  0  0  0  0  0  0999 V2000
    4.8631    1.8229   16.7449 H   0  0  0  0  0  0  0  0  0  0  0  0
    5.3435    1.4062   17.6238 C   0  0  0  0  0  0  0  0  0  0  0  0
    6.4824    0.7031   17.4751 N   0  0  0  0  0  0  0  0  0  0  0  0
    7.0292    0.1582   18.5799 C   0  0  0  0  0  0  0  0  0  0  0  0
    7.9482   -0.4057   18.4533 H   0  0  0  0  0  0  0  0  0  0  0  0
    6.4694    0.2615   19.8732 C   0  0  0  0  0  0  0  0  0  0  0  0
    7.0195   -0.4414   20.9575 N   0  0  0  0  0  0  0  0  0  0  0  0
    7.0175    0.0992   22.2215 N   0  0  0  0  0  0  0  0  0  0  0  0
    7.7727   -0.4569   23.1648 C   0  0  0  0  0  0  0  0  0  0  0  0
    7.7541    0.1139   24.5310 C   0  0  0  0  0  0  0  0  0  0  0  0
    6.6938    0.9128   25.0028 C   0  0  0  0  0  0  0  0  0  0  0  0
    5.8709    1.1713   24.3432 H   0  0  0  0  0  0  0  0  0  0  0  0
    6.6610    1.3608   26.3355 C   0  0  0  0  0  0  0  0  0  0  0  0
    5.8308    1.9559   26.7033 H   0  0  0  0  0  0  0  0  0  0  0  0
    7.6923    1.0295   27.2172 C   0  0  0  0  0  0  0  0  0  0  0  0
    7.6827    1.6102   29.0404 Br  0  0  0  0  0  0  0  0  0  0  0  0
    8.7557    0.2633   26.7475 C   0  0  0  0  0  0  0  0  0  0  0  0
    9.5560   -0.0107   27.4248 H   0  0  0  0  0  0  0  0  0  0  0  0
    8.7969   -0.1768   25.4251 C   0  0  0  0  0  0  0  0  0  0  0  0
    9.6609   -0.7512   25.1115 H   0  0  0  0  0  0  0  0  0  0  0  0
    8.6023   -1.6633   22.8646 C   0  0  0  0  0  0  0  0  0  0  0  0
    9.3882   -2.1812   23.6611 O   0  0  0  0  0  0  0  0  0  0  0  0
    8.3895   -2.3255   21.5912 C   0  0  0  0  0  0  0  0  0  0  0  0
    8.8715   -3.2747   21.3982 H   0  0  0  0  0  0  0  0  0  0  0  0
    7.5792   -1.6906   20.6794 C   0  0  0  0  0  0  0  0  0  0  0  0
    7.3408   -2.1083   19.7085 H   0  0  0  0  0  0  0  0  0  0  0  0
    5.3216    1.0380   20.0204 C   0  0  0  0  0  0  0  0  0  0  0  0
    4.8819    1.1589   21.0087 H   0  0  0  0  0  0  0  0  0  0  0  0
    4.7447    1.6025   18.8778 C   0  0  0  0  0  0  0  0  0  0  0  0
    3.8310    2.1853   18.9505 H   0  0  0  0  0  0  0  0  0  0  0  0
  1  2  1  0
  2  3  2  0
  3  4  1  0
  4  5  1  0
  4  6  2  0
  6  7  1  0
  7  8  1  0
  8  9  2  0
  9 10  1  0
 10 11  2  0
 11 12  1  0
 11 13  1  0
 13 14  1  0
 13 15  2  0
 15 16  1  0
 15 17  1  0
 17 18  1  0
 17 19  2  0
 19 20  1  0
  9 21  1  0
 21 22  2  0
 21 23  1  0
 23 24  1  0
 23 25  2  0
 25 26  1  0
  6 27  1  0
 27 28  1  0
 27 29  2  0
 29 30  1  0
 29  2  1  0
 25  7  1  0
 19 10  1  0
M  END
>  <cnnaffinity>  (1) 
-5.10858

>  <filename>  (1) 
O=c1ccn(-c2cccnc2)nc1-c1ccc(Br)cc1

$$$$
