
     RDKit          3D

 34 37  0  0  0  0  0  0  0  0999 V2000
    4.9222    1.7764   16.9976 H   0  0  0  0  0  0  0  0  0  0  0  0
    5.4058    1.2910   17.8414 C   0  0  0  0  0  0  0  0  0  0  0  0
    6.5696    0.6711   17.5874 N   0  0  0  0  0  0  0  0  0  0  0  0
    7.1698    0.0601   18.6131 C   0  0  0  0  0  0  0  0  0  0  0  0
    8.1123   -0.4285   18.3719 H   0  0  0  0  0  0  0  0  0  0  0  0
    6.6395    0.0053   19.9125 C   0  0  0  0  0  0  0  0  0  0  0  0
    7.3375   -0.7264   21.0005 C   0  0  0  0  0  0  0  0  0  0  0  0
    6.5836   -1.3096   21.9130 N   0  0  0  0  0  0  0  0  0  0  0  0
    7.1779   -1.9338   22.9830 N   0  0  0  0  0  0  0  0  0  0  0  0
    6.3017   -2.5167   23.9630 C   0  0  0  0  0  0  0  0  0  0  0  0
    6.4935   -2.2867   25.3261 C   0  0  0  0  0  0  0  0  0  0  0  0
    7.3116   -1.6562   25.6608 H   0  0  0  0  0  0  0  0  0  0  0  0
    5.6066   -2.8504   26.2845 C   0  0  0  0  0  0  0  0  0  0  0  0
    5.7615   -2.6466   27.3435 H   0  0  0  0  0  0  0  0  0  0  0  0
    4.5430   -3.6672   25.9072 C   0  0  0  0  0  0  0  0  0  0  0  0
    3.8557   -4.1128   26.6319 H   0  0  0  0  0  0  0  0  0  0  0  0
    4.3782   -3.9054   24.5332 C   0  0  0  0  0  0  0  0  0  0  0  0
    5.2328   -3.3505   23.5445 C   0  0  0  0  0  0  0  0  0  0  0  0
    4.7687   -3.8449   22.2781 C   0  0  0  0  0  0  0  0  0  0  0  0
    5.2370   -3.5731   21.3448 H   0  0  0  0  0  0  0  0  0  0  0  0
    3.6828   -4.6341   22.5137 C   0  0  0  0  0  0  0  0  0  0  0  0
    3.0424   -5.1719   21.8217 H   0  0  0  0  0  0  0  0  0  0  0  0
    3.4424   -4.6615   23.8734 N   0  0  0  0  0  0  0  0  0  0  0  0
    2.7103   -5.1636   24.3418 H   0  0  0  0  0  0  0  0  0  0  0  0
    8.5930   -2.1017   23.1233 C   0  0  0  0  0  0  0  0  0  0  0  0
    9.0888   -2.7449   24.0343 O   0  0  0  0  0  0  0  0  0  0  0  0
    9.3660   -1.4475   22.0710 C   0  0  0  0  0  0  0  0  0  0  0  0
   10.4406   -1.5502   22.1790 H   0  0  0  0  0  0  0  0  0  0  0  0
    8.7701   -0.7812   21.0493 C   0  0  0  0  0  0  0  0  0  0  0  0
    9.3580   -0.2644   20.2882 H   0  0  0  0  0  0  0  0  0  0  0  0
    5.4228    0.6552   20.1613 C   0  0  0  0  0  0  0  0  0  0  0  0
    4.9987    0.6241   21.1684 H   0  0  0  0  0  0  0  0  0  0  0  0
    4.8036    1.3173   19.1046 C   0  0  0  0  0  0  0  0  0  0  0  0
    3.8706    1.8478   19.2558 H   0  0  0  0  0  0  0  0  0  0  0  0
  1  2  1  0
  2  3  2  0
  3  4  1  0
  4  5  1  0
  4  6  2  0
  6  7  1  0
  7  8  2  0
  8  9  1  0
  9 10  1  0
 10 11  2  0
 11 12  1  0
 11 13  1  0
 13 14  1  0
 13 15  2  0
 15 16  1  0
 15 17  1  0
 17 18  2  0
 18 19  1  0
 19 20  1  0
 19 21  2  0
 21 22  1  0
 21 23  1  0
 23 24  1  0
  9 25  1  0
 25 26  2  0
 25 27  1  0
 27 28  1  0
 27 29  2  0
 29 30  1  0
  6 31  1  0
 31 32  1  0
 31 33  2  0
 33 34  1  0
 33  2  1  0
 29  7  1  0
 18 10  1  0
 23 17  1  0
M  END
>  <cnnaffinity>  (1) 
-5.27831

>  <filename>  (1) 
O=c1ccc(-c2cccnc2)nn1-c1cccc2[nH]ccc12

$$$$
