
     RDKit          3D

 32 34  0  0  0  0  0  0  0  0999 V2000
    4.9489    1.8012   16.9653 H   0  0  0  0  0  0  0  0  0  0  0  0
    5.3920    1.3074   17.8262 C   0  0  0  0  0  0  0  0  0  0  0  0
    6.5562    0.6767   17.6044 N   0  0  0  0  0  0  0  0  0  0  0  0
    7.1472    0.0875   18.6465 C   0  0  0  0  0  0  0  0  0  0  0  0
    8.0765   -0.4543   18.4603 H   0  0  0  0  0  0  0  0  0  0  0  0
    6.6272    0.1285   19.9455 C   0  0  0  0  0  0  0  0  0  0  0  0
    7.3782   -0.5444   21.0127 C   0  0  0  0  0  0  0  0  0  0  0  0
    8.0610   -1.5935   20.6369 N   0  0  0  0  0  0  0  0  0  0  0  0
    8.6073   -2.3554   21.6170 C   0  0  0  0  0  0  0  0  0  0  0  0
    8.8793   -3.5261   21.5032 O   0  0  0  0  0  0  0  0  0  0  0  0
    8.8640   -1.7567   22.8572 N   0  0  0  0  0  0  0  0  0  0  0  0
    9.0653   -2.5023   23.5009 H   0  0  0  0  0  0  0  0  0  0  0  0
    8.0310   -0.7749   23.2732 C   0  0  0  0  0  0  0  0  0  0  0  0
    8.0475   -0.5838   24.6130 N   0  0  0  0  0  0  0  0  0  0  0  0
    8.9282   -0.7999   25.0431 H   0  0  0  0  0  0  0  0  0  0  0  0
    7.0478    0.0804   25.3490 C   0  0  0  0  0  0  0  0  0  0  0  0
    5.7073   -0.1801   25.0468 C   0  0  0  0  0  0  0  0  0  0  0  0
    5.5256   -0.9549   24.3222 H   0  0  0  0  0  0  0  0  0  0  0  0
    4.6751    0.5158   25.6680 C   0  0  0  0  0  0  0  0  0  0  0  0
    3.6434    0.3487   25.3817 H   0  0  0  0  0  0  0  0  0  0  0  0
    4.9907    1.4437   26.6592 C   0  0  0  0  0  0  0  0  0  0  0  0
    3.7018    2.2763   27.4701 Cl  0  0  0  0  0  0  0  0  0  0  0  0
    6.3189    1.6787   27.0220 C   0  0  0  0  0  0  0  0  0  0  0  0
    6.5274    2.3815   27.8230 H   0  0  0  0  0  0  0  0  0  0  0  0
    7.3501    0.9920   26.3636 C   0  0  0  0  0  0  0  0  0  0  0  0
    8.3847    1.1730   26.6357 H   0  0  0  0  0  0  0  0  0  0  0  0
    7.2999   -0.0892   22.3455 C   0  0  0  0  0  0  0  0  0  0  0  0
    6.7227    0.7693   22.6404 H   0  0  0  0  0  0  0  0  0  0  0  0
    5.3882    0.7409   20.1562 C   0  0  0  0  0  0  0  0  0  0  0  0
    4.9292    0.7109   21.1456 H   0  0  0  0  0  0  0  0  0  0  0  0
    4.7584    1.3480   19.0735 C   0  0  0  0  0  0  0  0  0  0  0  0
    3.8126    1.8665   19.1880 H   0  0  0  0  0  0  0  0  0  0  0  0
  1  2  1  0
  2  3  2  0
  3  4  1  0
  4  5  1  0
  4  6  2  0
  6  7  1  0
  7  8  2  0
  8  9  1  0
  9 10  2  0
  9 11  1  0
 11 12  1  0
 11 13  1  0
 13 14  1  0
 14 15  1  0
 14 16  1  0
 16 17  2  0
 17 18  1  0
 17 19  1  0
 19 20  1  0
 19 21  2  0
 21 22  1  0
 21 23  1  0
 23 24  1  0
 23 25  2  0
 25 26  1  0
 13 27  2  0
 27 28  1  0
  6 29  1  0
 29 30  1  0
 29 31  2  0
 31 32  1  0
 31  2  1  0
 27  7  1  0
 25 16  1  0
M  END
>  <cnnaffinity>  (1) 
-5.31508

>  <filename>  (1) 
O=c1nc(-c2cccnc2)cc(Nc2ccc(Cl)cc2)[nH]1

$$$$
