
     RDKit          3D

 35 38  0  0  0  0  0  0  0  0999 V2000
    4.8788    1.8231   16.8717 H   0  0  0  0  0  0  0  0  0  0  0  0
    5.3846    1.3433   17.7088 C   0  0  0  0  0  0  0  0  0  0  0  0
    6.5355    0.7107   17.4307 N   0  0  0  0  0  0  0  0  0  0  0  0
    7.1868    0.0940   18.4279 C   0  0  0  0  0  0  0  0  0  0  0  0
    8.1111   -0.4128   18.1502 H   0  0  0  0  0  0  0  0  0  0  0  0
    6.7166    0.0686   19.7622 C   0  0  0  0  0  0  0  0  0  0  0  0
    7.3540   -0.6464   20.8250 N   0  0  0  0  0  0  0  0  0  0  0  0
    6.6837   -1.4468   21.7529 C   0  0  0  0  0  0  0  0  0  0  0  0
    5.6173   -1.5754   21.6873 H   0  0  0  0  0  0  0  0  0  0  0  0
    7.5741   -1.9502   22.6406 C   0  0  0  0  0  0  0  0  0  0  0  0
    7.4014   -2.8215   23.8221 C   0  0  0  0  0  0  0  0  0  0  0  0
    6.1900   -3.5724   23.9943 C   0  0  0  0  0  0  0  0  0  0  0  0
    5.4101   -3.5066   23.2431 H   0  0  0  0  0  0  0  0  0  0  0  0
    6.0016   -4.3929   25.0834 C   0  0  0  0  0  0  0  0  0  0  0  0
    5.0731   -4.9479   25.2055 H   0  0  0  0  0  0  0  0  0  0  0  0
    7.0326   -4.5741   26.0593 C   0  0  0  0  0  0  0  0  0  0  0  0
    6.9141   -5.4730   27.1690 C   0  0  0  0  0  0  0  0  0  0  0  0
    5.9548   -5.9535   27.3579 H   0  0  0  0  0  0  0  0  0  0  0  0
    8.0033   -5.7437   27.9693 C   0  0  0  0  0  0  0  0  0  0  0  0
    7.9450   -6.4967   28.7534 H   0  0  0  0  0  0  0  0  0  0  0  0
    9.2432   -5.0793   27.7413 C   0  0  0  0  0  0  0  0  0  0  0  0
   10.1080   -5.3033   28.3580 H   0  0  0  0  0  0  0  0  0  0  0  0
    9.3644   -4.1565   26.7325 C   0  0  0  0  0  0  0  0  0  0  0  0
   10.3128   -3.6810   26.5234 H   0  0  0  0  0  0  0  0  0  0  0  0
    8.2631   -3.8665   25.8717 C   0  0  0  0  0  0  0  0  0  0  0  0
    8.3802   -2.9517   24.7881 C   0  0  0  0  0  0  0  0  0  0  0  0
    9.2727   -2.3369   24.7361 H   0  0  0  0  0  0  0  0  0  0  0  0
    8.8094   -1.4318   22.2536 N   0  0  0  0  0  0  0  0  0  0  0  0
    9.7253   -1.7451   22.5120 H   0  0  0  0  0  0  0  0  0  0  0  0
    8.7242   -0.6430   21.1351 C   0  0  0  0  0  0  0  0  0  0  0  0
    9.6478   -0.0943   20.5750 O   0  0  0  0  0  0  0  0  0  0  0  0
    5.5211    0.7455   20.0316 C   0  0  0  0  0  0  0  0  0  0  0  0
    5.1445    0.7624   21.0531 H   0  0  0  0  0  0  0  0  0  0  0  0
    4.8392    1.3842   18.9938 C   0  0  0  0  0  0  0  0  0  0  0  0
    3.9006    1.8971   19.1686 H   0  0  0  0  0  0  0  0  0  0  0  0
  1  2  1  0
  2  3  2  0
  3  4  1  0
  4  5  1  0
  4  6  2  0
  6  7  1  0
  7  8  1  0
  8  9  1  0
  8 10  2  0
 10 11  1  0
 11 12  2  0
 12 13  1  0
 12 14  1  0
 14 15  1  0
 14 16  2  0
 16 17  1  0
 17 18  1  0
 17 19  2  0
 19 20  1  0
 19 21  1  0
 21 22  1  0
 21 23  2  0
 23 24  1  0
 23 25  1  0
 25 26  2  0
 26 27  1  0
 10 28  1  0
 28 29  1  0
 28 30  1  0
 30 31  2  0
  6 32  1  0
 32 33  1  0
 32 34  2  0
 34 35  1  0
 34  2  1  0
 30  7  1  0
 26 11  1  0
 25 16  1  0
M  END
>  <cnnaffinity>  (1) 
-5.46076

>  <filename>  (1) 
O=c1[nH]c(-c2ccc3ccccc3c2)cn1-c1cccnc1

$$$$
