
     RDKit          3D

 36 39  0  0  0  0  0  0  0  0999 V2000
    4.9050    1.8322   16.9641 H   0  0  0  0  0  0  0  0  0  0  0  0
    5.3687    1.3133   17.8006 C   0  0  0  0  0  0  0  0  0  0  0  0
    6.5264    0.6883   17.5321 N   0  0  0  0  0  0  0  0  0  0  0  0
    7.1391    0.0718   18.5518 C   0  0  0  0  0  0  0  0  0  0  0  0
    8.0978   -0.3985   18.3391 H   0  0  0  0  0  0  0  0  0  0  0  0
    6.6323    0.0018   19.8698 C   0  0  0  0  0  0  0  0  0  0  0  0
    7.3270   -0.7390   20.9651 C   0  0  0  0  0  0  0  0  0  0  0  0
    6.6545   -1.6441   21.7164 C   0  0  0  0  0  0  0  0  0  0  0  0
    5.5968   -1.8592   21.5475 H   0  0  0  0  0  0  0  0  0  0  0  0
    7.2656   -2.3531   22.7417 N   0  0  0  0  0  0  0  0  0  0  0  0
    6.5533   -3.3042   23.5124 C   0  0  0  0  0  0  0  0  0  0  0  0
    5.8282   -4.1553   22.8442 N   0  0  0  0  0  0  0  0  0  0  0  0
    5.0996   -5.0667   23.5702 C   0  0  0  0  0  0  0  0  0  0  0  0
    4.3046   -6.0067   22.8557 C   0  0  0  0  0  0  0  0  0  0  0  0
    4.3344   -5.9491   21.7751 H   0  0  0  0  0  0  0  0  0  0  0  0
    3.5412   -6.9349   23.5287 C   0  0  0  0  0  0  0  0  0  0  0  0
    2.9345   -7.6558   22.9831 H   0  0  0  0  0  0  0  0  0  0  0  0
    3.5362   -6.9578   24.9512 C   0  0  0  0  0  0  0  0  0  0  0  0
    2.9303   -7.6927   25.4708 H   0  0  0  0  0  0  0  0  0  0  0  0
    4.2861   -6.0581   25.6741 C   0  0  0  0  0  0  0  0  0  0  0  0
    4.2875   -6.0673   26.7627 H   0  0  0  0  0  0  0  0  0  0  0  0
    5.0836   -5.0904   24.9996 C   0  0  0  0  0  0  0  0  0  0  0  0
    5.8855   -4.1187   25.6710 C   0  0  0  0  0  0  0  0  0  0  0  0
    5.8861   -4.0979   26.7594 H   0  0  0  0  0  0  0  0  0  0  0  0
    6.6328   -3.2362   24.9333 C   0  0  0  0  0  0  0  0  0  0  0  0
    7.2681   -2.4862   25.3823 H   0  0  0  0  0  0  0  0  0  0  0  0
    8.6130   -2.1789   23.0518 C   0  0  0  0  0  0  0  0  0  0  0  0
    9.2090   -2.7739   23.9181 O   0  0  0  0  0  0  0  0  0  0  0  0
    9.2515   -1.2631   22.2975 N   0  0  0  0  0  0  0  0  0  0  0  0
   10.2164   -1.1119   22.5066 H   0  0  0  0  0  0  0  0  0  0  0  0
    8.7597   -0.4991   21.2721 C   0  0  0  0  0  0  0  0  0  0  0  0
    9.5320    0.2747   20.7411 O   0  0  0  0  0  0  0  0  0  0  0  0
    5.4088    0.6529   20.1109 C   0  0  0  0  0  0  0  0  0  0  0  0
    4.9929    0.6478   21.1192 H   0  0  0  0  0  0  0  0  0  0  0  0
    4.7704    1.3274   19.0662 C   0  0  0  0  0  0  0  0  0  0  0  0
    3.8432    1.8750   19.2200 H   0  0  0  0  0  0  0  0  0  0  0  0
  1  2  1  0
  2  3  2  0
  3  4  1  0
  4  5  1  0
  4  6  2  0
  6  7  1  0
  7  8  2  0
  8  9  1  0
  8 10  1  0
 10 11  1  0
 11 12  2  0
 12 13  1  0
 13 14  2  0
 14 15  1  0
 14 16  1  0
 16 17  1  0
 16 18  2  0
 18 19  1  0
 18 20  1  0
 20 21  1  0
 20 22  2  0
 22 23  1  0
 23 24  1  0
 23 25  2  0
 25 26  1  0
 10 27  1  0
 27 28  2  0
 27 29  1  0
 29 30  1  0
 29 31  1  0
 31 32  2  0
  6 33  1  0
 33 34  1  0
 33 35  2  0
 35 36  1  0
 35  2  1  0
 31  7  1  0
 25 11  1  0
 22 13  1  0
M  END
>  <cnnaffinity>  (1) 
-5.58342

>  <filename>  (1) 
O=c1[nH]c(=O)n(-c2ccc3ccccc3n2)cc1-c1cccnc1

$$$$
