
     RDKit          3D

 38 40  0  0  0  0  0  0  0  0999 V2000
    4.9177    1.8003   16.9816 H   0  0  0  0  0  0  0  0  0  0  0  0
    5.3863    1.3016   17.8281 C   0  0  0  0  0  0  0  0  0  0  0  0
    6.5431    0.6730   17.5634 N   0  0  0  0  0  0  0  0  0  0  0  0
    7.1571    0.0522   18.5756 C   0  0  0  0  0  0  0  0  0  0  0  0
    8.1164   -0.4146   18.3614 H   0  0  0  0  0  0  0  0  0  0  0  0
    6.6446   -0.0012   19.8832 C   0  0  0  0  0  0  0  0  0  0  0  0
    7.3549   -0.6802   20.9326 N   0  0  0  0  0  0  0  0  0  0  0  0
    6.7254   -1.7214   21.5863 C   0  0  0  0  0  0  0  0  0  0  0  0
    5.7218   -1.9326   21.2305 H   0  0  0  0  0  0  0  0  0  0  0  0
    7.3227   -2.4387   22.5837 C   0  0  0  0  0  0  0  0  0  0  0  0
    6.6152   -3.6087   23.2405 C   0  0  0  0  0  0  0  0  0  0  0  0
    6.9833   -3.7410   24.2660 H   0  0  0  0  0  0  0  0  0  0  0  0
    5.5328   -3.4257   23.3279 H   0  0  0  0  0  0  0  0  0  0  0  0
    6.8371   -4.9240   22.4705 C   0  0  0  0  0  0  0  0  0  0  0  0
    6.5678   -4.8179   21.4089 H   0  0  0  0  0  0  0  0  0  0  0  0
    7.8969   -5.1875   22.5091 H   0  0  0  0  0  0  0  0  0  0  0  0
    6.1772   -6.0435   23.0522 O   0  0  0  0  0  0  0  0  0  0  0  0
    4.8282   -6.2107   22.9300 C   0  0  0  0  0  0  0  0  0  0  0  0
    4.2952   -7.2853   23.6595 C   0  0  0  0  0  0  0  0  0  0  0  0
    4.9836   -7.8658   24.2626 H   0  0  0  0  0  0  0  0  0  0  0  0
    2.9343   -7.5719   23.5923 C   0  0  0  0  0  0  0  0  0  0  0  0
    2.5300   -8.4033   24.1612 H   0  0  0  0  0  0  0  0  0  0  0  0
    2.0848   -6.7916   22.7994 C   0  0  0  0  0  0  0  0  0  0  0  0
    1.0226   -7.0139   22.7410 H   0  0  0  0  0  0  0  0  0  0  0  0
    2.6121   -5.7177   22.0869 C   0  0  0  0  0  0  0  0  0  0  0  0
    1.9342   -5.1213   21.4854 H   0  0  0  0  0  0  0  0  0  0  0  0
    3.9832   -5.4194   22.1449 C   0  0  0  0  0  0  0  0  0  0  0  0
    4.4080   -4.5889   21.5955 H   0  0  0  0  0  0  0  0  0  0  0  0
    8.6638   -2.0812   22.9517 C   0  0  0  0  0  0  0  0  0  0  0  0
    9.1626   -2.6531   23.7393 H   0  0  0  0  0  0  0  0  0  0  0  0
    9.3044   -1.0494   22.3371 C   0  0  0  0  0  0  0  0  0  0  0  0
   10.3103   -0.7261   22.5703 H   0  0  0  0  0  0  0  0  0  0  0  0
    8.6851   -0.2660   21.2794 C   0  0  0  0  0  0  0  0  0  0  0  0
    9.2403    0.6619   20.7110 O   0  0  0  0  0  0  0  0  0  0  0  0
    5.4305    0.6402   20.1468 C   0  0  0  0  0  0  0  0  0  0  0  0
    5.0335    0.6227   21.1640 H   0  0  0  0  0  0  0  0  0  0  0  0
    4.7985    1.3181   19.0977 C   0  0  0  0  0  0  0  0  0  0  0  0
    3.8694    1.8518   19.2489 H   0  0  0  0  0  0  0  0  0  0  0  0
  1  2  1  0
  2  3  2  0
  3  4  1  0
  4  5  1  0
  4  6  2  0
  6  7  1  0
  7  8  1  0
  8  9  1  0
  8 10  2  0
 10 11  1  0
 11 12  1  0
 11 13  1  0
 11 14  1  0
 14 15  1  0
 14 16  1  0
 14 17  1  0
 17 18  1  0
 18 19  2  0
 19 20  1  0
 19 21  1  0
 21 22  1  0
 21 23  2  0
 23 24  1  0
 23 25  1  0
 25 26  1  0
 25 27  2  0
 27 28  1  0
 10 29  1  0
 29 30  1  0
 29 31  2  0
 31 32  1  0
 31 33  1  0
 33 34  2  0
  6 35  1  0
 35 36  1  0
 35 37  2  0
 37 38  1  0
 37  2  1  0
 33  7  1  0
 27 18  1  0
M  END
>  <cnnaffinity>  (1) 
-5.56577

>  <filename>  (1) 
O=c1ccc(CCOc2ccccc2)cn1-c1cccnc1

$$$$
