
     RDKit          3D

 34 36  0  0  0  0  0  0  0  0999 V2000
   10.4753   -0.8244   22.5183 H   0  0  0  0  0  0  0  0  0  0  0  0
    9.4439   -1.0561   22.2872 C   0  0  0  0  0  0  0  0  0  0  0  0
    8.8215   -2.0600   22.9182 C   0  0  0  0  0  0  0  0  0  0  0  0
    9.4457   -2.9303   23.7766 N   0  0  0  0  0  0  0  0  0  0  0  0
   10.4472   -2.8803   23.6875 H   0  0  0  0  0  0  0  0  0  0  0  0
    8.9852   -3.4935   24.9849 C   0  0  0  0  0  0  0  0  0  0  0  0
    9.6343   -4.6354   25.4818 C   0  0  0  0  0  0  0  0  0  0  0  0
   10.4994   -5.0311   24.9544 H   0  0  0  0  0  0  0  0  0  0  0  0
    9.1521   -5.2850   26.6223 C   0  0  0  0  0  0  0  0  0  0  0  0
    9.6117   -6.2005   26.9718 H   0  0  0  0  0  0  0  0  0  0  0  0
    8.0458   -4.7659   27.3014 C   0  0  0  0  0  0  0  0  0  0  0  0
    7.4208   -5.5892   28.7004 Cl  0  0  0  0  0  0  0  0  0  0  0  0
    7.4335   -3.5891   26.8643 C   0  0  0  0  0  0  0  0  0  0  0  0
    6.5752   -3.1952   27.4040 H   0  0  0  0  0  0  0  0  0  0  0  0
    7.9134   -2.9503   25.7143 C   0  0  0  0  0  0  0  0  0  0  0  0
    7.4782   -2.0182   25.3671 H   0  0  0  0  0  0  0  0  0  0  0  0
    7.5011   -2.3176   22.6780 N   0  0  0  0  0  0  0  0  0  0  0  0
    7.0497   -3.1281   23.0527 H   0  0  0  0  0  0  0  0  0  0  0  0
    6.7579   -1.7621   21.6677 C   0  0  0  0  0  0  0  0  0  0  0  0
    5.6619   -2.2319   21.4437 O   0  0  0  0  0  0  0  0  0  0  0  0
    7.3638   -0.7156   20.9755 N   0  0  0  0  0  0  0  0  0  0  0  0
    6.6652   -0.0277   19.9189 C   0  0  0  0  0  0  0  0  0  0  0  0
    7.1853    0.0471   18.6049 C   0  0  0  0  0  0  0  0  0  0  0  0
    8.1364   -0.4346   18.3718 H   0  0  0  0  0  0  0  0  0  0  0  0
    6.5750    0.6708   17.5900 N   0  0  0  0  0  0  0  0  0  0  0  0
    5.4108    1.2873   17.8512 C   0  0  0  0  0  0  0  0  0  0  0  0
    4.9377    1.7825   17.0072 H   0  0  0  0  0  0  0  0  0  0  0  0
    4.8203    1.2987   19.1176 C   0  0  0  0  0  0  0  0  0  0  0  0
    3.8899    1.8333   19.2632 H   0  0  0  0  0  0  0  0  0  0  0  0
    5.4492    0.6232   20.1716 C   0  0  0  0  0  0  0  0  0  0  0  0
    5.0256    0.5945   21.1734 H   0  0  0  0  0  0  0  0  0  0  0  0
    8.6574   -0.1327   21.4107 C   0  0  0  0  0  0  0  0  0  0  0  0
    9.2490    0.1146   20.5084 H   0  0  0  0  0  0  0  0  0  0  0  0
    8.4680    0.8386   21.9199 H   0  0  0  0  0  0  0  0  0  0  0  0
  1  2  1  0
  2  3  2  0
  3  4  1  0
  4  5  1  0
  4  6  1  0
  6  7  2  0
  7  8  1  0
  7  9  1  0
  9 10  1  0
  9 11  2  0
 11 12  1  0
 11 13  1  0
 13 14  1  0
 13 15  2  0
 15 16  1  0
  3 17  1  0
 17 18  1  0
 17 19  1  0
 19 20  2  0
 19 21  1  0
 21 22  1  0
 22 23  2  0
 23 24  1  0
 23 25  1  0
 25 26  2  0
 26 27  1  0
 26 28  1  0
 28 29  1  0
 28 30  2  0
 30 31  1  0
 21 32  1  0
 32 33  1  0
 32 34  1  0
 32  2  1  0
 15  6  1  0
 30 22  1  0
M  END
>  <cnnaffinity>  (1) 
-4.76713

>  <filename>  (1) 
O=C1NC(Nc2ccc(Cl)cc2)=CCN1c1cccnc1

$$$$
