
     RDKit          3D

 41 44  0  0  0  0  0  0  0  0999 V2000
    5.0041    1.9328   16.9219 H   0  0  0  0  0  0  0  0  0  0  0  0
    5.4508    1.3715   17.7403 C   0  0  0  0  0  0  0  0  0  0  0  0
    6.6214    0.7716   17.4681 N   0  0  0  0  0  0  0  0  0  0  0  0
    7.2069    0.1017   18.4689 C   0  0  0  0  0  0  0  0  0  0  0  0
    8.1602   -0.3687   18.2285 H   0  0  0  0  0  0  0  0  0  0  0  0
    6.6602   -0.0441   19.7677 C   0  0  0  0  0  0  0  0  0  0  0  0
    7.3869   -0.7607   20.8554 C   0  0  0  0  0  0  0  0  0  0  0  0
    8.6714   -0.4445   21.1464 C   0  0  0  0  0  0  0  0  0  0  0  0
    9.2165    0.3354   20.6130 H   0  0  0  0  0  0  0  0  0  0  0  0
    9.3884   -1.0854   22.1486 N   0  0  0  0  0  0  0  0  0  0  0  0
   10.7748   -0.7516   22.3554 C   0  0  0  0  0  0  0  0  0  0  0  0
   11.7782   -1.6878   22.1061 C   0  0  0  0  0  0  0  0  0  0  0  0
   11.4959   -2.7029   21.8631 H   0  0  0  0  0  0  0  0  0  0  0  0
   13.1176   -1.3009   22.2309 C   0  0  0  0  0  0  0  0  0  0  0  0
   13.9087   -2.0151   22.0132 H   0  0  0  0  0  0  0  0  0  0  0  0
   13.4468   -0.0054   22.6454 C   0  0  0  0  0  0  0  0  0  0  0  0
   14.4951    0.2676   22.7472 H   0  0  0  0  0  0  0  0  0  0  0  0
   12.4384    0.9361   22.9379 C   0  0  0  0  0  0  0  0  0  0  0  0
   12.7230    2.3598   23.3116 C   0  0  0  0  0  0  0  0  0  0  0  0
   13.8608    3.0244   22.8222 C   0  0  0  0  0  0  0  0  0  0  0  0
   14.6805    2.4433   22.4044 H   0  0  0  0  0  0  0  0  0  0  0  0
   13.9631    4.4158   22.8930 C   0  0  0  0  0  0  0  0  0  0  0  0
   14.8212    4.9176   22.4563 H   0  0  0  0  0  0  0  0  0  0  0  0
   12.9717    5.1625   23.5370 C   0  0  0  0  0  0  0  0  0  0  0  0
   13.0366    6.2498   23.5549 H   0  0  0  0  0  0  0  0  0  0  0  0
   11.9102    4.5012   24.1652 C   0  0  0  0  0  0  0  0  0  0  0  0
   11.1486    5.0737   24.6876 H   0  0  0  0  0  0  0  0  0  0  0  0
   11.8008    3.1086   24.0801 C   0  0  0  0  0  0  0  0  0  0  0  0
   10.9882    2.5936   24.5973 H   0  0  0  0  0  0  0  0  0  0  0  0
   11.1009    0.5340   22.7665 C   0  0  0  0  0  0  0  0  0  0  0  0
   10.2898    1.2392   22.9100 H   0  0  0  0  0  0  0  0  0  0  0  0
    8.7887   -2.0458   22.9716 C   0  0  0  0  0  0  0  0  0  0  0  0
    9.3570   -2.7308   23.7893 O   0  0  0  0  0  0  0  0  0  0  0  0
    7.4428   -2.1700   22.8009 N   0  0  0  0  0  0  0  0  0  0  0  0
    7.0745   -2.9589   23.2931 H   0  0  0  0  0  0  0  0  0  0  0  0
    6.7400   -1.8382   21.6599 C   0  0  0  0  0  0  0  0  0  0  0  0
    5.7194   -2.4512   21.4254 O   0  0  0  0  0  0  0  0  0  0  0  0
    5.4197    0.5672   20.0105 C   0  0  0  0  0  0  0  0  0  0  0  0
    4.9669    0.4740   20.9996 H   0  0  0  0  0  0  0  0  0  0  0  0
    4.8145    1.2998   18.9842 C   0  0  0  0  0  0  0  0  0  0  0  0
    3.8765    1.8227   19.1374 H   0  0  0  0  0  0  0  0  0  0  0  0
  1  2  1  0
  2  3  2  0
  3  4  1  0
  4  5  1  0
  4  6  2  0
  6  7  1  0
  7  8  2  0
  8  9  1  0
  8 10  1  0
 10 11  1  0
 11 12  2  0
 12 13  1  0
 12 14  1  0
 14 15  1  0
 14 16  2  0
 16 17  1  0
 16 18  1  0
 18 19  1  0
 19 20  2  0
 20 21  1  0
 20 22  1  0
 22 23  1  0
 22 24  2  0
 24 25  1  0
 24 26  1  0
 26 27  1  0
 26 28  2  0
 28 29  1  0
 18 30  2  0
 30 31  1  0
 10 32  1  0
 32 33  2  0
 32 34  1  0
 34 35  1  0
 34 36  1  0
 36 37  2  0
  6 38  1  0
 38 39  1  0
 38 40  2  0
 40 41  1  0
 40  2  1  0
 36  7  1  0
 30 11  1  0
 28 19  1  0
M  END
>  <cnnaffinity>  (1) 
-6.31046

>  <filename>  (1) 
O=c1[nH]c(=O)n(-c2cccc(-c3ccccc3)c2)cc1-c1cccnc1

$$$$
