
     RDKit          3D

 31 33  0  0  0  0  0  0  0  0999 V2000
    4.9527    1.8575   16.9544 H   0  0  0  0  0  0  0  0  0  0  0  0
    5.4151    1.3356   17.7899 C   0  0  0  0  0  0  0  0  0  0  0  0
    6.5782    0.7154   17.5306 N   0  0  0  0  0  0  0  0  0  0  0  0
    7.1722    0.0695   18.5414 C   0  0  0  0  0  0  0  0  0  0  0  0
    8.1177   -0.4217   18.3145 H   0  0  0  0  0  0  0  0  0  0  0  0
    6.6287   -0.0210   19.8386 C   0  0  0  0  0  0  0  0  0  0  0  0
    7.3128   -0.7199   20.8978 N   0  0  0  0  0  0  0  0  0  0  0  0
    8.5664   -0.2663   21.2392 C   0  0  0  0  0  0  0  0  0  0  0  0
    8.9331    0.5842   20.6737 H   0  0  0  0  0  0  0  0  0  0  0  0
    9.3300   -0.8423   22.2094 C   0  0  0  0  0  0  0  0  0  0  0  0
   10.7117   -0.3428   22.4397 C   0  0  0  0  0  0  0  0  0  0  0  0
   11.8072   -1.2257   22.4153 C   0  0  0  0  0  0  0  0  0  0  0  0
   11.6277   -2.2787   22.2001 H   0  0  0  0  0  0  0  0  0  0  0  0
   13.0991   -0.7496   22.6610 C   0  0  0  0  0  0  0  0  0  0  0  0
   13.9697   -1.3966   22.7050 H   0  0  0  0  0  0  0  0  0  0  0  0
   13.2979    0.5991   22.9228 C   0  0  0  0  0  0  0  0  0  0  0  0
   14.5478    1.0443   23.1015 F   0  0  0  0  0  0  0  0  0  0  0  0
   12.2165    1.4872   22.9657 C   0  0  0  0  0  0  0  0  0  0  0  0
   12.4330    2.7787   23.2392 F   0  0  0  0  0  0  0  0  0  0  0  0
   10.9305    1.0224   22.7104 C   0  0  0  0  0  0  0  0  0  0  0  0
   10.1183    1.7452   22.7053 H   0  0  0  0  0  0  0  0  0  0  0  0
    8.7647   -1.9288   22.9527 C   0  0  0  0  0  0  0  0  0  0  0  0
    9.3450   -2.3897   23.7547 H   0  0  0  0  0  0  0  0  0  0  0  0
    7.5116   -2.3786   22.6694 C   0  0  0  0  0  0  0  0  0  0  0  0
    7.0338   -3.2016   23.1831 H   0  0  0  0  0  0  0  0  0  0  0  0
    6.6952   -1.8185   21.5984 C   0  0  0  0  0  0  0  0  0  0  0  0
    5.6008   -2.2559   21.2867 O   0  0  0  0  0  0  0  0  0  0  0  0
    5.4248    0.6373   20.0986 C   0  0  0  0  0  0  0  0  0  0  0  0
    5.0062    0.6022   21.1034 H   0  0  0  0  0  0  0  0  0  0  0  0
    4.8080    1.3270   19.0501 C   0  0  0  0  0  0  0  0  0  0  0  0
    3.8790    1.8640   19.2020 H   0  0  0  0  0  0  0  0  0  0  0  0
  1  2  1  0
  2  3  2  0
  3  4  1  0
  4  5  1  0
  4  6  2  0
  6  7  1  0
  7  8  1  0
  8  9  1  0
  8 10  2  0
 10 11  1  0
 11 12  2  0
 12 13  1  0
 12 14  1  0
 14 15  1  0
 14 16  2  0
 16 17  1  0
 16 18  1  0
 18 19  1  0
 18 20  2  0
 20 21  1  0
 10 22  1  0
 22 23  1  0
 22 24  2  0
 24 25  1  0
 24 26  1  0
 26 27  2  0
  6 28  1  0
 28 29  1  0
 28 30  2  0
 30 31  1  0
 30  2  1  0
 26  7  1  0
 20 11  1  0
M  END
>  <cnnaffinity>  (1) 
-5.15121

>  <filename>  (1) 
O=c1ccc(-c2ccc(F)c(F)c2)cn1-c1cccnc1

$$$$
