
     RDKit          3D

 40 42  0  0  0  0  0  0  0  0999 V2000
   11.8936    3.5720   23.3856 H   0  0  0  0  0  0  0  0  0  0  0  0
   12.5945    3.3659   22.7533 O   0  0  0  0  0  0  0  0  0  0  0  0
   13.3813    2.3170   23.2827 C   0  0  0  0  0  0  0  0  0  0  0  0
   13.8730    2.6281   24.1962 H   0  0  0  0  0  0  0  0  0  0  0  0
   14.1863    2.1654   22.5548 H   0  0  0  0  0  0  0  0  0  0  0  0
   12.6028    1.0139   23.5152 C   0  0  0  0  0  0  0  0  0  0  0  0
   13.2492    0.3743   24.1336 H   0  0  0  0  0  0  0  0  0  0  0  0
   11.2758    1.2188   24.2889 C   0  0  0  0  0  0  0  0  0  0  0  0
   10.7032    2.0441   23.8390 H   0  0  0  0  0  0  0  0  0  0  0  0
   11.4666    1.4933   25.3356 H   0  0  0  0  0  0  0  0  0  0  0  0
   10.3657   -0.0151   24.2042 C   0  0  0  0  0  0  0  0  0  0  0  0
    9.4149    0.1760   24.7169 H   0  0  0  0  0  0  0  0  0  0  0  0
   10.8360   -0.8872   24.7042 H   0  0  0  0  0  0  0  0  0  0  0  0
   10.1311   -0.2719   22.7777 N   0  0  0  0  0  0  0  0  0  0  0  0
    8.9227   -0.8717   22.3387 C   0  0  0  0  0  0  0  0  0  0  0  0
    8.3489   -2.0011   22.9950 C   0  0  0  0  0  0  0  0  0  0  0  0
    8.8595   -2.3867   23.8770 H   0  0  0  0  0  0  0  0  0  0  0  0
    7.2190   -2.5863   22.5069 C   0  0  0  0  0  0  0  0  0  0  0  0
    6.7712   -3.4598   22.9506 H   0  0  0  0  0  0  0  0  0  0  0  0
    6.5264   -2.0991   21.3189 C   0  0  0  0  0  0  0  0  0  0  0  0
    5.5385   -2.6463   20.8603 O   0  0  0  0  0  0  0  0  0  0  0  0
    7.1296   -0.9365   20.7163 N   0  0  0  0  0  0  0  0  0  0  0  0
    6.4747   -0.2196   19.6453 C   0  0  0  0  0  0  0  0  0  0  0  0
    7.0875   -0.0677   18.3853 C   0  0  0  0  0  0  0  0  0  0  0  0
    7.9997   -0.6184   18.1667 H   0  0  0  0  0  0  0  0  0  0  0  0
    6.6107    0.7177   17.4106 N   0  0  0  0  0  0  0  0  0  0  0  0
    5.4832    1.4019   17.6673 C   0  0  0  0  0  0  0  0  0  0  0  0
    5.1331    2.0675   16.8808 H   0  0  0  0  0  0  0  0  0  0  0  0
    4.7763    1.2913   18.8701 C   0  0  0  0  0  0  0  0  0  0  0  0
    3.8715    1.8705   19.0153 H   0  0  0  0  0  0  0  0  0  0  0  0
    5.2676    0.4493   19.8749 C   0  0  0  0  0  0  0  0  0  0  0  0
    4.7440    0.3113   20.8195 H   0  0  0  0  0  0  0  0  0  0  0  0
    8.3072   -0.3933   21.2146 C   0  0  0  0  0  0  0  0  0  0  0  0
    8.7403    0.4341   20.6663 H   0  0  0  0  0  0  0  0  0  0  0  0
   11.3529   -0.7668   22.1396 C   0  0  0  0  0  0  0  0  0  0  0  0
   11.1346   -1.0538   21.1058 H   0  0  0  0  0  0  0  0  0  0  0  0
   11.7310   -1.6763   22.6423 H   0  0  0  0  0  0  0  0  0  0  0  0
   12.4084    0.3282   22.1495 C   0  0  0  0  0  0  0  0  0  0  0  0
   13.3806   -0.0838   21.8443 H   0  0  0  0  0  0  0  0  0  0  0  0
   12.1098    1.0889   21.4152 H   0  0  0  0  0  0  0  0  0  0  0  0
  1  2  1  0
  2  3  1  0
  3  4  1  0
  3  5  1  0
  3  6  1  0
  6  7  1  0
  6  8  1  0
  8  9  1  0
  8 10  1  0
  8 11  1  0
 11 12  1  0
 11 13  1  0
 11 14  1  0
 14 15  1  0
 15 16  1  0
 16 17  1  0
 16 18  2  0
 18 19  1  0
 18 20  1  0
 20 21  2  0
 20 22  1  0
 22 23  1  0
 23 24  2  0
 24 25  1  0
 24 26  1  0
 26 27  2  0
 27 28  1  0
 27 29  1  0
 29 30  1  0
 29 31  2  0
 31 32  1  0
 22 33  1  0
 33 34  1  0
 14 35  1  0
 35 36  1  0
 35 37  1  0
 35 38  1  0
 38 39  1  0
 38 40  1  0
 38  6  1  0
 33 15  2  0
 31 23  1  0
M  END
>  <cnnaffinity>  (1) 
-5.3993

>  <filename>  (1) 
O=c1ccc(N2CCC(CO)CC2)cn1-c1cccnc1

$$$$
