
     RDKit          3D

 34 37  0  0  0  0  0  0  0  0999 V2000
    4.8786    1.7850   16.9323 H   0  0  0  0  0  0  0  0  0  0  0  0
    5.3500    1.3532   17.8119 C   0  0  0  0  0  0  0  0  0  0  0  0
    6.5338    0.7514   17.6204 N   0  0  0  0  0  0  0  0  0  0  0  0
    7.1124    0.1960   18.6866 C   0  0  0  0  0  0  0  0  0  0  0  0
    8.0728   -0.2783   18.4990 H   0  0  0  0  0  0  0  0  0  0  0  0
    6.5781    0.2135   19.9867 C   0  0  0  0  0  0  0  0  0  0  0  0
    7.3378   -0.4683   21.0588 C   0  0  0  0  0  0  0  0  0  0  0  0
    7.0327   -0.0657   22.3350 O   0  0  0  0  0  0  0  0  0  0  0  0
    7.6497   -0.6643   23.4084 C   0  0  0  0  0  0  0  0  0  0  0  0
    7.3840   -0.0530   24.7239 C   0  0  0  0  0  0  0  0  0  0  0  0
    7.3760   -0.8474   25.8780 C   0  0  0  0  0  0  0  0  0  0  0  0
    7.5201   -1.9210   25.7979 H   0  0  0  0  0  0  0  0  0  0  0  0
    7.1713   -0.2842   27.1511 C   0  0  0  0  0  0  0  0  0  0  0  0
    7.1685   -0.9374   28.0187 H   0  0  0  0  0  0  0  0  0  0  0  0
    6.9866    1.0874   27.3107 C   0  0  0  0  0  0  0  0  0  0  0  0
    6.8320    1.5235   28.2941 H   0  0  0  0  0  0  0  0  0  0  0  0
    7.0107    1.8847   26.1559 C   0  0  0  0  0  0  0  0  0  0  0  0
    7.2123    1.3453   24.8614 C   0  0  0  0  0  0  0  0  0  0  0  0
    7.2372    2.4498   23.9484 C   0  0  0  0  0  0  0  0  0  0  0  0
    7.4080    2.3601   22.8846 H   0  0  0  0  0  0  0  0  0  0  0  0
    7.0341    3.5846   24.6769 C   0  0  0  0  0  0  0  0  0  0  0  0
    6.9803    4.6143   24.3431 H   0  0  0  0  0  0  0  0  0  0  0  0
    6.8943    3.2473   26.0104 N   0  0  0  0  0  0  0  0  0  0  0  0
    6.7060    3.8750   26.7750 H   0  0  0  0  0  0  0  0  0  0  0  0
    8.4499   -1.7353   23.2445 C   0  0  0  0  0  0  0  0  0  0  0  0
    8.9541   -2.2228   24.0620 H   0  0  0  0  0  0  0  0  0  0  0  0
    8.6708   -2.2846   21.9238 C   0  0  0  0  0  0  0  0  0  0  0  0
    9.1591   -3.3825   21.7371 O   0  0  0  0  0  0  0  0  0  0  0  0
    8.2273   -1.4481   20.8304 C   0  0  0  0  0  0  0  0  0  0  0  0
    8.6054   -1.7271   19.8635 H   0  0  0  0  0  0  0  0  0  0  0  0
    5.3385    0.8534   20.1709 C   0  0  0  0  0  0  0  0  0  0  0  0
    4.8908    0.9102   21.1643 H   0  0  0  0  0  0  0  0  0  0  0  0
    4.7158    1.4167   19.0572 C   0  0  0  0  0  0  0  0  0  0  0  0
    3.7530    1.9083   19.1407 H   0  0  0  0  0  0  0  0  0  0  0  0
  1  2  1  0
  2  3  2  0
  3  4  1  0
  4  5  1  0
  4  6  2  0
  6  7  1  0
  7  8  1  0
  8  9  1  0
  9 10  1  0
 10 11  2  0
 11 12  1  0
 11 13  1  0
 13 14  1  0
 13 15  2  0
 15 16  1  0
 15 17  1  0
 17 18  2  0
 18 19  1  0
 19 20  1  0
 19 21  2  0
 21 22  1  0
 21 23  1  0
 23 24  1  0
  9 25  2  0
 25 26  1  0
 25 27  1  0
 27 28  2  0
 27 29  1  0
 29 30  1  0
  6 31  1  0
 31 32  1  0
 31 33  2  0
 33 34  1  0
 33  2  1  0
 29  7  2  0
 18 10  1  0
 23 17  1  0
M  END
>  <cnnaffinity>  (1) 
-5.41021

>  <filename>  (1) 
O=c1cc(-c2cccnc2)oc(-c2cccc3[nH]ccc23)c1

$$$$
