
     RDKit          3D

 31 33  0  0  0  0  0  0  0  0999 V2000
    4.9272    1.8295   16.9523 H   0  0  0  0  0  0  0  0  0  0  0  0
    5.3881    1.3156   17.7928 C   0  0  0  0  0  0  0  0  0  0  0  0
    6.5454    0.6838   17.5403 N   0  0  0  0  0  0  0  0  0  0  0  0
    7.1429    0.0661   18.5696 C   0  0  0  0  0  0  0  0  0  0  0  0
    8.0875   -0.4269   18.3403 H   0  0  0  0  0  0  0  0  0  0  0  0
    6.6219    0.0061   19.8799 C   0  0  0  0  0  0  0  0  0  0  0  0
    7.3414   -0.7193   20.9752 C   0  0  0  0  0  0  0  0  0  0  0  0
    8.7509   -0.5540   21.1547 C   0  0  0  0  0  0  0  0  0  0  0  0
    9.3033    0.1035   20.4824 H   0  0  0  0  0  0  0  0  0  0  0  0
    9.4424   -1.1819   22.1700 C   0  0  0  0  0  0  0  0  0  0  0  0
   10.8984   -0.9983   22.3348 C   0  0  0  0  0  0  0  0  0  0  0  0
   11.7288   -2.1203   22.1843 C   0  0  0  0  0  0  0  0  0  0  0  0
   11.2557   -3.0932   22.1386 H   0  0  0  0  0  0  0  0  0  0  0  0
   13.1130   -1.9913   22.1283 C   0  0  0  0  0  0  0  0  0  0  0  0
   13.7504   -2.8493   21.9359 H   0  0  0  0  0  0  0  0  0  0  0  0
   13.7013   -0.7639   22.4198 C   0  0  0  0  0  0  0  0  0  0  0  0
   14.7735   -0.6737   22.5238 H   0  0  0  0  0  0  0  0  0  0  0  0
   12.9057    0.3583   22.6570 C   0  0  0  0  0  0  0  0  0  0  0  0
   13.7021    1.8322   23.0998 Cl  0  0  0  0  0  0  0  0  0  0  0  0
   11.5067    0.2581   22.5725 C   0  0  0  0  0  0  0  0  0  0  0  0
   10.5334    1.6647   22.8374 Cl  0  0  0  0  0  0  0  0  0  0  0  0
    8.7356   -2.1142   23.0612 C   0  0  0  0  0  0  0  0  0  0  0  0
    9.1612   -2.8026   23.9719 O   0  0  0  0  0  0  0  0  0  0  0  0
    7.3623   -2.2032   22.8173 N   0  0  0  0  0  0  0  0  0  0  0  0
    6.9691   -2.7869   23.5421 H   0  0  0  0  0  0  0  0  0  0  0  0
    6.6676   -1.5454   21.8414 C   0  0  0  0  0  0  0  0  0  0  0  0
    5.5914   -1.7147   21.7718 H   0  0  0  0  0  0  0  0  0  0  0  0
    5.4039    0.6709   20.1082 C   0  0  0  0  0  0  0  0  0  0  0  0
    4.9739    0.6926   21.1095 H   0  0  0  0  0  0  0  0  0  0  0  0
    4.7790    1.3375   19.0516 C   0  0  0  0  0  0  0  0  0  0  0  0
    3.8467    1.8747   19.1963 H   0  0  0  0  0  0  0  0  0  0  0  0
  1  2  1  0
  2  3  2  0
  3  4  1  0
  4  5  1  0
  4  6  2  0
  6  7  1  0
  7  8  1  0
  8  9  1  0
  8 10  2  0
 10 11  1  0
 11 12  2  0
 12 13  1  0
 12 14  1  0
 14 15  1  0
 14 16  2  0
 16 17  1  0
 16 18  1  0
 18 19  1  0
 18 20  2  0
 20 21  1  0
 10 22  1  0
 22 23  2  0
 22 24  1  0
 24 25  1  0
 24 26  1  0
 26 27  1  0
  6 28  1  0
 28 29  1  0
 28 30  2  0
 30 31  1  0
 30  2  1  0
 26  7  2  0
 20 11  1  0
M  END
>  <cnnaffinity>  (1) 
-5.76666

>  <filename>  (1) 
O=c1[nH]cc(-c2cccnc2)cc1-c1cccc(Cl)c1Cl

$$$$
