
     RDKit          3D

 33 35  0  0  0  0  0  0  0  0999 V2000
    4.9690    1.8286   16.9322 H   0  0  0  0  0  0  0  0  0  0  0  0
    5.4116    1.3206   17.7852 C   0  0  0  0  0  0  0  0  0  0  0  0
    6.5679    0.6797   17.5543 N   0  0  0  0  0  0  0  0  0  0  0  0
    7.1328    0.0479   18.5904 C   0  0  0  0  0  0  0  0  0  0  0  0
    8.0764   -0.4588   18.3840 H   0  0  0  0  0  0  0  0  0  0  0  0
    6.5788   -0.0154   19.8830 C   0  0  0  0  0  0  0  0  0  0  0  0
    7.2696   -0.7766   20.9592 C   0  0  0  0  0  0  0  0  0  0  0  0
    8.6877   -0.6807   21.1092 C   0  0  0  0  0  0  0  0  0  0  0  0
    9.2632   -0.0340   20.4516 H   0  0  0  0  0  0  0  0  0  0  0  0
    9.3755   -1.3371   22.1026 C   0  0  0  0  0  0  0  0  0  0  0  0
   10.7698   -1.1853   22.1912 N   0  0  0  0  0  0  0  0  0  0  0  0
   11.2821   -1.9332   22.6416 H   0  0  0  0  0  0  0  0  0  0  0  0
   11.4570    0.0381   22.2280 C   0  0  0  0  0  0  0  0  0  0  0  0
   12.8583   -0.0179   22.2583 C   0  0  0  0  0  0  0  0  0  0  0  0
   13.3428   -0.9883   22.1477 H   0  0  0  0  0  0  0  0  0  0  0  0
   13.6134    1.1470   22.4014 C   0  0  0  0  0  0  0  0  0  0  0  0
   14.7003    1.1097   22.4485 H   0  0  0  0  0  0  0  0  0  0  0  0
   12.9728    2.3928   22.4590 C   0  0  0  0  0  0  0  0  0  0  0  0
   13.9505    3.8287   22.6554 Cl  0  0  0  0  0  0  0  0  0  0  0  0
   11.5778    2.4729   22.3797 C   0  0  0  0  0  0  0  0  0  0  0  0
   11.0796    3.4399   22.4097 H   0  0  0  0  0  0  0  0  0  0  0  0
   10.8286    1.2914   22.3058 C   0  0  0  0  0  0  0  0  0  0  0  0
    9.7469    1.3211   22.3516 H   0  0  0  0  0  0  0  0  0  0  0  0
    8.6301   -2.2311   23.0463 C   0  0  0  0  0  0  0  0  0  0  0  0
    9.0493   -2.9269   23.9596 O   0  0  0  0  0  0  0  0  0  0  0  0
    7.2546   -2.2565   22.8175 N   0  0  0  0  0  0  0  0  0  0  0  0
    6.8209   -2.8341   23.5265 H   0  0  0  0  0  0  0  0  0  0  0  0
    6.5844   -1.5735   21.8323 C   0  0  0  0  0  0  0  0  0  0  0  0
    5.5111   -1.7172   21.7683 H   0  0  0  0  0  0  0  0  0  0  0  0
    5.3727    0.6693   20.1008 C   0  0  0  0  0  0  0  0  0  0  0  0
    4.9264    0.6942   21.0952 H   0  0  0  0  0  0  0  0  0  0  0  0
    4.7841    1.3473   19.0342 C   0  0  0  0  0  0  0  0  0  0  0  0
    3.8593    1.8946   19.1589 H   0  0  0  0  0  0  0  0  0  0  0  0
  1  2  1  0
  2  3  2  0
  3  4  1  0
  4  5  1  0
  4  6  2  0
  6  7  1  0
  7  8  1  0
  8  9  1  0
  8 10  2  0
 10 11  1  0
 11 12  1  0
 11 13  1  0
 13 14  2  0
 14 15  1  0
 14 16  1  0
 16 17  1  0
 16 18  2  0
 18 19  1  0
 18 20  1  0
 20 21  1  0
 20 22  2  0
 22 23  1  0
 10 24  1  0
 24 25  2  0
 24 26  1  0
 26 27  1  0
 26 28  1  0
 28 29  1  0
  6 30  1  0
 30 31  1  0
 30 32  2  0
 32 33  1  0
 32  2  1  0
 28  7  2  0
 22 13  1  0
M  END
>  <cnnaffinity>  (1) 
-5.08899

>  <filename>  (1) 
O=c1[nH]cc(-c2cccnc2)cc1Nc1ccc(Cl)cc1

$$$$
