
     RDKit          3D

 33 35  0  0  0  0  0  0  0  0999 V2000
    4.9036    1.8205   16.9608 H   0  0  0  0  0  0  0  0  0  0  0  0
    5.3858    1.3220   17.7993 C   0  0  0  0  0  0  0  0  0  0  0  0
    6.5506    0.7124   17.5251 N   0  0  0  0  0  0  0  0  0  0  0  0
    7.1782    0.1056   18.5389 C   0  0  0  0  0  0  0  0  0  0  0  0
    8.1156   -0.3906   18.2870 H   0  0  0  0  0  0  0  0  0  0  0  0
    6.6822    0.0365   19.8610 C   0  0  0  0  0  0  0  0  0  0  0  0
    7.4298   -0.6725   20.9385 C   0  0  0  0  0  0  0  0  0  0  0  0
    8.7353   -0.3938   21.1645 C   0  0  0  0  0  0  0  0  0  0  0  0
    9.2875    0.3320   20.5640 H   0  0  0  0  0  0  0  0  0  0  0  0
    9.4423   -1.0043   22.1941 N   0  0  0  0  0  0  0  0  0  0  0  0
   10.7975   -0.7346   22.4533 C   0  0  0  0  0  0  0  0  0  0  0  0
   11.6278   -1.6992   22.1002 N   0  0  0  0  0  0  0  0  0  0  0  0
   12.9405   -1.4583   22.1687 C   0  0  0  0  0  0  0  0  0  0  0  0
   13.5929   -2.2557   21.8145 H   0  0  0  0  0  0  0  0  0  0  0  0
   13.4678   -0.2660   22.6667 C   0  0  0  0  0  0  0  0  0  0  0  0
   14.5378   -0.1350   22.7284 H   0  0  0  0  0  0  0  0  0  0  0  0
   12.5948    0.7267   23.1023 C   0  0  0  0  0  0  0  0  0  0  0  0
   12.9573    1.6682   23.5166 H   0  0  0  0  0  0  0  0  0  0  0  0
   11.2218    0.4807   23.0048 C   0  0  0  0  0  0  0  0  0  0  0  0
   10.2179    1.5147   23.4159 C   0  0  0  0  0  0  0  0  0  0  0  0
    9.1380    0.9920   24.0135 F   0  0  0  0  0  0  0  0  0  0  0  0
    9.7878    2.2221   22.3492 F   0  0  0  0  0  0  0  0  0  0  0  0
   10.7451    2.4037   24.2777 F   0  0  0  0  0  0  0  0  0  0  0  0
    8.8989   -1.9905   23.0197 C   0  0  0  0  0  0  0  0  0  0  0  0
    9.4804   -2.5799   23.8944 O   0  0  0  0  0  0  0  0  0  0  0  0
    7.5931   -2.2326   22.7693 N   0  0  0  0  0  0  0  0  0  0  0  0
    7.1486   -2.9251   23.3385 H   0  0  0  0  0  0  0  0  0  0  0  0
    6.7938   -1.7259   21.7740 C   0  0  0  0  0  0  0  0  0  0  0  0
    5.6876   -2.2119   21.6613 O   0  0  0  0  0  0  0  0  0  0  0  0
    5.4514    0.6664   20.1114 C   0  0  0  0  0  0  0  0  0  0  0  0
    5.0255    0.6073   21.1139 H   0  0  0  0  0  0  0  0  0  0  0  0
    4.7976    1.3308   19.0683 C   0  0  0  0  0  0  0  0  0  0  0  0
    3.8555    1.8517   19.2196 H   0  0  0  0  0  0  0  0  0  0  0  0
  1  2  1  0
  2  3  2  0
  3  4  1  0
  4  5  1  0
  4  6  2  0
  6  7  1  0
  7  8  2  0
  8  9  1  0
  8 10  1  0
 10 11  1  0
 11 12  2  0
 12 13  1  0
 13 14  1  0
 13 15  2  0
 15 16  1  0
 15 17  1  0
 17 18  1  0
 17 19  2  0
 19 20  1  0
 20 21  1  0
 20 22  1  0
 20 23  1  0
 10 24  1  0
 24 25  2  0
 24 26  1  0
 26 27  1  0
 26 28  1  0
 28 29  2  0
  6 30  1  0
 30 31  1  0
 30 32  2  0
 32 33  1  0
 32  2  1  0
 28  7  1  0
 19 11  1  0
M  END
>  <cnnaffinity>  (1) 
-5.73773

>  <filename>  (1) 
O=c1[nH]c(=O)n(-c2ncccc2C(F)(F)F)cc1-c1cccnc1

$$$$
