
     RDKit          3D

 36 38  0  0  0  0  0  0  0  0999 V2000
   13.4407    0.1123   24.4812 H   0  0  0  0  0  0  0  0  0  0  0  0
   14.0827    0.4750   23.8580 O   0  0  0  0  0  0  0  0  0  0  0  0
   13.4536    0.5264   22.5886 C   0  0  0  0  0  0  0  0  0  0  0  0
   14.2420    0.8887   21.9320 H   0  0  0  0  0  0  0  0  0  0  0  0
   13.0368   -0.8796   22.1400 C   0  0  0  0  0  0  0  0  0  0  0  0
   13.0226   -0.9947   21.0519 H   0  0  0  0  0  0  0  0  0  0  0  0
   13.7774   -1.6020   22.4989 H   0  0  0  0  0  0  0  0  0  0  0  0
   11.6304   -1.1552   22.6515 C   0  0  0  0  0  0  0  0  0  0  0  0
   11.3791   -2.2092   22.5180 H   0  0  0  0  0  0  0  0  0  0  0  0
   11.5388   -0.9140   23.7204 H   0  0  0  0  0  0  0  0  0  0  0  0
   10.6772   -0.2862   21.9734 N   0  0  0  0  0  0  0  0  0  0  0  0
    9.3684   -0.7017   21.8486 C   0  0  0  0  0  0  0  0  0  0  0  0
    8.6369   -0.1922   20.8885 N   0  0  0  0  0  0  0  0  0  0  0  0
    7.3376   -0.6503   20.7503 N   0  0  0  0  0  0  0  0  0  0  0  0
    6.6256    0.0351   19.7309 C   0  0  0  0  0  0  0  0  0  0  0  0
    7.2457    0.2342   18.4829 C   0  0  0  0  0  0  0  0  0  0  0  0
    8.2490   -0.1577   18.3256 H   0  0  0  0  0  0  0  0  0  0  0  0
    6.6609    0.8750   17.4705 N   0  0  0  0  0  0  0  0  0  0  0  0
    5.4432    1.4022   17.6945 C   0  0  0  0  0  0  0  0  0  0  0  0
    4.9985    1.9271   16.8539 H   0  0  0  0  0  0  0  0  0  0  0  0
    4.7704    1.2926   18.9166 C   0  0  0  0  0  0  0  0  0  0  0  0
    3.8096    1.7769   19.0438 H   0  0  0  0  0  0  0  0  0  0  0  0
    5.3600    0.5774   19.9627 C   0  0  0  0  0  0  0  0  0  0  0  0
    4.8757    0.4465   20.9309 H   0  0  0  0  0  0  0  0  0  0  0  0
    6.7031   -1.7040   21.5069 C   0  0  0  0  0  0  0  0  0  0  0  0
    5.5952   -2.1399   21.2609 O   0  0  0  0  0  0  0  0  0  0  0  0
    7.5667   -2.1870   22.5848 C   0  0  0  0  0  0  0  0  0  0  0  0
    7.1237   -2.9682   23.1959 H   0  0  0  0  0  0  0  0  0  0  0  0
    8.8266   -1.7092   22.7532 C   0  0  0  0  0  0  0  0  0  0  0  0
    9.4565   -2.0587   23.5644 H   0  0  0  0  0  0  0  0  0  0  0  0
   11.1010    1.0958   21.6910 C   0  0  0  0  0  0  0  0  0  0  0  0
   10.2439    1.7707   21.7917 H   0  0  0  0  0  0  0  0  0  0  0  0
   11.4553    1.1990   20.6602 H   0  0  0  0  0  0  0  0  0  0  0  0
   12.2427    1.4921   22.6458 C   0  0  0  0  0  0  0  0  0  0  0  0
   12.5690    2.5199   22.4684 H   0  0  0  0  0  0  0  0  0  0  0  0
   11.8483    1.4554   23.6719 H   0  0  0  0  0  0  0  0  0  0  0  0
  1  2  1  0
  2  3  1  0
  3  4  1  0
  3  5  1  0
  5  6  1  0
  5  7  1  0
  5  8  1  0
  8  9  1  0
  8 10  1  0
  8 11  1  0
 11 12  1  0
 12 13  2  0
 13 14  1  0
 14 15  1  0
 15 16  2  0
 16 17  1  0
 16 18  1  0
 18 19  2  0
 19 20  1  0
 19 21  1  0
 21 22  1  0
 21 23  2  0
 23 24  1  0
 14 25  1  0
 25 26  2  0
 25 27  1  0
 27 28  1  0
 27 29  2  0
 29 30  1  0
 11 31  1  0
 31 32  1  0
 31 33  1  0
 31 34  1  0
 34 35  1  0
 34 36  1  0
 34  3  1  0
 29 12  1  0
 23 15  1  0
M  END
>  <cnnaffinity>  (1) 
-5.14476

>  <filename>  (1) 
O=c1ccc(N2CCC(O)CC2)nn1-c1cccnc1

$$$$
