
     RDKit          3D

 41 44  0  0  0  0  0  0  0  0999 V2000
    4.9459    1.8478   16.9570 H   0  0  0  0  0  0  0  0  0  0  0  0
    5.4143    1.3343   17.7952 C   0  0  0  0  0  0  0  0  0  0  0  0
    6.5770    0.7153   17.5361 N   0  0  0  0  0  0  0  0  0  0  0  0
    7.1771    0.0708   18.5451 C   0  0  0  0  0  0  0  0  0  0  0  0
    8.1213   -0.4190   18.3127 H   0  0  0  0  0  0  0  0  0  0  0  0
    6.6423   -0.0122   19.8475 C   0  0  0  0  0  0  0  0  0  0  0  0
    7.3255   -0.7119   20.9095 N   0  0  0  0  0  0  0  0  0  0  0  0
    8.5868   -0.2731   21.2563 C   0  0  0  0  0  0  0  0  0  0  0  0
    8.9626    0.5735   20.6901 H   0  0  0  0  0  0  0  0  0  0  0  0
    9.3394   -0.8558   22.2360 C   0  0  0  0  0  0  0  0  0  0  0  0
   10.7332   -0.3709   22.4747 C   0  0  0  0  0  0  0  0  0  0  0  0
   11.8102   -1.2741   22.4360 C   0  0  0  0  0  0  0  0  0  0  0  0
   11.6351   -2.3276   22.2166 H   0  0  0  0  0  0  0  0  0  0  0  0
   13.1044   -0.8145   22.6922 C   0  0  0  0  0  0  0  0  0  0  0  0
   13.9573   -1.4851   22.6544 H   0  0  0  0  0  0  0  0  0  0  0  0
   13.3402    0.5251   22.9970 C   0  0  0  0  0  0  0  0  0  0  0  0
   14.3560    0.8247   23.2286 H   0  0  0  0  0  0  0  0  0  0  0  0
   12.2944    1.4712   22.9913 C   0  0  0  0  0  0  0  0  0  0  0  0
   12.5876    2.9364   23.1912 C   0  0  0  0  0  0  0  0  0  0  0  0
   11.6558    3.8472   23.7404 C   0  0  0  0  0  0  0  0  0  0  0  0
   10.7065    3.4921   24.1360 H   0  0  0  0  0  0  0  0  0  0  0  0
   11.9381    5.2196   23.8010 C   0  0  0  0  0  0  0  0  0  0  0  0
   11.1972    5.9065   24.2060 H   0  0  0  0  0  0  0  0  0  0  0  0
   13.1393    5.7188   23.2856 C   0  0  0  0  0  0  0  0  0  0  0  0
   13.3274    6.7889   23.2602 H   0  0  0  0  0  0  0  0  0  0  0  0
   14.0889    4.8334   22.7704 C   0  0  0  0  0  0  0  0  0  0  0  0
   15.0027    5.2144   22.3195 H   0  0  0  0  0  0  0  0  0  0  0  0
   13.8298    3.4623   22.7770 C   0  0  0  0  0  0  0  0  0  0  0  0
   14.6223    2.7946   22.4566 H   0  0  0  0  0  0  0  0  0  0  0  0
   11.0002    0.9928   22.7118 C   0  0  0  0  0  0  0  0  0  0  0  0
   10.1758    1.7009   22.6594 H   0  0  0  0  0  0  0  0  0  0  0  0
    8.7582   -1.9482   22.9638 C   0  0  0  0  0  0  0  0  0  0  0  0
    9.3304   -2.4198   23.7652 H   0  0  0  0  0  0  0  0  0  0  0  0
    7.5015   -2.3818   22.6709 C   0  0  0  0  0  0  0  0  0  0  0  0
    7.0200   -3.2042   23.1769 H   0  0  0  0  0  0  0  0  0  0  0  0
    6.6962   -1.8100   21.5994 C   0  0  0  0  0  0  0  0  0  0  0  0
    5.6038   -2.2464   21.2862 O   0  0  0  0  0  0  0  0  0  0  0  0
    5.4318    0.6382   20.1049 C   0  0  0  0  0  0  0  0  0  0  0  0
    5.0128    0.6070   21.1103 H   0  0  0  0  0  0  0  0  0  0  0  0
    4.8103    1.3266   19.0571 C   0  0  0  0  0  0  0  0  0  0  0  0
    3.8773    1.8582   19.2064 H   0  0  0  0  0  0  0  0  0  0  0  0
  1  2  1  0
  2  3  2  0
  3  4  1  0
  4  5  1  0
  4  6  2  0
  6  7  1  0
  7  8  1  0
  8  9  1  0
  8 10  2  0
 10 11  1  0
 11 12  2  0
 12 13  1  0
 12 14  1  0
 14 15  1  0
 14 16  2  0
 16 17  1  0
 16 18  1  0
 18 19  1  0
 19 20  2  0
 20 21  1  0
 20 22  1  0
 22 23  1  0
 22 24  2  0
 24 25  1  0
 24 26  1  0
 26 27  1  0
 26 28  2  0
 28 29  1  0
 18 30  2  0
 30 31  1  0
 10 32  1  0
 32 33  1  0
 32 34  2  0
 34 35  1  0
 34 36  1  0
 36 37  2  0
  6 38  1  0
 38 39  1  0
 38 40  2  0
 40 41  1  0
 40  2  1  0
 36  7  1  0
 30 11  1  0
 28 19  1  0
M  END
>  <cnnaffinity>  (1) 
-5.93067

>  <filename>  (1) 
O=c1ccc(-c2cccc(-c3ccccc3)c2)cn1-c1cccnc1

$$$$
