
     RDKit          3D

 28 30  0  0  0  0  0  0  0  0999 V2000
    4.9612    1.7926   16.9452 H   0  0  0  0  0  0  0  0  0  0  0  0
    5.4568    1.3267   17.7968 C   0  0  0  0  0  0  0  0  0  0  0  0
    6.6480    0.7606   17.5437 N   0  0  0  0  0  0  0  0  0  0  0  0
    7.2697    0.1591   18.5647 C   0  0  0  0  0  0  0  0  0  0  0  0
    8.2413   -0.2844   18.3489 H   0  0  0  0  0  0  0  0  0  0  0  0
    6.7179    0.0359   19.8534 C   0  0  0  0  0  0  0  0  0  0  0  0
    7.4595   -0.7650   20.8796 C   0  0  0  0  0  0  0  0  0  0  0  0
    8.7315   -0.4862   20.9832 N   0  0  0  0  0  0  0  0  0  0  0  0
    9.4728   -1.1478   21.9341 N   0  0  0  0  0  0  0  0  0  0  0  0
   10.8661   -0.8536   21.9785 C   0  0  0  0  0  0  0  0  0  0  0  0
   11.2859    0.4816   21.8683 C   0  0  0  0  0  0  0  0  0  0  0  0
   10.5541    1.2582   21.6696 H   0  0  0  0  0  0  0  0  0  0  0  0
   12.5646    0.8380   22.0042 N   0  0  0  0  0  0  0  0  0  0  0  0
   13.5084   -0.1019   22.1667 N   0  0  0  0  0  0  0  0  0  0  0  0
   13.1616   -1.3945   22.1901 C   0  0  0  0  0  0  0  0  0  0  0  0
   13.9804   -2.1039   22.2663 H   0  0  0  0  0  0  0  0  0  0  0  0
   11.8326   -1.8392   22.1460 C   0  0  0  0  0  0  0  0  0  0  0  0
   11.5748   -2.8937   22.2372 H   0  0  0  0  0  0  0  0  0  0  0  0
    8.8886   -1.9203   22.9132 C   0  0  0  0  0  0  0  0  0  0  0  0
    9.5579   -2.2472   23.7077 H   0  0  0  0  0  0  0  0  0  0  0  0
    7.5873   -2.2434   22.8787 C   0  0  0  0  0  0  0  0  0  0  0  0
    7.1156   -2.8387   23.6461 H   0  0  0  0  0  0  0  0  0  0  0  0
    6.7791   -1.8326   21.7387 C   0  0  0  0  0  0  0  0  0  0  0  0
    5.6814   -2.3210   21.5167 O   0  0  0  0  0  0  0  0  0  0  0  0
    5.4884    0.6642   20.1093 C   0  0  0  0  0  0  0  0  0  0  0  0
    5.0417    0.6270   21.1053 H   0  0  0  0  0  0  0  0  0  0  0  0
    4.8532    1.3208   19.0557 C   0  0  0  0  0  0  0  0  0  0  0  0
    3.9019    1.8210   19.1909 H   0  0  0  0  0  0  0  0  0  0  0  0
  1  2  1  0
  2  3  2  0
  3  4  1  0
  4  5  1  0
  4  6  2  0
  6  7  1  0
  7  8  2  0
  8  9  1  0
  9 10  1  0
 10 11  2  0
 11 12  1  0
 11 13  1  0
 13 14  2  0
 14 15  1  0
 15 16  1  0
 15 17  2  0
 17 18  1  0
  9 19  1  0
 19 20  1  0
 19 21  2  0
 21 22  1  0
 21 23  1  0
 23 24  2  0
  6 25  1  0
 25 26  1  0
 25 27  2  0
 27 28  1  0
 27  2  1  0
 23  7  1  0
 17 10  1  0
M  END
>  <cnnaffinity>  (1) 
-5.26315

>  <filename>  (1) 
O=c1ccn(-c2ccnnc2)nc1-c1cccnc1

$$$$
