
     RDKit          3D

 29 31  0  0  0  0  0  0  0  0999 V2000
    4.9176    1.7802   16.9937 H   0  0  0  0  0  0  0  0  0  0  0  0
    5.4006    1.2948   17.8338 C   0  0  0  0  0  0  0  0  0  0  0  0
    6.5645    0.6788   17.5719 N   0  0  0  0  0  0  0  0  0  0  0  0
    7.1630    0.0681   18.5981 C   0  0  0  0  0  0  0  0  0  0  0  0
    8.1059   -0.4279   18.3793 H   0  0  0  0  0  0  0  0  0  0  0  0
    6.6371    0.0128   19.8971 C   0  0  0  0  0  0  0  0  0  0  0  0
    7.3900   -0.6905   20.9360 C   0  0  0  0  0  0  0  0  0  0  0  0
    8.7182   -0.9458   21.0088 C   0  0  0  0  0  0  0  0  0  0  0  0
    9.4879   -0.6532   20.3250 H   0  0  0  0  0  0  0  0  0  0  0  0
    9.0071   -1.6432   22.2384 C   0  0  0  0  0  0  0  0  0  0  0  0
   10.0647   -2.0532   22.6895 O   0  0  0  0  0  0  0  0  0  0  0  0
    7.7336   -1.7752   22.8496 N   0  0  0  0  0  0  0  0  0  0  0  0
    7.4555   -2.3977   24.0884 C   0  0  0  0  0  0  0  0  0  0  0  0
    8.2117   -2.0147   25.2083 C   0  0  0  0  0  0  0  0  0  0  0  0
    8.9782   -1.2560   25.0833 H   0  0  0  0  0  0  0  0  0  0  0  0
    7.9819   -2.5967   26.4552 C   0  0  0  0  0  0  0  0  0  0  0  0
    8.5699   -2.2825   27.3143 H   0  0  0  0  0  0  0  0  0  0  0  0
    7.0025   -3.5837   26.5939 C   0  0  0  0  0  0  0  0  0  0  0  0
    6.8193   -4.0408   27.5611 H   0  0  0  0  0  0  0  0  0  0  0  0
    6.2581   -3.9971   25.4861 C   0  0  0  0  0  0  0  0  0  0  0  0
    5.4949   -4.7660   25.5747 H   0  0  0  0  0  0  0  0  0  0  0  0
    6.4895   -3.4173   24.2362 C   0  0  0  0  0  0  0  0  0  0  0  0
    5.5708   -4.0031   22.8783 Cl  0  0  0  0  0  0  0  0  0  0  0  0
    6.7754   -1.1835   22.0381 N   0  0  0  0  0  0  0  0  0  0  0  0
    5.7944   -1.1871   22.2900 H   0  0  0  0  0  0  0  0  0  0  0  0
    5.4187    0.6591   20.1526 C   0  0  0  0  0  0  0  0  0  0  0  0
    4.9971    0.6484   21.1640 H   0  0  0  0  0  0  0  0  0  0  0  0
    4.7967    1.3180   19.0987 C   0  0  0  0  0  0  0  0  0  0  0  0
    3.8660    1.8498   19.2561 H   0  0  0  0  0  0  0  0  0  0  0  0
  1  2  1  0
  2  3  2  0
  3  4  1  0
  4  5  1  0
  4  6  2  0
  6  7  1  0
  7  8  2  0
  8  9  1  0
  8 10  1  0
 10 11  2  0
 10 12  1  0
 12 13  1  0
 13 14  2  0
 14 15  1  0
 14 16  1  0
 16 17  1  0
 16 18  2  0
 18 19  1  0
 18 20  1  0
 20 21  1  0
 20 22  2  0
 22 23  1  0
 12 24  1  0
 24 25  1  0
  6 26  1  0
 26 27  1  0
 26 28  2  0
 28 29  1  0
 28  2  1  0
 24  7  1  0
 22 13  1  0
M  END
>  <cnnaffinity>  (1) 
-5.21556

>  <filename>  (1) 
O=c1cc(-c2cccnc2)[nH]n1-c1ccccc1Cl

$$$$
