
     RDKit          3D

 30 32  0  0  0  0  0  0  0  0999 V2000
    4.9747    1.8009   16.9458 H   0  0  0  0  0  0  0  0  0  0  0  0
    5.4678    1.3247   17.7929 C   0  0  0  0  0  0  0  0  0  0  0  0
    6.6628    0.7642   17.5454 N   0  0  0  0  0  0  0  0  0  0  0  0
    7.2700    0.1493   18.5669 C   0  0  0  0  0  0  0  0  0  0  0  0
    8.2459   -0.2826   18.3569 H   0  0  0  0  0  0  0  0  0  0  0  0
    6.7034    0.0041   19.8475 C   0  0  0  0  0  0  0  0  0  0  0  0
    7.4400   -0.7986   20.8765 C   0  0  0  0  0  0  0  0  0  0  0  0
    8.7115   -0.5120   20.9753 N   0  0  0  0  0  0  0  0  0  0  0  0
    9.4586   -1.1486   21.9318 N   0  0  0  0  0  0  0  0  0  0  0  0
   10.8573   -0.8234   21.9528 C   0  0  0  0  0  0  0  0  0  0  0  0
   11.2373    0.5244   21.9012 C   0  0  0  0  0  0  0  0  0  0  0  0
   10.4568    1.2677   21.7567 H   0  0  0  0  0  0  0  0  0  0  0  0
   12.5869    0.8606   22.0501 C   0  0  0  0  0  0  0  0  0  0  0  0
   12.8979    1.9023   22.0906 H   0  0  0  0  0  0  0  0  0  0  0  0
   13.5577   -0.1475   22.1356 C   0  0  0  0  0  0  0  0  0  0  0  0
   14.6085    0.1303   22.1817 H   0  0  0  0  0  0  0  0  0  0  0  0
   13.1819   -1.4933   22.1105 C   0  0  0  0  0  0  0  0  0  0  0  0
   13.9367   -2.2821   22.1470 H   0  0  0  0  0  0  0  0  0  0  0  0
   11.8262   -1.8331   22.0564 C   0  0  0  0  0  0  0  0  0  0  0  0
   11.5040   -2.8655   22.1593 H   0  0  0  0  0  0  0  0  0  0  0  0
    8.8833   -1.9238   22.9141 C   0  0  0  0  0  0  0  0  0  0  0  0
    9.5457   -2.2450   23.7213 H   0  0  0  0  0  0  0  0  0  0  0  0
    7.5826   -2.2654   22.8767 C   0  0  0  0  0  0  0  0  0  0  0  0
    7.1120   -2.8675   23.6424 H   0  0  0  0  0  0  0  0  0  0  0  0
    6.7638   -1.8602   21.7420 C   0  0  0  0  0  0  0  0  0  0  0  0
    5.6600   -2.3445   21.5303 O   0  0  0  0  0  0  0  0  0  0  0  0
    5.4811    0.6445   20.1045 C   0  0  0  0  0  0  0  0  0  0  0  0
    5.0364    0.6206   21.1026 H   0  0  0  0  0  0  0  0  0  0  0  0
    4.8544    1.3115   19.0498 C   0  0  0  0  0  0  0  0  0  0  0  0
    3.9081    1.8232   19.1887 H   0  0  0  0  0  0  0  0  0  0  0  0
  1  2  1  0
  2  3  2  0
  3  4  1  0
  4  5  1  0
  4  6  2  0
  6  7  1  0
  7  8  2  0
  8  9  1  0
  9 10  1  0
 10 11  2  0
 11 12  1  0
 11 13  1  0
 13 14  1  0
 13 15  2  0
 15 16  1  0
 15 17  1  0
 17 18  1  0
 17 19  2  0
 19 20  1  0
  9 21  1  0
 21 22  1  0
 21 23  2  0
 23 24  1  0
 23 25  1  0
 25 26  2  0
  6 27  1  0
 27 28  1  0
 27 29  2  0
 29 30  1  0
 29  2  1  0
 25  7  1  0
 19 10  1  0
M  END
>  <cnnaffinity>  (1) 
-5.13831

>  <filename>  (1) 
O=c1ccn(-c2ccccc2)nc1-c1cccnc1

$$$$
