
     RDKit          3D

 32 34  0  0  0  0  0  0  0  0999 V2000
    4.9504    2.1092   16.8973 H   0  0  0  0  0  0  0  0  0  0  0  0
    5.4079    1.4668   17.6468 C   0  0  0  0  0  0  0  0  0  0  0  0
    6.5373    0.8408   17.2771 N   0  0  0  0  0  0  0  0  0  0  0  0
    7.1316    0.0619   18.1860 C   0  0  0  0  0  0  0  0  0  0  0  0
    8.0579   -0.4199   17.8817 H   0  0  0  0  0  0  0  0  0  0  0  0
    6.6284   -0.1708   19.4837 C   0  0  0  0  0  0  0  0  0  0  0  0
    7.3358   -1.0103   20.3938 N   0  0  0  0  0  0  0  0  0  0  0  0
    8.7066   -0.9275   20.6566 C   0  0  0  0  0  0  0  0  0  0  0  0
    9.2971   -0.1388   20.2144 H   0  0  0  0  0  0  0  0  0  0  0  0
    9.0397   -1.9061   21.5315 C   0  0  0  0  0  0  0  0  0  0  0  0
   10.3220   -2.1188   22.2650 C   0  0  0  0  0  0  0  0  0  0  0  0
   11.1608   -1.9921   21.5702 H   0  0  0  0  0  0  0  0  0  0  0  0
   10.3705   -3.1478   22.6408 H   0  0  0  0  0  0  0  0  0  0  0  0
   10.4617   -1.1282   23.4126 C   0  0  0  0  0  0  0  0  0  0  0  0
    9.8928   -1.4206   24.6609 C   0  0  0  0  0  0  0  0  0  0  0  0
    9.3841   -2.3689   24.7883 H   0  0  0  0  0  0  0  0  0  0  0  0
    9.9630   -0.5252   25.7285 C   0  0  0  0  0  0  0  0  0  0  0  0
    9.5346   -0.7876   26.6898 H   0  0  0  0  0  0  0  0  0  0  0  0
   10.6194    0.6936   25.5629 C   0  0  0  0  0  0  0  0  0  0  0  0
   10.6613    1.3901   26.3901 H   0  0  0  0  0  0  0  0  0  0  0  0
   11.2119    1.0084   24.3381 C   0  0  0  0  0  0  0  0  0  0  0  0
   11.7727    1.9253   24.2017 H   0  0  0  0  0  0  0  0  0  0  0  0
   11.0997    0.1145   23.2707 C   0  0  0  0  0  0  0  0  0  0  0  0
   11.7372    0.6207   21.7250 Cl  0  0  0  0  0  0  0  0  0  0  0  0
    7.8618   -2.5911   21.8060 N   0  0  0  0  0  0  0  0  0  0  0  0
    7.6490   -3.2365   22.5453 H   0  0  0  0  0  0  0  0  0  0  0  0
    6.7727   -2.0193   21.1901 C   0  0  0  0  0  0  0  0  0  0  0  0
    5.6179   -2.3650   21.3384 O   0  0  0  0  0  0  0  0  0  0  0  0
    5.4358    0.4682   19.8515 C   0  0  0  0  0  0  0  0  0  0  0  0
    5.0148    0.2904   20.8433 H   0  0  0  0  0  0  0  0  0  0  0  0
    4.8347    1.3184   18.9158 C   0  0  0  0  0  0  0  0  0  0  0  0
    3.9338    1.8708   19.1560 H   0  0  0  0  0  0  0  0  0  0  0  0
  1  2  1  0
  2  3  2  0
  3  4  1  0
  4  5  1  0
  4  6  2  0
  6  7  1  0
  7  8  1  0
  8  9  1  0
  8 10  2  0
 10 11  1  0
 11 12  1  0
 11 13  1  0
 11 14  1  0
 14 15  2  0
 15 16  1  0
 15 17  1  0
 17 18  1  0
 17 19  2  0
 19 20  1  0
 19 21  1  0
 21 22  1  0
 21 23  2  0
 23 24  1  0
 10 25  1  0
 25 26  1  0
 25 27  1  0
 27 28  2  0
  6 29  1  0
 29 30  1  0
 29 31  2  0
 31 32  1  0
 31  2  1  0
 27  7  1  0
 23 14  1  0
M  END
>  <cnnaffinity>  (1) 
-5.24054

>  <filename>  (1) 
O=c1[nH]c(Cc2ccccc2Cl)cn1-c1cccnc1

$$$$
