
     RDKit          3D

 30 32  0  0  0  0  0  0  0  0999 V2000
    4.9228    1.8702   16.9360 H   0  0  0  0  0  0  0  0  0  0  0  0
    5.4053    1.3512   17.7675 C   0  0  0  0  0  0  0  0  0  0  0  0
    6.5786    0.7544   17.5017 N   0  0  0  0  0  0  0  0  0  0  0  0
    7.1879    0.1132   18.5087 C   0  0  0  0  0  0  0  0  0  0  0  0
    8.1334   -0.3548   18.2403 H   0  0  0  0  0  0  0  0  0  0  0  0
    6.6739   -0.0066   19.8259 C   0  0  0  0  0  0  0  0  0  0  0  0
    7.4066   -0.7294   20.9176 C   0  0  0  0  0  0  0  0  0  0  0  0
    8.6983   -0.4364   21.1916 C   0  0  0  0  0  0  0  0  0  0  0  0
    9.2564    0.3010   20.6201 H   0  0  0  0  0  0  0  0  0  0  0  0
    9.4201   -1.0341   22.2209 N   0  0  0  0  0  0  0  0  0  0  0  0
   10.8198   -0.7108   22.3692 C   0  0  0  0  0  0  0  0  0  0  0  0
   11.2529    0.5992   22.6681 C   0  0  0  0  0  0  0  0  0  0  0  0
   10.5232    1.3920   22.8351 H   0  0  0  0  0  0  0  0  0  0  0  0
   12.5473    0.9375   22.7528 N   0  0  0  0  0  0  0  0  0  0  0  0
   13.4758   -0.0032   22.5267 C   0  0  0  0  0  0  0  0  0  0  0  0
   14.5275    0.2744   22.6282 H   0  0  0  0  0  0  0  0  0  0  0  0
   13.1189   -1.3181   22.2070 C   0  0  0  0  0  0  0  0  0  0  0  0
   14.0797   -2.2060   21.9227 F   0  0  0  0  0  0  0  0  0  0  0  0
   11.7819   -1.7080   22.1670 C   0  0  0  0  0  0  0  0  0  0  0  0
   11.5134   -2.7456   21.9860 H   0  0  0  0  0  0  0  0  0  0  0  0
    8.8355   -2.0339   23.0280 C   0  0  0  0  0  0  0  0  0  0  0  0
    9.4078   -2.7070   23.8483 O   0  0  0  0  0  0  0  0  0  0  0  0
    7.5011   -2.1931   22.8340 N   0  0  0  0  0  0  0  0  0  0  0  0
    7.1178   -2.9650   23.3408 H   0  0  0  0  0  0  0  0  0  0  0  0
    6.7610   -1.7929   21.7410 C   0  0  0  0  0  0  0  0  0  0  0  0
    5.7011   -2.3523   21.5561 O   0  0  0  0  0  0  0  0  0  0  0  0
    5.4438    0.6303   20.0686 C   0  0  0  0  0  0  0  0  0  0  0  0
    5.0022    0.5943   21.0642 H   0  0  0  0  0  0  0  0  0  0  0  0
    4.8078    1.3201   19.0293 C   0  0  0  0  0  0  0  0  0  0  0  0
    3.8700    1.8432   19.1835 H   0  0  0  0  0  0  0  0  0  0  0  0
  1  2  1  0
  2  3  2  0
  3  4  1  0
  4  5  1  0
  4  6  2  0
  6  7  1  0
  7  8  2  0
  8  9  1  0
  8 10  1  0
 10 11  1  0
 11 12  2  0
 12 13  1  0
 12 14  1  0
 14 15  2  0
 15 16  1  0
 15 17  1  0
 17 18  1  0
 17 19  2  0
 19 20  1  0
 10 21  1  0
 21 22  2  0
 21 23  1  0
 23 24  1  0
 23 25  1  0
 25 26  2  0
  6 27  1  0
 27 28  1  0
 27 29  2  0
 29 30  1  0
 29  2  1  0
 25  7  1  0
 19 11  1  0
M  END
>  <cnnaffinity>  (1) 
-5.26968

>  <filename>  (1) 
O=c1[nH]c(=O)n(-c2cncc(F)c2)cc1-c1cccnc1

$$$$
