
     RDKit          3D

 32 34  0  0  0  0  0  0  0  0999 V2000
    5.0595    1.9033   16.8824 H   0  0  0  0  0  0  0  0  0  0  0  0
    5.4800    1.3469   17.7195 C   0  0  0  0  0  0  0  0  0  0  0  0
    6.6351    0.7043   17.4869 N   0  0  0  0  0  0  0  0  0  0  0  0
    7.1721    0.0101   18.4995 C   0  0  0  0  0  0  0  0  0  0  0  0
    8.1251   -0.4767   18.2805 H   0  0  0  0  0  0  0  0  0  0  0  0
    6.5923   -0.1007   19.7812 C   0  0  0  0  0  0  0  0  0  0  0  0
    7.2711   -0.8134   20.9421 C   0  0  2  0  0  0  0  0  0  0  0  0
    8.0402   -1.4834   20.5358 H   0  0  0  0  0  0  0  0  0  0  0  0
    6.3913   -1.7417   21.8060 C   0  0  0  0  0  0  0  0  0  0  0  0
    5.5656   -2.5639   21.4646 O   0  0  0  0  0  0  0  0  0  0  0  0
    6.7415   -1.5126   23.0978 N   0  0  0  0  0  0  0  0  0  0  0  0
    6.1408   -1.9331   23.7847 H   0  0  0  0  0  0  0  0  0  0  0  0
    7.7066   -0.4668   23.3456 C   0  0  0  0  0  0  0  0  0  0  0  0
    8.6551   -0.8848   23.7213 H   0  0  0  0  0  0  0  0  0  0  0  0
    7.3437    0.2565   24.0910 H   0  0  0  0  0  0  0  0  0  0  0  0
    7.8755    0.1928   21.9620 C   0  0  1  0  0  0  0  0  0  0  0  0
    7.2554    1.0992   21.9521 H   0  0  0  0  0  0  0  0  0  0  0  0
    9.3168    0.6026   21.6077 C   0  0  0  0  0  0  0  0  0  0  0  0
    9.9120   -0.3102   21.4899 H   0  0  0  0  0  0  0  0  0  0  0  0
    9.3098    1.0930   20.6266 H   0  0  0  0  0  0  0  0  0  0  0  0
    9.9903    1.4766   22.6344 C   0  0  0  0  0  0  0  0  0  0  0  0
    9.6399    3.1706   22.7106 S   0  0  0  0  0  0  0  0  0  0  0  0
   10.7459    3.4090   24.0064 C   0  0  0  0  0  0  0  0  0  0  0  0
   10.9010    4.4080   24.3960 H   0  0  0  0  0  0  0  0  0  0  0  0
   11.3285    2.2411   24.3897 C   0  0  0  0  0  0  0  0  0  0  0  0
   12.0600    2.1489   25.1820 H   0  0  0  0  0  0  0  0  0  0  0  0
   10.8775    1.1267   23.6166 C   0  0  0  0  0  0  0  0  0  0  0  0
   11.2292    0.1125   23.7949 H   0  0  0  0  0  0  0  0  0  0  0  0
    5.3868    0.5803   19.9942 C   0  0  0  0  0  0  0  0  0  0  0  0
    4.9171    0.5508   20.9785 H   0  0  0  0  0  0  0  0  0  0  0  0
    4.8171    1.3111   18.9493 C   0  0  0  0  0  0  0  0  0  0  0  0
    3.8926    1.8621   19.0816 H   0  0  0  0  0  0  0  0  0  0  0  0
  1  2  1  0
  2  3  2  0
  3  4  1  0
  4  5  1  0
  4  6  2  0
  6  7  1  0
  7  8  1  6
  7  9  1  0
  9 10  2  0
  9 11  1  0
 11 12  1  0
 11 13  1  0
 13 14  1  0
 13 15  1  0
 13 16  1  0
 16 17  1  1
 16 18  1  0
 18 19  1  0
 18 20  1  0
 18 21  1  0
 21 22  1  0
 22 23  1  0
 23 24  1  0
 23 25  2  0
 25 26  1  0
 25 27  1  0
 27 28  1  0
  6 29  1  0
 29 30  1  0
 29 31  2  0
 31 32  1  0
 31  2  1  0
 16  7  1  0
 27 21  2  0
M  END
>  <cnnaffinity>  (1) 
-5.21472

>  <filename>  (1) 
O=C1NC[C@@H](Cc2cccs2)[C@@H]1c1cccnc1

$$$$
