
     RDKit          3D

 34 36  0  0  0  0  0  0  0  0999 V2000
    4.9145    1.8299   16.9514 H   0  0  0  0  0  0  0  0  0  0  0  0
    5.3916    1.3320   17.7933 C   0  0  0  0  0  0  0  0  0  0  0  0
    6.5604    0.7236   17.5302 N   0  0  0  0  0  0  0  0  0  0  0  0
    7.1732    0.0995   18.5438 C   0  0  0  0  0  0  0  0  0  0  0  0
    8.1203   -0.3828   18.2958 H   0  0  0  0  0  0  0  0  0  0  0  0
    6.6619    0.0096   19.8592 C   0  0  0  0  0  0  0  0  0  0  0  0
    7.3982   -0.7133   20.9401 C   0  0  0  0  0  0  0  0  0  0  0  0
    8.7232   -0.4280   21.2280 C   0  0  0  0  0  0  0  0  0  0  0  0
    9.2348    0.3254   20.6303 H   0  0  0  0  0  0  0  0  0  0  0  0
    9.4344   -1.0538   22.2928 C   0  0  0  0  0  0  0  0  0  0  0  0
   10.8821   -0.7553   22.5369 C   0  0  0  0  0  0  0  0  0  0  0  0
   11.8121   -1.2035   21.5891 C   0  0  0  0  0  0  0  0  0  0  0  0
   11.4354   -1.7444   20.7341 H   0  0  0  0  0  0  0  0  0  0  0  0
   13.1799   -0.9824   21.7473 C   0  0  0  0  0  0  0  0  0  0  0  0
   13.8763   -1.3273   20.9887 H   0  0  0  0  0  0  0  0  0  0  0  0
   13.6451   -0.2924   22.8661 C   0  0  0  0  0  0  0  0  0  0  0  0
   14.7083   -0.1200   22.9979 H   0  0  0  0  0  0  0  0  0  0  0  0
   12.7452    0.1612   23.8310 C   0  0  0  0  0  0  0  0  0  0  0  0
   13.1257    0.6867   24.7072 H   0  0  0  0  0  0  0  0  0  0  0  0
   11.3656   -0.0610   23.6705 C   0  0  0  0  0  0  0  0  0  0  0  0
   10.3842    0.4245   24.7227 C   0  0  0  0  0  0  0  0  0  0  0  0
    9.2848    0.9759   24.1777 F   0  0  0  0  0  0  0  0  0  0  0  0
    9.9671   -0.5931   25.5092 F   0  0  0  0  0  0  0  0  0  0  0  0
   10.9026    1.3507   25.5479 F   0  0  0  0  0  0  0  0  0  0  0  0
    8.7945   -2.0121   23.0351 C   0  0  0  0  0  0  0  0  0  0  0  0
    9.2887   -2.5579   23.8370 H   0  0  0  0  0  0  0  0  0  0  0  0
    7.4941   -2.3087   22.7552 N   0  0  0  0  0  0  0  0  0  0  0  0
    6.9012   -2.9699   23.2371 H   0  0  0  0  0  0  0  0  0  0  0  0
    6.7244   -1.7736   21.7243 C   0  0  0  0  0  0  0  0  0  0  0  0
    5.6158   -2.2706   21.5805 O   0  0  0  0  0  0  0  0  0  0  0  0
    5.4329    0.6562   20.0973 C   0  0  0  0  0  0  0  0  0  0  0  0
    4.9958    0.6159   21.0934 H   0  0  0  0  0  0  0  0  0  0  0  0
    4.7907    1.3353   19.0554 C   0  0  0  0  0  0  0  0  0  0  0  0
    3.8464    1.8592   19.1987 H   0  0  0  0  0  0  0  0  0  0  0  0
  1  2  1  0
  2  3  2  0
  3  4  1  0
  4  5  1  0
  4  6  2  0
  6  7  1  0
  7  8  2  0
  8  9  1  0
  8 10  1  0
 10 11  1  0
 11 12  2  0
 12 13  1  0
 12 14  1  0
 14 15  1  0
 14 16  2  0
 16 17  1  0
 16 18  1  0
 18 19  1  0
 18 20  2  0
 20 21  1  0
 21 22  1  0
 21 23  1  0
 21 24  1  0
 10 25  2  0
 25 26  1  0
 25 27  1  0
 27 28  1  0
 27 29  1  0
 29 30  2  0
  6 31  1  0
 31 32  1  0
 31 33  2  0
 33 34  1  0
 33  2  1  0
 29  7  1  0
 20 11  1  0
M  END
>  <cnnaffinity>  (1) 
-5.5327

>  <filename>  (1) 
O=c1[nH]cc(-c2ccccc2C(F)(F)F)cc1-c1cccnc1

$$$$
