
     RDKit          3D

 28 30  0  0  0  0  0  0  0  0999 V2000
    4.8747    1.7364   16.9947 H   0  0  0  0  0  0  0  0  0  0  0  0
    5.3858    1.2874   17.8423 C   0  0  0  0  0  0  0  0  0  0  0  0
    6.5698    0.7043   17.5732 N   0  0  0  0  0  0  0  0  0  0  0  0
    7.2279    0.1713   18.5983 C   0  0  0  0  0  0  0  0  0  0  0  0
    8.1813   -0.3166   18.3959 H   0  0  0  0  0  0  0  0  0  0  0  0
    6.7692    0.1903   19.9475 C   0  0  0  0  0  0  0  0  0  0  0  0
    7.6214   -0.3864   20.8851 N   0  0  0  0  0  0  0  0  0  0  0  0
    7.6600   -0.0833   22.1263 C   0  0  0  0  0  0  0  0  0  0  0  0
    7.3555    1.2453   22.7482 C   0  0  0  0  0  0  0  0  0  0  0  0
    7.8032    2.4139   22.0849 C   0  0  0  0  0  0  0  0  0  0  0  0
    8.3640    2.3192   21.1604 H   0  0  0  0  0  0  0  0  0  0  0  0
    7.5281    3.6842   22.5855 C   0  0  0  0  0  0  0  0  0  0  0  0
    7.8485    4.5691   22.0380 H   0  0  0  0  0  0  0  0  0  0  0  0
    6.8219    3.8237   23.7797 C   0  0  0  0  0  0  0  0  0  0  0  0
    6.5874    4.8037   24.1810 H   0  0  0  0  0  0  0  0  0  0  0  0
    6.3887    2.6944   24.4783 C   0  0  0  0  0  0  0  0  0  0  0  0
    5.5152    2.9496   25.9593 Cl  0  0  0  0  0  0  0  0  0  0  0  0
    6.6487    1.4071   23.9734 C   0  0  0  0  0  0  0  0  0  0  0  0
    6.0288    0.0311   24.8330 Cl  0  0  0  0  0  0  0  0  0  0  0  0
    8.3082   -1.1335   22.9910 C   0  0  0  0  0  0  0  0  0  0  0  0
    8.4605   -0.8697   24.0558 H   0  0  0  0  0  0  0  0  0  0  0  0
    8.6982   -2.1811   22.5285 O   0  0  0  0  0  0  0  0  0  0  0  0
    6.8379   -2.8267   21.0284 C   0  0  0  0  0  0  0  0  0  0  0  0
    6.6134   -3.1290   20.9206 O   0  0  0  0  0  0  0  0  0  0  0  0
    5.5018    0.7496   20.1959 C   0  0  0  0  0  0  0  0  0  0  0  0
    5.0664    0.7690   21.1978 H   0  0  0  0  0  0  0  0  0  0  0  0
    4.8160    1.3169   19.1164 C   0  0  0  0  0  0  0  0  0  0  0  0
    3.8459    1.7838   19.2510 H   0  0  0  0  0  0  0  0  0  0  0  0
  1  2  1  0
  2  3  2  0
  3  4  1  0
  4  5  1  0
  4  6  2  0
  6  7  1  0
  7  8  1  0
  8  9  1  0
  9 10  2  0
 10 11  1  0
 10 12  1  0
 12 13  1  0
 12 14  2  0
 14 15  1  0
 14 16  1  0
 16 17  1  0
 16 18  2  0
 18 19  1  0
  8 20  2  0
 20 21  1  0
 20 22  1  0
 22 23  1  0
 23 24  2  0
  6 25  1  0
 25 26  1  0
 25 27  2  0
 27 28  1  0
 27  2  1  0
 23  7  1  0
 18  9  1  0
M  END
>  <cnnaffinity>  (1) 
-5.29949

>  <filename>  (1) 
O=c1occ(-c2cccc(Cl)c2Cl)n1-c1cccnc1

$$$$
