
     RDKit          3D

 31 33  0  0  0  0  0  0  0  0999 V2000
    5.0478   -1.8078   24.1100 H   0  0  0  0  0  0  0  0  0  0  0  0
    5.8249   -2.2362   24.5047 O   0  0  0  0  0  0  0  0  0  0  0  0
    6.3315   -1.3889   25.4447 C   0  0  0  0  0  0  0  0  0  0  0  0
    5.5166   -0.9376   26.4934 C   0  0  0  0  0  0  0  0  0  0  0  0
    4.4594   -1.1912   26.5271 H   0  0  0  0  0  0  0  0  0  0  0  0
    6.0713   -0.1368   27.4922 C   0  0  0  0  0  0  0  0  0  0  0  0
    5.0494    0.5127   28.7332 Cl  0  0  0  0  0  0  0  0  0  0  0  0
    7.4283    0.1934   27.4824 C   0  0  0  0  0  0  0  0  0  0  0  0
    7.8539    0.8247   28.2525 H   0  0  0  0  0  0  0  0  0  0  0  0
    8.2349   -0.2538   26.4345 C   0  0  0  0  0  0  0  0  0  0  0  0
    9.2965   -0.0188   26.3912 H   0  0  0  0  0  0  0  0  0  0  0  0
    7.6862   -0.9890   25.3843 C   0  0  0  0  0  0  0  0  0  0  0  0
    8.5516   -1.2671   24.3266 O   0  0  0  0  0  0  0  0  0  0  0  0
    7.9915   -1.3691   23.0566 N   0  0  0  0  0  0  0  0  0  0  0  0
    7.2343   -0.3313   22.4302 C   0  0  0  0  0  0  0  0  0  0  0  0
    6.5455    0.4825   23.0089 O   0  0  0  0  0  0  0  0  0  0  0  0
    7.4915   -0.5504   20.9828 C   0  0  0  0  0  0  0  0  0  0  0  0
    6.7481    0.0954   19.8805 C   0  0  0  0  0  0  0  0  0  0  0  0
    7.2086    0.0785   18.5411 C   0  0  0  0  0  0  0  0  0  0  0  0
    8.1340   -0.4387   18.2900 H   0  0  0  0  0  0  0  0  0  0  0  0
    6.5804    0.6608   17.5144 N   0  0  0  0  0  0  0  0  0  0  0  0
    5.4183    1.2828   17.7742 C   0  0  0  0  0  0  0  0  0  0  0  0
    4.9232    1.7453   16.9230 H   0  0  0  0  0  0  0  0  0  0  0  0
    4.8499    1.3388   19.0493 C   0  0  0  0  0  0  0  0  0  0  0  0
    3.8977    1.8379   19.1864 H   0  0  0  0  0  0  0  0  0  0  0  0
    5.5220    0.7465   20.1188 C   0  0  0  0  0  0  0  0  0  0  0  0
    5.1238    0.7796   21.1310 H   0  0  0  0  0  0  0  0  0  0  0  0
    8.4867   -1.4768   20.9158 C   0  0  0  0  0  0  0  0  0  0  0  0
    8.9541   -1.8931   20.0350 H   0  0  0  0  0  0  0  0  0  0  0  0
    8.9483   -1.8629   22.1586 N   0  0  0  0  0  0  0  0  0  0  0  0
    9.1772   -2.8399   22.3407 H   0  0  0  0  0  0  0  0  0  0  0  0
  1  2  1  0
  2  3  1  0
  3  4  2  0
  4  5  1  0
  4  6  1  0
  6  7  1  0
  6  8  2  0
  8  9  1  0
  8 10  1  0
 10 11  1  0
 10 12  2  0
 12 13  1  0
 13 14  1  0
 14 15  1  0
 15 16  2  0
 15 17  1  0
 17 18  1  0
 18 19  2  0
 19 20  1  0
 19 21  1  0
 21 22  2  0
 22 23  1  0
 22 24  1  0
 24 25  1  0
 24 26  2  0
 26 27  1  0
 17 28  2  0
 28 29  1  0
 28 30  1  0
 30 31  1  0
 12  3  1  0
 30 14  1  0
 26 18  1  0
M  END
>  <cnnaffinity>  (1) 
-5.14991

>  <filename>  (1) 
O=c1c(-c2cccnc2)c[nH]n1Oc1ccc(Cl)cc1O

$$$$
