
     RDKit          3D

 24 25  0  0  0  0  0  0  0  0999 V2000
    4.9228    1.7727   17.0064 H   0  0  0  0  0  0  0  0  0  0  0  0
    5.4087    1.2838   17.8520 C   0  0  0  0  0  0  0  0  0  0  0  0
    6.5699    0.6620   17.5976 N   0  0  0  0  0  0  0  0  0  0  0  0
    7.1876    0.0580   18.6180 C   0  0  0  0  0  0  0  0  0  0  0  0
    8.1299   -0.4256   18.3773 H   0  0  0  0  0  0  0  0  0  0  0  0
    6.6787    0.0025   19.9231 C   0  0  0  0  0  0  0  0  0  0  0  0
    7.4506   -0.7118   20.9694 C   0  0  0  0  0  0  0  0  0  0  0  0
    8.7458   -0.6948   20.8831 N   0  0  0  0  0  0  0  0  0  0  0  0
    9.4764   -1.3252   21.8535 C   0  0  0  0  0  0  0  0  0  0  0  0
   10.6819   -1.3693   21.8994 O   0  0  0  0  0  0  0  0  0  0  0  0
    8.7811   -1.9891   22.8752 N   0  0  0  0  0  0  0  0  0  0  0  0
    9.3975   -2.4250   23.5309 H   0  0  0  0  0  0  0  0  0  0  0  0
    7.4376   -2.0024   22.9859 C   0  0  0  0  0  0  0  0  0  0  0  0
    6.6756   -2.8955   24.2829 S   0  0  0  0  0  0  0  0  0  0  0  0
    6.5899   -4.5127   23.3864 C   0  0  0  0  0  0  0  0  0  0  0  0
    6.0049   -5.4047   24.1848 F   0  0  0  0  0  0  0  0  0  0  0  0
    7.8098   -4.9476   23.0772 F   0  0  0  0  0  0  0  0  0  0  0  0
    5.8733   -4.4258   22.2631 F   0  0  0  0  0  0  0  0  0  0  0  0
    6.7357   -1.3838   21.9986 C   0  0  0  0  0  0  0  0  0  0  0  0
    5.6690   -1.4283   21.9655 H   0  0  0  0  0  0  0  0  0  0  0  0
    5.4510    0.6405   20.1691 C   0  0  0  0  0  0  0  0  0  0  0  0
    5.0040    0.6399   21.1674 H   0  0  0  0  0  0  0  0  0  0  0  0
    4.8153    1.3035   19.1190 C   0  0  0  0  0  0  0  0  0  0  0  0
    3.8813    1.8378   19.2640 H   0  0  0  0  0  0  0  0  0  0  0  0
  1  2  1  0
  2  3  2  0
  3  4  1  0
  4  5  1  0
  4  6  2  0
  6  7  1  0
  7  8  2  0
  8  9  1  0
  9 10  2  0
  9 11  1  0
 11 12  1  0
 11 13  1  0
 13 14  1  0
 14 15  1  0
 15 16  1  0
 15 17  1  0
 15 18  1  0
 13 19  2  0
 19 20  1  0
  6 21  1  0
 21 22  1  0
 21 23  2  0
 23 24  1  0
 23  2  1  0
 19  7  1  0
M  END
>  <cnnaffinity>  (1) 
-5.41805

>  <filename>  (1) 
O=c1nc(-c2cccnc2)cc(SC(F)(F)F)[nH]1

$$$$
