
     RDKit          3D

 30 32  0  0  0  0  0  0  0  0999 V2000
    4.9771    1.7859   16.9659 H   0  0  0  0  0  0  0  0  0  0  0  0
    5.4321    1.2912   17.8189 C   0  0  0  0  0  0  0  0  0  0  0  0
    6.6033    0.6688   17.5914 N   0  0  0  0  0  0  0  0  0  0  0  0
    7.1834    0.0498   18.6260 C   0  0  0  0  0  0  0  0  0  0  0  0
    8.1478   -0.4286   18.4619 H   0  0  0  0  0  0  0  0  0  0  0  0
    6.6110   -0.0165   19.9082 C   0  0  0  0  0  0  0  0  0  0  0  0
    7.2834   -0.7408   20.9329 N   0  0  0  0  0  0  0  0  0  0  0  0
    8.6477   -0.6285   20.9258 N   0  0  0  0  0  0  0  0  0  0  0  0
    9.3313   -1.2099   21.8776 C   0  0  0  0  0  0  0  0  0  0  0  0
   10.8016   -0.9355   21.8863 C   0  0  0  0  0  0  0  0  0  0  0  0
   11.2546    0.3949   21.8181 C   0  0  0  0  0  0  0  0  0  0  0  0
   10.5388    1.1764   21.5754 H   0  0  0  0  0  0  0  0  0  0  0  0
   12.5952    0.6988   22.0741 C   0  0  0  0  0  0  0  0  0  0  0  0
   12.9600    1.7148   22.1583 H   0  0  0  0  0  0  0  0  0  0  0  0
   13.4891   -0.3601   22.2357 C   0  0  0  0  0  0  0  0  0  0  0  0
   14.7691   -0.0997   22.5186 F   0  0  0  0  0  0  0  0  0  0  0  0
   13.0963   -1.6906   22.1380 C   0  0  0  0  0  0  0  0  0  0  0  0
   13.8469   -2.4711   22.1844 H   0  0  0  0  0  0  0  0  0  0  0  0
   11.7390   -1.9746   22.0283 C   0  0  0  0  0  0  0  0  0  0  0  0
   11.3992   -2.9974   22.1638 H   0  0  0  0  0  0  0  0  0  0  0  0
    8.7035   -2.0696   22.9448 C   0  0  0  0  0  0  0  0  0  0  0  0
    9.3209   -2.6442   23.8330 O   0  0  0  0  0  0  0  0  0  0  0  0
    7.2552   -2.1630   22.8359 C   0  0  0  0  0  0  0  0  0  0  0  0
    6.7418   -2.7495   23.5813 H   0  0  0  0  0  0  0  0  0  0  0  0
    6.6156   -1.5089   21.8561 C   0  0  0  0  0  0  0  0  0  0  0  0
    5.5373   -1.5648   21.7358 H   0  0  0  0  0  0  0  0  0  0  0  0
    5.4094    0.6621   20.1467 C   0  0  0  0  0  0  0  0  0  0  0  0
    4.9949    0.6974   21.1549 H   0  0  0  0  0  0  0  0  0  0  0  0
    4.8094    1.3229   19.0718 C   0  0  0  0  0  0  0  0  0  0  0  0
    3.8750    1.8576   19.1983 H   0  0  0  0  0  0  0  0  0  0  0  0
  1  2  1  0
  2  3  2  0
  3  4  1  0
  4  5  1  0
  4  6  2  0
  6  7  1  0
  7  8  1  0
  8  9  2  0
  9 10  1  0
 10 11  2  0
 11 12  1  0
 11 13  1  0
 13 14  1  0
 13 15  2  0
 15 16  1  0
 15 17  1  0
 17 18  1  0
 17 19  2  0
 19 20  1  0
  9 21  1  0
 21 22  2  0
 21 23  1  0
 23 24  1  0
 23 25  2  0
 25 26  1  0
  6 27  1  0
 27 28  1  0
 27 29  2  0
 29 30  1  0
 29  2  1  0
 25  7  1  0
 19 10  1  0
M  END
>  <cnnaffinity>  (1) 
-5.61905

>  <filename>  (1) 
O=c1ccn(-c2cccnc2)nc1-c1ccc(F)cc1

$$$$
