
     RDKit          3D

 31 33  0  0  0  0  0  0  0  0999 V2000
    4.9523    1.7228   16.9684 H   0  0  0  0  0  0  0  0  0  0  0  0
    5.4143    1.2851   17.8496 C   0  0  0  0  0  0  0  0  0  0  0  0
    6.5926    0.6683   17.6550 N   0  0  0  0  0  0  0  0  0  0  0  0
    7.1781    0.1230   18.7239 C   0  0  0  0  0  0  0  0  0  0  0  0
    8.1270   -0.3825   18.5509 H   0  0  0  0  0  0  0  0  0  0  0  0
    6.6466    0.1760   20.0342 C   0  0  0  0  0  0  0  0  0  0  0  0
    7.3432   -0.4277   21.1133 N   0  0  0  0  0  0  0  0  0  0  0  0
    8.1066   -1.5870   20.9564 C   0  0  0  0  0  0  0  0  0  0  0  0
    8.1624   -2.1020   20.0262 H   0  0  0  0  0  0  0  0  0  0  0  0
    8.5720   -1.9458   22.1599 C   0  0  0  0  0  0  0  0  0  0  0  0
    9.3317   -3.0257   22.5138 N   0  0  0  0  0  0  0  0  0  0  0  0
   10.0529   -3.2701   21.8560 H   0  0  0  0  0  0  0  0  0  0  0  0
    9.5357   -3.5371   23.7950 C   0  0  0  0  0  0  0  0  0  0  0  0
   10.8302   -3.9436   24.1250 C   0  0  0  0  0  0  0  0  0  0  0  0
   11.6327   -3.7695   23.4192 H   0  0  0  0  0  0  0  0  0  0  0  0
   11.0965   -4.5269   25.3575 C   0  0  0  0  0  0  0  0  0  0  0  0
   12.0746   -4.9305   25.5760 H   0  0  0  0  0  0  0  0  0  0  0  0
   10.0795   -4.6138   26.3062 C   0  0  0  0  0  0  0  0  0  0  0  0
   10.4492   -5.1704   27.9042 Cl  0  0  0  0  0  0  0  0  0  0  0  0
    8.7708   -4.2571   25.9817 C   0  0  0  0  0  0  0  0  0  0  0  0
    7.9803   -4.4098   26.7095 H   0  0  0  0  0  0  0  0  0  0  0  0
    8.4974   -3.7264   24.7163 C   0  0  0  0  0  0  0  0  0  0  0  0
    7.4829   -3.4839   24.4160 H   0  0  0  0  0  0  0  0  0  0  0  0
    8.1161   -1.0336   23.0771 N   0  0  0  0  0  0  0  0  0  0  0  0
    8.4250   -0.9306   24.0217 H   0  0  0  0  0  0  0  0  0  0  0  0
    7.3685   -0.0506   22.4732 C   0  0  0  0  0  0  0  0  0  0  0  0
    6.8841    0.9085   23.0327 O   0  0  0  0  0  0  0  0  0  0  0  0
    5.4077    0.8017   20.2197 C   0  0  0  0  0  0  0  0  0  0  0  0
    4.9665    0.8406   21.2153 H   0  0  0  0  0  0  0  0  0  0  0  0
    4.7848    1.3587   19.0975 C   0  0  0  0  0  0  0  0  0  0  0  0
    3.8216    1.8492   19.1838 H   0  0  0  0  0  0  0  0  0  0  0  0
  1  2  1  0
  2  3  2  0
  3  4  1  0
  4  5  1  0
  4  6  2  0
  6  7  1  0
  7  8  1  0
  8  9  1  0
  8 10  2  0
 10 11  1  0
 11 12  1  0
 11 13  1  0
 13 14  2  0
 14 15  1  0
 14 16  1  0
 16 17  1  0
 16 18  2  0
 18 19  1  0
 18 20  1  0
 20 21  1  0
 20 22  2  0
 22 23  1  0
 10 24  1  0
 24 25  1  0
 24 26  1  0
 26 27  2  0
  6 28  1  0
 28 29  1  0
 28 30  2  0
 30 31  1  0
 30  2  1  0
 26  7  1  0
 22 13  1  0
M  END
>  <cnnaffinity>  (1) 
-5.4105

>  <filename>  (1) 
O=c1[nH]c(Nc2ccc(Cl)cc2)cn1-c1cccnc1

$$$$
