
     RDKit          3D

 34 36  0  0  0  0  0  0  0  0999 V2000
    4.7836    2.0603   16.6836 H   0  0  0  0  0  0  0  0  0  0  0  0
    5.2785    1.6542   17.5590 C   0  0  0  0  0  0  0  0  0  0  0  0
    6.4695    1.0869   17.3192 N   0  0  0  0  0  0  0  0  0  0  0  0
    7.1242    0.6029   18.3737 C   0  0  0  0  0  0  0  0  0  0  0  0
    8.0888    0.1534   18.1479 H   0  0  0  0  0  0  0  0  0  0  0  0
    6.6511    0.6473   19.6971 C   0  0  0  0  0  0  0  0  0  0  0  0
    7.4140   -0.0628   20.7285 C   0  0  0  0  0  0  0  0  0  0  0  0
    7.3525    0.4677   21.9874 O   0  0  0  0  0  0  0  0  0  0  0  0
    7.8854   -0.2096   23.0273 C   0  0  0  0  0  0  0  0  0  0  0  0
    7.6437    0.4531   24.1432 O   0  0  0  0  0  0  0  0  0  0  0  0
    7.9529   -0.1649   25.4117 C   0  0  0  0  0  0  0  0  0  0  0  0
    9.0185   -0.4380   25.4300 H   0  0  0  0  0  0  0  0  0  0  0  0
    7.0748   -1.3689   25.7883 C   0  0  0  0  0  0  0  0  0  0  0  0
    6.0484   -1.1195   25.4970 H   0  0  0  0  0  0  0  0  0  0  0  0
    7.3254   -2.3012   25.2690 H   0  0  0  0  0  0  0  0  0  0  0  0
    7.2124   -1.4640   27.3298 C   0  0  0  0  0  0  0  0  0  0  0  0
    7.9386   -2.2396   27.6015 H   0  0  0  0  0  0  0  0  0  0  0  0
    6.2560   -1.7361   27.7940 H   0  0  0  0  0  0  0  0  0  0  0  0
    7.7269   -0.0649   27.7950 C   0  0  0  0  0  0  0  0  0  0  0  0
    8.7735   -0.1412   28.1277 H   0  0  0  0  0  0  0  0  0  0  0  0
    7.1610    0.3477   28.6396 H   0  0  0  0  0  0  0  0  0  0  0  0
    7.6458    0.8152   26.5339 C   0  0  0  0  0  0  0  0  0  0  0  0
    8.3037    1.6912   26.5468 H   0  0  0  0  0  0  0  0  0  0  0  0
    6.6212    1.1806   26.3774 H   0  0  0  0  0  0  0  0  0  0  0  0
    8.5584   -1.3708   22.8778 C   0  0  0  0  0  0  0  0  0  0  0  0
    8.9869   -1.9127   23.7032 H   0  0  0  0  0  0  0  0  0  0  0  0
    8.6238   -2.0043   21.5781 C   0  0  0  0  0  0  0  0  0  0  0  0
    9.0973   -3.1180   21.4027 O   0  0  0  0  0  0  0  0  0  0  0  0
    8.0517   -1.2215   20.4947 C   0  0  0  0  0  0  0  0  0  0  0  0
    8.0609   -1.6298   19.5064 H   0  0  0  0  0  0  0  0  0  0  0  0
    5.4023    1.2479   19.9316 C   0  0  0  0  0  0  0  0  0  0  0  0
    4.9979    1.2961   20.9444 H   0  0  0  0  0  0  0  0  0  0  0  0
    4.7021    1.7419   18.8312 C   0  0  0  0  0  0  0  0  0  0  0  0
    3.7284    2.2067   18.9426 H   0  0  0  0  0  0  0  0  0  0  0  0
  1  2  1  0
  2  3  2  0
  3  4  1  0
  4  5  1  0
  4  6  2  0
  6  7  1  0
  7  8  1  0
  8  9  1  0
  9 10  1  0
 10 11  1  0
 11 12  1  0
 11 13  1  0
 13 14  1  0
 13 15  1  0
 13 16  1  0
 16 17  1  0
 16 18  1  0
 16 19  1  0
 19 20  1  0
 19 21  1  0
 19 22  1  0
 22 23  1  0
 22 24  1  0
  9 25  2  0
 25 26  1  0
 25 27  1  0
 27 28  2  0
 27 29  1  0
 29 30  1  0
  6 31  1  0
 31 32  1  0
 31 33  2  0
 33 34  1  0
 33  2  1  0
 29  7  2  0
 22 11  1  0
M  END
>  <cnnaffinity>  (1) 
-5.17664

>  <filename>  (1) 
O=c1cc(OC2CCCC2)oc(-c2cccnc2)c1

$$$$
