
     RDKit          3D

 31 33  0  0  0  0  0  0  0  0999 V2000
    4.9217    1.8127   16.9647 H   0  0  0  0  0  0  0  0  0  0  0  0
    5.3859    1.3085   17.8097 C   0  0  0  0  0  0  0  0  0  0  0  0
    6.5483    0.6840   17.5524 N   0  0  0  0  0  0  0  0  0  0  0  0
    7.1498    0.0669   18.5794 C   0  0  0  0  0  0  0  0  0  0  0  0
    8.0986   -0.4220   18.3546 H   0  0  0  0  0  0  0  0  0  0  0  0
    6.6341    0.0044   19.8915 C   0  0  0  0  0  0  0  0  0  0  0  0
    7.3518   -0.7193   20.9722 C   0  0  0  0  0  0  0  0  0  0  0  0
    8.7556   -0.5675   21.1430 C   0  0  0  0  0  0  0  0  0  0  0  0
    9.2960    0.0952   20.4742 H   0  0  0  0  0  0  0  0  0  0  0  0
    9.4429   -1.1998   22.1542 C   0  0  0  0  0  0  0  0  0  0  0  0
   10.8958   -1.0170   22.3085 C   0  0  0  0  0  0  0  0  0  0  0  0
   11.7286   -2.1383   22.1623 C   0  0  0  0  0  0  0  0  0  0  0  0
   11.2387   -3.1050   22.1273 H   0  0  0  0  0  0  0  0  0  0  0  0
   13.1187   -2.0163   22.1479 C   0  0  0  0  0  0  0  0  0  0  0  0
   13.7477   -2.8909   22.0004 H   0  0  0  0  0  0  0  0  0  0  0  0
   13.7070   -0.7827   22.4473 C   0  0  0  0  0  0  0  0  0  0  0  0
   14.7852   -0.7166   22.5818 H   0  0  0  0  0  0  0  0  0  0  0  0
   12.9051    0.3446   22.6494 C   0  0  0  0  0  0  0  0  0  0  0  0
   13.3389    1.3068   22.9029 H   0  0  0  0  0  0  0  0  0  0  0  0
   11.5132    0.2300   22.5515 C   0  0  0  0  0  0  0  0  0  0  0  0
   10.5629    1.6720   22.7908 Cl  0  0  0  0  0  0  0  0  0  0  0  0
    8.7228   -2.1109   23.0583 C   0  0  0  0  0  0  0  0  0  0  0  0
    9.1304   -2.7884   23.9892 O   0  0  0  0  0  0  0  0  0  0  0  0
    7.3546   -2.1956   22.8102 N   0  0  0  0  0  0  0  0  0  0  0  0
    6.9647   -2.7819   23.5338 H   0  0  0  0  0  0  0  0  0  0  0  0
    6.6746   -1.5369   21.8358 C   0  0  0  0  0  0  0  0  0  0  0  0
    5.6052   -1.6981   21.7635 H   0  0  0  0  0  0  0  0  0  0  0  0
    5.4152    0.6636   20.1257 C   0  0  0  0  0  0  0  0  0  0  0  0
    4.9891    0.6728   21.1281 H   0  0  0  0  0  0  0  0  0  0  0  0
    4.7834    1.3283   19.0740 C   0  0  0  0  0  0  0  0  0  0  0  0
    3.8516    1.8663   19.2204 H   0  0  0  0  0  0  0  0  0  0  0  0
  1  2  1  0
  2  3  2  0
  3  4  1  0
  4  5  1  0
  4  6  2  0
  6  7  1  0
  7  8  1  0
  8  9  1  0
  8 10  2  0
 10 11  1  0
 11 12  2  0
 12 13  1  0
 12 14  1  0
 14 15  1  0
 14 16  2  0
 16 17  1  0
 16 18  1  0
 18 19  1  0
 18 20  2  0
 20 21  1  0
 10 22  1  0
 22 23  2  0
 22 24  1  0
 24 25  1  0
 24 26  1  0
 26 27  1  0
  6 28  1  0
 28 29  1  0
 28 30  2  0
 30 31  1  0
 30  2  1  0
 26  7  2  0
 20 11  1  0
M  END
>  <cnnaffinity>  (1) 
-5.72289

>  <filename>  (1) 
O=c1[nH]cc(-c2cccnc2)cc1-c1ccccc1Cl

$$$$
