
     RDKit          3D

 36 38  0  0  0  0  0  0  0  0999 V2000
    4.9082    1.7036   16.8387 H   0  0  0  0  0  0  0  0  0  0  0  0
    5.3368    1.3571   17.7736 C   0  0  0  0  0  0  0  0  0  0  0  0
    6.5410    0.7713   17.6758 N   0  0  0  0  0  0  0  0  0  0  0  0
    7.0832    0.3199   18.8057 C   0  0  0  0  0  0  0  0  0  0  0  0
    8.0773   -0.1097   18.7091 H   0  0  0  0  0  0  0  0  0  0  0  0
    6.4659    0.3891   20.0802 C   0  0  0  0  0  0  0  0  0  0  0  0
    7.0763   -0.2718   21.1829 N   0  0  0  0  0  0  0  0  0  0  0  0
    7.8733   -1.4045   21.0126 C   0  0  0  0  0  0  0  0  0  0  0  0
    7.9564   -1.8577   20.0364 H   0  0  0  0  0  0  0  0  0  0  0  0
    8.4135   -1.7490   22.1971 C   0  0  0  0  0  0  0  0  0  0  0  0
    9.2863   -2.9107   22.5103 C   0  0  0  0  0  0  0  0  0  0  0  0
    9.7721   -2.7869   23.4840 H   0  0  0  0  0  0  0  0  0  0  0  0
   10.0871   -2.9562   21.7694 H   0  0  0  0  0  0  0  0  0  0  0  0
    8.4855   -4.2154   22.4631 C   0  0  0  0  0  0  0  0  0  0  0  0
    8.0112   -4.3407   21.4879 H   0  0  0  0  0  0  0  0  0  0  0  0
    9.1016   -5.1062   22.6252 H   0  0  0  0  0  0  0  0  0  0  0  0
    7.4001   -4.2054   23.3708 O   0  0  0  0  0  0  0  0  0  0  0  0
    7.6672   -4.1421   24.7050 C   0  0  0  0  0  0  0  0  0  0  0  0
    8.8411   -4.6280   25.3024 C   0  0  0  0  0  0  0  0  0  0  0  0
    9.6648   -4.9602   24.6800 H   0  0  0  0  0  0  0  0  0  0  0  0
    8.9375   -4.6641   26.6962 C   0  0  0  0  0  0  0  0  0  0  0  0
    9.8360   -5.0845   27.1474 H   0  0  0  0  0  0  0  0  0  0  0  0
    7.8953   -4.1796   27.4867 C   0  0  0  0  0  0  0  0  0  0  0  0
    7.9648   -4.2573   28.5631 H   0  0  0  0  0  0  0  0  0  0  0  0
    6.7481   -3.6458   26.8857 C   0  0  0  0  0  0  0  0  0  0  0  0
    5.9367   -3.2549   27.4951 H   0  0  0  0  0  0  0  0  0  0  0  0
    6.6327   -3.6302   25.4974 C   0  0  0  0  0  0  0  0  0  0  0  0
    5.7535   -3.2462   24.9892 H   0  0  0  0  0  0  0  0  0  0  0  0
    7.8819   -0.8671   23.1247 N   0  0  0  0  0  0  0  0  0  0  0  0
    7.9472   -0.8691   24.1263 H   0  0  0  0  0  0  0  0  0  0  0  0
    7.0773    0.0872   22.5481 C   0  0  0  0  0  0  0  0  0  0  0  0
    6.5405    1.0110   23.1299 O   0  0  0  0  0  0  0  0  0  0  0  0
    5.2452    1.0693   20.1805 C   0  0  0  0  0  0  0  0  0  0  0  0
    4.7951    1.2430   21.1594 H   0  0  0  0  0  0  0  0  0  0  0  0
    4.6651    1.5311   18.9888 C   0  0  0  0  0  0  0  0  0  0  0  0
    3.7103    2.0442   18.9941 H   0  0  0  0  0  0  0  0  0  0  0  0
  1  2  1  0
  2  3  2  0
  3  4  1  0
  4  5  1  0
  4  6  2  0
  6  7  1  0
  7  8  1  0
  8  9  1  0
  8 10  2  0
 10 11  1  0
 11 12  1  0
 11 13  1  0
 11 14  1  0
 14 15  1  0
 14 16  1  0
 14 17  1  0
 17 18  1  0
 18 19  2  0
 19 20  1  0
 19 21  1  0
 21 22  1  0
 21 23  2  0
 23 24  1  0
 23 25  1  0
 25 26  1  0
 25 27  2  0
 27 28  1  0
 10 29  1  0
 29 30  1  0
 29 31  1  0
 31 32  2  0
  6 33  1  0
 33 34  1  0
 33 35  2  0
 35 36  1  0
 35  2  1  0
 31  7  1  0
 27 18  1  0
M  END
>  <cnnaffinity>  (1) 
-5.20552

>  <filename>  (1) 
O=c1[nH]c(CCOc2ccccc2)cn1-c1cccnc1

$$$$
