
     RDKit          3D

 31 33  0  0  0  0  0  0  0  0999 V2000
    4.9432    1.7941   16.7548 H   0  0  0  0  0  0  0  0  0  0  0  0
    5.3246    1.3914   17.6893 C   0  0  0  0  0  0  0  0  0  0  0  0
    6.5196    0.7896   17.6062 N   0  0  0  0  0  0  0  0  0  0  0  0
    7.0244    0.2893   18.7395 C   0  0  0  0  0  0  0  0  0  0  0  0
    7.9959   -0.1908   18.6448 H   0  0  0  0  0  0  0  0  0  0  0  0
    6.4036    0.3504   20.0048 C   0  0  0  0  0  0  0  0  0  0  0  0
    7.1128   -0.2267   21.2306 C   0  0  2  0  0  0  0  0  0  0  0  0
    6.4931   -0.0429   22.1137 H   0  0  0  0  0  0  0  0  0  0  0  0
    8.5270    0.3930   21.4457 C   0  0  0  0  0  0  0  0  0  0  0  0
    8.7331    0.5161   22.5232 H   0  0  0  0  0  0  0  0  0  0  0  0
    8.6498    1.3739   20.9690 H   0  0  0  0  0  0  0  0  0  0  0  0
    9.4073   -0.5855   20.8262 N   0  0  0  0  0  0  0  0  0  0  0  0
   10.4128   -0.5911   20.9119 H   0  0  0  0  0  0  0  0  0  0  0  0
    8.9135   -1.8478   20.9255 C   0  0  0  0  0  0  0  0  0  0  0  0
    9.6015   -2.8378   20.8576 O   0  0  0  0  0  0  0  0  0  0  0  0
    7.3979   -1.7580   21.0706 C   0  0  1  0  0  0  0  0  0  0  0  0
    7.0217   -2.0920   20.0974 H   0  0  0  0  0  0  0  0  0  0  0  0
    6.8074   -2.7285   22.0927 C   0  0  0  0  0  0  0  0  0  0  0  0
    5.7190   -3.5460   21.7123 C   0  0  0  0  0  0  0  0  0  0  0  0
    5.3103   -3.4632   20.7070 H   0  0  0  0  0  0  0  0  0  0  0  0
    5.1422   -4.4597   22.4997 N   0  0  0  0  0  0  0  0  0  0  0  0
    5.6436   -4.6127   23.7349 C   0  0  0  0  0  0  0  0  0  0  0  0
    5.1818   -5.3586   24.3776 H   0  0  0  0  0  0  0  0  0  0  0  0
    6.7280   -3.8558   24.1997 C   0  0  0  0  0  0  0  0  0  0  0  0
    7.1805   -4.0634   25.4458 F   0  0  0  0  0  0  0  0  0  0  0  0
    7.3296   -2.8967   23.3864 C   0  0  0  0  0  0  0  0  0  0  0  0
    8.1826   -2.3262   23.7666 H   0  0  0  0  0  0  0  0  0  0  0  0
    5.1520    0.9884   20.0600 C   0  0  0  0  0  0  0  0  0  0  0  0
    4.6134    1.0865   21.0061 H   0  0  0  0  0  0  0  0  0  0  0  0
    4.6022    1.5108   18.8812 C   0  0  0  0  0  0  0  0  0  0  0  0
    3.6383    2.0142   18.8629 H   0  0  0  0  0  0  0  0  0  0  0  0
  1  2  1  0
  2  3  2  0
  3  4  1  0
  4  5  1  0
  4  6  2  0
  6  7  1  0
  7  8  1  1
  7  9  1  0
  9 10  1  0
  9 11  1  0
  9 12  1  0
 12 13  1  0
 12 14  1  0
 14 15  2  0
 14 16  1  0
 16 17  1  6
 16 18  1  0
 18 19  2  0
 19 20  1  0
 19 21  1  0
 21 22  2  0
 22 23  1  0
 22 24  1  0
 24 25  1  0
 24 26  2  0
 26 27  1  0
  6 28  1  0
 28 29  1  0
 28 30  2  0
 30 31  1  0
 30  2  1  0
 16  7  1  0
 26 18  1  0
M  END
>  <cnnaffinity>  (1) 
-4.83473

>  <filename>  (1) 
O=C1NC[C@@H](c2cccnc2)[C@@H]1c1cncc(F)c1

$$$$
