
     RDKit          3D

 34 37  0  0  0  0  0  0  0  0999 V2000
    4.9158    1.7786   16.9984 H   0  0  0  0  0  0  0  0  0  0  0  0
    5.4022    1.2936   17.8425 C   0  0  0  0  0  0  0  0  0  0  0  0
    6.5631    0.6718   17.5819 N   0  0  0  0  0  0  0  0  0  0  0  0
    7.1717    0.0511   18.5981 C   0  0  0  0  0  0  0  0  0  0  0  0
    8.1228   -0.4249   18.3816 H   0  0  0  0  0  0  0  0  0  0  0  0
    6.6447   -0.0093   19.8987 C   0  0  0  0  0  0  0  0  0  0  0  0
    7.3362   -0.7085   20.9427 N   0  0  0  0  0  0  0  0  0  0  0  0
    6.5765   -1.6119   21.6370 N   0  0  0  0  0  0  0  0  0  0  0  0
    7.1380   -2.2969   22.6113 C   0  0  0  0  0  0  0  0  0  0  0  0
    6.2953   -3.2718   23.3133 C   0  0  0  0  0  0  0  0  0  0  0  0
    5.2959   -4.0093   22.7426 C   0  0  0  0  0  0  0  0  0  0  0  0
    4.9616   -3.9845   21.7088 H   0  0  0  0  0  0  0  0  0  0  0  0
    4.7449   -4.8284   23.6968 N   0  0  0  0  0  0  0  0  0  0  0  0
    3.9787   -5.4613   23.5722 H   0  0  0  0  0  0  0  0  0  0  0  0
    5.3620   -4.6148   24.9063 C   0  0  0  0  0  0  0  0  0  0  0  0
    5.1074   -5.1852   26.1604 C   0  0  0  0  0  0  0  0  0  0  0  0
    4.3265   -5.9356   26.2719 H   0  0  0  0  0  0  0  0  0  0  0  0
    5.8760   -4.7425   27.2315 C   0  0  0  0  0  0  0  0  0  0  0  0
    5.7062   -5.1601   28.2214 H   0  0  0  0  0  0  0  0  0  0  0  0
    6.8740   -3.7470   27.0480 C   0  0  0  0  0  0  0  0  0  0  0  0
    7.4837   -3.4238   27.8770 H   0  0  0  0  0  0  0  0  0  0  0  0
    7.1121   -3.1831   25.8063 C   0  0  0  0  0  0  0  0  0  0  0  0
    7.8472   -2.3924   25.6785 H   0  0  0  0  0  0  0  0  0  0  0  0
    6.3564   -3.6319   24.7075 C   0  0  0  0  0  0  0  0  0  0  0  0
    8.5356   -2.1201   22.9449 C   0  0  0  0  0  0  0  0  0  0  0  0
    8.9822   -2.7378   23.7248 H   0  0  0  0  0  0  0  0  0  0  0  0
    9.2865   -1.2107   22.2693 C   0  0  0  0  0  0  0  0  0  0  0  0
   10.3359   -1.0181   22.4633 H   0  0  0  0  0  0  0  0  0  0  0  0
    8.7248   -0.3955   21.2011 C   0  0  0  0  0  0  0  0  0  0  0  0
    9.3349    0.4457   20.5637 O   0  0  0  0  0  0  0  0  0  0  0  0
    5.4361    0.6420   20.1657 C   0  0  0  0  0  0  0  0  0  0  0  0
    5.0176    0.6050   21.1734 H   0  0  0  0  0  0  0  0  0  0  0  0
    4.8092    1.3159   19.1120 C   0  0  0  0  0  0  0  0  0  0  0  0
    3.8740    1.8460   19.2632 H   0  0  0  0  0  0  0  0  0  0  0  0
  1  2  1  0
  2  3  2  0
  3  4  1  0
  4  5  1  0
  4  6  2  0
  6  7  1  0
  7  8  1  0
  8  9  2  0
  9 10  1  0
 10 11  2  0
 11 12  1  0
 11 13  1  0
 13 14  1  0
 13 15  1  0
 15 16  2  0
 16 17  1  0
 16 18  1  0
 18 19  1  0
 18 20  2  0
 20 21  1  0
 20 22  1  0
 22 23  1  0
 22 24  2  0
  9 25  1  0
 25 26  1  0
 25 27  2  0
 27 28  1  0
 27 29  1  0
 29 30  2  0
  6 31  1  0
 31 32  1  0
 31 33  2  0
 33 34  1  0
 33  2  1  0
 29  7  1  0
 24 10  1  0
 24 15  1  0
M  END
>  <cnnaffinity>  (1) 
-5.47927

>  <filename>  (1) 
O=c1ccc(-c2c[nH]c3ccccc23)nn1-c1cccnc1

$$$$
