
     RDKit          3D

 30 32  0  0  0  0  0  0  0  0999 V2000
    5.0513    1.7204   16.9474 H   0  0  0  0  0  0  0  0  0  0  0  0
    5.5296    1.2534   17.8059 C   0  0  0  0  0  0  0  0  0  0  0  0
    6.7065    0.6518   17.5724 N   0  0  0  0  0  0  0  0  0  0  0  0
    7.3260    0.0766   18.6100 C   0  0  0  0  0  0  0  0  0  0  0  0
    8.2910   -0.3870   18.4074 H   0  0  0  0  0  0  0  0  0  0  0  0
    6.7831    0.0380   19.9032 C   0  0  0  0  0  0  0  0  0  0  0  0
    7.5010   -0.6799   20.9836 C   0  0  0  0  0  0  0  0  0  0  0  0
    8.8059   -0.5854   21.0102 N   0  0  0  0  0  0  0  0  0  0  0  0
    9.4859   -1.2081   22.0353 N   0  0  0  0  0  0  0  0  0  0  0  0
   10.8990   -0.9770   22.0888 C   0  0  0  0  0  0  0  0  0  0  0  0
   11.7601   -2.0874   22.1579 C   0  0  0  0  0  0  0  0  0  0  0  0
   11.3408   -3.0790   22.2815 H   0  0  0  0  0  0  0  0  0  0  0  0
   13.1403   -1.9080   22.1030 C   0  0  0  0  0  0  0  0  0  0  0  0
   13.7878   -2.7822   22.0666 H   0  0  0  0  0  0  0  0  0  0  0  0
   13.6882   -0.6275   22.1620 C   0  0  0  0  0  0  0  0  0  0  0  0
   14.7602   -0.4858   22.2427 H   0  0  0  0  0  0  0  0  0  0  0  0
   12.8475    0.4875   22.1478 C   0  0  0  0  0  0  0  0  0  0  0  0
   13.2491    1.4979   22.1425 H   0  0  0  0  0  0  0  0  0  0  0  0
   11.4596    0.3201   22.0758 C   0  0  0  0  0  0  0  0  0  0  0  0
   10.4842    1.7568   22.0364 Cl  0  0  0  0  0  0  0  0  0  0  0  0
    8.8747   -2.0251   23.0552 C   0  0  0  0  0  0  0  0  0  0  0  0
    9.5228   -2.6006   23.9144 O   0  0  0  0  0  0  0  0  0  0  0  0
    7.4191   -2.0761   22.9595 C   0  0  0  0  0  0  0  0  0  0  0  0
    6.9289   -2.6616   23.7307 H   0  0  0  0  0  0  0  0  0  0  0  0
    6.7600   -1.4384   21.9590 C   0  0  0  0  0  0  0  0  0  0  0  0
    5.6822   -1.5015   21.8420 H   0  0  0  0  0  0  0  0  0  0  0  0
    5.5531    0.6705   20.1337 C   0  0  0  0  0  0  0  0  0  0  0  0
    5.1128    0.6888   21.1337 H   0  0  0  0  0  0  0  0  0  0  0  0
    4.9187    1.2948   19.0640 C   0  0  0  0  0  0  0  0  0  0  0  0
    3.9721    1.8068   19.1939 H   0  0  0  0  0  0  0  0  0  0  0  0
  1  2  1  0
  2  3  2  0
  3  4  1  0
  4  5  1  0
  4  6  2  0
  6  7  1  0
  7  8  2  0
  8  9  1  0
  9 10  1  0
 10 11  2  0
 11 12  1  0
 11 13  1  0
 13 14  1  0
 13 15  2  0
 15 16  1  0
 15 17  1  0
 17 18  1  0
 17 19  2  0
 19 20  1  0
  9 21  1  0
 21 22  2  0
 21 23  1  0
 23 24  1  0
 23 25  2  0
 25 26  1  0
  6 27  1  0
 27 28  1  0
 27 29  2  0
 29 30  1  0
 29  2  1  0
 25  7  1  0
 19 10  1  0
M  END
>  <cnnaffinity>  (1) 
-5.71623

>  <filename>  (1) 
O=c1ccc(-c2cccnc2)nn1-c1ccccc1Cl

$$$$
