
     RDKit          3D

 36 38  0  0  0  0  0  0  0  0999 V2000
    5.0558    1.8639   16.9047 H   0  0  0  0  0  0  0  0  0  0  0  0
    5.4812    1.3160   17.7433 C   0  0  0  0  0  0  0  0  0  0  0  0
    6.6448    0.6892   17.5107 N   0  0  0  0  0  0  0  0  0  0  0  0
    7.1952    0.0218   18.5333 C   0  0  0  0  0  0  0  0  0  0  0  0
    8.1526   -0.4604   18.3286 H   0  0  0  0  0  0  0  0  0  0  0  0
    6.6227   -0.0779   19.8144 C   0  0  0  0  0  0  0  0  0  0  0  0
    7.3316   -0.7881   20.9608 C   0  0  2  0  0  0  0  0  0  0  0  0
    8.0983   -1.4569   20.5469 H   0  0  0  0  0  0  0  0  0  0  0  0
    6.4090   -1.7187   21.7730 C   0  0  0  0  0  0  0  0  0  0  0  0
    5.6144   -2.5477   21.3760 O   0  0  0  0  0  0  0  0  0  0  0  0
    6.6647   -1.4868   23.0815 N   0  0  0  0  0  0  0  0  0  0  0  0
    6.0282   -1.9267   23.7248 H   0  0  0  0  0  0  0  0  0  0  0  0
    7.5410   -0.3819   23.3909 C   0  0  0  0  0  0  0  0  0  0  0  0
    7.0247    0.3631   24.0070 H   0  0  0  0  0  0  0  0  0  0  0  0
    8.4050   -0.7287   23.9769 H   0  0  0  0  0  0  0  0  0  0  0  0
    7.9280    0.2095   22.0046 C   0  0  1  0  0  0  0  0  0  0  0  0
    7.3827    1.1579   21.8905 H   0  0  0  0  0  0  0  0  0  0  0  0
    9.4122    0.5396   21.8821 C   0  0  0  0  0  0  0  0  0  0  0  0
   10.3966   -0.4586   22.0072 C   0  0  0  0  0  0  0  0  0  0  0  0
   10.0993   -1.4992   22.1219 H   0  0  0  0  0  0  0  0  0  0  0  0
   11.7569   -0.1269   22.0505 C   0  0  0  0  0  0  0  0  0  0  0  0
   12.5001   -0.9125   22.1456 H   0  0  0  0  0  0  0  0  0  0  0  0
   12.1811    1.2072   22.0197 C   0  0  0  0  0  0  0  0  0  0  0  0
   13.2306    1.4838   22.0624 H   0  0  0  0  0  0  0  0  0  0  0  0
   11.1950    2.1875   21.9387 C   0  0  0  0  0  0  0  0  0  0  0  0
   11.4511    3.5442   22.1270 O   0  0  0  0  0  0  0  0  0  0  0  0
   12.5346    4.1350   21.5977 C   0  0  0  0  0  0  0  0  0  0  0  0
   12.3725    5.4474   21.7162 F   0  0  0  0  0  0  0  0  0  0  0  0
   13.6576    3.7961   22.2623 F   0  0  0  0  0  0  0  0  0  0  0  0
   12.7167    3.8573   20.3013 F   0  0  0  0  0  0  0  0  0  0  0  0
    9.8466    1.8732   21.7938 C   0  0  0  0  0  0  0  0  0  0  0  0
    9.1714    2.7119   21.6404 H   0  0  0  0  0  0  0  0  0  0  0  0
    5.4017    0.5789   20.0300 C   0  0  0  0  0  0  0  0  0  0  0  0
    4.9191    0.5405   21.0104 H   0  0  0  0  0  0  0  0  0  0  0  0
    4.8207    1.2896   18.9762 C   0  0  0  0  0  0  0  0  0  0  0  0
    3.8975    1.8460   19.1023 H   0  0  0  0  0  0  0  0  0  0  0  0
  1  2  1  0
  2  3  2  0
  3  4  1  0
  4  5  1  0
  4  6  2  0
  6  7  1  0
  7  8  1  6
  7  9  1  0
  9 10  2  0
  9 11  1  0
 11 12  1  0
 11 13  1  0
 13 14  1  0
 13 15  1  0
 13 16  1  0
 16 17  1  6
 16 18  1  0
 18 19  2  0
 19 20  1  0
 19 21  1  0
 21 22  1  0
 21 23  2  0
 23 24  1  0
 23 25  1  0
 25 26  1  0
 26 27  1  0
 27 28  1  0
 27 29  1  0
 27 30  1  0
 25 31  2  0
 31 32  1  0
  6 33  1  0
 33 34  1  0
 33 35  2  0
 35 36  1  0
 35  2  1  0
 16  7  1  0
 31 18  1  0
M  END
>  <cnnaffinity>  (1) 
-5.72208

>  <filename>  (1) 
O=C1NC[C@@H](c2cccc(OC(F)(F)F)c2)[C@@H]1c1cccnc1

$$$$
