
     RDKit          3D

 32 34  0  0  0  0  0  0  0  0999 V2000
    2.8593   -5.5898   23.8435 H   0  0  0  0  0  0  0  0  0  0  0  0
    3.3566   -5.0826   23.1921 O   0  0  0  0  0  0  0  0  0  0  0  0
    4.3772   -4.4666   23.8331 C   0  0  0  0  0  0  0  0  0  0  0  0
    4.5701   -4.5978   25.2037 C   0  0  0  0  0  0  0  0  0  0  0  0
    3.9397   -5.1969   25.8534 H   0  0  0  0  0  0  0  0  0  0  0  0
    5.6360   -3.9153   25.7838 C   0  0  0  0  0  0  0  0  0  0  0  0
    5.7883   -4.0675   27.1200 O   0  0  0  0  0  0  0  0  0  0  0  0
    6.5550   -3.5516   27.3898 H   0  0  0  0  0  0  0  0  0  0  0  0
    6.5028   -3.1218   25.0236 C   0  0  0  0  0  0  0  0  0  0  0  0
    7.3160   -2.5698   25.4789 H   0  0  0  0  0  0  0  0  0  0  0  0
    6.2829   -3.0044   23.6396 C   0  0  0  0  0  0  0  0  0  0  0  0
    7.1496   -2.1954   22.8069 N   0  0  0  0  0  0  0  0  0  0  0  0
    6.5681   -1.5126   21.7616 N   0  0  0  0  0  0  0  0  0  0  0  0
    7.3095   -0.7503   20.9943 C   0  0  0  0  0  0  0  0  0  0  0  0
    6.6041   -0.0307   19.9000 C   0  0  0  0  0  0  0  0  0  0  0  0
    7.1448    0.0383   18.6017 C   0  0  0  0  0  0  0  0  0  0  0  0
    8.1136   -0.4144   18.3944 H   0  0  0  0  0  0  0  0  0  0  0  0
    6.5538    0.6694   17.5856 N   0  0  0  0  0  0  0  0  0  0  0  0
    5.3956    1.2952   17.8409 C   0  0  0  0  0  0  0  0  0  0  0  0
    4.9270    1.7889   16.9920 H   0  0  0  0  0  0  0  0  0  0  0  0
    4.7948    1.3202   19.1037 C   0  0  0  0  0  0  0  0  0  0  0  0
    3.8669    1.8585   19.2454 H   0  0  0  0  0  0  0  0  0  0  0  0
    5.4029    0.6373   20.1560 C   0  0  0  0  0  0  0  0  0  0  0  0
    4.9932    0.6193   21.1670 H   0  0  0  0  0  0  0  0  0  0  0  0
    8.7940   -0.5671   21.1883 C   0  0  0  0  0  0  0  0  0  0  0  0
    9.5003    0.1645   20.5059 O   0  0  0  0  0  0  0  0  0  0  0  0
    9.3323   -1.3655   22.2801 C   0  0  0  0  0  0  0  0  0  0  0  0
   10.3951   -1.2899   22.4492 H   0  0  0  0  0  0  0  0  0  0  0  0
    8.5079   -2.1243   23.0261 C   0  0  0  0  0  0  0  0  0  0  0  0
    8.8886   -2.7365   23.8385 H   0  0  0  0  0  0  0  0  0  0  0  0
    5.2188   -3.6796   23.0456 C   0  0  0  0  0  0  0  0  0  0  0  0
    5.0147   -3.5948   21.9905 H   0  0  0  0  0  0  0  0  0  0  0  0
  1  2  1  0
  2  3  1  0
  3  4  2  0
  4  5  1  0
  4  6  1  0
  6  7  1  0
  7  8  1  0
  6  9  2  0
  9 10  1  0
  9 11  1  0
 11 12  1  0
 12 13  1  0
 13 14  2  0
 14 15  1  0
 15 16  2  0
 16 17  1  0
 16 18  1  0
 18 19  2  0
 19 20  1  0
 19 21  1  0
 21 22  1  0
 21 23  2  0
 23 24  1  0
 14 25  1  0
 25 26  2  0
 25 27  1  0
 27 28  1  0
 27 29  2  0
 29 30  1  0
 11 31  2  0
 31 32  1  0
 31  3  1  0
 29 12  1  0
 23 15  1  0
M  END
>  <cnnaffinity>  (1) 
-5.31502

>  <filename>  (1) 
O=c1ccn(-c2cc(O)cc(O)c2)nc1-c1cccnc1

$$$$
