
     RDKit          3D

 29 31  0  0  0  0  0  0  0  0999 V2000
    4.9223    1.7982   16.9741 H   0  0  0  0  0  0  0  0  0  0  0  0
    5.3925    1.2981   17.8202 C   0  0  0  0  0  0  0  0  0  0  0  0
    6.5563    0.6764   17.5715 N   0  0  0  0  0  0  0  0  0  0  0  0
    7.1627    0.0536   18.5901 C   0  0  0  0  0  0  0  0  0  0  0  0
    8.1213   -0.4042   18.3430 H   0  0  0  0  0  0  0  0  0  0  0  0
    6.6480    0.0044   19.8995 C   0  0  0  0  0  0  0  0  0  0  0  0
    7.3359   -0.6529   21.0135 C   0  0  0  0  0  0  0  0  0  0  0  0
    7.2390   -0.4330   22.3440 C   0  0  0  0  0  0  0  0  0  0  0  0
    6.6455    0.2946   22.8697 H   0  0  0  0  0  0  0  0  0  0  0  0
    8.0906   -1.3132   22.9999 N   0  0  0  0  0  0  0  0  0  0  0  0
    8.2745   -1.4063   24.3924 C   0  0  0  0  0  0  0  0  0  0  0  0
    8.2378   -0.2319   25.1487 C   0  0  0  0  0  0  0  0  0  0  0  0
    8.0932    0.7484   24.7135 H   0  0  0  0  0  0  0  0  0  0  0  0
    8.4191   -0.3318   26.5167 C   0  0  0  0  0  0  0  0  0  0  0  0
    8.3751    0.7810   27.2607 F   0  0  0  0  0  0  0  0  0  0  0  0
    8.6368   -1.5427   27.1550 C   0  0  0  0  0  0  0  0  0  0  0  0
    8.8142   -1.5687   28.2155 H   0  0  0  0  0  0  0  0  0  0  0  0
    8.6449   -2.6873   26.3676 C   0  0  0  0  0  0  0  0  0  0  0  0
    8.8455   -3.8700   26.9623 F   0  0  0  0  0  0  0  0  0  0  0  0
    8.4699   -2.6537   24.9921 C   0  0  0  0  0  0  0  0  0  0  0  0
    8.5072   -3.5659   24.4126 H   0  0  0  0  0  0  0  0  0  0  0  0
    8.7285   -2.1162   22.0604 C   0  0  0  0  0  0  0  0  0  0  0  0
    9.5137   -3.0278   22.2037 O   0  0  0  0  0  0  0  0  0  0  0  0
    8.2661   -1.6614   20.8536 N   0  0  0  0  0  0  0  0  0  0  0  0
    8.5472   -2.1561   20.0315 H   0  0  0  0  0  0  0  0  0  0  0  0
    5.4284    0.6586   20.1343 C   0  0  0  0  0  0  0  0  0  0  0  0
    4.9897    0.6418   21.1341 H   0  0  0  0  0  0  0  0  0  0  0  0
    4.7964    1.3181   19.0839 C   0  0  0  0  0  0  0  0  0  0  0  0
    3.8659    1.8506   19.2352 H   0  0  0  0  0  0  0  0  0  0  0  0
  1  2  1  0
  2  3  2  0
  3  4  1  0
  4  5  1  0
  4  6  2  0
  6  7  1  0
  7  8  2  0
  8  9  1  0
  8 10  1  0
 10 11  1  0
 11 12  2  0
 12 13  1  0
 12 14  1  0
 14 15  1  0
 14 16  2  0
 16 17  1  0
 16 18  1  0
 18 19  1  0
 18 20  2  0
 20 21  1  0
 10 22  1  0
 22 23  2  0
 22 24  1  0
 24 25  1  0
  6 26  1  0
 26 27  1  0
 26 28  2  0
 28 29  1  0
 28  2  1  0
 24  7  1  0
 20 11  1  0
M  END
>  <cnnaffinity>  (1) 
-5.46098

>  <filename>  (1) 
O=c1[nH]c(-c2cccnc2)cn1-c1cc(F)cc(F)c1

$$$$
