
     RDKit          3D

 33 35  0  0  0  0  0  0  0  0999 V2000
    4.9139    1.7771   16.9999 H   0  0  0  0  0  0  0  0  0  0  0  0
    5.4023    1.2930   17.8435 C   0  0  0  0  0  0  0  0  0  0  0  0
    6.5645    0.6729   17.5835 N   0  0  0  0  0  0  0  0  0  0  0  0
    7.1730    0.0510   18.6000 C   0  0  0  0  0  0  0  0  0  0  0  0
    8.1243   -0.4264   18.3817 H   0  0  0  0  0  0  0  0  0  0  0  0
    6.6444   -0.0139   19.9025 C   0  0  0  0  0  0  0  0  0  0  0  0
    7.3330   -0.7154   20.9444 N   0  0  0  0  0  0  0  0  0  0  0  0
    6.5712   -1.6124   21.6560 N   0  0  0  0  0  0  0  0  0  0  0  0
    7.1429   -2.2907   22.6161 C   0  0  0  0  0  0  0  0  0  0  0  0
    6.2927   -3.2878   23.3805 C   0  0  0  0  0  0  0  0  0  0  0  0
    5.3160   -3.3003   22.8907 H   0  0  0  0  0  0  0  0  0  0  0  0
    6.1160   -2.8951   24.8731 C   0  0  0  0  0  0  0  0  0  0  0  0
    5.1667   -2.3737   25.0345 H   0  0  0  0  0  0  0  0  0  0  0  0
    6.9124   -2.2145   25.2042 H   0  0  0  0  0  0  0  0  0  0  0  0
    6.1895   -4.2017   25.6663 C   0  0  0  0  0  0  0  0  0  0  0  0
    6.5591   -4.0431   26.6852 H   0  0  0  0  0  0  0  0  0  0  0  0
    5.1919   -4.6527   25.7415 H   0  0  0  0  0  0  0  0  0  0  0  0
    7.1194   -5.1053   24.8561 C   0  0  0  0  0  0  0  0  0  0  0  0
    8.1660   -4.9216   25.1315 H   0  0  0  0  0  0  0  0  0  0  0  0
    6.9152   -6.1623   25.0439 H   0  0  0  0  0  0  0  0  0  0  0  0
    6.8820   -4.7298   23.3856 C   0  0  0  0  0  0  0  0  0  0  0  0
    6.1631   -5.4176   22.9270 H   0  0  0  0  0  0  0  0  0  0  0  0
    7.8066   -4.8137   22.8002 H   0  0  0  0  0  0  0  0  0  0  0  0
    8.5277   -2.1018   22.9650 C   0  0  0  0  0  0  0  0  0  0  0  0
    8.9688   -2.6791   23.7788 H   0  0  0  0  0  0  0  0  0  0  0  0
    9.2787   -1.1934   22.2852 C   0  0  0  0  0  0  0  0  0  0  0  0
   10.3206   -0.9833   22.4896 H   0  0  0  0  0  0  0  0  0  0  0  0
    8.7148   -0.3981   21.2090 C   0  0  0  0  0  0  0  0  0  0  0  0
    9.3270    0.4441   20.5692 O   0  0  0  0  0  0  0  0  0  0  0  0
    5.4374    0.6428   20.1655 C   0  0  0  0  0  0  0  0  0  0  0  0
    5.0162    0.6114   21.1705 H   0  0  0  0  0  0  0  0  0  0  0  0
    4.8090    1.3154   19.1124 C   0  0  0  0  0  0  0  0  0  0  0  0
    3.8736    1.8460   19.2645 H   0  0  0  0  0  0  0  0  0  0  0  0
  1  2  1  0
  2  3  2  0
  3  4  1  0
  4  5  1  0
  4  6  2  0
  6  7  1  0
  7  8  1  0
  8  9  2  0
  9 10  1  0
 10 11  1  0
 10 12  1  0
 12 13  1  0
 12 14  1  0
 12 15  1  0
 15 16  1  0
 15 17  1  0
 15 18  1  0
 18 19  1  0
 18 20  1  0
 18 21  1  0
 21 22  1  0
 21 23  1  0
  9 24  1  0
 24 25  1  0
 24 26  2  0
 26 27  1  0
 26 28  1  0
 28 29  2  0
  6 30  1  0
 30 31  1  0
 30 32  2  0
 32 33  1  0
 32  2  1  0
 28  7  1  0
 21 10  1  0
M  END
>  <cnnaffinity>  (1) 
-5.25374

>  <filename>  (1) 
O=c1ccc(C2CCCC2)nn1-c1cccnc1

$$$$
