
     RDKit          3D

 34 36  0  0  0  0  0  0  0  0999 V2000
    4.3365   -5.9657   24.4054 H   0  0  0  0  0  0  0  0  0  0  0  0
    5.0914   -5.4988   24.7917 O   0  0  0  0  0  0  0  0  0  0  0  0
    5.6063   -4.6423   23.8644 C   0  0  0  0  0  0  0  0  0  0  0  0
    6.6936   -3.8574   24.2566 C   0  0  0  0  0  0  0  0  0  0  0  0
    7.0803   -4.0308   25.2574 H   0  0  0  0  0  0  0  0  0  0  0  0
    7.2572   -2.9157   23.3823 C   0  0  0  0  0  0  0  0  0  0  0  0
    8.1197   -2.3324   23.7064 H   0  0  0  0  0  0  0  0  0  0  0  0
    6.7431   -2.7548   22.0880 C   0  0  0  0  0  0  0  0  0  0  0  0
    7.3349   -1.7980   21.0599 C   0  0  2  0  0  0  0  0  0  0  0  0
    6.9482   -2.1184   20.0820 H   0  0  0  0  0  0  0  0  0  0  0  0
    8.8424   -1.9446   20.9273 C   0  0  0  0  0  0  0  0  0  0  0  0
    9.4932   -2.9598   20.8776 O   0  0  0  0  0  0  0  0  0  0  0  0
    9.3844   -0.7000   20.8237 N   0  0  0  0  0  0  0  0  0  0  0  0
   10.3869   -0.7272   20.9367 H   0  0  0  0  0  0  0  0  0  0  0  0
    8.5353    0.3175   21.4236 C   0  0  0  0  0  0  0  0  0  0  0  0
    8.7405    0.4628   22.4991 H   0  0  0  0  0  0  0  0  0  0  0  0
    8.6908    1.2823   20.9258 H   0  0  0  0  0  0  0  0  0  0  0  0
    7.0978   -0.2543   21.2227 C   0  0  1  0  0  0  0  0  0  0  0  0
    6.4931   -0.0357   22.1113 H   0  0  0  0  0  0  0  0  0  0  0  0
    6.3960    0.3448   20.0013 C   0  0  0  0  0  0  0  0  0  0  0  0
    7.0170    0.2808   18.7361 C   0  0  0  0  0  0  0  0  0  0  0  0
    7.9887   -0.2000   18.6415 H   0  0  0  0  0  0  0  0  0  0  0  0
    6.5119    0.7843   17.6026 N   0  0  0  0  0  0  0  0  0  0  0  0
    5.3214    1.3950   17.6846 C   0  0  0  0  0  0  0  0  0  0  0  0
    4.9372    1.7970   16.7488 H   0  0  0  0  0  0  0  0  0  0  0  0
    4.6028    1.5212   18.8777 C   0  0  0  0  0  0  0  0  0  0  0  0
    3.6447    2.0339   18.8613 H   0  0  0  0  0  0  0  0  0  0  0  0
    5.1494    0.9931   20.0564 C   0  0  0  0  0  0  0  0  0  0  0  0
    4.6132    1.0973   21.0032 H   0  0  0  0  0  0  0  0  0  0  0  0
    5.6829   -3.5904   21.6804 C   0  0  0  0  0  0  0  0  0  0  0  0
    5.3147   -3.5200   20.6607 H   0  0  0  0  0  0  0  0  0  0  0  0
    5.1125   -4.5259   22.5396 C   0  0  0  0  0  0  0  0  0  0  0  0
    4.0774   -5.3557   22.1767 O   0  0  0  0  0  0  0  0  0  0  0  0
    3.8752   -5.2330   21.2415 H   0  0  0  0  0  0  0  0  0  0  0  0
  1  2  1  0
  2  3  1  0
  3  4  2  0
  4  5  1  0
  4  6  1  0
  6  7  1  0
  6  8  2  0
  8  9  1  0
  9 10  1  6
  9 11  1  0
 11 12  2  0
 11 13  1  0
 13 14  1  0
 13 15  1  0
 15 16  1  0
 15 17  1  0
 15 18  1  0
 18 19  1  1
 18 20  1  0
 20 21  2  0
 21 22  1  0
 21 23  1  0
 23 24  2  0
 24 25  1  0
 24 26  1  0
 26 27  1  0
 26 28  2  0
 28 29  1  0
  8 30  1  0
 30 31  1  0
 30 32  2  0
 32 33  1  0
 33 34  1  0
 32  3  1  0
 18  9  1  0
 28 20  1  0
M  END
>  <cnnaffinity>  (1) 
-5.25384

>  <filename>  (1) 
O=C1NC[C@@H](c2cccnc2)[C@@H]1c1ccc(O)c(O)c1

$$$$
