
     RDKit          3D

 28 30  0  0  0  0  0  0  0  0999 V2000
    6.9760   -3.7825   25.3112 H   0  0  0  0  0  0  0  0  0  0  0  0
    7.8689   -3.5329   24.7541 C   0  0  0  0  0  0  0  0  0  0  0  0
    9.1047   -4.0297   24.7413 C   0  0  0  0  0  0  0  0  0  0  0  0
    9.5885   -4.8054   25.3166 H   0  0  0  0  0  0  0  0  0  0  0  0
    9.9153   -3.2383   23.7856 C   0  0  0  0  0  0  0  0  0  0  0  0
   11.0972   -3.3400   23.5558 O   0  0  0  0  0  0  0  0  0  0  0  0
    9.0579   -2.2996   23.1950 N   0  0  0  0  0  0  0  0  0  0  0  0
    9.4127   -1.3694   22.2034 C   0  0  0  0  0  0  0  0  0  0  0  0
    8.6734   -0.5945   21.3081 C   0  0  0  0  0  0  0  0  0  0  0  0
    7.2916   -0.5694   21.0819 N   0  0  0  0  0  0  0  0  0  0  0  0
    6.7303   -0.7698   21.9116 H   0  0  0  0  0  0  0  0  0  0  0  0
    6.6519   -0.0158   19.9664 C   0  0  0  0  0  0  0  0  0  0  0  0
    7.1599   -0.0316   18.6362 C   0  0  0  0  0  0  0  0  0  0  0  0
    8.0707   -0.5801   18.4018 H   0  0  0  0  0  0  0  0  0  0  0  0
    6.5797    0.5980   17.6014 N   0  0  0  0  0  0  0  0  0  0  0  0
    5.4394    1.2647   17.8438 C   0  0  0  0  0  0  0  0  0  0  0  0
    5.0157    1.7967   16.9967 H   0  0  0  0  0  0  0  0  0  0  0  0
    4.8059    1.2738   19.0951 C   0  0  0  0  0  0  0  0  0  0  0  0
    3.8698    1.8112   19.2207 H   0  0  0  0  0  0  0  0  0  0  0  0
    5.4105    0.6024   20.1658 C   0  0  0  0  0  0  0  0  0  0  0  0
    4.9598    0.5588   21.1605 H   0  0  0  0  0  0  0  0  0  0  0  0
    9.6587    0.1996   20.6795 C   0  0  0  0  0  0  0  0  0  0  0  0
    9.4819    0.9643   19.9411 H   0  0  0  0  0  0  0  0  0  0  0  0
   10.8852   -0.0753   21.1004 N   0  0  0  0  0  0  0  0  0  0  0  0
   10.7098   -1.0338   22.0173 N   0  0  0  0  0  0  0  0  0  0  0  0
   11.4690   -1.5588   22.4346 H   0  0  0  0  0  0  0  0  0  0  0  0
    7.8083   -2.3896   23.8042 C   0  0  0  0  0  0  0  0  0  0  0  0
    6.8562   -1.6725   23.5855 O   0  0  0  0  0  0  0  0  0  0  0  0
  1  2  1  0
  2  3  2  0
  3  4  1  0
  3  5  1  0
  5  6  2  0
  5  7  1  0
  7  8  1  0
  8  9  2  0
  9 10  1  0
 10 11  1  0
 10 12  1  0
 12 13  2  0
 13 14  1  0
 13 15  1  0
 15 16  2  0
 16 17  1  0
 16 18  1  0
 18 19  1  0
 18 20  2  0
 20 21  1  0
  9 22  1  0
 22 23  1  0
 22 24  2  0
 24 25  1  0
 25 26  1  0
  7 27  1  0
 27 28  2  0
 27  2  1  0
 25  8  1  0
 20 12  1  0
M  END
>  <cnnaffinity>  (1) 
-5.32373

>  <filename>  (1) 
O=C1C=CC(=O)N1c1[nH]ncc1Nc1cccnc1

$$$$
