
     RDKit          3D

 33 35  0  0  0  0  0  0  0  0999 V2000
    4.9118    1.7939   16.9848 H   0  0  0  0  0  0  0  0  0  0  0  0
    5.3884    1.3010   17.8272 C   0  0  0  0  0  0  0  0  0  0  0  0
    6.5470    0.6816   17.5569 N   0  0  0  0  0  0  0  0  0  0  0  0
    7.1556    0.0670   18.5748 C   0  0  0  0  0  0  0  0  0  0  0  0
    8.1108   -0.4114   18.3680 H   0  0  0  0  0  0  0  0  0  0  0  0
    6.6434    0.0063   19.8855 C   0  0  0  0  0  0  0  0  0  0  0  0
    7.3488   -0.7090   20.9588 C   0  0  0  0  0  0  0  0  0  0  0  0
    6.6940   -1.6428   21.7291 C   0  0  0  0  0  0  0  0  0  0  0  0
    5.6376   -1.8420   21.5448 H   0  0  0  0  0  0  0  0  0  0  0  0
    7.3436   -2.3724   22.7674 C   0  0  0  0  0  0  0  0  0  0  0  0
    6.6090   -3.3837   23.5803 C   0  0  0  0  0  0  0  0  0  0  0  0
    6.8027   -3.4527   24.9709 C   0  0  0  0  0  0  0  0  0  0  0  0
    7.4785   -2.7457   25.4442 H   0  0  0  0  0  0  0  0  0  0  0  0
    6.1142   -4.3962   25.7381 C   0  0  0  0  0  0  0  0  0  0  0  0
    6.2841   -4.4427   26.8086 H   0  0  0  0  0  0  0  0  0  0  0  0
    5.2252   -5.2863   25.1350 C   0  0  0  0  0  0  0  0  0  0  0  0
    4.6906   -6.0273   25.7216 H   0  0  0  0  0  0  0  0  0  0  0  0
    5.0268   -5.2131   23.7493 C   0  0  0  0  0  0  0  0  0  0  0  0
    4.0731   -6.1573   23.1025 N   0  0  0  0  0  4  0  0  0  0  0  0
    3.9049   -6.0674   21.9005 O   0  0  0  0  0  0  0  0  0  0  0  0
    3.5127   -6.9689   23.8201 O   0  0  0  0  0  1  0  0  0  0  0  0
    5.7033   -4.2690   22.9718 C   0  0  0  0  0  0  0  0  0  0  0  0
    5.5413   -4.2328   21.8992 H   0  0  0  0  0  0  0  0  0  0  0  0
    8.6639   -2.1020   23.0075 C   0  0  0  0  0  0  0  0  0  0  0  0
    9.2379   -2.6138   23.7789 H   0  0  0  0  0  0  0  0  0  0  0  0
    9.3172   -1.1736   22.2554 N   0  0  0  0  0  0  0  0  0  0  0  0
   10.2798   -0.9007   22.3703 H   0  0  0  0  0  0  0  0  0  0  0  0
    8.7703   -0.4131   21.2228 C   0  0  0  0  0  0  0  0  0  0  0  0
    9.5218    0.3859   20.6782 O   0  0  0  0  0  0  0  0  0  0  0  0
    5.4228    0.6469   20.1421 C   0  0  0  0  0  0  0  0  0  0  0  0
    5.0117    0.6341   21.1563 H   0  0  0  0  0  0  0  0  0  0  0  0
    4.7961    1.3205   19.0956 C   0  0  0  0  0  0  0  0  0  0  0  0
    3.8672    1.8523   19.2485 H   0  0  0  0  0  0  0  0  0  0  0  0
  1  2  1  0
  2  3  2  0
  3  4  1  0
  4  5  1  0
  4  6  2  0
  6  7  1  0
  7  8  2  0
  8  9  1  0
  8 10  1  0
 10 11  1  0
 11 12  2  0
 12 13  1  0
 12 14  1  0
 14 15  1  0
 14 16  2  0
 16 17  1  0
 16 18  1  0
 18 19  1  0
 19 20  2  0
 19 21  1  0
 18 22  2  0
 22 23  1  0
 10 24  2  0
 24 25  1  0
 24 26  1  0
 26 27  1  0
 26 28  1  0
 28 29  2  0
  6 30  1  0
 30 31  1  0
 30 32  2  0
 32 33  1  0
 32  2  1  0
 28  7  1  0
 22 11  1  0
M  CHG  2  19   1  21  -1
M  END
>  <cnnaffinity>  (1) 
-5.45888

>  <filename>  (1) 
O=c1[nH]cc(-c2cccc([N+](=O)[O-])c2)cc1-c1cccnc1

$$$$
