
     RDKit          3D

 37 40  0  0  0  0  0  0  0  0999 V2000
    4.9256    1.8272   16.9530 H   0  0  0  0  0  0  0  0  0  0  0  0
    5.3865    1.3149   17.7948 C   0  0  0  0  0  0  0  0  0  0  0  0
    6.5451    0.6843   17.5416 N   0  0  0  0  0  0  0  0  0  0  0  0
    7.1432    0.0677   18.5716 C   0  0  0  0  0  0  0  0  0  0  0  0
    8.0883   -0.4246   18.3446 H   0  0  0  0  0  0  0  0  0  0  0  0
    6.6236    0.0058   19.8811 C   0  0  0  0  0  0  0  0  0  0  0  0
    7.3445   -0.7227   20.9715 C   0  0  0  0  0  0  0  0  0  0  0  0
    8.7548   -0.5691   21.1475 C   0  0  0  0  0  0  0  0  0  0  0  0
    9.3119    0.0912   20.4812 H   0  0  0  0  0  0  0  0  0  0  0  0
    9.4446   -1.2009   22.1670 C   0  0  0  0  0  0  0  0  0  0  0  0
   10.8956   -1.0475   22.3435 C   0  0  0  0  0  0  0  0  0  0  0  0
   11.7061   -2.1495   22.1530 C   0  0  0  0  0  0  0  0  0  0  0  0
   11.2382   -3.1212   22.0804 H   0  0  0  0  0  0  0  0  0  0  0  0
   13.1154   -2.0266   22.0961 C   0  0  0  0  0  0  0  0  0  0  0  0
   13.7440   -2.8873   21.8919 H   0  0  0  0  0  0  0  0  0  0  0  0
   13.7165   -0.8313   22.3955 C   0  0  0  0  0  0  0  0  0  0  0  0
   14.7972   -0.7657   22.4714 H   0  0  0  0  0  0  0  0  0  0  0  0
   12.9323    0.3169   22.6965 C   0  0  0  0  0  0  0  0  0  0  0  0
   13.5459    1.5512   23.0673 C   0  0  0  0  0  0  0  0  0  0  0  0
   14.6305    1.5890   23.1035 H   0  0  0  0  0  0  0  0  0  0  0  0
   12.7883    2.6570   23.3678 C   0  0  0  0  0  0  0  0  0  0  0  0
   13.2663    3.5995   23.6293 H   0  0  0  0  0  0  0  0  0  0  0  0
   11.3715    2.5815   23.3161 C   0  0  0  0  0  0  0  0  0  0  0  0
   10.7769    3.4626   23.5437 H   0  0  0  0  0  0  0  0  0  0  0  0
   10.7495    1.3998   22.9728 C   0  0  0  0  0  0  0  0  0  0  0  0
    9.6661    1.3333   22.9498 H   0  0  0  0  0  0  0  0  0  0  0  0
   11.5027    0.2259   22.6529 C   0  0  0  0  0  0  0  0  0  0  0  0
    8.7303   -2.1210   23.0548 C   0  0  0  0  0  0  0  0  0  0  0  0
    9.1525   -2.8159   23.9700 O   0  0  0  0  0  0  0  0  0  0  0  0
    7.3603   -2.2009   22.8168 N   0  0  0  0  0  0  0  0  0  0  0  0
    6.9720   -2.7809   23.5464 H   0  0  0  0  0  0  0  0  0  0  0  0
    6.6688   -1.5414   21.8411 C   0  0  0  0  0  0  0  0  0  0  0  0
    5.5932   -1.7036   21.7744 H   0  0  0  0  0  0  0  0  0  0  0  0
    5.4060    0.6705   20.1102 C   0  0  0  0  0  0  0  0  0  0  0  0
    4.9750    0.6896   21.1117 H   0  0  0  0  0  0  0  0  0  0  0  0
    4.7766    1.3365   19.0549 C   0  0  0  0  0  0  0  0  0  0  0  0
    3.8434    1.8762   19.1986 H   0  0  0  0  0  0  0  0  0  0  0  0
  1  2  1  0
  2  3  2  0
  3  4  1  0
  4  5  1  0
  4  6  2  0
  6  7  1  0
  7  8  1  0
  8  9  1  0
  8 10  2  0
 10 11  1  0
 11 12  2  0
 12 13  1  0
 12 14  1  0
 14 15  1  0
 14 16  2  0
 16 17  1  0
 16 18  1  0
 18 19  2  0
 19 20  1  0
 19 21  1  0
 21 22  1  0
 21 23  2  0
 23 24  1  0
 23 25  1  0
 25 26  1  0
 25 27  2  0
 10 28  1  0
 28 29  2  0
 28 30  1  0
 30 31  1  0
 30 32  1  0
 32 33  1  0
  6 34  1  0
 34 35  1  0
 34 36  2  0
 36 37  1  0
 36  2  1  0
 32  7  2  0
 27 11  1  0
 27 18  1  0
M  END
>  <cnnaffinity>  (1) 
-6.09404

>  <filename>  (1) 
O=c1[nH]cc(-c2cccnc2)cc1-c1cccc2ccccc12

$$$$
