
     RDKit          3D

 32 34  0  0  0  0  0  0  0  0999 V2000
    4.9242    1.7608   16.9072 H   0  0  0  0  0  0  0  0  0  0  0  0
    5.3680    1.3390   17.8038 C   0  0  0  0  0  0  0  0  0  0  0  0
    6.5770    0.7856   17.6351 N   0  0  0  0  0  0  0  0  0  0  0  0
    7.1729    0.2680   18.7115 C   0  0  0  0  0  0  0  0  0  0  0  0
    8.1509   -0.1800   18.5291 H   0  0  0  0  0  0  0  0  0  0  0  0
    6.6204    0.2864   20.0073 C   0  0  0  0  0  0  0  0  0  0  0  0
    7.3306   -0.4276   21.0976 C   0  0  0  0  0  0  0  0  0  0  0  0
    7.6701    0.4880   22.5585 S   0  0  0  0  0  0  0  0  0  0  0  0
    8.3229   -0.7711   23.5982 C   0  0  0  0  0  0  0  0  0  0  0  0
    8.4805   -0.4383   24.9246 N   0  0  0  0  0  0  0  0  0  0  0  0
    9.0958   -1.0611   25.4244 H   0  0  0  0  0  0  0  0  0  0  0  0
    7.6170    0.3358   25.7263 C   0  0  0  0  0  0  0  0  0  0  0  0
    8.2005    1.1795   26.6739 C   0  0  0  0  0  0  0  0  0  0  0  0
    9.2790    1.1445   26.7654 H   0  0  0  0  0  0  0  0  0  0  0  0
    7.4102    2.0289   27.4485 C   0  0  0  0  0  0  0  0  0  0  0  0
    7.8607    2.7060   28.1631 H   0  0  0  0  0  0  0  0  0  0  0  0
    6.0220    2.0028   27.2927 C   0  0  0  0  0  0  0  0  0  0  0  0
    5.0411    3.1136   28.1999 Cl  0  0  0  0  0  0  0  0  0  0  0  0
    5.4213    1.1170   26.3939 C   0  0  0  0  0  0  0  0  0  0  0  0
    4.3400    1.0947   26.3134 H   0  0  0  0  0  0  0  0  0  0  0  0
    6.2220    0.2785   25.6096 C   0  0  0  0  0  0  0  0  0  0  0  0
    5.8015   -0.4326   24.9042 H   0  0  0  0  0  0  0  0  0  0  0  0
    8.6762   -2.0123   23.2023 C   0  0  0  0  0  0  0  0  0  0  0  0
    9.1849   -2.6866   23.8822 H   0  0  0  0  0  0  0  0  0  0  0  0
    8.3494   -2.5840   21.9163 C   0  0  0  0  0  0  0  0  0  0  0  0
    8.5914   -3.7544   21.6380 O   0  0  0  0  0  0  0  0  0  0  0  0
    7.6875   -1.7130   20.9316 C   0  0  0  0  0  0  0  0  0  0  0  0
    7.4844   -2.2045   19.9967 H   0  0  0  0  0  0  0  0  0  0  0  0
    5.3642    0.8951   20.1682 C   0  0  0  0  0  0  0  0  0  0  0  0
    4.9120    0.9565   21.1574 H   0  0  0  0  0  0  0  0  0  0  0  0
    4.7228    1.4127   19.0418 C   0  0  0  0  0  0  0  0  0  0  0  0
    3.7606    1.9052   19.1048 H   0  0  0  0  0  0  0  0  0  0  0  0
  1  2  1  0
  2  3  2  0
  3  4  1  0
  4  5  1  0
  4  6  2  0
  6  7  1  0
  7  8  1  0
  8  9  1  0
  9 10  1  0
 10 11  1  0
 10 12  1  0
 12 13  2  0
 13 14  1  0
 13 15  1  0
 15 16  1  0
 15 17  2  0
 17 18  1  0
 17 19  1  0
 19 20  1  0
 19 21  2  0
 21 22  1  0
  9 23  2  0
 23 24  1  0
 23 25  1  0
 25 26  2  0
 25 27  1  0
 27 28  1  0
  6 29  1  0
 29 30  1  0
 29 31  2  0
 31 32  1  0
 31  2  1  0
 27  7  2  0
 21 12  1  0
M  END
>  <cnnaffinity>  (1) 
-5.43292

>  <filename>  (1) 
O=c1cc(Nc2ccc(Cl)cc2)sc(-c2cccnc2)c1

$$$$
