
     RDKit          3D

 40 42  0  0  0  0  0  0  0  0999 V2000
    4.9110    1.8131   16.9646 H   0  0  0  0  0  0  0  0  0  0  0  0
    5.4024    1.3407   17.8156 C   0  0  0  0  0  0  0  0  0  0  0  0
    6.5775    0.7345   17.5751 N   0  0  0  0  0  0  0  0  0  0  0  0
    7.1793    0.0965   18.5903 C   0  0  0  0  0  0  0  0  0  0  0  0
    8.1368   -0.3752   18.3645 H   0  0  0  0  0  0  0  0  0  0  0  0
    6.6388    0.0401   19.8929 C   0  0  0  0  0  0  0  0  0  0  0  0
    7.2619   -0.6601   20.9959 N   0  0  0  0  0  0  0  0  0  0  0  0
    7.7281    0.0649   22.0790 C   0  0  0  0  0  0  0  0  0  0  0  0
    7.5330    1.1401   22.0461 H   0  0  0  0  0  0  0  0  0  0  0  0
    8.4174   -0.5273   23.1039 C   0  0  0  0  0  0  0  0  0  0  0  0
    8.8965    0.2724   24.3039 C   0  0  0  0  0  0  0  0  0  0  0  0
    8.9203   -0.3891   25.1799 H   0  0  0  0  0  0  0  0  0  0  0  0
    8.1691    1.0606   24.5531 H   0  0  0  0  0  0  0  0  0  0  0  0
   10.2962    0.9222   24.1523 C   0  0  0  0  0  0  0  0  0  0  0  0
   10.4920    1.4772   25.0866 H   0  0  0  0  0  0  0  0  0  0  0  0
   10.3750    1.9375   22.9963 C   0  0  0  0  0  0  0  0  0  0  0  0
    9.5906    2.6986   23.1064 H   0  0  0  0  0  0  0  0  0  0  0  0
   10.1787    1.4160   22.0467 H   0  0  0  0  0  0  0  0  0  0  0  0
   11.7571    2.5984   22.9167 C   0  0  0  0  0  0  0  0  0  0  0  0
   11.9252    3.1970   23.8237 H   0  0  0  0  0  0  0  0  0  0  0  0
   11.7925    3.2948   22.0706 H   0  0  0  0  0  0  0  0  0  0  0  0
   12.8687    1.5474   22.7923 C   0  0  0  0  0  0  0  0  0  0  0  0
   12.7642    1.0321   21.8267 H   0  0  0  0  0  0  0  0  0  0  0  0
   13.8535    2.0287   22.7816 H   0  0  0  0  0  0  0  0  0  0  0  0
   12.8023    0.5052   23.9171 C   0  0  0  0  0  0  0  0  0  0  0  0
   13.0495    0.9817   24.8761 H   0  0  0  0  0  0  0  0  0  0  0  0
   13.5627   -0.2620   23.7405 H   0  0  0  0  0  0  0  0  0  0  0  0
   11.4097   -0.1321   24.0163 C   0  0  0  0  0  0  0  0  0  0  0  0
   11.3553   -0.8150   24.8753 H   0  0  0  0  0  0  0  0  0  0  0  0
   11.2298   -0.7345   23.1121 H   0  0  0  0  0  0  0  0  0  0  0  0
    8.7256   -1.9283   22.9823 C   0  0  0  0  0  0  0  0  0  0  0  0
    9.3863   -2.3981   23.7225 H   0  0  0  0  0  0  0  0  0  0  0  0
    8.1994   -2.6682   21.9672 C   0  0  0  0  0  0  0  0  0  0  0  0
    8.3814   -3.7220   21.8220 H   0  0  0  0  0  0  0  0  0  0  0  0
    7.2464   -2.0979   21.0236 C   0  0  0  0  0  0  0  0  0  0  0  0
    6.5171   -2.7532   20.3026 O   0  0  0  0  0  0  0  0  0  0  0  0
    5.4319    0.6973   20.1296 C   0  0  0  0  0  0  0  0  0  0  0  0
    5.0301    0.6893   21.1429 H   0  0  0  0  0  0  0  0  0  0  0  0
    4.7902    1.3469   19.0723 C   0  0  0  0  0  0  0  0  0  0  0  0
    3.8393    1.8471   19.2168 H   0  0  0  0  0  0  0  0  0  0  0  0
  1  2  1  0
  2  3  2  0
  3  4  1  0
  4  5  1  0
  4  6  2  0
  6  7  1  0
  7  8  1  0
  8  9  1  0
  8 10  2  0
 10 11  1  0
 11 12  1  0
 11 13  1  0
 11 14  1  0
 14 15  1  0
 14 16  1  0
 16 17  1  0
 16 18  1  0
 16 19  1  0
 19 20  1  0
 19 21  1  0
 19 22  1  0
 22 23  1  0
 22 24  1  0
 22 25  1  0
 25 26  1  0
 25 27  1  0
 25 28  1  0
 28 29  1  0
 28 30  1  0
 10 31  1  0
 31 32  1  0
 31 33  2  0
 33 34  1  0
 33 35  1  0
 35 36  2  0
  6 37  1  0
 37 38  1  0
 37 39  2  0
 39 40  1  0
 39  2  1  0
 35  7  1  0
 28 14  1  0
M  END
>  <cnnaffinity>  (1) 
-5.49471

>  <filename>  (1) 
O=c1ccc(CC2CCCCC2)cn1-c1cccnc1

$$$$
