
     RDKit          3D

 34 36  0  0  0  0  0  0  0  0999 V2000
    4.9182    1.7975   16.9767 H   0  0  0  0  0  0  0  0  0  0  0  0
    5.3916    1.3029   17.8212 C   0  0  0  0  0  0  0  0  0  0  0  0
    6.5517    0.6831   17.5563 N   0  0  0  0  0  0  0  0  0  0  0  0
    7.1582    0.0756   18.5841 C   0  0  0  0  0  0  0  0  0  0  0  0
    8.1009   -0.4178   18.3576 H   0  0  0  0  0  0  0  0  0  0  0  0
    6.6446    0.0124   19.8955 C   0  0  0  0  0  0  0  0  0  0  0  0
    7.3697   -0.7090   20.9711 C   0  0  0  0  0  0  0  0  0  0  0  0
    8.7825   -0.5610   21.1285 C   0  0  0  0  0  0  0  0  0  0  0  0
    9.3054    0.1131   20.4414 H   0  0  0  0  0  0  0  0  0  0  0  0
    9.4354   -1.2126   22.1289 C   0  0  0  0  0  0  0  0  0  0  0  0
   10.4989   -1.1429   22.2980 H   0  0  0  0  0  0  0  0  0  0  0  0
    8.7548   -2.0946   23.0711 C   0  0  0  0  0  0  0  0  0  0  0  0
    9.3345   -2.6982   23.9580 O   0  0  0  0  0  0  0  0  0  0  0  0
    7.3418   -2.2039   22.8661 N   0  0  0  0  0  0  0  0  0  0  0  0
    6.5632   -3.0292   23.7505 C   0  0  0  0  0  0  0  0  0  0  0  0
    6.5923   -2.7956   25.1283 C   0  0  0  0  0  0  0  0  0  0  0  0
    7.2138   -1.9880   25.4995 H   0  0  0  0  0  0  0  0  0  0  0  0
    5.8615   -3.6202   25.9872 C   0  0  0  0  0  0  0  0  0  0  0  0
    5.8974   -3.4526   27.0604 H   0  0  0  0  0  0  0  0  0  0  0  0
    5.0962   -4.6752   25.4759 C   0  0  0  0  0  0  0  0  0  0  0  0
    4.5338   -5.3145   26.1561 H   0  0  0  0  0  0  0  0  0  0  0  0
    5.0521   -4.9021   24.0892 C   0  0  0  0  0  0  0  0  0  0  0  0
    4.2538   -6.0685   23.5268 C   0  0  0  0  0  0  0  0  0  0  0  0
    3.1869   -6.3749   24.2931 F   0  0  0  0  0  0  0  0  0  0  0  0
    3.7919   -5.8083   22.2861 F   0  0  0  0  0  0  0  0  0  0  0  0
    5.0020   -7.1871   23.4389 F   0  0  0  0  0  0  0  0  0  0  0  0
    5.7919   -4.0711   23.2264 C   0  0  0  0  0  0  0  0  0  0  0  0
    5.8159   -4.2287   22.1500 H   0  0  0  0  0  0  0  0  0  0  0  0
    6.7028   -1.5296   21.8457 C   0  0  0  0  0  0  0  0  0  0  0  0
    5.6343   -1.7003   21.7697 H   0  0  0  0  0  0  0  0  0  0  0  0
    5.4220    0.6530   20.1427 C   0  0  0  0  0  0  0  0  0  0  0  0
    5.0065    0.6469   21.1545 H   0  0  0  0  0  0  0  0  0  0  0  0
    4.7965    1.3212   19.0880 C   0  0  0  0  0  0  0  0  0  0  0  0
    3.8663    1.8512   19.2414 H   0  0  0  0  0  0  0  0  0  0  0  0
  1  2  1  0
  2  3  2  0
  3  4  1  0
  4  5  1  0
  4  6  2  0
  6  7  1  0
  7  8  1  0
  8  9  1  0
  8 10  2  0
 10 11  1  0
 10 12  1  0
 12 13  2  0
 12 14  1  0
 14 15  1  0
 15 16  2  0
 16 17  1  0
 16 18  1  0
 18 19  1  0
 18 20  2  0
 20 21  1  0
 20 22  1  0
 22 23  1  0
 23 24  1  0
 23 25  1  0
 23 26  1  0
 22 27  2  0
 27 28  1  0
 14 29  1  0
 29 30  1  0
  6 31  1  0
 31 32  1  0
 31 33  2  0
 33 34  1  0
 33  2  1  0
 29  7  2  0
 27 15  1  0
M  END
>  <cnnaffinity>  (1) 
-5.82336

>  <filename>  (1) 
O=c1ccc(-c2cccnc2)cn1-c1cccc(C(F)(F)F)c1

$$$$
