
     RDKit          3D

 37 39  0  0  0  0  0  0  0  0999 V2000
    5.0656    1.7986   16.7846 H   0  0  0  0  0  0  0  0  0  0  0  0
    5.4964    1.3297   17.6660 C   0  0  0  0  0  0  0  0  0  0  0  0
    6.6435    0.6568   17.4731 N   0  0  0  0  0  0  0  0  0  0  0  0
    7.1830    0.0585   18.5394 C   0  0  0  0  0  0  0  0  0  0  0  0
    8.1161   -0.4780   18.3632 H   0  0  0  0  0  0  0  0  0  0  0  0
    6.6218    0.0692   19.8276 C   0  0  0  0  0  0  0  0  0  0  0  0
    7.2706   -0.7024   20.8782 C   0  0  0  0  0  0  0  0  0  0  0  0
    8.5698   -1.0631   21.0184 C   0  0  0  0  0  0  0  0  0  0  0  0
    9.4260   -0.8965   20.3829 H   0  0  0  0  0  0  0  0  0  0  0  0
    8.6801   -1.8566   22.1482 N   0  0  0  0  0  0  0  0  0  0  0  0
    9.9435   -2.2470   22.6730 N   0  0  0  0  0  0  0  0  0  0  0  0
   10.6368   -1.5919   22.2896 H   0  0  0  0  0  0  0  0  0  0  0  0
    9.9712   -2.1417   24.1430 C   0  0  0  0  0  0  0  0  0  0  0  0
   10.9021   -2.6065   24.4794 H   0  0  0  0  0  0  0  0  0  0  0  0
    9.1366   -2.7375   24.5267 H   0  0  0  0  0  0  0  0  0  0  0  0
    9.8568   -0.7065   24.6915 C   0  0  0  0  0  0  0  0  0  0  0  0
    9.9619   -0.7503   25.7829 H   0  0  0  0  0  0  0  0  0  0  0  0
    8.8462   -0.3314   24.5075 H   0  0  0  0  0  0  0  0  0  0  0  0
   10.8990    0.2410   24.1324 C   0  0  0  0  0  0  0  0  0  0  0  0
   10.6276    1.1597   23.1029 C   0  0  0  0  0  0  0  0  0  0  0  0
    9.6051    1.2678   22.7332 H   0  0  0  0  0  0  0  0  0  0  0  0
   11.6585    1.9334   22.5452 C   0  0  0  0  0  0  0  0  0  0  0  0
   11.4508    2.6613   21.7628 H   0  0  0  0  0  0  0  0  0  0  0  0
   12.9756    1.7739   22.9999 C   0  0  0  0  0  0  0  0  0  0  0  0
   13.7858    2.3594   22.5737 H   0  0  0  0  0  0  0  0  0  0  0  0
   13.2599    0.8461   24.0051 C   0  0  0  0  0  0  0  0  0  0  0  0
   14.2825    0.6657   24.3292 H   0  0  0  0  0  0  0  0  0  0  0  0
   12.2219    0.1181   24.5864 C   0  0  0  0  0  0  0  0  0  0  0  0
   12.4169   -0.5718   25.4026 H   0  0  0  0  0  0  0  0  0  0  0  0
    7.3978   -2.0674   22.7011 C   0  0  0  0  0  0  0  0  0  0  0  0
    7.0365   -2.7308   23.6596 O   0  0  0  0  0  0  0  0  0  0  0  0
    6.5714   -1.3176   21.9064 N   0  0  0  0  0  0  0  0  0  0  0  0
    5.6355   -1.1738   22.2452 H   0  0  0  0  0  0  0  0  0  0  0  0
    5.4431    0.8135   20.0160 C   0  0  0  0  0  0  0  0  0  0  0  0
    5.0072    0.9153   21.0118 H   0  0  0  0  0  0  0  0  0  0  0  0
    4.8697    1.4423   18.9134 C   0  0  0  0  0  0  0  0  0  0  0  0
    3.9552    2.0201   19.0072 H   0  0  0  0  0  0  0  0  0  0  0  0
  1  2  1  0
  2  3  2  0
  3  4  1  0
  4  5  1  0
  4  6  2  0
  6  7  1  0
  7  8  2  0
  8  9  1  0
  8 10  1  0
 10 11  1  0
 11 12  1  0
 11 13  1  0
 13 14  1  0
 13 15  1  0
 13 16  1  0
 16 17  1  0
 16 18  1  0
 16 19  1  0
 19 20  2  0
 20 21  1  0
 20 22  1  0
 22 23  1  0
 22 24  2  0
 24 25  1  0
 24 26  1  0
 26 27  1  0
 26 28  2  0
 28 29  1  0
 10 30  1  0
 30 31  2  0
 30 32  1  0
 32 33  1  0
  6 34  1  0
 34 35  1  0
 34 36  2  0
 36 37  1  0
 36  2  1  0
 32  7  1  0
 28 19  1  0
M  END
>  <cnnaffinity>  (1) 
-5.36955

>  <filename>  (1) 
O=c1[nH]c(-c2cccnc2)cn1NCCc1ccccc1

$$$$
