
     RDKit          3D

 31 33  0  0  0  0  0  0  0  0999 V2000
    4.9043    1.8351   16.9466 H   0  0  0  0  0  0  0  0  0  0  0  0
    5.3855    1.3359   17.7858 C   0  0  0  0  0  0  0  0  0  0  0  0
    6.5510    0.7270   17.5146 N   0  0  0  0  0  0  0  0  0  0  0  0
    7.1750    0.1114   18.5269 C   0  0  0  0  0  0  0  0  0  0  0  0
    8.1141   -0.3745   18.2673 H   0  0  0  0  0  0  0  0  0  0  0  0
    6.6736    0.0269   19.8483 C   0  0  0  0  0  0  0  0  0  0  0  0
    7.4037   -0.6913   20.9443 C   0  0  0  0  0  0  0  0  0  0  0  0
    8.7076   -0.4212   21.2025 C   0  0  0  0  0  0  0  0  0  0  0  0
    9.2815    0.2973   20.6141 H   0  0  0  0  0  0  0  0  0  0  0  0
    9.4271   -1.0461   22.2145 N   0  0  0  0  0  0  0  0  0  0  0  0
   10.8266   -0.7323   22.3680 C   0  0  0  0  0  0  0  0  0  0  0  0
   11.2073    0.5900   22.6157 C   0  0  0  0  0  0  0  0  0  0  0  0
   10.4293    1.3479   22.6764 H   0  0  0  0  0  0  0  0  0  0  0  0
   12.5614    0.9024   22.7803 C   0  0  0  0  0  0  0  0  0  0  0  0
   12.8512    1.9228   23.0226 H   0  0  0  0  0  0  0  0  0  0  0  0
   13.5337   -0.0951   22.6234 C   0  0  0  0  0  0  0  0  0  0  0  0
   14.5803    0.1408   22.8038 H   0  0  0  0  0  0  0  0  0  0  0  0
   13.1503   -1.3994   22.2817 C   0  0  0  0  0  0  0  0  0  0  0  0
   13.9010   -2.1695   22.1015 H   0  0  0  0  0  0  0  0  0  0  0  0
   11.7918   -1.7331   22.2283 C   0  0  0  0  0  0  0  0  0  0  0  0
   11.4645   -2.7611   22.1265 H   0  0  0  0  0  0  0  0  0  0  0  0
    8.8291   -2.0040   23.0492 C   0  0  0  0  0  0  0  0  0  0  0  0
    9.3894   -2.6301   23.9205 O   0  0  0  0  0  0  0  0  0  0  0  0
    7.5048   -2.2031   22.8136 N   0  0  0  0  0  0  0  0  0  0  0  0
    7.0883   -2.9332   23.3554 H   0  0  0  0  0  0  0  0  0  0  0  0
    6.7356   -1.7457   21.7652 C   0  0  0  0  0  0  0  0  0  0  0  0
    5.6492   -2.2604   21.5988 O   0  0  0  0  0  0  0  0  0  0  0  0
    5.4425    0.6634   20.0927 C   0  0  0  0  0  0  0  0  0  0  0  0
    5.0141    0.6109   21.0934 H   0  0  0  0  0  0  0  0  0  0  0  0
    4.7920    1.3379   19.0515 C   0  0  0  0  0  0  0  0  0  0  0  0
    3.8473    1.8585   19.1999 H   0  0  0  0  0  0  0  0  0  0  0  0
  1  2  1  0
  2  3  2  0
  3  4  1  0
  4  5  1  0
  4  6  2  0
  6  7  1  0
  7  8  2  0
  8  9  1  0
  8 10  1  0
 10 11  1  0
 11 12  2  0
 12 13  1  0
 12 14  1  0
 14 15  1  0
 14 16  2  0
 16 17  1  0
 16 18  1  0
 18 19  1  0
 18 20  2  0
 20 21  1  0
 10 22  1  0
 22 23  2  0
 22 24  1  0
 24 25  1  0
 24 26  1  0
 26 27  2  0
  6 28  1  0
 28 29  1  0
 28 30  2  0
 30 31  1  0
 30  2  1  0
 26  7  1  0
 20 11  1  0
M  END
>  <cnnaffinity>  (1) 
-4.99813

>  <filename>  (1) 
O=c1[nH]c(=O)n(-c2ccccc2)cc1-c1cccnc1

$$$$
