
     RDKit          3D

 38 40  0  0  0  0  0  0  0  0999 V2000
    4.9183    1.8019   16.9735 H   0  0  0  0  0  0  0  0  0  0  0  0
    5.3872    1.3045   17.8201 C   0  0  0  0  0  0  0  0  0  0  0  0
    6.5496    0.6840   17.5606 N   0  0  0  0  0  0  0  0  0  0  0  0
    7.1563    0.0724   18.5849 C   0  0  0  0  0  0  0  0  0  0  0  0
    8.1024   -0.4183   18.3526 H   0  0  0  0  0  0  0  0  0  0  0  0
    6.6475    0.0108   19.8958 C   0  0  0  0  0  0  0  0  0  0  0  0
    7.3755   -0.7113   20.9740 C   0  0  0  0  0  0  0  0  0  0  0  0
    8.7878   -0.5583   21.1387 C   0  0  0  0  0  0  0  0  0  0  0  0
    9.3072    0.1098   20.4494 H   0  0  0  0  0  0  0  0  0  0  0  0
    9.4391   -1.2035   22.1454 C   0  0  0  0  0  0  0  0  0  0  0  0
   10.5015   -1.1206   22.3279 H   0  0  0  0  0  0  0  0  0  0  0  0
    8.7362   -2.0760   23.0847 C   0  0  0  0  0  0  0  0  0  0  0  0
    9.2826   -2.6488   24.0189 O   0  0  0  0  0  0  0  0  0  0  0  0
    7.3420   -2.2227   22.8475 N   0  0  0  0  0  0  0  0  0  0  0  0
    6.5577   -3.0526   23.7804 C   0  0  0  0  0  0  0  0  0  0  0  0
    7.1883   -3.8950   24.0757 H   0  0  0  0  0  0  0  0  0  0  0  0
    5.6745   -3.4472   23.2627 H   0  0  0  0  0  0  0  0  0  0  0  0
    6.1024   -2.2699   25.0241 C   0  0  0  0  0  0  0  0  0  0  0  0
    6.9661   -1.8254   25.5367 H   0  0  0  0  0  0  0  0  0  0  0  0
    5.4287   -1.4581   24.7397 H   0  0  0  0  0  0  0  0  0  0  0  0
    5.3198   -3.0688   25.9048 O   0  0  0  0  0  0  0  0  0  0  0  0
    5.8922   -3.9804   26.7430 C   0  0  0  0  0  0  0  0  0  0  0  0
    7.2709   -4.1683   26.9117 C   0  0  0  0  0  0  0  0  0  0  0  0
    7.9838   -3.5768   26.3399 H   0  0  0  0  0  0  0  0  0  0  0  0
    7.7199   -5.1434   27.8158 C   0  0  0  0  0  0  0  0  0  0  0  0
    8.7865   -5.2996   27.9481 H   0  0  0  0  0  0  0  0  0  0  0  0
    6.8161   -5.9236   28.5392 C   0  0  0  0  0  0  0  0  0  0  0  0
    7.1710   -6.6847   29.2275 H   0  0  0  0  0  0  0  0  0  0  0  0
    5.4403   -5.7275   28.3641 C   0  0  0  0  0  0  0  0  0  0  0  0
    4.7264   -6.3295   28.9218 H   0  0  0  0  0  0  0  0  0  0  0  0
    4.9799   -4.7609   27.4747 C   0  0  0  0  0  0  0  0  0  0  0  0
    3.9218   -4.5767   27.3160 H   0  0  0  0  0  0  0  0  0  0  0  0
    6.7105   -1.5367   21.8408 C   0  0  0  0  0  0  0  0  0  0  0  0
    5.6397   -1.6922   21.7566 H   0  0  0  0  0  0  0  0  0  0  0  0
    5.4239    0.6541   20.1387 C   0  0  0  0  0  0  0  0  0  0  0  0
    5.0050    0.6469   21.1472 H   0  0  0  0  0  0  0  0  0  0  0  0
    4.7944    1.3212   19.0868 C   0  0  0  0  0  0  0  0  0  0  0  0
    3.8643    1.8532   19.2359 H   0  0  0  0  0  0  0  0  0  0  0  0
  1  2  1  0
  2  3  2  0
  3  4  1  0
  4  5  1  0
  4  6  2  0
  6  7  1  0
  7  8  1  0
  8  9  1  0
  8 10  2  0
 10 11  1  0
 10 12  1  0
 12 13  2  0
 12 14  1  0
 14 15  1  0
 15 16  1  0
 15 17  1  0
 15 18  1  0
 18 19  1  0
 18 20  1  0
 18 21  1  0
 21 22  1  0
 22 23  2  0
 23 24  1  0
 23 25  1  0
 25 26  1  0
 25 27  2  0
 27 28  1  0
 27 29  1  0
 29 30  1  0
 29 31  2  0
 31 32  1  0
 14 33  1  0
 33 34  1  0
  6 35  1  0
 35 36  1  0
 35 37  2  0
 37 38  1  0
 37  2  1  0
 33  7  2  0
 31 22  1  0
M  END
>  <cnnaffinity>  (1) 
-4.82474

>  <filename>  (1) 
O=c1ccc(-c2cccnc2)cn1CCOc1ccccc1

$$$$
