
     RDKit          3D

 32 34  0  0  0  0  0  0  0  0999 V2000
    4.9436    1.7881   16.9940 H   0  0  0  0  0  0  0  0  0  0  0  0
    5.4011    1.2916   17.8480 C   0  0  0  0  0  0  0  0  0  0  0  0
    6.5640    0.6692   17.6031 N   0  0  0  0  0  0  0  0  0  0  0  0
    7.1534    0.0436   18.6279 C   0  0  0  0  0  0  0  0  0  0  0  0
    8.1026   -0.4348   18.3794 H   0  0  0  0  0  0  0  0  0  0  0  0
    6.6157   -0.0277   19.9281 C   0  0  0  0  0  0  0  0  0  0  0  0
    7.3656   -0.7265   20.9885 C   0  0  0  0  0  0  0  0  0  0  0  0
    6.5877   -1.2595   21.9875 O   0  0  0  0  0  0  0  0  0  0  0  0
    7.1881   -1.9466   22.9970 C   0  0  0  0  0  0  0  0  0  0  0  0
    6.2968   -2.4515   23.8600 N   0  0  0  0  0  0  0  0  0  0  0  0
    5.3513   -2.1734   23.6577 H   0  0  0  0  0  0  0  0  0  0  0  0
    6.6511   -3.3079   24.9790 C   0  0  0  0  0  0  0  0  0  0  0  0
    5.7929   -3.3650   25.6657 H   0  0  0  0  0  0  0  0  0  0  0  0
    7.4849   -2.8634   25.5546 H   0  0  0  0  0  0  0  0  0  0  0  0
    7.0388   -4.7149   24.5528 C   0  0  0  0  0  0  0  0  0  0  0  0
    7.8827   -4.7382   23.8585 H   0  0  0  0  0  0  0  0  0  0  0  0
    6.9214   -5.8576   25.5252 C   0  0  0  0  0  0  0  0  0  0  0  0
    7.7136   -6.6042   25.5331 H   0  0  0  0  0  0  0  0  0  0  0  0
    6.5327   -5.6588   26.5249 H   0  0  0  0  0  0  0  0  0  0  0  0
    5.9718   -5.7611   24.3526 C   0  0  0  0  0  0  0  0  0  0  0  0
    6.0617   -6.4519   23.5141 H   0  0  0  0  0  0  0  0  0  0  0  0
    4.9385   -5.4657   24.5444 H   0  0  0  0  0  0  0  0  0  0  0  0
    8.5262   -2.0824   23.1195 C   0  0  0  0  0  0  0  0  0  0  0  0
    8.9530   -2.6249   23.9460 H   0  0  0  0  0  0  0  0  0  0  0  0
    9.3963   -1.4970   22.1408 C   0  0  0  0  0  0  0  0  0  0  0  0
   10.6161   -1.5615   22.2001 O   0  0  0  0  0  0  0  0  0  0  0  0
    8.7084   -0.8084   21.0439 C   0  0  0  0  0  0  0  0  0  0  0  0
    9.3352   -0.3235   20.3172 H   0  0  0  0  0  0  0  0  0  0  0  0
    5.4007    0.6401   20.1654 C   0  0  0  0  0  0  0  0  0  0  0  0
    4.9704    0.6387   21.1645 H   0  0  0  0  0  0  0  0  0  0  0  0
    4.7907    1.3105   19.1073 C   0  0  0  0  0  0  0  0  0  0  0  0
    3.8635    1.8569   19.2391 H   0  0  0  0  0  0  0  0  0  0  0  0
  1  2  1  0
  2  3  2  0
  3  4  1  0
  4  5  1  0
  4  6  2  0
  6  7  1  0
  7  8  1  0
  8  9  1  0
  9 10  1  0
 10 11  1  0
 10 12  1  0
 12 13  1  0
 12 14  1  0
 12 15  1  0
 15 16  1  0
 15 17  1  0
 17 18  1  0
 17 19  1  0
 17 20  1  0
 20 21  1  0
 20 22  1  0
  9 23  2  0
 23 24  1  0
 23 25  1  0
 25 26  2  0
 25 27  1  0
 27 28  1  0
  6 29  1  0
 29 30  1  0
 29 31  2  0
 31 32  1  0
 31  2  1  0
 27  7  2  0
 20 15  1  0
M  END
>  <cnnaffinity>  (1) 
-5.07951

>  <filename>  (1) 
O=c1cc(NCC2CC2)oc(-c2cccnc2)c1

$$$$
