
     RDKit          3D

 31 33  0  0  0  0  0  0  0  0999 V2000
    5.0023    1.7817   16.9681 H   0  0  0  0  0  0  0  0  0  0  0  0
    5.4727    1.2831   17.8111 C   0  0  0  0  0  0  0  0  0  0  0  0
    6.6317    0.6546   17.5579 N   0  0  0  0  0  0  0  0  0  0  0  0
    7.2373    0.0465   18.5893 C   0  0  0  0  0  0  0  0  0  0  0  0
    8.1622   -0.4767   18.3450 H   0  0  0  0  0  0  0  0  0  0  0  0
    6.7357    0.0205   19.9092 C   0  0  0  0  0  0  0  0  0  0  0  0
    7.4429   -0.6613   21.0363 C   0  0  0  0  0  0  0  0  0  0  0  0
    6.7140   -1.5524   21.8932 C   0  0  0  0  0  0  0  0  0  0  0  0
    5.6543   -1.7354   21.6936 H   0  0  0  0  0  0  0  0  0  0  0  0
    7.3398   -2.2009   22.9118 C   0  0  0  0  0  0  0  0  0  0  0  0
    6.8462   -2.9207   23.5468 H   0  0  0  0  0  0  0  0  0  0  0  0
    8.7563   -2.0137   23.2131 C   0  0  0  0  0  0  0  0  0  0  0  0
    9.3285   -2.6236   24.0958 O   0  0  0  0  0  0  0  0  0  0  0  0
    9.4200   -1.0757   22.3629 N   0  0  0  0  0  0  0  0  0  0  0  0
   10.8381   -0.9005   22.5427 C   0  0  0  0  0  0  0  0  0  0  0  0
   11.3568   -0.1479   23.6030 C   0  0  0  0  0  0  0  0  0  0  0  0
   10.6873    0.2412   24.3600 H   0  0  0  0  0  0  0  0  0  0  0  0
   12.7374    0.0786   23.6685 C   0  0  0  0  0  0  0  0  0  0  0  0
   13.1455    0.6695   24.4895 H   0  0  0  0  0  0  0  0  0  0  0  0
   13.5991   -0.4846   22.7153 C   0  0  0  0  0  0  0  0  0  0  0  0
   14.6650   -0.2839   22.7409 H   0  0  0  0  0  0  0  0  0  0  0  0
   13.0634   -1.3067   21.7176 C   0  0  0  0  0  0  0  0  0  0  0  0
   14.0780   -1.9927   20.4882 Cl  0  0  0  0  0  0  0  0  0  0  0  0
   11.6912   -1.5134   21.6291 C   0  0  0  0  0  0  0  0  0  0  0  0
   11.2618   -2.1435   20.8677 H   0  0  0  0  0  0  0  0  0  0  0  0
    8.7738   -0.4649   21.2965 C   0  0  0  0  0  0  0  0  0  0  0  0
    9.3816    0.1966   20.6826 H   0  0  0  0  0  0  0  0  0  0  0  0
    5.5013    0.6555   20.1286 C   0  0  0  0  0  0  0  0  0  0  0  0
    5.0704    0.6486   21.1310 H   0  0  0  0  0  0  0  0  0  0  0  0
    4.8679    1.3076   19.0716 C   0  0  0  0  0  0  0  0  0  0  0  0
    3.9278    1.8275   19.2158 H   0  0  0  0  0  0  0  0  0  0  0  0
  1  2  1  0
  2  3  2  0
  3  4  1  0
  4  5  1  0
  4  6  2  0
  6  7  1  0
  7  8  1  0
  8  9  1  0
  8 10  2  0
 10 11  1  0
 10 12  1  0
 12 13  2  0
 12 14  1  0
 14 15  1  0
 15 16  2  0
 16 17  1  0
 16 18  1  0
 18 19  1  0
 18 20  2  0
 20 21  1  0
 20 22  1  0
 22 23  1  0
 22 24  2  0
 24 25  1  0
 14 26  1  0
 26 27  1  0
  6 28  1  0
 28 29  1  0
 28 30  2  0
 30 31  1  0
 30  2  1  0
 26  7  2  0
 24 15  1  0
M  END
>  <cnnaffinity>  (1) 
-5.48162

>  <filename>  (1) 
O=c1ccc(-c2cccnc2)cn1-c1cccc(Cl)c1

$$$$
