
     RDKit          3D

 38 40  0  0  0  0  0  0  0  0999 V2000
    4.9726    1.8651   16.9424 H   0  0  0  0  0  0  0  0  0  0  0  0
    5.4664    1.3386   17.7557 C   0  0  0  0  0  0  0  0  0  0  0  0
    6.6463    0.7651   17.4635 N   0  0  0  0  0  0  0  0  0  0  0  0
    7.2721    0.1008   18.4391 C   0  0  0  0  0  0  0  0  0  0  0  0
    8.2322   -0.3537   18.2018 H   0  0  0  0  0  0  0  0  0  0  0  0
    6.7434   -0.0543   19.7363 C   0  0  0  0  0  0  0  0  0  0  0  0
    7.4375   -0.8211   20.7051 N   0  0  0  0  0  0  0  0  0  0  0  0
    6.9187   -1.7853   21.5827 C   0  0  0  0  0  0  0  0  0  0  0  0
    5.7891   -2.2417   21.5585 O   0  0  0  0  0  0  0  0  0  0  0  0
    8.0467   -2.1007   22.4733 C   0  0  0  0  0  0  0  0  0  0  0  0
    7.8736   -2.8636   23.7583 C   0  0  0  0  0  0  0  0  0  0  0  0
    8.8252   -3.3183   24.0825 H   0  0  0  0  0  0  0  0  0  0  0  0
    7.1846   -3.6995   23.5786 H   0  0  0  0  0  0  0  0  0  0  0  0
    7.2804   -1.9828   24.8873 C   0  0  0  0  0  0  0  0  0  0  0  0
    6.3736   -1.5049   24.4829 H   0  0  0  0  0  0  0  0  0  0  0  0
    6.8237   -2.7990   26.1144 C   0  0  0  0  0  0  0  0  0  0  0  0
    6.1287   -3.5990   25.8277 H   0  0  0  0  0  0  0  0  0  0  0  0
    7.7024   -3.2873   26.5631 H   0  0  0  0  0  0  0  0  0  0  0  0
    6.1827   -1.8948   27.1778 C   0  0  0  0  0  0  0  0  0  0  0  0
    5.8275   -2.4809   28.0311 H   0  0  0  0  0  0  0  0  0  0  0  0
    5.2904   -1.4073   26.7593 H   0  0  0  0  0  0  0  0  0  0  0  0
    7.1996   -0.8372   27.6231 C   0  0  0  0  0  0  0  0  0  0  0  0
    6.8169   -0.2272   28.4507 H   0  0  0  0  0  0  0  0  0  0  0  0
    8.0890   -1.3708   27.9855 H   0  0  0  0  0  0  0  0  0  0  0  0
    7.6700    0.0278   26.4488 C   0  0  0  0  0  0  0  0  0  0  0  0
    8.4363    0.7379   26.7865 H   0  0  0  0  0  0  0  0  0  0  0  0
    6.8384    0.6410   26.0722 H   0  0  0  0  0  0  0  0  0  0  0  0
    8.2426   -0.8552   25.3248 C   0  0  0  0  0  0  0  0  0  0  0  0
    8.5214   -0.2356   24.4632 H   0  0  0  0  0  0  0  0  0  0  0  0
    9.1759   -1.3207   25.6844 H   0  0  0  0  0  0  0  0  0  0  0  0
    9.1282   -1.4570   21.9882 C   0  0  0  0  0  0  0  0  0  0  0  0
   10.1419   -1.4491   22.3710 H   0  0  0  0  0  0  0  0  0  0  0  0
    8.8366   -0.7370   20.8145 N   0  0  0  0  0  0  0  0  0  0  0  0
    9.1406    0.2416   20.8184 H   0  0  0  0  0  0  0  0  0  0  0  0
    5.5264    0.5689   20.0420 C   0  0  0  0  0  0  0  0  0  0  0  0
    5.1170    0.5185   21.0518 H   0  0  0  0  0  0  0  0  0  0  0  0
    4.8809    1.2788   19.0256 C   0  0  0  0  0  0  0  0  0  0  0  0
    3.9444    1.7933   19.2048 H   0  0  0  0  0  0  0  0  0  0  0  0
  1  2  1  0
  2  3  2  0
  3  4  1  0
  4  5  1  0
  4  6  2  0
  6  7  1  0
  7  8  1  0
  8  9  2  0
  8 10  1  0
 10 11  1  0
 11 12  1  0
 11 13  1  0
 11 14  1  0
 14 15  1  0
 14 16  1  0
 16 17  1  0
 16 18  1  0
 16 19  1  0
 19 20  1  0
 19 21  1  0
 19 22  1  0
 22 23  1  0
 22 24  1  0
 22 25  1  0
 25 26  1  0
 25 27  1  0
 25 28  1  0
 28 29  1  0
 28 30  1  0
 10 31  2  0
 31 32  1  0
 31 33  1  0
 33 34  1  0
  6 35  1  0
 35 36  1  0
 35 37  2  0
 37 38  1  0
 37  2  1  0
 33  7  1  0
 28 14  1  0
M  END
>  <cnnaffinity>  (1) 
-5.34975

>  <filename>  (1) 
O=c1c(CC2CCCCC2)c[nH]n1-c1cccnc1

$$$$
