
     RDKit          3D

 30 32  0  0  0  0  0  0  0  0999 V2000
    7.8679   -5.6595   27.5228 H   0  0  0  0  0  0  0  0  0  0  0  0
    7.0539   -5.1962   27.2989 O   0  0  0  0  0  0  0  0  0  0  0  0
    7.2918   -4.4364   26.2042 C   0  0  0  0  0  0  0  0  0  0  0  0
    8.5402   -4.3714   25.5679 C   0  0  0  0  0  0  0  0  0  0  0  0
    9.3871   -4.9467   25.9423 H   0  0  0  0  0  0  0  0  0  0  0  0
    8.6958   -3.5555   24.4429 C   0  0  0  0  0  0  0  0  0  0  0  0
    9.6572   -3.5137   23.9378 H   0  0  0  0  0  0  0  0  0  0  0  0
    7.6239   -2.7957   23.9368 C   0  0  0  0  0  0  0  0  0  0  0  0
    7.7328   -1.9421   22.7506 C   0  0  0  0  0  0  0  0  0  0  0  0
    6.7648   -1.4449   21.9369 C   0  0  0  0  0  0  0  0  0  0  0  0
    5.7015   -1.6007   21.9595 H   0  0  0  0  0  0  0  0  0  0  0  0
    7.3586   -0.6763   20.9419 N   0  0  0  0  0  0  0  0  0  0  0  0
    6.6655    0.0057   19.9012 C   0  0  0  0  0  0  0  0  0  0  0  0
    7.1736    0.0552   18.5860 C   0  0  0  0  0  0  0  0  0  0  0  0
    8.1282   -0.4222   18.3733 H   0  0  0  0  0  0  0  0  0  0  0  0
    6.5550    0.6701   17.5729 N   0  0  0  0  0  0  0  0  0  0  0  0
    5.3949    1.2925   17.8382 C   0  0  0  0  0  0  0  0  0  0  0  0
    4.9168    1.7874   16.9961 H   0  0  0  0  0  0  0  0  0  0  0  0
    4.8112    1.3077   19.1083 C   0  0  0  0  0  0  0  0  0  0  0  0
    3.8801    1.8379   19.2639 H   0  0  0  0  0  0  0  0  0  0  0  0
    5.4470    0.6445   20.1608 C   0  0  0  0  0  0  0  0  0  0  0  0
    5.0230    0.6351   21.1655 H   0  0  0  0  0  0  0  0  0  0  0  0
    8.7489   -0.6793   21.1343 C   0  0  0  0  0  0  0  0  0  0  0  0
    9.6209   -0.1211   20.4979 O   0  0  0  0  0  0  0  0  0  0  0  0
    8.9341   -1.4773   22.2266 N   0  0  0  0  0  0  0  0  0  0  0  0
    9.8693   -1.5759   22.5743 H   0  0  0  0  0  0  0  0  0  0  0  0
    6.3828   -2.8867   24.6000 C   0  0  0  0  0  0  0  0  0  0  0  0
    5.5396   -2.3052   24.2390 H   0  0  0  0  0  0  0  0  0  0  0  0
    6.2105   -3.6927   25.7161 C   0  0  0  0  0  0  0  0  0  0  0  0
    5.2586   -3.7685   26.2308 H   0  0  0  0  0  0  0  0  0  0  0  0
  1  2  1  0
  2  3  1  0
  3  4  2  0
  4  5  1  0
  4  6  1  0
  6  7  1  0
  6  8  2  0
  8  9  1  0
  9 10  2  0
 10 11  1  0
 10 12  1  0
 12 13  1  0
 13 14  2  0
 14 15  1  0
 14 16  1  0
 16 17  2  0
 17 18  1  0
 17 19  1  0
 19 20  1  0
 19 21  2  0
 21 22  1  0
 12 23  1  0
 23 24  2  0
 23 25  1  0
 25 26  1  0
  8 27  1  0
 27 28  1  0
 27 29  2  0
 29 30  1  0
 29  3  1  0
 25  9  1  0
 21 13  1  0
M  END
>  <cnnaffinity>  (1) 
-5.28445

>  <filename>  (1) 
O=c1[nH]c(-c2ccc(O)cc2)cn1-c1cccnc1

$$$$
