
     RDKit          3D

 33 35  0  0  0  0  0  0  0  0999 V2000
    4.9425    1.8498   16.9362 H   0  0  0  0  0  0  0  0  0  0  0  0
    5.3994    1.3289   17.7748 C   0  0  0  0  0  0  0  0  0  0  0  0
    6.5541    0.6949   17.5184 N   0  0  0  0  0  0  0  0  0  0  0  0
    7.1383    0.0551   18.5396 C   0  0  0  0  0  0  0  0  0  0  0  0
    8.0829   -0.4343   18.3013 H   0  0  0  0  0  0  0  0  0  0  0  0
    6.6097   -0.0221   19.8473 C   0  0  0  0  0  0  0  0  0  0  0  0
    7.3267   -0.7520   20.9329 C   0  0  0  0  0  0  0  0  0  0  0  0
    6.6657   -1.5827   21.8904 C   0  0  0  0  0  0  0  0  0  0  0  0
    5.5936   -1.7500   21.8035 H   0  0  0  0  0  0  0  0  0  0  0  0
    7.3640   -2.2019   22.8865 C   0  0  0  0  0  0  0  0  0  0  0  0
    6.9225   -2.8476   23.6322 H   0  0  0  0  0  0  0  0  0  0  0  0
    8.7976   -2.0683   23.0438 C   0  0  0  0  0  0  0  0  0  0  0  0
    9.4625   -2.6439   23.8959 O   0  0  0  0  0  0  0  0  0  0  0  0
    9.4005   -1.2102   22.0706 N   0  0  0  0  0  0  0  0  0  0  0  0
   10.7961   -1.0711   22.0111 N   0  0  0  0  0  0  0  0  0  0  0  0
   11.2583   -1.8457   22.4847 H   0  0  0  0  0  0  0  0  0  0  0  0
   11.4094    0.1491   22.3743 C   0  0  0  0  0  0  0  0  0  0  0  0
   10.7220    1.3571   22.5523 C   0  0  0  0  0  0  0  0  0  0  0  0
    9.6365    1.3494   22.6110 H   0  0  0  0  0  0  0  0  0  0  0  0
   11.4324    2.5588   22.6279 C   0  0  0  0  0  0  0  0  0  0  0  0
   10.8743    3.4926   22.6182 H   0  0  0  0  0  0  0  0  0  0  0  0
   12.8325    2.5664   22.6336 C   0  0  0  0  0  0  0  0  0  0  0  0
   13.3895    3.5009   22.6687 H   0  0  0  0  0  0  0  0  0  0  0  0
   13.5139    1.3445   22.5391 C   0  0  0  0  0  0  0  0  0  0  0  0
   14.6020    1.3332   22.4975 H   0  0  0  0  0  0  0  0  0  0  0  0
   12.8132    0.1430   22.4246 C   0  0  0  0  0  0  0  0  0  0  0  0
   13.3356   -0.8033   22.3160 H   0  0  0  0  0  0  0  0  0  0  0  0
    8.6850   -0.6218   21.0494 C   0  0  0  0  0  0  0  0  0  0  0  0
    9.2889   -0.0014   20.3932 H   0  0  0  0  0  0  0  0  0  0  0  0
    5.4040    0.6549   20.0862 C   0  0  0  0  0  0  0  0  0  0  0  0
    4.9886    0.6870   21.0938 H   0  0  0  0  0  0  0  0  0  0  0  0
    4.7907    1.3346   19.0329 C   0  0  0  0  0  0  0  0  0  0  0  0
    3.8622    1.8720   19.1756 H   0  0  0  0  0  0  0  0  0  0  0  0
  1  2  1  0
  2  3  2  0
  3  4  1  0
  4  5  1  0
  4  6  2  0
  6  7  1  0
  7  8  1  0
  8  9  1  0
  8 10  2  0
 10 11  1  0
 10 12  1  0
 12 13  2  0
 12 14  1  0
 14 15  1  0
 15 16  1  0
 15 17  1  0
 17 18  2  0
 18 19  1  0
 18 20  1  0
 20 21  1  0
 20 22  2  0
 22 23  1  0
 22 24  1  0
 24 25  1  0
 24 26  2  0
 26 27  1  0
 14 28  1  0
 28 29  1  0
  6 30  1  0
 30 31  1  0
 30 32  2  0
 32 33  1  0
 32  2  1  0
 28  7  2  0
 26 17  1  0
M  END
>  <cnnaffinity>  (1) 
-4.65439

>  <filename>  (1) 
O=c1ccc(-c2cccnc2)cn1Nc1ccccc1

$$$$
