
     RDKit          3D

 30 32  0  0  0  0  0  0  0  0999 V2000
    5.1543    1.8077   16.8420 H   0  0  0  0  0  0  0  0  0  0  0  0
    5.5394    1.2966   17.7225 C   0  0  0  0  0  0  0  0  0  0  0  0
    6.6977    0.6286   17.5686 N   0  0  0  0  0  0  0  0  0  0  0  0
    7.2155    0.0307   18.6496 C   0  0  0  0  0  0  0  0  0  0  0  0
    8.1741   -0.4704   18.5287 H   0  0  0  0  0  0  0  0  0  0  0  0
    6.5910    0.0188   19.9122 C   0  0  0  0  0  0  0  0  0  0  0  0
    7.2329   -0.6542   21.0051 N   0  0  0  0  0  0  0  0  0  0  0  0
    8.5796   -0.4274   21.1239 N   0  0  0  0  0  0  0  0  0  0  0  0
    9.2429   -1.0543   22.0611 C   0  0  0  0  0  0  0  0  0  0  0  0
   10.6682   -0.6252   22.2093 C   0  0  0  0  0  0  0  0  0  0  0  0
   10.9858    0.7075   22.5107 C   0  0  0  0  0  0  0  0  0  0  0  0
   10.1675    1.4175   22.6483 H   0  0  0  0  0  0  0  0  0  0  0  0
   12.3284    1.0785   22.6371 C   0  0  0  0  0  0  0  0  0  0  0  0
   12.5798    2.1144   22.8478 H   0  0  0  0  0  0  0  0  0  0  0  0
   13.3487    0.1348   22.4527 C   0  0  0  0  0  0  0  0  0  0  0  0
   14.3938    0.3934   22.5824 H   0  0  0  0  0  0  0  0  0  0  0  0
   13.0110   -1.1621   22.0676 C   0  0  0  0  0  0  0  0  0  0  0  0
   14.2315   -2.2992   21.6258 Cl  0  0  0  0  0  0  0  0  0  0  0  0
   11.6833   -1.5542   21.9641 C   0  0  0  0  0  0  0  0  0  0  0  0
   11.4421   -2.5743   21.6941 H   0  0  0  0  0  0  0  0  0  0  0  0
    8.6487   -2.1506   22.9214 C   0  0  0  0  0  0  0  0  0  0  0  0
    9.2704   -2.9053   23.6558 O   0  0  0  0  0  0  0  0  0  0  0  0
    7.1945   -2.2255   22.7944 C   0  0  0  0  0  0  0  0  0  0  0  0
    6.6760   -2.8965   23.4643 H   0  0  0  0  0  0  0  0  0  0  0  0
    6.5584   -1.5088   21.8472 C   0  0  0  0  0  0  0  0  0  0  0  0
    5.4863   -1.5889   21.6617 H   0  0  0  0  0  0  0  0  0  0  0  0
    5.3673    0.6903   20.0542 C   0  0  0  0  0  0  0  0  0  0  0  0
    4.8575    0.7157   21.0191 H   0  0  0  0  0  0  0  0  0  0  0  0
    4.8503    1.3616   18.9388 C   0  0  0  0  0  0  0  0  0  0  0  0
    3.9358    1.9447   19.0043 H   0  0  0  0  0  0  0  0  0  0  0  0
  1  2  1  0
  2  3  2  0
  3  4  1  0
  4  5  1  0
  4  6  2  0
  6  7  1  0
  7  8  1  0
  8  9  2  0
  9 10  1  0
 10 11  2  0
 11 12  1  0
 11 13  1  0
 13 14  1  0
 13 15  2  0
 15 16  1  0
 15 17  1  0
 17 18  1  0
 17 19  2  0
 19 20  1  0
  9 21  1  0
 21 22  2  0
 21 23  1  0
 23 24  1  0
 23 25  2  0
 25 26  1  0
  6 27  1  0
 27 28  1  0
 27 29  2  0
 29 30  1  0
 29  2  1  0
 25  7  1  0
 19 10  1  0
M  END
>  <cnnaffinity>  (1) 
-5.40872

>  <filename>  (1) 
O=c1ccn(-c2cccnc2)nc1-c1cccc(Cl)c1

$$$$
