
     RDKit          3D

 33 36  0  0  0  0  0  0  0  0999 V2000
    4.9448    1.7951   16.9795 H   0  0  0  0  0  0  0  0  0  0  0  0
    5.4012    1.2972   17.8347 C   0  0  0  0  0  0  0  0  0  0  0  0
    6.5602    0.6672   17.5918 N   0  0  0  0  0  0  0  0  0  0  0  0
    7.1535    0.0488   18.6193 C   0  0  0  0  0  0  0  0  0  0  0  0
    8.0975   -0.4368   18.3771 H   0  0  0  0  0  0  0  0  0  0  0  0
    6.6259   -0.0009   19.9201 C   0  0  0  0  0  0  0  0  0  0  0  0
    7.3287   -0.7344   21.0137 C   0  0  0  0  0  0  0  0  0  0  0  0
    6.5825   -1.2983   21.9296 N   0  0  0  0  0  0  0  0  0  0  0  0
    7.1846   -2.0080   22.9484 N   0  0  0  0  0  0  0  0  0  0  0  0
    6.3629   -2.5762   23.9339 C   0  0  0  0  0  0  0  0  0  0  0  0
    5.1208   -3.0139   23.5710 O   0  0  0  0  0  0  0  0  0  0  0  0
    4.5182   -3.4212   24.7279 C   0  0  0  0  0  0  0  0  0  0  0  0
    3.1995   -3.8559   24.8867 C   0  0  0  0  0  0  0  0  0  0  0  0
    2.4997   -3.8577   24.0611 H   0  0  0  0  0  0  0  0  0  0  0  0
    2.8244   -4.2796   26.1618 C   0  0  0  0  0  0  0  0  0  0  0  0
    1.8161   -4.6490   26.3296 H   0  0  0  0  0  0  0  0  0  0  0  0
    3.7281   -4.2589   27.2438 C   0  0  0  0  0  0  0  0  0  0  0  0
    3.4081   -4.6240   28.2141 H   0  0  0  0  0  0  0  0  0  0  0  0
    5.0221   -3.7773   27.0809 C   0  0  0  0  0  0  0  0  0  0  0  0
    5.7269   -3.7680   27.9065 H   0  0  0  0  0  0  0  0  0  0  0  0
    5.4157   -3.3188   25.8085 C   0  0  0  0  0  0  0  0  0  0  0  0
    6.6117   -2.7577   25.2557 C   0  0  0  0  0  0  0  0  0  0  0  0
    7.5569   -2.5794   25.7371 H   0  0  0  0  0  0  0  0  0  0  0  0
    8.6113   -2.1329   23.1163 C   0  0  0  0  0  0  0  0  0  0  0  0
    9.1238   -2.7510   24.0315 O   0  0  0  0  0  0  0  0  0  0  0  0
    9.3795   -1.4604   22.0765 C   0  0  0  0  0  0  0  0  0  0  0  0
   10.4514   -1.5522   22.2025 H   0  0  0  0  0  0  0  0  0  0  0  0
    8.7710   -0.7918   21.0605 C   0  0  0  0  0  0  0  0  0  0  0  0
    9.3330   -0.2598   20.2998 H   0  0  0  0  0  0  0  0  0  0  0  0
    5.4078    0.6549   20.1553 C   0  0  0  0  0  0  0  0  0  0  0  0
    4.9690    0.6310   21.1544 H   0  0  0  0  0  0  0  0  0  0  0  0
    4.7925    1.3228   19.0948 C   0  0  0  0  0  0  0  0  0  0  0  0
    3.8600    1.8614   19.2260 H   0  0  0  0  0  0  0  0  0  0  0  0
  1  2  1  0
  2  3  2  0
  3  4  1  0
  4  5  1  0
  4  6  2  0
  6  7  1  0
  7  8  2  0
  8  9  1  0
  9 10  1  0
 10 11  1  0
 11 12  1  0
 12 13  2  0
 13 14  1  0
 13 15  1  0
 15 16  1  0
 15 17  2  0
 17 18  1  0
 17 19  1  0
 19 20  1  0
 19 21  2  0
 21 22  1  0
 22 23  1  0
  9 24  1  0
 24 25  2  0
 24 26  1  0
 26 27  1  0
 26 28  2  0
 28 29  1  0
  6 30  1  0
 30 31  1  0
 30 32  2  0
 32 33  1  0
 32  2  1  0
 28  7  1  0
 22 10  2  0
 21 12  1  0
M  END
>  <cnnaffinity>  (1) 
-5.06984

>  <filename>  (1) 
O=c1ccc(-c2cccnc2)nn1-c1cc2ccccc2o1

$$$$
