
     RDKit          3D

 29 31  0  0  0  0  0  0  0  0999 V2000
    4.9066    1.7755   17.0023 H   0  0  0  0  0  0  0  0  0  0  0  0
    5.3976    1.2939   17.8432 C   0  0  0  0  0  0  0  0  0  0  0  0
    6.5633    0.6790   17.5795 N   0  0  0  0  0  0  0  0  0  0  0  0
    7.1804    0.0590   18.5924 C   0  0  0  0  0  0  0  0  0  0  0  0
    8.1296   -0.4314   18.3837 H   0  0  0  0  0  0  0  0  0  0  0  0
    6.6665    0.0019   19.9084 C   0  0  0  0  0  0  0  0  0  0  0  0
    7.3576   -0.6870   20.9494 N   0  0  0  0  0  0  0  0  0  0  0  0
    6.7692   -1.4501   21.9515 C   0  0  0  0  0  0  0  0  0  0  0  0
    5.7023   -1.5989   21.9866 H   0  0  0  0  0  0  0  0  0  0  0  0
    7.7394   -1.9406   22.7538 C   0  0  0  0  0  0  0  0  0  0  0  0
    7.6123   -2.7914   23.9361 C   0  0  0  0  0  0  0  0  0  0  0  0
    8.6989   -3.5374   24.4184 C   0  0  0  0  0  0  0  0  0  0  0  0
    9.6680   -3.5156   23.9336 H   0  0  0  0  0  0  0  0  0  0  0  0
    8.5092   -4.3360   25.5353 C   0  0  0  0  0  0  0  0  0  0  0  0
    9.5432   -5.0501   26.0005 F   0  0  0  0  0  0  0  0  0  0  0  0
    7.2851   -4.4259   26.1924 C   0  0  0  0  0  0  0  0  0  0  0  0
    7.1606   -5.0549   27.0610 H   0  0  0  0  0  0  0  0  0  0  0  0
    6.2282   -3.6756   25.6871 C   0  0  0  0  0  0  0  0  0  0  0  0
    5.0385   -3.7435   26.2999 F   0  0  0  0  0  0  0  0  0  0  0  0
    6.3619   -2.8629   24.5732 C   0  0  0  0  0  0  0  0  0  0  0  0
    5.5137   -2.2852   24.2254 H   0  0  0  0  0  0  0  0  0  0  0  0
    8.9463   -1.4789   22.2354 N   0  0  0  0  0  0  0  0  0  0  0  0
    9.8734   -1.6075   22.5944 H   0  0  0  0  0  0  0  0  0  0  0  0
    8.7508   -0.6820   21.1363 C   0  0  0  0  0  0  0  0  0  0  0  0
    9.5918   -0.1083   20.4745 O   0  0  0  0  0  0  0  0  0  0  0  0
    5.4468    0.6453   20.1622 C   0  0  0  0  0  0  0  0  0  0  0  0
    5.0141    0.6299   21.1617 H   0  0  0  0  0  0  0  0  0  0  0  0
    4.8078    1.3115   19.1113 C   0  0  0  0  0  0  0  0  0  0  0  0
    3.8730    1.8440   19.2681 H   0  0  0  0  0  0  0  0  0  0  0  0
  1  2  1  0
  2  3  2  0
  3  4  1  0
  4  5  1  0
  4  6  2  0
  6  7  1  0
  7  8  1  0
  8  9  1  0
  8 10  2  0
 10 11  1  0
 11 12  2  0
 12 13  1  0
 12 14  1  0
 14 15  1  0
 14 16  2  0
 16 17  1  0
 16 18  1  0
 18 19  1  0
 18 20  2  0
 20 21  1  0
 10 22  1  0
 22 23  1  0
 22 24  1  0
 24 25  2  0
  6 26  1  0
 26 27  1  0
 26 28  2  0
 28 29  1  0
 28  2  1  0
 24  7  1  0
 20 11  1  0
M  END
>  <cnnaffinity>  (1) 
-5.51539

>  <filename>  (1) 
O=c1[nH]c(-c2cc(F)cc(F)c2)cn1-c1cccnc1

$$$$
