
     RDKit          3D

 33 36  0  0  0  0  0  0  0  0999 V2000
    4.9110    1.7810   16.9939 H   0  0  0  0  0  0  0  0  0  0  0  0
    5.3961    1.2964   17.8355 C   0  0  0  0  0  0  0  0  0  0  0  0
    6.5598    0.6773   17.5742 N   0  0  0  0  0  0  0  0  0  0  0  0
    7.1684    0.0592   18.5907 C   0  0  0  0  0  0  0  0  0  0  0  0
    8.1211   -0.4231   18.3872 H   0  0  0  0  0  0  0  0  0  0  0  0
    6.6393   -0.0007   19.8955 C   0  0  0  0  0  0  0  0  0  0  0  0
    7.3509   -0.6827   20.9063 N   0  0  0  0  0  0  0  0  0  0  0  0
    8.7524   -0.6553   21.1398 C   0  0  0  0  0  0  0  0  0  0  0  0
    9.5702   -0.0473   20.4679 O   0  0  0  0  0  0  0  0  0  0  0  0
    8.8987   -1.4848   22.3038 C   0  0  0  0  0  0  0  0  0  0  0  0
    9.8524   -1.6430   22.7604 H   0  0  0  0  0  0  0  0  0  0  0  0
    7.6839   -1.9240   22.7320 C   0  0  0  0  0  0  0  0  0  0  0  0
    7.3293   -2.7373   23.8975 C   0  0  0  0  0  0  0  0  0  0  0  0
    6.1806   -2.4901   24.6575 C   0  0  0  0  0  0  0  0  0  0  0  0
    5.5234   -1.6759   24.3689 H   0  0  0  0  0  0  0  0  0  0  0  0
    5.8891   -3.2518   25.8044 C   0  0  0  0  0  0  0  0  0  0  0  0
    4.9880   -3.0327   26.3668 H   0  0  0  0  0  0  0  0  0  0  0  0
    6.7314   -4.2805   26.2214 C   0  0  0  0  0  0  0  0  0  0  0  0
    6.5222   -4.8859   27.0989 H   0  0  0  0  0  0  0  0  0  0  0  0
    7.8744   -4.5272   25.4561 C   0  0  0  0  0  0  0  0  0  0  0  0
    8.1985   -3.7807   24.3001 C   0  0  0  0  0  0  0  0  0  0  0  0
    9.4014   -4.3559   23.7739 C   0  0  0  0  0  0  0  0  0  0  0  0
    9.8812   -4.0203   22.8669 H   0  0  0  0  0  0  0  0  0  0  0  0
    9.7654   -5.3809   24.5949 C   0  0  0  0  0  0  0  0  0  0  0  0
   10.6120   -6.0564   24.5347 H   0  0  0  0  0  0  0  0  0  0  0  0
    8.8445   -5.4842   25.6133 N   0  0  0  0  0  0  0  0  0  0  0  0
    8.8484   -6.1590   26.3572 H   0  0  0  0  0  0  0  0  0  0  0  0
    6.7359   -1.4105   21.9066 N   0  0  0  0  0  0  0  0  0  0  0  0
    5.7389   -1.5709   21.9130 H   0  0  0  0  0  0  0  0  0  0  0  0
    5.4269    0.6522   20.1595 C   0  0  0  0  0  0  0  0  0  0  0  0
    5.0133    0.6328   21.1706 H   0  0  0  0  0  0  0  0  0  0  0  0
    4.8005    1.3174   19.1042 C   0  0  0  0  0  0  0  0  0  0  0  0
    3.8673    1.8486   19.2616 H   0  0  0  0  0  0  0  0  0  0  0  0
  1  2  1  0
  2  3  2  0
  3  4  1  0
  4  5  1  0
  4  6  2  0
  6  7  1  0
  7  8  1  0
  8  9  2  0
  8 10  1  0
 10 11  1  0
 10 12  2  0
 12 13  1  0
 13 14  2  0
 14 15  1  0
 14 16  1  0
 16 17  1  0
 16 18  2  0
 18 19  1  0
 18 20  1  0
 20 21  2  0
 21 22  1  0
 22 23  1  0
 22 24  2  0
 24 25  1  0
 24 26  1  0
 26 27  1  0
 12 28  1  0
 28 29  1  0
  6 30  1  0
 30 31  1  0
 30 32  2  0
 32 33  1  0
 32  2  1  0
 28  7  1  0
 21 13  1  0
 26 20  1  0
M  END
>  <cnnaffinity>  (1) 
-5.39997

>  <filename>  (1) 
O=c1cc(-c2cccc3[nH]ccc23)[nH]n1-c1cccnc1

$$$$
