
     RDKit          3D

 33 35  0  0  0  0  0  0  0  0999 V2000
   15.2921   -1.0460   22.5492 H   0  0  0  0  0  0  0  0  0  0  0  0
   14.8322   -0.1899   22.5750 O   0  0  0  0  0  0  0  0  0  0  0  0
   13.5193   -0.4456   22.3901 C   0  0  0  0  0  0  0  0  0  0  0  0
   12.6184    0.6090   22.5222 C   0  0  0  0  0  0  0  0  0  0  0  0
   13.0026    1.6103   22.6925 H   0  0  0  0  0  0  0  0  0  0  0  0
   11.2505    0.3593   22.4074 C   0  0  0  0  0  0  0  0  0  0  0  0
   10.5258    1.1638   22.4578 H   0  0  0  0  0  0  0  0  0  0  0  0
   10.7958   -0.9483   22.2224 C   0  0  0  0  0  0  0  0  0  0  0  0
    9.3974   -1.2025   22.0993 N   0  0  0  0  0  0  0  0  0  0  0  0
    8.6917   -0.5814   21.0911 C   0  0  0  0  0  0  0  0  0  0  0  0
    9.2762    0.0608   20.4338 H   0  0  0  0  0  0  0  0  0  0  0  0
    7.3459   -0.7334   20.9374 C   0  0  0  0  0  0  0  0  0  0  0  0
    6.6340   -0.0122   19.8458 C   0  0  0  0  0  0  0  0  0  0  0  0
    7.1637    0.0515   18.5385 C   0  0  0  0  0  0  0  0  0  0  0  0
    8.0991   -0.4580   18.3048 H   0  0  0  0  0  0  0  0  0  0  0  0
    6.5811    0.6874   17.5133 N   0  0  0  0  0  0  0  0  0  0  0  0
    5.4261    1.3232   17.7710 C   0  0  0  0  0  0  0  0  0  0  0  0
    4.9690    1.8384   16.9326 H   0  0  0  0  0  0  0  0  0  0  0  0
    4.8121    1.3372   19.0276 C   0  0  0  0  0  0  0  0  0  0  0  0
    3.8819    1.8731   19.1723 H   0  0  0  0  0  0  0  0  0  0  0  0
    5.4251    0.6603   20.0814 C   0  0  0  0  0  0  0  0  0  0  0  0
    5.0062    0.6753   21.0887 H   0  0  0  0  0  0  0  0  0  0  0  0
    6.6623   -1.5784   21.8743 C   0  0  0  0  0  0  0  0  0  0  0  0
    5.5873   -1.7166   21.7693 H   0  0  0  0  0  0  0  0  0  0  0  0
    7.3459   -2.2315   22.8560 C   0  0  0  0  0  0  0  0  0  0  0  0
    6.8812   -2.8782   23.5856 H   0  0  0  0  0  0  0  0  0  0  0  0
    8.7867   -2.1200   23.0099 C   0  0  0  0  0  0  0  0  0  0  0  0
    9.4209   -2.7450   23.8423 O   0  0  0  0  0  0  0  0  0  0  0  0
   11.6923   -2.0133   22.1249 C   0  0  0  0  0  0  0  0  0  0  0  0
   11.3259   -3.0313   22.1795 H   0  0  0  0  0  0  0  0  0  0  0  0
   13.0488   -1.7442   22.0801 C   0  0  0  0  0  0  0  0  0  0  0  0
   13.9791   -2.7158   21.7987 O   0  0  0  0  0  0  0  0  0  0  0  0
   13.4928   -3.4618   21.4065 H   0  0  0  0  0  0  0  0  0  0  0  0
  1  2  1  0
  2  3  1  0
  3  4  2  0
  4  5  1  0
  4  6  1  0
  6  7  1  0
  6  8  2  0
  8  9  1  0
  9 10  1  0
 10 11  1  0
 10 12  2  0
 12 13  1  0
 13 14  2  0
 14 15  1  0
 14 16  1  0
 16 17  2  0
 17 18  1  0
 17 19  1  0
 19 20  1  0
 19 21  2  0
 21 22  1  0
 12 23  1  0
 23 24  1  0
 23 25  2  0
 25 26  1  0
 25 27  1  0
 27 28  2  0
  8 29  1  0
 29 30  1  0
 29 31  2  0
 31 32  1  0
 32 33  1  0
 31  3  1  0
 27  9  1  0
 21 13  1  0
M  END
>  <cnnaffinity>  (1) 
-6.05707

>  <filename>  (1) 
O=c1ccc(-c2cccnc2)cn1-c1ccc(O)c(O)c1

$$$$
