
     RDKit          3D

 33 35  0  0  0  0  0  0  0  0999 V2000
   12.1438   -1.9768   22.9008 H   0  0  0  0  0  0  0  0  0  0  0  0
   12.5823   -1.1699   22.6062 O   0  0  0  0  0  0  0  0  0  0  0  0
   11.6299   -0.2319   22.3800 C   0  0  0  0  0  0  0  0  0  0  0  0
   12.0913    1.0376   22.0366 C   0  0  0  0  0  0  0  0  0  0  0  0
   13.1636    1.1912   22.0236 H   0  0  0  0  0  0  0  0  0  0  0  0
   11.1782    2.0357   21.7163 C   0  0  0  0  0  0  0  0  0  0  0  0
   11.5470    3.0153   21.4332 H   0  0  0  0  0  0  0  0  0  0  0  0
    9.8042    1.7808   21.7588 C   0  0  0  0  0  0  0  0  0  0  0  0
    9.1086    2.5750   21.4923 H   0  0  0  0  0  0  0  0  0  0  0  0
    9.3402    0.5149   22.1330 C   0  0  0  0  0  0  0  0  0  0  0  0
    7.8531    0.2118   22.1331 C   0  0  2  0  0  0  0  0  0  0  0  0
    7.3155    1.1652   22.1004 H   0  0  0  0  0  0  0  0  0  0  0  0
    7.3862   -0.4714   23.4089 C   0  0  0  0  0  0  0  0  0  0  0  0
    7.5231   -0.1086   24.5574 O   0  0  0  0  0  0  0  0  0  0  0  0
    6.7480   -1.6128   23.0480 N   0  0  0  0  0  0  0  0  0  0  0  0
    6.3194   -2.1343   23.7917 H   0  0  0  0  0  0  0  0  0  0  0  0
    6.5670   -1.8525   21.6369 C   0  0  0  0  0  0  0  0  0  0  0  0
    6.9337   -2.8477   21.3482 H   0  0  0  0  0  0  0  0  0  0  0  0
    5.5034   -1.8147   21.3435 H   0  0  0  0  0  0  0  0  0  0  0  0
    7.4016   -0.7265   20.9780 C   0  0  1  0  0  0  0  0  0  0  0  0
    8.2961   -1.1909   20.5434 H   0  0  0  0  0  0  0  0  0  0  0  0
    6.6616    0.0036   19.8876 C   0  0  0  0  0  0  0  0  0  0  0  0
    7.1691    0.0674   18.5806 C   0  0  0  0  0  0  0  0  0  0  0  0
    8.1189   -0.4170   18.3567 H   0  0  0  0  0  0  0  0  0  0  0  0
    6.5599    0.6846   17.5653 N   0  0  0  0  0  0  0  0  0  0  0  0
    5.3975    1.2954   17.8312 C   0  0  0  0  0  0  0  0  0  0  0  0
    4.9125    1.7878   16.9931 H   0  0  0  0  0  0  0  0  0  0  0  0
    4.8082    1.3109   19.1003 C   0  0  0  0  0  0  0  0  0  0  0  0
    3.8779    1.8410   19.2570 H   0  0  0  0  0  0  0  0  0  0  0  0
    5.4455    0.6502   20.1500 C   0  0  0  0  0  0  0  0  0  0  0  0
    5.0131    0.6338   21.1538 H   0  0  0  0  0  0  0  0  0  0  0  0
   10.2577   -0.4988   22.4442 C   0  0  0  0  0  0  0  0  0  0  0  0
    9.8942   -1.4903   22.7109 H   0  0  0  0  0  0  0  0  0  0  0  0
  1  2  1  0
  2  3  1  0
  3  4  2  0
  4  5  1  0
  4  6  1  0
  6  7  1  0
  6  8  2  0
  8  9  1  0
  8 10  1  0
 10 11  1  0
 11 12  1  6
 11 13  1  0
 13 14  2  0
 13 15  1  0
 15 16  1  0
 15 17  1  0
 17 18  1  0
 17 19  1  0
 17 20  1  0
 20 21  1  6
 20 22  1  0
 22 23  2  0
 23 24  1  0
 23 25  1  0
 25 26  2  0
 26 27  1  0
 26 28  1  0
 28 29  1  0
 28 30  2  0
 30 31  1  0
 10 32  2  0
 32 33  1  0
 32  3  1  0
 20 11  1  0
 30 22  1  0
M  END
>  <cnnaffinity>  (1) 
-4.60311

>  <filename>  (1) 
O=C1NC[C@@H](c2cccnc2)[C@@H]1c1cccc(O)c1

$$$$
