
     RDKit          3D

 41 44  0  0  0  0  0  0  0  0999 V2000
    4.9486    1.8701   16.9548 H   0  0  0  0  0  0  0  0  0  0  0  0
    5.4094    1.3376   17.7854 C   0  0  0  0  0  0  0  0  0  0  0  0
    6.5715    0.7168   17.5245 N   0  0  0  0  0  0  0  0  0  0  0  0
    7.1693    0.0683   18.5314 C   0  0  0  0  0  0  0  0  0  0  0  0
    8.1123   -0.4157   18.2881 H   0  0  0  0  0  0  0  0  0  0  0  0
    6.6366   -0.0231   19.8350 C   0  0  0  0  0  0  0  0  0  0  0  0
    7.3329   -0.7163   20.9033 N   0  0  0  0  0  0  0  0  0  0  0  0
    8.6030   -0.2831   21.2619 C   0  0  0  0  0  0  0  0  0  0  0  0
    8.9797    0.5708   20.7060 H   0  0  0  0  0  0  0  0  0  0  0  0
    9.3507   -0.8755   22.2197 C   0  0  0  0  0  0  0  0  0  0  0  0
   10.7372   -0.4100   22.4801 C   0  0  0  0  0  0  0  0  0  0  0  0
   11.8209   -1.2975   22.3803 C   0  0  0  0  0  0  0  0  0  0  0  0
   11.6468   -2.3444   22.1531 H   0  0  0  0  0  0  0  0  0  0  0  0
   13.1248   -0.8344   22.5769 C   0  0  0  0  0  0  0  0  0  0  0  0
   13.9574   -1.5232   22.4659 H   0  0  0  0  0  0  0  0  0  0  0  0
   13.3640    0.4957   22.9188 C   0  0  0  0  0  0  0  0  0  0  0  0
   14.3846    0.8213   23.1155 H   0  0  0  0  0  0  0  0  0  0  0  0
   12.3021    1.4190   23.0278 C   0  0  0  0  0  0  0  0  0  0  0  0
   12.5753    2.8675   23.3496 C   0  0  0  0  0  0  0  0  0  0  0  0
   13.7731    3.4745   22.9163 C   0  0  0  0  0  0  0  0  0  0  0  0
   14.5483    2.8674   22.4590 H   0  0  0  0  0  0  0  0  0  0  0  0
   14.0025    4.8444   23.0615 C   0  0  0  0  0  0  0  0  0  0  0  0
   14.9045    5.2905   22.6442 H   0  0  0  0  0  0  0  0  0  0  0  0
   13.0641    5.6406   23.7243 C   0  0  0  0  0  0  0  0  0  0  0  0
   13.2374    6.7099   23.8273 H   0  0  0  0  0  0  0  0  0  0  0  0
   11.9037    5.0510   24.2382 C   0  0  0  0  0  0  0  0  0  0  0  0
   11.1800    5.6660   24.7693 H   0  0  0  0  0  0  0  0  0  0  0  0
   11.6556    3.6845   24.0453 C   0  0  0  0  0  0  0  0  0  0  0  0
   10.7390    3.2551   24.4458 H   0  0  0  0  0  0  0  0  0  0  0  0
   11.0003    0.9407   22.7769 C   0  0  0  0  0  0  0  0  0  0  0  0
   10.1729    1.6449   22.7714 H   0  0  0  0  0  0  0  0  0  0  0  0
    8.7625   -2.0118   22.9658 C   0  0  0  0  0  0  0  0  0  0  0  0
    9.2592   -2.7041   23.8254 O   0  0  0  0  0  0  0  0  0  0  0  0
    7.4595   -2.2960   22.6182 N   0  0  0  0  0  0  0  0  0  0  0  0
    7.0381   -3.0621   23.0992 H   0  0  0  0  0  0  0  0  0  0  0  0
    6.7185   -1.7850   21.6049 C   0  0  0  0  0  0  0  0  0  0  0  0
    5.6344   -2.2570   21.3546 O   0  0  0  0  0  0  0  0  0  0  0  0
    5.4209    0.6234   20.0906 C   0  0  0  0  0  0  0  0  0  0  0  0
    4.9800    0.5821   21.0866 H   0  0  0  0  0  0  0  0  0  0  0  0
    4.8020    1.3203   19.0452 C   0  0  0  0  0  0  0  0  0  0  0  0
    3.8712    1.8576   19.1977 H   0  0  0  0  0  0  0  0  0  0  0  0
  1  2  1  0
  2  3  2  0
  3  4  1  0
  4  5  1  0
  4  6  2  0
  6  7  1  0
  7  8  1  0
  8  9  1  0
  8 10  2  0
 10 11  1  0
 11 12  2  0
 12 13  1  0
 12 14  1  0
 14 15  1  0
 14 16  2  0
 16 17  1  0
 16 18  1  0
 18 19  1  0
 19 20  2  0
 20 21  1  0
 20 22  1  0
 22 23  1  0
 22 24  2  0
 24 25  1  0
 24 26  1  0
 26 27  1  0
 26 28  2  0
 28 29  1  0
 18 30  2  0
 30 31  1  0
 10 32  1  0
 32 33  2  0
 32 34  1  0
 34 35  1  0
 34 36  1  0
 36 37  2  0
  6 38  1  0
 38 39  1  0
 38 40  2  0
 40 41  1  0
 40  2  1  0
 36  7  1  0
 30 11  1  0
 28 19  1  0
M  END
>  <cnnaffinity>  (1) 
-6.12734

>  <filename>  (1) 
O=c1[nH]c(=O)n(-c2cccnc2)cc1-c1cccc(-c2ccccc2)c1

$$$$
