
     RDKit          3D

 35 37  0  0  0  0  0  0  0  0999 V2000
    7.1213    1.0140   22.3523 H   0  0  0  0  0  0  0  0  0  0  0  0
    7.5189    0.0458   22.1069 C   0  0  0  0  0  0  0  0  0  0  0  0
    7.3791   -0.4725   20.8796 C   0  0  0  0  0  0  0  0  0  0  0  0
    6.6124    0.1338   19.7785 C   0  0  0  0  0  0  0  0  0  0  0  0
    7.1198    0.1132   18.4679 C   0  0  0  0  0  0  0  0  0  0  0  0
    8.0582   -0.3980   18.2595 H   0  0  0  0  0  0  0  0  0  0  0  0
    6.5291    0.6989   17.4224 N   0  0  0  0  0  0  0  0  0  0  0  0
    5.3624    1.3247   17.6476 C   0  0  0  0  0  0  0  0  0  0  0  0
    4.9119    1.8091   16.7844 H   0  0  0  0  0  0  0  0  0  0  0  0
    4.7399    1.3709   18.9020 C   0  0  0  0  0  0  0  0  0  0  0  0
    3.7955    1.8938   19.0143 H   0  0  0  0  0  0  0  0  0  0  0  0
    5.3800    0.7775   19.9911 C   0  0  0  0  0  0  0  0  0  0  0  0
    4.9368    0.7870   20.9905 H   0  0  0  0  0  0  0  0  0  0  0  0
    8.0233   -1.6718   20.5953 N   0  0  0  0  0  0  0  0  0  0  0  0
    7.7499   -2.2001   19.7839 H   0  0  0  0  0  0  0  0  0  0  0  0
    8.3590   -2.5907   21.5733 C   0  0  0  0  0  0  0  0  0  0  0  0
    8.5184   -3.7453   21.2327 O   0  0  0  0  0  0  0  0  0  0  0  0
    8.4292   -2.1091   22.8679 N   0  0  0  0  0  0  0  0  0  0  0  0
    8.5170   -2.9951   23.9701 C   0  0  0  0  0  0  0  0  0  0  0  0
    7.8838   -4.2521   23.9581 C   0  0  0  0  0  0  0  0  0  0  0  0
    7.3616   -4.5850   23.0727 H   0  0  0  0  0  0  0  0  0  0  0  0
    7.9131   -5.0520   25.0989 C   0  0  0  0  0  0  0  0  0  0  0  0
    7.3797   -5.9988   25.0975 H   0  0  0  0  0  0  0  0  0  0  0  0
    8.6012   -4.6278   26.2449 C   0  0  0  0  0  0  0  0  0  0  0  0
    8.6093   -5.4491   27.5086 C   0  0  0  0  0  0  0  0  0  0  0  0
    7.6417   -5.0661   28.3652 F   0  0  0  0  0  0  0  0  0  0  0  0
    8.4059   -6.7510   27.2708 F   0  0  0  0  0  0  0  0  0  0  0  0
    9.7765   -5.3257   28.1710 F   0  0  0  0  0  0  0  0  0  0  0  0
    9.2526   -3.3903   26.2420 C   0  0  0  0  0  0  0  0  0  0  0  0
    9.8156   -3.0757   27.1137 H   0  0  0  0  0  0  0  0  0  0  0  0
    9.1966   -2.5713   25.1231 C   0  0  0  0  0  0  0  0  0  0  0  0
    9.6546   -1.5878   25.1412 H   0  0  0  0  0  0  0  0  0  0  0  0
    8.3706   -0.6524   23.1177 C   0  0  0  0  0  0  0  0  0  0  0  0
    9.3931   -0.2242   23.1271 H   0  0  0  0  0  0  0  0  0  0  0  0
    7.9453   -0.4634   24.1129 H   0  0  0  0  0  0  0  0  0  0  0  0
  1  2  1  0
  2  3  2  0
  3  4  1  0
  4  5  2  0
  5  6  1  0
  5  7  1  0
  7  8  2  0
  8  9  1  0
  8 10  1  0
 10 11  1  0
 10 12  2  0
 12 13  1  0
  3 14  1  0
 14 15  1  0
 14 16  1  0
 16 17  2  0
 16 18  1  0
 18 19  1  0
 19 20  2  0
 20 21  1  0
 20 22  1  0
 22 23  1  0
 22 24  2  0
 24 25  1  0
 25 26  1  0
 25 27  1  0
 25 28  1  0
 24 29  1  0
 29 30  1  0
 29 31  2  0
 31 32  1  0
 18 33  1  0
 33 34  1  0
 33 35  1  0
 33  2  1  0
 12  4  1  0
 31 19  1  0
M  END
>  <cnnaffinity>  (1) 
-5.15266

>  <filename>  (1) 
O=C1NC(c2cccnc2)=CCN1c1ccc(C(F)(F)F)cc1

$$$$
