
     RDKit          3D

 34 36  0  0  0  0  0  0  0  0999 V2000
    4.9128    1.7926   16.9854 H   0  0  0  0  0  0  0  0  0  0  0  0
    5.3925    1.3004   17.8260 C   0  0  0  0  0  0  0  0  0  0  0  0
    6.5531    0.6839   17.5537 N   0  0  0  0  0  0  0  0  0  0  0  0
    7.1689    0.0791   18.5751 C   0  0  0  0  0  0  0  0  0  0  0  0
    8.1071   -0.4219   18.3418 H   0  0  0  0  0  0  0  0  0  0  0  0
    6.6656    0.0252   19.8893 C   0  0  0  0  0  0  0  0  0  0  0  0
    7.3922   -0.6889   20.9630 C   0  0  0  0  0  0  0  0  0  0  0  0
    6.6960   -1.5443   21.8654 C   0  0  0  0  0  0  0  0  0  0  0  0
    5.6225   -1.6639   21.7218 H   0  0  0  0  0  0  0  0  0  0  0  0
    7.3469   -2.2363   22.8619 C   0  0  0  0  0  0  0  0  0  0  0  0
    6.6150   -3.0987   23.8024 C   0  0  0  0  0  0  0  0  0  0  0  0
    6.4198   -2.6373   25.1160 C   0  0  0  0  0  0  0  0  0  0  0  0
    6.8498   -1.6801   25.3961 H   0  0  0  0  0  0  0  0  0  0  0  0
    5.6883   -3.3923   26.0341 C   0  0  0  0  0  0  0  0  0  0  0  0
    5.5465   -3.0270   27.0473 H   0  0  0  0  0  0  0  0  0  0  0  0
    5.1467   -4.6197   25.6450 C   0  0  0  0  0  0  0  0  0  0  0  0
    4.5773   -5.2166   26.3531 H   0  0  0  0  0  0  0  0  0  0  0  0
    5.3411   -5.0964   24.3470 C   0  0  0  0  0  0  0  0  0  0  0  0
    4.9223   -6.0580   24.0540 H   0  0  0  0  0  0  0  0  0  0  0  0
    6.0821   -4.3483   23.4192 C   0  0  0  0  0  0  0  0  0  0  0  0
    6.2966   -4.8801   22.0080 C   0  0  0  0  0  0  0  0  0  0  0  0
    5.4867   -4.2628   21.1171 F   0  0  0  0  0  0  0  0  0  0  0  0
    6.0423   -6.1981   21.9109 F   0  0  0  0  0  0  0  0  0  0  0  0
    7.5597   -4.6870   21.5715 F   0  0  0  0  0  0  0  0  0  0  0  0
    8.7909   -2.0661   23.0509 C   0  0  0  0  0  0  0  0  0  0  0  0
    9.5352   -2.5541   23.8806 O   0  0  0  0  0  0  0  0  0  0  0  0
    9.3764   -1.2070   22.1175 N   0  0  0  0  0  0  0  0  0  0  0  0
   10.3672   -1.1653   22.3002 H   0  0  0  0  0  0  0  0  0  0  0  0
    8.7439   -0.5464   21.1109 C   0  0  0  0  0  0  0  0  0  0  0  0
    9.3327    0.0999   20.4607 H   0  0  0  0  0  0  0  0  0  0  0  0
    5.4394    0.6540   20.1449 C   0  0  0  0  0  0  0  0  0  0  0  0
    5.0224    0.6314   21.1556 H   0  0  0  0  0  0  0  0  0  0  0  0
    4.8036    1.3170   19.0958 C   0  0  0  0  0  0  0  0  0  0  0  0
    3.8721    1.8437   19.2513 H   0  0  0  0  0  0  0  0  0  0  0  0
  1  2  1  0
  2  3  2  0
  3  4  1  0
  4  5  1  0
  4  6  2  0
  6  7  1  0
  7  8  1  0
  8  9  1  0
  8 10  2  0
 10 11  1  0
 11 12  2  0
 12 13  1  0
 12 14  1  0
 14 15  1  0
 14 16  2  0
 16 17  1  0
 16 18  1  0
 18 19  1  0
 18 20  2  0
 20 21  1  0
 21 22  1  0
 21 23  1  0
 21 24  1  0
 10 25  1  0
 25 26  2  0
 25 27  1  0
 27 28  1  0
 27 29  1  0
 29 30  1  0
  6 31  1  0
 31 32  1  0
 31 33  2  0
 33 34  1  0
 33  2  1  0
 29  7  2  0
 20 11  1  0
M  END
>  <cnnaffinity>  (1) 
-5.83934

>  <filename>  (1) 
O=c1[nH]cc(-c2cccnc2)cc1-c1ccccc1C(F)(F)F

$$$$
