
     RDKit          3D

 31 33  0  0  0  0  0  0  0  0999 V2000
    4.9471    1.8100   16.9611 H   0  0  0  0  0  0  0  0  0  0  0  0
    5.3929    1.2901   17.8076 C   0  0  0  0  0  0  0  0  0  0  0  0
    6.5421    0.6386   17.5685 N   0  0  0  0  0  0  0  0  0  0  0  0
    7.1427    0.0262   18.5929 C   0  0  0  0  0  0  0  0  0  0  0  0
    8.0754   -0.4861   18.3541 H   0  0  0  0  0  0  0  0  0  0  0  0
    6.6437    0.0453   19.9044 C   0  0  0  0  0  0  0  0  0  0  0  0
    7.4149   -0.6612   20.9349 C   0  0  0  0  0  0  0  0  0  0  0  0
    8.0852   -1.7460   20.6837 N   0  0  0  0  0  0  0  0  0  0  0  0
    8.5599   -2.1344   21.9103 N   0  0  0  0  0  0  0  0  0  0  0  0
    9.1029   -2.9600   22.0940 H   0  0  0  0  0  0  0  0  0  0  0  0
    8.2283   -1.3027   22.9287 C   0  0  0  0  0  0  0  0  0  0  0  0
    8.5304   -1.3928   24.0986 O   0  0  0  0  0  0  0  0  0  0  0  0
    7.4583   -0.3347   22.2791 N   0  0  0  0  0  0  0  0  0  0  0  0
    7.0086    0.8268   22.9580 C   0  0  0  0  0  0  0  0  0  0  0  0
    6.0016    0.6796   23.9134 C   0  0  0  0  0  0  0  0  0  0  0  0
    5.7266   -0.3367   24.1760 H   0  0  0  0  0  0  0  0  0  0  0  0
    5.4108    1.8059   24.4890 C   0  0  0  0  0  0  0  0  0  0  0  0
    4.5961    1.6890   25.2027 H   0  0  0  0  0  0  0  0  0  0  0  0
    5.8910    3.0775   24.1452 C   0  0  0  0  0  0  0  0  0  0  0  0
    5.4620    3.9645   24.5953 H   0  0  0  0  0  0  0  0  0  0  0  0
    6.9552    3.2211   23.2505 C   0  0  0  0  0  0  0  0  0  0  0  0
    7.3386    4.2136   23.0108 H   0  0  0  0  0  0  0  0  0  0  0  0
    7.5492    2.0889   22.6753 C   0  0  0  0  0  0  0  0  0  0  0  0
    8.7456    2.2208   21.7508 C   0  0  0  0  0  0  0  0  0  0  0  0
    9.4037    3.3734   21.9671 F   0  0  0  0  0  0  0  0  0  0  0  0
    8.3771    2.2135   20.4567 F   0  0  0  0  0  0  0  0  0  0  0  0
    9.6527    1.2368   21.8890 F   0  0  0  0  0  0  0  0  0  0  0  0
    5.4160    0.6856   20.1315 C   0  0  0  0  0  0  0  0  0  0  0  0
    4.9683    0.6750   21.1245 H   0  0  0  0  0  0  0  0  0  0  0  0
    4.7814    1.3207   19.0650 C   0  0  0  0  0  0  0  0  0  0  0  0
    3.8451    1.8526   19.2009 H   0  0  0  0  0  0  0  0  0  0  0  0
  1  2  1  0
  2  3  2  0
  3  4  1  0
  4  5  1  0
  4  6  2  0
  6  7  1  0
  7  8  2  0
  8  9  1  0
  9 10  1  0
  9 11  1  0
 11 12  2  0
 11 13  1  0
 13 14  1  0
 14 15  2  0
 15 16  1  0
 15 17  1  0
 17 18  1  0
 17 19  2  0
 19 20  1  0
 19 21  1  0
 21 22  1  0
 21 23  2  0
 23 24  1  0
 24 25  1  0
 24 26  1  0
 24 27  1  0
  6 28  1  0
 28 29  1  0
 28 30  2  0
 30 31  1  0
 30  2  1  0
 13  7  1  0
 23 14  1  0
M  END
>  <cnnaffinity>  (1) 
-4.9428

>  <filename>  (1) 
O=c1[nH]nc(-c2cccnc2)n1-c1ccccc1C(F)(F)F

$$$$
