
     RDKit          3D

 31 33  0  0  0  0  0  0  0  0999 V2000
    4.9665    1.8310   16.9284 H   0  0  0  0  0  0  0  0  0  0  0  0
    5.4376    1.3181   17.7668 C   0  0  0  0  0  0  0  0  0  0  0  0
    6.5960    0.6855   17.5123 N   0  0  0  0  0  0  0  0  0  0  0  0
    7.1972    0.0619   18.5333 C   0  0  0  0  0  0  0  0  0  0  0  0
    8.1211   -0.4622   18.2913 H   0  0  0  0  0  0  0  0  0  0  0  0
    6.6966    0.0236   19.8470 C   0  0  0  0  0  0  0  0  0  0  0  0
    7.3863   -0.6926   20.9212 C   0  0  0  0  0  0  0  0  0  0  0  0
    6.8783   -1.2358   22.0440 C   0  0  0  0  0  0  0  0  0  0  0  0
    5.8558   -1.3947   22.3247 H   0  0  0  0  0  0  0  0  0  0  0  0
    7.9090   -1.7766   22.8029 N   0  0  0  0  0  0  0  0  0  0  0  0
    7.7109   -2.4576   24.0312 C   0  0  0  0  0  0  0  0  0  0  0  0
    6.6806   -2.0754   24.9251 C   0  0  0  0  0  0  0  0  0  0  0  0
    6.1324   -1.1481   24.7641 H   0  0  0  0  0  0  0  0  0  0  0  0
    6.3807   -2.7567   26.0319 N   0  0  0  0  0  0  0  0  0  0  0  0
    7.1238   -3.8387   26.3401 C   0  0  0  0  0  0  0  0  0  0  0  0
    6.8134   -4.6969   27.5814 C   0  0  0  0  0  0  0  0  0  0  0  0
    7.8756   -4.7247   28.4109 F   0  0  0  0  0  0  0  0  0  0  0  0
    5.7652   -4.2868   28.2939 F   0  0  0  0  0  0  0  0  0  0  0  0
    6.5878   -5.9830   27.2313 F   0  0  0  0  0  0  0  0  0  0  0  0
    8.2192   -4.2342   25.5527 C   0  0  0  0  0  0  0  0  0  0  0  0
    8.7899   -5.1125   25.8282 H   0  0  0  0  0  0  0  0  0  0  0  0
    8.5224   -3.5421   24.3858 C   0  0  0  0  0  0  0  0  0  0  0  0
    9.3627   -3.8248   23.7567 H   0  0  0  0  0  0  0  0  0  0  0  0
    9.1149   -1.6357   22.0901 C   0  0  0  0  0  0  0  0  0  0  0  0
   10.2339   -2.0097   22.3727 O   0  0  0  0  0  0  0  0  0  0  0  0
    8.7492   -0.9688   20.9446 N   0  0  0  0  0  0  0  0  0  0  0  0
    9.4860   -0.6060   20.3699 H   0  0  0  0  0  0  0  0  0  0  0  0
    5.4735    0.6806   20.0857 C   0  0  0  0  0  0  0  0  0  0  0  0
    5.0390    0.6925   21.0866 H   0  0  0  0  0  0  0  0  0  0  0  0
    4.8384    1.3320   19.0303 C   0  0  0  0  0  0  0  0  0  0  0  0
    3.8984    1.8548   19.1671 H   0  0  0  0  0  0  0  0  0  0  0  0
  1  2  1  0
  2  3  2  0
  3  4  1  0
  4  5  1  0
  4  6  2  0
  6  7  1  0
  7  8  2  0
  8  9  1  0
  8 10  1  0
 10 11  1  0
 11 12  2  0
 12 13  1  0
 12 14  1  0
 14 15  2  0
 15 16  1  0
 16 17  1  0
 16 18  1  0
 16 19  1  0
 15 20  1  0
 20 21  1  0
 20 22  2  0
 22 23  1  0
 10 24  1  0
 24 25  2  0
 24 26  1  0
 26 27  1  0
  6 28  1  0
 28 29  1  0
 28 30  2  0
 30 31  1  0
 30  2  1  0
 26  7  1  0
 22 11  1  0
M  END
>  <cnnaffinity>  (1) 
-5.47444

>  <filename>  (1) 
O=c1[nH]c(-c2cccnc2)cn1-c1ccc(C(F)(F)F)nc1

$$$$
