
     RDKit          3D

 30 32  0  0  0  0  0  0  0  0999 V2000
    6.0400   -0.7519   24.1162 H   0  0  0  0  0  0  0  0  0  0  0  0
    6.1667   -1.4508   24.7716 O   0  0  0  0  0  0  0  0  0  0  0  0
    5.4547   -2.5580   24.3782 C   0  0  0  0  0  0  0  0  0  0  0  0
    4.7534   -3.1855   25.4083 C   0  0  0  0  0  0  0  0  0  0  0  0
    4.8942   -2.7871   26.4052 H   0  0  0  0  0  0  0  0  0  0  0  0
    3.9121   -4.2605   25.1461 C   0  0  0  0  0  0  0  0  0  0  0  0
    2.9572   -4.9351   26.4351 Cl  0  0  0  0  0  0  0  0  0  0  0  0
    3.8321   -4.7883   23.8532 C   0  0  0  0  0  0  0  0  0  0  0  0
    3.1915   -5.6427   23.6622 H   0  0  0  0  0  0  0  0  0  0  0  0
    4.5690   -4.1945   22.8162 C   0  0  0  0  0  0  0  0  0  0  0  0
    4.5240   -4.5920   21.8030 H   0  0  0  0  0  0  0  0  0  0  0  0
    5.3749   -3.0704   23.0521 C   0  0  0  0  0  0  0  0  0  0  0  0
    5.9039   -2.4357   21.8991 O   0  0  0  0  0  0  0  0  0  0  0  0
    7.0845   -1.7984   21.9307 C   0  0  0  0  0  0  0  0  0  0  0  0
    8.1548   -1.9664   22.7189 C   0  0  0  0  0  0  0  0  0  0  0  0
    8.3242   -2.5539   23.6103 H   0  0  0  0  0  0  0  0  0  0  0  0
    9.1918   -1.1853   22.2432 O   0  0  0  0  0  0  0  0  0  0  0  0
    8.7671   -0.4867   21.1533 C   0  0  0  0  0  0  0  0  0  0  0  0
    9.4315    0.2994   20.5281 O   0  0  0  0  0  0  0  0  0  0  0  0
    7.4332   -0.8742   20.9306 N   0  0  0  0  0  0  0  0  0  0  0  0
    6.6537   -0.2251   19.9162 C   0  0  0  0  0  0  0  0  0  0  0  0
    7.1563   -0.1372   18.5989 C   0  0  0  0  0  0  0  0  0  0  0  0
    8.1060   -0.6188   18.3713 H   0  0  0  0  0  0  0  0  0  0  0  0
    6.5628    0.5502   17.6199 N   0  0  0  0  0  0  0  0  0  0  0  0
    5.4340    1.2107   17.9273 C   0  0  0  0  0  0  0  0  0  0  0  0
    4.9872    1.7774   17.1135 H   0  0  0  0  0  0  0  0  0  0  0  0
    4.8518    1.1879   19.1986 C   0  0  0  0  0  0  0  0  0  0  0  0
    3.9465    1.7568   19.3791 H   0  0  0  0  0  0  0  0  0  0  0  0
    5.4673    0.4458   20.2183 C   0  0  0  0  0  0  0  0  0  0  0  0
    5.0604    0.4035   21.2279 H   0  0  0  0  0  0  0  0  0  0  0  0
  1  2  1  0
  2  3  1  0
  3  4  2  0
  4  5  1  0
  4  6  1  0
  6  7  1  0
  6  8  2  0
  8  9  1  0
  8 10  1  0
 10 11  1  0
 10 12  2  0
 12 13  1  0
 13 14  1  0
 14 15  2  0
 15 16  1  0
 15 17  1  0
 17 18  1  0
 18 19  2  0
 18 20  1  0
 20 21  1  0
 21 22  2  0
 22 23  1  0
 22 24  1  0
 24 25  2  0
 25 26  1  0
 25 27  1  0
 27 28  1  0
 27 29  2  0
 29 30  1  0
 12  3  1  0
 20 14  1  0
 29 21  1  0
M  END
>  <cnnaffinity>  (1) 
-5.25893

>  <filename>  (1) 
O=c1occ(Oc2ccc(Cl)cc2O)n1-c1cccnc1

$$$$
