
     RDKit          3D

 31 33  0  0  0  0  0  0  0  0999 V2000
    4.9209    1.8213   16.9694 H   0  0  0  0  0  0  0  0  0  0  0  0
    5.3939    1.3191   17.8119 C   0  0  0  0  0  0  0  0  0  0  0  0
    6.5579    0.7019   17.5484 N   0  0  0  0  0  0  0  0  0  0  0  0
    7.1707    0.0716   18.5582 C   0  0  0  0  0  0  0  0  0  0  0  0
    8.1200   -0.4104   18.3247 H   0  0  0  0  0  0  0  0  0  0  0  0
    6.6463   -0.0056   19.8640 C   0  0  0  0  0  0  0  0  0  0  0  0
    7.3388   -0.7127   20.9263 N   0  0  0  0  0  0  0  0  0  0  0  0
    8.6120   -0.2976   21.2888 C   0  0  0  0  0  0  0  0  0  0  0  0
    9.0000    0.5522   20.7294 H   0  0  0  0  0  0  0  0  0  0  0  0
    9.3313   -0.8890   22.2722 C   0  0  0  0  0  0  0  0  0  0  0  0
   10.7145   -0.4107   22.5738 C   0  0  0  0  0  0  0  0  0  0  0  0
   11.8394   -1.2479   22.4624 C   0  0  0  0  0  0  0  0  0  0  0  0
   11.6434   -2.5345   22.1531 F   0  0  0  0  0  0  0  0  0  0  0  0
   13.1510   -0.8242   22.6768 C   0  0  0  0  0  0  0  0  0  0  0  0
   13.9522   -1.5432   22.5204 H   0  0  0  0  0  0  0  0  0  0  0  0
   13.3742    0.4730   23.1419 C   0  0  0  0  0  0  0  0  0  0  0  0
   14.3787    0.7854   23.4287 H   0  0  0  0  0  0  0  0  0  0  0  0
   12.2970    1.3577   23.2715 C   0  0  0  0  0  0  0  0  0  0  0  0
   12.4107    2.3772   23.6251 H   0  0  0  0  0  0  0  0  0  0  0  0
   11.0128    0.9124   22.9592 C   0  0  0  0  0  0  0  0  0  0  0  0
   10.0071    1.7990   23.0730 F   0  0  0  0  0  0  0  0  0  0  0  0
    8.7101   -2.0167   23.0188 C   0  0  0  0  0  0  0  0  0  0  0  0
    9.1510   -2.6519   23.9501 O   0  0  0  0  0  0  0  0  0  0  0  0
    7.4500   -2.3492   22.5746 N   0  0  0  0  0  0  0  0  0  0  0  0
    6.9910   -3.0745   23.0842 H   0  0  0  0  0  0  0  0  0  0  0  0
    6.7029   -1.7821   21.5988 C   0  0  0  0  0  0  0  0  0  0  0  0
    5.6002   -2.2121   21.3426 O   0  0  0  0  0  0  0  0  0  0  0  0
    5.4337    0.6444   20.1225 C   0  0  0  0  0  0  0  0  0  0  0  0
    5.0121    0.6076   21.1257 H   0  0  0  0  0  0  0  0  0  0  0  0
    4.7959    1.3260   19.0774 C   0  0  0  0  0  0  0  0  0  0  0  0
    3.8576    1.8584   19.2262 H   0  0  0  0  0  0  0  0  0  0  0  0
  1  2  1  0
  2  3  2  0
  3  4  1  0
  4  5  1  0
  4  6  2  0
  6  7  1  0
  7  8  1  0
  8  9  1  0
  8 10  2  0
 10 11  1  0
 11 12  2  0
 12 13  1  0
 12 14  1  0
 14 15  1  0
 14 16  2  0
 16 17  1  0
 16 18  1  0
 18 19  1  0
 18 20  2  0
 20 21  1  0
 10 22  1  0
 22 23  2  0
 22 24  1  0
 24 25  1  0
 24 26  1  0
 26 27  2  0
  6 28  1  0
 28 29  1  0
 28 30  2  0
 30 31  1  0
 30  2  1  0
 26  7  1  0
 20 11  1  0
M  END
>  <cnnaffinity>  (1) 
-5.16645

>  <filename>  (1) 
O=c1[nH]c(=O)n(-c2cccnc2)cc1-c1c(F)cccc1F

$$$$
