
     RDKit          3D

 31 33  0  0  0  0  0  0  0  0999 V2000
    4.9590    1.8666   16.9524 H   0  0  0  0  0  0  0  0  0  0  0  0
    5.4197    1.3376   17.7848 C   0  0  0  0  0  0  0  0  0  0  0  0
    6.5838    0.7206   17.5259 N   0  0  0  0  0  0  0  0  0  0  0  0
    7.1723    0.0671   18.5362 C   0  0  0  0  0  0  0  0  0  0  0  0
    8.1224   -0.4164   18.3115 H   0  0  0  0  0  0  0  0  0  0  0  0
    6.6221   -0.0344   19.8317 C   0  0  0  0  0  0  0  0  0  0  0  0
    7.3067   -0.7367   20.8931 N   0  0  0  0  0  0  0  0  0  0  0  0
    8.5505   -0.2663   21.2584 C   0  0  0  0  0  0  0  0  0  0  0  0
    8.9042    0.6080   20.7222 H   0  0  0  0  0  0  0  0  0  0  0  0
    9.3083   -0.8452   22.2352 C   0  0  0  0  0  0  0  0  0  0  0  0
   10.6929   -0.3454   22.4779 C   0  0  0  0  0  0  0  0  0  0  0  0
   11.8015   -1.2052   22.3432 C   0  0  0  0  0  0  0  0  0  0  0  0
   11.6469   -2.2428   22.0351 H   0  0  0  0  0  0  0  0  0  0  0  0
   13.1061   -0.7490   22.5512 C   0  0  0  0  0  0  0  0  0  0  0  0
   13.9627   -1.4042   22.4464 H   0  0  0  0  0  0  0  0  0  0  0  0
   13.3087    0.5785   22.9259 C   0  0  0  0  0  0  0  0  0  0  0  0
   14.5565    1.0128   23.1298 F   0  0  0  0  0  0  0  0  0  0  0  0
   12.2558    1.4699   23.0824 C   0  0  0  0  0  0  0  0  0  0  0  0
   12.4206    2.4926   23.4094 H   0  0  0  0  0  0  0  0  0  0  0  0
   10.9731    0.9973   22.8173 C   0  0  0  0  0  0  0  0  0  0  0  0
    9.9728    1.8943   22.8856 F   0  0  0  0  0  0  0  0  0  0  0  0
    8.7530   -1.9523   22.9567 C   0  0  0  0  0  0  0  0  0  0  0  0
    9.3326   -2.4208   23.7533 H   0  0  0  0  0  0  0  0  0  0  0  0
    7.5012   -2.4037   22.6605 C   0  0  0  0  0  0  0  0  0  0  0  0
    7.0273   -3.2275   23.1731 H   0  0  0  0  0  0  0  0  0  0  0  0
    6.6901   -1.8418   21.5872 C   0  0  0  0  0  0  0  0  0  0  0  0
    5.6003   -2.2900   21.2785 O   0  0  0  0  0  0  0  0  0  0  0  0
    5.4174    0.6250   20.0910 C   0  0  0  0  0  0  0  0  0  0  0  0
    4.9969    0.5982   21.0973 H   0  0  0  0  0  0  0  0  0  0  0  0
    4.8086    1.3235   19.0432 C   0  0  0  0  0  0  0  0  0  0  0  0
    3.8823    1.8642   19.1951 H   0  0  0  0  0  0  0  0  0  0  0  0
  1  2  1  0
  2  3  2  0
  3  4  1  0
  4  5  1  0
  4  6  2  0
  6  7  1  0
  7  8  1  0
  8  9  1  0
  8 10  2  0
 10 11  1  0
 11 12  2  0
 12 13  1  0
 12 14  1  0
 14 15  1  0
 14 16  2  0
 16 17  1  0
 16 18  1  0
 18 19  1  0
 18 20  2  0
 20 21  1  0
 10 22  1  0
 22 23  1  0
 22 24  2  0
 24 25  1  0
 24 26  1  0
 26 27  2  0
  6 28  1  0
 28 29  1  0
 28 30  2  0
 30 31  1  0
 30  2  1  0
 26  7  1  0
 20 11  1  0
M  END
>  <cnnaffinity>  (1) 
-5.23192

>  <filename>  (1) 
O=c1ccc(-c2ccc(F)cc2F)cn1-c1cccnc1

$$$$
