
     RDKit          3D

 29 31  0  0  0  0  0  0  0  0999 V2000
    4.9222    1.8151   16.9629 H   0  0  0  0  0  0  0  0  0  0  0  0
    5.3862    1.3104   17.8063 C   0  0  0  0  0  0  0  0  0  0  0  0
    6.5470    0.6845   17.5510 N   0  0  0  0  0  0  0  0  0  0  0  0
    7.1470    0.0687   18.5785 C   0  0  0  0  0  0  0  0  0  0  0  0
    8.0956   -0.4212   18.3510 H   0  0  0  0  0  0  0  0  0  0  0  0
    6.6254    0.0070   19.8874 C   0  0  0  0  0  0  0  0  0  0  0  0
    7.3392   -0.7161   20.9793 C   0  0  0  0  0  0  0  0  0  0  0  0
    8.7423   -0.5665   21.1577 C   0  0  0  0  0  0  0  0  0  0  0  0
    9.2935    0.0795   20.4766 H   0  0  0  0  0  0  0  0  0  0  0  0
    9.4403   -1.2196   22.1532 C   0  0  0  0  0  0  0  0  0  0  0  0
   10.9045   -1.0472   22.2594 C   0  0  0  0  0  0  0  0  0  0  0  0
   11.5281    0.2297   22.2741 C   0  0  0  0  0  0  0  0  0  0  0  0
   10.9464    1.1545   22.3065 H   0  0  0  0  0  0  0  0  0  0  0  0
   12.8560    0.3772   22.3070 N   0  0  0  0  0  0  0  0  0  0  0  0
   13.6615   -0.6935   22.2648 N   0  0  0  0  0  0  0  0  0  0  0  0
   13.1293   -1.9182   22.2001 C   0  0  0  0  0  0  0  0  0  0  0  0
   13.8476   -2.7323   22.1520 H   0  0  0  0  0  0  0  0  0  0  0  0
   11.7489   -2.1482   22.2757 C   0  0  0  0  0  0  0  0  0  0  0  0
   11.3263   -3.1434   22.3745 H   0  0  0  0  0  0  0  0  0  0  0  0
    8.7147   -2.1198   23.0694 C   0  0  0  0  0  0  0  0  0  0  0  0
    9.1069   -2.7976   24.0093 O   0  0  0  0  0  0  0  0  0  0  0  0
    7.3435   -2.1979   22.8166 N   0  0  0  0  0  0  0  0  0  0  0  0
    6.9492   -2.7839   23.5376 H   0  0  0  0  0  0  0  0  0  0  0  0
    6.6619   -1.5382   21.8400 C   0  0  0  0  0  0  0  0  0  0  0  0
    5.5904   -1.7036   21.7585 H   0  0  0  0  0  0  0  0  0  0  0  0
    5.4088    0.6663   20.1226 C   0  0  0  0  0  0  0  0  0  0  0  0
    4.9865    0.6759   21.1278 H   0  0  0  0  0  0  0  0  0  0  0  0
    4.7830    1.3316   19.0683 C   0  0  0  0  0  0  0  0  0  0  0  0
    3.8523    1.8672   19.2167 H   0  0  0  0  0  0  0  0  0  0  0  0
  1  2  1  0
  2  3  2  0
  3  4  1  0
  4  5  1  0
  4  6  2  0
  6  7  1  0
  7  8  1  0
  8  9  1  0
  8 10  2  0
 10 11  1  0
 11 12  2  0
 12 13  1  0
 12 14  1  0
 14 15  2  0
 15 16  1  0
 16 17  1  0
 16 18  2  0
 18 19  1  0
 10 20  1  0
 20 21  2  0
 20 22  1  0
 22 23  1  0
 22 24  1  0
 24 25  1  0
  6 26  1  0
 26 27  1  0
 26 28  2  0
 28 29  1  0
 28  2  1  0
 24  7  2  0
 18 11  1  0
M  END
>  <cnnaffinity>  (1) 
-5.53867

>  <filename>  (1) 
O=c1[nH]cc(-c2cccnc2)cc1-c1ccnnc1

$$$$
