
     RDKit          3D

 31 33  0  0  0  0  0  0  0  0999 V2000
    4.9135    1.7852   16.9901 H   0  0  0  0  0  0  0  0  0  0  0  0
    5.3936    1.2972   17.8341 C   0  0  0  0  0  0  0  0  0  0  0  0
    6.5562    0.6762   17.5742 N   0  0  0  0  0  0  0  0  0  0  0  0
    7.1648    0.0569   18.5902 C   0  0  0  0  0  0  0  0  0  0  0  0
    8.1193   -0.4199   18.3869 H   0  0  0  0  0  0  0  0  0  0  0  0
    6.6382   -0.0023   19.8955 C   0  0  0  0  0  0  0  0  0  0  0  0
    7.3487   -0.6809   20.9087 N   0  0  0  0  0  0  0  0  0  0  0  0
    8.7535   -0.6582   21.1410 C   0  0  0  0  0  0  0  0  0  0  0  0
    9.5698   -0.0550   20.4688 O   0  0  0  0  0  0  0  0  0  0  0  0
    8.9006   -1.4947   22.3087 C   0  0  0  0  0  0  0  0  0  0  0  0
    9.8791   -1.6697   22.7133 H   0  0  0  0  0  0  0  0  0  0  0  0
    7.6809   -1.9378   22.7284 C   0  0  0  0  0  0  0  0  0  0  0  0
    7.3195   -2.8173   23.8862 C   0  0  0  0  0  0  0  0  0  0  0  0
    6.0220   -3.1145   24.1078 N   0  0  0  0  0  0  0  0  0  0  0  0
    5.7226   -3.8824   25.1509 C   0  0  0  0  0  0  0  0  0  0  0  0
    4.6644   -4.0964   25.2887 H   0  0  0  0  0  0  0  0  0  0  0  0
    6.6901   -4.3985   26.0178 C   0  0  0  0  0  0  0  0  0  0  0  0
    6.2829   -5.3052   27.1268 C   0  0  0  0  0  0  0  0  0  0  0  0
    5.0537   -5.0199   27.5959 F   0  0  0  0  0  0  0  0  0  0  0  0
    6.2599   -6.5903   26.7244 F   0  0  0  0  0  0  0  0  0  0  0  0
    7.1382   -5.2288   28.1644 F   0  0  0  0  0  0  0  0  0  0  0  0
    8.0440   -4.1241   25.7793 C   0  0  0  0  0  0  0  0  0  0  0  0
    8.8308   -4.5298   26.4180 H   0  0  0  0  0  0  0  0  0  0  0  0
    8.3517   -3.3171   24.7014 C   0  0  0  0  0  0  0  0  0  0  0  0
    9.3814   -3.0705   24.4839 H   0  0  0  0  0  0  0  0  0  0  0  0
    6.7325   -1.4217   21.8915 N   0  0  0  0  0  0  0  0  0  0  0  0
    5.7333   -1.5772   21.9220 H   0  0  0  0  0  0  0  0  0  0  0  0
    5.4261    0.6500   20.1586 C   0  0  0  0  0  0  0  0  0  0  0  0
    5.0153    0.6359   21.1699 H   0  0  0  0  0  0  0  0  0  0  0  0
    4.8002    1.3170   19.1033 C   0  0  0  0  0  0  0  0  0  0  0  0
    3.8682    1.8488   19.2581 H   0  0  0  0  0  0  0  0  0  0  0  0
  1  2  1  0
  2  3  2  0
  3  4  1  0
  4  5  1  0
  4  6  2  0
  6  7  1  0
  7  8  1  0
  8  9  2  0
  8 10  1  0
 10 11  1  0
 10 12  2  0
 12 13  1  0
 13 14  2  0
 14 15  1  0
 15 16  1  0
 15 17  2  0
 17 18  1  0
 18 19  1  0
 18 20  1  0
 18 21  1  0
 17 22  1  0
 22 23  1  0
 22 24  2  0
 24 25  1  0
 12 26  1  0
 26 27  1  0
  6 28  1  0
 28 29  1  0
 28 30  2  0
 30 31  1  0
 30  2  1  0
 26  7  1  0
 24 13  1  0
M  END
>  <cnnaffinity>  (1) 
-5.34934

>  <filename>  (1) 
O=c1cc(-c2ccc(C(F)(F)F)cn2)[nH]n1-c1cccnc1

$$$$
