
     RDKit          3D

 29 31  0  0  0  0  0  0  0  0999 V2000
    4.8847    1.7983   17.0113 H   0  0  0  0  0  0  0  0  0  0  0  0
    5.3971    1.2971   17.8253 C   0  0  0  0  0  0  0  0  0  0  0  0
    6.5653    0.6841   17.5655 N   0  0  0  0  0  0  0  0  0  0  0  0
    7.1836    0.0661   18.5889 C   0  0  0  0  0  0  0  0  0  0  0  0
    8.1287   -0.4318   18.3991 H   0  0  0  0  0  0  0  0  0  0  0  0
    6.6694    0.0005   19.9020 C   0  0  0  0  0  0  0  0  0  0  0  0
    7.3614   -0.6691   20.9271 N   0  0  0  0  0  0  0  0  0  0  0  0
    6.7708   -1.4391   21.9334 C   0  0  0  0  0  0  0  0  0  0  0  0
    5.7037   -1.6212   22.0405 H   0  0  0  0  0  0  0  0  0  0  0  0
    7.7629   -1.9283   22.7502 C   0  0  0  0  0  0  0  0  0  0  0  0
    7.6054   -2.7850   23.9269 C   0  0  0  0  0  0  0  0  0  0  0  0
    8.6329   -2.8902   24.8779 C   0  0  0  0  0  0  0  0  0  0  0  0
    9.5533   -2.3269   24.7506 H   0  0  0  0  0  0  0  0  0  0  0  0
    8.4722   -3.7052   26.0018 C   0  0  0  0  0  0  0  0  0  0  0  0
    9.2663   -3.7797   26.7376 H   0  0  0  0  0  0  0  0  0  0  0  0
    7.2885   -4.4259   26.1848 C   0  0  0  0  0  0  0  0  0  0  0  0
    7.0712   -5.5396   27.7209 Br  0  0  0  0  0  0  0  0  0  0  0  0
    6.2646   -4.3260   25.2377 C   0  0  0  0  0  0  0  0  0  0  0  0
    5.3452   -4.8841   25.3754 H   0  0  0  0  0  0  0  0  0  0  0  0
    6.4192   -3.5086   24.1153 C   0  0  0  0  0  0  0  0  0  0  0  0
    5.6227   -3.4378   23.3795 H   0  0  0  0  0  0  0  0  0  0  0  0
    8.9587   -1.4453   22.2376 N   0  0  0  0  0  0  0  0  0  0  0  0
    9.8838   -1.6354   22.5987 H   0  0  0  0  0  0  0  0  0  0  0  0
    8.7353   -0.6802   21.1245 C   0  0  0  0  0  0  0  0  0  0  0  0
    9.6078   -0.1120   20.4819 O   0  0  0  0  0  0  0  0  0  0  0  0
    5.4467    0.6321   20.1597 C   0  0  0  0  0  0  0  0  0  0  0  0
    5.0143    0.6254   21.1626 H   0  0  0  0  0  0  0  0  0  0  0  0
    4.8176    1.3007   19.1034 C   0  0  0  0  0  0  0  0  0  0  0  0
    3.8845    1.8317   19.2612 H   0  0  0  0  0  0  0  0  0  0  0  0
  1  2  1  0
  2  3  2  0
  3  4  1  0
  4  5  1  0
  4  6  2  0
  6  7  1  0
  7  8  1  0
  8  9  1  0
  8 10  2  0
 10 11  1  0
 11 12  2  0
 12 13  1  0
 12 14  1  0
 14 15  1  0
 14 16  2  0
 16 17  1  0
 16 18  1  0
 18 19  1  0
 18 20  2  0
 20 21  1  0
 10 22  1  0
 22 23  1  0
 22 24  1  0
 24 25  2  0
  6 26  1  0
 26 27  1  0
 26 28  2  0
 28 29  1  0
 28  2  1  0
 24  7  1  0
 20 11  1  0
M  END
>  <cnnaffinity>  (1) 
-5.39148

>  <filename>  (1) 
O=c1[nH]c(-c2ccc(Br)cc2)cn1-c1cccnc1

$$$$
