
     RDKit          3D

 29 31  0  0  0  0  0  0  0  0999 V2000
    4.9814    1.8136   16.9436 H   0  0  0  0  0  0  0  0  0  0  0  0
    5.4675    1.3244   17.7877 C   0  0  0  0  0  0  0  0  0  0  0  0
    6.6632    0.7665   17.5432 N   0  0  0  0  0  0  0  0  0  0  0  0
    7.2662    0.1500   18.5664 C   0  0  0  0  0  0  0  0  0  0  0  0
    8.2429   -0.2775   18.3598 H   0  0  0  0  0  0  0  0  0  0  0  0
    6.6967    0.0005   19.8443 C   0  0  0  0  0  0  0  0  0  0  0  0
    7.4382   -0.8019   20.8681 C   0  0  0  0  0  0  0  0  0  0  0  0
    8.7156   -0.5243   20.9601 N   0  0  0  0  0  0  0  0  0  0  0  0
    9.4622   -1.1527   21.9254 N   0  0  0  0  0  0  0  0  0  0  0  0
   10.8547   -0.8221   21.9653 C   0  0  0  0  0  0  0  0  0  0  0  0
   11.2396    0.5204   21.9008 C   0  0  0  0  0  0  0  0  0  0  0  0
   10.5008    1.2925   21.7143 H   0  0  0  0  0  0  0  0  0  0  0  0
   12.5907    0.8014   22.0859 C   0  0  0  0  0  0  0  0  0  0  0  0
   12.9425    1.8300   22.1278 H   0  0  0  0  0  0  0  0  0  0  0  0
   13.5439   -0.1355   22.1851 N   0  0  0  0  0  0  0  0  0  0  0  0
   13.1631   -1.4186   22.1608 C   0  0  0  0  0  0  0  0  0  0  0  0
   13.9694   -2.1491   22.2392 H   0  0  0  0  0  0  0  0  0  0  0  0
   11.8293   -1.8176   22.0970 C   0  0  0  0  0  0  0  0  0  0  0  0
   11.5465   -2.8593   22.1953 H   0  0  0  0  0  0  0  0  0  0  0  0
    8.8816   -1.9269   22.9067 C   0  0  0  0  0  0  0  0  0  0  0  0
    9.5490   -2.2400   23.7123 H   0  0  0  0  0  0  0  0  0  0  0  0
    7.5810   -2.2684   22.8688 C   0  0  0  0  0  0  0  0  0  0  0  0
    7.1107   -2.8762   23.6297 H   0  0  0  0  0  0  0  0  0  0  0  0
    6.7595   -1.8614   21.7350 C   0  0  0  0  0  0  0  0  0  0  0  0
    5.6565   -2.3454   21.5211 O   0  0  0  0  0  0  0  0  0  0  0  0
    5.4720    0.6394   20.0990 C   0  0  0  0  0  0  0  0  0  0  0  0
    5.0251    0.6171   21.0961 H   0  0  0  0  0  0  0  0  0  0  0  0
    4.8481    1.3085   19.0423 C   0  0  0  0  0  0  0  0  0  0  0  0
    3.9078    1.8292   19.1826 H   0  0  0  0  0  0  0  0  0  0  0  0
  1  2  1  0
  2  3  2  0
  3  4  1  0
  4  5  1  0
  4  6  2  0
  6  7  1  0
  7  8  2  0
  8  9  1  0
  9 10  1  0
 10 11  2  0
 11 12  1  0
 11 13  1  0
 13 14  1  0
 13 15  2  0
 15 16  1  0
 16 17  1  0
 16 18  2  0
 18 19  1  0
  9 20  1  0
 20 21  1  0
 20 22  2  0
 22 23  1  0
 22 24  1  0
 24 25  2  0
  6 26  1  0
 26 27  1  0
 26 28  2  0
 28 29  1  0
 28  2  1  0
 24  7  1  0
 18 10  1  0
M  END
>  <cnnaffinity>  (1) 
-5.25241

>  <filename>  (1) 
O=c1ccn(-c2ccncc2)nc1-c1cccnc1

$$$$
