
     RDKit          3D

 34 37  0  0  0  0  0  0  0  0999 V2000
    4.9317    1.7947   16.9888 H   0  0  0  0  0  0  0  0  0  0  0  0
    5.3925    1.2962   17.8390 C   0  0  0  0  0  0  0  0  0  0  0  0
    6.5480    0.6668   17.5821 N   0  0  0  0  0  0  0  0  0  0  0  0
    7.1391    0.0362   18.5986 C   0  0  0  0  0  0  0  0  0  0  0  0
    8.1108   -0.4133   18.3960 H   0  0  0  0  0  0  0  0  0  0  0  0
    6.6034   -0.0282   19.8974 C   0  0  0  0  0  0  0  0  0  0  0  0
    7.3252   -0.7420   20.9855 C   0  0  0  0  0  0  0  0  0  0  0  0
    6.5849   -1.5064   21.7487 N   0  0  0  0  0  0  0  0  0  0  0  0
    7.1650   -2.1761   22.7976 N   0  0  0  0  0  0  0  0  0  0  0  0
    6.2921   -2.9904   23.6076 C   0  0  0  0  0  0  0  0  0  0  0  0
    6.5276   -3.1137   25.0100 C   0  0  0  0  0  0  0  0  0  0  0  0
    7.3526   -2.5670   25.4552 H   0  0  0  0  0  0  0  0  0  0  0  0
    5.6949   -3.8895   25.8051 C   0  0  0  0  0  0  0  0  0  0  0  0
    5.8769   -3.9839   26.8735 H   0  0  0  0  0  0  0  0  0  0  0  0
    4.6080   -4.5693   25.2188 C   0  0  0  0  0  0  0  0  0  0  0  0
    3.5709   -5.4292   25.7223 C   0  0  0  0  0  0  0  0  0  0  0  0
    3.4484   -5.7393   26.7514 H   0  0  0  0  0  0  0  0  0  0  0  0
    2.7848   -5.7731   24.6617 C   0  0  0  0  0  0  0  0  0  0  0  0
    1.9043   -6.4030   24.6209 H   0  0  0  0  0  0  0  0  0  0  0  0
    3.2741   -5.1748   23.5163 N   0  0  0  0  0  0  0  0  0  0  0  0
    2.8911   -5.2541   22.5910 H   0  0  0  0  0  0  0  0  0  0  0  0
    4.3903   -4.4336   23.8215 C   0  0  0  0  0  0  0  0  0  0  0  0
    5.2223   -3.6458   23.0040 C   0  0  0  0  0  0  0  0  0  0  0  0
    5.0718   -3.5000   21.9396 H   0  0  0  0  0  0  0  0  0  0  0  0
    8.5247   -2.1150   23.0204 C   0  0  0  0  0  0  0  0  0  0  0  0
    8.8871   -2.7370   23.8359 H   0  0  0  0  0  0  0  0  0  0  0  0
    9.3507   -1.3616   22.2744 C   0  0  0  0  0  0  0  0  0  0  0  0
   10.4158   -1.2907   22.4476 H   0  0  0  0  0  0  0  0  0  0  0  0
    8.8097   -0.5637   21.1833 C   0  0  0  0  0  0  0  0  0  0  0  0
    9.5138    0.1717   20.4992 O   0  0  0  0  0  0  0  0  0  0  0  0
    5.3977    0.6342   20.1534 C   0  0  0  0  0  0  0  0  0  0  0  0
    4.9882    0.6188   21.1650 H   0  0  0  0  0  0  0  0  0  0  0  0
    4.7893    1.3196   19.1018 C   0  0  0  0  0  0  0  0  0  0  0  0
    3.8640    1.8643   19.2390 H   0  0  0  0  0  0  0  0  0  0  0  0
  1  2  1  0
  2  3  2  0
  3  4  1  0
  4  5  1  0
  4  6  2  0
  6  7  1  0
  7  8  2  0
  8  9  1  0
  9 10  1  0
 10 11  2  0
 11 12  1  0
 11 13  1  0
 13 14  1  0
 13 15  2  0
 15 16  1  0
 16 17  1  0
 16 18  2  0
 18 19  1  0
 18 20  1  0
 20 21  1  0
 20 22  1  0
 22 23  2  0
 23 24  1  0
  9 25  1  0
 25 26  1  0
 25 27  2  0
 27 28  1  0
 27 29  1  0
 29 30  2  0
  6 31  1  0
 31 32  1  0
 31 33  2  0
 33 34  1  0
 33  2  1  0
 29  7  1  0
 23 10  1  0
 22 15  1  0
M  END
>  <cnnaffinity>  (1) 
-5.48858

>  <filename>  (1) 
O=c1ccn(-c2ccc3cc[nH]c3c2)nc1-c1cccnc1

$$$$
