
     RDKit          3D

 36 39  0  0  0  0  0  0  0  0999 V2000
    4.9344    1.8341   16.9505 H   0  0  0  0  0  0  0  0  0  0  0  0
    5.4008    1.3168   17.7870 C   0  0  0  0  0  0  0  0  0  0  0  0
    6.5668    0.7018   17.5338 N   0  0  0  0  0  0  0  0  0  0  0  0
    7.1589    0.0617   18.5507 C   0  0  0  0  0  0  0  0  0  0  0  0
    8.1182   -0.4051   18.3170 H   0  0  0  0  0  0  0  0  0  0  0  0
    6.6253   -0.0177   19.8535 C   0  0  0  0  0  0  0  0  0  0  0  0
    7.3486   -0.6964   21.0103 C   0  0  2  0  0  0  0  0  0  0  0  0
    8.1522   -1.3163   20.5868 H   0  0  0  0  0  0  0  0  0  0  0  0
    6.4914   -1.6712   21.8376 C   0  0  0  0  0  0  0  0  0  0  0  0
    5.7983   -2.5822   21.4341 O   0  0  0  0  0  0  0  0  0  0  0  0
    6.6817   -1.3813   23.1496 N   0  0  0  0  0  0  0  0  0  0  0  0
    6.0990   -1.8700   23.8101 H   0  0  0  0  0  0  0  0  0  0  0  0
    7.5491   -0.2689   23.4532 C   0  0  0  0  0  0  0  0  0  0  0  0
    7.0577    0.4788   24.0922 H   0  0  0  0  0  0  0  0  0  0  0  0
    8.4471   -0.6088   23.9953 H   0  0  0  0  0  0  0  0  0  0  0  0
    7.9123    0.3134   22.0550 C   0  0  1  0  0  0  0  0  0  0  0  0
    7.3985    1.2788   21.9402 H   0  0  0  0  0  0  0  0  0  0  0  0
    9.4047    0.5218   21.8967 C   0  0  0  0  0  0  0  0  0  0  0  0
    9.9696    1.7902   21.5935 C   0  0  0  0  0  0  0  0  0  0  0  0
    9.3116    2.6235   21.3408 H   0  0  0  0  0  0  0  0  0  0  0  0
   11.3462    1.9950   21.6153 C   0  0  0  0  0  0  0  0  0  0  0  0
   11.7722    2.9678   21.3860 H   0  0  0  0  0  0  0  0  0  0  0  0
   12.1623    0.8946   21.9434 C   0  0  0  0  0  0  0  0  0  0  0  0
   11.6343   -0.4159   22.0563 C   0  0  0  0  0  0  0  0  0  0  0  0
   10.2408   -0.5818   22.0664 C   0  0  0  0  0  0  0  0  0  0  0  0
    9.8001   -1.5690   22.2035 H   0  0  0  0  0  0  0  0  0  0  0  0
   12.7512   -1.3119   22.1424 C   0  0  0  0  0  0  0  0  0  0  0  0
   12.6980   -2.3936   22.1055 H   0  0  0  0  0  0  0  0  0  0  0  0
   13.8706   -0.5432   22.1928 C   0  0  0  0  0  0  0  0  0  0  0  0
   14.9025   -0.8384   22.2969 H   0  0  0  0  0  0  0  0  0  0  0  0
   13.5238    0.7894   22.1037 N   0  0  0  0  0  0  0  0  0  0  0  0
   14.1641    1.5593   22.0251 H   0  0  0  0  0  0  0  0  0  0  0  0
    5.4142    0.6397   20.0924 C   0  0  0  0  0  0  0  0  0  0  0  0
    4.9873    0.6402   21.0966 H   0  0  0  0  0  0  0  0  0  0  0  0
    4.7900    1.3143   19.0431 C   0  0  0  0  0  0  0  0  0  0  0  0
    3.8640    1.8529   19.1947 H   0  0  0  0  0  0  0  0  0  0  0  0
  1  2  1  0
  2  3  2  0
  3  4  1  0
  4  5  1  0
  4  6  2  0
  6  7  1  0
  7  8  1  6
  7  9  1  0
  9 10  2  0
  9 11  1  0
 11 12  1  0
 11 13  1  0
 13 14  1  0
 13 15  1  0
 13 16  1  0
 16 17  1  6
 16 18  1  0
 18 19  2  0
 19 20  1  0
 19 21  1  0
 21 22  1  0
 21 23  2  0
 23 24  1  0
 24 25  2  0
 25 26  1  0
 24 27  1  0
 27 28  1  0
 27 29  2  0
 29 30  1  0
 29 31  1  0
 31 32  1  0
  6 33  1  0
 33 34  1  0
 33 35  2  0
 35 36  1  0
 35  2  1  0
 16  7  1  0
 25 18  1  0
 31 23  1  0
M  END
>  <cnnaffinity>  (1) 
-5.78137

>  <filename>  (1) 
O=C1NC[C@@H](c2ccc3[nH]ccc3c2)[C@@H]1c1cccnc1

$$$$
