
     RDKit          3D

 37 40  0  0  0  0  0  0  0  0999 V2000
    5.3396    1.8005   16.7763 H   0  0  0  0  0  0  0  0  0  0  0  0
    5.7148    1.2940   17.6645 C   0  0  0  0  0  0  0  0  0  0  0  0
    6.9430    0.7597   17.5628 N   0  0  0  0  0  0  0  0  0  0  0  0
    7.4350    0.1598   18.6542 C   0  0  0  0  0  0  0  0  0  0  0  0
    8.4357   -0.2643   18.5618 H   0  0  0  0  0  0  0  0  0  0  0  0
    6.7456    0.0269   19.8825 C   0  0  0  0  0  0  0  0  0  0  0  0
    7.3946   -0.5996   21.0725 C   0  0  0  0  0  0  0  0  0  0  0  0
    8.5254   -0.0599   21.5977 C   0  0  0  0  0  0  0  0  0  0  0  0
    8.9425    0.8676   21.2071 H   0  0  0  0  0  0  0  0  0  0  0  0
    9.1988   -0.6356   22.6727 N   0  0  0  0  0  0  0  0  0  0  0  0
   10.4939   -0.1533   23.1002 C   0  0  0  0  0  0  0  0  0  0  0  0
   10.5486    0.7487   24.1384 C   0  0  0  0  0  0  0  0  0  0  0  0
    9.6227    1.0715   24.6092 H   0  0  0  0  0  0  0  0  0  0  0  0
   11.8030    1.2335   24.6073 C   0  0  0  0  0  0  0  0  0  0  0  0
   11.8257    1.9815   25.3918 H   0  0  0  0  0  0  0  0  0  0  0  0
   12.9755    0.7529   24.0768 C   0  0  0  0  0  0  0  0  0  0  0  0
   13.9371    1.1110   24.4320 H   0  0  0  0  0  0  0  0  0  0  0  0
   12.9562   -0.1843   22.9962 C   0  0  0  0  0  0  0  0  0  0  0  0
   14.1653   -0.6564   22.4086 C   0  0  0  0  0  0  0  0  0  0  0  0
   15.0936   -0.3224   22.8454 H   0  0  0  0  0  0  0  0  0  0  0  0
   14.1419   -1.4709   21.3043 C   0  0  0  0  0  0  0  0  0  0  0  0
   15.0457   -1.8018   20.8152 H   0  0  0  0  0  0  0  0  0  0  0  0
   12.9092   -1.8576   20.7333 C   0  0  0  0  0  0  0  0  0  0  0  0
   12.9219   -2.4812   19.8441 H   0  0  0  0  0  0  0  0  0  0  0  0
   11.7180   -1.4644   21.2997 C   0  0  0  0  0  0  0  0  0  0  0  0
   10.7709   -1.7654   20.8609 H   0  0  0  0  0  0  0  0  0  0  0  0
   11.7019   -0.6183   22.4552 C   0  0  0  0  0  0  0  0  0  0  0  0
    8.6403   -1.7136   23.3822 C   0  0  0  0  0  0  0  0  0  0  0  0
    9.0730   -2.1868   24.4058 O   0  0  0  0  0  0  0  0  0  0  0  0
    7.5231   -2.2339   22.8194 N   0  0  0  0  0  0  0  0  0  0  0  0
    7.1704   -3.0366   23.3012 H   0  0  0  0  0  0  0  0  0  0  0  0
    6.8326   -1.8272   21.7022 C   0  0  0  0  0  0  0  0  0  0  0  0
    5.8921   -2.5007   21.3447 O   0  0  0  0  0  0  0  0  0  0  0  0
    5.4458    0.5576   19.9443 C   0  0  0  0  0  0  0  0  0  0  0  0
    4.8678    0.4666   20.8654 H   0  0  0  0  0  0  0  0  0  0  0  0
    4.9359    1.2233   18.8239 C   0  0  0  0  0  0  0  0  0  0  0  0
    3.9629    1.7030   18.8381 H   0  0  0  0  0  0  0  0  0  0  0  0
  1  2  1  0
  2  3  2  0
  3  4  1  0
  4  5  1  0
  4  6  2  0
  6  7  1  0
  7  8  2  0
  8  9  1  0
  8 10  1  0
 10 11  1  0
 11 12  2  0
 12 13  1  0
 12 14  1  0
 14 15  1  0
 14 16  2  0
 16 17  1  0
 16 18  1  0
 18 19  2  0
 19 20  1  0
 19 21  1  0
 21 22  1  0
 21 23  2  0
 23 24  1  0
 23 25  1  0
 25 26  1  0
 25 27  2  0
 10 28  1  0
 28 29  2  0
 28 30  1  0
 30 31  1  0
 30 32  1  0
 32 33  2  0
  6 34  1  0
 34 35  1  0
 34 36  2  0
 36 37  1  0
 36  2  1  0
 32  7  1  0
 27 11  1  0
 27 18  1  0
M  END
>  <cnnaffinity>  (1) 
-6.35332

>  <filename>  (1) 
O=c1[nH]c(=O)n(-c2cccc3ccccc23)cc1-c1cccnc1

$$$$
