
     RDKit          3D

 32 34  0  0  0  0  0  0  0  0999 V2000
    5.0209    1.7718   16.9709 H   0  0  0  0  0  0  0  0  0  0  0  0
    5.4836    1.2773   17.8218 C   0  0  0  0  0  0  0  0  0  0  0  0
    6.6562    0.6618   17.5849 N   0  0  0  0  0  0  0  0  0  0  0  0
    7.2446    0.0326   18.6105 C   0  0  0  0  0  0  0  0  0  0  0  0
    8.2111   -0.4339   18.4353 H   0  0  0  0  0  0  0  0  0  0  0  0
    6.6822   -0.0485   19.8966 C   0  0  0  0  0  0  0  0  0  0  0  0
    7.3787   -0.7549   20.9305 N   0  0  0  0  0  0  0  0  0  0  0  0
    8.7430   -0.6130   20.9074 N   0  0  0  0  0  0  0  0  0  0  0  0
    9.4254   -1.1202   21.8993 C   0  0  0  0  0  0  0  0  0  0  0  0
   10.9154   -0.9376   21.9256 C   0  0  0  0  0  0  0  0  0  0  0  0
   11.6039   -2.0805   21.8671 N   0  0  0  0  0  0  0  0  0  0  0  0
   12.9284   -2.0360   22.0250 C   0  0  0  0  0  0  0  0  0  0  0  0
   13.4652   -2.9738   22.0262 H   0  0  0  0  0  0  0  0  0  0  0  0
   13.6322   -0.8644   22.2900 C   0  0  0  0  0  0  0  0  0  0  0  0
   14.7015   -0.9108   22.4397 H   0  0  0  0  0  0  0  0  0  0  0  0
   12.9403    0.3376   22.3317 C   0  0  0  0  0  0  0  0  0  0  0  0
   13.4725    1.2634   22.5614 H   0  0  0  0  0  0  0  0  0  0  0  0
   11.5639    0.3114   22.0779 C   0  0  0  0  0  0  0  0  0  0  0  0
   10.7525    1.5735   22.0527 C   0  0  0  0  0  0  0  0  0  0  0  0
   10.2266    1.8050   20.8429 F   0  0  0  0  0  0  0  0  0  0  0  0
    9.7353    1.4899   22.9337 F   0  0  0  0  0  0  0  0  0  0  0  0
   11.4731    2.6581   22.3810 F   0  0  0  0  0  0  0  0  0  0  0  0
    8.8485   -1.9160   23.0133 C   0  0  0  0  0  0  0  0  0  0  0  0
    9.4917   -2.3615   23.9511 O   0  0  0  0  0  0  0  0  0  0  0  0
    7.4049   -2.1052   22.8915 C   0  0  0  0  0  0  0  0  0  0  0  0
    6.9104   -2.7052   23.6453 H   0  0  0  0  0  0  0  0  0  0  0  0
    6.7297   -1.5085   21.8882 C   0  0  0  0  0  0  0  0  0  0  0  0
    5.6498   -1.6017   21.7599 H   0  0  0  0  0  0  0  0  0  0  0  0
    5.4760    0.6199   20.1428 C   0  0  0  0  0  0  0  0  0  0  0  0
    5.0705    0.6432   21.1538 H   0  0  0  0  0  0  0  0  0  0  0  0
    4.8678    1.2906   19.0778 C   0  0  0  0  0  0  0  0  0  0  0  0
    3.9359    1.8265   19.2170 H   0  0  0  0  0  0  0  0  0  0  0  0
  1  2  1  0
  2  3  2  0
  3  4  1  0
  4  5  1  0
  4  6  2  0
  6  7  1  0
  7  8  1  0
  8  9  2  0
  9 10  1  0
 10 11  2  0
 11 12  1  0
 12 13  1  0
 12 14  2  0
 14 15  1  0
 14 16  1  0
 16 17  1  0
 16 18  2  0
 18 19  1  0
 19 20  1  0
 19 21  1  0
 19 22  1  0
  9 23  1  0
 23 24  2  0
 23 25  1  0
 25 26  1  0
 25 27  2  0
 27 28  1  0
  6 29  1  0
 29 30  1  0
 29 31  2  0
 31 32  1  0
 31  2  1  0
 27  7  1  0
 18 10  1  0
M  END
>  <cnnaffinity>  (1) 
-6.13436

>  <filename>  (1) 
O=c1ccn(-c2cccnc2)nc1-c1ncccc1C(F)(F)F

$$$$
