
     RDKit          3D

 34 37  0  0  0  0  0  0  0  0999 V2000
    4.9377    1.7876   16.9866 H   0  0  0  0  0  0  0  0  0  0  0  0
    5.4012    1.2945   17.8383 C   0  0  0  0  0  0  0  0  0  0  0  0
    6.5623    0.6697   17.5881 N   0  0  0  0  0  0  0  0  0  0  0  0
    7.1586    0.0532   18.6141 C   0  0  0  0  0  0  0  0  0  0  0  0
    8.1049   -0.4333   18.3744 H   0  0  0  0  0  0  0  0  0  0  0  0
    6.6326    0.0012   19.9137 C   0  0  0  0  0  0  0  0  0  0  0  0
    7.3427   -0.7311   20.9953 C   0  0  0  0  0  0  0  0  0  0  0  0
    6.5914   -1.3172   21.8993 N   0  0  0  0  0  0  0  0  0  0  0  0
    7.1883   -1.9493   22.9578 N   0  0  0  0  0  0  0  0  0  0  0  0
    6.3037   -2.5304   23.9392 C   0  0  0  0  0  0  0  0  0  0  0  0
    5.1983   -3.3029   23.4891 C   0  0  0  0  0  0  0  0  0  0  0  0
    5.0428   -3.3975   22.4198 H   0  0  0  0  0  0  0  0  0  0  0  0
    4.3281   -3.8811   24.4026 C   0  0  0  0  0  0  0  0  0  0  0  0
    3.4692   -4.4614   24.0752 H   0  0  0  0  0  0  0  0  0  0  0  0
    4.5423   -3.6890   25.7860 C   0  0  0  0  0  0  0  0  0  0  0  0
    3.8624   -4.1128   26.9821 C   0  0  0  0  0  0  0  0  0  0  0  0
    2.9668   -4.7167   27.0245 H   0  0  0  0  0  0  0  0  0  0  0  0
    4.5593   -3.6088   28.0423 C   0  0  0  0  0  0  0  0  0  0  0  0
    4.3791   -3.6988   29.1073 H   0  0  0  0  0  0  0  0  0  0  0  0
    5.6412   -2.8887   27.5751 N   0  0  0  0  0  0  0  0  0  0  0  0
    6.3226   -2.4045   28.1317 H   0  0  0  0  0  0  0  0  0  0  0  0
    5.6516   -2.9118   26.2030 C   0  0  0  0  0  0  0  0  0  0  0  0
    6.5494   -2.3288   25.2942 C   0  0  0  0  0  0  0  0  0  0  0  0
    7.4191   -1.7662   25.6109 H   0  0  0  0  0  0  0  0  0  0  0  0
    8.6012   -2.1107   23.1190 C   0  0  0  0  0  0  0  0  0  0  0  0
    9.0924   -2.7421   24.0388 O   0  0  0  0  0  0  0  0  0  0  0  0
    9.3804   -1.4491   22.0760 C   0  0  0  0  0  0  0  0  0  0  0  0
   10.4518   -1.5482   22.1947 H   0  0  0  0  0  0  0  0  0  0  0  0
    8.7775   -0.7822   21.0557 C   0  0  0  0  0  0  0  0  0  0  0  0
    9.3459   -0.2573   20.2967 H   0  0  0  0  0  0  0  0  0  0  0  0
    5.4141    0.6530   20.1585 C   0  0  0  0  0  0  0  0  0  0  0  0
    4.9847    0.6272   21.1618 H   0  0  0  0  0  0  0  0  0  0  0  0
    4.7973    1.3193   19.1005 C   0  0  0  0  0  0  0  0  0  0  0  0
    3.8656    1.8550   19.2377 H   0  0  0  0  0  0  0  0  0  0  0  0
  1  2  1  0
  2  3  2  0
  3  4  1  0
  4  5  1  0
  4  6  2  0
  6  7  1  0
  7  8  2  0
  8  9  1  0
  9 10  1  0
 10 11  2  0
 11 12  1  0
 11 13  1  0
 13 14  1  0
 13 15  2  0
 15 16  1  0
 16 17  1  0
 16 18  2  0
 18 19  1  0
 18 20  1  0
 20 21  1  0
 20 22  1  0
 22 23  2  0
 23 24  1  0
  9 25  1  0
 25 26  2  0
 25 27  1  0
 27 28  1  0
 27 29  2  0
 29 30  1  0
  6 31  1  0
 31 32  1  0
 31 33  2  0
 33 34  1  0
 33  2  1  0
 29  7  1  0
 23 10  1  0
 22 15  1  0
M  END
>  <cnnaffinity>  (1) 
-5.1909

>  <filename>  (1) 
O=c1ccc(-c2cccnc2)nn1-c1ccc2cc[nH]c2c1

$$$$
