
     RDKit          3D

 42 45  0  0  0  0  0  0  0  0999 V2000
    4.9659    1.8592   16.9257 H   0  0  0  0  0  0  0  0  0  0  0  0
    5.4093    1.3296   17.7664 C   0  0  0  0  0  0  0  0  0  0  0  0
    6.5681    0.7011   17.5177 N   0  0  0  0  0  0  0  0  0  0  0  0
    7.1509    0.0660   18.5407 C   0  0  0  0  0  0  0  0  0  0  0  0
    8.0931   -0.4323   18.3077 H   0  0  0  0  0  0  0  0  0  0  0  0
    6.6304    0.0030   19.8487 C   0  0  0  0  0  0  0  0  0  0  0  0
    7.3877   -0.7067   20.9569 C   0  0  2  0  0  0  0  0  0  0  0  0
    8.2705   -1.1633   20.4839 H   0  0  0  0  0  0  0  0  0  0  0  0
    6.5854   -1.8379   21.6704 C   0  0  0  0  0  0  0  0  0  0  0  0
    5.5463   -1.9043   21.3169 H   0  0  0  0  0  0  0  0  0  0  0  0
    7.0389   -2.8196   21.4835 H   0  0  0  0  0  0  0  0  0  0  0  0
    6.6330   -1.5050   23.0863 N   0  0  0  0  0  0  0  0  0  0  0  0
    5.8732   -1.7361   23.7151 H   0  0  0  0  0  0  0  0  0  0  0  0
    7.0597   -0.2302   23.3248 C   0  0  0  0  0  0  0  0  0  0  0  0
    6.8060    0.3723   24.3464 O   0  0  0  0  0  0  0  0  0  0  0  0
    7.8469    0.2381   22.1144 C   0  0  1  0  0  0  0  0  0  0  0  0
    7.5634    1.2826   21.9525 H   0  0  0  0  0  0  0  0  0  0  0  0
    9.3470    0.1788   22.3659 C   0  0  0  0  0  0  0  0  0  0  0  0
    9.9807   -1.0517   22.5983 C   0  0  0  0  0  0  0  0  0  0  0  0
    9.3949   -1.9599   22.7104 H   0  0  0  0  0  0  0  0  0  0  0  0
   11.3728   -1.1348   22.6463 C   0  0  0  0  0  0  0  0  0  0  0  0
   11.8371   -2.1074   22.7600 H   0  0  0  0  0  0  0  0  0  0  0  0
   12.1580    0.0167   22.5137 C   0  0  0  0  0  0  0  0  0  0  0  0
   13.2436   -0.0460   22.5111 H   0  0  0  0  0  0  0  0  0  0  0  0
   11.5449    1.2678   22.3232 C   0  0  0  0  0  0  0  0  0  0  0  0
   12.3386    2.5118   22.0575 C   0  0  0  0  0  0  0  0  0  0  0  0
   13.3870    2.9915   22.8638 C   0  0  0  0  0  0  0  0  0  0  0  0
   13.7004    2.4147   23.7282 H   0  0  0  0  0  0  0  0  0  0  0  0
   14.0292    4.2031   22.5566 C   0  0  0  0  0  0  0  0  0  0  0  0
   14.8515    4.5507   23.1767 H   0  0  0  0  0  0  0  0  0  0  0  0
   13.6163    4.9688   21.4595 C   0  0  0  0  0  0  0  0  0  0  0  0
   14.0848    5.9271   21.2475 H   0  0  0  0  0  0  0  0  0  0  0  0
   12.5853    4.4885   20.6485 C   0  0  0  0  0  0  0  0  0  0  0  0
   12.1892    5.0383   19.8055 H   0  0  0  0  0  0  0  0  0  0  0  0
   11.9766    3.2719   20.9389 C   0  0  0  0  0  0  0  0  0  0  0  0
   11.1824    2.8983   20.2993 H   0  0  0  0  0  0  0  0  0  0  0  0
   10.1371    1.3206   22.2458 C   0  0  0  0  0  0  0  0  0  0  0  0
    9.6579    2.2850   22.0756 H   0  0  0  0  0  0  0  0  0  0  0  0
    5.4056    0.6472   20.0746 C   0  0  0  0  0  0  0  0  0  0  0  0
    4.9486    0.6306   21.0646 H   0  0  0  0  0  0  0  0  0  0  0  0
    4.7871    1.3211   19.0181 C   0  0  0  0  0  0  0  0  0  0  0  0
    3.8515    1.8514   19.1523 H   0  0  0  0  0  0  0  0  0  0  0  0
  1  2  1  0
  2  3  2  0
  3  4  1  0
  4  5  1  0
  4  6  2  0
  6  7  1  0
  7  8  1  6
  7  9  1  0
  9 10  1  0
  9 11  1  0
  9 12  1  0
 12 13  1  0
 12 14  1  0
 14 15  2  0
 14 16  1  0
 16 17  1  6
 16 18  1  0
 18 19  2  0
 19 20  1  0
 19 21  1  0
 21 22  1  0
 21 23  2  0
 23 24  1  0
 23 25  1  0
 25 26  1  0
 26 27  2  0
 27 28  1  0
 27 29  1  0
 29 30  1  0
 29 31  2  0
 31 32  1  0
 31 33  1  0
 33 34  1  0
 33 35  2  0
 35 36  1  0
 25 37  2  0
 37 38  1  0
  6 39  1  0
 39 40  1  0
 39 41  2  0
 41 42  1  0
 41  2  1  0
 16  7  1  0
 37 18  1  0
 35 26  1  0
M  END
>  <cnnaffinity>  (1) 
-5.79146

>  <filename>  (1) 
O=C1NC[C@@H](c2cccnc2)[C@@H]1c1cccc(-c2ccccc2)c1

$$$$
