
     RDKit          3D

 34 36  0  0  0  0  0  0  0  0999 V2000
   10.0061   -0.4170   22.5781 H   0  0  0  0  0  0  0  0  0  0  0  0
    9.0741   -0.8467   22.2542 C   0  0  0  0  0  0  0  0  0  0  0  0
    8.2780   -1.5311   23.0997 C   0  0  0  0  0  0  0  0  0  0  0  0
    8.6038   -1.5434   24.5856 C   0  0  0  0  0  0  0  0  0  0  0  0
    8.7235   -0.3391   25.1556 N   0  0  0  0  0  0  0  0  0  0  0  0
    8.9782   -0.2632   26.4635 C   0  0  0  0  0  0  0  0  0  0  0  0
    9.0386    0.7433   26.8626 H   0  0  0  0  0  0  0  0  0  0  0  0
    9.1938   -1.3825   27.2705 C   0  0  0  0  0  0  0  0  0  0  0  0
    9.4161   -1.2269   28.3199 H   0  0  0  0  0  0  0  0  0  0  0  0
    9.1337   -2.6424   26.6832 C   0  0  0  0  0  0  0  0  0  0  0  0
    9.3202   -3.5554   27.2492 H   0  0  0  0  0  0  0  0  0  0  0  0
    8.8605   -2.7224   25.3152 C   0  0  0  0  0  0  0  0  0  0  0  0
    8.8614   -4.0264   24.5749 C   0  0  0  0  0  0  0  0  0  0  0  0
    9.4106   -5.0309   25.2743 F   0  0  0  0  0  0  0  0  0  0  0  0
    9.5081   -3.9476   23.4011 F   0  0  0  0  0  0  0  0  0  0  0  0
    7.5888   -4.3913   24.2821 F   0  0  0  0  0  0  0  0  0  0  0  0
    7.1905   -2.1968   22.5189 N   0  0  0  0  0  0  0  0  0  0  0  0
    6.5826   -2.8673   22.9599 H   0  0  0  0  0  0  0  0  0  0  0  0
    6.6226   -1.8756   21.3000 C   0  0  0  0  0  0  0  0  0  0  0  0
    5.5892   -2.4242   20.9736 O   0  0  0  0  0  0  0  0  0  0  0  0
    7.3090   -0.9190   20.5527 N   0  0  0  0  0  0  0  0  0  0  0  0
    6.6258   -0.1296   19.5713 C   0  0  0  0  0  0  0  0  0  0  0  0
    7.1634    0.0956   18.2834 C   0  0  0  0  0  0  0  0  0  0  0  0
    8.1177   -0.3587   18.0099 H   0  0  0  0  0  0  0  0  0  0  0  0
    6.5685    0.8414   17.3433 N   0  0  0  0  0  0  0  0  0  0  0  0
    5.4077    1.4395   17.6603 C   0  0  0  0  0  0  0  0  0  0  0  0
    4.9487    2.0521   16.8848 H   0  0  0  0  0  0  0  0  0  0  0  0
    4.8057    1.3049   18.9152 C   0  0  0  0  0  0  0  0  0  0  0  0
    3.8836    1.8315   19.1241 H   0  0  0  0  0  0  0  0  0  0  0  0
    5.4153    0.5023   19.8867 C   0  0  0  0  0  0  0  0  0  0  0  0
    4.9870    0.3804   20.8806 H   0  0  0  0  0  0  0  0  0  0  0  0
    8.7270   -0.6275   20.8179 C   0  0  0  0  0  0  0  0  0  0  0  0
    8.9170    0.4347   20.5778 H   0  0  0  0  0  0  0  0  0  0  0  0
    9.3963   -1.2209   20.1591 H   0  0  0  0  0  0  0  0  0  0  0  0
  1  2  1  0
  2  3  2  0
  3  4  1  0
  4  5  2  0
  5  6  1  0
  6  7  1  0
  6  8  2  0
  8  9  1  0
  8 10  1  0
 10 11  1  0
 10 12  2  0
 12 13  1  0
 13 14  1  0
 13 15  1  0
 13 16  1  0
  3 17  1  0
 17 18  1  0
 17 19  1  0
 19 20  2  0
 19 21  1  0
 21 22  1  0
 22 23  2  0
 23 24  1  0
 23 25  1  0
 25 26  2  0
 26 27  1  0
 26 28  1  0
 28 29  1  0
 28 30  2  0
 30 31  1  0
 21 32  1  0
 32 33  1  0
 32 34  1  0
 32  2  1  0
 12  4  1  0
 30 22  1  0
M  END
>  <cnnaffinity>  (1) 
-5.73753

>  <filename>  (1) 
O=C1NC(c2ncccc2C(F)(F)F)=CCN1c1cccnc1

$$$$
