
     RDKit          3D

 34 37  0  0  0  0  0  0  0  0999 V2000
    4.9394    1.9369   16.7759 H   0  0  0  0  0  0  0  0  0  0  0  0
    5.4295    1.4220   17.5959 C   0  0  0  0  0  0  0  0  0  0  0  0
    6.5743    0.7919   17.2786 N   0  0  0  0  0  0  0  0  0  0  0  0
    7.2054    0.1462   18.2656 C   0  0  0  0  0  0  0  0  0  0  0  0
    8.1245   -0.3658   17.9783 H   0  0  0  0  0  0  0  0  0  0  0  0
    6.7319    0.0839   19.5919 C   0  0  0  0  0  0  0  0  0  0  0  0
    7.4102   -0.6796   20.6297 C   0  0  0  0  0  0  0  0  0  0  0  0
    6.8997   -1.3152   21.7015 C   0  0  0  0  0  0  0  0  0  0  0  0
    5.8812   -1.4056   22.0434 H   0  0  0  0  0  0  0  0  0  0  0  0
    7.9337   -1.9554   22.3714 N   0  0  0  0  0  0  0  0  0  0  0  0
    7.7009   -2.6829   23.5756 C   0  0  0  0  0  0  0  0  0  0  0  0
    6.8149   -3.7431   23.5655 C   0  0  0  0  0  0  0  0  0  0  0  0
    6.3168   -4.0338   22.6425 H   0  0  0  0  0  0  0  0  0  0  0  0
    6.4814   -4.4876   24.6537 N   0  0  0  0  0  0  0  0  0  0  0  0
    7.0097   -4.1552   25.8099 C   0  0  0  0  0  0  0  0  0  0  0  0
    6.7174   -4.7589   26.6715 H   0  0  0  0  0  0  0  0  0  0  0  0
    7.8920   -3.0410   25.9854 C   0  0  0  0  0  0  0  0  0  0  0  0
    8.4008   -2.6645   27.2572 C   0  0  0  0  0  0  0  0  0  0  0  0
    8.2021   -3.3325   28.0863 H   0  0  0  0  0  0  0  0  0  0  0  0
    9.1093   -1.4997   27.4107 C   0  0  0  0  0  0  0  0  0  0  0  0
    9.4368   -1.1914   28.3980 H   0  0  0  0  0  0  0  0  0  0  0  0
    9.3953   -0.6722   26.2970 C   0  0  0  0  0  0  0  0  0  0  0  0
    9.9413    0.2533   26.4569 H   0  0  0  0  0  0  0  0  0  0  0  0
    8.9743   -1.0442   25.0357 C   0  0  0  0  0  0  0  0  0  0  0  0
    9.1898   -0.4188   24.1768 H   0  0  0  0  0  0  0  0  0  0  0  0
    8.2193   -2.2451   24.8453 C   0  0  0  0  0  0  0  0  0  0  0  0
    9.1447   -1.7123   21.6972 C   0  0  0  0  0  0  0  0  0  0  0  0
   10.2809   -2.0391   21.9664 O   0  0  0  0  0  0  0  0  0  0  0  0
    8.7673   -0.9621   20.6091 N   0  0  0  0  0  0  0  0  0  0  0  0
    9.5024   -0.4536   20.1583 H   0  0  0  0  0  0  0  0  0  0  0  0
    5.5326    0.7508   19.8991 C   0  0  0  0  0  0  0  0  0  0  0  0
    5.1550    0.7571   20.9255 H   0  0  0  0  0  0  0  0  0  0  0  0
    4.8669    1.4281   18.8803 C   0  0  0  0  0  0  0  0  0  0  0  0
    3.9355    1.9574   19.0674 H   0  0  0  0  0  0  0  0  0  0  0  0
  1  2  1  0
  2  3  2  0
  3  4  1  0
  4  5  1  0
  4  6  2  0
  6  7  1  0
  7  8  2  0
  8  9  1  0
  8 10  1  0
 10 11  1  0
 11 12  2  0
 12 13  1  0
 12 14  1  0
 14 15  2  0
 15 16  1  0
 15 17  1  0
 17 18  2  0
 18 19  1  0
 18 20  1  0
 20 21  1  0
 20 22  2  0
 22 23  1  0
 22 24  1  0
 24 25  1  0
 24 26  2  0
 10 27  1  0
 27 28  2  0
 27 29  1  0
 29 30  1  0
  6 31  1  0
 31 32  1  0
 31 33  2  0
 33 34  1  0
 33  2  1  0
 29  7  1  0
 26 11  1  0
 26 17  1  0
M  END
>  <cnnaffinity>  (1) 
-5.62655

>  <filename>  (1) 
O=c1[nH]c(-c2cccnc2)cn1-c1cncc2ccccc12

$$$$
