
     RDKit          3D

 28 30  0  0  0  0  0  0  0  0999 V2000
    5.0943    1.9043   16.9297 H   0  0  0  0  0  0  0  0  0  0  0  0
    5.5494    1.3594   17.7590 C   0  0  0  0  0  0  0  0  0  0  0  0
    6.7501    0.8092   17.5133 N   0  0  0  0  0  0  0  0  0  0  0  0
    7.3384    0.1501   18.5175 C   0  0  0  0  0  0  0  0  0  0  0  0
    8.3442   -0.2187   18.3293 H   0  0  0  0  0  0  0  0  0  0  0  0
    6.7322   -0.0745   19.7657 C   0  0  0  0  0  0  0  0  0  0  0  0
    7.4598   -0.8996   20.7761 C   0  0  0  0  0  0  0  0  0  0  0  0
    8.7302   -0.6234   20.8720 N   0  0  0  0  0  0  0  0  0  0  0  0
    9.4504   -1.1494   21.9172 N   0  0  0  0  0  0  0  0  0  0  0  0
   10.7911   -0.7325   22.0379 C   0  0  0  0  0  0  0  0  0  0  0  0
   11.3106    0.5409   22.0167 C   0  0  0  0  0  0  0  0  0  0  0  0
   10.7254    1.4274   21.8219 H   0  0  0  0  0  0  0  0  0  0  0  0
   12.7139    0.4291   22.2348 C   0  0  0  0  0  0  0  0  0  0  0  0
   13.4419    1.2367   22.2606 H   0  0  0  0  0  0  0  0  0  0  0  0
   13.0041   -0.9081   22.3506 C   0  0  0  0  0  0  0  0  0  0  0  0
   13.9455   -1.4131   22.5161 H   0  0  0  0  0  0  0  0  0  0  0  0
   11.8299   -1.6113   22.2508 N   0  0  0  0  0  0  0  0  0  0  0  0
   11.7493   -2.6071   22.1264 H   0  0  0  0  0  0  0  0  0  0  0  0
    8.8378   -1.9000   22.9114 C   0  0  0  0  0  0  0  0  0  0  0  0
    9.4484   -2.0995   23.7928 H   0  0  0  0  0  0  0  0  0  0  0  0
    7.5700   -2.3366   22.7975 C   0  0  0  0  0  0  0  0  0  0  0  0
    7.1061   -2.9901   23.5224 H   0  0  0  0  0  0  0  0  0  0  0  0
    6.7609   -1.9699   21.6369 C   0  0  0  0  0  0  0  0  0  0  0  0
    5.6744   -2.4808   21.4143 O   0  0  0  0  0  0  0  0  0  0  0  0
    5.4998    0.5449   20.0244 C   0  0  0  0  0  0  0  0  0  0  0  0
    5.0338    0.4600   21.0094 H   0  0  0  0  0  0  0  0  0  0  0  0
    4.9010    1.2793   18.9968 C   0  0  0  0  0  0  0  0  0  0  0  0
    3.9563    1.7970   19.1415 H   0  0  0  0  0  0  0  0  0  0  0  0
  1  2  1  0
  2  3  2  0
  3  4  1  0
  4  5  1  0
  4  6  2  0
  6  7  1  0
  7  8  2  0
  8  9  1  0
  9 10  1  0
 10 11  2  0
 11 12  1  0
 11 13  1  0
 13 14  1  0
 13 15  2  0
 15 16  1  0
 15 17  1  0
 17 18  1  0
  9 19  1  0
 19 20  1  0
 19 21  2  0
 21 22  1  0
 21 23  1  0
 23 24  2  0
  6 25  1  0
 25 26  1  0
 25 27  2  0
 27 28  1  0
 27  2  1  0
 23  7  1  0
 17 10  1  0
M  END
>  <cnnaffinity>  (1) 
-4.75756

>  <filename>  (1) 
O=c1ccn(-c2ccc[nH]2)nc1-c1cccnc1

$$$$
