
     RDKit          3D

 29 31  0  0  0  0  0  0  0  0999 V2000
    4.9115    1.8056   16.8746 H   0  0  0  0  0  0  0  0  0  0  0  0
    5.4145    1.3305   17.7188 C   0  0  0  0  0  0  0  0  0  0  0  0
    6.5615    0.6902   17.4464 N   0  0  0  0  0  0  0  0  0  0  0  0
    7.1942    0.0852   18.4607 C   0  0  0  0  0  0  0  0  0  0  0  0
    8.1313   -0.3934   18.1838 H   0  0  0  0  0  0  0  0  0  0  0  0
    6.7311    0.0679   19.8008 C   0  0  0  0  0  0  0  0  0  0  0  0
    7.4427   -0.6377   20.8996 C   0  0  0  0  0  0  0  0  0  0  0  0
    8.4825   -1.5039   20.8179 C   0  0  0  0  0  0  0  0  0  0  0  0
    8.9840   -1.8557   19.9285 H   0  0  0  0  0  0  0  0  0  0  0  0
    8.8530   -2.0308   22.0562 N   0  0  0  0  0  0  0  0  0  0  0  0
    9.8470   -2.0611   22.2800 H   0  0  0  0  0  0  0  0  0  0  0  0
    8.0977   -1.3087   22.9924 N   0  0  0  0  0  0  0  0  0  0  0  0
    8.2998   -1.4013   24.3891 C   0  0  0  0  0  0  0  0  0  0  0  0
    8.6972   -2.6066   24.9941 C   0  0  0  0  0  0  0  0  0  0  0  0
    8.8400   -3.5091   24.4063 H   0  0  0  0  0  0  0  0  0  0  0  0
    8.8967   -2.6123   26.3769 C   0  0  0  0  0  0  0  0  0  0  0  0
    9.4282   -4.0762   27.1500 Cl  0  0  0  0  0  0  0  0  0  0  0  0
    8.7196   -1.4611   27.1513 C   0  0  0  0  0  0  0  0  0  0  0  0
    8.8916   -1.4636   28.2170 H   0  0  0  0  0  0  0  0  0  0  0  0
    8.3501   -0.2760   26.5148 C   0  0  0  0  0  0  0  0  0  0  0  0
    8.1412    1.1875   27.4255 Cl  0  0  0  0  0  0  0  0  0  0  0  0
    8.1229   -0.2353   25.1466 C   0  0  0  0  0  0  0  0  0  0  0  0
    7.8130    0.6806   24.6651 H   0  0  0  0  0  0  0  0  0  0  0  0
    7.1523   -0.4955   22.3524 C   0  0  0  0  0  0  0  0  0  0  0  0
    6.3297    0.1941   22.9408 O   0  0  0  0  0  0  0  0  0  0  0  0
    5.5423    0.7777   20.0600 C   0  0  0  0  0  0  0  0  0  0  0  0
    5.1784    0.8523   21.0826 H   0  0  0  0  0  0  0  0  0  0  0  0
    4.8720    1.3975   19.0030 C   0  0  0  0  0  0  0  0  0  0  0  0
    3.9477    1.9405   19.1622 H   0  0  0  0  0  0  0  0  0  0  0  0
  1  2  1  0
  2  3  2  0
  3  4  1  0
  4  5  1  0
  4  6  2  0
  6  7  1  0
  7  8  2  0
  8  9  1  0
  8 10  1  0
 10 11  1  0
 10 12  1  0
 12 13  1  0
 13 14  2  0
 14 15  1  0
 14 16  1  0
 16 17  1  0
 16 18  2  0
 18 19  1  0
 18 20  1  0
 20 21  1  0
 20 22  2  0
 22 23  1  0
 12 24  1  0
 24 25  2  0
  6 26  1  0
 26 27  1  0
 26 28  2  0
 28 29  1  0
 28  2  1  0
 24  7  1  0
 22 13  1  0
M  END
>  <cnnaffinity>  (1) 
-5.48002

>  <filename>  (1) 
O=c1c(-c2cccnc2)c[nH]n1-c1cc(Cl)cc(Cl)c1

$$$$
