
     RDKit          3D

 35 36  0  0  0  0  0  0  0  0999 V2000
    7.6558    4.7536   23.0892 H   0  0  0  0  0  0  0  0  0  0  0  0
    6.9824    4.3187   22.5202 O   0  0  0  0  0  0  0  0  0  0  0  0
    7.1925    3.0628   23.3043 P   0  0  0  0  0  0  0  0  0  0  0  0
    5.9782    2.3511   23.7041 O   0  0  0  0  0  0  0  0  0  0  0  0
    7.5032    4.4062   23.9521 O   0  0  0  0  0  0  0  0  0  0  0  0
    6.7920    4.7497   23.3460 H   0  0  0  0  0  0  0  0  0  0  0  0
    8.5201    1.9480   22.8842 C   0  0  0  0  0  0  0  0  0  0  0  0
    9.3451    2.5886   22.5965 H   0  0  0  0  0  0  0  0  0  0  0  0
    8.5011    0.7088   21.9124 N   0  0  0  0  0  0  0  0  0  0  0  0
    9.4171    0.3959   21.5475 H   0  0  0  0  0  0  0  0  0  0  0  0
    7.5638   -0.4089   22.0479 C   0  0  1  0  0  0  0  0  0  0  0  0
    6.6145   -0.0462   22.4567 H   0  0  0  0  0  0  0  0  0  0  0  0
    7.3487   -1.0251   20.7736 N   0  0  0  0  0  0  0  0  0  0  0  0
    6.6985   -0.2998   19.7491 C   0  0  0  0  0  0  0  0  0  0  0  0
    7.1686   -0.2806   18.4127 C   0  0  0  0  0  0  0  0  0  0  0  0
    8.0546   -0.8650   18.1857 H   0  0  0  0  0  0  0  0  0  0  0  0
    6.5906    0.4352   17.4217 N   0  0  0  0  0  0  0  0  0  0  0  0
    5.5184    1.1843   17.7443 C   0  0  0  0  0  0  0  0  0  0  0  0
    5.0409    1.7746   16.9698 H   0  0  0  0  0  0  0  0  0  0  0  0
    4.9954    1.2354   19.0435 C   0  0  0  0  0  0  0  0  0  0  0  0
    4.1415    1.8739   19.2463 H   0  0  0  0  0  0  0  0  0  0  0  0
    5.5802    0.4747   20.0611 C   0  0  0  0  0  0  0  0  0  0  0  0
    5.1938    0.4929   21.0796 H   0  0  0  0  0  0  0  0  0  0  0  0
    7.0047   -2.3218   21.1062 C   0  0  0  0  0  0  0  0  0  0  0  0
    6.3063   -3.0086   20.3721 O   0  0  0  0  0  0  0  0  0  0  0  0
    7.4534   -2.7003   22.3271 O   0  0  0  0  0  0  0  0  0  0  0  0
    8.1067   -1.5509   22.8832 C   0  0  0  0  0  0  0  0  0  0  0  0
    7.8914   -1.3995   23.9464 H   0  0  0  0  0  0  0  0  0  0  0  0
    9.1926   -1.6270   22.7580 H   0  0  0  0  0  0  0  0  0  0  0  0
    8.3317    2.0791   24.6645 P   0  0  0  0  0  0  0  0  0  0  0  0
    7.3102    1.1407   25.1034 O   0  0  0  0  0  0  0  0  0  0  0  0
    8.3998    3.3235   25.5617 O   0  0  0  0  0  0  0  0  0  0  0  0
    9.3846    3.2753   25.4976 H   0  0  0  0  0  0  0  0  0  0  0  0
    9.5865    2.3565   25.4240 O   0  0  0  0  0  0  0  0  0  0  0  0
    8.9751    2.7828   26.0842 H   0  0  0  0  0  0  0  0  0  0  0  0
  1  2  1  0
  2  3  1  0
  3  4  2  0
  3  5  1  0
  5  6  1  0
  3  7  1  0
  7  8  1  0
  7  9  1  0
  9 10  1  0
  9 11  1  0
 11 12  1  1
 11 13  1  0
 13 14  1  0
 14 15  2  0
 15 16  1  0
 15 17  1  0
 17 18  2  0
 18 19  1  0
 18 20  1  0
 20 21  1  0
 20 22  2  0
 22 23  1  0
 13 24  1  0
 24 25  2  0
 24 26  1  0
 26 27  1  0
 27 28  1  0
 27 29  1  0
  7 30  1  0
 30 31  2  0
 30 32  1  0
 32 33  1  0
 30 34  1  0
 34 35  1  0
 27 11  1  0
 22 14  1  0
M  END
>  <cnnaffinity>  (1) 
-4.30873

>  <filename>  (1) 
O=C1OC[C@@H](NC(P(=O)(O)O)P(=O)(O)O)N1c1cccnc1

$$$$
