
     RDKit          3D

 33 35  0  0  0  0  0  0  0  0999 V2000
    4.9432    2.1477   16.8363 H   0  0  0  0  0  0  0  0  0  0  0  0
    5.2230    1.4369   17.6130 C   0  0  0  0  0  0  0  0  0  0  0  0
    6.3003    0.6782   17.3494 N   0  0  0  0  0  0  0  0  0  0  0  0
    6.7024   -0.1616   18.3039 C   0  0  0  0  0  0  0  0  0  0  0  0
    7.5759   -0.7723   18.0864 H   0  0  0  0  0  0  0  0  0  0  0  0
    6.0847   -0.2897   19.5663 C   0  0  0  0  0  0  0  0  0  0  0  0
    6.8060   -0.9538   20.6362 N   0  0  0  0  0  0  0  0  0  0  0  0
    8.0767   -0.4731   20.8936 C   0  0  0  0  0  0  0  0  0  0  0  0
    8.3509    0.4461   20.3787 H   0  0  0  0  0  0  0  0  0  0  0  0
    8.9317   -1.1323   21.7072 C   0  0  0  0  0  0  0  0  0  0  0  0
   10.2747   -0.6622   21.9285 C   0  0  0  0  0  0  0  0  0  0  0  0
   10.3795    0.6744   22.0238 N   0  0  0  0  0  0  0  0  0  0  0  0
   11.5350    1.1821   22.4078 C   0  0  0  0  0  0  0  0  0  0  0  0
   11.5742    2.2607   22.5554 H   0  0  0  0  0  0  0  0  0  0  0  0
   12.6577    0.3892   22.6396 C   0  0  0  0  0  0  0  0  0  0  0  0
   13.8473    1.0433   23.2241 C   0  0  0  0  0  0  0  0  0  0  0  0
   13.6708    2.3642   23.4196 F   0  0  0  0  0  0  0  0  0  0  0  0
   14.1448    0.5088   24.4223 F   0  0  0  0  0  0  0  0  0  0  0  0
   14.9205    0.8873   22.4338 F   0  0  0  0  0  0  0  0  0  0  0  0
   12.6209   -0.9801   22.3348 C   0  0  0  0  0  0  0  0  0  0  0  0
   13.5185   -1.6025   22.3622 H   0  0  0  0  0  0  0  0  0  0  0  0
   11.3864   -1.5204   22.0195 C   0  0  0  0  0  0  0  0  0  0  0  0
   11.2315   -2.5823   21.9095 H   0  0  0  0  0  0  0  0  0  0  0  0
    8.4874   -2.2757   22.4775 C   0  0  0  0  0  0  0  0  0  0  0  0
    9.1394   -3.0447   23.1493 O   0  0  0  0  0  0  0  0  0  0  0  0
    7.1325   -2.4759   22.3889 N   0  0  0  0  0  0  0  0  0  0  0  0
    6.8118   -3.3209   22.8109 H   0  0  0  0  0  0  0  0  0  0  0  0
    6.3132   -2.0495   21.3839 C   0  0  0  0  0  0  0  0  0  0  0  0
    5.2773   -2.6353   21.1952 O   0  0  0  0  0  0  0  0  0  0  0  0
    4.9023    0.4178   19.7873 C   0  0  0  0  0  0  0  0  0  0  0  0
    4.3470    0.2862   20.7141 H   0  0  0  0  0  0  0  0  0  0  0  0
    4.4791    1.3138   18.7909 C   0  0  0  0  0  0  0  0  0  0  0  0
    3.6015    1.9353   18.9256 H   0  0  0  0  0  0  0  0  0  0  0  0
  1  2  1  0
  2  3  2  0
  3  4  1  0
  4  5  1  0
  4  6  2  0
  6  7  1  0
  7  8  1  0
  8  9  1  0
  8 10  2  0
 10 11  1  0
 11 12  2  0
 12 13  1  0
 13 14  1  0
 13 15  2  0
 15 16  1  0
 16 17  1  0
 16 18  1  0
 16 19  1  0
 15 20  1  0
 20 21  1  0
 20 22  2  0
 22 23  1  0
 10 24  1  0
 24 25  2  0
 24 26  1  0
 26 27  1  0
 26 28  1  0
 28 29  2  0
  6 30  1  0
 30 31  1  0
 30 32  2  0
 32 33  1  0
 32  2  1  0
 28  7  1  0
 22 11  1  0
M  END
>  <cnnaffinity>  (1) 
-5.86381

>  <filename>  (1) 
O=c1[nH]c(=O)n(-c2cccnc2)cc1-c1ccc(C(F)(F)F)cn1

$$$$
