
     RDKit          3D

 30 32  0  0  0  0  0  0  0  0999 V2000
    4.9502    1.8746   16.9484 H   0  0  0  0  0  0  0  0  0  0  0  0
    5.4095    1.3425   17.7791 C   0  0  0  0  0  0  0  0  0  0  0  0
    6.5729    0.7233   17.5186 N   0  0  0  0  0  0  0  0  0  0  0  0
    7.1617    0.0705   18.5278 C   0  0  0  0  0  0  0  0  0  0  0  0
    8.1082   -0.4186   18.3009 H   0  0  0  0  0  0  0  0  0  0  0  0
    6.6151   -0.0286   19.8249 C   0  0  0  0  0  0  0  0  0  0  0  0
    7.3106   -0.7211   20.8826 N   0  0  0  0  0  0  0  0  0  0  0  0
    8.5610   -0.2503   21.2283 C   0  0  0  0  0  0  0  0  0  0  0  0
    8.9153    0.5975   20.6535 H   0  0  0  0  0  0  0  0  0  0  0  0
    9.3330   -0.8086   22.2022 C   0  0  0  0  0  0  0  0  0  0  0  0
   10.7122   -0.2829   22.4320 C   0  0  0  0  0  0  0  0  0  0  0  0
   11.8406   -1.1360   22.4180 C   0  0  0  0  0  0  0  0  0  0  0  0
   11.7163   -2.1902   22.1783 H   0  0  0  0  0  0  0  0  0  0  0  0
   13.0985   -0.7209   22.6426 N   0  0  0  0  0  0  0  0  0  0  0  0
   13.2948    0.5781   22.9047 C   0  0  0  0  0  0  0  0  0  0  0  0
   14.3166    0.9144   23.0652 H   0  0  0  0  0  0  0  0  0  0  0  0
   12.2365    1.4984   22.9265 C   0  0  0  0  0  0  0  0  0  0  0  0
   12.4971    2.7883   23.1755 F   0  0  0  0  0  0  0  0  0  0  0  0
   10.9357    1.0891   22.6595 C   0  0  0  0  0  0  0  0  0  0  0  0
   10.1389    1.8322   22.6158 H   0  0  0  0  0  0  0  0  0  0  0  0
    8.7804   -1.9031   22.9466 C   0  0  0  0  0  0  0  0  0  0  0  0
    9.3667   -2.3571   23.7461 H   0  0  0  0  0  0  0  0  0  0  0  0
    7.5306   -2.3661   22.6662 C   0  0  0  0  0  0  0  0  0  0  0  0
    7.0673   -3.1928   23.1891 H   0  0  0  0  0  0  0  0  0  0  0  0
    6.7033   -1.8187   21.5953 C   0  0  0  0  0  0  0  0  0  0  0  0
    5.6161   -2.2750   21.2993 O   0  0  0  0  0  0  0  0  0  0  0  0
    5.4123    0.6311   20.0871 C   0  0  0  0  0  0  0  0  0  0  0  0
    4.9933    0.6030   21.0928 H   0  0  0  0  0  0  0  0  0  0  0  0
    4.8023    1.3274   19.0392 C   0  0  0  0  0  0  0  0  0  0  0  0
    3.8765    1.8661   19.1928 H   0  0  0  0  0  0  0  0  0  0  0  0
  1  2  1  0
  2  3  2  0
  3  4  1  0
  4  5  1  0
  4  6  2  0
  6  7  1  0
  7  8  1  0
  8  9  1  0
  8 10  2  0
 10 11  1  0
 11 12  2  0
 12 13  1  0
 12 14  1  0
 14 15  2  0
 15 16  1  0
 15 17  1  0
 17 18  1  0
 17 19  2  0
 19 20  1  0
 10 21  1  0
 21 22  1  0
 21 23  2  0
 23 24  1  0
 23 25  1  0
 25 26  2  0
  6 27  1  0
 27 28  1  0
 27 29  2  0
 29 30  1  0
 29  2  1  0
 25  7  1  0
 19 11  1  0
M  END
>  <cnnaffinity>  (1) 
-5.21019

>  <filename>  (1) 
O=c1ccc(-c2cncc(F)c2)cn1-c1cccnc1

$$$$
