
     RDKit          3D

 35 37  0  0  0  0  0  0  0  0999 V2000
    5.1167    1.7911   16.9737 H   0  0  0  0  0  0  0  0  0  0  0  0
    5.5705    1.2968   17.8326 C   0  0  0  0  0  0  0  0  0  0  0  0
    6.7812    0.7472   17.6344 N   0  0  0  0  0  0  0  0  0  0  0  0
    7.3775    0.1415   18.6708 C   0  0  0  0  0  0  0  0  0  0  0  0
    8.3717   -0.2617   18.4878 H   0  0  0  0  0  0  0  0  0  0  0  0
    6.7616   -0.0069   19.9280 C   0  0  0  0  0  0  0  0  0  0  0  0
    7.4044   -0.7314   20.9849 N   0  0  0  0  0  0  0  0  0  0  0  0
    8.7163   -0.3831   21.2013 N   0  0  0  0  0  0  0  0  0  0  0  0
    9.3276   -0.8567   22.2683 C   0  0  0  0  0  0  0  0  0  0  0  0
   10.6480   -0.5053   22.4906 N   0  0  0  0  0  0  0  0  0  0  0  0
   11.4412   -0.0778   21.3513 C   0  0  0  0  0  0  0  0  0  0  0  0
   12.4810   -0.3937   21.5068 H   0  0  0  0  0  0  0  0  0  0  0  0
   11.0703   -0.5880   20.4561 H   0  0  0  0  0  0  0  0  0  0  0  0
   11.3327    1.4404   21.2602 C   0  0  0  0  0  0  0  0  0  0  0  0
   11.9151    1.9129   20.4710 H   0  0  0  0  0  0  0  0  0  0  0  0
   10.2885    1.7510   21.2023 H   0  0  0  0  0  0  0  0  0  0  0  0
   12.0304    2.0860   22.7619 S   0  0  0  0  0  0  0  0  0  0  0  0
   13.3608    1.4872   22.8748 O   0  0  0  0  0  0  0  0  0  0  0  0
   11.8562    3.5251   22.8235 O   0  0  0  0  0  0  0  0  0  0  0  0
   11.0521    1.3127   24.0302 C   0  0  0  0  0  0  0  0  0  0  0  0
   11.5207    1.6262   24.9618 H   0  0  0  0  0  0  0  0  0  0  0  0
   10.0267    1.6751   23.9562 H   0  0  0  0  0  0  0  0  0  0  0  0
   11.1519   -0.1864   23.8120 C   0  0  0  0  0  0  0  0  0  0  0  0
   10.6231   -0.7362   24.6004 H   0  0  0  0  0  0  0  0  0  0  0  0
   12.2112   -0.4528   23.8743 H   0  0  0  0  0  0  0  0  0  0  0  0
    8.6955   -1.8278   23.1354 C   0  0  0  0  0  0  0  0  0  0  0  0
    9.2662   -2.2052   23.9805 H   0  0  0  0  0  0  0  0  0  0  0  0
    7.4614   -2.2926   22.8220 C   0  0  0  0  0  0  0  0  0  0  0  0
    6.9466   -3.0610   23.3842 H   0  0  0  0  0  0  0  0  0  0  0  0
    6.7196   -1.8060   21.6549 C   0  0  0  0  0  0  0  0  0  0  0  0
    5.6544   -2.2561   21.2775 O   0  0  0  0  0  0  0  0  0  0  0  0
    5.5044    0.5785   20.1301 C   0  0  0  0  0  0  0  0  0  0  0  0
    5.0194    0.5121   21.1023 H   0  0  0  0  0  0  0  0  0  0  0  0
    4.9058    1.2544   19.0615 C   0  0  0  0  0  0  0  0  0  0  0  0
    3.9493    1.7568   19.1711 H   0  0  0  0  0  0  0  0  0  0  0  0
  1  2  1  0
  2  3  2  0
  3  4  1  0
  4  5  1  0
  4  6  2  0
  6  7  1  0
  7  8  1  0
  8  9  2  0
  9 10  1  0
 10 11  1  0
 11 12  1  0
 11 13  1  0
 11 14  1  0
 14 15  1  0
 14 16  1  0
 14 17  1  0
 17 18  2  0
 17 19  2  0
 17 20  1  0
 20 21  1  0
 20 22  1  0
 20 23  1  0
 23 24  1  0
 23 25  1  0
  9 26  1  0
 26 27  1  0
 26 28  2  0
 28 29  1  0
 28 30  1  0
 30 31  2  0
  6 32  1  0
 32 33  1  0
 32 34  2  0
 34 35  1  0
 34  2  1  0
 30  7  1  0
 23 10  1  0
M  END
>  <cnnaffinity>  (1) 
-4.95691

>  <filename>  (1) 
O=c1ccc(N2CCS(=O)(=O)CC2)nn1-c1cccnc1

$$$$
