
     RDKit          3D

 36 38  0  0  0  0  0  0  0  0999 V2000
    4.8807    1.8524   16.6878 H   0  0  0  0  0  0  0  0  0  0  0  0
    5.2775    1.4635   17.6222 C   0  0  0  0  0  0  0  0  0  0  0  0
    6.4798    0.8747   17.5436 N   0  0  0  0  0  0  0  0  0  0  0  0
    7.0010    0.3933   18.6805 C   0  0  0  0  0  0  0  0  0  0  0  0
    7.9923   -0.0520   18.5923 H   0  0  0  0  0  0  0  0  0  0  0  0
    6.3566    0.4384   19.9354 C   0  0  0  0  0  0  0  0  0  0  0  0
    7.0010   -0.1767   21.1765 C   0  0  2  0  0  0  0  0  0  0  0  0
    6.3018   -0.0585   22.0137 H   0  0  0  0  0  0  0  0  0  0  0  0
    8.3754    0.4648   21.5211 C   0  0  0  0  0  0  0  0  0  0  0  0
    8.4989    0.5949   22.6127 H   0  0  0  0  0  0  0  0  0  0  0  0
    8.4757    1.4500   21.0532 H   0  0  0  0  0  0  0  0  0  0  0  0
    9.3348   -0.4707   20.9560 N   0  0  0  0  0  0  0  0  0  0  0  0
   10.3391   -0.3873   21.0314 H   0  0  0  0  0  0  0  0  0  0  0  0
    8.8777   -1.7527   20.9098 C   0  0  0  0  0  0  0  0  0  0  0  0
    9.6024   -2.7195   20.7821 O   0  0  0  0  0  0  0  0  0  0  0  0
    7.3037   -1.6874   20.9936 C   0  0  1  0  0  0  0  0  0  0  0  0
    6.9862   -2.0153   19.9925 H   0  0  0  0  0  0  0  0  0  0  0  0
    6.5371   -2.5279   21.9237 N   0  0  0  0  0  0  0  0  0  0  0  0
    6.7128   -2.2916   22.9033 H   0  0  0  0  0  0  0  0  0  0  0  0
    6.7185   -3.9701   21.7371 C   0  0  0  0  0  0  0  0  0  0  0  0
    6.3199   -4.2509   20.7495 H   0  0  0  0  0  0  0  0  0  0  0  0
    7.7814   -4.2664   21.7288 H   0  0  0  0  0  0  0  0  0  0  0  0
    5.9838   -4.7254   22.8280 C   0  0  0  0  0  0  0  0  0  0  0  0
    6.6627   -5.2281   23.9495 C   0  0  0  0  0  0  0  0  0  0  0  0
    7.7294   -5.0828   24.0852 H   0  0  0  0  0  0  0  0  0  0  0  0
    5.9478   -5.9140   24.9359 C   0  0  0  0  0  0  0  0  0  0  0  0
    6.4739   -6.3597   25.7780 H   0  0  0  0  0  0  0  0  0  0  0  0
    4.6226   -6.0926   24.9023 N   0  0  0  0  0  0  0  0  0  0  0  0
    3.9661   -5.5779   23.8555 C   0  0  0  0  0  0  0  0  0  0  0  0
    2.8856   -5.7168   23.8619 H   0  0  0  0  0  0  0  0  0  0  0  0
    4.5906   -4.9023   22.8021 C   0  0  0  0  0  0  0  0  0  0  0  0
    3.9818   -4.4993   22.0007 H   0  0  0  0  0  0  0  0  0  0  0  0
    5.1049    1.0666   19.9878 C   0  0  0  0  0  0  0  0  0  0  0  0
    4.5705    1.1520   20.9365 H   0  0  0  0  0  0  0  0  0  0  0  0
    4.5545    1.5872   18.8126 C   0  0  0  0  0  0  0  0  0  0  0  0
    3.5969    2.0978   18.8108 H   0  0  0  0  0  0  0  0  0  0  0  0
  1  2  1  0
  2  3  2  0
  3  4  1  0
  4  5  1  0
  4  6  2  0
  6  7  1  0
  7  8  1  1
  7  9  1  0
  9 10  1  0
  9 11  1  0
  9 12  1  0
 12 13  1  0
 12 14  1  0
 14 15  2  0
 14 16  1  0
 16 17  1  6
 16 18  1  0
 18 19  1  0
 18 20  1  0
 20 21  1  0
 20 22  1  0
 20 23  1  0
 23 24  2  0
 24 25  1  0
 24 26  1  0
 26 27  1  0
 26 28  2  0
 28 29  1  0
 29 30  1  0
 29 31  2  0
 31 32  1  0
  6 33  1  0
 33 34  1  0
 33 35  2  0
 35 36  1  0
 35  2  1  0
 16  7  1  0
 31 23  1  0
M  END
>  <cnnaffinity>  (1) 
-5.20431

>  <filename>  (1) 
O=C1NC[C@@H](c2cccnc2)[C@@H]1NCc1ccncc1

$$$$
