
     RDKit          3D

 39 41  0  0  0  0  0  0  0  0999 V2000
    4.9534    1.8177   17.0213 H   0  0  0  0  0  0  0  0  0  0  0  0
    5.4046    1.2778   17.8499 C   0  0  0  0  0  0  0  0  0  0  0  0
    6.5517    0.6343   17.5784 N   0  0  0  0  0  0  0  0  0  0  0  0
    7.1660    0.0104   18.5900 C   0  0  0  0  0  0  0  0  0  0  0  0
    8.1241   -0.4556   18.3707 H   0  0  0  0  0  0  0  0  0  0  0  0
    6.6436   -0.0460   19.8945 C   0  0  0  0  0  0  0  0  0  0  0  0
    7.3456   -0.7236   20.9416 N   0  0  0  0  0  0  0  0  0  0  0  0
    6.5858   -1.5982   21.6816 N   0  0  0  0  0  0  0  0  0  0  0  0
    7.1594   -2.2636   22.6483 C   0  0  0  0  0  0  0  0  0  0  0  0
    6.3062   -3.2230   23.4289 C   0  0  0  0  0  0  0  0  0  0  0  0
    5.4843   -3.5463   22.7908 H   0  0  0  0  0  0  0  0  0  0  0  0
    6.8884   -4.1086   23.6958 H   0  0  0  0  0  0  0  0  0  0  0  0
    5.7908   -2.6242   24.7361 C   0  0  0  0  0  0  0  0  0  0  0  0
    6.6717   -2.4279   25.3582 H   0  0  0  0  0  0  0  0  0  0  0  0
    5.2896   -1.6461   24.5841 H   0  0  0  0  0  0  0  0  0  0  0  0
    4.9501   -3.5483   25.4919 N   0  0  0  0  0  0  0  0  0  0  0  0
    4.7420   -3.0066   26.8472 C   0  0  0  0  0  0  0  0  0  0  0  0
    4.2246   -2.0238   26.8075 H   0  0  0  0  0  0  0  0  0  0  0  0
    5.7153   -2.8617   27.3342 H   0  0  0  0  0  0  0  0  0  0  0  0
    3.9157   -3.9700   27.6981 C   0  0  0  0  0  0  0  0  0  0  0  0
    4.4820   -4.9037   27.8505 H   0  0  0  0  0  0  0  0  0  0  0  0
    3.7016   -3.5337   28.6779 H   0  0  0  0  0  0  0  0  0  0  0  0
    2.6568   -4.2480   27.1008 O   0  0  0  0  0  0  0  0  0  0  0  0
    2.8152   -4.7608   25.7835 C   0  0  0  0  0  0  0  0  0  0  0  0
    1.8028   -4.8966   25.3934 H   0  0  0  0  0  0  0  0  0  0  0  0
    3.2993   -5.7515   25.8233 H   0  0  0  0  0  0  0  0  0  0  0  0
    3.6302   -3.8119   24.8880 C   0  0  0  0  0  0  0  0  0  0  0  0
    3.7538   -4.2900   23.9097 H   0  0  0  0  0  0  0  0  0  0  0  0
    3.0557   -2.8730   24.7470 H   0  0  0  0  0  0  0  0  0  0  0  0
    8.5490   -2.0784   22.9918 C   0  0  0  0  0  0  0  0  0  0  0  0
    8.9738   -2.6766   23.8010 H   0  0  0  0  0  0  0  0  0  0  0  0
    9.2951   -1.1792   22.2961 C   0  0  0  0  0  0  0  0  0  0  0  0
   10.3361   -0.9528   22.4898 H   0  0  0  0  0  0  0  0  0  0  0  0
    8.7253   -0.4023   21.2013 C   0  0  0  0  0  0  0  0  0  0  0  0
    9.3377    0.4310   20.5478 O   0  0  0  0  0  0  0  0  0  0  0  0
    5.4288    0.6005   20.1586 C   0  0  0  0  0  0  0  0  0  0  0  0
    5.0089    0.5537   21.1617 H   0  0  0  0  0  0  0  0  0  0  0  0
    4.8038    1.2905   19.1148 C   0  0  0  0  0  0  0  0  0  0  0  0
    3.8840    1.8525   19.2705 H   0  0  0  0  0  0  0  0  0  0  0  0
  1  2  1  0
  2  3  2  0
  3  4  1  0
  4  5  1  0
  4  6  2  0
  6  7  1  0
  7  8  1  0
  8  9  2  0
  9 10  1  0
 10 11  1  0
 10 12  1  0
 10 13  1  0
 13 14  1  0
 13 15  1  0
 13 16  1  0
 16 17  1  0
 17 18  1  0
 17 19  1  0
 17 20  1  0
 20 21  1  0
 20 22  1  0
 20 23  1  0
 23 24  1  0
 24 25  1  0
 24 26  1  0
 24 27  1  0
 27 28  1  0
 27 29  1  0
  9 30  1  0
 30 31  1  0
 30 32  2  0
 32 33  1  0
 32 34  1  0
 34 35  2  0
  6 36  1  0
 36 37  1  0
 36 38  2  0
 38 39  1  0
 38  2  1  0
 34  7  1  0
 27 16  1  0
M  END
>  <cnnaffinity>  (1) 
-5.04862

>  <filename>  (1) 
O=c1ccc(CCN2CCOCC2)nn1-c1cccnc1

$$$$
