
     RDKit          3D

 33 36  0  0  0  0  0  0  0  0999 V2000
    4.9230    1.7961   16.9920 H   0  0  0  0  0  0  0  0  0  0  0  0
    5.3920    1.2920   17.8313 C   0  0  0  0  0  0  0  0  0  0  0  0
    6.5476    0.6667   17.5591 N   0  0  0  0  0  0  0  0  0  0  0  0
    7.1711    0.0557   18.5704 C   0  0  0  0  0  0  0  0  0  0  0  0
    8.1280   -0.4165   18.3582 H   0  0  0  0  0  0  0  0  0  0  0  0
    6.6663    0.0144   19.8864 C   0  0  0  0  0  0  0  0  0  0  0  0
    7.3645   -0.6556   20.9216 N   0  0  0  0  0  0  0  0  0  0  0  0
    6.7566   -1.3987   21.9206 C   0  0  0  0  0  0  0  0  0  0  0  0
    5.6941   -1.5723   21.9390 H   0  0  0  0  0  0  0  0  0  0  0  0
    7.7063   -1.8889   22.7457 C   0  0  0  0  0  0  0  0  0  0  0  0
    7.5428   -2.6713   23.9383 C   0  0  0  0  0  0  0  0  0  0  0  0
    6.4281   -2.6710   24.7412 C   0  0  0  0  0  0  0  0  0  0  0  0
    5.5157   -2.0902   24.6340 H   0  0  0  0  0  0  0  0  0  0  0  0
    6.6096   -3.5310   25.7920 N   0  0  0  0  0  0  0  0  0  0  0  0
    5.9501   -3.7220   26.5260 H   0  0  0  0  0  0  0  0  0  0  0  0
    7.8450   -4.1303   25.6856 C   0  0  0  0  0  0  0  0  0  0  0  0
    8.4629   -5.0902   26.5108 C   0  0  0  0  0  0  0  0  0  0  0  0
    7.9680   -5.4674   27.4057 H   0  0  0  0  0  0  0  0  0  0  0  0
    9.7238   -5.5408   26.1313 C   0  0  0  0  0  0  0  0  0  0  0  0
   10.2440   -6.2787   26.7280 H   0  0  0  0  0  0  0  0  0  0  0  0
   10.3611   -5.0619   24.9624 C   0  0  0  0  0  0  0  0  0  0  0  0
   11.3436   -5.4443   24.6963 H   0  0  0  0  0  0  0  0  0  0  0  0
    9.7421   -4.1151   24.1550 C   0  0  0  0  0  0  0  0  0  0  0  0
   10.2251   -3.7732   23.2428 H   0  0  0  0  0  0  0  0  0  0  0  0
    8.4693   -3.6230   24.5221 C   0  0  0  0  0  0  0  0  0  0  0  0
    8.9253   -1.4785   22.2133 N   0  0  0  0  0  0  0  0  0  0  0  0
    9.8440   -1.5105   22.6110 H   0  0  0  0  0  0  0  0  0  0  0  0
    8.7578   -0.6708   21.1238 C   0  0  0  0  0  0  0  0  0  0  0  0
    9.6477   -0.1159   20.5154 O   0  0  0  0  0  0  0  0  0  0  0  0
    5.4470    0.6475   20.1549 C   0  0  0  0  0  0  0  0  0  0  0  0
    5.0382    0.6399   21.1670 H   0  0  0  0  0  0  0  0  0  0  0  0
    4.8091    1.3076   19.1031 C   0  0  0  0  0  0  0  0  0  0  0  0
    3.8796    1.8383   19.2584 H   0  0  0  0  0  0  0  0  0  0  0  0
  1  2  1  0
  2  3  2  0
  3  4  1  0
  4  5  1  0
  4  6  2  0
  6  7  1  0
  7  8  1  0
  8  9  1  0
  8 10  2  0
 10 11  1  0
 11 12  2  0
 12 13  1  0
 12 14  1  0
 14 15  1  0
 14 16  1  0
 16 17  2  0
 17 18  1  0
 17 19  1  0
 19 20  1  0
 19 21  2  0
 21 22  1  0
 21 23  1  0
 23 24  1  0
 23 25  2  0
 10 26  1  0
 26 27  1  0
 26 28  1  0
 28 29  2  0
  6 30  1  0
 30 31  1  0
 30 32  2  0
 32 33  1  0
 32  2  1  0
 28  7  1  0
 25 11  1  0
 25 16  1  0
M  END
>  <cnnaffinity>  (1) 
-5.48881

>  <filename>  (1) 
O=c1[nH]c(-c2c[nH]c3ccccc23)cn1-c1cccnc1

$$$$
