
     RDKit          3D

 31 33  0  0  0  0  0  0  0  0999 V2000
    8.4844   -4.6784   23.0026 H   0  0  0  0  0  0  0  0  0  0  0  0
    8.2656   -5.2014   23.7793 O   0  0  0  0  0  0  0  0  0  0  0  0
    7.3760   -4.5067   24.5375 C   0  0  0  0  0  0  0  0  0  0  0  0
    6.8566   -5.2177   25.6258 C   0  0  0  0  0  0  0  0  0  0  0  0
    7.2209   -6.2260   25.7795 H   0  0  0  0  0  0  0  0  0  0  0  0
    5.9199   -4.6285   26.4645 C   0  0  0  0  0  0  0  0  0  0  0  0
    5.5277   -5.1953   27.3026 H   0  0  0  0  0  0  0  0  0  0  0  0
    5.4838   -3.3201   26.2328 C   0  0  0  0  0  0  0  0  0  0  0  0
    4.7431   -2.8709   26.8867 H   0  0  0  0  0  0  0  0  0  0  0  0
    6.0061   -2.6065   25.1557 C   0  0  0  0  0  0  0  0  0  0  0  0
    5.6775   -1.5849   24.9771 H   0  0  0  0  0  0  0  0  0  0  0  0
    6.9656   -3.1726   24.2901 C   0  0  0  0  0  0  0  0  0  0  0  0
    7.5604   -2.3405   23.2024 C   0  0  0  0  0  0  0  0  0  0  0  0
    6.4054   -1.6546   22.0843 S   0  0  0  0  0  0  0  0  0  0  0  0
    7.4085   -0.7248   20.9889 C   0  0  0  0  0  0  0  0  0  0  0  0
    6.6598   -0.0007   19.9190 C   0  0  0  0  0  0  0  0  0  0  0  0
    7.1767    0.0618   18.6113 C   0  0  0  0  0  0  0  0  0  0  0  0
    8.1159   -0.4279   18.3602 H   0  0  0  0  0  0  0  0  0  0  0  0
    6.5668    0.6727   17.5882 N   0  0  0  0  0  0  0  0  0  0  0  0
    5.4044    1.2898   17.8418 C   0  0  0  0  0  0  0  0  0  0  0  0
    4.9258    1.7798   16.9953 H   0  0  0  0  0  0  0  0  0  0  0  0
    4.8092    1.3108   19.1068 C   0  0  0  0  0  0  0  0  0  0  0  0
    3.8790    1.8418   19.2555 H   0  0  0  0  0  0  0  0  0  0  0  0
    5.4381    0.6505   20.1621 C   0  0  0  0  0  0  0  0  0  0  0  0
    5.0083    0.6394   21.1645 H   0  0  0  0  0  0  0  0  0  0  0  0
    8.7453   -0.6553   21.0851 C   0  0  0  0  0  0  0  0  0  0  0  0
    9.3231   -0.0562   20.3905 H   0  0  0  0  0  0  0  0  0  0  0  0
    9.5686   -1.3005   22.1084 C   0  0  0  0  0  0  0  0  0  0  0  0
   10.7849   -1.1774   22.1224 O   0  0  0  0  0  0  0  0  0  0  0  0
    8.8878   -2.1230   23.1157 C   0  0  0  0  0  0  0  0  0  0  0  0
    9.5594   -2.5583   23.8439 H   0  0  0  0  0  0  0  0  0  0  0  0
  1  2  1  0
  2  3  1  0
  3  4  2  0
  4  5  1  0
  4  6  1  0
  6  7  1  0
  6  8  2  0
  8  9  1  0
  8 10  1  0
 10 11  1  0
 10 12  2  0
 12 13  1  0
 13 14  1  0
 14 15  1  0
 15 16  1  0
 16 17  2  0
 17 18  1  0
 17 19  1  0
 19 20  2  0
 20 21  1  0
 20 22  1  0
 22 23  1  0
 22 24  2  0
 24 25  1  0
 15 26  2  0
 26 27  1  0
 26 28  1  0
 28 29  2  0
 28 30  1  0
 30 31  1  0
 12  3  1  0
 30 13  2  0
 24 16  1  0
M  END
>  <cnnaffinity>  (1) 
-5.24343

>  <filename>  (1) 
O=c1cc(-c2cccnc2)sc(-c2ccccc2O)c1

$$$$
