
     RDKit          3D

 35 38  0  0  0  0  0  0  0  0999 V2000
    4.9151    1.7913   16.9839 H   0  0  0  0  0  0  0  0  0  0  0  0
    5.3918    1.3006   17.8262 C   0  0  0  0  0  0  0  0  0  0  0  0
    6.5542    0.6837   17.5637 N   0  0  0  0  0  0  0  0  0  0  0  0
    7.1636    0.0733   18.5856 C   0  0  0  0  0  0  0  0  0  0  0  0
    8.1082   -0.4224   18.3628 H   0  0  0  0  0  0  0  0  0  0  0  0
    6.6483    0.0150   19.8940 C   0  0  0  0  0  0  0  0  0  0  0  0
    7.3693   -0.7039   20.9670 C   0  0  0  0  0  0  0  0  0  0  0  0
    8.7820   -0.5558   21.1261 C   0  0  0  0  0  0  0  0  0  0  0  0
    9.3106    0.1128   20.4457 H   0  0  0  0  0  0  0  0  0  0  0  0
    9.4333   -1.2063   22.1253 C   0  0  0  0  0  0  0  0  0  0  0  0
   10.4960   -1.1339   22.2918 H   0  0  0  0  0  0  0  0  0  0  0  0
    8.7488   -2.0881   23.0618 C   0  0  0  0  0  0  0  0  0  0  0  0
    9.3285   -2.6890   23.9482 O   0  0  0  0  0  0  0  0  0  0  0  0
    7.3374   -2.2051   22.8492 N   0  0  0  0  0  0  0  0  0  0  0  0
    6.5696   -3.0252   23.7463 C   0  0  0  0  0  0  0  0  0  0  0  0
    5.7807   -4.0776   23.2051 C   0  0  0  0  0  0  0  0  0  0  0  0
    5.7907   -4.2342   22.1277 H   0  0  0  0  0  0  0  0  0  0  0  0
    5.0440   -4.9081   24.0401 C   0  0  0  0  0  0  0  0  0  0  0  0
    4.4354   -5.7177   23.6466 H   0  0  0  0  0  0  0  0  0  0  0  0
    5.0712   -4.6786   25.4301 C   0  0  0  0  0  0  0  0  0  0  0  0
    4.4473   -5.3050   26.5622 C   0  0  0  0  0  0  0  0  0  0  0  0
    3.7768   -6.1499   26.5132 H   0  0  0  0  0  0  0  0  0  0  0  0
    4.8600   -4.6384   27.6788 C   0  0  0  0  0  0  0  0  0  0  0  0
    4.6152   -4.8024   28.7226 H   0  0  0  0  0  0  0  0  0  0  0  0
    5.7171   -3.6186   27.3038 N   0  0  0  0  0  0  0  0  0  0  0  0
    6.1756   -2.9624   27.9100 H   0  0  0  0  0  0  0  0  0  0  0  0
    5.8577   -3.6158   25.9407 C   0  0  0  0  0  0  0  0  0  0  0  0
    6.6184   -2.7751   25.1138 C   0  0  0  0  0  0  0  0  0  0  0  0
    7.2437   -1.9762   25.5021 H   0  0  0  0  0  0  0  0  0  0  0  0
    6.7033   -1.5213   21.8361 C   0  0  0  0  0  0  0  0  0  0  0  0
    5.6300   -1.6813   21.7575 H   0  0  0  0  0  0  0  0  0  0  0  0
    5.4248    0.6535   20.1441 C   0  0  0  0  0  0  0  0  0  0  0  0
    5.0089    0.6427   21.1541 H   0  0  0  0  0  0  0  0  0  0  0  0
    4.7981    1.3202   19.0928 C   0  0  0  0  0  0  0  0  0  0  0  0
    3.8688    1.8490   19.2472 H   0  0  0  0  0  0  0  0  0  0  0  0
  1  2  1  0
  2  3  2  0
  3  4  1  0
  4  5  1  0
  4  6  2  0
  6  7  1  0
  7  8  1  0
  8  9  1  0
  8 10  2  0
 10 11  1  0
 10 12  1  0
 12 13  2  0
 12 14  1  0
 14 15  1  0
 15 16  2  0
 16 17  1  0
 16 18  1  0
 18 19  1  0
 18 20  2  0
 20 21  1  0
 21 22  1  0
 21 23  2  0
 23 24  1  0
 23 25  1  0
 25 26  1  0
 25 27  1  0
 27 28  2  0
 28 29  1  0
 14 30  1  0
 30 31  1  0
  6 32  1  0
 32 33  1  0
 32 34  2  0
 34 35  1  0
 34  2  1  0
 30  7  2  0
 28 15  1  0
 27 20  1  0
M  END
>  <cnnaffinity>  (1) 
-5.85429

>  <filename>  (1) 
O=c1ccc(-c2cccnc2)cn1-c1ccc2cc[nH]c2c1

$$$$
