
     RDKit          3D

 35 38  0  0  0  0  0  0  0  0999 V2000
    4.8910    1.7834   16.9346 H   0  0  0  0  0  0  0  0  0  0  0  0
    5.3563    1.3526   17.8185 C   0  0  0  0  0  0  0  0  0  0  0  0
    6.5442    0.7598   17.6281 N   0  0  0  0  0  0  0  0  0  0  0  0
    7.1244    0.2101   18.6960 C   0  0  0  0  0  0  0  0  0  0  0  0
    8.0858   -0.2641   18.5135 H   0  0  0  0  0  0  0  0  0  0  0  0
    6.5866    0.2249   19.9930 C   0  0  0  0  0  0  0  0  0  0  0  0
    7.3443   -0.4729   21.0507 C   0  0  0  0  0  0  0  0  0  0  0  0
    7.0721   -0.0566   22.3253 O   0  0  0  0  0  0  0  0  0  0  0  0
    7.7378   -0.6317   23.3945 C   0  0  0  0  0  0  0  0  0  0  0  0
    7.5194    0.0762   24.7080 C   0  0  0  0  0  0  0  0  0  0  0  0
    8.2265   -0.3553   25.7391 N   0  0  0  0  0  0  0  0  0  0  0  0
    8.0295    0.2414   26.9540 C   0  0  0  0  0  0  0  0  0  0  0  0
    8.8659   -0.1537   28.0370 C   0  0  0  0  0  0  0  0  0  0  0  0
    9.6485   -0.8729   27.8167 H   0  0  0  0  0  0  0  0  0  0  0  0
    8.7242    0.4488   29.2695 C   0  0  0  0  0  0  0  0  0  0  0  0
    9.4335    0.2468   30.0618 H   0  0  0  0  0  0  0  0  0  0  0  0
    7.7256    1.4343   29.4950 C   0  0  0  0  0  0  0  0  0  0  0  0
    7.6540    1.8933   30.4768 H   0  0  0  0  0  0  0  0  0  0  0  0
    6.8904    1.8282   28.4766 C   0  0  0  0  0  0  0  0  0  0  0  0
    6.1262    2.5863   28.6499 H   0  0  0  0  0  0  0  0  0  0  0  0
    7.0575    1.2761   27.1693 C   0  0  0  0  0  0  0  0  0  0  0  0
    6.3465    1.7407   26.0239 C   0  0  0  0  0  0  0  0  0  0  0  0
    5.6524    2.5767   26.1274 H   0  0  0  0  0  0  0  0  0  0  0  0
    6.5652    1.1458   24.8070 C   0  0  0  0  0  0  0  0  0  0  0  0
    6.0546    1.4902   23.9150 H   0  0  0  0  0  0  0  0  0  0  0  0
    8.4441   -1.7743   23.2338 C   0  0  0  0  0  0  0  0  0  0  0  0
    8.9205   -2.2825   24.0616 H   0  0  0  0  0  0  0  0  0  0  0  0
    8.5916   -2.3649   21.9044 C   0  0  0  0  0  0  0  0  0  0  0  0
    8.9962   -3.4975   21.7137 O   0  0  0  0  0  0  0  0  0  0  0  0
    8.1815   -1.4973   20.8169 C   0  0  0  0  0  0  0  0  0  0  0  0
    8.5364   -1.7734   19.8422 H   0  0  0  0  0  0  0  0  0  0  0  0
    5.3396    0.8480   20.1770 C   0  0  0  0  0  0  0  0  0  0  0  0
    4.8710    0.8817   21.1612 H   0  0  0  0  0  0  0  0  0  0  0  0
    4.7190    1.4121   19.0634 C   0  0  0  0  0  0  0  0  0  0  0  0
    3.7558    1.9008   19.1418 H   0  0  0  0  0  0  0  0  0  0  0  0
  1  2  1  0
  2  3  2  0
  3  4  1  0
  4  5  1  0
  4  6  2  0
  6  7  1  0
  7  8  1  0
  8  9  1  0
  9 10  1  0
 10 11  2  0
 11 12  1  0
 12 13  2  0
 13 14  1  0
 13 15  1  0
 15 16  1  0
 15 17  2  0
 17 18  1  0
 17 19  1  0
 19 20  1  0
 19 21  2  0
 21 22  1  0
 22 23  1  0
 22 24  2  0
 24 25  1  0
  9 26  2  0
 26 27  1  0
 26 28  1  0
 28 29  2  0
 28 30  1  0
 30 31  1  0
  6 32  1  0
 32 33  1  0
 32 34  2  0
 34 35  1  0
 34  2  1  0
 30  7  2  0
 24 10  1  0
 21 12  1  0
M  END
>  <cnnaffinity>  (1) 
-5.45414

>  <filename>  (1) 
O=c1cc(-c2cccnc2)oc(-c2ccc3ccccc3n2)c1

$$$$
