
     RDKit          3D

 33 36  0  0  0  0  0  0  0  0999 V2000
    4.9225    1.7834   16.9961 H   0  0  0  0  0  0  0  0  0  0  0  0
    5.4011    1.2941   17.8429 C   0  0  0  0  0  0  0  0  0  0  0  0
    6.5589    0.6678   17.5823 N   0  0  0  0  0  0  0  0  0  0  0  0
    7.1659    0.0451   18.5976 C   0  0  0  0  0  0  0  0  0  0  0  0
    8.1208   -0.4215   18.3793 H   0  0  0  0  0  0  0  0  0  0  0  0
    6.6404   -0.0175   19.8996 C   0  0  0  0  0  0  0  0  0  0  0  0
    7.3392   -0.7119   20.9437 N   0  0  0  0  0  0  0  0  0  0  0  0
    6.5824   -1.6060   21.6529 N   0  0  0  0  0  0  0  0  0  0  0  0
    7.1443   -2.2877   22.6284 C   0  0  0  0  0  0  0  0  0  0  0  0
    6.2903   -3.2690   23.3745 C   0  0  0  0  0  0  0  0  0  0  0  0
    5.1608   -3.8591   22.7083 C   0  0  0  0  0  0  0  0  0  0  0  0
    4.9665   -3.5590   21.6811 H   0  0  0  0  0  0  0  0  0  0  0  0
    4.3354   -4.7708   23.3410 C   0  0  0  0  0  0  0  0  0  0  0  0
    3.4710   -5.2112   22.8474 H   0  0  0  0  0  0  0  0  0  0  0  0
    4.6511   -5.0965   24.6777 C   0  0  0  0  0  0  0  0  0  0  0  0
    5.7541   -4.5373   25.3562 C   0  0  0  0  0  0  0  0  0  0  0  0
    5.7038   -5.1219   26.6541 C   0  0  0  0  0  0  0  0  0  0  0  0
    6.3825   -4.9454   27.4769 H   0  0  0  0  0  0  0  0  0  0  0  0
    4.6851   -5.9459   26.7731 N   0  0  0  0  0  0  0  0  0  0  0  0
    4.0593   -5.9230   25.5755 N   0  0  0  0  0  0  0  0  0  0  0  0
    3.2353   -6.4766   25.4191 H   0  0  0  0  0  0  0  0  0  0  0  0
    6.5816   -3.6113   24.6931 C   0  0  0  0  0  0  0  0  0  0  0  0
    7.4186   -3.1708   25.2316 H   0  0  0  0  0  0  0  0  0  0  0  0
    8.5408   -2.1094   22.9550 C   0  0  0  0  0  0  0  0  0  0  0  0
    8.9785   -2.7214   23.7405 H   0  0  0  0  0  0  0  0  0  0  0  0
    9.2905   -1.2058   22.2741 C   0  0  0  0  0  0  0  0  0  0  0  0
   10.3399   -1.0053   22.4704 H   0  0  0  0  0  0  0  0  0  0  0  0
    8.7243   -0.3979   21.2004 C   0  0  0  0  0  0  0  0  0  0  0  0
    9.3335    0.4416   20.5608 O   0  0  0  0  0  0  0  0  0  0  0  0
    5.4328    0.6350   20.1675 C   0  0  0  0  0  0  0  0  0  0  0  0
    5.0208    0.5978   21.1774 H   0  0  0  0  0  0  0  0  0  0  0  0
    4.8104    1.3143   19.1134 C   0  0  0  0  0  0  0  0  0  0  0  0
    3.8769    1.8460   19.2603 H   0  0  0  0  0  0  0  0  0  0  0  0
  1  2  1  0
  2  3  2  0
  3  4  1  0
  4  5  1  0
  4  6  2  0
  6  7  1  0
  7  8  1  0
  8  9  2  0
  9 10  1  0
 10 11  2  0
 11 12  1  0
 11 13  1  0
 13 14  1  0
 13 15  2  0
 15 16  1  0
 16 17  1  0
 17 18  1  0
 17 19  2  0
 19 20  1  0
 20 21  1  0
 16 22  2  0
 22 23  1  0
  9 24  1  0
 24 25  1  0
 24 26  2  0
 26 27  1  0
 26 28  1  0
 28 29  2  0
  6 30  1  0
 30 31  1  0
 30 32  2  0
 32 33  1  0
 32  2  1  0
 28  7  1  0
 22 10  1  0
 20 15  1  0
M  END
>  <cnnaffinity>  (1) 
-5.47486

>  <filename>  (1) 
O=c1ccc(-c2ccc3[nH]ncc3c2)nn1-c1cccnc1

$$$$
