
     RDKit          3D

 35 38  0  0  0  0  0  0  0  0999 V2000
    4.8722    1.9033   16.9021 H   0  0  0  0  0  0  0  0  0  0  0  0
    5.3623    1.3797   17.7209 C   0  0  0  0  0  0  0  0  0  0  0  0
    6.5214    0.7676   17.4253 N   0  0  0  0  0  0  0  0  0  0  0  0
    7.1493    0.1221   18.4177 C   0  0  0  0  0  0  0  0  0  0  0  0
    8.0949   -0.3516   18.1711 H   0  0  0  0  0  0  0  0  0  0  0  0
    6.6498    0.0351   19.7354 C   0  0  0  0  0  0  0  0  0  0  0  0
    7.3279   -0.6923   20.7963 N   0  0  0  0  0  0  0  0  0  0  0  0
    6.6816   -1.8075   21.4000 C   0  0  0  0  0  0  0  0  0  0  0  0
    5.6137   -2.2154   20.9865 O   0  0  0  0  0  0  0  0  0  0  0  0
    7.3751   -2.4442   22.4840 C   0  0  0  0  0  0  0  0  0  0  0  0
    6.8860   -3.3147   22.8760 H   0  0  0  0  0  0  0  0  0  0  0  0
    8.5820   -2.0413   22.9185 C   0  0  0  0  0  0  0  0  0  0  0  0
    9.3500   -2.7721   23.9190 C   0  0  0  0  0  0  0  0  0  0  0  0
   10.6537   -3.1941   23.8152 C   0  0  0  0  0  0  0  0  0  0  0  0
   11.3541   -3.0569   22.9980 H   0  0  0  0  0  0  0  0  0  0  0  0
   10.9945   -3.9415   24.9130 N   0  0  0  0  0  0  0  0  0  0  0  0
   11.8957   -4.3571   25.0874 H   0  0  0  0  0  0  0  0  0  0  0  0
    9.9123   -4.0439   25.7567 C   0  0  0  0  0  0  0  0  0  0  0  0
    9.7752   -4.7064   26.9911 C   0  0  0  0  0  0  0  0  0  0  0  0
   10.6205   -5.1997   27.4638 H   0  0  0  0  0  0  0  0  0  0  0  0
    8.5216   -4.7098   27.5932 C   0  0  0  0  0  0  0  0  0  0  0  0
    8.3668   -5.2573   28.5227 H   0  0  0  0  0  0  0  0  0  0  0  0
    7.4309   -4.0267   27.0002 C   0  0  0  0  0  0  0  0  0  0  0  0
    6.4602   -4.0454   27.4879 H   0  0  0  0  0  0  0  0  0  0  0  0
    7.5860   -3.3276   25.8086 C   0  0  0  0  0  0  0  0  0  0  0  0
    6.7548   -2.7678   25.3846 H   0  0  0  0  0  0  0  0  0  0  0  0
    8.8419   -3.3384   25.1597 C   0  0  0  0  0  0  0  0  0  0  0  0
    9.1251   -0.9418   22.2876 N   0  0  0  0  0  0  0  0  0  0  0  0
    9.9434   -0.4647   22.6062 H   0  0  0  0  0  0  0  0  0  0  0  0
    8.5457   -0.2185   21.2777 C   0  0  0  0  0  0  0  0  0  0  0  0
    9.1160    0.7635   20.8519 O   0  0  0  0  0  0  0  0  0  0  0  0
    5.4428    0.6727   20.0225 C   0  0  0  0  0  0  0  0  0  0  0  0
    5.0330    0.6220   21.0305 H   0  0  0  0  0  0  0  0  0  0  0  0
    4.7883    1.3648   18.9963 C   0  0  0  0  0  0  0  0  0  0  0  0
    3.8535    1.8858   19.1769 H   0  0  0  0  0  0  0  0  0  0  0  0
  1  2  1  0
  2  3  2  0
  3  4  1  0
  4  5  1  0
  4  6  2  0
  6  7  1  0
  7  8  1  0
  8  9  2  0
  8 10  1  0
 10 11  1  0
 10 12  2  0
 12 13  1  0
 13 14  2  0
 14 15  1  0
 14 16  1  0
 16 17  1  0
 16 18  1  0
 18 19  2  0
 19 20  1  0
 19 21  1  0
 21 22  1  0
 21 23  2  0
 23 24  1  0
 23 25  1  0
 25 26  1  0
 25 27  2  0
 12 28  1  0
 28 29  1  0
 28 30  1  0
 30 31  2  0
  6 32  1  0
 32 33  1  0
 32 34  2  0
 34 35  1  0
 34  2  1  0
 30  7  1  0
 27 13  1  0
 27 18  1  0
M  END
>  <cnnaffinity>  (1) 
-5.6144

>  <filename>  (1) 
O=c1cc(-c2c[nH]c3ccccc23)[nH]c(=O)n1-c1cccnc1

$$$$
