
     RDKit          3D

 34 37  0  0  0  0  0  0  0  0999 V2000
    4.9091    1.7778   16.9999 H   0  0  0  0  0  0  0  0  0  0  0  0
    5.3977    1.2935   17.8424 C   0  0  0  0  0  0  0  0  0  0  0  0
    6.5617    0.6761   17.5807 N   0  0  0  0  0  0  0  0  0  0  0  0
    7.1789    0.0570   18.5938 C   0  0  0  0  0  0  0  0  0  0  0  0
    8.1283   -0.4284   18.3797 H   0  0  0  0  0  0  0  0  0  0  0  0
    6.6658    0.0005   19.9090 C   0  0  0  0  0  0  0  0  0  0  0  0
    7.3582   -0.6853   20.9517 N   0  0  0  0  0  0  0  0  0  0  0  0
    6.7727   -1.4548   21.9498 C   0  0  0  0  0  0  0  0  0  0  0  0
    5.7003   -1.5873   21.9784 H   0  0  0  0  0  0  0  0  0  0  0  0
    7.7505   -1.9426   22.7550 C   0  0  0  0  0  0  0  0  0  0  0  0
    7.6670   -2.8031   23.9555 C   0  0  0  0  0  0  0  0  0  0  0  0
    8.7924   -3.1512   24.5658 N   0  0  0  0  0  0  0  0  0  0  0  0
    8.6968   -3.9460   25.6708 C   0  0  0  0  0  0  0  0  0  0  0  0
    9.8932   -4.3351   26.3485 C   0  0  0  0  0  0  0  0  0  0  0  0
   10.8352   -3.9867   25.9445 H   0  0  0  0  0  0  0  0  0  0  0  0
    9.8310   -5.1324   27.4691 C   0  0  0  0  0  0  0  0  0  0  0  0
   10.7415   -5.4282   27.9853 H   0  0  0  0  0  0  0  0  0  0  0  0
    8.5756   -5.5911   27.9650 C   0  0  0  0  0  0  0  0  0  0  0  0
    8.5470   -6.2285   28.8434 H   0  0  0  0  0  0  0  0  0  0  0  0
    7.4062   -5.2370   27.3359 C   0  0  0  0  0  0  0  0  0  0  0  0
    6.4400   -5.5777   27.7016 H   0  0  0  0  0  0  0  0  0  0  0  0
    7.4413   -4.4093   26.1799 C   0  0  0  0  0  0  0  0  0  0  0  0
    6.2597   -4.0145   25.4928 C   0  0  0  0  0  0  0  0  0  0  0  0
    5.2914   -4.3504   25.8565 H   0  0  0  0  0  0  0  0  0  0  0  0
    6.3655   -3.2175   24.3878 C   0  0  0  0  0  0  0  0  0  0  0  0
    5.4787   -2.8986   23.8487 H   0  0  0  0  0  0  0  0  0  0  0  0
    8.9492   -1.4590   22.2272 N   0  0  0  0  0  0  0  0  0  0  0  0
    9.8723   -1.6201   22.5885 H   0  0  0  0  0  0  0  0  0  0  0  0
    8.7570   -0.6710   21.1288 C   0  0  0  0  0  0  0  0  0  0  0  0
    9.5996   -0.1004   20.4696 O   0  0  0  0  0  0  0  0  0  0  0  0
    5.4470    0.6444   20.1625 C   0  0  0  0  0  0  0  0  0  0  0  0
    5.0170    0.6302   21.1652 H   0  0  0  0  0  0  0  0  0  0  0  0
    4.8087    1.3107   19.1112 C   0  0  0  0  0  0  0  0  0  0  0  0
    3.8747    1.8432   19.2659 H   0  0  0  0  0  0  0  0  0  0  0  0
  1  2  1  0
  2  3  2  0
  3  4  1  0
  4  5  1  0
  4  6  2  0
  6  7  1  0
  7  8  1  0
  8  9  1  0
  8 10  2  0
 10 11  1  0
 11 12  2  0
 12 13  1  0
 13 14  2  0
 14 15  1  0
 14 16  1  0
 16 17  1  0
 16 18  2  0
 18 19  1  0
 18 20  1  0
 20 21  1  0
 20 22  2  0
 22 23  1  0
 23 24  1  0
 23 25  2  0
 25 26  1  0
 10 27  1  0
 27 28  1  0
 27 29  1  0
 29 30  2  0
  6 31  1  0
 31 32  1  0
 31 33  2  0
 33 34  1  0
 33  2  1  0
 29  7  1  0
 25 11  1  0
 22 13  1  0
M  END
>  <cnnaffinity>  (1) 
-5.48103

>  <filename>  (1) 
O=c1[nH]c(-c2ccc3ccccc3n2)cn1-c1cccnc1

$$$$
