
     RDKit          3D

 35 37  0  0  0  0  0  0  0  0999 V2000
    4.9829    1.7879   17.0535 H   0  0  0  0  0  0  0  0  0  0  0  0
    5.4495    1.2671   17.8851 C   0  0  0  0  0  0  0  0  0  0  0  0
    6.6085    0.6339   17.6282 N   0  0  0  0  0  0  0  0  0  0  0  0
    7.1979   -0.0171   18.6393 C   0  0  0  0  0  0  0  0  0  0  0  0
    8.1441   -0.5060   18.4003 H   0  0  0  0  0  0  0  0  0  0  0  0
    6.6690   -0.0929   19.9537 C   0  0  0  0  0  0  0  0  0  0  0  0
    7.3171   -0.8286   20.9654 N   0  0  0  0  0  0  0  0  0  0  0  0
    7.1387   -0.9929   22.3395 C   0  0  0  0  0  0  0  0  0  0  0  0
    6.3660   -0.5157   23.1207 O   0  0  0  0  0  0  0  0  0  0  0  0
    8.3975   -1.8726   22.4257 C   0  0  0  0  0  0  0  0  0  0  0  0
    8.2359   -2.9513   22.4831 H   0  0  0  0  0  0  0  0  0  0  0  0
    9.0973   -1.5659   23.2002 H   0  0  0  0  0  0  0  0  0  0  0  0
    8.7021   -1.3271   21.0223 C   0  0  2  0  0  0  0  0  0  0  0  0
    8.9030   -2.0799   20.2572 H   0  0  0  0  0  0  0  0  0  0  0  0
    9.8009   -0.2494   20.9541 C   0  0  0  0  0  0  0  0  0  0  0  0
    9.8270    0.0396   19.9061 H   0  0  0  0  0  0  0  0  0  0  0  0
   10.7615   -0.7323   21.1729 H   0  0  0  0  0  0  0  0  0  0  0  0
    9.6122    0.9990   21.7954 C   0  0  0  0  0  0  0  0  0  0  0  0
    8.9112    2.0917   21.2589 C   0  0  0  0  0  0  0  0  0  0  0  0
    8.4918    2.0198   20.2604 H   0  0  0  0  0  0  0  0  0  0  0  0
    8.7130    3.2591   21.9923 C   0  0  0  0  0  0  0  0  0  0  0  0
    8.1755    4.0892   21.5402 H   0  0  0  0  0  0  0  0  0  0  0  0
    9.1950    3.3559   23.3059 C   0  0  0  0  0  0  0  0  0  0  0  0
    8.9849    4.6346   24.0926 C   0  0  0  0  0  0  0  0  0  0  0  0
   10.0036    5.5016   23.9182 F   0  0  0  0  0  0  0  0  0  0  0  0
    8.8920    4.4091   25.4194 F   0  0  0  0  0  0  0  0  0  0  0  0
    7.8588    5.2786   23.7235 F   0  0  0  0  0  0  0  0  0  0  0  0
    9.8897    2.2688   23.8617 C   0  0  0  0  0  0  0  0  0  0  0  0
   10.2316    2.2955   24.8935 H   0  0  0  0  0  0  0  0  0  0  0  0
   10.1030    1.1134   23.1051 C   0  0  0  0  0  0  0  0  0  0  0  0
   10.6621    0.2923   23.5505 H   0  0  0  0  0  0  0  0  0  0  0  0
    5.4643    0.5898   20.2062 C   0  0  0  0  0  0  0  0  0  0  0  0
    5.0401    0.5944   21.2077 H   0  0  0  0  0  0  0  0  0  0  0  0
    4.8506    1.2709   19.1482 C   0  0  0  0  0  0  0  0  0  0  0  0
    3.9200    1.8124   19.2968 H   0  0  0  0  0  0  0  0  0  0  0  0
  1  2  1  0
  2  3  2  0
  3  4  1  0
  4  5  1  0
  4  6  2  0
  6  7  1  0
  7  8  1  0
  8  9  2  0
  8 10  1  0
 10 11  1  0
 10 12  1  0
 10 13  1  0
 13 14  1  6
 13 15  1  0
 15 16  1  0
 15 17  1  0
 15 18  1  0
 18 19  2  0
 19 20  1  0
 19 21  1  0
 21 22  1  0
 21 23  2  0
 23 24  1  0
 24 25  1  0
 24 26  1  0
 24 27  1  0
 23 28  1  0
 28 29  1  0
 28 30  2  0
 30 31  1  0
  6 32  1  0
 32 33  1  0
 32 34  2  0
 34 35  1  0
 34  2  1  0
 13  7  1  0
 30 18  1  0
M  END
>  <cnnaffinity>  (1) 
-4.97109

>  <filename>  (1) 
O=C1C[C@H](Cc2ccc(C(F)(F)F)cc2)N1c1cccnc1

$$$$
