
     RDKit          3D

 24 25  0  0  0  0  0  0  0  0999 V2000
    4.9060    1.7743   17.0024 H   0  0  0  0  0  0  0  0  0  0  0  0
    5.3985    1.2937   17.8415 C   0  0  0  0  0  0  0  0  0  0  0  0
    6.5650    0.6836   17.5734 N   0  0  0  0  0  0  0  0  0  0  0  0
    7.1848    0.0708   18.5871 C   0  0  0  0  0  0  0  0  0  0  0  0
    8.1280   -0.4371   18.3811 H   0  0  0  0  0  0  0  0  0  0  0  0
    6.6706    0.0279   19.8938 C   0  0  0  0  0  0  0  0  0  0  0  0
    7.3743   -0.6583   20.9381 N   0  0  0  0  0  0  0  0  0  0  0  0
    8.6459   -0.2559   21.2759 C   0  0  0  0  0  0  0  0  0  0  0  0
    9.0549    0.5793   20.7035 H   0  0  0  0  0  0  0  0  0  0  0  0
    9.3324   -0.8740   22.2765 C   0  0  0  0  0  0  0  0  0  0  0  0
   10.7277   -0.4512   22.6011 C   0  0  0  0  0  0  0  0  0  0  0  0
   11.0563   -0.7200   23.8745 F   0  0  0  0  0  0  0  0  0  0  0  0
   10.9181    0.8704   22.4246 F   0  0  0  0  0  0  0  0  0  0  0  0
   11.6231   -1.0831   21.8193 F   0  0  0  0  0  0  0  0  0  0  0  0
    8.7477   -1.9811   22.9557 C   0  0  0  0  0  0  0  0  0  0  0  0
    9.2964   -2.5026   23.7390 H   0  0  0  0  0  0  0  0  0  0  0  0
    7.5014   -2.3886   22.6274 C   0  0  0  0  0  0  0  0  0  0  0  0
    7.0031   -3.2147   23.1081 H   0  0  0  0  0  0  0  0  0  0  0  0
    6.7170   -1.7552   21.5939 C   0  0  0  0  0  0  0  0  0  0  0  0
    5.5997   -2.1283   21.2666 O   0  0  0  0  0  0  0  0  0  0  0  0
    5.4459    0.6521   20.1596 C   0  0  0  0  0  0  0  0  0  0  0  0
    5.0165    0.6180   21.1596 H   0  0  0  0  0  0  0  0  0  0  0  0
    4.8068    1.3137   19.1099 C   0  0  0  0  0  0  0  0  0  0  0  0
    3.8716    1.8452   19.2666 H   0  0  0  0  0  0  0  0  0  0  0  0
  1  2  1  0
  2  3  2  0
  3  4  1  0
  4  5  1  0
  4  6  2  0
  6  7  1  0
  7  8  1  0
  8  9  1  0
  8 10  2  0
 10 11  1  0
 11 12  1  0
 11 13  1  0
 11 14  1  0
 10 15  1  0
 15 16  1  0
 15 17  2  0
 17 18  1  0
 17 19  1  0
 19 20  2  0
  6 21  1  0
 21 22  1  0
 21 23  2  0
 23 24  1  0
 23  2  1  0
 19  7  1  0
M  END
>  <cnnaffinity>  (1) 
-4.94932

>  <filename>  (1) 
O=c1ccc(C(F)(F)F)cn1-c1cccnc1

$$$$
