
     RDKit          3D

 36 38  0  0  0  0  0  0  0  0999 V2000
    5.0258    1.8255   16.9320 H   0  0  0  0  0  0  0  0  0  0  0  0
    5.4394    1.3482   17.8179 C   0  0  0  0  0  0  0  0  0  0  0  0
    6.5983    0.6904   17.6492 N   0  0  0  0  0  0  0  0  0  0  0  0
    7.1047    0.0500   18.7102 C   0  0  0  0  0  0  0  0  0  0  0  0
    8.0527   -0.4630   18.5620 H   0  0  0  0  0  0  0  0  0  0  0  0
    6.4744    0.0187   19.9688 C   0  0  0  0  0  0  0  0  0  0  0  0
    7.0093   -0.7280   21.0663 N   0  0  0  0  0  0  0  0  0  0  0  0
    7.2107   -0.0100   22.2124 N   0  0  0  0  0  0  0  0  0  0  0  0
    7.8918   -0.5594   23.1783 C   0  0  0  0  0  0  0  0  0  0  0  0
    8.0945    0.2777   24.4243 C   0  0  0  0  0  0  0  0  0  0  0  0
    7.2231    0.9288   24.5521 H   0  0  0  0  0  0  0  0  0  0  0  0
    8.1576   -0.3680   25.3039 H   0  0  0  0  0  0  0  0  0  0  0  0
    9.3541    1.0993   24.2947 C   0  0  0  0  0  0  0  0  0  0  0  0
   10.6030    0.5865   24.6757 C   0  0  0  0  0  0  0  0  0  0  0  0
   10.6660   -0.3361   25.2554 H   0  0  0  0  0  0  0  0  0  0  0  0
   11.7811    1.2382   24.3065 C   0  0  0  0  0  0  0  0  0  0  0  0
   12.7427    0.7997   24.5733 H   0  0  0  0  0  0  0  0  0  0  0  0
   11.7133    2.4199   23.5424 C   0  0  0  0  0  0  0  0  0  0  0  0
   12.9631    3.0759   22.9942 C   0  0  0  0  0  0  0  0  0  0  0  0
   13.3215    4.1376   23.7420 F   0  0  0  0  0  0  0  0  0  0  0  0
   12.7897    3.5461   21.7400 F   0  0  0  0  0  0  0  0  0  0  0  0
   14.0071    2.2267   22.9616 F   0  0  0  0  0  0  0  0  0  0  0  0
   10.4643    2.9902   23.2487 C   0  0  0  0  0  0  0  0  0  0  0  0
   10.4046    3.9244   22.6913 H   0  0  0  0  0  0  0  0  0  0  0  0
    9.2971    2.3270   23.6192 C   0  0  0  0  0  0  0  0  0  0  0  0
    8.3272    2.7494   23.3620 H   0  0  0  0  0  0  0  0  0  0  0  0
    8.4679   -1.8798   23.0409 C   0  0  0  0  0  0  0  0  0  0  0  0
    9.1776   -2.2277   23.7935 H   0  0  0  0  0  0  0  0  0  0  0  0
    8.1036   -2.6575   21.9876 C   0  0  0  0  0  0  0  0  0  0  0  0
    8.4010   -3.6890   21.8508 H   0  0  0  0  0  0  0  0  0  0  0  0
    7.1699   -2.1572   20.9784 C   0  0  0  0  0  0  0  0  0  0  0  0
    6.5932   -2.8287   20.1461 O   0  0  0  0  0  0  0  0  0  0  0  0
    5.3083    0.7637   20.1528 C   0  0  0  0  0  0  0  0  0  0  0  0
    4.8686    0.8225   21.1487 H   0  0  0  0  0  0  0  0  0  0  0  0
    4.7677    1.4217   19.0449 C   0  0  0  0  0  0  0  0  0  0  0  0
    3.8590    2.0096   19.1274 H   0  0  0  0  0  0  0  0  0  0  0  0
  1  2  1  0
  2  3  2  0
  3  4  1  0
  4  5  1  0
  4  6  2  0
  6  7  1  0
  7  8  1  0
  8  9  2  0
  9 10  1  0
 10 11  1  0
 10 12  1  0
 10 13  1  0
 13 14  2  0
 14 15  1  0
 14 16  1  0
 16 17  1  0
 16 18  2  0
 18 19  1  0
 19 20  1  0
 19 21  1  0
 19 22  1  0
 18 23  1  0
 23 24  1  0
 23 25  2  0
 25 26  1  0
  9 27  1  0
 27 28  1  0
 27 29  2  0
 29 30  1  0
 29 31  1  0
 31 32  2  0
  6 33  1  0
 33 34  1  0
 33 35  2  0
 35 36  1  0
 35  2  1  0
 31  7  1  0
 25 13  1  0
M  END
>  <cnnaffinity>  (1) 
-5.66335

>  <filename>  (1) 
O=c1ccc(Cc2ccc(C(F)(F)F)cc2)nn1-c1cccnc1

$$$$
