
     RDKit          3D

 27 29  0  0  0  0  0  0  0  0999 V2000
   12.8874    1.5220   21.4739 H   0  0  0  0  0  0  0  0  0  0  0  0
   12.2506    0.8296   22.0014 C   0  0  0  0  0  0  0  0  0  0  0  0
   12.4198    0.3377   23.1829 N   0  0  0  0  0  0  0  0  0  0  0  0
   11.2756   -0.4205   23.3849 C   0  0  0  0  0  0  0  0  0  0  0  0
   11.0959   -0.9242   24.3275 H   0  0  0  0  0  0  0  0  0  0  0  0
   10.4807   -0.3587   22.2837 C   0  0  0  0  0  0  0  0  0  0  0  0
    9.1552   -0.8698   21.9148 C   0  0  0  0  0  0  0  0  0  0  0  0
    8.4113   -0.3410   20.8060 C   0  0  0  0  0  0  0  0  0  0  0  0
    8.8814    0.4072   20.1712 H   0  0  0  0  0  0  0  0  0  0  0  0
    7.1063   -0.7077   20.5409 C   0  0  0  0  0  0  0  0  0  0  0  0
    6.3113   -0.0112   19.4802 C   0  0  0  0  0  0  0  0  0  0  0  0
    6.8281    0.1201   18.1706 C   0  0  0  0  0  0  0  0  0  0  0  0
    7.7216   -0.4370   17.8948 H   0  0  0  0  0  0  0  0  0  0  0  0
    6.2931    0.8773   17.2061 N   0  0  0  0  0  0  0  0  0  0  0  0
    5.1791    1.5572   17.5174 C   0  0  0  0  0  0  0  0  0  0  0  0
    4.7986    2.2123   16.7364 H   0  0  0  0  0  0  0  0  0  0  0  0
    4.5224    1.4376   18.7464 C   0  0  0  0  0  0  0  0  0  0  0  0
    3.6144    2.0055   18.9115 H   0  0  0  0  0  0  0  0  0  0  0  0
    5.0746    0.6101   19.7348 C   0  0  0  0  0  0  0  0  0  0  0  0
    4.5690    0.4489   20.6884 H   0  0  0  0  0  0  0  0  0  0  0  0
    6.5050   -1.7895   21.3501 C   0  0  0  0  0  0  0  0  0  0  0  0
    5.4247   -2.3435   21.2373 O   0  0  0  0  0  0  0  0  0  0  0  0
    7.3301   -2.2714   22.3758 N   0  0  0  0  0  0  0  0  0  0  0  0
    6.7972   -2.9638   22.8825 H   0  0  0  0  0  0  0  0  0  0  0  0
    8.5737   -1.8398   22.6840 C   0  0  0  0  0  0  0  0  0  0  0  0
    9.0731   -2.2844   23.5485 H   0  0  0  0  0  0  0  0  0  0  0  0
   11.1123    0.4598   21.3866 O   0  0  0  0  0  0  0  0  0  0  0  0
  1  2  1  0
  2  3  2  0
  3  4  1  0
  4  5  1  0
  4  6  2  0
  6  7  1  0
  7  8  1  0
  8  9  1  0
  8 10  2  0
 10 11  1  0
 11 12  2  0
 12 13  1  0
 12 14  1  0
 14 15  2  0
 15 16  1  0
 15 17  1  0
 17 18  1  0
 17 19  2  0
 19 20  1  0
 10 21  1  0
 21 22  2  0
 21 23  1  0
 23 24  1  0
 23 25  1  0
 25 26  1  0
  6 27  1  0
 27  2  1  0
 25  7  2  0
 19 11  1  0
M  END
>  <cnnaffinity>  (1) 
-4.91438

>  <filename>  (1) 
O=c1[nH]cc(-c2cnco2)cc1-c1cccnc1

$$$$
