
     RDKit          3D

 31 33  0  0  0  0  0  0  0  0999 V2000
    5.0782    1.8189   16.8113 H   0  0  0  0  0  0  0  0  0  0  0  0
    5.5329    1.3232   17.6670 C   0  0  0  0  0  0  0  0  0  0  0  0
    6.6855    0.6732   17.4361 N   0  0  0  0  0  0  0  0  0  0  0  0
    7.2679    0.0589   18.4742 C   0  0  0  0  0  0  0  0  0  0  0  0
    8.1863   -0.4793   18.2412 H   0  0  0  0  0  0  0  0  0  0  0  0
    6.7459    0.0457   19.7822 C   0  0  0  0  0  0  0  0  0  0  0  0
    7.3766   -0.7069   20.8749 C   0  0  0  0  0  0  0  0  0  0  0  0
    6.8107   -1.2983   21.9453 C   0  0  0  0  0  0  0  0  0  0  0  0
    5.7690   -1.3489   22.2041 H   0  0  0  0  0  0  0  0  0  0  0  0
    7.8092   -1.9165   22.7057 N   0  0  0  0  0  0  0  0  0  0  0  0
    7.6783   -2.6849   23.8748 C   0  0  0  0  0  0  0  0  0  0  0  0
    8.6867   -3.4986   24.1790 N   0  0  0  0  0  0  0  0  0  0  0  0
    8.6236   -4.1949   25.3284 C   0  0  0  0  0  0  0  0  0  0  0  0
    9.8097   -5.1234   25.7339 C   0  0  0  0  0  0  0  0  0  0  0  0
   10.9306   -4.8674   25.0574 F   0  0  0  0  0  0  0  0  0  0  0  0
   10.0994   -4.9967   27.0475 F   0  0  0  0  0  0  0  0  0  0  0  0
    9.5101   -6.4265   25.5572 F   0  0  0  0  0  0  0  0  0  0  0  0
    7.5268   -4.1293   26.1936 C   0  0  0  0  0  0  0  0  0  0  0  0
    7.5287   -4.6807   27.1256 H   0  0  0  0  0  0  0  0  0  0  0  0
    6.4513   -3.3053   25.8446 C   0  0  0  0  0  0  0  0  0  0  0  0
    5.5866   -3.2345   26.5004 H   0  0  0  0  0  0  0  0  0  0  0  0
    6.5175   -2.5757   24.6615 C   0  0  0  0  0  0  0  0  0  0  0  0
    5.7160   -1.9127   24.3625 H   0  0  0  0  0  0  0  0  0  0  0  0
    9.0495   -1.6585   22.1179 C   0  0  0  0  0  0  0  0  0  0  0  0
   10.1661   -1.9093   22.4947 O   0  0  0  0  0  0  0  0  0  0  0  0
    8.7350   -0.9761   20.9600 N   0  0  0  0  0  0  0  0  0  0  0  0
    9.5001   -0.5817   20.4473 H   0  0  0  0  0  0  0  0  0  0  0  0
    5.5369    0.7358   19.9968 C   0  0  0  0  0  0  0  0  0  0  0  0
    5.0954    0.7700   20.9936 H   0  0  0  0  0  0  0  0  0  0  0  0
    4.9216    1.3771   18.9236 C   0  0  0  0  0  0  0  0  0  0  0  0
    3.9866    1.9122   19.0457 H   0  0  0  0  0  0  0  0  0  0  0  0
  1  2  1  0
  2  3  2  0
  3  4  1  0
  4  5  1  0
  4  6  2  0
  6  7  1  0
  7  8  2  0
  8  9  1  0
  8 10  1  0
 10 11  1  0
 11 12  2  0
 12 13  1  0
 13 14  1  0
 14 15  1  0
 14 16  1  0
 14 17  1  0
 13 18  2  0
 18 19  1  0
 18 20  1  0
 20 21  1  0
 20 22  2  0
 22 23  1  0
 10 24  1  0
 24 25  2  0
 24 26  1  0
 26 27  1  0
  6 28  1  0
 28 29  1  0
 28 30  2  0
 30 31  1  0
 30  2  1  0
 26  7  1  0
 22 11  1  0
M  END
>  <cnnaffinity>  (1) 
-5.42918

>  <filename>  (1) 
O=c1[nH]c(-c2cccnc2)cn1-c1cccc(C(F)(F)F)n1

$$$$
