
     RDKit          3D

 36 38  0  0  0  0  0  0  0  0999 V2000
    4.9076    1.7763   16.9535 H   0  0  0  0  0  0  0  0  0  0  0  0
    5.3695    1.3368   17.8360 C   0  0  0  0  0  0  0  0  0  0  0  0
    6.5518    0.7291   17.6494 N   0  0  0  0  0  0  0  0  0  0  0  0
    7.1275    0.1781   18.7189 C   0  0  0  0  0  0  0  0  0  0  0  0
    8.0834   -0.3055   18.5257 H   0  0  0  0  0  0  0  0  0  0  0  0
    6.5953    0.2099   20.0232 C   0  0  0  0  0  0  0  0  0  0  0  0
    7.3525   -0.4625   21.0984 C   0  0  0  0  0  0  0  0  0  0  0  0
    7.1081   -0.0374   22.3866 O   0  0  0  0  0  0  0  0  0  0  0  0
    7.8023   -0.6163   23.4168 C   0  0  0  0  0  0  0  0  0  0  0  0
    7.5222   -0.0021   24.7588 C   0  0  0  0  0  0  0  0  0  0  0  0
    8.3833   -0.2027   25.4046 H   0  0  0  0  0  0  0  0  0  0  0  0
    7.4243    1.0844   24.6694 H   0  0  0  0  0  0  0  0  0  0  0  0
    6.2640   -0.6176   25.3485 C   0  0  0  0  0  0  0  0  0  0  0  0
    5.0263   -0.0350   25.0643 C   0  0  0  0  0  0  0  0  0  0  0  0
    4.9966    0.8421   24.4227 H   0  0  0  0  0  0  0  0  0  0  0  0
    3.8428   -0.6032   25.5345 C   0  0  0  0  0  0  0  0  0  0  0  0
    2.8953   -0.1395   25.2777 H   0  0  0  0  0  0  0  0  0  0  0  0
    3.8838   -1.7838   26.2910 C   0  0  0  0  0  0  0  0  0  0  0  0
    2.5954   -2.4338   26.7463 C   0  0  0  0  0  0  0  0  0  0  0  0
    2.1376   -3.3325   25.8513 F   0  0  0  0  0  0  0  0  0  0  0  0
    2.7414   -3.0910   27.9122 F   0  0  0  0  0  0  0  0  0  0  0  0
    1.6079   -1.5349   26.9247 F   0  0  0  0  0  0  0  0  0  0  0  0
    5.1221   -2.3923   26.5591 C   0  0  0  0  0  0  0  0  0  0  0  0
    5.1732   -3.3177   27.1270 H   0  0  0  0  0  0  0  0  0  0  0  0
    6.3004   -1.8118   26.0861 C   0  0  0  0  0  0  0  0  0  0  0  0
    7.2519   -2.3005   26.2918 H   0  0  0  0  0  0  0  0  0  0  0  0
    8.5335   -1.7371   23.2534 C   0  0  0  0  0  0  0  0  0  0  0  0
    9.0225   -2.2328   24.0800 H   0  0  0  0  0  0  0  0  0  0  0  0
    8.6142   -2.3651   21.9401 C   0  0  0  0  0  0  0  0  0  0  0  0
    8.9796   -3.5114   21.7546 O   0  0  0  0  0  0  0  0  0  0  0  0
    8.1634   -1.5104   20.8627 C   0  0  0  0  0  0  0  0  0  0  0  0
    8.4399   -1.8184   19.8763 H   0  0  0  0  0  0  0  0  0  0  0  0
    5.3444    0.8257   20.1945 C   0  0  0  0  0  0  0  0  0  0  0  0
    4.8720    0.8472   21.1770 H   0  0  0  0  0  0  0  0  0  0  0  0
    4.7296    1.3958   19.0800 C   0  0  0  0  0  0  0  0  0  0  0  0
    3.7676    1.8884   19.1555 H   0  0  0  0  0  0  0  0  0  0  0  0
  1  2  1  0
  2  3  2  0
  3  4  1  0
  4  5  1  0
  4  6  2  0
  6  7  1  0
  7  8  1  0
  8  9  1  0
  9 10  1  0
 10 11  1  0
 10 12  1  0
 10 13  1  0
 13 14  2  0
 14 15  1  0
 14 16  1  0
 16 17  1  0
 16 18  2  0
 18 19  1  0
 19 20  1  0
 19 21  1  0
 19 22  1  0
 18 23  1  0
 23 24  1  0
 23 25  2  0
 25 26  1  0
  9 27  2  0
 27 28  1  0
 27 29  1  0
 29 30  2  0
 29 31  1  0
 31 32  1  0
  6 33  1  0
 33 34  1  0
 33 35  2  0
 35 36  1  0
 35  2  1  0
 31  7  2  0
 25 13  1  0
M  END
>  <cnnaffinity>  (1) 
-5.34619

>  <filename>  (1) 
O=c1cc(Cc2ccc(C(F)(F)F)cc2)oc(-c2cccnc2)c1

$$$$
