
     RDKit          3D

 27 29  0  0  0  0  0  0  0  0999 V2000
   13.1043    1.4565   21.9822 H   0  0  0  0  0  0  0  0  0  0  0  0
   12.3708    0.8273   22.4732 C   0  0  0  0  0  0  0  0  0  0  0  0
   12.4160    0.3442   23.6665 N   0  0  0  0  0  0  0  0  0  0  0  0
   11.2287   -0.3647   23.7837 C   0  0  0  0  0  0  0  0  0  0  0  0
   10.9621   -0.8707   24.7028 H   0  0  0  0  0  0  0  0  0  0  0  0
   10.5225   -0.2720   22.6240 C   0  0  0  0  0  0  0  0  0  0  0  0
    9.2358   -0.8040   22.1684 C   0  0  0  0  0  0  0  0  0  0  0  0
    8.6839   -1.9178   22.8740 C   0  0  0  0  0  0  0  0  0  0  0  0
    9.2642   -2.3895   23.6685 H   0  0  0  0  0  0  0  0  0  0  0  0
    7.4467   -2.3792   22.5702 C   0  0  0  0  0  0  0  0  0  0  0  0
    6.9814   -3.1913   23.1050 H   0  0  0  0  0  0  0  0  0  0  0  0
    6.6356   -1.8170   21.5018 C   0  0  0  0  0  0  0  0  0  0  0  0
    5.5382   -2.2555   21.2095 O   0  0  0  0  0  0  0  0  0  0  0  0
    7.2600   -0.7263   20.7859 N   0  0  0  0  0  0  0  0  0  0  0  0
    6.5396   -0.0318   19.7382 C   0  0  0  0  0  0  0  0  0  0  0  0
    7.0805    0.0758   18.4414 C   0  0  0  0  0  0  0  0  0  0  0  0
    8.0275   -0.4119   18.2185 H   0  0  0  0  0  0  0  0  0  0  0  0
    6.5029    0.7520   17.4412 N   0  0  0  0  0  0  0  0  0  0  0  0
    5.3506    1.3846   17.7151 C   0  0  0  0  0  0  0  0  0  0  0  0
    4.9009    1.9447   16.8985 H   0  0  0  0  0  0  0  0  0  0  0  0
    4.7412    1.3592   18.9741 C   0  0  0  0  0  0  0  0  0  0  0  0
    3.8334    1.9274   19.1396 H   0  0  0  0  0  0  0  0  0  0  0  0
    5.3401    0.6371   20.0127 C   0  0  0  0  0  0  0  0  0  0  0  0
    4.9189    0.6273   21.0193 H   0  0  0  0  0  0  0  0  0  0  0  0
    8.5084   -0.2503   21.1417 C   0  0  0  0  0  0  0  0  0  0  0  0
    8.8484    0.6153   20.5737 H   0  0  0  0  0  0  0  0  0  0  0  0
   11.2652    0.5027   21.7701 O   0  0  0  0  0  0  0  0  0  0  0  0
  1  2  1  0
  2  3  2  0
  3  4  1  0
  4  5  1  0
  4  6  2  0
  6  7  1  0
  7  8  1  0
  8  9  1  0
  8 10  2  0
 10 11  1  0
 10 12  1  0
 12 13  2  0
 12 14  1  0
 14 15  1  0
 15 16  2  0
 16 17  1  0
 16 18  1  0
 18 19  2  0
 19 20  1  0
 19 21  1  0
 21 22  1  0
 21 23  2  0
 23 24  1  0
 14 25  1  0
 25 26  1  0
  6 27  1  0
 27  2  1  0
 25  7  2  0
 23 15  1  0
M  END
>  <cnnaffinity>  (1) 
-4.87637

>  <filename>  (1) 
O=c1ccc(-c2cnco2)cn1-c1cccnc1

$$$$
