
     RDKit          3D

 30 32  0  0  0  0  0  0  0  0999 V2000
    5.0308    1.7765   16.9658 H   0  0  0  0  0  0  0  0  0  0  0  0
    5.4989    1.2775   17.8092 C   0  0  0  0  0  0  0  0  0  0  0  0
    6.6573    0.6462   17.5577 N   0  0  0  0  0  0  0  0  0  0  0  0
    7.2593    0.0379   18.5914 C   0  0  0  0  0  0  0  0  0  0  0  0
    8.1792   -0.4941   18.3477 H   0  0  0  0  0  0  0  0  0  0  0  0
    6.7554    0.0203   19.9108 C   0  0  0  0  0  0  0  0  0  0  0  0
    7.4488   -0.6624   21.0439 C   0  0  0  0  0  0  0  0  0  0  0  0
    6.7073   -1.5536   21.8896 C   0  0  0  0  0  0  0  0  0  0  0  0
    5.6570   -1.7471   21.6579 H   0  0  0  0  0  0  0  0  0  0  0  0
    7.3127   -2.1962   22.9229 C   0  0  0  0  0  0  0  0  0  0  0  0
    6.8054   -2.9163   23.5434 H   0  0  0  0  0  0  0  0  0  0  0  0
    8.7188   -1.9994   23.2608 C   0  0  0  0  0  0  0  0  0  0  0  0
    9.2607   -2.5701   24.1896 O   0  0  0  0  0  0  0  0  0  0  0  0
    9.4204   -1.1044   22.3758 N   0  0  0  0  0  0  0  0  0  0  0  0
   10.8469   -0.8926   22.5531 C   0  0  0  0  0  0  0  0  0  0  0  0
   11.7825   -1.4569   21.6653 C   0  0  0  0  0  0  0  0  0  0  0  0
   11.4234   -2.1263   20.8841 H   0  0  0  0  0  0  0  0  0  0  0  0
   13.1004   -1.2315   21.7347 N   0  0  0  0  0  0  0  0  0  0  0  0
   13.5445   -0.4137   22.6989 C   0  0  0  0  0  0  0  0  0  0  0  0
   14.6107   -0.1954   22.6854 H   0  0  0  0  0  0  0  0  0  0  0  0
   12.7156    0.1430   23.6780 C   0  0  0  0  0  0  0  0  0  0  0  0
   13.1452    0.7310   24.4864 H   0  0  0  0  0  0  0  0  0  0  0  0
   11.3396   -0.1092   23.6065 C   0  0  0  0  0  0  0  0  0  0  0  0
   10.6629    0.2805   24.3613 H   0  0  0  0  0  0  0  0  0  0  0  0
    8.7776   -0.4752   21.3145 C   0  0  0  0  0  0  0  0  0  0  0  0
    9.3937    0.1951   20.7182 H   0  0  0  0  0  0  0  0  0  0  0  0
    5.5200    0.6538   20.1251 C   0  0  0  0  0  0  0  0  0  0  0  0
    5.0859    0.6423   21.1254 H   0  0  0  0  0  0  0  0  0  0  0  0
    4.8881    1.3053   19.0675 C   0  0  0  0  0  0  0  0  0  0  0  0
    3.9463    1.8260   19.2106 H   0  0  0  0  0  0  0  0  0  0  0  0
  1  2  1  0
  2  3  2  0
  3  4  1  0
  4  5  1  0
  4  6  2  0
  6  7  1  0
  7  8  1  0
  8  9  1  0
  8 10  2  0
 10 11  1  0
 10 12  1  0
 12 13  2  0
 12 14  1  0
 14 15  1  0
 15 16  2  0
 16 17  1  0
 16 18  1  0
 18 19  2  0
 19 20  1  0
 19 21  1  0
 21 22  1  0
 21 23  2  0
 23 24  1  0
 14 25  1  0
 25 26  1  0
  6 27  1  0
 27 28  1  0
 27 29  2  0
 29 30  1  0
 29  2  1  0
 25  7  2  0
 23 15  1  0
M  END
>  <cnnaffinity>  (1) 
-5.3731

>  <filename>  (1) 
O=c1ccc(-c2cccnc2)cn1-c1cccnc1

$$$$
