
     RDKit          3D

 35 38  0  0  0  0  0  0  0  0999 V2000
    4.8967    1.7905   16.8806 H   0  0  0  0  0  0  0  0  0  0  0  0
    5.3531    1.3811   17.7799 C   0  0  0  0  0  0  0  0  0  0  0  0
    6.5629    0.8250   17.6138 N   0  0  0  0  0  0  0  0  0  0  0  0
    7.1526    0.3176   18.7015 C   0  0  0  0  0  0  0  0  0  0  0  0
    8.1391   -0.1108   18.5238 H   0  0  0  0  0  0  0  0  0  0  0  0
    6.5932    0.3304   19.9975 C   0  0  0  0  0  0  0  0  0  0  0  0
    7.2692   -0.4230   21.0957 C   0  0  0  0  0  0  0  0  0  0  0  0
    7.5375    0.4008   22.6180 S   0  0  0  0  0  0  0  0  0  0  0  0
    8.2593   -0.8562   23.6083 C   0  0  0  0  0  0  0  0  0  0  0  0
    8.4393   -0.5491   25.0460 C   0  0  0  0  0  0  0  0  0  0  0  0
    9.7101   -0.4765   25.5802 C   0  0  0  0  0  0  0  0  0  0  0  0
   10.5854   -0.5583   24.9361 H   0  0  0  0  0  0  0  0  0  0  0  0
    9.9826   -0.3094   26.9011 N   0  0  0  0  0  0  0  0  0  0  0  0
    8.9687   -0.1673   27.7309 C   0  0  0  0  0  0  0  0  0  0  0  0
    9.2210   -0.0545   28.7909 H   0  0  0  0  0  0  0  0  0  0  0  0
    7.5978   -0.1882   27.3276 C   0  0  0  0  0  0  0  0  0  0  0  0
    6.5048    0.0166   28.2246 C   0  0  0  0  0  0  0  0  0  0  0  0
    6.7103    0.3107   29.2545 H   0  0  0  0  0  0  0  0  0  0  0  0
    5.2116   -0.1633   27.7909 C   0  0  0  0  0  0  0  0  0  0  0  0
    4.3860   -0.0062   28.4775 H   0  0  0  0  0  0  0  0  0  0  0  0
    4.9385   -0.5655   26.4560 C   0  0  0  0  0  0  0  0  0  0  0  0
    3.9129   -0.7600   26.1466 H   0  0  0  0  0  0  0  0  0  0  0  0
    5.9775   -0.7055   25.5588 C   0  0  0  0  0  0  0  0  0  0  0  0
    5.8040   -1.0024   24.5311 H   0  0  0  0  0  0  0  0  0  0  0  0
    7.3247   -0.4671   25.9515 C   0  0  0  0  0  0  0  0  0  0  0  0
    8.6447   -2.0623   23.1410 C   0  0  0  0  0  0  0  0  0  0  0  0
    9.1827   -2.7482   23.7889 H   0  0  0  0  0  0  0  0  0  0  0  0
    8.2936   -2.5976   21.8266 C   0  0  0  0  0  0  0  0  0  0  0  0
    8.5447   -3.7542   21.5261 O   0  0  0  0  0  0  0  0  0  0  0  0
    7.6079   -1.7107   20.8865 C   0  0  0  0  0  0  0  0  0  0  0  0
    7.3582   -2.1786   19.9428 H   0  0  0  0  0  0  0  0  0  0  0  0
    5.3383    0.9455   20.1513 C   0  0  0  0  0  0  0  0  0  0  0  0
    4.8785    1.0068   21.1388 H   0  0  0  0  0  0  0  0  0  0  0  0
    4.7012    1.4601   19.0158 C   0  0  0  0  0  0  0  0  0  0  0  0
    3.7287    1.9407   19.0804 H   0  0  0  0  0  0  0  0  0  0  0  0
  1  2  1  0
  2  3  2  0
  3  4  1  0
  4  5  1  0
  4  6  2  0
  6  7  1  0
  7  8  1  0
  8  9  1  0
  9 10  1  0
 10 11  2  0
 11 12  1  0
 11 13  1  0
 13 14  2  0
 14 15  1  0
 14 16  1  0
 16 17  2  0
 17 18  1  0
 17 19  1  0
 19 20  1  0
 19 21  2  0
 21 22  1  0
 21 23  1  0
 23 24  1  0
 23 25  2  0
  9 26  2  0
 26 27  1  0
 26 28  1  0
 28 29  2  0
 28 30  1  0
 30 31  1  0
  6 32  1  0
 32 33  1  0
 32 34  2  0
 34 35  1  0
 34  2  1  0
 30  7  2  0
 25 10  1  0
 25 16  1  0
M  END
>  <cnnaffinity>  (1) 
-5.68143

>  <filename>  (1) 
O=c1cc(-c2cccnc2)sc(-c2cncc3ccccc23)c1

$$$$
