
     RDKit          3D

 42 45  0  0  0  0  0  0  0  0999 V2000
    4.9036    1.8182   16.9032 H   0  0  0  0  0  0  0  0  0  0  0  0
    5.3949    1.3164   17.7331 C   0  0  0  0  0  0  0  0  0  0  0  0
    6.5408    0.6776   17.4442 N   0  0  0  0  0  0  0  0  0  0  0  0
    7.1850    0.0687   18.4479 C   0  0  0  0  0  0  0  0  0  0  0  0
    8.1225   -0.4244   18.2064 H   0  0  0  0  0  0  0  0  0  0  0  0
    6.7162    0.0457   19.7788 C   0  0  0  0  0  0  0  0  0  0  0  0
    7.4040   -0.6348   20.8248 N   0  0  0  0  0  0  0  0  0  0  0  0
    6.7913   -1.4459   21.7767 C   0  0  0  0  0  0  0  0  0  0  0  0
    5.7232   -1.5983   21.7452 H   0  0  0  0  0  0  0  0  0  0  0  0
    7.7345   -1.9139   22.6298 C   0  0  0  0  0  0  0  0  0  0  0  0
    7.6101   -2.7252   23.8418 C   0  0  0  0  0  0  0  0  0  0  0  0
    8.6298   -2.7683   24.8199 C   0  0  0  0  0  0  0  0  0  0  0  0
    9.5686   -2.2384   24.6629 H   0  0  0  0  0  0  0  0  0  0  0  0
    8.4399   -3.4842   26.0001 C   0  0  0  0  0  0  0  0  0  0  0  0
    9.1995   -3.5200   26.7775 H   0  0  0  0  0  0  0  0  0  0  0  0
    7.2345   -4.1695   26.2299 C   0  0  0  0  0  0  0  0  0  0  0  0
    7.1106   -4.9295   27.4253 N   0  0  0  0  0  0  0  0  0  0  0  0
    5.7575   -5.1421   27.9651 C   0  0  0  0  0  0  0  0  0  0  0  0
    5.1591   -5.8362   27.3458 H   0  0  0  0  0  0  0  0  0  0  0  0
    5.2342   -4.1829   28.0117 H   0  0  0  0  0  0  0  0  0  0  0  0
    5.8843   -5.7605   29.3588 C   0  0  0  0  0  0  0  0  0  0  0  0
    6.4352   -5.0557   30.0006 H   0  0  0  0  0  0  0  0  0  0  0  0
    4.9078   -5.9580   29.8055 H   0  0  0  0  0  0  0  0  0  0  0  0
    6.5580   -7.0139   29.3015 O   0  0  0  0  0  0  0  0  0  0  0  0
    7.8469   -6.8615   28.7224 C   0  0  0  0  0  0  0  0  0  0  0  0
    8.3206   -7.8486   28.7281 H   0  0  0  0  0  0  0  0  0  0  0  0
    8.4384   -6.1743   29.3345 H   0  0  0  0  0  0  0  0  0  0  0  0
    7.7937   -6.2339   27.3331 C   0  0  0  0  0  0  0  0  0  0  0  0
    8.8169   -6.0931   26.9731 H   0  0  0  0  0  0  0  0  0  0  0  0
    7.2752   -6.8896   26.6168 H   0  0  0  0  0  0  0  0  0  0  0  0
    6.2274   -4.1390   25.2530 C   0  0  0  0  0  0  0  0  0  0  0  0
    5.2892   -4.6440   25.4484 H   0  0  0  0  0  0  0  0  0  0  0  0
    6.4194   -3.4441   24.0626 C   0  0  0  0  0  0  0  0  0  0  0  0
    5.6463   -3.4468   23.2952 H   0  0  0  0  0  0  0  0  0  0  0  0
    8.9426   -1.3704   22.1937 N   0  0  0  0  0  0  0  0  0  0  0  0
    9.8858   -1.6340   22.4028 H   0  0  0  0  0  0  0  0  0  0  0  0
    8.7844   -0.5954   21.0775 C   0  0  0  0  0  0  0  0  0  0  0  0
    9.6733   -0.0343   20.4748 O   0  0  0  0  0  0  0  0  0  0  0  0
    5.5148    0.7068   20.0585 C   0  0  0  0  0  0  0  0  0  0  0  0
    5.1364    0.7182   21.0807 H   0  0  0  0  0  0  0  0  0  0  0  0
    4.8433    1.3540   19.0189 C   0  0  0  0  0  0  0  0  0  0  0  0
    3.9111    1.8811   19.1975 H   0  0  0  0  0  0  0  0  0  0  0  0
  1  2  1  0
  2  3  2  0
  3  4  1  0
  4  5  1  0
  4  6  2  0
  6  7  1  0
  7  8  1  0
  8  9  1  0
  8 10  2  0
 10 11  1  0
 11 12  2  0
 12 13  1  0
 12 14  1  0
 14 15  1  0
 14 16  2  0
 16 17  1  0
 17 18  1  0
 18 19  1  0
 18 20  1  0
 18 21  1  0
 21 22  1  0
 21 23  1  0
 21 24  1  0
 24 25  1  0
 25 26  1  0
 25 27  1  0
 25 28  1  0
 28 29  1  0
 28 30  1  0
 16 31  1  0
 31 32  1  0
 31 33  2  0
 33 34  1  0
 10 35  1  0
 35 36  1  0
 35 37  1  0
 37 38  2  0
  6 39  1  0
 39 40  1  0
 39 41  2  0
 41 42  1  0
 41  2  1  0
 37  7  1  0
 33 11  1  0
 28 17  1  0
M  END
>  <cnnaffinity>  (1) 
-5.3545

>  <filename>  (1) 
O=c1[nH]c(-c2ccc(N3CCOCC3)cc2)cn1-c1cccnc1

$$$$
