
     RDKit          3D

 35 37  0  0  0  0  0  0  0  0999 V2000
    5.6087    2.4948   15.8397 H   0  0  0  0  0  0  0  0  0  0  0  0
    5.7094    2.0137   16.8077 C   0  0  0  0  0  0  0  0  0  0  0  0
    6.7804    1.2206   16.9687 N   0  0  0  0  0  0  0  0  0  0  0  0
    6.9462    0.6603   18.1724 C   0  0  0  0  0  0  0  0  0  0  0  0
    7.8317    0.0345   18.2831 H   0  0  0  0  0  0  0  0  0  0  0  0
    6.0748    0.8416   19.2612 C   0  0  0  0  0  0  0  0  0  0  0  0
    6.4112    0.2660   20.5558 C   0  0  0  0  0  0  0  0  0  0  0  0
    7.2703   -0.7303   20.8958 C   0  0  0  0  0  0  0  0  0  0  0  0
    7.9045   -1.3764   20.3137 H   0  0  0  0  0  0  0  0  0  0  0  0
    7.2716   -0.8330   22.2733 N   0  0  0  0  0  0  0  0  0  0  0  0
    8.0125   -1.8774   23.1161 C   0  0  0  0  0  0  0  0  0  0  0  0
    8.0062   -2.7578   22.4155 H   0  0  0  0  0  0  0  0  0  0  0  0
    7.2104   -2.1971   23.8408 H   0  0  0  0  0  0  0  0  0  0  0  0
    9.4465   -1.7001   23.7197 C   0  0  0  0  0  0  0  0  0  0  0  0
    9.4504   -1.3542   23.7527 C   0  0  0  0  0  0  0  0  0  0  0  0
    9.1604   -0.4561   24.4885 H   0  0  0  0  0  0  0  0  0  0  0  0
   11.0458   -0.0350   24.0110 C   0  0  0  0  0  0  0  0  0  0  0  0
   10.9842    0.5461   24.9172 H   0  0  0  0  0  0  0  0  0  0  0  0
   11.9867   -0.3621   23.1272 C   0  0  0  0  0  0  0  0  0  0  0  0
   13.3427    0.3066   23.1144 C   0  0  0  0  0  0  0  0  0  0  0  0
   13.8309    0.4448   24.3663 F   0  0  0  0  0  0  0  0  0  0  0  0
   13.2881    1.5418   22.5854 F   0  0  0  0  0  0  0  0  0  0  0  0
   14.2475   -0.3950   22.4099 F   0  0  0  0  0  0  0  0  0  0  0  0
   11.6304   -1.5305   22.2907 C   0  0  0  0  0  0  0  0  0  0  0  0
   12.2595   -1.9562   21.5228 H   0  0  0  0  0  0  0  0  0  0  0  0
   10.3988   -2.0643   22.6100 C   0  0  0  0  0  0  0  0  0  0  0  0
   10.1588   -3.0195   22.1493 H   0  0  0  0  0  0  0  0  0  0  0  0
    6.4764    0.1454   22.8324 C   0  0  0  0  0  0  0  0  0  0  0  0
    6.3250    0.4131   24.0077 O   0  0  0  0  0  0  0  0  0  0  0  0
    5.8945    0.7635   21.7462 N   0  0  0  0  0  0  0  0  0  0  0  0
    5.4373    1.6432   21.9016 H   0  0  0  0  0  0  0  0  0  0  0  0
    4.9255    1.6236   19.0449 C   0  0  0  0  0  0  0  0  0  0  0  0
    4.1751    1.7444   19.8269 H   0  0  0  0  0  0  0  0  0  0  0  0
    4.7554    2.2319   17.8064 C   0  0  0  0  0  0  0  0  0  0  0  0
    3.9078    2.8814   17.6142 H   0  0  0  0  0  0  0  0  0  0  0  0
  1  2  1  0
  2  3  2  0
  3  4  1  0
  4  5  1  0
  4  6  2  0
  6  7  1  0
  7  8  2  0
  8  9  1  0
  8 10  1  0
 10 11  1  0
 11 12  1  0
 11 13  1  0
 11 14  1  0
 14 15  2  0
 15 16  1  0
 15 17  1  0
 17 18  1  0
 17 19  2  0
 19 20  1  0
 20 21  1  0
 20 22  1  0
 20 23  1  0
 19 24  1  0
 24 25  1  0
 24 26  2  0
 26 27  1  0
 10 28  1  0
 28 29  2  0
 28 30  1  0
 30 31  1  0
  6 32  1  0
 32 33  1  0
 32 34  2  0
 34 35  1  0
 34  2  1  0
 30  7  1  0
 26 14  1  0
M  END
>  <cnnaffinity>  (1) 
-5.54969

>  <filename>  (1) 
O=c1[nH]c(-c2cccnc2)cn1Cc1ccc(C(F)(F)F)cc1

$$$$
