
     RDKit          3D

 20 21  0  0  0  0  0  0  0  0999 V2000
    4.9630    1.8098   17.0244 H   0  0  0  0  0  0  0  0  0  0  0  0
    5.4437    1.2909   17.8525 C   0  0  0  0  0  0  0  0  0  0  0  0
    6.6018    0.6706   17.5770 N   0  0  0  0  0  0  0  0  0  0  0  0
    7.2225    0.0217   18.5748 C   0  0  0  0  0  0  0  0  0  0  0  0
    8.1764   -0.4408   18.3229 H   0  0  0  0  0  0  0  0  0  0  0  0
    6.6897   -0.0715   19.8816 C   0  0  0  0  0  0  0  0  0  0  0  0
    7.3239   -0.8221   20.9404 N   0  0  0  0  0  0  0  0  0  0  0  0
    8.6123   -0.7305   21.4546 C   0  0  0  0  0  0  0  0  0  0  0  0
    9.5639    0.3339   21.0922 N   0  0  0  0  0  4  0  0  0  0  0  0
    9.0878    1.4080   20.7566 O   0  0  0  0  0  0  0  0  0  0  0  0
   10.7477    0.0826   21.1704 O   0  0  0  0  0  1  0  0  0  0  0  0
    8.8775   -1.6039   22.3652 N   0  0  0  0  0  0  0  0  0  0  0  0
    7.7075   -2.2902   22.4727 N   0  0  0  0  0  0  0  0  0  0  0  0
    7.5392   -2.9947   23.1660 H   0  0  0  0  0  0  0  0  0  0  0  0
    6.7008   -1.8726   21.6620 C   0  0  0  0  0  0  0  0  0  0  0  0
    5.5809   -2.3371   21.5779 O   0  0  0  0  0  0  0  0  0  0  0  0
    5.4899    0.5935   20.1515 C   0  0  0  0  0  0  0  0  0  0  0  0
    5.0723    0.5514   21.1570 H   0  0  0  0  0  0  0  0  0  0  0  0
    4.8523    1.2924   19.1192 C   0  0  0  0  0  0  0  0  0  0  0  0
    3.9168    1.8231   19.2807 H   0  0  0  0  0  0  0  0  0  0  0  0
  1  2  1  0
  2  3  2  0
  3  4  1  0
  4  5  1  0
  4  6  2  0
  6  7  1  0
  7  8  1  0
  8  9  1  0
  9 10  2  0
  9 11  1  0
  8 12  2  0
 12 13  1  0
 13 14  1  0
 13 15  1  0
 15 16  2  0
  6 17  1  0
 17 18  1  0
 17 19  2  0
 19 20  1  0
 19  2  1  0
 15  7  1  0
M  CHG  2   9   1  11  -1
M  END
>  <cnnaffinity>  (1) 
-4.29414

>  <filename>  (1) 
O=c1[nH]nc([N+](=O)[O-])n1-c1cccnc1

$$$$
