
     RDKit          3D

 37 40  0  0  0  0  0  0  0  0999 V2000
    4.9871    1.8087   16.9824 H   0  0  0  0  0  0  0  0  0  0  0  0
    5.4568    1.3034   17.8227 C   0  0  0  0  0  0  0  0  0  0  0  0
    6.6387    0.7128   17.5706 N   0  0  0  0  0  0  0  0  0  0  0  0
    7.2465    0.0930   18.5857 C   0  0  0  0  0  0  0  0  0  0  0  0
    8.2150   -0.3610   18.3906 H   0  0  0  0  0  0  0  0  0  0  0  0
    6.6816   -0.0196   19.8684 C   0  0  0  0  0  0  0  0  0  0  0  0
    7.3731   -0.7564   20.8768 N   0  0  0  0  0  0  0  0  0  0  0  0
    8.7115   -0.4932   20.9490 N   0  0  0  0  0  0  0  0  0  0  0  0
    9.3961   -0.9928   21.9362 C   0  0  0  0  0  0  0  0  0  0  0  0
   10.8261   -0.4727   22.0753 C   0  0  0  0  0  0  0  0  0  0  0  0
   11.2077   -0.2515   21.0749 H   0  0  0  0  0  0  0  0  0  0  0  0
   11.4616   -1.2338   22.5373 H   0  0  0  0  0  0  0  0  0  0  0  0
   10.9091    0.7509   22.9086 N   0  0  0  0  0  0  0  0  0  0  0  0
   10.6485    0.6723   24.2817 C   0  0  0  0  0  0  0  0  0  0  0  0
   10.8815   -0.3087   24.9473 O   0  0  0  0  0  0  0  0  0  0  0  0
   10.0672    1.9850   24.6820 C   0  0  0  0  0  0  0  0  0  0  0  0
    9.4538    2.3699   25.8767 C   0  0  0  0  0  0  0  0  0  0  0  0
    9.2475    1.6383   26.6556 H   0  0  0  0  0  0  0  0  0  0  0  0
    9.0968    3.7150   26.0146 C   0  0  0  0  0  0  0  0  0  0  0  0
    8.6598    4.0740   26.9438 H   0  0  0  0  0  0  0  0  0  0  0  0
    9.3422    4.6353   24.9747 C   0  0  0  0  0  0  0  0  0  0  0  0
    9.0909    5.6800   25.1305 H   0  0  0  0  0  0  0  0  0  0  0  0
    9.8526    4.2155   23.7397 C   0  0  0  0  0  0  0  0  0  0  0  0
    9.9693    4.9331   22.9270 H   0  0  0  0  0  0  0  0  0  0  0  0
   10.1940    2.8617   23.6045 C   0  0  0  0  0  0  0  0  0  0  0  0
   10.6439    2.0458   22.4247 C   0  0  0  0  0  0  0  0  0  0  0  0
   10.7303    2.3569   21.2620 O   0  0  0  0  0  0  0  0  0  0  0  0
    8.8148   -1.9092   22.8906 C   0  0  0  0  0  0  0  0  0  0  0  0
    9.4228   -2.2682   23.7173 H   0  0  0  0  0  0  0  0  0  0  0  0
    7.5140   -2.2855   22.7382 C   0  0  0  0  0  0  0  0  0  0  0  0
    6.9926   -2.9794   23.3883 H   0  0  0  0  0  0  0  0  0  0  0  0
    6.6911   -1.7643   21.6528 C   0  0  0  0  0  0  0  0  0  0  0  0
    5.5571   -2.1338   21.4008 O   0  0  0  0  0  0  0  0  0  0  0  0
    5.4582    0.6024   20.1312 C   0  0  0  0  0  0  0  0  0  0  0  0
    5.0157    0.5483   21.1250 H   0  0  0  0  0  0  0  0  0  0  0  0
    4.8426    1.2874   19.0787 C   0  0  0  0  0  0  0  0  0  0  0  0
    3.9054    1.8125   19.2247 H   0  0  0  0  0  0  0  0  0  0  0  0
  1  2  1  0
  2  3  2  0
  3  4  1  0
  4  5  1  0
  4  6  2  0
  6  7  1  0
  7  8  1  0
  8  9  2  0
  9 10  1  0
 10 11  1  0
 10 12  1  0
 10 13  1  0
 13 14  1  0
 14 15  2  0
 14 16  1  0
 16 17  2  0
 17 18  1  0
 17 19  1  0
 19 20  1  0
 19 21  2  0
 21 22  1  0
 21 23  1  0
 23 24  1  0
 23 25  2  0
 25 26  1  0
 26 27  2  0
  9 28  1  0
 28 29  1  0
 28 30  2  0
 30 31  1  0
 30 32  1  0
 32 33  2  0
  6 34  1  0
 34 35  1  0
 34 36  2  0
 36 37  1  0
 36  2  1  0
 32  7  1  0
 26 13  1  0
 25 16  1  0
M  END
>  <cnnaffinity>  (1) 
-5.38049

>  <filename>  (1) 
O=C1c2ccccc2C(=O)N1Cc1ccc(=O)n(-c2cccnc2)n1

$$$$
