
     RDKit          3D

 30 32  0  0  0  0  0  0  0  0999 V2000
    5.2806   -3.0472   26.1319 H   0  0  0  0  0  0  0  0  0  0  0  0
    6.2845   -3.0795   25.7014 C   0  0  0  0  0  0  0  0  0  0  0  0
    6.4626   -2.4702   24.5346 N   0  0  0  0  0  0  0  0  0  0  0  0
    7.6852   -2.5260   24.0086 C   0  0  0  0  0  0  0  0  0  0  0  0
    7.8397   -1.8719   22.8091 N   0  0  0  0  0  0  0  0  0  0  0  0
    6.8260   -1.2935   22.0424 C   0  0  0  0  0  0  0  0  0  0  0  0
    5.7880   -1.3979   22.2903 H   0  0  0  0  0  0  0  0  0  0  0  0
    7.3841   -0.7323   20.9569 C   0  0  0  0  0  0  0  0  0  0  0  0
    6.7214    0.0076   19.8796 C   0  0  0  0  0  0  0  0  0  0  0  0
    7.2320    0.0386   18.5718 C   0  0  0  0  0  0  0  0  0  0  0  0
    8.1535   -0.4903   18.3407 H   0  0  0  0  0  0  0  0  0  0  0  0
    6.6406    0.6568   17.5422 N   0  0  0  0  0  0  0  0  0  0  0  0
    5.4829    1.2924   17.7885 C   0  0  0  0  0  0  0  0  0  0  0  0
    5.0176    1.7973   16.9440 H   0  0  0  0  0  0  0  0  0  0  0  0
    4.8730    1.3199   19.0478 C   0  0  0  0  0  0  0  0  0  0  0  0
    3.9323    1.8450   19.1800 H   0  0  0  0  0  0  0  0  0  0  0  0
    5.5015    0.6728   20.1099 C   0  0  0  0  0  0  0  0  0  0  0  0
    5.0697    0.6870   21.1113 H   0  0  0  0  0  0  0  0  0  0  0  0
    8.7399   -1.0207   21.0286 N   0  0  0  0  0  0  0  0  0  0  0  0
    9.4858   -0.6719   20.4613 H   0  0  0  0  0  0  0  0  0  0  0  0
    9.0730   -1.6838   22.1926 C   0  0  0  0  0  0  0  0  0  0  0  0
   10.1878   -1.9891   22.5365 O   0  0  0  0  0  0  0  0  0  0  0  0
    8.7213   -3.1736   24.5171 N   0  0  0  0  0  0  0  0  0  0  0  0
    8.5320   -3.8113   25.6795 C   0  0  0  0  0  0  0  0  0  0  0  0
    9.7062   -4.6862   26.2278 C   0  0  0  0  0  0  0  0  0  0  0  0
    9.4261   -5.9993   26.1000 F   0  0  0  0  0  0  0  0  0  0  0  0
    9.9102   -4.4835   27.5446 F   0  0  0  0  0  0  0  0  0  0  0  0
   10.8590   -4.4516   25.6002 F   0  0  0  0  0  0  0  0  0  0  0  0
    7.3073   -3.7642   26.3539 C   0  0  0  0  0  0  0  0  0  0  0  0
    7.1358   -4.2561   27.3026 H   0  0  0  0  0  0  0  0  0  0  0  0
  1  2  1  0
  2  3  2  0
  3  4  1  0
  4  5  1  0
  5  6  1  0
  6  7  1  0
  6  8  2  0
  8  9  1  0
  9 10  2  0
 10 11  1  0
 10 12  1  0
 12 13  2  0
 13 14  1  0
 13 15  1  0
 15 16  1  0
 15 17  2  0
 17 18  1  0
  8 19  1  0
 19 20  1  0
 19 21  1  0
 21 22  2  0
  4 23  2  0
 23 24  1  0
 24 25  1  0
 25 26  1  0
 25 27  1  0
 25 28  1  0
 24 29  2  0
 29 30  1  0
 29  2  1  0
 21  5  1  0
 17  9  1  0
M  END
>  <cnnaffinity>  (1) 
-5.44229

>  <filename>  (1) 
O=c1[nH]c(-c2cccnc2)cn1-c1nccc(C(F)(F)F)n1

$$$$
