
     RDKit          3D

 32 34  0  0  0  0  0  0  0  0999 V2000
    4.9085    1.7999   16.9832 H   0  0  0  0  0  0  0  0  0  0  0  0
    5.3888    1.3019   17.8247 C   0  0  0  0  0  0  0  0  0  0  0  0
    6.5466    0.6809   17.5504 N   0  0  0  0  0  0  0  0  0  0  0  0
    7.1766    0.0762   18.5653 C   0  0  0  0  0  0  0  0  0  0  0  0
    8.1206   -0.4128   18.3404 H   0  0  0  0  0  0  0  0  0  0  0  0
    6.6765    0.0353   19.8849 C   0  0  0  0  0  0  0  0  0  0  0  0
    7.3609   -0.6741   20.9579 N   0  0  0  0  0  0  0  0  0  0  0  0
    6.7673   -1.8424   21.5198 C   0  0  0  0  0  0  0  0  0  0  0  0
    5.7061   -2.2551   21.1026 O   0  0  0  0  0  0  0  0  0  0  0  0
    7.4906   -2.5185   22.5664 C   0  0  0  0  0  0  0  0  0  0  0  0
    7.0091   -3.3919   22.9598 H   0  0  0  0  0  0  0  0  0  0  0  0
    8.6656   -2.0502   23.0118 C   0  0  0  0  0  0  0  0  0  0  0  0
    9.4399   -2.5485   23.9950 O   0  0  0  0  0  0  0  0  0  0  0  0
    8.8675   -3.2870   25.0311 C   0  0  0  0  0  0  0  0  0  0  0  0
    9.6063   -4.3534   25.5616 C   0  0  0  0  0  0  0  0  0  0  0  0
   10.5734   -4.6077   25.1335 H   0  0  0  0  0  0  0  0  0  0  0  0
    9.0991   -5.0673   26.6566 C   0  0  0  0  0  0  0  0  0  0  0  0
    9.6751   -5.8894   27.0722 H   0  0  0  0  0  0  0  0  0  0  0  0
    7.8684   -4.7299   27.2302 C   0  0  0  0  0  0  0  0  0  0  0  0
    7.4778   -5.2940   28.0741 H   0  0  0  0  0  0  0  0  0  0  0  0
    7.1459   -3.6591   26.6997 C   0  0  0  0  0  0  0  0  0  0  0  0
    6.1871   -3.3860   27.1309 H   0  0  0  0  0  0  0  0  0  0  0  0
    7.6358   -2.9351   25.6072 C   0  0  0  0  0  0  0  0  0  0  0  0
    7.0714   -2.0991   25.2061 H   0  0  0  0  0  0  0  0  0  0  0  0
    9.1961   -0.9596   22.4021 N   0  0  0  0  0  0  0  0  0  0  0  0
   10.0722   -0.5303   22.6305 H   0  0  0  0  0  0  0  0  0  0  0  0
    8.6015   -0.2291   21.4033 C   0  0  0  0  0  0  0  0  0  0  0  0
    9.1934    0.7275   20.9646 O   0  0  0  0  0  0  0  0  0  0  0  0
    5.4578    0.6562   20.1502 C   0  0  0  0  0  0  0  0  0  0  0  0
    5.0370    0.6003   21.1531 H   0  0  0  0  0  0  0  0  0  0  0  0
    4.8116    1.3177   19.0986 C   0  0  0  0  0  0  0  0  0  0  0  0
    3.8777    1.8403   19.2539 H   0  0  0  0  0  0  0  0  0  0  0  0
  1  2  1  0
  2  3  2  0
  3  4  1  0
  4  5  1  0
  4  6  2  0
  6  7  1  0
  7  8  1  0
  8  9  2  0
  8 10  1  0
 10 11  1  0
 10 12  2  0
 12 13  1  0
 13 14  1  0
 14 15  2  0
 15 16  1  0
 15 17  1  0
 17 18  1  0
 17 19  2  0
 19 20  1  0
 19 21  1  0
 21 22  1  0
 21 23  2  0
 23 24  1  0
 12 25  1  0
 25 26  1  0
 25 27  1  0
 27 28  2  0
  6 29  1  0
 29 30  1  0
 29 31  2  0
 31 32  1  0
 31  2  1  0
 27  7  1  0
 23 14  1  0
M  END
>  <cnnaffinity>  (1) 
-5.34161

>  <filename>  (1) 
O=c1cc(Oc2ccccc2)[nH]c(=O)n1-c1cccnc1

$$$$
