
     RDKit          3D

 34 36  0  0  0  0  0  0  0  0999 V2000
    4.9106    1.7798   16.9961 H   0  0  0  0  0  0  0  0  0  0  0  0
    5.4001    1.2955   17.8350 C   0  0  0  0  0  0  0  0  0  0  0  0
    6.5635    0.6803   17.5672 N   0  0  0  0  0  0  0  0  0  0  0  0
    7.1719    0.0732   18.5912 C   0  0  0  0  0  0  0  0  0  0  0  0
    8.1137   -0.4275   18.3736 H   0  0  0  0  0  0  0  0  0  0  0  0
    6.6515    0.0125   19.8962 C   0  0  0  0  0  0  0  0  0  0  0  0
    7.3647   -0.7064   20.9716 C   0  0  0  0  0  0  0  0  0  0  0  0
    8.7768   -0.5522   21.1227 C   0  0  0  0  0  0  0  0  0  0  0  0
    9.3152    0.1176   20.4453 H   0  0  0  0  0  0  0  0  0  0  0  0
    9.4243   -1.2046   22.1240 C   0  0  0  0  0  0  0  0  0  0  0  0
   10.4877   -1.1257   22.2816 H   0  0  0  0  0  0  0  0  0  0  0  0
    8.7382   -2.0862   23.0590 C   0  0  0  0  0  0  0  0  0  0  0  0
    9.3217   -2.6905   23.9412 O   0  0  0  0  0  0  0  0  0  0  0  0
    7.3260   -2.2025   22.8582 N   0  0  0  0  0  0  0  0  0  0  0  0
    6.5585   -3.0339   23.7432 C   0  0  0  0  0  0  0  0  0  0  0  0
    6.5882   -2.7997   25.1223 C   0  0  0  0  0  0  0  0  0  0  0  0
    7.1870   -1.9890   25.5173 H   0  0  0  0  0  0  0  0  0  0  0  0
    5.8523   -3.6099   25.9820 C   0  0  0  0  0  0  0  0  0  0  0  0
    5.8731   -3.4147   27.0519 H   0  0  0  0  0  0  0  0  0  0  0  0
    5.0964   -4.6741   25.4648 C   0  0  0  0  0  0  0  0  0  0  0  0
    4.2590   -5.5242   26.3902 C   0  0  0  0  0  0  0  0  0  0  0  0
    4.7937   -5.6391   27.6210 F   0  0  0  0  0  0  0  0  0  0  0  0
    3.0265   -5.0024   26.5574 F   0  0  0  0  0  0  0  0  0  0  0  0
    4.0802   -6.7772   25.9257 F   0  0  0  0  0  0  0  0  0  0  0  0
    5.0538   -4.9015   24.0800 C   0  0  0  0  0  0  0  0  0  0  0  0
    4.4433   -5.6987   23.6636 H   0  0  0  0  0  0  0  0  0  0  0  0
    5.7857   -4.0800   23.2254 C   0  0  0  0  0  0  0  0  0  0  0  0
    5.7761   -4.2504   22.1556 H   0  0  0  0  0  0  0  0  0  0  0  0
    6.6890   -1.5233   21.8399 C   0  0  0  0  0  0  0  0  0  0  0  0
    5.6146   -1.6759   21.7462 H   0  0  0  0  0  0  0  0  0  0  0  0
    5.4301    0.6504   20.1506 C   0  0  0  0  0  0  0  0  0  0  0  0
    5.0099    0.6359   21.1603 H   0  0  0  0  0  0  0  0  0  0  0  0
    4.8017    1.3181   19.1016 C   0  0  0  0  0  0  0  0  0  0  0  0
    3.8682    1.8480   19.2598 H   0  0  0  0  0  0  0  0  0  0  0  0
  1  2  1  0
  2  3  2  0
  3  4  1  0
  4  5  1  0
  4  6  2  0
  6  7  1  0
  7  8  1  0
  8  9  1  0
  8 10  2  0
 10 11  1  0
 10 12  1  0
 12 13  2  0
 12 14  1  0
 14 15  1  0
 15 16  2  0
 16 17  1  0
 16 18  1  0
 18 19  1  0
 18 20  2  0
 20 21  1  0
 21 22  1  0
 21 23  1  0
 21 24  1  0
 20 25  1  0
 25 26  1  0
 25 27  2  0
 27 28  1  0
 14 29  1  0
 29 30  1  0
  6 31  1  0
 31 32  1  0
 31 33  2  0
 33 34  1  0
 33  2  1  0
 29  7  2  0
 27 15  1  0
M  END
>  <cnnaffinity>  (1) 
-5.24642

>  <filename>  (1) 
O=c1ccc(-c2cccnc2)cn1-c1ccc(C(F)(F)F)cc1

$$$$
