
     RDKit          3D

 29 31  0  0  0  0  0  0  0  0999 V2000
    5.0422    1.7695   16.9665 H   0  0  0  0  0  0  0  0  0  0  0  0
    5.5022    1.2733   17.8155 C   0  0  0  0  0  0  0  0  0  0  0  0
    6.6576    0.6365   17.5670 N   0  0  0  0  0  0  0  0  0  0  0  0
    7.2610    0.0335   18.6014 C   0  0  0  0  0  0  0  0  0  0  0  0
    8.1830   -0.5015   18.3672 H   0  0  0  0  0  0  0  0  0  0  0  0
    6.7537    0.0220   19.9164 C   0  0  0  0  0  0  0  0  0  0  0  0
    7.4585   -0.6652   21.0338 C   0  0  0  0  0  0  0  0  0  0  0  0
    6.7264   -1.5568   21.8812 C   0  0  0  0  0  0  0  0  0  0  0  0
    5.6730   -1.7293   21.6588 H   0  0  0  0  0  0  0  0  0  0  0  0
    7.3335   -2.1971   22.9171 C   0  0  0  0  0  0  0  0  0  0  0  0
    6.8259   -2.8900   23.5702 H   0  0  0  0  0  0  0  0  0  0  0  0
    8.7375   -1.9943   23.2517 C   0  0  0  0  0  0  0  0  0  0  0  0
    9.2776   -2.5272   24.2051 O   0  0  0  0  0  0  0  0  0  0  0  0
    9.4399   -1.1306   22.3371 N   0  0  0  0  0  0  0  0  0  0  0  0
   10.8440   -0.8830   22.5436 C   0  0  0  0  0  0  0  0  0  0  0  0
   11.8232   -1.3916   21.6654 C   0  0  0  0  0  0  0  0  0  0  0  0
   11.5534   -2.0834   20.8791 H   0  0  0  0  0  0  0  0  0  0  0  0
   13.1229   -1.1031   21.7952 N   0  0  0  0  0  0  0  0  0  0  0  0
   13.5445   -0.3140   22.7877 N   0  0  0  0  0  0  0  0  0  0  0  0
   12.6636    0.1635   23.6802 C   0  0  0  0  0  0  0  0  0  0  0  0
   13.0877    0.7777   24.4712 H   0  0  0  0  0  0  0  0  0  0  0  0
   11.2867   -0.1233   23.6157 C   0  0  0  0  0  0  0  0  0  0  0  0
   10.6023    0.2281   24.3793 H   0  0  0  0  0  0  0  0  0  0  0  0
    8.7882   -0.4777   21.2939 C   0  0  0  0  0  0  0  0  0  0  0  0
    9.3906    0.2203   20.7190 H   0  0  0  0  0  0  0  0  0  0  0  0
    5.5168    0.6554   20.1309 C   0  0  0  0  0  0  0  0  0  0  0  0
    5.0750    0.6379   21.1274 H   0  0  0  0  0  0  0  0  0  0  0  0
    4.8874    1.3079   19.0715 C   0  0  0  0  0  0  0  0  0  0  0  0
    3.9454    1.8310   19.2065 H   0  0  0  0  0  0  0  0  0  0  0  0
  1  2  1  0
  2  3  2  0
  3  4  1  0
  4  5  1  0
  4  6  2  0
  6  7  1  0
  7  8  1  0
  8  9  1  0
  8 10  2  0
 10 11  1  0
 10 12  1  0
 12 13  2  0
 12 14  1  0
 14 15  1  0
 15 16  2  0
 16 17  1  0
 16 18  1  0
 18 19  2  0
 19 20  1  0
 20 21  1  0
 20 22  2  0
 22 23  1  0
 14 24  1  0
 24 25  1  0
  6 26  1  0
 26 27  1  0
 26 28  2  0
 28 29  1  0
 28  2  1  0
 24  7  2  0
 22 15  1  0
M  END
>  <cnnaffinity>  (1) 
-5.44979

>  <filename>  (1) 
O=c1ccc(-c2cccnc2)cn1-c1ccnnc1

$$$$
