
     RDKit          3D

 21 22  0  0  0  0  0  0  0  0999 V2000
    4.8768    1.8065   17.0069 H   0  0  0  0  0  0  0  0  0  0  0  0
    5.3937    1.3035   17.8125 C   0  0  0  0  0  0  0  0  0  0  0  0
    6.5606    0.6961   17.5283 N   0  0  0  0  0  0  0  0  0  0  0  0
    7.1785    0.0820   18.5525 C   0  0  0  0  0  0  0  0  0  0  0  0
    8.1239   -0.4265   18.3906 H   0  0  0  0  0  0  0  0  0  0  0  0
    6.6496    0.0181   19.8652 C   0  0  0  0  0  0  0  0  0  0  0  0
    7.3204   -0.6504   20.9065 N   0  0  0  0  0  0  0  0  0  0  0  0
    8.5503   -0.2278   21.3686 C   0  0  0  0  0  0  0  0  0  0  0  0
    9.0928    0.7521   20.8872 O   0  0  0  0  0  0  0  0  0  0  0  0
    9.2499   -0.9247   22.4143 C   0  0  0  0  0  0  0  0  0  0  0  0
   10.2061   -0.5370   22.7271 H   0  0  0  0  0  0  0  0  0  0  0  0
    8.6993   -2.0354   22.9738 C   0  0  0  0  0  0  0  0  0  0  0  0
    9.5881   -2.9880   24.3668 Br  0  0  0  0  0  0  0  0  0  0  0  0
    7.4705   -2.4409   22.4880 N   0  0  0  0  0  0  0  0  0  0  0  0
    6.9967   -3.2477   22.8670 H   0  0  0  0  0  0  0  0  0  0  0  0
    6.7875   -1.7640   21.5198 C   0  0  0  0  0  0  0  0  0  0  0  0
    5.7439   -2.2815   21.1662 O   0  0  0  0  0  0  0  0  0  0  0  0
    5.4373    0.6418   20.1474 C   0  0  0  0  0  0  0  0  0  0  0  0
    5.0216    0.6200   21.1614 H   0  0  0  0  0  0  0  0  0  0  0  0
    4.8127    1.3074   19.0935 C   0  0  0  0  0  0  0  0  0  0  0  0
    3.8802    1.8329   19.2593 H   0  0  0  0  0  0  0  0  0  0  0  0
  1  2  1  0
  2  3  2  0
  3  4  1  0
  4  5  1  0
  4  6  2  0
  6  7  1  0
  7  8  1  0
  8  9  2  0
  8 10  1  0
 10 11  1  0
 10 12  2  0
 12 13  1  0
 12 14  1  0
 14 15  1  0
 14 16  1  0
 16 17  2  0
  6 18  1  0
 18 19  1  0
 18 20  2  0
 20 21  1  0
 20  2  1  0
 16  7  1  0
M  END
>  <cnnaffinity>  (1) 
-4.92491

>  <filename>  (1) 
O=c1cc(Br)[nH]c(=O)n1-c1cccnc1

$$$$
