
     RDKit          3D

 24 25  0  0  0  0  0  0  0  0999 V2000
    4.9218    1.7784   16.9987 H   0  0  0  0  0  0  0  0  0  0  0  0
    5.4063    1.2877   17.8424 C   0  0  0  0  0  0  0  0  0  0  0  0
    6.5707    0.6678   17.5812 N   0  0  0  0  0  0  0  0  0  0  0  0
    7.2051    0.0811   18.6026 C   0  0  0  0  0  0  0  0  0  0  0  0
    8.1427   -0.4202   18.3811 H   0  0  0  0  0  0  0  0  0  0  0  0
    6.6936    0.0471   19.9123 C   0  0  0  0  0  0  0  0  0  0  0  0
    7.3891   -0.6467   20.9541 N   0  0  0  0  0  0  0  0  0  0  0  0
    8.7229   -0.3384   21.0647 N   0  0  0  0  0  0  0  0  0  0  0  0
    9.4023   -0.9215   22.0098 C   0  0  0  0  0  0  0  0  0  0  0  0
   11.0929   -0.4539   22.2098 S   0  0  0  0  0  0  0  0  0  0  0  0
   10.7919    0.9287   23.4060 C   0  0  0  0  0  0  0  0  0  0  0  0
   10.2163    0.4834   24.5268 F   0  0  0  0  0  0  0  0  0  0  0  0
   10.0157    1.8604   22.8672 F   0  0  0  0  0  0  0  0  0  0  0  0
   11.9681    1.4718   23.7248 F   0  0  0  0  0  0  0  0  0  0  0  0
    8.8288   -1.9096   22.9036 C   0  0  0  0  0  0  0  0  0  0  0  0
    9.4619   -2.3440   23.6763 H   0  0  0  0  0  0  0  0  0  0  0  0
    7.5286   -2.2546   22.7567 C   0  0  0  0  0  0  0  0  0  0  0  0
    7.0123   -2.9960   23.3606 H   0  0  0  0  0  0  0  0  0  0  0  0
    6.6906   -1.6580   21.7160 C   0  0  0  0  0  0  0  0  0  0  0  0
    5.5470   -1.9913   21.4755 O   0  0  0  0  0  0  0  0  0  0  0  0
    5.4590    0.6526   20.1700 C   0  0  0  0  0  0  0  0  0  0  0  0
    5.0188    0.6063   21.1653 H   0  0  0  0  0  0  0  0  0  0  0  0
    4.8212    1.3068   19.1116 C   0  0  0  0  0  0  0  0  0  0  0  0
    3.8854    1.8331   19.2617 H   0  0  0  0  0  0  0  0  0  0  0  0
  1  2  1  0
  2  3  2  0
  3  4  1  0
  4  5  1  0
  4  6  2  0
  6  7  1  0
  7  8  1  0
  8  9  2  0
  9 10  1  0
 10 11  1  0
 11 12  1  0
 11 13  1  0
 11 14  1  0
  9 15  1  0
 15 16  1  0
 15 17  2  0
 17 18  1  0
 17 19  1  0
 19 20  2  0
  6 21  1  0
 21 22  1  0
 21 23  2  0
 23 24  1  0
 23  2  1  0
 19  7  1  0
M  END
>  <cnnaffinity>  (1) 
-5.26033

>  <filename>  (1) 
O=c1ccc(SC(F)(F)F)nn1-c1cccnc1

$$$$
