
     RDKit          3D

 35 38  0  0  0  0  0  0  0  0999 V2000
    4.9829    1.8464   16.8663 H   0  0  0  0  0  0  0  0  0  0  0  0
    5.4479    1.3378   17.7074 C   0  0  0  0  0  0  0  0  0  0  0  0
    6.6034    0.7035   17.4481 N   0  0  0  0  0  0  0  0  0  0  0  0
    7.2035    0.0759   18.4672 C   0  0  0  0  0  0  0  0  0  0  0  0
    8.1263   -0.4450   18.2147 H   0  0  0  0  0  0  0  0  0  0  0  0
    6.6989    0.0450   19.7796 C   0  0  0  0  0  0  0  0  0  0  0  0
    7.3714   -0.6594   20.8688 C   0  0  0  0  0  0  0  0  0  0  0  0
    6.8417   -1.1845   21.9931 C   0  0  0  0  0  0  0  0  0  0  0  0
    5.8115   -1.3602   22.2418 H   0  0  0  0  0  0  0  0  0  0  0  0
    7.8708   -1.6729   22.7935 N   0  0  0  0  0  0  0  0  0  0  0  0
    7.7255   -2.3034   24.0621 C   0  0  0  0  0  0  0  0  0  0  0  0
    6.7480   -1.8214   24.9887 C   0  0  0  0  0  0  0  0  0  0  0  0
    6.1686   -0.9447   24.7161 H   0  0  0  0  0  0  0  0  0  0  0  0
    6.5367   -2.4690   26.1884 C   0  0  0  0  0  0  0  0  0  0  0  0
    5.7929   -2.1014   26.8940 H   0  0  0  0  0  0  0  0  0  0  0  0
    7.2402   -3.6765   26.4971 C   0  0  0  0  0  0  0  0  0  0  0  0
    6.9899   -4.4497   27.6756 C   0  0  0  0  0  0  0  0  0  0  0  0
    6.3003   -4.0500   28.4156 H   0  0  0  0  0  0  0  0  0  0  0  0
    7.5778   -5.6842   27.8409 C   0  0  0  0  0  0  0  0  0  0  0  0
    7.3437   -6.3000   28.7067 H   0  0  0  0  0  0  0  0  0  0  0  0
    8.4746   -6.1759   26.8535 C   0  0  0  0  0  0  0  0  0  0  0  0
    8.8890   -7.1661   26.9452 H   0  0  0  0  0  0  0  0  0  0  0  0
    8.8030   -5.4248   25.7547 C   0  0  0  0  0  0  0  0  0  0  0  0
    9.4914   -5.8202   25.0155 H   0  0  0  0  0  0  0  0  0  0  0  0
    8.2010   -4.1540   25.5465 C   0  0  0  0  0  0  0  0  0  0  0  0
    8.4880   -3.3993   24.3751 C   0  0  0  0  0  0  0  0  0  0  0  0
    9.3171   -3.6734   23.7335 H   0  0  0  0  0  0  0  0  0  0  0  0
    9.0774   -1.5519   22.0988 C   0  0  0  0  0  0  0  0  0  0  0  0
   10.1987   -1.9135   22.3935 O   0  0  0  0  0  0  0  0  0  0  0  0
    8.7335   -0.9104   20.9338 N   0  0  0  0  0  0  0  0  0  0  0  0
    9.4805   -0.6130   20.3394 H   0  0  0  0  0  0  0  0  0  0  0  0
    5.4791    0.7048   20.0223 C   0  0  0  0  0  0  0  0  0  0  0  0
    5.0561    0.7167   21.0283 H   0  0  0  0  0  0  0  0  0  0  0  0
    4.8451    1.3605   18.9700 C   0  0  0  0  0  0  0  0  0  0  0  0
    3.9055    1.8841   19.1130 H   0  0  0  0  0  0  0  0  0  0  0  0
  1  2  1  0
  2  3  2  0
  3  4  1  0
  4  5  1  0
  4  6  2  0
  6  7  1  0
  7  8  2  0
  8  9  1  0
  8 10  1  0
 10 11  1  0
 11 12  2  0
 12 13  1  0
 12 14  1  0
 14 15  1  0
 14 16  2  0
 16 17  1  0
 17 18  1  0
 17 19  2  0
 19 20  1  0
 19 21  1  0
 21 22  1  0
 21 23  2  0
 23 24  1  0
 23 25  1  0
 25 26  2  0
 26 27  1  0
 10 28  1  0
 28 29  2  0
 28 30  1  0
 30 31  1  0
  6 32  1  0
 32 33  1  0
 32 34  2  0
 34 35  1  0
 34  2  1  0
 30  7  1  0
 26 11  1  0
 25 16  1  0
M  END
>  <cnnaffinity>  (1) 
-5.42417

>  <filename>  (1) 
O=c1[nH]c(-c2cccnc2)cn1-c1ccc2ccccc2c1

$$$$
