
     RDKit          3D

 34 36  0  0  0  0  0  0  0  0999 V2000
    4.9508    1.8390   16.8216 H   0  0  0  0  0  0  0  0  0  0  0  0
    5.4316    1.3542   17.6681 C   0  0  0  0  0  0  0  0  0  0  0  0
    6.5795    0.7074   17.4108 N   0  0  0  0  0  0  0  0  0  0  0  0
    7.2202    0.1264   18.4339 C   0  0  0  0  0  0  0  0  0  0  0  0
    8.1534   -0.3790   18.1935 H   0  0  0  0  0  0  0  0  0  0  0  0
    6.7420    0.1560   19.7606 C   0  0  0  0  0  0  0  0  0  0  0  0
    7.4305   -0.4562   20.8716 N   0  0  0  0  0  0  0  0  0  0  0  0
    6.6854   -1.2272   21.7593 C   0  0  0  0  0  0  0  0  0  0  0  0
    5.6277   -1.3379   21.5160 H   0  0  0  0  0  0  0  0  0  0  0  0
    7.2217   -1.8081   22.8470 C   0  0  0  0  0  0  0  0  0  0  0  0
    6.4786   -2.8025   23.7052 C   0  0  0  0  0  0  0  0  0  0  0  0
    6.6081   -2.5414   24.7642 H   0  0  0  0  0  0  0  0  0  0  0  0
    5.3968   -2.7677   23.5161 H   0  0  0  0  0  0  0  0  0  0  0  0
    7.0008   -4.2172   23.4665 C   0  0  0  0  0  0  0  0  0  0  0  0
    7.9831   -4.7554   24.3188 C   0  0  0  0  0  0  0  0  0  0  0  0
    8.3091   -4.1554   25.1668 H   0  0  0  0  0  0  0  0  0  0  0  0
    8.5452   -6.0122   24.0849 C   0  0  0  0  0  0  0  0  0  0  0  0
    9.2924   -6.4254   24.7593 H   0  0  0  0  0  0  0  0  0  0  0  0
    8.1412   -6.7512   22.9672 C   0  0  0  0  0  0  0  0  0  0  0  0
    8.5866   -7.7181   22.7500 H   0  0  0  0  0  0  0  0  0  0  0  0
    7.1573   -6.2565   22.1144 C   0  0  0  0  0  0  0  0  0  0  0  0
    6.8017   -6.8485   21.2765 H   0  0  0  0  0  0  0  0  0  0  0  0
    6.6073   -4.9947   22.3609 C   0  0  0  0  0  0  0  0  0  0  0  0
    5.4856   -4.3760   21.1770 Cl  0  0  0  0  0  0  0  0  0  0  0  0
    8.6397   -1.5660   23.1584 C   0  0  0  0  0  0  0  0  0  0  0  0
    9.2492   -1.9212   24.1476 O   0  0  0  0  0  0  0  0  0  0  0  0
    9.3127   -0.8496   22.2030 N   0  0  0  0  0  0  0  0  0  0  0  0
   10.2699   -0.6439   22.4045 H   0  0  0  0  0  0  0  0  0  0  0  0
    8.8015   -0.2003   21.1260 C   0  0  0  0  0  0  0  0  0  0  0  0
    9.5035    0.5172   20.4570 O   0  0  0  0  0  0  0  0  0  0  0  0
    5.5248    0.8013   20.0029 C   0  0  0  0  0  0  0  0  0  0  0  0
    5.1220    0.8271   21.0153 H   0  0  0  0  0  0  0  0  0  0  0  0
    4.8633    1.4193   18.9426 C   0  0  0  0  0  0  0  0  0  0  0  0
    3.9244    1.9378   19.0979 H   0  0  0  0  0  0  0  0  0  0  0  0
  1  2  1  0
  2  3  2  0
  3  4  1  0
  4  5  1  0
  4  6  2  0
  6  7  1  0
  7  8  1  0
  8  9  1  0
  8 10  2  0
 10 11  1  0
 11 12  1  0
 11 13  1  0
 11 14  1  0
 14 15  2  0
 15 16  1  0
 15 17  1  0
 17 18  1  0
 17 19  2  0
 19 20  1  0
 19 21  1  0
 21 22  1  0
 21 23  2  0
 23 24  1  0
 10 25  1  0
 25 26  2  0
 25 27  1  0
 27 28  1  0
 27 29  1  0
 29 30  2  0
  6 31  1  0
 31 32  1  0
 31 33  2  0
 33 34  1  0
 33  2  1  0
 29  7  1  0
 23 14  1  0
M  END
>  <cnnaffinity>  (1) 
-5.40266

>  <filename>  (1) 
O=c1[nH]c(=O)n(-c2cccnc2)cc1Cc1ccccc1Cl

$$$$
