
     RDKit          3D

 29 31  0  0  0  0  0  0  0  0999 V2000
    8.9549   -5.1310   27.6715 H   0  0  0  0  0  0  0  0  0  0  0  0
    8.5444   -4.4338   26.9428 C   0  0  0  0  0  0  0  0  0  0  0  0
    9.3125   -4.0239   25.8711 N   0  0  0  0  0  0  0  0  0  0  0  0
    8.6166   -3.2662   25.0926 C   0  0  0  0  0  0  0  0  0  0  0  0
    9.2231   -2.7903   23.9536 N   0  0  0  0  0  0  0  0  0  0  0  0
   10.2170   -2.7958   24.0892 H   0  0  0  0  0  0  0  0  0  0  0  0
    8.6949   -2.0100   22.9859 C   0  0  0  0  0  0  0  0  0  0  0  0
    9.2947   -0.9492   22.4427 C   0  0  0  0  0  0  0  0  0  0  0  0
   10.2487   -0.5806   22.7748 H   0  0  0  0  0  0  0  0  0  0  0  0
    8.6443   -0.2203   21.3981 C   0  0  0  0  0  0  0  0  0  0  0  0
    9.1260    0.7643   20.8724 O   0  0  0  0  0  0  0  0  0  0  0  0
    7.3591   -0.7032   20.9604 N   0  0  0  0  0  0  0  0  0  0  0  0
    6.6515   -0.0115   19.8894 C   0  0  0  0  0  0  0  0  0  0  0  0
    7.1681    0.0541   18.5767 C   0  0  0  0  0  0  0  0  0  0  0  0
    8.1269   -0.4109   18.3517 H   0  0  0  0  0  0  0  0  0  0  0  0
    6.5495    0.6770   17.5662 N   0  0  0  0  0  0  0  0  0  0  0  0
    5.3899    1.2989   17.8319 C   0  0  0  0  0  0  0  0  0  0  0  0
    4.9174    1.8019   16.9890 H   0  0  0  0  0  0  0  0  0  0  0  0
    4.8053    1.3121   19.1002 C   0  0  0  0  0  0  0  0  0  0  0  0
    3.8774    1.8464   19.2516 H   0  0  0  0  0  0  0  0  0  0  0  0
    5.4424    0.6348   20.1483 C   0  0  0  0  0  0  0  0  0  0  0  0
    5.0274    0.6074   21.1523 H   0  0  0  0  0  0  0  0  0  0  0  0
    6.7872   -1.8352   21.5366 C   0  0  0  0  0  0  0  0  0  0  0  0
    5.7472   -2.3508   21.1907 O   0  0  0  0  0  0  0  0  0  0  0  0
    7.4800   -2.4049   22.5611 N   0  0  0  0  0  0  0  0  0  0  0  0
    7.0502   -3.2605   22.8521 H   0  0  0  0  0  0  0  0  0  0  0  0
    7.0029   -2.8914   25.6496 S   0  0  0  0  0  0  0  0  0  0  0  0
    7.2900   -3.9349   26.9996 C   0  0  0  0  0  0  0  0  0  0  0  0
    6.5215   -4.1088   27.7350 H   0  0  0  0  0  0  0  0  0  0  0  0
  1  2  1  0
  2  3  1  0
  3  4  2  0
  4  5  1  0
  5  6  1  0
  5  7  1  0
  7  8  2  0
  8  9  1  0
  8 10  1  0
 10 11  2  0
 10 12  1  0
 12 13  1  0
 13 14  2  0
 14 15  1  0
 14 16  1  0
 16 17  2  0
 17 18  1  0
 17 19  1  0
 19 20  1  0
 19 21  2  0
 21 22  1  0
 12 23  1  0
 23 24  2  0
 23 25  1  0
 25 26  1  0
  4 27  1  0
 27 28  1  0
 28 29  1  0
 28  2  2  0
 25  7  1  0
 21 13  1  0
M  END
>  <cnnaffinity>  (1) 
-5.24986

>  <filename>  (1) 
O=c1cc(Nc2nccs2)[nH]c(=O)n1-c1cccnc1

$$$$
