
     RDKit          3D

 33 35  0  0  0  0  0  0  0  0999 V2000
    4.9639    1.7809   16.9789 H   0  0  0  0  0  0  0  0  0  0  0  0
    5.4162    1.3074   17.8479 C   0  0  0  0  0  0  0  0  0  0  0  0
    6.6062    0.7195   17.6458 N   0  0  0  0  0  0  0  0  0  0  0  0
    7.1902    0.1238   18.6942 C   0  0  0  0  0  0  0  0  0  0  0  0
    8.1538   -0.3458   18.5085 H   0  0  0  0  0  0  0  0  0  0  0  0
    6.6185    0.0870   19.9793 C   0  0  0  0  0  0  0  0  0  0  0  0
    7.2163   -0.6355   21.0622 N   0  0  0  0  0  0  0  0  0  0  0  0
    7.4946    0.1088   22.1772 N   0  0  0  0  0  0  0  0  0  0  0  0
    8.1887   -0.4537   23.1279 C   0  0  0  0  0  0  0  0  0  0  0  0
    8.4415    0.3732   24.3664 C   0  0  0  0  0  0  0  0  0  0  0  0
    8.4620   -0.2886   25.2374 H   0  0  0  0  0  0  0  0  0  0  0  0
    7.5987    1.0613   24.4882 H   0  0  0  0  0  0  0  0  0  0  0  0
    9.7388    1.1368   24.2511 C   0  0  0  0  0  0  0  0  0  0  0  0
    9.7578    2.3698   23.5908 C   0  0  0  0  0  0  0  0  0  0  0  0
    8.8195    2.8159   23.2684 H   0  0  0  0  0  0  0  0  0  0  0  0
   10.9615    3.0201   23.3264 C   0  0  0  0  0  0  0  0  0  0  0  0
   10.9820    3.9686   22.7980 H   0  0  0  0  0  0  0  0  0  0  0  0
   12.1689    2.4286   23.7103 C   0  0  0  0  0  0  0  0  0  0  0  0
   13.6430    3.2120   23.2592 Cl  0  0  0  0  0  0  0  0  0  0  0  0
   12.1557    1.2050   24.3984 C   0  0  0  0  0  0  0  0  0  0  0  0
   13.6123    0.4031   24.8516 Cl  0  0  0  0  0  0  0  0  0  0  0  0
   10.9417    0.5760   24.6859 C   0  0  0  0  0  0  0  0  0  0  0  0
   10.9645   -0.3586   25.2448 H   0  0  0  0  0  0  0  0  0  0  0  0
    8.6977   -1.8040   23.0015 C   0  0  0  0  0  0  0  0  0  0  0  0
    9.4107   -2.1674   23.7499 H   0  0  0  0  0  0  0  0  0  0  0  0
    8.2409   -2.5996   21.9938 C   0  0  0  0  0  0  0  0  0  0  0  0
    8.4907   -3.6486   21.8792 H   0  0  0  0  0  0  0  0  0  0  0  0
    7.2549   -2.0817   21.0373 C   0  0  0  0  0  0  0  0  0  0  0  0
    6.5716   -2.7388   20.2784 O   0  0  0  0  0  0  0  0  0  0  0  0
    5.4229    0.7711   20.1970 C   0  0  0  0  0  0  0  0  0  0  0  0
    5.0384    0.8568   21.2133 H   0  0  0  0  0  0  0  0  0  0  0  0
    4.7886    1.3611   19.0978 C   0  0  0  0  0  0  0  0  0  0  0  0
    3.8501    1.8897   19.2130 H   0  0  0  0  0  0  0  0  0  0  0  0
  1  2  1  0
  2  3  2  0
  3  4  1  0
  4  5  1  0
  4  6  2  0
  6  7  1  0
  7  8  1  0
  8  9  2  0
  9 10  1  0
 10 11  1  0
 10 12  1  0
 10 13  1  0
 13 14  2  0
 14 15  1  0
 14 16  1  0
 16 17  1  0
 16 18  2  0
 18 19  1  0
 18 20  1  0
 20 21  1  0
 20 22  2  0
 22 23  1  0
  9 24  1  0
 24 25  1  0
 24 26  2  0
 26 27  1  0
 26 28  1  0
 28 29  2  0
  6 30  1  0
 30 31  1  0
 30 32  2  0
 32 33  1  0
 32  2  1  0
 28  7  1  0
 22 13  1  0
M  END
>  <cnnaffinity>  (1) 
-5.92714

>  <filename>  (1) 
O=c1ccc(Cc2ccc(Cl)c(Cl)c2)nn1-c1cccnc1

$$$$
