
     RDKit          3D

 31 34  0  0  0  0  0  0  0  0999 V2000
    4.9236    1.7952   16.9953 H   0  0  0  0  0  0  0  0  0  0  0  0
    5.3929    1.2910   17.8352 C   0  0  0  0  0  0  0  0  0  0  0  0
    6.5492    0.6655   17.5637 N   0  0  0  0  0  0  0  0  0  0  0  0
    7.1698    0.0529   18.5760 C   0  0  0  0  0  0  0  0  0  0  0  0
    8.1286   -0.4169   18.3667 H   0  0  0  0  0  0  0  0  0  0  0  0
    6.6642    0.0082   19.8929 C   0  0  0  0  0  0  0  0  0  0  0  0
    7.3700   -0.6603   20.9300 N   0  0  0  0  0  0  0  0  0  0  0  0
    6.7849   -1.4281   21.9206 C   0  0  0  0  0  0  0  0  0  0  0  0
    5.7185   -1.5999   21.9691 H   0  0  0  0  0  0  0  0  0  0  0  0
    7.7505   -1.9208   22.7305 C   0  0  0  0  0  0  0  0  0  0  0  0
    7.5354   -2.7685   23.9001 C   0  0  0  0  0  0  0  0  0  0  0  0
    6.3887   -3.1782   24.3314 N   0  0  0  0  0  0  0  0  0  0  0  0
    6.7064   -3.9385   25.4516 C   0  0  0  0  0  0  0  0  0  0  0  0
    5.8853   -4.6367   26.3446 C   0  0  0  0  0  0  0  0  0  0  0  0
    4.8108   -4.6102   26.1841 H   0  0  0  0  0  0  0  0  0  0  0  0
    6.5047   -5.3257   27.3901 C   0  0  0  0  0  0  0  0  0  0  0  0
    5.8882   -5.8782   28.0922 H   0  0  0  0  0  0  0  0  0  0  0  0
    7.9100   -5.3153   27.5390 C   0  0  0  0  0  0  0  0  0  0  0  0
    8.3592   -5.8688   28.3579 H   0  0  0  0  0  0  0  0  0  0  0  0
    8.7408   -4.6165   26.6530 C   0  0  0  0  0  0  0  0  0  0  0  0
    9.8236   -4.5973   26.7458 H   0  0  0  0  0  0  0  0  0  0  0  0
    8.0957   -3.9384   25.6204 C   0  0  0  0  0  0  0  0  0  0  0  0
    8.6296   -3.1833   24.6179 O   0  0  0  0  0  0  0  0  0  0  0  0
    8.9617   -1.4432   22.2121 N   0  0  0  0  0  0  0  0  0  0  0  0
    9.9197   -1.5512   22.4991 H   0  0  0  0  0  0  0  0  0  0  0  0
    8.7715   -0.6577   21.1124 C   0  0  0  0  0  0  0  0  0  0  0  0
    9.6473   -0.1123   20.4754 O   0  0  0  0  0  0  0  0  0  0  0  0
    5.4467    0.6425   20.1602 C   0  0  0  0  0  0  0  0  0  0  0  0
    5.0335    0.6402   21.1694 H   0  0  0  0  0  0  0  0  0  0  0  0
    4.8111    1.3045   19.1068 C   0  0  0  0  0  0  0  0  0  0  0  0
    3.8825    1.8355   19.2628 H   0  0  0  0  0  0  0  0  0  0  0  0
  1  2  1  0
  2  3  2  0
  3  4  1  0
  4  5  1  0
  4  6  2  0
  6  7  1  0
  7  8  1  0
  8  9  1  0
  8 10  2  0
 10 11  1  0
 11 12  2  0
 12 13  1  0
 13 14  2  0
 14 15  1  0
 14 16  1  0
 16 17  1  0
 16 18  2  0
 18 19  1  0
 18 20  1  0
 20 21  1  0
 20 22  2  0
 22 23  1  0
 10 24  1  0
 24 25  1  0
 24 26  1  0
 26 27  2  0
  6 28  1  0
 28 29  1  0
 28 30  2  0
 30 31  1  0
 30  2  1  0
 26  7  1  0
 23 11  1  0
 22 13  1  0
M  END
>  <cnnaffinity>  (1) 
-5.44651

>  <filename>  (1) 
O=c1[nH]c(-c2nc3ccccc3o2)cn1-c1cccnc1

$$$$
