
     RDKit          3D

 32 34  0  0  0  0  0  0  0  0999 V2000
    4.9239    1.8328   16.9687 H   0  0  0  0  0  0  0  0  0  0  0  0
    5.3931    1.3118   17.7990 C   0  0  0  0  0  0  0  0  0  0  0  0
    6.5546    0.6955   17.5307 N   0  0  0  0  0  0  0  0  0  0  0  0
    7.1611    0.0672   18.5454 C   0  0  0  0  0  0  0  0  0  0  0  0
    8.1130   -0.4076   18.2999 H   0  0  0  0  0  0  0  0  0  0  0  0
    6.6483   -0.0079   19.8558 C   0  0  0  0  0  0  0  0  0  0  0  0
    7.3915   -0.7135   20.9701 C   0  0  2  0  0  0  0  0  0  0  0  0
    8.3019   -1.1425   20.5315 H   0  0  0  0  0  0  0  0  0  0  0  0
    6.5929   -1.8530   21.6734 C   0  0  0  0  0  0  0  0  0  0  0  0
    7.0870   -2.8286   21.5477 H   0  0  0  0  0  0  0  0  0  0  0  0
    5.5789   -1.9456   21.2559 H   0  0  0  0  0  0  0  0  0  0  0  0
    6.5616   -1.4800   23.0799 N   0  0  0  0  0  0  0  0  0  0  0  0
    5.8073   -1.7319   23.7071 H   0  0  0  0  0  0  0  0  0  0  0  0
    7.0566   -0.2390   23.3539 C   0  0  0  0  0  0  0  0  0  0  0  0
    6.9138    0.3244   24.4164 O   0  0  0  0  0  0  0  0  0  0  0  0
    7.8007    0.2577   22.1214 C   0  0  1  0  0  0  0  0  0  0  0  0
    7.4650    1.2848   21.9518 H   0  0  0  0  0  0  0  0  0  0  0  0
    9.2993    0.2802   22.3544 C   0  0  0  0  0  0  0  0  0  0  0  0
    9.9428   -0.9136   22.7044 C   0  0  0  0  0  0  0  0  0  0  0  0
    9.3403   -1.7911   22.9306 H   0  0  0  0  0  0  0  0  0  0  0  0
   11.3314   -0.9892   22.7712 C   0  0  0  0  0  0  0  0  0  0  0  0
   11.8306   -1.9390   22.8764 H   0  0  0  0  0  0  0  0  0  0  0  0
   12.0802    0.1839   22.6442 C   0  0  0  0  0  0  0  0  0  0  0  0
   13.7943    0.1399   22.9421 Cl  0  0  0  0  0  0  0  0  0  0  0  0
   11.4684    1.3940   22.3072 C   0  0  0  0  0  0  0  0  0  0  0  0
   12.0760    2.2892   22.1814 H   0  0  0  0  0  0  0  0  0  0  0  0
   10.0779    1.4245   22.1327 C   0  0  0  0  0  0  0  0  0  0  0  0
    9.5977    2.3505   21.8189 H   0  0  0  0  0  0  0  0  0  0  0  0
    5.4338    0.6443   20.1067 C   0  0  0  0  0  0  0  0  0  0  0  0
    5.0029    0.6388   21.1093 H   0  0  0  0  0  0  0  0  0  0  0  0
    4.7963    1.3119   19.0623 C   0  0  0  0  0  0  0  0  0  0  0  0
    3.8677    1.8444   19.2190 H   0  0  0  0  0  0  0  0  0  0  0  0
  1  2  1  0
  2  3  2  0
  3  4  1  0
  4  5  1  0
  4  6  2  0
  6  7  1  0
  7  8  1  6
  7  9  1  0
  9 10  1  0
  9 11  1  0
  9 12  1  0
 12 13  1  0
 12 14  1  0
 14 15  2  0
 14 16  1  0
 16 17  1  6
 16 18  1  0
 18 19  2  0
 19 20  1  0
 19 21  1  0
 21 22  1  0
 21 23  2  0
 23 24  1  0
 23 25  1  0
 25 26  1  0
 25 27  2  0
 27 28  1  0
  6 29  1  0
 29 30  1  0
 29 31  2  0
 31 32  1  0
 31  2  1  0
 16  7  1  0
 27 18  1  0
M  END
>  <cnnaffinity>  (1) 
-5.21186

>  <filename>  (1) 
O=C1NC[C@@H](c2cccnc2)[C@@H]1c1ccc(Cl)cc1

$$$$
