
     RDKit          3D

 40 42  0  0  0  0  0  0  0  0999 V2000
    4.9481    1.8567   16.8754 H   0  0  0  0  0  0  0  0  0  0  0  0
    5.4310    1.3515   17.7090 C   0  0  0  0  0  0  0  0  0  0  0  0
    6.5779    0.7164   17.4241 N   0  0  0  0  0  0  0  0  0  0  0  0
    7.2042    0.1001   18.4375 C   0  0  0  0  0  0  0  0  0  0  0  0
    8.1182   -0.4297   18.1727 H   0  0  0  0  0  0  0  0  0  0  0  0
    6.7325    0.0746   19.7660 C   0  0  0  0  0  0  0  0  0  0  0  0
    7.4643   -0.6212   20.8629 C   0  0  0  0  0  0  0  0  0  0  0  0
    6.7373   -1.4339   21.7915 C   0  0  0  0  0  0  0  0  0  0  0  0
    5.6592   -1.5070   21.6595 H   0  0  0  0  0  0  0  0  0  0  0  0
    7.3448   -2.1214   22.8088 C   0  0  0  0  0  0  0  0  0  0  0  0
    6.6030   -3.0247   23.7465 C   0  0  0  0  0  0  0  0  0  0  0  0
    5.5872   -2.6414   23.9305 H   0  0  0  0  0  0  0  0  0  0  0  0
    7.1139   -3.0480   24.7186 H   0  0  0  0  0  0  0  0  0  0  0  0
    6.5075   -4.4652   23.2148 C   0  0  0  0  0  0  0  0  0  0  0  0
    6.0240   -4.4659   22.2314 H   0  0  0  0  0  0  0  0  0  0  0  0
    7.5265   -4.8424   23.0484 H   0  0  0  0  0  0  0  0  0  0  0  0
    5.7449   -5.4222   24.1550 C   0  0  0  0  0  0  0  0  0  0  0  0
    4.6985   -5.0935   24.2483 H   0  0  0  0  0  0  0  0  0  0  0  0
    5.7136   -6.4173   23.6842 H   0  0  0  0  0  0  0  0  0  0  0  0
    6.4045   -5.5295   25.5205 C   0  0  0  0  0  0  0  0  0  0  0  0
    5.8034   -5.1027   26.7187 C   0  0  0  0  0  0  0  0  0  0  0  0
    4.8252   -4.6208   26.6950 H   0  0  0  0  0  0  0  0  0  0  0  0
    6.4639   -5.2590   27.9468 C   0  0  0  0  0  0  0  0  0  0  0  0
    5.9616   -4.9779   28.8693 H   0  0  0  0  0  0  0  0  0  0  0  0
    7.7631   -5.7786   27.9918 C   0  0  0  0  0  0  0  0  0  0  0  0
    8.2819   -5.9116   28.9395 H   0  0  0  0  0  0  0  0  0  0  0  0
    8.4008   -6.1314   26.7974 C   0  0  0  0  0  0  0  0  0  0  0  0
    9.4443   -6.4303   26.8064 H   0  0  0  0  0  0  0  0  0  0  0  0
    7.7220   -6.0234   25.5821 C   0  0  0  0  0  0  0  0  0  0  0  0
    8.2259   -6.3054   24.6588 H   0  0  0  0  0  0  0  0  0  0  0  0
    8.8010   -2.0359   22.9419 C   0  0  0  0  0  0  0  0  0  0  0  0
    9.5212   -2.6140   23.7425 O   0  0  0  0  0  0  0  0  0  0  0  0
    9.4309   -1.1828   22.0396 N   0  0  0  0  0  0  0  0  0  0  0  0
   10.4205   -1.2040   22.2431 H   0  0  0  0  0  0  0  0  0  0  0  0
    8.8186   -0.5030   21.0232 C   0  0  0  0  0  0  0  0  0  0  0  0
    9.4327    0.1333   20.3897 H   0  0  0  0  0  0  0  0  0  0  0  0
    5.5099    0.7130   20.0247 C   0  0  0  0  0  0  0  0  0  0  0  0
    5.0993    0.7056   21.0373 H   0  0  0  0  0  0  0  0  0  0  0  0
    4.8529    1.3706   18.9840 C   0  0  0  0  0  0  0  0  0  0  0  0
    3.9121    1.8846   19.1465 H   0  0  0  0  0  0  0  0  0  0  0  0
  1  2  1  0
  2  3  2  0
  3  4  1  0
  4  5  1  0
  4  6  2  0
  6  7  1  0
  7  8  1  0
  8  9  1  0
  8 10  2  0
 10 11  1  0
 11 12  1  0
 11 13  1  0
 11 14  1  0
 14 15  1  0
 14 16  1  0
 14 17  1  0
 17 18  1  0
 17 19  1  0
 17 20  1  0
 20 21  2  0
 21 22  1  0
 21 23  1  0
 23 24  1  0
 23 25  2  0
 25 26  1  0
 25 27  1  0
 27 28  1  0
 27 29  2  0
 29 30  1  0
 10 31  1  0
 31 32  2  0
 31 33  1  0
 33 34  1  0
 33 35  1  0
 35 36  1  0
  6 37  1  0
 37 38  1  0
 37 39  2  0
 39 40  1  0
 39  2  1  0
 35  7  2  0
 29 20  1  0
M  END
>  <cnnaffinity>  (1) 
-5.40746

>  <filename>  (1) 
O=c1[nH]cc(-c2cccnc2)cc1CCCc1ccccc1

$$$$
