
     RDKit          3D

 30 32  0  0  0  0  0  0  0  0999 V2000
    5.0288    1.8242   16.9122 H   0  0  0  0  0  0  0  0  0  0  0  0
    5.4628    1.3045   17.7646 C   0  0  0  0  0  0  0  0  0  0  0  0
    6.6109    0.6485   17.5299 N   0  0  0  0  0  0  0  0  0  0  0  0
    7.1803    0.0219   18.5698 C   0  0  0  0  0  0  0  0  0  0  0  0
    8.1065   -0.5097   18.3493 H   0  0  0  0  0  0  0  0  0  0  0  0
    6.6547   -0.0088   19.8781 C   0  0  0  0  0  0  0  0  0  0  0  0
    7.3794   -0.7015   20.9940 C   0  0  0  0  0  0  0  0  0  0  0  0
    8.7748   -0.4751   21.2262 C   0  0  0  0  0  0  0  0  0  0  0  0
    9.3223    0.1408   20.5141 H   0  0  0  0  0  0  0  0  0  0  0  0
    9.4415   -0.9740   22.3316 C   0  0  0  0  0  0  0  0  0  0  0  0
   10.8733   -0.6325   22.5771 C   0  0  0  0  0  0  0  0  0  0  0  0
   11.8568   -0.9720   21.6185 C   0  0  0  0  0  0  0  0  0  0  0  0
   11.5623   -1.4683   20.7002 H   0  0  0  0  0  0  0  0  0  0  0  0
   13.1694   -0.7572   21.7692 N   0  0  0  0  0  0  0  0  0  0  0  0
   13.5834   -0.1686   22.8951 C   0  0  0  0  0  0  0  0  0  0  0  0
   14.6540    0.0020   23.0022 H   0  0  0  0  0  0  0  0  0  0  0  0
   12.6873    0.2113   23.9018 C   0  0  0  0  0  0  0  0  0  0  0  0
   13.1605    0.7589   25.0280 F   0  0  0  0  0  0  0  0  0  0  0  0
   11.3161   -0.0042   23.7631 C   0  0  0  0  0  0  0  0  0  0  0  0
   10.6407    0.3298   24.5500 H   0  0  0  0  0  0  0  0  0  0  0  0
    8.7340   -1.9193   23.2317 C   0  0  0  0  0  0  0  0  0  0  0  0
    9.1337   -2.5566   24.1908 O   0  0  0  0  0  0  0  0  0  0  0  0
    7.3990   -2.1370   22.8695 N   0  0  0  0  0  0  0  0  0  0  0  0
    7.0176   -2.8163   23.5131 H   0  0  0  0  0  0  0  0  0  0  0  0
    6.7219   -1.5550   21.8417 C   0  0  0  0  0  0  0  0  0  0  0  0
    5.6656   -1.8000   21.7274 H   0  0  0  0  0  0  0  0  0  0  0  0
    5.4329    0.6615   20.0840 C   0  0  0  0  0  0  0  0  0  0  0  0
    4.9759    0.6869   21.0738 H   0  0  0  0  0  0  0  0  0  0  0  0
    4.8362    1.3344   19.0140 C   0  0  0  0  0  0  0  0  0  0  0  0
    3.9083    1.8853   19.1357 H   0  0  0  0  0  0  0  0  0  0  0  0
  1  2  1  0
  2  3  2  0
  3  4  1  0
  4  5  1  0
  4  6  2  0
  6  7  1  0
  7  8  1  0
  8  9  1  0
  8 10  2  0
 10 11  1  0
 11 12  2  0
 12 13  1  0
 12 14  1  0
 14 15  2  0
 15 16  1  0
 15 17  1  0
 17 18  1  0
 17 19  2  0
 19 20  1  0
 10 21  1  0
 21 22  2  0
 21 23  1  0
 23 24  1  0
 23 25  1  0
 25 26  1  0
  6 27  1  0
 27 28  1  0
 27 29  2  0
 29 30  1  0
 29  2  1  0
 25  7  2  0
 19 11  1  0
M  END
>  <cnnaffinity>  (1) 
-5.35771

>  <filename>  (1) 
O=c1[nH]cc(-c2cccnc2)cc1-c1cncc(F)c1

$$$$
