
     RDKit          3D

 41 43  0  0  0  0  0  0  0  0999 V2000
    9.0435    0.0756   23.8926 H   0  0  0  0  0  0  0  0  0  0  0  0
    8.7061   -0.4807   23.0313 C   0  0  0  0  0  0  0  0  0  0  0  0
    9.2306   -1.6869   22.7648 C   0  0  0  0  0  0  0  0  0  0  0  0
   10.2858   -2.3265   23.6094 C   0  0  0  0  0  0  0  0  0  0  0  0
   10.9088   -1.5066   23.9884 H   0  0  0  0  0  0  0  0  0  0  0  0
   10.9310   -2.9634   22.9919 H   0  0  0  0  0  0  0  0  0  0  0  0
    9.7727   -3.1336   24.8309 C   0  0  0  0  0  0  0  0  0  0  0  0
   10.6739   -3.4901   25.3565 H   0  0  0  0  0  0  0  0  0  0  0  0
    8.9671   -4.3927   24.4493 C   0  0  0  0  0  0  0  0  0  0  0  0
    9.5625   -5.0207   23.7766 H   0  0  0  0  0  0  0  0  0  0  0  0
    8.0641   -4.0862   23.8982 H   0  0  0  0  0  0  0  0  0  0  0  0
    8.5412   -5.2088   25.6858 C   0  0  0  0  0  0  0  0  0  0  0  0
    9.4394   -5.5939   26.1952 H   0  0  0  0  0  0  0  0  0  0  0  0
    7.9606   -6.0882   25.3831 H   0  0  0  0  0  0  0  0  0  0  0  0
    7.7472   -4.3451   26.6783 C   0  0  0  0  0  0  0  0  0  0  0  0
    6.7848   -4.0533   26.2320 H   0  0  0  0  0  0  0  0  0  0  0  0
    7.5033   -4.9180   27.5828 H   0  0  0  0  0  0  0  0  0  0  0  0
    8.5598   -3.0984   27.0507 C   0  0  0  0  0  0  0  0  0  0  0  0
    8.0214   -2.4683   27.7641 H   0  0  0  0  0  0  0  0  0  0  0  0
    9.4821   -3.4521   27.5312 H   0  0  0  0  0  0  0  0  0  0  0  0
    8.9707   -2.2708   25.8285 C   0  0  0  0  0  0  0  0  0  0  0  0
    8.0712   -1.8649   25.3398 H   0  0  0  0  0  0  0  0  0  0  0  0
    9.5652   -1.4053   26.1559 H   0  0  0  0  0  0  0  0  0  0  0  0
    8.7266   -2.3987   21.6759 N   0  0  0  0  0  0  0  0  0  0  0  0
    8.7806   -3.3959   21.5958 H   0  0  0  0  0  0  0  0  0  0  0  0
    7.5847   -2.0095   20.9966 C   0  0  0  0  0  0  0  0  0  0  0  0
    6.8846   -2.8544   20.4841 O   0  0  0  0  0  0  0  0  0  0  0  0
    7.4064   -0.6258   20.9666 N   0  0  0  0  0  0  0  0  0  0  0  0
    6.7055    0.0125   19.8893 C   0  0  0  0  0  0  0  0  0  0  0  0
    7.2102    0.0670   18.5611 C   0  0  0  0  0  0  0  0  0  0  0  0
    8.1654   -0.3989   18.3134 H   0  0  0  0  0  0  0  0  0  0  0  0
    6.5814    0.6960   17.5577 N   0  0  0  0  0  0  0  0  0  0  0  0
    5.4099    1.2971   17.8300 C   0  0  0  0  0  0  0  0  0  0  0  0
    4.9097    1.7822   16.9982 H   0  0  0  0  0  0  0  0  0  0  0  0
    4.8270    1.3073   19.1016 C   0  0  0  0  0  0  0  0  0  0  0  0
    3.8826    1.8119   19.2735 H   0  0  0  0  0  0  0  0  0  0  0  0
    5.4902    0.6591   20.1451 C   0  0  0  0  0  0  0  0  0  0  0  0
    5.0993    0.6399   21.1631 H   0  0  0  0  0  0  0  0  0  0  0  0
    7.5042    0.0285   22.2897 C   0  0  0  0  0  0  0  0  0  0  0  0
    6.5843   -0.1714   22.8842 H   0  0  0  0  0  0  0  0  0  0  0  0
    7.5799    1.1160   22.1639 H   0  0  0  0  0  0  0  0  0  0  0  0
  1  2  1  0
  2  3  2  0
  3  4  1  0
  4  5  1  0
  4  6  1  0
  4  7  1  0
  7  8  1  0
  7  9  1  0
  9 10  1  0
  9 11  1  0
  9 12  1  0
 12 13  1  0
 12 14  1  0
 12 15  1  0
 15 16  1  0
 15 17  1  0
 15 18  1  0
 18 19  1  0
 18 20  1  0
 18 21  1  0
 21 22  1  0
 21 23  1  0
  3 24  1  0
 24 25  1  0
 24 26  1  0
 26 27  2  0
 26 28  1  0
 28 29  1  0
 29 30  2  0
 30 31  1  0
 30 32  1  0
 32 33  2  0
 33 34  1  0
 33 35  1  0
 35 36  1  0
 35 37  2  0
 37 38  1  0
 28 39  1  0
 39 40  1  0
 39 41  1  0
 39  2  1  0
 21  7  1  0
 37 29  1  0
M  END
>  <cnnaffinity>  (1) 
-5.05689

>  <filename>  (1) 
O=C1NC(CC2CCCCC2)=CCN1c1cccnc1

$$$$
