
     RDKit          3D

 34 36  0  0  0  0  0  0  0  0999 V2000
    4.9455    1.8459   16.9500 H   0  0  0  0  0  0  0  0  0  0  0  0
    5.4131    1.3205   17.7823 C   0  0  0  0  0  0  0  0  0  0  0  0
    6.5798    0.7085   17.5291 N   0  0  0  0  0  0  0  0  0  0  0  0
    7.1764    0.0693   18.5440 C   0  0  0  0  0  0  0  0  0  0  0  0
    8.1352   -0.3911   18.2977 H   0  0  0  0  0  0  0  0  0  0  0  0
    6.6480   -0.0200   19.8499 C   0  0  0  0  0  0  0  0  0  0  0  0
    7.3763   -0.7177   21.0042 C   0  0  2  0  0  0  0  0  0  0  0  0
    8.2016   -1.3115   20.5954 H   0  0  0  0  0  0  0  0  0  0  0  0
    6.5397   -1.7090   21.8131 C   0  0  0  0  0  0  0  0  0  0  0  0
    5.8641   -2.6227   21.3883 O   0  0  0  0  0  0  0  0  0  0  0  0
    6.7146   -1.4547   23.1331 N   0  0  0  0  0  0  0  0  0  0  0  0
    6.1076   -1.9521   23.7679 H   0  0  0  0  0  0  0  0  0  0  0  0
    7.5980   -0.3585   23.4681 C   0  0  0  0  0  0  0  0  0  0  0  0
    8.5007   -0.7134   23.9899 H   0  0  0  0  0  0  0  0  0  0  0  0
    7.1160    0.3877   24.1189 H   0  0  0  0  0  0  0  0  0  0  0  0
    7.9548    0.2496   22.0631 C   0  0  1  0  0  0  0  0  0  0  0  0
    7.4272    1.2116   21.9917 H   0  0  0  0  0  0  0  0  0  0  0  0
    9.3577    0.5168   21.7414 N   0  0  0  0  0  0  0  0  0  0  0  0
    9.9315   -0.2527   22.0810 H   0  0  0  0  0  0  0  0  0  0  0  0
    9.9292    1.7688   22.2481 C   0  0  0  0  0  0  0  0  0  0  0  0
   10.9492    1.8495   21.8488 H   0  0  0  0  0  0  0  0  0  0  0  0
    9.3762    2.6109   21.8188 H   0  0  0  0  0  0  0  0  0  0  0  0
    9.9564    1.8543   23.7546 C   0  0  0  0  0  0  0  0  0  0  0  0
    8.8503    2.8672   24.6162 S   0  0  0  0  0  0  0  0  0  0  0  0
    9.2946    2.1612   26.1173 C   0  0  0  0  0  0  0  0  0  0  0  0
    8.8074    2.4631   27.0348 H   0  0  0  0  0  0  0  0  0  0  0  0
   10.2716    1.2269   25.9685 C   0  0  0  0  0  0  0  0  0  0  0  0
   10.6869    0.6531   26.7886 H   0  0  0  0  0  0  0  0  0  0  0  0
   10.6651    1.0651   24.6110 C   0  0  0  0  0  0  0  0  0  0  0  0
   11.4359    0.3786   24.2776 H   0  0  0  0  0  0  0  0  0  0  0  0
    5.4310    0.6322   20.0865 C   0  0  0  0  0  0  0  0  0  0  0  0
    4.9995    0.6295   21.0883 H   0  0  0  0  0  0  0  0  0  0  0  0
    4.8051    1.3063   19.0382 C   0  0  0  0  0  0  0  0  0  0  0  0
    3.8778    1.8400   19.1911 H   0  0  0  0  0  0  0  0  0  0  0  0
  1  2  1  0
  2  3  2  0
  3  4  1  0
  4  5  1  0
  4  6  2  0
  6  7  1  0
  7  8  1  6
  7  9  1  0
  9 10  2  0
  9 11  1  0
 11 12  1  0
 11 13  1  0
 13 14  1  0
 13 15  1  0
 13 16  1  0
 16 17  1  1
 16 18  1  0
 18 19  1  0
 18 20  1  0
 20 21  1  0
 20 22  1  0
 20 23  1  0
 23 24  1  0
 24 25  1  0
 25 26  1  0
 25 27  2  0
 27 28  1  0
 27 29  1  0
 29 30  1  0
  6 31  1  0
 31 32  1  0
 31 33  2  0
 33 34  1  0
 33  2  1  0
 16  7  1  0
 29 23  2  0
M  END
>  <cnnaffinity>  (1) 
-4.85759

>  <filename>  (1) 
O=C1NC[C@@H](NCc2cccs2)[C@@H]1c1cccnc1

$$$$
