
     RDKit          3D

 32 34  0  0  0  0  0  0  0  0999 V2000
    3.9472   -5.0062   27.0894 H   0  0  0  0  0  0  0  0  0  0  0  0
    3.6623   -5.0925   26.1704 O   0  0  0  0  0  0  0  0  0  0  0  0
    4.5220   -4.3611   25.3929 C   0  0  0  0  0  0  0  0  0  0  0  0
    5.5811   -3.6365   25.9368 C   0  0  0  0  0  0  0  0  0  0  0  0
    5.7572   -3.6554   27.0113 H   0  0  0  0  0  0  0  0  0  0  0  0
    6.4286   -2.8954   25.1083 C   0  0  0  0  0  0  0  0  0  0  0  0
    7.2816   -2.3714   25.5221 H   0  0  0  0  0  0  0  0  0  0  0  0
    6.2270   -2.8596   23.7172 C   0  0  0  0  0  0  0  0  0  0  0  0
    7.1319   -2.0869   22.8005 C   0  0  0  0  0  0  0  0  0  0  0  0
    6.5633   -1.4405   21.8097 N   0  0  0  0  0  0  0  0  0  0  0  0
    7.3418   -0.7059   20.9574 N   0  0  0  0  0  0  0  0  0  0  0  0
    6.6600   -0.0042   19.9096 C   0  0  0  0  0  0  0  0  0  0  0  0
    7.1737    0.0533   18.6000 C   0  0  0  0  0  0  0  0  0  0  0  0
    8.1129   -0.4443   18.3647 H   0  0  0  0  0  0  0  0  0  0  0  0
    6.5631    0.6728   17.5834 N   0  0  0  0  0  0  0  0  0  0  0  0
    5.4017    1.2955   17.8393 C   0  0  0  0  0  0  0  0  0  0  0  0
    4.9268    1.7900   16.9943 H   0  0  0  0  0  0  0  0  0  0  0  0
    4.8131    1.3109   19.1107 C   0  0  0  0  0  0  0  0  0  0  0  0
    3.8784    1.8417   19.2576 H   0  0  0  0  0  0  0  0  0  0  0  0
    5.4437    0.6411   20.1643 C   0  0  0  0  0  0  0  0  0  0  0  0
    5.0337    0.5915   21.1720 H   0  0  0  0  0  0  0  0  0  0  0  0
    8.7075   -0.6155   21.1108 C   0  0  0  0  0  0  0  0  0  0  0  0
    9.2110    0.0318   20.3955 H   0  0  0  0  0  0  0  0  0  0  0  0
    9.3619   -1.2636   22.0873 C   0  0  0  0  0  0  0  0  0  0  0  0
   10.4331   -1.2178   22.2164 H   0  0  0  0  0  0  0  0  0  0  0  0
    8.6232   -2.0933   23.0288 C   0  0  0  0  0  0  0  0  0  0  0  0
    9.1888   -2.7223   23.9152 O   0  0  0  0  0  0  0  0  0  0  0  0
    5.1563   -3.5941   23.1778 C   0  0  0  0  0  0  0  0  0  0  0  0
    4.9584   -3.6071   22.1116 H   0  0  0  0  0  0  0  0  0  0  0  0
    4.3081   -4.3410   23.9901 C   0  0  0  0  0  0  0  0  0  0  0  0
    3.2911   -5.0077   23.3745 O   0  0  0  0  0  0  0  0  0  0  0  0
    2.7827   -5.4672   24.0604 H   0  0  0  0  0  0  0  0  0  0  0  0
  1  2  1  0
  2  3  1  0
  3  4  2  0
  4  5  1  0
  4  6  1  0
  6  7  1  0
  6  8  2  0
  8  9  1  0
  9 10  2  0
 10 11  1  0
 11 12  1  0
 12 13  2  0
 13 14  1  0
 13 15  1  0
 15 16  2  0
 16 17  1  0
 16 18  1  0
 18 19  1  0
 18 20  2  0
 20 21  1  0
 11 22  1  0
 22 23  1  0
 22 24  2  0
 24 25  1  0
 24 26  1  0
 26 27  2  0
  8 28  1  0
 28 29  1  0
 28 30  2  0
 30 31  1  0
 31 32  1  0
 30  3  1  0
 26  9  1  0
 20 12  1  0
M  END
>  <cnnaffinity>  (1) 
-5.21211

>  <filename>  (1) 
O=c1ccn(-c2cccnc2)nc1-c1ccc(O)c(O)c1

$$$$
