
     RDKit          3D

 28 29  0  0  0  0  0  0  0  0999 V2000
    5.5934   -0.2199   26.3851 H   0  0  0  0  0  0  0  0  0  0  0  0
    5.5003   -0.3978   25.4096 O   0  0  0  0  0  0  0  0  0  0  0  0
    6.9087   -0.9549   25.5376 P   0  0  0  0  0  0  0  0  0  0  0  0
    7.0473   -2.4230   25.4474 O   0  0  0  0  0  0  0  0  0  0  0  0
    6.3657   -0.5058   26.9454 O   0  0  0  0  0  0  0  0  0  0  0  0
    5.6191   -1.1221   26.9914 H   0  0  0  0  0  0  0  0  0  0  0  0
    8.3682   -0.1955   24.6597 C   0  0  0  0  0  0  0  0  0  0  0  0
    9.5731   -0.6241   25.1527 F   0  0  0  0  0  0  0  0  0  0  0  0
    8.3922    1.1742   24.6943 F   0  0  0  0  0  0  0  0  0  0  0  0
    8.1037   -0.7325   23.2780 C   0  0  0  0  0  0  0  0  0  0  0  0
    7.3999   -0.0381   22.3312 C   0  0  0  0  0  0  0  0  0  0  0  0
    7.0617    0.9683   22.5234 H   0  0  0  0  0  0  0  0  0  0  0  0
    7.1270   -0.6325   21.0242 C   0  0  0  0  0  0  0  0  0  0  0  0
    6.4962    0.1279   19.9764 C   0  0  0  0  0  0  0  0  0  0  0  0
    7.0561    0.0254   18.7017 C   0  0  0  0  0  0  0  0  0  0  0  0
    7.9516   -0.5747   18.5633 H   0  0  0  0  0  0  0  0  0  0  0  0
    6.5408    0.6367   17.6284 N   0  0  0  0  0  0  0  0  0  0  0  0
    5.4390    1.3857   17.8009 C   0  0  0  0  0  0  0  0  0  0  0  0
    4.9993    1.8701   16.9362 H   0  0  0  0  0  0  0  0  0  0  0  0
    4.8330    1.5577   19.0499 C   0  0  0  0  0  0  0  0  0  0  0  0
    3.9465    2.1791   19.1228 H   0  0  0  0  0  0  0  0  0  0  0  0
    5.3637    0.9270   20.1715 C   0  0  0  0  0  0  0  0  0  0  0  0
    4.8897    1.0432   21.1468 H   0  0  0  0  0  0  0  0  0  0  0  0
    7.5010   -1.8444   20.7143 N   0  0  0  0  0  0  0  0  0  0  0  0
    8.1160   -2.5662   21.7037 C   0  0  0  0  0  0  0  0  0  0  0  0
    8.4385   -3.7261   21.5121 O   0  0  0  0  0  0  0  0  0  0  0  0
    8.3963   -2.0432   22.9399 N   0  0  0  0  0  0  0  0  0  0  0  0
    8.7986   -2.6899   23.6079 H   0  0  0  0  0  0  0  0  0  0  0  0
  1  2  1  0
  2  3  1  0
  3  4  2  0
  3  5  1  0
  5  6  1  0
  3  7  1  0
  7  8  1  0
  7  9  1  0
  7 10  1  0
 10 11  2  0
 11 12  1  0
 11 13  1  0
 13 14  1  0
 14 15  2  0
 15 16  1  0
 15 17  1  0
 17 18  2  0
 18 19  1  0
 18 20  1  0
 20 21  1  0
 20 22  2  0
 22 23  1  0
 13 24  2  0
 24 25  1  0
 25 26  2  0
 25 27  1  0
 27 28  1  0
 27 10  1  0
 22 14  1  0
M  END
>  <cnnaffinity>  (1) 
-4.95612

>  <filename>  (1) 
O=c1nc(-c2cccnc2)cc(C(F)(F)P(=O)(O)O)[nH]1

$$$$
