
     RDKit          3D

 18 19  0  0  0  0  0  0  0  0999 V2000
    4.9232    1.8003   16.9990 H   0  0  0  0  0  0  0  0  0  0  0  0
    5.3927    1.2928   17.8394 C   0  0  0  0  0  0  0  0  0  0  0  0
    6.5473    0.6680   17.5620 N   0  0  0  0  0  0  0  0  0  0  0  0
    7.1723    0.0544   18.5701 C   0  0  0  0  0  0  0  0  0  0  0  0
    8.1314   -0.4107   18.3564 H   0  0  0  0  0  0  0  0  0  0  0  0
    6.6703    0.0012   19.8875 C   0  0  0  0  0  0  0  0  0  0  0  0
    7.3995   -0.6697   20.9181 N   0  0  0  0  0  0  0  0  0  0  0  0
    6.8949   -1.5439   21.8595 C   0  0  0  0  0  0  0  0  0  0  0  0
    5.6632   -1.9865   21.7632 F   0  0  0  0  0  0  0  0  0  0  0  0
    7.7413   -1.9990   22.7058 N   0  0  0  0  0  0  0  0  0  0  0  0
    8.9249   -1.4152   22.2717 N   0  0  0  0  0  0  0  0  0  0  0  0
    9.8352   -1.6309   22.6429 H   0  0  0  0  0  0  0  0  0  0  0  0
    8.7982   -0.6390   21.1626 C   0  0  0  0  0  0  0  0  0  0  0  0
    9.6819   -0.0853   20.5411 O   0  0  0  0  0  0  0  0  0  0  0  0
    5.4528    0.6279   20.1656 C   0  0  0  0  0  0  0  0  0  0  0  0
    5.0345    0.5977   21.1726 H   0  0  0  0  0  0  0  0  0  0  0  0
    4.8152    1.2989   19.1144 C   0  0  0  0  0  0  0  0  0  0  0  0
    3.8868    1.8336   19.2628 H   0  0  0  0  0  0  0  0  0  0  0  0
  1  2  1  0
  2  3  2  0
  3  4  1  0
  4  5  1  0
  4  6  2  0
  6  7  1  0
  7  8  1  0
  8  9  1  0
  8 10  2  0
 10 11  1  0
 11 12  1  0
 11 13  1  0
 13 14  2  0
  6 15  1  0
 15 16  1  0
 15 17  2  0
 17 18  1  0
 17  2  1  0
 13  7  1  0
M  END
>  <cnnaffinity>  (1) 
-4.18714

>  <filename>  (1) 
O=c1[nH]nc(F)n1-c1cccnc1

$$$$
