
     RDKit          3D

 36 38  0  0  0  0  0  0  0  0999 V2000
    5.0851    1.9072   16.9978 H   0  0  0  0  0  0  0  0  0  0  0  0
    5.5435    1.3824   17.8345 C   0  0  0  0  0  0  0  0  0  0  0  0
    6.7443    0.8274   17.6045 N   0  0  0  0  0  0  0  0  0  0  0  0
    7.3328    0.1722   18.6157 C   0  0  0  0  0  0  0  0  0  0  0  0
    8.2986   -0.2918   18.4205 H   0  0  0  0  0  0  0  0  0  0  0  0
    6.7478    0.0264   19.8898 C   0  0  0  0  0  0  0  0  0  0  0  0
    7.3516   -0.7354   20.9448 N   0  0  0  0  0  0  0  0  0  0  0  0
    8.6224   -0.7196   21.4929 C   0  0  0  0  0  0  0  0  0  0  0  0
    9.6474    0.1268   21.1567 N   0  0  0  0  0  0  0  0  0  0  0  0
   10.3920   -0.2607   21.7258 H   0  0  0  0  0  0  0  0  0  0  0  0
    9.5415    1.5818   21.3287 C   0  0  0  0  0  0  0  0  0  0  0  0
    8.8997    1.9440   20.5128 H   0  0  0  0  0  0  0  0  0  0  0  0
    8.8318    2.0127   22.6286 C   0  0  0  0  0  0  0  0  0  0  0  0
    7.7946    1.6602   22.6095 H   0  0  0  0  0  0  0  0  0  0  0  0
    9.3045    1.5253   23.4962 H   0  0  0  0  0  0  0  0  0  0  0  0
    8.9189    3.5401   22.7647 C   0  0  0  0  0  0  0  0  0  0  0  0
    8.5456    4.0101   21.8411 H   0  0  0  0  0  0  0  0  0  0  0  0
    8.2605    3.8847   23.5689 H   0  0  0  0  0  0  0  0  0  0  0  0
   10.3782    3.9954   23.0203 C   0  0  0  0  0  0  0  0  0  0  0  0
   10.5434    4.9884   22.5801 H   0  0  0  0  0  0  0  0  0  0  0  0
   10.5259    4.1099   24.1004 H   0  0  0  0  0  0  0  0  0  0  0  0
   11.4241    2.9816   22.4937 C   0  0  0  0  0  0  0  0  0  0  0  0
   11.6374    2.2523   23.2870 H   0  0  0  0  0  0  0  0  0  0  0  0
   12.3761    3.4815   22.2850 H   0  0  0  0  0  0  0  0  0  0  0  0
   10.9706    2.1993   21.2357 C   0  0  0  0  0  0  0  0  0  0  0  0
   11.6934    1.3990   21.0451 H   0  0  0  0  0  0  0  0  0  0  0  0
   11.0451    2.8598   20.3662 H   0  0  0  0  0  0  0  0  0  0  0  0
    8.8299   -1.6622   22.3565 N   0  0  0  0  0  0  0  0  0  0  0  0
    7.6075   -2.2982   22.4214 N   0  0  0  0  0  0  0  0  0  0  0  0
    7.4413   -3.1423   22.9407 H   0  0  0  0  0  0  0  0  0  0  0  0
    6.6999   -1.8341   21.5410 C   0  0  0  0  0  0  0  0  0  0  0  0
    5.5990   -2.3001   21.3035 O   0  0  0  0  0  0  0  0  0  0  0  0
    5.4813    0.5746   20.1060 C   0  0  0  0  0  0  0  0  0  0  0  0
    4.9870    0.4053   21.0640 H   0  0  0  0  0  0  0  0  0  0  0  0
    4.8835    1.2899   19.0650 C   0  0  0  0  0  0  0  0  0  0  0  0
    3.9164    1.7603   19.1930 H   0  0  0  0  0  0  0  0  0  0  0  0
  1  2  1  0
  2  3  2  0
  3  4  1  0
  4  5  1  0
  4  6  2  0
  6  7  1  0
  7  8  1  0
  8  9  1  0
  9 10  1  0
  9 11  1  0
 11 12  1  0
 11 13  1  0
 13 14  1  0
 13 15  1  0
 13 16  1  0
 16 17  1  0
 16 18  1  0
 16 19  1  0
 19 20  1  0
 19 21  1  0
 19 22  1  0
 22 23  1  0
 22 24  1  0
 22 25  1  0
 25 26  1  0
 25 27  1  0
  8 28  2  0
 28 29  1  0
 29 30  1  0
 29 31  1  0
 31 32  2  0
  6 33  1  0
 33 34  1  0
 33 35  2  0
 35 36  1  0
 35  2  1  0
 31  7  1  0
 25 11  1  0
M  END
>  <cnnaffinity>  (1) 
-5.22868

>  <filename>  (1) 
O=c1[nH]nc(NC2CCCCC2)n1-c1cccnc1

$$$$
