
     RDKit          3D

 32 34  0  0  0  0  0  0  0  0999 V2000
    4.9686    1.8378   17.0135 H   0  0  0  0  0  0  0  0  0  0  0  0
    5.4250    1.2863   17.8344 C   0  0  0  0  0  0  0  0  0  0  0  0
    6.5782    0.6509   17.5636 N   0  0  0  0  0  0  0  0  0  0  0  0
    7.1786   -0.0046   18.5671 C   0  0  0  0  0  0  0  0  0  0  0  0
    8.1262   -0.4932   18.3352 H   0  0  0  0  0  0  0  0  0  0  0  0
    6.6684   -0.0940   19.8844 C   0  0  0  0  0  0  0  0  0  0  0  0
    7.4143   -0.7934   20.8959 N   0  0  0  0  0  0  0  0  0  0  0  0
    8.2707   -0.3325   21.1652 H   0  0  0  0  0  0  0  0  0  0  0  0
    6.9424   -1.4602   21.9827 C   0  0  0  0  0  0  0  0  0  0  0  0
    7.5676   -1.4652   23.1660 C   0  0  0  0  0  0  0  0  0  0  0  0
    8.4508   -0.8932   23.3805 H   0  0  0  0  0  0  0  0  0  0  0  0
    7.0011   -2.1516   24.2806 C   0  0  0  0  0  0  0  0  0  0  0  0
    7.4762   -2.1087   25.3978 O   0  0  0  0  0  0  0  0  0  0  0  0
    5.8105   -2.9215   24.0402 N   0  0  0  0  0  0  0  0  0  0  0  0
    5.0961   -3.5353   25.1529 C   0  0  0  0  0  0  0  0  0  0  0  0
    4.7414   -2.8061   26.3137 C   0  0  0  0  0  0  0  0  0  0  0  0
    4.9723   -1.7463   26.3896 H   0  0  0  0  0  0  0  0  0  0  0  0
    4.1124   -3.3482   27.3623 N   0  0  0  0  0  0  0  0  0  0  0  0
    3.8299   -4.6574   27.3276 C   0  0  0  0  0  0  0  0  0  0  0  0
    3.3280   -5.0706   28.2067 H   0  0  0  0  0  0  0  0  0  0  0  0
    4.1463   -5.4668   26.2326 C   0  0  0  0  0  0  0  0  0  0  0  0
    3.9000   -6.5228   26.2575 H   0  0  0  0  0  0  0  0  0  0  0  0
    4.7720   -4.8943   25.1168 C   0  0  0  0  0  0  0  0  0  0  0  0
    4.9979   -5.4728   24.2256 H   0  0  0  0  0  0  0  0  0  0  0  0
    5.4037   -3.1339   22.7252 C   0  0  0  0  0  0  0  0  0  0  0  0
    4.6797   -4.0173   22.3350 O   0  0  0  0  0  0  0  0  0  0  0  0
    5.8322   -2.2093   21.8067 N   0  0  0  0  0  0  0  0  0  0  0  0
    5.5607   -2.4635   20.8859 H   0  0  0  0  0  0  0  0  0  0  0  0
    5.4625    0.5728   20.1429 C   0  0  0  0  0  0  0  0  0  0  0  0
    5.0439    0.5424   21.1477 H   0  0  0  0  0  0  0  0  0  0  0  0
    4.8345    1.2702   19.1002 C   0  0  0  0  0  0  0  0  0  0  0  0
    3.9118    1.8126   19.2654 H   0  0  0  0  0  0  0  0  0  0  0  0
  1  2  1  0
  2  3  2  0
  3  4  1  0
  4  5  1  0
  4  6  2  0
  6  7  1  0
  7  8  1  0
  7  9  1  0
  9 10  2  0
 10 11  1  0
 10 12  1  0
 12 13  2  0
 12 14  1  0
 14 15  1  0
 15 16  2  0
 16 17  1  0
 16 18  1  0
 18 19  2  0
 19 20  1  0
 19 21  1  0
 21 22  1  0
 21 23  2  0
 23 24  1  0
 14 25  1  0
 25 26  2  0
 25 27  1  0
 27 28  1  0
  6 29  1  0
 29 30  1  0
 29 31  2  0
 31 32  1  0
 31  2  1  0
 27  9  1  0
 23 15  1  0
M  END
>  <cnnaffinity>  (1) 
-5.35084

>  <filename>  (1) 
O=c1cc(Nc2cccnc2)[nH]c(=O)n1-c1cccnc1

$$$$
