
     RDKit          3D

 26 28  0  0  0  0  0  0  0  0999 V2000
    4.9168    1.8937   16.9250 H   0  0  0  0  0  0  0  0  0  0  0  0
    5.3772    1.3573   17.7537 C   0  0  0  0  0  0  0  0  0  0  0  0
    6.5395    0.7380   17.4867 N   0  0  0  0  0  0  0  0  0  0  0  0
    7.1318    0.0820   18.4910 C   0  0  0  0  0  0  0  0  0  0  0  0
    8.0911   -0.3797   18.2628 H   0  0  0  0  0  0  0  0  0  0  0  0
    6.5849   -0.0351   19.7872 C   0  0  0  0  0  0  0  0  0  0  0  0
    7.2981   -0.7167   20.8485 N   0  0  0  0  0  0  0  0  0  0  0  0
    8.5376   -0.2181   21.1910 C   0  0  0  0  0  0  0  0  0  0  0  0
    8.8998    0.6088   20.5794 H   0  0  0  0  0  0  0  0  0  0  0  0
    9.2534   -0.7340   22.2145 C   0  0  0  0  0  0  0  0  0  0  0  0
   10.5627   -0.2554   22.5575 C   0  0  0  0  0  0  0  0  0  0  0  0
   11.3027    0.5303   21.7275 N   0  0  0  0  0  0  0  0  0  0  0  0
   12.4513    0.7042   22.3070 N   0  0  0  0  0  0  0  0  0  0  0  0
   12.3725    0.0619   23.4474 N   0  0  0  0  0  0  0  0  0  0  0  0
   13.1934   -0.0259   24.0358 H   0  0  0  0  0  0  0  0  0  0  0  0
   11.2290   -0.5613   23.6670 N   0  0  0  0  0  0  0  0  0  0  0  0
    8.7670   -1.8794   22.9628 C   0  0  0  0  0  0  0  0  0  0  0  0
    9.3096   -2.5197   23.8303 O   0  0  0  0  0  0  0  0  0  0  0  0
    7.5034   -2.2671   22.5851 N   0  0  0  0  0  0  0  0  0  0  0  0
    7.1319   -3.0410   23.0923 H   0  0  0  0  0  0  0  0  0  0  0  0
    6.7215   -1.7851   21.5874 C   0  0  0  0  0  0  0  0  0  0  0  0
    5.6417   -2.2744   21.3658 O   0  0  0  0  0  0  0  0  0  0  0  0
    5.3838    0.6236   20.0572 C   0  0  0  0  0  0  0  0  0  0  0  0
    4.9691    0.6010   21.0647 H   0  0  0  0  0  0  0  0  0  0  0  0
    4.7733    1.3323   19.0152 C   0  0  0  0  0  0  0  0  0  0  0  0
    3.8522    1.8787   19.1743 H   0  0  0  0  0  0  0  0  0  0  0  0
  1  2  1  0
  2  3  2  0
  3  4  1  0
  4  5  1  0
  4  6  2  0
  6  7  1  0
  7  8  1  0
  8  9  1  0
  8 10  2  0
 10 11  1  0
 11 12  1  0
 12 13  2  0
 13 14  1  0
 14 15  1  0
 14 16  1  0
 10 17  1  0
 17 18  2  0
 17 19  1  0
 19 20  1  0
 19 21  1  0
 21 22  2  0
  6 23  1  0
 23 24  1  0
 23 25  2  0
 25 26  1  0
 25  2  1  0
 21  7  1  0
 16 11  2  0
M  END
>  <cnnaffinity>  (1) 
-5.0482

>  <filename>  (1) 
O=c1[nH]c(=O)n(-c2cccnc2)cc1-c1nn[nH]n1

$$$$
