
     RDKit          3D

 29 31  0  0  0  0  0  0  0  0999 V2000
    4.9893    1.8499   16.8179 H   0  0  0  0  0  0  0  0  0  0  0  0
    5.4246    1.3357   17.6683 C   0  0  0  0  0  0  0  0  0  0  0  0
    6.5892    0.7056   17.4384 N   0  0  0  0  0  0  0  0  0  0  0  0
    7.1533    0.0730   18.4742 C   0  0  0  0  0  0  0  0  0  0  0  0
    8.1025   -0.4162   18.2574 H   0  0  0  0  0  0  0  0  0  0  0  0
    6.5997    0.0318   19.7708 C   0  0  0  0  0  0  0  0  0  0  0  0
    7.2522   -0.6400   20.8930 C   0  0  0  0  0  0  0  0  0  0  0  0
    7.0832   -0.4737   22.2233 C   0  0  0  0  0  0  0  0  0  0  0  0
    6.4055    0.1712   22.7613 H   0  0  0  0  0  0  0  0  0  0  0  0
    7.9421   -1.3452   22.9003 N   0  0  0  0  0  0  0  0  0  0  0  0
    8.2446   -1.3101   24.2915 C   0  0  0  0  0  0  0  0  0  0  0  0
    8.2526   -0.0663   24.9355 C   0  0  0  0  0  0  0  0  0  0  0  0
    7.9447    0.8247   24.3987 H   0  0  0  0  0  0  0  0  0  0  0  0
    8.6629    0.0373   26.2671 C   0  0  0  0  0  0  0  0  0  0  0  0
    8.7249    0.9868   26.7845 H   0  0  0  0  0  0  0  0  0  0  0  0
    9.0194   -1.1061   26.9686 C   0  0  0  0  0  0  0  0  0  0  0  0
    9.4329   -0.9976   28.2363 F   0  0  0  0  0  0  0  0  0  0  0  0
    8.9317   -2.3600   26.3532 C   0  0  0  0  0  0  0  0  0  0  0  0
    9.2295   -3.4627   27.0496 F   0  0  0  0  0  0  0  0  0  0  0  0
    8.5567   -2.4723   25.0156 C   0  0  0  0  0  0  0  0  0  0  0  0
    8.5170   -3.4552   24.5625 H   0  0  0  0  0  0  0  0  0  0  0  0
    8.6119   -2.1309   21.9593 C   0  0  0  0  0  0  0  0  0  0  0  0
    9.3158   -3.1030   22.1151 O   0  0  0  0  0  0  0  0  0  0  0  0
    8.2499   -1.5957   20.7425 N   0  0  0  0  0  0  0  0  0  0  0  0
    8.4252   -2.1839   19.9478 H   0  0  0  0  0  0  0  0  0  0  0  0
    5.3739    0.6914   19.9792 C   0  0  0  0  0  0  0  0  0  0  0  0
    4.8948    0.6729   20.9605 H   0  0  0  0  0  0  0  0  0  0  0  0
    4.7784    1.3512   18.9096 C   0  0  0  0  0  0  0  0  0  0  0  0
    3.8382    1.8807   19.0271 H   0  0  0  0  0  0  0  0  0  0  0  0
  1  2  1  0
  2  3  2  0
  3  4  1  0
  4  5  1  0
  4  6  2  0
  6  7  1  0
  7  8  2  0
  8  9  1  0
  8 10  1  0
 10 11  1  0
 11 12  2  0
 12 13  1  0
 12 14  1  0
 14 15  1  0
 14 16  2  0
 16 17  1  0
 16 18  1  0
 18 19  1  0
 18 20  2  0
 20 21  1  0
 10 22  1  0
 22 23  2  0
 22 24  1  0
 24 25  1  0
  6 26  1  0
 26 27  1  0
 26 28  2  0
 28 29  1  0
 28  2  1  0
 24  7  1  0
 20 11  1  0
M  END
>  <cnnaffinity>  (1) 
-5.39034

>  <filename>  (1) 
O=c1[nH]c(-c2cccnc2)cn1-c1ccc(F)c(F)c1

$$$$
