
     RDKit          3D

 34 37  0  0  0  0  0  0  0  0999 V2000
    4.9205    1.8338   16.9500 H   0  0  0  0  0  0  0  0  0  0  0  0
    5.3965    1.3371   17.7914 C   0  0  0  0  0  0  0  0  0  0  0  0
    6.5649    0.7289   17.5265 N   0  0  0  0  0  0  0  0  0  0  0  0
    7.1678    0.0992   18.5424 C   0  0  0  0  0  0  0  0  0  0  0  0
    8.1201   -0.3789   18.3064 H   0  0  0  0  0  0  0  0  0  0  0  0
    6.6385   -0.0041   19.8500 C   0  0  0  0  0  0  0  0  0  0  0  0
    7.3644   -0.7304   20.9302 C   0  0  0  0  0  0  0  0  0  0  0  0
    8.6854   -0.4530   21.1986 C   0  0  0  0  0  0  0  0  0  0  0  0
    9.2068    0.2843   20.5861 H   0  0  0  0  0  0  0  0  0  0  0  0
    9.4270   -1.0915   22.2453 C   0  0  0  0  0  0  0  0  0  0  0  0
   10.8723   -0.7807   22.3961 C   0  0  0  0  0  0  0  0  0  0  0  0
   11.8625   -1.7072   22.3473 C   0  0  0  0  0  0  0  0  0  0  0  0
   11.7561   -2.7835   22.2997 H   0  0  0  0  0  0  0  0  0  0  0  0
   13.4563   -1.0406   22.3950 S   0  0  0  0  0  0  0  0  0  0  0  0
   12.8252    0.5606   22.6068 C   0  0  0  0  0  0  0  0  0  0  0  0
   13.5661    1.7332   22.8424 C   0  0  0  0  0  0  0  0  0  0  0  0
   14.6433    1.6927   22.9704 H   0  0  0  0  0  0  0  0  0  0  0  0
   12.8919    2.9446   22.9104 C   0  0  0  0  0  0  0  0  0  0  0  0
   13.4464    3.8675   23.0664 H   0  0  0  0  0  0  0  0  0  0  0  0
   11.4868    2.9876   22.7718 C   0  0  0  0  0  0  0  0  0  0  0  0
   10.9801    3.9486   22.7443 H   0  0  0  0  0  0  0  0  0  0  0  0
   10.7516    1.8212   22.6102 C   0  0  0  0  0  0  0  0  0  0  0  0
    9.6657    1.8613   22.5330 H   0  0  0  0  0  0  0  0  0  0  0  0
   11.4148    0.5718   22.5303 C   0  0  0  0  0  0  0  0  0  0  0  0
    8.7828   -2.0156   23.0336 C   0  0  0  0  0  0  0  0  0  0  0  0
    9.2735   -2.5546   23.8507 H   0  0  0  0  0  0  0  0  0  0  0  0
    7.4634   -2.2860   22.7837 N   0  0  0  0  0  0  0  0  0  0  0  0
    6.9002   -2.9800   23.2580 H   0  0  0  0  0  0  0  0  0  0  0  0
    6.6884   -1.7777   21.7296 C   0  0  0  0  0  0  0  0  0  0  0  0
    5.5872   -2.2837   21.5756 O   0  0  0  0  0  0  0  0  0  0  0  0
    5.4139    0.6430   20.0928 C   0  0  0  0  0  0  0  0  0  0  0  0
    4.9801    0.6173   21.0923 H   0  0  0  0  0  0  0  0  0  0  0  0
    4.7900    1.3315   19.0500 C   0  0  0  0  0  0  0  0  0  0  0  0
    3.8524    1.8606   19.1923 H   0  0  0  0  0  0  0  0  0  0  0  0
  1  2  1  0
  2  3  2  0
  3  4  1  0
  4  5  1  0
  4  6  2  0
  6  7  1  0
  7  8  2  0
  8  9  1  0
  8 10  1  0
 10 11  1  0
 11 12  2  0
 12 13  1  0
 12 14  1  0
 14 15  1  0
 15 16  2  0
 16 17  1  0
 16 18  1  0
 18 19  1  0
 18 20  2  0
 20 21  1  0
 20 22  1  0
 22 23  1  0
 22 24  2  0
 10 25  2  0
 25 26  1  0
 25 27  1  0
 27 28  1  0
 27 29  1  0
 29 30  2  0
  6 31  1  0
 31 32  1  0
 31 33  2  0
 33 34  1  0
 33  2  1  0
 29  7  1  0
 24 11  1  0
 24 15  1  0
M  END
>  <cnnaffinity>  (1) 
-6.05628

>  <filename>  (1) 
O=c1[nH]cc(-c2csc3ccccc23)cc1-c1cccnc1

$$$$
