
     RDKit          3D

 33 36  0  0  0  0  0  0  0  0999 V2000
    4.9129    1.7764   17.0005 H   0  0  0  0  0  0  0  0  0  0  0  0
    5.4019    1.2931   17.8436 C   0  0  0  0  0  0  0  0  0  0  0  0
    6.5651    0.6740   17.5840 N   0  0  0  0  0  0  0  0  0  0  0  0
    7.1741    0.0521   18.6001 C   0  0  0  0  0  0  0  0  0  0  0  0
    8.1249   -0.4280   18.3831 H   0  0  0  0  0  0  0  0  0  0  0  0
    6.6430   -0.0103   19.9006 C   0  0  0  0  0  0  0  0  0  0  0  0
    7.3264   -0.7207   20.9465 N   0  0  0  0  0  0  0  0  0  0  0  0
    6.5635   -1.6086   21.6588 N   0  0  0  0  0  0  0  0  0  0  0  0
    7.1402   -2.2925   22.6242 C   0  0  0  0  0  0  0  0  0  0  0  0
    6.3261   -3.2756   23.3833 C   0  0  0  0  0  0  0  0  0  0  0  0
    4.6477   -3.5036   22.9534 S   0  0  0  0  0  0  0  0  0  0  0  0
    4.4414   -4.6888   24.2087 C   0  0  0  0  0  0  0  0  0  0  0  0
    3.2761   -5.3991   24.5437 C   0  0  0  0  0  0  0  0  0  0  0  0
    2.3534   -5.2233   23.9968 H   0  0  0  0  0  0  0  0  0  0  0  0
    3.3352   -6.3251   25.5821 C   0  0  0  0  0  0  0  0  0  0  0  0
    2.4442   -6.8855   25.8556 H   0  0  0  0  0  0  0  0  0  0  0  0
    4.5406   -6.5485   26.2897 C   0  0  0  0  0  0  0  0  0  0  0  0
    4.5665   -7.2749   27.0984 H   0  0  0  0  0  0  0  0  0  0  0  0
    5.6904   -5.8464   25.9629 C   0  0  0  0  0  0  0  0  0  0  0  0
    6.6272   -6.0028   26.4961 H   0  0  0  0  0  0  0  0  0  0  0  0
    5.6486   -4.9035   24.9134 C   0  0  0  0  0  0  0  0  0  0  0  0
    6.7080   -4.0783   24.4163 C   0  0  0  0  0  0  0  0  0  0  0  0
    7.6983   -4.1348   24.8618 H   0  0  0  0  0  0  0  0  0  0  0  0
    8.5307   -2.1077   22.9664 C   0  0  0  0  0  0  0  0  0  0  0  0
    8.9784   -2.6828   23.7740 H   0  0  0  0  0  0  0  0  0  0  0  0
    9.2760   -1.2042   22.2823 C   0  0  0  0  0  0  0  0  0  0  0  0
   10.3200   -0.9998   22.4837 H   0  0  0  0  0  0  0  0  0  0  0  0
    8.7145   -0.4041   21.2042 C   0  0  0  0  0  0  0  0  0  0  0  0
    9.3285    0.4334   20.5663 O   0  0  0  0  0  0  0  0  0  0  0  0
    5.4369    0.6453   20.1647 C   0  0  0  0  0  0  0  0  0  0  0  0
    5.0167    0.6083   21.1697 H   0  0  0  0  0  0  0  0  0  0  0  0
    4.8084    1.3165   19.1117 C   0  0  0  0  0  0  0  0  0  0  0  0
    3.8731    1.8461   19.2648 H   0  0  0  0  0  0  0  0  0  0  0  0
  1  2  1  0
  2  3  2  0
  3  4  1  0
  4  5  1  0
  4  6  2  0
  6  7  1  0
  7  8  1  0
  8  9  2  0
  9 10  1  0
 10 11  1  0
 11 12  1  0
 12 13  2  0
 13 14  1  0
 13 15  1  0
 15 16  1  0
 15 17  2  0
 17 18  1  0
 17 19  1  0
 19 20  1  0
 19 21  2  0
 21 22  1  0
 22 23  1  0
  9 24  1  0
 24 25  1  0
 24 26  2  0
 26 27  1  0
 26 28  1  0
 28 29  2  0
  6 30  1  0
 30 31  1  0
 30 32  2  0
 32 33  1  0
 32  2  1  0
 28  7  1  0
 22 10  2  0
 21 12  1  0
M  END
>  <cnnaffinity>  (1) 
-5.62798

>  <filename>  (1) 
O=c1ccc(-c2cc3ccccc3s2)nn1-c1cccnc1

$$$$
