
     RDKit          3D

 34 37  0  0  0  0  0  0  0  0999 V2000
    4.9276    1.7911   16.9924 H   0  0  0  0  0  0  0  0  0  0  0  0
    5.4005    1.2962   17.8383 C   0  0  0  0  0  0  0  0  0  0  0  0
    6.5612    0.6735   17.5797 N   0  0  0  0  0  0  0  0  0  0  0  0
    7.1732    0.0550   18.5971 C   0  0  0  0  0  0  0  0  0  0  0  0
    8.1124   -0.4438   18.3630 H   0  0  0  0  0  0  0  0  0  0  0  0
    6.6629    0.0007   19.9077 C   0  0  0  0  0  0  0  0  0  0  0  0
    7.3520   -0.6975   20.9540 N   0  0  0  0  0  0  0  0  0  0  0  0
    6.5781   -1.4312   21.8094 N   0  0  0  0  0  0  0  0  0  0  0  0
    7.1468   -2.0728   22.8034 C   0  0  0  0  0  0  0  0  0  0  0  0
    6.2421   -2.8401   23.7143 C   0  0  0  0  0  0  0  0  0  0  0  0
    6.4686   -2.8683   25.1259 C   0  0  0  0  0  0  0  0  0  0  0  0
    7.3381   -2.3403   25.5160 H   0  0  0  0  0  0  0  0  0  0  0  0
    5.6479   -3.5951   25.9744 C   0  0  0  0  0  0  0  0  0  0  0  0
    5.8351   -3.6116   27.0450 H   0  0  0  0  0  0  0  0  0  0  0  0
    4.5843   -4.3149   25.3946 C   0  0  0  0  0  0  0  0  0  0  0  0
    4.3409   -4.3136   23.9959 C   0  0  0  0  0  0  0  0  0  0  0  0
    5.1825   -3.5621   23.1591 C   0  0  0  0  0  0  0  0  0  0  0  0
    5.0335   -3.5384   22.0834 H   0  0  0  0  0  0  0  0  0  0  0  0
    3.1773   -5.1276   23.7750 C   0  0  0  0  0  0  0  0  0  0  0  0
    2.7244   -5.3222   22.8122 H   0  0  0  0  0  0  0  0  0  0  0  0
    2.7666   -5.5772   24.9949 C   0  0  0  0  0  0  0  0  0  0  0  0
    1.9290   -6.2102   25.2590 H   0  0  0  0  0  0  0  0  0  0  0  0
    3.6142   -5.0921   25.9719 N   0  0  0  0  0  0  0  0  0  0  0  0
    3.5508   -5.2661   26.9604 H   0  0  0  0  0  0  0  0  0  0  0  0
    8.6403   -2.0835   23.0266 C   0  0  0  0  0  0  0  0  0  0  0  0
    9.2089   -2.7190   23.9086 O   0  0  0  0  0  0  0  0  0  0  0  0
    9.3765   -1.2568   22.0805 C   0  0  0  0  0  0  0  0  0  0  0  0
   10.4493   -1.2132   22.2094 H   0  0  0  0  0  0  0  0  0  0  0  0
    8.7180   -0.6108   21.1069 C   0  0  0  0  0  0  0  0  0  0  0  0
    9.2134    0.0368   20.3879 H   0  0  0  0  0  0  0  0  0  0  0  0
    5.4443    0.6420   20.1639 C   0  0  0  0  0  0  0  0  0  0  0  0
    5.0367    0.5896   21.1725 H   0  0  0  0  0  0  0  0  0  0  0  0
    4.8130    1.3113   19.1094 C   0  0  0  0  0  0  0  0  0  0  0  0
    3.8791    1.8413   19.2565 H   0  0  0  0  0  0  0  0  0  0  0  0
  1  2  1  0
  2  3  2  0
  3  4  1  0
  4  5  1  0
  4  6  2  0
  6  7  1  0
  7  8  1  0
  8  9  2  0
  9 10  1  0
 10 11  2  0
 11 12  1  0
 11 13  1  0
 13 14  1  0
 13 15  2  0
 15 16  1  0
 16 17  2  0
 17 18  1  0
 16 19  1  0
 19 20  1  0
 19 21  2  0
 21 22  1  0
 21 23  1  0
 23 24  1  0
  9 25  1  0
 25 26  2  0
 25 27  1  0
 27 28  1  0
 27 29  2  0
 29 30  1  0
  6 31  1  0
 31 32  1  0
 31 33  2  0
 33 34  1  0
 33  2  1  0
 29  7  1  0
 17 10  1  0
 23 15  1  0
M  END
>  <cnnaffinity>  (1) 
-6.0058

>  <filename>  (1) 
O=c1ccn(-c2cccnc2)nc1-c1ccc2[nH]ccc2c1

$$$$
