
     RDKit          3D

 31 33  0  0  0  0  0  0  0  0999 V2000
    5.7004   -3.3090   21.4356 H   0  0  0  0  0  0  0  0  0  0  0  0
    5.3135   -4.0864   21.8876 O   0  0  0  0  0  0  0  0  0  0  0  0
    5.3643   -3.8068   23.2035 C   0  0  0  0  0  0  0  0  0  0  0  0
    4.5261   -4.5150   24.0773 C   0  0  0  0  0  0  0  0  0  0  0  0
    3.8440   -5.2566   23.6698 H   0  0  0  0  0  0  0  0  0  0  0  0
    4.5710   -4.2452   25.4435 C   0  0  0  0  0  0  0  0  0  0  0  0
    3.9036   -4.7797   26.1143 H   0  0  0  0  0  0  0  0  0  0  0  0
    5.4565   -3.2942   25.9588 C   0  0  0  0  0  0  0  0  0  0  0  0
    5.4788   -3.1024   27.0291 H   0  0  0  0  0  0  0  0  0  0  0  0
    6.3125   -2.6203   25.0910 C   0  0  0  0  0  0  0  0  0  0  0  0
    7.0374   -1.9307   25.5108 H   0  0  0  0  0  0  0  0  0  0  0  0
    6.2815   -2.8587   23.7033 C   0  0  0  0  0  0  0  0  0  0  0  0
    7.1884   -2.1497   22.7542 C   0  0  0  0  0  0  0  0  0  0  0  0
    6.6350   -1.6420   21.6669 N   0  0  0  0  0  0  0  0  0  0  0  0
    7.3754   -0.7958   20.8822 N   0  0  0  0  0  0  0  0  0  0  0  0
    6.6666   -0.0887   19.8577 C   0  0  0  0  0  0  0  0  0  0  0  0
    7.1676   -0.0038   18.5462 C   0  0  0  0  0  0  0  0  0  0  0  0
    8.0929   -0.5177   18.2990 H   0  0  0  0  0  0  0  0  0  0  0  0
    6.5711    0.6668   17.5521 N   0  0  0  0  0  0  0  0  0  0  0  0
    5.4251    1.3059   17.8381 C   0  0  0  0  0  0  0  0  0  0  0  0
    4.9588    1.8497   17.0169 H   0  0  0  0  0  0  0  0  0  0  0  0
    4.8394    1.2809   19.1109 C   0  0  0  0  0  0  0  0  0  0  0  0
    3.9166    1.8259   19.2789 H   0  0  0  0  0  0  0  0  0  0  0  0
    5.4598    0.5647   20.1422 C   0  0  0  0  0  0  0  0  0  0  0  0
    5.0467    0.5168   21.1491 H   0  0  0  0  0  0  0  0  0  0  0  0
    8.7236   -0.6185   21.0793 C   0  0  0  0  0  0  0  0  0  0  0  0
    9.2120    0.0756   20.4013 H   0  0  0  0  0  0  0  0  0  0  0  0
    9.3859   -1.2373   22.0744 C   0  0  0  0  0  0  0  0  0  0  0  0
   10.4491   -1.1462   22.2207 H   0  0  0  0  0  0  0  0  0  0  0  0
    8.6610   -2.0545   23.0300 C   0  0  0  0  0  0  0  0  0  0  0  0
    9.2381   -2.6153   23.9551 O   0  0  0  0  0  0  0  0  0  0  0  0
  1  2  1  0
  2  3  1  0
  3  4  2  0
  4  5  1  0
  4  6  1  0
  6  7  1  0
  6  8  2  0
  8  9  1  0
  8 10  1  0
 10 11  1  0
 10 12  2  0
 12 13  1  0
 13 14  2  0
 14 15  1  0
 15 16  1  0
 16 17  2  0
 17 18  1  0
 17 19  1  0
 19 20  2  0
 20 21  1  0
 20 22  1  0
 22 23  1  0
 22 24  2  0
 24 25  1  0
 15 26  1  0
 26 27  1  0
 26 28  2  0
 28 29  1  0
 28 30  1  0
 30 31  2  0
 12  3  1  0
 30 13  1  0
 24 16  1  0
M  END
>  <cnnaffinity>  (1) 
-5.15201

>  <filename>  (1) 
O=c1ccn(-c2cccnc2)nc1-c1ccccc1O

$$$$
