
     RDKit          3D

 40 42  0  0  0  0  0  0  0  0999 V2000
    5.0015    1.8688   16.9172 H   0  0  0  0  0  0  0  0  0  0  0  0
    5.4253    1.3738   17.7892 C   0  0  0  0  0  0  0  0  0  0  0  0
    6.5992    0.7497   17.5930 N   0  0  0  0  0  0  0  0  0  0  0  0
    7.1552    0.1281   18.6417 C   0  0  0  0  0  0  0  0  0  0  0  0
    8.1272   -0.3442   18.4938 H   0  0  0  0  0  0  0  0  0  0  0  0
    6.5578    0.0775   19.9150 C   0  0  0  0  0  0  0  0  0  0  0  0
    7.1800   -0.6315   21.0100 N   0  0  0  0  0  0  0  0  0  0  0  0
    7.8010    0.1052   21.9962 C   0  0  0  0  0  0  0  0  0  0  0  0
    7.6272    1.1768   21.9408 H   0  0  0  0  0  0  0  0  0  0  0  0
    8.5469   -0.4942   22.9658 C   0  0  0  0  0  0  0  0  0  0  0  0
    8.9885    0.1034   23.7532 H   0  0  0  0  0  0  0  0  0  0  0  0
    8.7320   -1.9145   22.9615 C   0  0  0  0  0  0  0  0  0  0  0  0
    9.5425   -2.6329   24.0214 C   0  0  0  0  0  0  0  0  0  0  0  0
   10.0955   -1.8972   24.6188 H   0  0  0  0  0  0  0  0  0  0  0  0
   10.3072   -3.2489   23.5301 H   0  0  0  0  0  0  0  0  0  0  0  0
    8.6661   -3.5457   24.9155 C   0  0  0  0  0  0  0  0  0  0  0  0
    9.2980   -4.0380   25.6687 H   0  0  0  0  0  0  0  0  0  0  0  0
    8.2508   -4.3526   24.2944 H   0  0  0  0  0  0  0  0  0  0  0  0
    7.4895   -2.8013   25.5847 C   0  0  0  0  0  0  0  0  0  0  0  0
    7.8861   -1.9715   26.1910 H   0  0  0  0  0  0  0  0  0  0  0  0
    6.8854   -2.3364   24.7926 H   0  0  0  0  0  0  0  0  0  0  0  0
    6.5943   -3.6594   26.4618 C   0  0  0  0  0  0  0  0  0  0  0  0
    7.0967   -4.2122   27.6511 C   0  0  0  0  0  0  0  0  0  0  0  0
    8.1358   -4.0176   27.9166 H   0  0  0  0  0  0  0  0  0  0  0  0
    6.2770   -4.9774   28.4877 C   0  0  0  0  0  0  0  0  0  0  0  0
    6.6743   -5.4248   29.3937 H   0  0  0  0  0  0  0  0  0  0  0  0
    4.9314   -5.1759   28.1630 C   0  0  0  0  0  0  0  0  0  0  0  0
    4.2850   -5.7264   28.8412 H   0  0  0  0  0  0  0  0  0  0  0  0
    4.4212   -4.6519   26.9714 C   0  0  0  0  0  0  0  0  0  0  0  0
    3.3784   -4.8135   26.7077 H   0  0  0  0  0  0  0  0  0  0  0  0
    5.2561   -3.9172   26.1208 C   0  0  0  0  0  0  0  0  0  0  0  0
    4.8633   -3.5343   25.1807 H   0  0  0  0  0  0  0  0  0  0  0  0
    8.0724   -2.6509   22.0218 C   0  0  0  0  0  0  0  0  0  0  0  0
    8.1606   -3.7262   21.9706 H   0  0  0  0  0  0  0  0  0  0  0  0
    7.1522   -2.0716   21.0634 C   0  0  0  0  0  0  0  0  0  0  0  0
    6.4160   -2.7285   20.3521 O   0  0  0  0  0  0  0  0  0  0  0  0
    5.3526    0.7543   20.1152 C   0  0  0  0  0  0  0  0  0  0  0  0
    4.9076    0.7674   21.1103 H   0  0  0  0  0  0  0  0  0  0  0  0
    4.7622    1.3996   19.0215 C   0  0  0  0  0  0  0  0  0  0  0  0
    3.8205    1.9289   19.1156 H   0  0  0  0  0  0  0  0  0  0  0  0
  1  2  1  0
  2  3  2  0
  3  4  1  0
  4  5  1  0
  4  6  2  0
  6  7  1  0
  7  8  1  0
  8  9  1  0
  8 10  2  0
 10 11  1  0
 10 12  1  0
 12 13  1  0
 13 14  1  0
 13 15  1  0
 13 16  1  0
 16 17  1  0
 16 18  1  0
 16 19  1  0
 19 20  1  0
 19 21  1  0
 19 22  1  0
 22 23  2  0
 23 24  1  0
 23 25  1  0
 25 26  1  0
 25 27  2  0
 27 28  1  0
 27 29  1  0
 29 30  1  0
 29 31  2  0
 31 32  1  0
 12 33  2  0
 33 34  1  0
 33 35  1  0
 35 36  2  0
  6 37  1  0
 37 38  1  0
 37 39  2  0
 39 40  1  0
 39  2  1  0
 35  7  1  0
 31 22  1  0
M  END
>  <cnnaffinity>  (1) 
-5.52931

>  <filename>  (1) 
O=c1cc(CCCc2ccccc2)ccn1-c1cccnc1

$$$$
