
     RDKit          3D

 40 42  0  0  0  0  0  0  0  0999 V2000
    5.0137    1.7252   16.8878 H   0  0  0  0  0  0  0  0  0  0  0  0
    5.4511    1.2539   17.7661 C   0  0  0  0  0  0  0  0  0  0  0  0
    6.6044    0.5935   17.5740 N   0  0  0  0  0  0  0  0  0  0  0  0
    7.1716    0.0013   18.6354 C   0  0  0  0  0  0  0  0  0  0  0  0
    8.1095   -0.5233   18.4526 H   0  0  0  0  0  0  0  0  0  0  0  0
    6.6270    0.0527   19.9359 C   0  0  0  0  0  0  0  0  0  0  0  0
    7.2578   -0.5759   21.0717 N   0  0  0  0  0  0  0  0  0  0  0  0
    7.4440   -1.9473   21.0769 C   0  0  0  0  0  0  0  0  0  0  0  0
    6.9918   -2.4830   20.2453 H   0  0  0  0  0  0  0  0  0  0  0  0
    8.1318   -2.5998   22.0657 C   0  0  0  0  0  0  0  0  0  0  0  0
    8.3338   -4.1000   21.9981 C   0  0  0  0  0  0  0  0  0  0  0  0
    9.2297   -4.3903   22.5585 H   0  0  0  0  0  0  0  0  0  0  0  0
    8.4610   -4.3944   20.9494 H   0  0  0  0  0  0  0  0  0  0  0  0
    7.1677   -4.9530   22.5154 C   0  0  0  0  0  0  0  0  0  0  0  0
    7.4473   -6.0130   22.4452 H   0  0  0  0  0  0  0  0  0  0  0  0
    7.0123   -4.7568   23.5880 H   0  0  0  0  0  0  0  0  0  0  0  0
    5.9597   -4.6963   21.7284 N   0  0  0  0  0  0  0  0  0  0  0  0
    5.0097   -3.7861   22.3935 C   0  0  0  0  0  0  0  0  0  0  0  0
    5.5614   -2.9733   22.8883 H   0  0  0  0  0  0  0  0  0  0  0  0
    4.3530   -3.3436   21.6305 H   0  0  0  0  0  0  0  0  0  0  0  0
    4.1485   -4.5602   23.4026 C   0  0  0  0  0  0  0  0  0  0  0  0
    3.4794   -3.9095   23.9663 H   0  0  0  0  0  0  0  0  0  0  0  0
    4.8111   -5.0695   24.1258 H   0  0  0  0  0  0  0  0  0  0  0  0
    3.3492   -5.5277   22.7284 O   0  0  0  0  0  0  0  0  0  0  0  0
    4.1731   -6.4812   22.0615 C   0  0  0  0  0  0  0  0  0  0  0  0
    3.4892   -7.1301   21.5034 H   0  0  0  0  0  0  0  0  0  0  0  0
    4.6895   -7.1120   22.8020 H   0  0  0  0  0  0  0  0  0  0  0  0
    5.2518   -5.8409   21.1416 C   0  0  0  0  0  0  0  0  0  0  0  0
    4.8213   -5.4865   20.2050 H   0  0  0  0  0  0  0  0  0  0  0  0
    5.9756   -6.6069   20.8406 H   0  0  0  0  0  0  0  0  0  0  0  0
    8.6404   -1.8204   23.1520 C   0  0  0  0  0  0  0  0  0  0  0  0
    9.2295   -2.3094   23.9320 H   0  0  0  0  0  0  0  0  0  0  0  0
    8.4105   -0.4804   23.2100 C   0  0  0  0  0  0  0  0  0  0  0  0
    8.7584    0.1657   24.0027 H   0  0  0  0  0  0  0  0  0  0  0  0
    7.6603    0.2310   22.1909 C   0  0  0  0  0  0  0  0  0  0  0  0
    7.4128    1.4238   22.2602 O   0  0  0  0  0  0  0  0  0  0  0  0
    5.4399    0.7685   20.1229 C   0  0  0  0  0  0  0  0  0  0  0  0
    5.0425    0.8699   21.1309 H   0  0  0  0  0  0  0  0  0  0  0  0
    4.8262    1.3552   19.0139 C   0  0  0  0  0  0  0  0  0  0  0  0
    3.9007    1.9123   19.1153 H   0  0  0  0  0  0  0  0  0  0  0  0
  1  2  1  0
  2  3  2  0
  3  4  1  0
  4  5  1  0
  4  6  2  0
  6  7  1  0
  7  8  1  0
  8  9  1  0
  8 10  2  0
 10 11  1  0
 11 12  1  0
 11 13  1  0
 11 14  1  0
 14 15  1  0
 14 16  1  0
 14 17  1  0
 17 18  1  0
 18 19  1  0
 18 20  1  0
 18 21  1  0
 21 22  1  0
 21 23  1  0
 21 24  1  0
 24 25  1  0
 25 26  1  0
 25 27  1  0
 25 28  1  0
 28 29  1  0
 28 30  1  0
 10 31  1  0
 31 32  1  0
 31 33  2  0
 33 34  1  0
 33 35  1  0
 35 36  2  0
  6 37  1  0
 37 38  1  0
 37 39  2  0
 39 40  1  0
 39  2  1  0
 35  7  1  0
 28 17  1  0
M  END
>  <cnnaffinity>  (1) 
-4.8262

>  <filename>  (1) 
O=c1ccc(CCN2CCOCC2)cn1-c1cccnc1

$$$$
