
     RDKit          3D

 28 30  0  0  0  0  0  0  0  0999 V2000
    4.9353    1.7938   16.9870 H   0  0  0  0  0  0  0  0  0  0  0  0
    5.4043    1.2972   17.8345 C   0  0  0  0  0  0  0  0  0  0  0  0
    6.5671    0.6768   17.5812 N   0  0  0  0  0  0  0  0  0  0  0  0
    7.1634    0.0509   18.5995 C   0  0  0  0  0  0  0  0  0  0  0  0
    8.1101   -0.4360   18.3677 H   0  0  0  0  0  0  0  0  0  0  0  0
    6.6447    0.0162   19.9026 C   0  0  0  0  0  0  0  0  0  0  0  0
    7.3906   -0.7055   20.9269 C   0  0  0  0  0  0  0  0  0  0  0  0
    8.0404   -1.8039   20.6873 N   0  0  0  0  0  0  0  0  0  0  0  0
    8.5193   -2.1784   21.9100 N   0  0  0  0  0  0  0  0  0  0  0  0
    9.0646   -3.0054   22.0757 H   0  0  0  0  0  0  0  0  0  0  0  0
    8.2260   -1.3202   22.9202 C   0  0  0  0  0  0  0  0  0  0  0  0
    8.5708   -1.4070   24.0819 O   0  0  0  0  0  0  0  0  0  0  0  0
    7.4581   -0.3447   22.2623 N   0  0  0  0  0  0  0  0  0  0  0  0
    7.0351    0.8674   22.8804 C   0  0  0  0  0  0  0  0  0  0  0  0
    6.1181    0.7769   23.9337 C   0  0  0  0  0  0  0  0  0  0  0  0
    5.8180   -0.2187   24.2470 H   0  0  0  0  0  0  0  0  0  0  0  0
    5.6344    1.9260   24.5582 C   0  0  0  0  0  0  0  0  0  0  0  0
    4.9295    1.8350   25.3774 H   0  0  0  0  0  0  0  0  0  0  0  0
    6.0767    3.1846   24.1402 C   0  0  0  0  0  0  0  0  0  0  0  0
    5.7081    4.0848   24.6258 H   0  0  0  0  0  0  0  0  0  0  0  0
    7.0044    3.2883   23.1015 C   0  0  0  0  0  0  0  0  0  0  0  0
    7.3578    4.2567   22.7618 H   0  0  0  0  0  0  0  0  0  0  0  0
    7.4906    2.1377   22.4728 C   0  0  0  0  0  0  0  0  0  0  0  0
    8.6493    2.3233   21.1911 Cl  0  0  0  0  0  0  0  0  0  0  0  0
    5.4275    0.6623   20.1544 C   0  0  0  0  0  0  0  0  0  0  0  0
    4.9972    0.6494   21.1579 H   0  0  0  0  0  0  0  0  0  0  0  0
    4.8004    1.3146   19.0975 C   0  0  0  0  0  0  0  0  0  0  0  0
    3.8687    1.8465   19.2412 H   0  0  0  0  0  0  0  0  0  0  0  0
  1  2  1  0
  2  3  2  0
  3  4  1  0
  4  5  1  0
  4  6  2  0
  6  7  1  0
  7  8  2  0
  8  9  1  0
  9 10  1  0
  9 11  1  0
 11 12  2  0
 11 13  1  0
 13 14  1  0
 14 15  2  0
 15 16  1  0
 15 17  1  0
 17 18  1  0
 17 19  2  0
 19 20  1  0
 19 21  1  0
 21 22  1  0
 21 23  2  0
 23 24  1  0
  6 25  1  0
 25 26  1  0
 25 27  2  0
 27 28  1  0
 27  2  1  0
 13  7  1  0
 23 14  1  0
M  END
>  <cnnaffinity>  (1) 
-5.02437

>  <filename>  (1) 
O=c1[nH]nc(-c2cccnc2)n1-c1ccccc1Cl

$$$$
