
     RDKit          3D

 44 47  0  0  0  0  0  0  0  0999 V2000
    4.9393    1.7963   17.0047 H   0  0  0  0  0  0  0  0  0  0  0  0
    5.3998    1.2892   17.8486 C   0  0  0  0  0  0  0  0  0  0  0  0
    6.5512    0.6546   17.5811 N   0  0  0  0  0  0  0  0  0  0  0  0
    7.1616    0.0287   18.5923 C   0  0  0  0  0  0  0  0  0  0  0  0
    8.1229   -0.4270   18.3743 H   0  0  0  0  0  0  0  0  0  0  0  0
    6.6425   -0.0303   19.8974 C   0  0  0  0  0  0  0  0  0  0  0  0
    7.3434   -0.7234   20.9339 N   0  0  0  0  0  0  0  0  0  0  0  0
    6.5806   -1.6468   21.6238 N   0  0  0  0  0  0  0  0  0  0  0  0
    7.1409   -2.2885   22.6230 C   0  0  0  0  0  0  0  0  0  0  0  0
    6.3694   -3.1906   23.3347 N   0  0  0  0  0  0  0  0  0  0  0  0
    6.6145   -3.5666   24.7318 C   0  0  0  0  0  0  0  0  0  0  0  0
    7.1850   -2.7797   25.2372 H   0  0  0  0  0  0  0  0  0  0  0  0
    7.1829   -4.5106   24.7858 H   0  0  0  0  0  0  0  0  0  0  0  0
    5.2943   -3.7781   25.5122 C   0  0  0  0  0  0  0  0  0  0  0  0
    4.8019   -2.7924   25.6455 H   0  0  0  0  0  0  0  0  0  0  0  0
    5.5285   -4.1827   26.5062 H   0  0  0  0  0  0  0  0  0  0  0  0
    4.4478   -4.7305   24.8029 N   0  0  0  0  0  0  0  0  0  0  0  0
    3.5539   -5.5832   25.4787 C   0  0  0  0  0  0  0  0  0  0  0  0
    3.3320   -6.8600   24.9352 C   0  0  0  0  0  0  0  0  0  0  0  0
    3.8436   -7.0876   24.0068 H   0  0  0  0  0  0  0  0  0  0  0  0
    2.5273   -7.7890   25.5953 C   0  0  0  0  0  0  0  0  0  0  0  0
    2.3923   -8.7822   25.1703 H   0  0  0  0  0  0  0  0  0  0  0  0
    1.9041   -7.4391   26.8000 C   0  0  0  0  0  0  0  0  0  0  0  0
    1.2794   -8.1648   27.3161 H   0  0  0  0  0  0  0  0  0  0  0  0
    2.0926   -6.1593   27.3368 C   0  0  0  0  0  0  0  0  0  0  0  0
    1.6131   -5.8856   28.2759 H   0  0  0  0  0  0  0  0  0  0  0  0
    2.9142   -5.2335   26.6817 C   0  0  0  0  0  0  0  0  0  0  0  0
    3.0809   -4.2364   27.0768 H   0  0  0  0  0  0  0  0  0  0  0  0
    4.1548   -4.2629   23.4487 C   0  0  0  0  0  0  0  0  0  0  0  0
    3.4793   -4.9645   22.9409 H   0  0  0  0  0  0  0  0  0  0  0  0
    3.6742   -3.2727   23.5036 H   0  0  0  0  0  0  0  0  0  0  0  0
    5.4507   -4.0967   22.6374 C   0  0  0  0  0  0  0  0  0  0  0  0
    5.2161   -3.6732   21.6560 H   0  0  0  0  0  0  0  0  0  0  0  0
    5.9164   -5.0915   22.4952 H   0  0  0  0  0  0  0  0  0  0  0  0
    8.5315   -2.0981   22.9764 C   0  0  0  0  0  0  0  0  0  0  0  0
    8.9242   -2.7311   23.7653 H   0  0  0  0  0  0  0  0  0  0  0  0
    9.2840   -1.2021   22.2893 C   0  0  0  0  0  0  0  0  0  0  0  0
   10.3334   -1.0050   22.4786 H   0  0  0  0  0  0  0  0  0  0  0  0
    8.7221   -0.4048   21.2001 C   0  0  0  0  0  0  0  0  0  0  0  0
    9.3374    0.4345   20.5629 O   0  0  0  0  0  0  0  0  0  0  0  0
    5.4300    0.6163   20.1663 C   0  0  0  0  0  0  0  0  0  0  0  0
    5.0200    0.5752   21.1749 H   0  0  0  0  0  0  0  0  0  0  0  0
    4.8070    1.3043   19.1180 C   0  0  0  0  0  0  0  0  0  0  0  0
    3.8798    1.8492   19.2621 H   0  0  0  0  0  0  0  0  0  0  0  0
  1  2  1  0
  2  3  2  0
  3  4  1  0
  4  5  1  0
  4  6  2  0
  6  7  1  0
  7  8  1  0
  8  9  2  0
  9 10  1  0
 10 11  1  0
 11 12  1  0
 11 13  1  0
 11 14  1  0
 14 15  1  0
 14 16  1  0
 14 17  1  0
 17 18  1  0
 18 19  2  0
 19 20  1  0
 19 21  1  0
 21 22  1  0
 21 23  2  0
 23 24  1  0
 23 25  1  0
 25 26  1  0
 25 27  2  0
 27 28  1  0
 17 29  1  0
 29 30  1  0
 29 31  1  0
 29 32  1  0
 32 33  1  0
 32 34  1  0
  9 35  1  0
 35 36  1  0
 35 37  2  0
 37 38  1  0
 37 39  1  0
 39 40  2  0
  6 41  1  0
 41 42  1  0
 41 43  2  0
 43 44  1  0
 43  2  1  0
 39  7  1  0
 32 10  1  0
 27 18  1  0
M  END
>  <cnnaffinity>  (1) 
-5.49829

>  <filename>  (1) 
O=c1ccc(N2CCN(c3ccccc3)CC2)nn1-c1cccnc1

$$$$
