
     RDKit          3D

 30 32  0  0  0  0  0  0  0  0999 V2000
    5.0225    1.7620   16.9569 H   0  0  0  0  0  0  0  0  0  0  0  0
    5.4773    1.2800   17.8190 C   0  0  0  0  0  0  0  0  0  0  0  0
    6.6519    0.6617   17.6018 N   0  0  0  0  0  0  0  0  0  0  0  0
    7.2335    0.0483   18.6395 C   0  0  0  0  0  0  0  0  0  0  0  0
    8.1967   -0.4316   18.4792 H   0  0  0  0  0  0  0  0  0  0  0  0
    6.6632   -0.0079   19.9227 C   0  0  0  0  0  0  0  0  0  0  0  0
    7.3354   -0.7205   20.9575 N   0  0  0  0  0  0  0  0  0  0  0  0
    8.7005   -0.5872   20.9678 N   0  0  0  0  0  0  0  0  0  0  0  0
    9.3893   -1.1970   21.8971 C   0  0  0  0  0  0  0  0  0  0  0  0
   10.8657   -0.9022   21.9243 C   0  0  0  0  0  0  0  0  0  0  0  0
   11.3072    0.4319   21.9932 C   0  0  0  0  0  0  0  0  0  0  0  0
   10.5796    1.2338   21.9377 H   0  0  0  0  0  0  0  0  0  0  0  0
   12.6671    0.7167   22.1634 C   0  0  0  0  0  0  0  0  0  0  0  0
   13.0070    1.7453   22.2647 H   0  0  0  0  0  0  0  0  0  0  0  0
   13.6097   -0.3168   22.1476 C   0  0  0  0  0  0  0  0  0  0  0  0
   14.6706   -0.1216   22.2340 H   0  0  0  0  0  0  0  0  0  0  0  0
   13.1604   -1.6268   22.0065 C   0  0  0  0  0  0  0  0  0  0  0  0
   14.0692   -2.6091   21.9517 F   0  0  0  0  0  0  0  0  0  0  0  0
   11.8064   -1.9459   21.9666 C   0  0  0  0  0  0  0  0  0  0  0  0
   11.4929   -2.9787   22.0552 H   0  0  0  0  0  0  0  0  0  0  0  0
    8.7647   -2.1032   22.9303 C   0  0  0  0  0  0  0  0  0  0  0  0
    9.3829   -2.7186   23.7909 O   0  0  0  0  0  0  0  0  0  0  0  0
    7.3064   -2.1728   22.8364 C   0  0  0  0  0  0  0  0  0  0  0  0
    6.7883   -2.7718   23.5736 H   0  0  0  0  0  0  0  0  0  0  0  0
    6.6590   -1.4962   21.8737 C   0  0  0  0  0  0  0  0  0  0  0  0
    5.5755   -1.5481   21.7379 H   0  0  0  0  0  0  0  0  0  0  0  0
    5.4547    0.6632   20.1485 C   0  0  0  0  0  0  0  0  0  0  0  0
    5.0377    0.6974   21.1546 H   0  0  0  0  0  0  0  0  0  0  0  0
    4.8502    1.3134   19.0690 C   0  0  0  0  0  0  0  0  0  0  0  0
    3.9116    1.8426   19.1892 H   0  0  0  0  0  0  0  0  0  0  0  0
  1  2  1  0
  2  3  2  0
  3  4  1  0
  4  5  1  0
  4  6  2  0
  6  7  1  0
  7  8  1  0
  8  9  2  0
  9 10  1  0
 10 11  2  0
 11 12  1  0
 11 13  1  0
 13 14  1  0
 13 15  2  0
 15 16  1  0
 15 17  1  0
 17 18  1  0
 17 19  2  0
 19 20  1  0
  9 21  1  0
 21 22  2  0
 21 23  1  0
 23 24  1  0
 23 25  2  0
 25 26  1  0
  6 27  1  0
 27 28  1  0
 27 29  2  0
 29 30  1  0
 29  2  1  0
 25  7  1  0
 19 10  1  0
M  END
>  <cnnaffinity>  (1) 
-5.7256

>  <filename>  (1) 
O=c1ccn(-c2cccnc2)nc1-c1cccc(F)c1

$$$$
