
     RDKit          3D

 31 33  0  0  0  0  0  0  0  0999 V2000
    4.9397    1.7951   16.9961 H   0  0  0  0  0  0  0  0  0  0  0  0
    5.4220    1.3130   17.8462 C   0  0  0  0  0  0  0  0  0  0  0  0
    6.6019    0.7144   17.6100 N   0  0  0  0  0  0  0  0  0  0  0  0
    7.1960    0.0653   18.6218 C   0  0  0  0  0  0  0  0  0  0  0  0
    8.1597   -0.3966   18.4057 H   0  0  0  0  0  0  0  0  0  0  0  0
    6.6410   -0.0155   19.9191 C   0  0  0  0  0  0  0  0  0  0  0  0
    7.2817   -0.7100   21.0041 N   0  0  0  0  0  0  0  0  0  0  0  0
    7.7186   -0.1803   22.2536 C   0  0  0  0  0  0  0  0  0  0  0  0
    7.4635    1.1821   22.7719 C   0  0  0  0  0  0  0  0  0  0  0  0
    7.6707    2.3379   21.9978 C   0  0  0  0  0  0  0  0  0  0  0  0
    8.0015    2.2299   20.9665 H   0  0  0  0  0  0  0  0  0  0  0  0
    7.4003    3.6001   22.5296 C   0  0  0  0  0  0  0  0  0  0  0  0
    7.5583    4.4861   21.9221 H   0  0  0  0  0  0  0  0  0  0  0  0
    6.9253    3.7403   23.8379 C   0  0  0  0  0  0  0  0  0  0  0  0
    6.7450    4.7373   24.2358 H   0  0  0  0  0  0  0  0  0  0  0  0
    6.7045    2.5992   24.6245 C   0  0  0  0  0  0  0  0  0  0  0  0
    6.1442    2.7168   26.0325 C   0  0  0  0  0  0  0  0  0  0  0  0
    6.5780    1.7197   26.8280 F   0  0  0  0  0  0  0  0  0  0  0  0
    4.7975    2.6626   26.0469 F   0  0  0  0  0  0  0  0  0  0  0  0
    6.4896    3.8745   26.6276 F   0  0  0  0  0  0  0  0  0  0  0  0
    6.9710    1.3306   24.0850 C   0  0  0  0  0  0  0  0  0  0  0  0
    6.7611    0.4373   24.6695 H   0  0  0  0  0  0  0  0  0  0  0  0
    8.2247   -1.2289   22.9280 C   0  0  0  0  0  0  0  0  0  0  0  0
    8.7410   -1.2860   23.8832 H   0  0  0  0  0  0  0  0  0  0  0  0
    8.0190   -2.3953   22.2326 O   0  0  0  0  0  0  0  0  0  0  0  0
    7.2829   -2.1026   21.1065 C   0  0  0  0  0  0  0  0  0  0  0  0
    6.7353   -2.9134   20.4118 O   0  0  0  0  0  0  0  0  0  0  0  0
    5.4271    0.6326   20.1515 C   0  0  0  0  0  0  0  0  0  0  0  0
    5.0343    0.6393   21.1680 H   0  0  0  0  0  0  0  0  0  0  0  0
    4.8025    1.3052   19.0997 C   0  0  0  0  0  0  0  0  0  0  0  0
    3.8525    1.8076   19.2410 H   0  0  0  0  0  0  0  0  0  0  0  0
  1  2  1  0
  2  3  2  0
  3  4  1  0
  4  5  1  0
  4  6  2  0
  6  7  1  0
  7  8  1  0
  8  9  1  0
  9 10  2  0
 10 11  1  0
 10 12  1  0
 12 13  1  0
 12 14  2  0
 14 15  1  0
 14 16  1  0
 16 17  1  0
 17 18  1  0
 17 19  1  0
 17 20  1  0
 16 21  2  0
 21 22  1  0
  8 23  2  0
 23 24  1  0
 23 25  1  0
 25 26  1  0
 26 27  2  0
  6 28  1  0
 28 29  1  0
 28 30  2  0
 30 31  1  0
 30  2  1  0
 26  7  1  0
 21  9  1  0
M  END
>  <cnnaffinity>  (1) 
-5.22915

>  <filename>  (1) 
O=c1occ(-c2cccc(C(F)(F)F)c2)n1-c1cccnc1

$$$$
