
     RDKit          3D

 27 29  0  0  0  0  0  0  0  0999 V2000
    5.8039   -6.5035   24.8979 H   0  0  0  0  0  0  0  0  0  0  0  0
    5.8889   -5.5653   24.3727 C   0  0  0  0  0  0  0  0  0  0  0  0
    4.8450   -4.8771   24.0127 N   0  0  0  0  0  0  0  0  0  0  0  0
    5.2600   -3.7437   23.3690 C   0  0  0  0  0  0  0  0  0  0  0  0
    4.5238   -3.0328   23.0186 H   0  0  0  0  0  0  0  0  0  0  0  0
    6.6150   -3.5715   23.2343 C   0  0  0  0  0  0  0  0  0  0  0  0
    7.3074   -2.4631   22.5787 C   0  0  0  0  0  0  0  0  0  0  0  0
    6.7132   -1.7428   21.5886 C   0  0  0  0  0  0  0  0  0  0  0  0
    5.7077   -1.9732   21.2294 H   0  0  0  0  0  0  0  0  0  0  0  0
    7.3473   -0.6890   20.9447 N   0  0  0  0  0  0  0  0  0  0  0  0
    6.6530    0.0059   19.8890 C   0  0  0  0  0  0  0  0  0  0  0  0
    7.1728    0.0594   18.5840 C   0  0  0  0  0  0  0  0  0  0  0  0
    8.1222   -0.4245   18.3725 H   0  0  0  0  0  0  0  0  0  0  0  0
    6.5566    0.6768   17.5711 N   0  0  0  0  0  0  0  0  0  0  0  0
    5.3956    1.2975   17.8365 C   0  0  0  0  0  0  0  0  0  0  0  0
    4.9098    1.7833   16.9940 H   0  0  0  0  0  0  0  0  0  0  0  0
    4.8042    1.3174   19.1054 C   0  0  0  0  0  0  0  0  0  0  0  0
    3.8705    1.8471   19.2617 H   0  0  0  0  0  0  0  0  0  0  0  0
    5.4391    0.6449   20.1551 C   0  0  0  0  0  0  0  0  0  0  0  0
    5.0221    0.6241   21.1664 H   0  0  0  0  0  0  0  0  0  0  0  0
    8.6604   -0.2856   21.2919 C   0  0  0  0  0  0  0  0  0  0  0  0
    9.2647    0.6202   20.7641 O   0  0  0  0  0  0  0  0  0  0  0  0
    9.2275   -1.0244   22.2722 N   0  0  0  0  0  0  0  0  0  0  0  0
   10.1561   -0.7469   22.5259 H   0  0  0  0  0  0  0  0  0  0  0  0
    8.6908   -2.0781   22.9776 C   0  0  0  0  0  0  0  0  0  0  0  0
    9.3703   -2.5916   23.8348 O   0  0  0  0  0  0  0  0  0  0  0  0
    7.4215   -4.9012   23.9908 S   0  0  0  0  0  0  0  0  0  0  0  0
  1  2  1  0
  2  3  2  0
  3  4  1  0
  4  5  1  0
  4  6  2  0
  6  7  1  0
  7  8  2  0
  8  9  1  0
  8 10  1  0
 10 11  1  0
 11 12  2  0
 12 13  1  0
 12 14  1  0
 14 15  2  0
 15 16  1  0
 15 17  1  0
 17 18  1  0
 17 19  2  0
 19 20  1  0
 10 21  1  0
 21 22  2  0
 21 23  1  0
 23 24  1  0
 23 25  1  0
 25 26  2  0
  6 27  1  0
 27  2  1  0
 25  7  1  0
 19 11  1  0
M  END
>  <cnnaffinity>  (1) 
-5.21159

>  <filename>  (1) 
O=c1[nH]c(=O)n(-c2cccnc2)cc1-c1cncs1

$$$$
