
     RDKit          3D

 29 31  0  0  0  0  0  0  0  0999 V2000
    5.0253    1.8623   16.9422 H   0  0  0  0  0  0  0  0  0  0  0  0
    5.4950    1.3295   17.7647 C   0  0  0  0  0  0  0  0  0  0  0  0
    6.6724    0.7406   17.4949 N   0  0  0  0  0  0  0  0  0  0  0  0
    7.2749    0.0720   18.4836 C   0  0  0  0  0  0  0  0  0  0  0  0
    8.2364   -0.3834   18.2510 H   0  0  0  0  0  0  0  0  0  0  0  0
    6.7208   -0.0790   19.7731 C   0  0  0  0  0  0  0  0  0  0  0  0
    7.3754   -0.8525   20.7688 N   0  0  0  0  0  0  0  0  0  0  0  0
    6.8363   -1.8070   21.6603 C   0  0  0  0  0  0  0  0  0  0  0  0
    5.7065   -2.2485   21.5979 O   0  0  0  0  0  0  0  0  0  0  0  0
    7.9591   -2.1110   22.5834 C   0  0  0  0  0  0  0  0  0  0  0  0
    7.8680   -2.9284   23.8054 C   0  0  0  0  0  0  0  0  0  0  0  0
    6.6873   -2.9264   24.5693 C   0  0  0  0  0  0  0  0  0  0  0  0
    5.8504   -2.3205   24.2382 H   0  0  0  0  0  0  0  0  0  0  0  0
    6.5902   -3.6996   25.7225 C   0  0  0  0  0  0  0  0  0  0  0  0
    5.6876   -3.6981   26.3215 H   0  0  0  0  0  0  0  0  0  0  0  0
    7.6555   -4.5130   26.1217 C   0  0  0  0  0  0  0  0  0  0  0  0
    7.4692   -5.4999   27.5288 Cl  0  0  0  0  0  0  0  0  0  0  0  0
    8.8448   -4.5175   25.3716 C   0  0  0  0  0  0  0  0  0  0  0  0
   10.1918   -5.5141   25.8082 Cl  0  0  0  0  0  0  0  0  0  0  0  0
    8.9532   -3.7116   24.2338 C   0  0  0  0  0  0  0  0  0  0  0  0
    9.8871   -3.7142   23.6757 H   0  0  0  0  0  0  0  0  0  0  0  0
    9.0373   -1.4426   22.1073 C   0  0  0  0  0  0  0  0  0  0  0  0
   10.0354   -1.3943   22.5279 H   0  0  0  0  0  0  0  0  0  0  0  0
    8.7662   -0.7673   20.9165 N   0  0  0  0  0  0  0  0  0  0  0  0
    9.1120    0.1883   20.7948 H   0  0  0  0  0  0  0  0  0  0  0  0
    5.5062    0.5685   20.0499 C   0  0  0  0  0  0  0  0  0  0  0  0
    5.0855    0.5291   21.0529 H   0  0  0  0  0  0  0  0  0  0  0  0
    4.8835    1.2820   19.0212 C   0  0  0  0  0  0  0  0  0  0  0  0
    3.9523    1.8147   19.1851 H   0  0  0  0  0  0  0  0  0  0  0  0
  1  2  1  0
  2  3  2  0
  3  4  1  0
  4  5  1  0
  4  6  2  0
  6  7  1  0
  7  8  1  0
  8  9  2  0
  8 10  1  0
 10 11  1  0
 11 12  2  0
 12 13  1  0
 12 14  1  0
 14 15  1  0
 14 16  2  0
 16 17  1  0
 16 18  1  0
 18 19  1  0
 18 20  2  0
 20 21  1  0
 10 22  2  0
 22 23  1  0
 22 24  1  0
 24 25  1  0
  6 26  1  0
 26 27  1  0
 26 28  2  0
 28 29  1  0
 28  2  1  0
 24  7  1  0
 20 11  1  0
M  END
>  <cnnaffinity>  (1) 
-5.6461

>  <filename>  (1) 
O=c1c(-c2ccc(Cl)c(Cl)c2)c[nH]n1-c1cccnc1

$$$$
