
     RDKit          3D

 20 21  0  0  0  0  0  0  0  0999 V2000
    4.9134    1.7773   16.9999 H   0  0  0  0  0  0  0  0  0  0  0  0
    5.4030    1.2905   17.8423 C   0  0  0  0  0  0  0  0  0  0  0  0
    6.5673    0.6717   17.5773 N   0  0  0  0  0  0  0  0  0  0  0  0
    7.1963    0.0747   18.5947 C   0  0  0  0  0  0  0  0  0  0  0  0
    8.1339   -0.4264   18.3794 H   0  0  0  0  0  0  0  0  0  0  0  0
    6.6904    0.0374   19.9071 C   0  0  0  0  0  0  0  0  0  0  0  0
    7.3981   -0.6491   20.9530 N   0  0  0  0  0  0  0  0  0  0  0  0
    8.7239   -0.3334   21.0841 N   0  0  0  0  0  0  0  0  0  0  0  0
    9.4010   -0.9063   22.0403 C   0  0  0  0  0  0  0  0  0  0  0  0
   10.4384   -0.6172   22.1440 H   0  0  0  0  0  0  0  0  0  0  0  0
    8.8175   -1.9010   22.9108 C   0  0  0  0  0  0  0  0  0  0  0  0
    9.7938   -2.6373   24.1342 Cl  0  0  0  0  0  0  0  0  0  0  0  0
    7.5186   -2.2586   22.7589 C   0  0  0  0  0  0  0  0  0  0  0  0
    7.0120   -3.0014   23.3590 H   0  0  0  0  0  0  0  0  0  0  0  0
    6.6984   -1.6528   21.7219 C   0  0  0  0  0  0  0  0  0  0  0  0
    5.5503   -1.9827   21.4892 O   0  0  0  0  0  0  0  0  0  0  0  0
    5.4569    0.6477   20.1677 C   0  0  0  0  0  0  0  0  0  0  0  0
    5.0158    0.6119   21.1653 H   0  0  0  0  0  0  0  0  0  0  0  0
    4.8162    1.3080   19.1125 C   0  0  0  0  0  0  0  0  0  0  0  0
    3.8790    1.8385   19.2651 H   0  0  0  0  0  0  0  0  0  0  0  0
  1  2  1  0
  2  3  2  0
  3  4  1  0
  4  5  1  0
  4  6  2  0
  6  7  1  0
  7  8  1  0
  8  9  2  0
  9 10  1  0
  9 11  1  0
 11 12  1  0
 11 13  2  0
 13 14  1  0
 13 15  1  0
 15 16  2  0
  6 17  1  0
 17 18  1  0
 17 19  2  0
 19 20  1  0
 19  2  1  0
 15  7  1  0
M  END
>  <cnnaffinity>  (1) 
-4.5435

>  <filename>  (1) 
O=c1cc(Cl)cnn1-c1cccnc1

$$$$
