
     RDKit          3D

 31 33  0  0  0  0  0  0  0  0999 V2000
    5.0478    1.8052   16.9080 H   0  0  0  0  0  0  0  0  0  0  0  0
    5.4750    1.2932   17.7686 C   0  0  0  0  0  0  0  0  0  0  0  0
    6.6246    0.6350   17.5485 N   0  0  0  0  0  0  0  0  0  0  0  0
    7.1873    0.0184   18.5978 C   0  0  0  0  0  0  0  0  0  0  0  0
    8.1196   -0.5113   18.3953 H   0  0  0  0  0  0  0  0  0  0  0  0
    6.6488    0.0045   19.9007 C   0  0  0  0  0  0  0  0  0  0  0  0
    7.3715   -0.6494   21.0350 C   0  0  0  0  0  0  0  0  0  0  0  0
    8.7442   -0.3574   21.2947 C   0  0  0  0  0  0  0  0  0  0  0  0
    9.2727    0.2945   20.6006 H   0  0  0  0  0  0  0  0  0  0  0  0
    9.4178   -0.8677   22.3852 C   0  0  0  0  0  0  0  0  0  0  0  0
   10.8554   -0.5911   22.6078 C   0  0  0  0  0  0  0  0  0  0  0  0
   11.3725    0.0705   23.7336 C   0  0  0  0  0  0  0  0  0  0  0  0
   10.6862    0.4742   24.4693 H   0  0  0  0  0  0  0  0  0  0  0  0
   12.7600    0.2147   23.8905 C   0  0  0  0  0  0  0  0  0  0  0  0
   13.1568    0.7121   24.7697 H   0  0  0  0  0  0  0  0  0  0  0  0
   13.6478   -0.2836   22.9303 C   0  0  0  0  0  0  0  0  0  0  0  0
   14.7255   -0.2189   23.0587 H   0  0  0  0  0  0  0  0  0  0  0  0
   13.1210   -0.9215   21.8052 C   0  0  0  0  0  0  0  0  0  0  0  0
   14.1938   -1.5733   20.6016 Cl  0  0  0  0  0  0  0  0  0  0  0  0
   11.7448   -1.0663   21.6350 C   0  0  0  0  0  0  0  0  0  0  0  0
   11.3509   -1.6051   20.7877 H   0  0  0  0  0  0  0  0  0  0  0  0
    8.7498   -1.8541   23.2492 C   0  0  0  0  0  0  0  0  0  0  0  0
    9.1749   -2.4980   24.1926 O   0  0  0  0  0  0  0  0  0  0  0  0
    7.4218   -2.1050   22.8921 N   0  0  0  0  0  0  0  0  0  0  0  0
    7.0837   -2.8319   23.5042 H   0  0  0  0  0  0  0  0  0  0  0  0
    6.7383   -1.5441   21.8568 C   0  0  0  0  0  0  0  0  0  0  0  0
    5.6945   -1.8203   21.7224 H   0  0  0  0  0  0  0  0  0  0  0  0
    5.4243    0.6654   20.0907 C   0  0  0  0  0  0  0  0  0  0  0  0
    4.9605    0.6889   21.0777 H   0  0  0  0  0  0  0  0  0  0  0  0
    4.8361    1.3298   19.0125 C   0  0  0  0  0  0  0  0  0  0  0  0
    3.9090    1.8818   19.1234 H   0  0  0  0  0  0  0  0  0  0  0  0
  1  2  1  0
  2  3  2  0
  3  4  1  0
  4  5  1  0
  4  6  2  0
  6  7  1  0
  7  8  1  0
  8  9  1  0
  8 10  2  0
 10 11  1  0
 11 12  2  0
 12 13  1  0
 12 14  1  0
 14 15  1  0
 14 16  2  0
 16 17  1  0
 16 18  1  0
 18 19  1  0
 18 20  2  0
 20 21  1  0
 10 22  1  0
 22 23  2  0
 22 24  1  0
 24 25  1  0
 24 26  1  0
 26 27  1  0
  6 28  1  0
 28 29  1  0
 28 30  2  0
 30 31  1  0
 30  2  1  0
 26  7  2  0
 20 11  1  0
M  END
>  <cnnaffinity>  (1) 
-5.49405

>  <filename>  (1) 
O=c1[nH]cc(-c2cccnc2)cc1-c1cccc(Cl)c1

$$$$
