
     RDKit          3D

 31 33  0  0  0  0  0  0  0  0999 V2000
    5.0301    1.7708   16.9609 H   0  0  0  0  0  0  0  0  0  0  0  0
    5.4902    1.2759   17.8138 C   0  0  0  0  0  0  0  0  0  0  0  0
    6.6470    0.6389   17.5711 N   0  0  0  0  0  0  0  0  0  0  0  0
    7.2501    0.0342   18.6041 C   0  0  0  0  0  0  0  0  0  0  0  0
    8.1788   -0.4883   18.3701 H   0  0  0  0  0  0  0  0  0  0  0  0
    6.7415    0.0155   19.9190 C   0  0  0  0  0  0  0  0  0  0  0  0
    7.4445   -0.6626   21.0423 C   0  0  0  0  0  0  0  0  0  0  0  0
    6.7205   -1.5619   21.8881 C   0  0  0  0  0  0  0  0  0  0  0  0
    5.6620   -1.7286   21.6832 H   0  0  0  0  0  0  0  0  0  0  0  0
    7.3411   -2.2057   22.9139 C   0  0  0  0  0  0  0  0  0  0  0  0
    6.8494   -2.9104   23.5641 H   0  0  0  0  0  0  0  0  0  0  0  0
    8.7480   -2.0023   23.2322 C   0  0  0  0  0  0  0  0  0  0  0  0
    9.3182   -2.5853   24.1390 O   0  0  0  0  0  0  0  0  0  0  0  0
    9.4114   -1.0744   22.3721 N   0  0  0  0  0  0  0  0  0  0  0  0
   10.8275   -0.9025   22.5395 C   0  0  0  0  0  0  0  0  0  0  0  0
   11.3287   -0.1065   23.5736 C   0  0  0  0  0  0  0  0  0  0  0  0
   10.6799    0.3448   24.3109 H   0  0  0  0  0  0  0  0  0  0  0  0
   12.7082    0.0970   23.6239 C   0  0  0  0  0  0  0  0  0  0  0  0
   13.2059    0.8474   24.6127 F   0  0  0  0  0  0  0  0  0  0  0  0
   13.5980   -0.4479   22.7028 C   0  0  0  0  0  0  0  0  0  0  0  0
   14.6584   -0.2148   22.7300 H   0  0  0  0  0  0  0  0  0  0  0  0
   13.0566   -1.2820   21.7293 C   0  0  0  0  0  0  0  0  0  0  0  0
   13.8790   -1.8275   20.8244 F   0  0  0  0  0  0  0  0  0  0  0  0
   11.6888   -1.5274   21.6374 C   0  0  0  0  0  0  0  0  0  0  0  0
   11.2879   -2.1925   20.8880 H   0  0  0  0  0  0  0  0  0  0  0  0
    8.7670   -0.4495   21.3136 C   0  0  0  0  0  0  0  0  0  0  0  0
    9.3649    0.2389   20.7186 H   0  0  0  0  0  0  0  0  0  0  0  0
    5.5087    0.6533   20.1328 C   0  0  0  0  0  0  0  0  0  0  0  0
    5.0724    0.6505   21.1327 H   0  0  0  0  0  0  0  0  0  0  0  0
    4.8810    1.3058   19.0734 C   0  0  0  0  0  0  0  0  0  0  0  0
    3.9412    1.8303   19.2048 H   0  0  0  0  0  0  0  0  0  0  0  0
  1  2  1  0
  2  3  2  0
  3  4  1  0
  4  5  1  0
  4  6  2  0
  6  7  1  0
  7  8  1  0
  8  9  1  0
  8 10  2  0
 10 11  1  0
 10 12  1  0
 12 13  2  0
 12 14  1  0
 14 15  1  0
 15 16  2  0
 16 17  1  0
 16 18  1  0
 18 19  1  0
 18 20  2  0
 20 21  1  0
 20 22  1  0
 22 23  1  0
 22 24  2  0
 24 25  1  0
 14 26  1  0
 26 27  1  0
  6 28  1  0
 28 29  1  0
 28 30  2  0
 30 31  1  0
 30  2  1  0
 26  7  2  0
 24 15  1  0
M  END
>  <cnnaffinity>  (1) 
-5.63832

>  <filename>  (1) 
O=c1ccc(-c2cccnc2)cn1-c1cc(F)cc(F)c1

$$$$
