
     RDKit          3D

 34 36  0  0  0  0  0  0  0  0999 V2000
    3.8944   -5.8745   22.8157 H   0  0  0  0  0  0  0  0  0  0  0  0
    4.1548   -5.2894   22.0920 O   0  0  0  0  0  0  0  0  0  0  0  0
    5.1553   -4.4976   22.5505 C   0  0  0  0  0  0  0  0  0  0  0  0
    5.6364   -4.6124   23.8534 C   0  0  0  0  0  0  0  0  0  0  0  0
    5.2008   -5.3330   24.5427 H   0  0  0  0  0  0  0  0  0  0  0  0
    6.7023   -3.8046   24.2487 C   0  0  0  0  0  0  0  0  0  0  0  0
    7.2352   -3.9156   25.4898 O   0  0  0  0  0  0  0  0  0  0  0  0
    6.7516   -4.6118   25.9513 H   0  0  0  0  0  0  0  0  0  0  0  0
    7.2718   -2.8745   23.3696 C   0  0  0  0  0  0  0  0  0  0  0  0
    8.1398   -2.3333   23.7273 H   0  0  0  0  0  0  0  0  0  0  0  0
    6.7586   -2.7388   22.0753 C   0  0  0  0  0  0  0  0  0  0  0  0
    7.3470   -1.7696   21.0578 C   0  0  2  0  0  0  0  0  0  0  0  0
    6.9628   -2.0953   20.0836 H   0  0  0  0  0  0  0  0  0  0  0  0
    8.8491   -1.9075   20.9285 C   0  0  0  0  0  0  0  0  0  0  0  0
    9.5088   -2.9196   20.8851 O   0  0  0  0  0  0  0  0  0  0  0  0
    9.3936   -0.6627   20.8364 N   0  0  0  0  0  0  0  0  0  0  0  0
   10.3948   -0.7010   20.9697 H   0  0  0  0  0  0  0  0  0  0  0  0
    8.5381    0.3423   21.4314 C   0  0  0  0  0  0  0  0  0  0  0  0
    8.6810    1.3135   20.9427 H   0  0  0  0  0  0  0  0  0  0  0  0
    8.7549    0.4743   22.5022 H   0  0  0  0  0  0  0  0  0  0  0  0
    7.1053   -0.2307   21.2277 C   0  0  1  0  0  0  0  0  0  0  0  0
    6.4991   -0.0158   22.1134 H   0  0  0  0  0  0  0  0  0  0  0  0
    6.4036    0.3691   20.0094 C   0  0  0  0  0  0  0  0  0  0  0  0
    7.0210    0.2921   18.7433 C   0  0  0  0  0  0  0  0  0  0  0  0
    7.9902   -0.1865   18.6498 H   0  0  0  0  0  0  0  0  0  0  0  0
    6.5217    0.7872   17.6037 N   0  0  0  0  0  0  0  0  0  0  0  0
    5.3298    1.3966   17.6780 C   0  0  0  0  0  0  0  0  0  0  0  0
    4.9387    1.7898   16.7407 H   0  0  0  0  0  0  0  0  0  0  0  0
    4.6036    1.5245   18.8676 C   0  0  0  0  0  0  0  0  0  0  0  0
    3.6402    2.0326   18.8492 H   0  0  0  0  0  0  0  0  0  0  0  0
    5.1512    1.0094   20.0531 C   0  0  0  0  0  0  0  0  0  0  0  0
    4.6109    1.1206   20.9967 H   0  0  0  0  0  0  0  0  0  0  0  0
    5.7054   -3.5673   21.6678 C   0  0  0  0  0  0  0  0  0  0  0  0
    5.3147   -3.5420   20.6598 H   0  0  0  0  0  0  0  0  0  0  0  0
  1  2  1  0
  2  3  1  0
  3  4  2  0
  4  5  1  0
  4  6  1  0
  6  7  1  0
  7  8  1  0
  6  9  2  0
  9 10  1  0
  9 11  1  0
 11 12  1  0
 12 13  1  6
 12 14  1  0
 14 15  2  0
 14 16  1  0
 16 17  1  0
 16 18  1  0
 18 19  1  0
 18 20  1  0
 18 21  1  0
 21 22  1  1
 21 23  1  0
 23 24  2  0
 24 25  1  0
 24 26  1  0
 26 27  2  0
 27 28  1  0
 27 29  1  0
 29 30  1  0
 29 31  2  0
 31 32  1  0
 11 33  2  0
 33 34  1  0
 33  3  1  0
 21 12  1  0
 31 23  1  0
M  END
>  <cnnaffinity>  (1) 
-5.11751

>  <filename>  (1) 
O=C1NC[C@@H](c2cccnc2)[C@@H]1c1cc(O)cc(O)c1

$$$$
