
     RDKit          3D

 28 30  0  0  0  0  0  0  0  0999 V2000
    4.9156    1.7777   16.9974 H   0  0  0  0  0  0  0  0  0  0  0  0
    5.4016    1.2932   17.8380 C   0  0  0  0  0  0  0  0  0  0  0  0
    6.5667    0.6777   17.5774 N   0  0  0  0  0  0  0  0  0  0  0  0
    7.1663    0.0664   18.6034 C   0  0  0  0  0  0  0  0  0  0  0  0
    8.1096   -0.4295   18.3805 H   0  0  0  0  0  0  0  0  0  0  0  0
    6.6385    0.0088   19.9035 C   0  0  0  0  0  0  0  0  0  0  0  0
    7.3843   -0.6965   20.9444 C   0  0  0  0  0  0  0  0  0  0  0  0
    8.7108   -0.9472   21.0127 C   0  0  0  0  0  0  0  0  0  0  0  0
    9.4848   -0.6487   20.3325 H   0  0  0  0  0  0  0  0  0  0  0  0
    9.0008   -1.6572   22.2315 C   0  0  0  0  0  0  0  0  0  0  0  0
   10.0639   -2.0489   22.6859 O   0  0  0  0  0  0  0  0  0  0  0  0
    7.7211   -1.8237   22.8395 N   0  0  0  0  0  0  0  0  0  0  0  0
    7.4309   -2.4598   24.0701 C   0  0  0  0  0  0  0  0  0  0  0  0
    6.4438   -1.9837   24.9619 C   0  0  0  0  0  0  0  0  0  0  0  0
    5.8799   -1.0905   24.7063 H   0  0  0  0  0  0  0  0  0  0  0  0
    6.1758   -2.5675   26.1370 N   0  0  0  0  0  0  0  0  0  0  0  0
    6.8796   -3.6580   26.4774 C   0  0  0  0  0  0  0  0  0  0  0  0
    6.6539   -4.1336   27.4275 H   0  0  0  0  0  0  0  0  0  0  0  0
    7.8766   -4.1856   25.6478 C   0  0  0  0  0  0  0  0  0  0  0  0
    8.5499   -5.2781   26.0316 F   0  0  0  0  0  0  0  0  0  0  0  0
    8.1797   -3.5929   24.4295 C   0  0  0  0  0  0  0  0  0  0  0  0
    8.9581   -3.9998   23.7884 H   0  0  0  0  0  0  0  0  0  0  0  0
    6.7752   -1.1776   22.0591 N   0  0  0  0  0  0  0  0  0  0  0  0
    5.7866   -1.2307   22.2609 H   0  0  0  0  0  0  0  0  0  0  0  0
    5.4217    0.6564   20.1563 C   0  0  0  0  0  0  0  0  0  0  0  0
    4.9985    0.6435   21.1653 H   0  0  0  0  0  0  0  0  0  0  0  0
    4.7986    1.3163   19.1031 C   0  0  0  0  0  0  0  0  0  0  0  0
    3.8676    1.8486   19.2593 H   0  0  0  0  0  0  0  0  0  0  0  0
  1  2  1  0
  2  3  2  0
  3  4  1  0
  4  5  1  0
  4  6  2  0
  6  7  1  0
  7  8  2  0
  8  9  1  0
  8 10  1  0
 10 11  2  0
 10 12  1  0
 12 13  1  0
 13 14  2  0
 14 15  1  0
 14 16  1  0
 16 17  2  0
 17 18  1  0
 17 19  1  0
 19 20  1  0
 19 21  2  0
 21 22  1  0
 12 23  1  0
 23 24  1  0
  6 25  1  0
 25 26  1  0
 25 27  2  0
 27 28  1  0
 27  2  1  0
 23  7  1  0
 21 13  1  0
M  END
>  <cnnaffinity>  (1) 
-5.13796

>  <filename>  (1) 
O=c1cc(-c2cccnc2)[nH]n1-c1cncc(F)c1

$$$$
