
     RDKit          3D

 32 35  0  0  0  0  0  0  0  0999 V2000
    4.9414    1.7938   17.0005 H   0  0  0  0  0  0  0  0  0  0  0  0
    5.4224    1.3073   17.8487 C   0  0  0  0  0  0  0  0  0  0  0  0
    6.6037    0.7115   17.6113 N   0  0  0  0  0  0  0  0  0  0  0  0
    7.1968    0.0623   18.6237 C   0  0  0  0  0  0  0  0  0  0  0  0
    8.1601   -0.4005   18.4078 H   0  0  0  0  0  0  0  0  0  0  0  0
    6.6406   -0.0257   19.9203 C   0  0  0  0  0  0  0  0  0  0  0  0
    7.2771   -0.7271   21.0037 N   0  0  0  0  0  0  0  0  0  0  0  0
    7.7215   -0.2047   22.2567 C   0  0  0  0  0  0  0  0  0  0  0  0
    7.4698    1.1604   22.7806 C   0  0  0  0  0  0  0  0  0  0  0  0
    6.9780    1.3130   24.1156 C   0  0  0  0  0  0  0  0  0  0  0  0
    6.7645    0.4294   24.7139 H   0  0  0  0  0  0  0  0  0  0  0  0
    6.7084    2.5655   24.6548 C   0  0  0  0  0  0  0  0  0  0  0  0
    6.3262    2.6573   25.6667 H   0  0  0  0  0  0  0  0  0  0  0  0
    6.9341    3.7224   23.8764 C   0  0  0  0  0  0  0  0  0  0  0  0
    6.7980    5.1445   24.0847 C   0  0  0  0  0  0  0  0  0  0  0  0
    6.4679    5.6446   24.9848 H   0  0  0  0  0  0  0  0  0  0  0  0
    7.1739    5.7567   22.9213 C   0  0  0  0  0  0  0  0  0  0  0  0
    7.2146    6.8074   22.6618 H   0  0  0  0  0  0  0  0  0  0  0  0
    7.5397    4.7985   21.9995 N   0  0  0  0  0  0  0  0  0  0  0  0
    7.8396    4.9610   21.0532 H   0  0  0  0  0  0  0  0  0  0  0  0
    7.4103    3.5534   22.5529 C   0  0  0  0  0  0  0  0  0  0  0  0
    7.6818    2.2956   21.9948 C   0  0  0  0  0  0  0  0  0  0  0  0
    7.9877    2.1918   20.9609 H   0  0  0  0  0  0  0  0  0  0  0  0
    8.2357   -1.2517   22.9210 C   0  0  0  0  0  0  0  0  0  0  0  0
    8.7452   -1.3134   23.8764 H   0  0  0  0  0  0  0  0  0  0  0  0
    8.0271   -2.4160   22.2237 O   0  0  0  0  0  0  0  0  0  0  0  0
    7.2828   -2.1228   21.1046 C   0  0  0  0  0  0  0  0  0  0  0  0
    6.7326   -2.9346   20.4145 O   0  0  0  0  0  0  0  0  0  0  0  0
    5.4261    0.6238   20.1551 C   0  0  0  0  0  0  0  0  0  0  0  0
    5.0333    0.6299   21.1704 H   0  0  0  0  0  0  0  0  0  0  0  0
    4.8024    1.2965   19.1014 C   0  0  0  0  0  0  0  0  0  0  0  0
    3.8524    1.7993   19.2437 H   0  0  0  0  0  0  0  0  0  0  0  0
  1  2  1  0
  2  3  2  0
  3  4  1  0
  4  5  1  0
  4  6  2  0
  6  7  1  0
  7  8  1  0
  8  9  1  0
  9 10  2  0
 10 11  1  0
 10 12  1  0
 12 13  1  0
 12 14  2  0
 14 15  1  0
 15 16  1  0
 15 17  2  0
 17 18  1  0
 17 19  1  0
 19 20  1  0
 19 21  1  0
 21 22  2  0
 22 23  1  0
  8 24  2  0
 24 25  1  0
 24 26  1  0
 26 27  1  0
 27 28  2  0
  6 29  1  0
 29 30  1  0
 29 31  2  0
 31 32  1  0
 31  2  1  0
 27  7  1  0
 22  9  1  0
 21 14  1  0
M  END
>  <cnnaffinity>  (1) 
-5.13644

>  <filename>  (1) 
O=c1occ(-c2ccc3cc[nH]c3c2)n1-c1cccnc1

$$$$
