
     RDKit          3D

 42 44  0  0  0  0  0  0  0  0999 V2000
    8.5151   -0.2119   24.1532 H   0  0  0  0  0  0  0  0  0  0  0  0
    8.3992   -0.7338   23.2107 C   0  0  0  0  0  0  0  0  0  0  0  0
    8.8406   -1.9840   22.9809 C   0  0  0  0  0  0  0  0  0  0  0  0
    9.3747   -2.8824   24.0732 C   0  0  0  0  0  0  0  0  0  0  0  0
    9.7708   -2.2612   24.8873 H   0  0  0  0  0  0  0  0  0  0  0  0
   10.2294   -3.4490   23.6837 H   0  0  0  0  0  0  0  0  0  0  0  0
    8.3506   -3.8855   24.6593 C   0  0  0  0  0  0  0  0  0  0  0  0
    7.9515   -4.4876   23.8248 H   0  0  0  0  0  0  0  0  0  0  0  0
    7.1614   -3.1853   25.3450 C   0  0  0  0  0  0  0  0  0  0  0  0
    7.5575   -2.5271   26.1343 H   0  0  0  0  0  0  0  0  0  0  0  0
    6.6399   -2.5355   24.6322 H   0  0  0  0  0  0  0  0  0  0  0  0
    6.1654   -4.1735   25.9691 C   0  0  0  0  0  0  0  0  0  0  0  0
    5.3603   -3.6251   26.4729 H   0  0  0  0  0  0  0  0  0  0  0  0
    5.6819   -4.7502   25.1671 H   0  0  0  0  0  0  0  0  0  0  0  0
    6.8527   -5.1428   26.9418 C   0  0  0  0  0  0  0  0  0  0  0  0
    7.2192   -4.5819   27.8141 H   0  0  0  0  0  0  0  0  0  0  0  0
    6.1316   -5.8716   27.3357 H   0  0  0  0  0  0  0  0  0  0  0  0
    8.0307   -5.8584   26.2636 C   0  0  0  0  0  0  0  0  0  0  0  0
    7.6376   -6.4981   25.4637 H   0  0  0  0  0  0  0  0  0  0  0  0
    8.5340   -6.5318   26.9677 H   0  0  0  0  0  0  0  0  0  0  0  0
    9.0279   -4.8642   25.6452 C   0  0  0  0  0  0  0  0  0  0  0  0
    9.5092   -4.2843   26.4487 H   0  0  0  0  0  0  0  0  0  0  0  0
    9.8365   -5.4112   25.1404 H   0  0  0  0  0  0  0  0  0  0  0  0
    8.6924   -2.5374   21.5721 C   0  0  0  0  0  0  0  0  0  0  0  0
    9.5283   -2.2189   20.9294 H   0  0  0  0  0  0  0  0  0  0  0  0
    8.6858   -3.6308   21.5856 H   0  0  0  0  0  0  0  0  0  0  0  0
    7.3726   -2.0314   20.9881 C   0  0  0  0  0  0  0  0  0  0  0  0
    7.1909   -2.3696   19.9723 H   0  0  0  0  0  0  0  0  0  0  0  0
    6.5293   -2.4337   21.5773 H   0  0  0  0  0  0  0  0  0  0  0  0
    7.3657   -0.5679   21.0080 N   0  0  0  0  0  0  0  0  0  0  0  0
    6.6876    0.0985   19.9367 C   0  0  0  0  0  0  0  0  0  0  0  0
    7.1852    0.0651   18.6181 C   0  0  0  0  0  0  0  0  0  0  0  0
    8.1270   -0.4472   18.4077 H   0  0  0  0  0  0  0  0  0  0  0  0
    6.5715    0.6559   17.5833 N   0  0  0  0  0  0  0  0  0  0  0  0
    5.4094    1.2846   17.8244 C   0  0  0  0  0  0  0  0  0  0  0  0
    4.9567    1.7861   16.9717 H   0  0  0  0  0  0  0  0  0  0  0  0
    4.8037    1.3230   19.0839 C   0  0  0  0  0  0  0  0  0  0  0  0
    3.8515    1.8267   19.2102 H   0  0  0  0  0  0  0  0  0  0  0  0
    5.4587    0.7241   20.1645 C   0  0  0  0  0  0  0  0  0  0  0  0
    5.0573    0.7295   21.1774 H   0  0  0  0  0  0  0  0  0  0  0  0
    7.6513    0.0853   22.2175 C   0  0  0  0  0  0  0  0  0  0  0  0
    7.3374    1.2384   22.4492 O   0  0  0  0  0  0  0  0  0  0  0  0
  1  2  1  0
  2  3  2  0
  3  4  1  0
  4  5  1  0
  4  6  1  0
  4  7  1  0
  7  8  1  0
  7  9  1  0
  9 10  1  0
  9 11  1  0
  9 12  1  0
 12 13  1  0
 12 14  1  0
 12 15  1  0
 15 16  1  0
 15 17  1  0
 15 18  1  0
 18 19  1  0
 18 20  1  0
 18 21  1  0
 21 22  1  0
 21 23  1  0
  3 24  1  0
 24 25  1  0
 24 26  1  0
 24 27  1  0
 27 28  1  0
 27 29  1  0
 27 30  1  0
 30 31  1  0
 31 32  2  0
 32 33  1  0
 32 34  1  0
 34 35  2  0
 35 36  1  0
 35 37  1  0
 37 38  1  0
 37 39  2  0
 39 40  1  0
 30 41  1  0
 41 42  2  0
 41  2  1  0
 21  7  1  0
 39 31  1  0
M  END
>  <cnnaffinity>  (1) 
-5.33878

>  <filename>  (1) 
O=C1C=C(CC2CCCCC2)CCN1c1cccnc1

$$$$
