
     RDKit          3D

 32 34  0  0  0  0  0  0  0  0999 V2000
    4.9555    1.8183   16.9624 H   0  0  0  0  0  0  0  0  0  0  0  0
    5.4027    1.2800   17.7947 C   0  0  0  0  0  0  0  0  0  0  0  0
    6.5548    0.6401   17.5331 N   0  0  0  0  0  0  0  0  0  0  0  0
    7.1671    0.0186   18.5464 C   0  0  0  0  0  0  0  0  0  0  0  0
    8.1181   -0.4553   18.3030 H   0  0  0  0  0  0  0  0  0  0  0  0
    6.6643    0.0087   19.8696 C   0  0  0  0  0  0  0  0  0  0  0  0
    7.3449   -0.6307   20.9371 N   0  0  0  0  0  0  0  0  0  0  0  0
    7.4638   -0.2422   22.2997 C   0  0  0  0  0  0  0  0  0  0  0  0
    7.0060    0.7626   22.8102 O   0  0  0  0  0  0  0  0  0  0  0  0
    8.2771   -1.3117   22.9035 C   0  0  0  0  0  0  0  0  0  0  0  0
    8.7294   -1.2440   24.3016 C   0  0  0  0  0  0  0  0  0  0  0  0
    9.3818   -0.0699   24.7209 C   0  0  0  0  0  0  0  0  0  0  0  0
    9.4618    0.7461   24.0097 H   0  0  0  0  0  0  0  0  0  0  0  0
    9.8878    0.0554   26.0127 C   0  0  0  0  0  0  0  0  0  0  0  0
   10.4179    0.9552   26.3102 H   0  0  0  0  0  0  0  0  0  0  0  0
    9.6968   -0.9792   26.9295 C   0  0  0  0  0  0  0  0  0  0  0  0
   10.0617   -0.8772   27.9482 H   0  0  0  0  0  0  0  0  0  0  0  0
    9.0331   -2.1434   26.5450 C   0  0  0  0  0  0  0  0  0  0  0  0
    8.8944   -2.9473   27.2647 H   0  0  0  0  0  0  0  0  0  0  0  0
    8.5310   -2.2823   25.2391 C   0  0  0  0  0  0  0  0  0  0  0  0
    7.7535   -3.5283   24.8440 C   0  0  0  0  0  0  0  0  0  0  0  0
    6.6410   -3.2294   24.1439 F   0  0  0  0  0  0  0  0  0  0  0  0
    8.4990   -4.3395   24.0543 F   0  0  0  0  0  0  0  0  0  0  0  0
    7.3702   -4.2624   25.9047 F   0  0  0  0  0  0  0  0  0  0  0  0
    8.6164   -2.1724   21.9167 C   0  0  0  0  0  0  0  0  0  0  0  0
    9.1817   -3.0952   22.0068 H   0  0  0  0  0  0  0  0  0  0  0  0
    8.1906   -1.7162   20.6839 N   0  0  0  0  0  0  0  0  0  0  0  0
    7.8686   -2.3535   19.9591 H   0  0  0  0  0  0  0  0  0  0  0  0
    5.4525    0.6655   20.1249 C   0  0  0  0  0  0  0  0  0  0  0  0
    5.0661    0.6921   21.1433 H   0  0  0  0  0  0  0  0  0  0  0  0
    4.8076    1.3013   19.0603 C   0  0  0  0  0  0  0  0  0  0  0  0
    3.8786    1.8397   19.2065 H   0  0  0  0  0  0  0  0  0  0  0  0
  1  2  1  0
  2  3  2  0
  3  4  1  0
  4  5  1  0
  4  6  2  0
  6  7  1  0
  7  8  1  0
  8  9  2  0
  8 10  1  0
 10 11  1  0
 11 12  2  0
 12 13  1  0
 12 14  1  0
 14 15  1  0
 14 16  2  0
 16 17  1  0
 16 18  1  0
 18 19  1  0
 18 20  2  0
 20 21  1  0
 21 22  1  0
 21 23  1  0
 21 24  1  0
 10 25  2  0
 25 26  1  0
 25 27  1  0
 27 28  1  0
  6 29  1  0
 29 30  1  0
 29 31  2  0
 31 32  1  0
 31  2  1  0
 27  7  1  0
 20 11  1  0
M  END
>  <cnnaffinity>  (1) 
-5.52704

>  <filename>  (1) 
O=c1c(-c2ccccc2C(F)(F)F)c[nH]n1-c1cccnc1

$$$$
