
     RDKit          3D

 39 42  0  0  0  0  0  0  0  0999 V2000
    5.0136    1.8587   16.9429 H   0  0  0  0  0  0  0  0  0  0  0  0
    5.4843    1.3282   17.7682 C   0  0  0  0  0  0  0  0  0  0  0  0
    6.6628    0.7381   17.5001 N   0  0  0  0  0  0  0  0  0  0  0  0
    7.2624    0.0730   18.4935 C   0  0  0  0  0  0  0  0  0  0  0  0
    8.2230   -0.3848   18.2637 H   0  0  0  0  0  0  0  0  0  0  0  0
    6.7107   -0.0744   19.7833 C   0  0  0  0  0  0  0  0  0  0  0  0
    7.3670   -0.8409   20.7828 N   0  0  0  0  0  0  0  0  0  0  0  0
    6.8203   -1.7734   21.6930 C   0  0  0  0  0  0  0  0  0  0  0  0
    5.6842   -2.2037   21.6355 O   0  0  0  0  0  0  0  0  0  0  0  0
    7.9456   -2.0867   22.6109 C   0  0  0  0  0  0  0  0  0  0  0  0
    7.8442   -2.9229   23.8271 C   0  0  0  0  0  0  0  0  0  0  0  0
    8.9246   -3.7276   24.2360 C   0  0  0  0  0  0  0  0  0  0  0  0
    9.8551   -3.7037   23.6729 H   0  0  0  0  0  0  0  0  0  0  0  0
    8.7992   -4.5572   25.3521 C   0  0  0  0  0  0  0  0  0  0  0  0
    9.6321   -5.1845   25.6610 H   0  0  0  0  0  0  0  0  0  0  0  0
    7.6130   -4.5734   26.0882 C   0  0  0  0  0  0  0  0  0  0  0  0
    7.5214   -5.2354   26.9446 H   0  0  0  0  0  0  0  0  0  0  0  0
    6.5255   -3.7530   25.7320 C   0  0  0  0  0  0  0  0  0  0  0  0
    5.2696   -3.7799   26.5520 C   0  0  0  0  0  0  0  0  0  0  0  0
    4.0000   -3.6880   25.9545 C   0  0  0  0  0  0  0  0  0  0  0  0
    3.9371   -3.6105   24.8714 H   0  0  0  0  0  0  0  0  0  0  0  0
    2.8305   -3.7081   26.7241 C   0  0  0  0  0  0  0  0  0  0  0  0
    1.8616   -3.6487   26.2349 H   0  0  0  0  0  0  0  0  0  0  0  0
    2.9088   -3.7951   28.1205 C   0  0  0  0  0  0  0  0  0  0  0  0
    2.0035   -3.7806   28.7249 H   0  0  0  0  0  0  0  0  0  0  0  0
    4.1621   -3.8996   28.7332 C   0  0  0  0  0  0  0  0  0  0  0  0
    4.2426   -3.9807   29.8167 H   0  0  0  0  0  0  0  0  0  0  0  0
    5.3219   -3.9163   27.9541 C   0  0  0  0  0  0  0  0  0  0  0  0
    6.2847   -4.0505   28.4345 H   0  0  0  0  0  0  0  0  0  0  0  0
    6.6625   -2.9374   24.5952 C   0  0  0  0  0  0  0  0  0  0  0  0
    5.8466   -2.2872   24.2868 H   0  0  0  0  0  0  0  0  0  0  0  0
    9.0325   -1.4371   22.1155 C   0  0  0  0  0  0  0  0  0  0  0  0
   10.0358   -1.4064   22.5175 H   0  0  0  0  0  0  0  0  0  0  0  0
    8.7577   -0.7685   20.9225 N   0  0  0  0  0  0  0  0  0  0  0  0
    9.1103    0.1763   20.7955 H   0  0  0  0  0  0  0  0  0  0  0  0
    5.4936    0.5716   20.0570 C   0  0  0  0  0  0  0  0  0  0  0  0
    5.0702    0.5350   21.0573 H   0  0  0  0  0  0  0  0  0  0  0  0
    4.8736    1.2821   19.0243 C   0  0  0  0  0  0  0  0  0  0  0  0
    3.9417    1.8156   19.1872 H   0  0  0  0  0  0  0  0  0  0  0  0
  1  2  1  0
  2  3  2  0
  3  4  1  0
  4  5  1  0
  4  6  2  0
  6  7  1  0
  7  8  1  0
  8  9  2  0
  8 10  1  0
 10 11  1  0
 11 12  2  0
 12 13  1  0
 12 14  1  0
 14 15  1  0
 14 16  2  0
 16 17  1  0
 16 18  1  0
 18 19  1  0
 19 20  2  0
 20 21  1  0
 20 22  1  0
 22 23  1  0
 22 24  2  0
 24 25  1  0
 24 26  1  0
 26 27  1  0
 26 28  2  0
 28 29  1  0
 18 30  2  0
 30 31  1  0
 10 32  2  0
 32 33  1  0
 32 34  1  0
 34 35  1  0
  6 36  1  0
 36 37  1  0
 36 38  2  0
 38 39  1  0
 38  2  1  0
 34  7  1  0
 30 11  1  0
 28 19  1  0
M  END
>  <cnnaffinity>  (1) 
-5.51697

>  <filename>  (1) 
O=c1c(-c2cccc(-c3ccccc3)c2)c[nH]n1-c1cccnc1

$$$$
