
     RDKit          3D

 32 35  0  0  0  0  0  0  0  0999 V2000
    4.9125    1.7759   17.0010 H   0  0  0  0  0  0  0  0  0  0  0  0
    5.4020    1.2929   17.8441 C   0  0  0  0  0  0  0  0  0  0  0  0
    6.5656    0.6739   17.5854 N   0  0  0  0  0  0  0  0  0  0  0  0
    7.1744    0.0515   18.6017 C   0  0  0  0  0  0  0  0  0  0  0  0
    8.1252   -0.4289   18.3842 H   0  0  0  0  0  0  0  0  0  0  0  0
    6.6413   -0.0130   19.9025 C   0  0  0  0  0  0  0  0  0  0  0  0
    7.3208   -0.7274   20.9514 N   0  0  0  0  0  0  0  0  0  0  0  0
    6.5618   -1.6164   21.6661 N   0  0  0  0  0  0  0  0  0  0  0  0
    7.1538   -2.2924   22.6288 C   0  0  0  0  0  0  0  0  0  0  0  0
    6.3524   -3.2837   23.4087 C   0  0  0  0  0  0  0  0  0  0  0  0
    6.8173   -4.0074   24.3820 N   0  0  0  0  0  0  0  0  0  0  0  0
    5.8297   -4.8260   24.9006 C   0  0  0  0  0  0  0  0  0  0  0  0
    5.9847   -5.7391   25.9647 C   0  0  0  0  0  0  0  0  0  0  0  0
    6.9578   -5.8272   26.4416 H   0  0  0  0  0  0  0  0  0  0  0  0
    4.8916   -6.4993   26.3750 C   0  0  0  0  0  0  0  0  0  0  0  0
    5.0033   -7.2052   27.1968 H   0  0  0  0  0  0  0  0  0  0  0  0
    3.6380   -6.3628   25.7379 C   0  0  0  0  0  0  0  0  0  0  0  0
    2.7942   -6.9629   26.0720 H   0  0  0  0  0  0  0  0  0  0  0  0
    3.4688   -5.4651   24.6847 C   0  0  0  0  0  0  0  0  0  0  0  0
    2.5088   -5.3515   24.1874 H   0  0  0  0  0  0  0  0  0  0  0  0
    4.5679   -4.7008   24.2685 C   0  0  0  0  0  0  0  0  0  0  0  0
    4.6740   -3.5278   22.9952 S   0  0  0  0  0  0  0  0  0  0  0  0
    8.5411   -2.1083   22.9712 C   0  0  0  0  0  0  0  0  0  0  0  0
    8.9721   -2.6926   23.7825 H   0  0  0  0  0  0  0  0  0  0  0  0
    9.2776   -1.2037   22.2827 C   0  0  0  0  0  0  0  0  0  0  0  0
   10.3206   -0.9971   22.4821 H   0  0  0  0  0  0  0  0  0  0  0  0
    8.7102   -0.4077   21.2070 C   0  0  0  0  0  0  0  0  0  0  0  0
    9.3237    0.4302   20.5690 O   0  0  0  0  0  0  0  0  0  0  0  0
    5.4368    0.6452   20.1649 C   0  0  0  0  0  0  0  0  0  0  0  0
    5.0169    0.6088   21.1695 H   0  0  0  0  0  0  0  0  0  0  0  0
    4.8083    1.3164   19.1119 C   0  0  0  0  0  0  0  0  0  0  0  0
    3.8731    1.8462   19.2651 H   0  0  0  0  0  0  0  0  0  0  0  0
  1  2  1  0
  2  3  2  0
  3  4  1  0
  4  5  1  0
  4  6  2  0
  6  7  1  0
  7  8  1  0
  8  9  2  0
  9 10  1  0
 10 11  2  0
 11 12  1  0
 12 13  2  0
 13 14  1  0
 13 15  1  0
 15 16  1  0
 15 17  2  0
 17 18  1  0
 17 19  1  0
 19 20  1  0
 19 21  2  0
 21 22  1  0
  9 23  1  0
 23 24  1  0
 23 25  2  0
 25 26  1  0
 25 27  1  0
 27 28  2  0
  6 29  1  0
 29 30  1  0
 29 31  2  0
 31 32  1  0
 31  2  1  0
 27  7  1  0
 22 10  1  0
 21 12  1  0
M  END
>  <cnnaffinity>  (1) 
-5.60612

>  <filename>  (1) 
O=c1ccc(-c2nc3ccccc3s2)nn1-c1cccnc1

$$$$
