
     RDKit          3D

 40 42  0  0  0  0  0  0  0  0999 V2000
    4.9205    1.8078   16.9787 H   0  0  0  0  0  0  0  0  0  0  0  0
    5.3830    1.3022   17.8246 C   0  0  0  0  0  0  0  0  0  0  0  0
    6.5374    0.6708   17.5574 N   0  0  0  0  0  0  0  0  0  0  0  0
    7.1538    0.0504   18.5696 C   0  0  0  0  0  0  0  0  0  0  0  0
    8.1148   -0.4125   18.3539 H   0  0  0  0  0  0  0  0  0  0  0  0
    6.6442    0.0004   19.8808 C   0  0  0  0  0  0  0  0  0  0  0  0
    7.3586   -0.6746   20.9312 N   0  0  0  0  0  0  0  0  0  0  0  0
    6.7318   -1.7118   21.5909 C   0  0  0  0  0  0  0  0  0  0  0  0
    5.7285   -1.9287   21.2333 H   0  0  0  0  0  0  0  0  0  0  0  0
    7.3277   -2.4184   22.5888 C   0  0  0  0  0  0  0  0  0  0  0  0
    6.6401   -3.6007   23.2310 C   0  0  0  0  0  0  0  0  0  0  0  0
    6.9965   -3.7106   24.2659 H   0  0  0  0  0  0  0  0  0  0  0  0
    5.5506   -3.4444   23.3009 H   0  0  0  0  0  0  0  0  0  0  0  0
    6.9121   -4.9052   22.4580 C   0  0  0  0  0  0  0  0  0  0  0  0
    7.9983   -5.0480   22.3777 H   0  0  0  0  0  0  0  0  0  0  0  0
    6.5432   -4.8009   21.4275 H   0  0  0  0  0  0  0  0  0  0  0  0
    6.2644   -6.1399   23.1093 C   0  0  0  0  0  0  0  0  0  0  0  0
    6.6154   -6.2064   24.1475 H   0  0  0  0  0  0  0  0  0  0  0  0
    6.6170   -7.0487   22.5981 H   0  0  0  0  0  0  0  0  0  0  0  0
    4.7460   -6.0781   23.0984 C   0  0  0  0  0  0  0  0  0  0  0  0
    4.0443   -6.3998   21.9296 C   0  0  0  0  0  0  0  0  0  0  0  0
    4.6475   -6.6928   21.0694 H   0  0  0  0  0  0  0  0  0  0  0  0
    2.6422   -6.3464   21.9003 C   0  0  0  0  0  0  0  0  0  0  0  0
    2.0524   -6.6731   21.0486 H   0  0  0  0  0  0  0  0  0  0  0  0
    1.9326   -5.9012   23.0129 C   0  0  0  0  0  0  0  0  0  0  0  0
    0.8498   -5.8402   22.9435 H   0  0  0  0  0  0  0  0  0  0  0  0
    2.6158   -5.5640   24.1844 C   0  0  0  0  0  0  0  0  0  0  0  0
    2.0604   -5.2538   25.0659 H   0  0  0  0  0  0  0  0  0  0  0  0
    4.0121   -5.6585   24.2231 C   0  0  0  0  0  0  0  0  0  0  0  0
    4.5503   -5.4004   25.1329 H   0  0  0  0  0  0  0  0  0  0  0  0
    8.6690   -2.0676   22.9575 C   0  0  0  0  0  0  0  0  0  0  0  0
    9.1662   -2.6441   23.7396 H   0  0  0  0  0  0  0  0  0  0  0  0
    9.3109   -1.0395   22.3400 C   0  0  0  0  0  0  0  0  0  0  0  0
   10.3173   -0.7205   22.5707 H   0  0  0  0  0  0  0  0  0  0  0  0
    8.6915   -0.2623   21.2788 C   0  0  0  0  0  0  0  0  0  0  0  0
    9.2478    0.6630   20.7074 O   0  0  0  0  0  0  0  0  0  0  0  0
    5.4296    0.6396   20.1425 C   0  0  0  0  0  0  0  0  0  0  0  0
    5.0366    0.6243   21.1593 H   0  0  0  0  0  0  0  0  0  0  0  0
    4.7949    1.3172   19.0947 C   0  0  0  0  0  0  0  0  0  0  0  0
    3.8681    1.8542   19.2445 H   0  0  0  0  0  0  0  0  0  0  0  0
  1  2  1  0
  2  3  2  0
  3  4  1  0
  4  5  1  0
  4  6  2  0
  6  7  1  0
  7  8  1  0
  8  9  1  0
  8 10  2  0
 10 11  1  0
 11 12  1  0
 11 13  1  0
 11 14  1  0
 14 15  1  0
 14 16  1  0
 14 17  1  0
 17 18  1  0
 17 19  1  0
 17 20  1  0
 20 21  2  0
 21 22  1  0
 21 23  1  0
 23 24  1  0
 23 25  2  0
 25 26  1  0
 25 27  1  0
 27 28  1  0
 27 29  2  0
 29 30  1  0
 10 31  1  0
 31 32  1  0
 31 33  2  0
 33 34  1  0
 33 35  1  0
 35 36  2  0
  6 37  1  0
 37 38  1  0
 37 39  2  0
 39 40  1  0
 39  2  1  0
 35  7  1  0
 29 20  1  0
M  END
>  <cnnaffinity>  (1) 
-5.61377

>  <filename>  (1) 
O=c1ccc(CCCc2ccccc2)cn1-c1cccnc1

$$$$
