
     RDKit          3D

 33 35  0  0  0  0  0  0  0  0999 V2000
    4.9494    1.7972   16.9824 H   0  0  0  0  0  0  0  0  0  0  0  0
    5.4020    1.2957   17.8383 C   0  0  0  0  0  0  0  0  0  0  0  0
    6.5594    0.6655   17.5956 N   0  0  0  0  0  0  0  0  0  0  0  0
    7.1534    0.0431   18.6210 C   0  0  0  0  0  0  0  0  0  0  0  0
    8.0979   -0.4409   18.3794 H   0  0  0  0  0  0  0  0  0  0  0  0
    6.6253   -0.0100   19.9211 C   0  0  0  0  0  0  0  0  0  0  0  0
    7.3348   -0.7452   21.0038 C   0  0  0  0  0  0  0  0  0  0  0  0
    6.5814   -1.3402   21.9034 N   0  0  0  0  0  0  0  0  0  0  0  0
    7.1819   -1.9585   22.9670 N   0  0  0  0  0  0  0  0  0  0  0  0
    6.2898   -2.5413   23.9349 C   0  0  0  0  0  0  0  0  0  0  0  0
    6.5212   -2.3371   25.3001 C   0  0  0  0  0  0  0  0  0  0  0  0
    7.3903   -1.7659   25.6118 H   0  0  0  0  0  0  0  0  0  0  0  0
    5.6492   -2.9096   26.2246 C   0  0  0  0  0  0  0  0  0  0  0  0
    5.8375   -2.7730   27.2855 H   0  0  0  0  0  0  0  0  0  0  0  0
    4.5785   -3.6981   25.7983 C   0  0  0  0  0  0  0  0  0  0  0  0
    3.9206   -4.1272   26.5456 H   0  0  0  0  0  0  0  0  0  0  0  0
    4.3551   -3.9282   24.4286 C   0  0  0  0  0  0  0  0  0  0  0  0
    3.2395   -4.8917   24.0359 C   0  0  0  0  0  0  0  0  0  0  0  0
    2.1609   -4.7661   24.8354 F   0  0  0  0  0  0  0  0  0  0  0  0
    2.8060   -4.7273   22.7750 F   0  0  0  0  0  0  0  0  0  0  0  0
    3.6350   -6.1749   24.1305 F   0  0  0  0  0  0  0  0  0  0  0  0
    5.2057   -3.3135   23.4921 C   0  0  0  0  0  0  0  0  0  0  0  0
    5.0659   -3.3753   22.4162 H   0  0  0  0  0  0  0  0  0  0  0  0
    8.5989   -2.1190   23.1319 C   0  0  0  0  0  0  0  0  0  0  0  0
    9.0904   -2.7479   24.0527 O   0  0  0  0  0  0  0  0  0  0  0  0
    9.3778   -1.4617   22.0864 C   0  0  0  0  0  0  0  0  0  0  0  0
   10.4472   -1.5614   22.2063 H   0  0  0  0  0  0  0  0  0  0  0  0
    8.7707   -0.7949   21.0650 C   0  0  0  0  0  0  0  0  0  0  0  0
    9.3351   -0.2666   20.3037 H   0  0  0  0  0  0  0  0  0  0  0  0
    5.4084    0.6483   20.1571 C   0  0  0  0  0  0  0  0  0  0  0  0
    4.9683    0.6295   21.1551 H   0  0  0  0  0  0  0  0  0  0  0  0
    4.7921    1.3195   19.0982 C   0  0  0  0  0  0  0  0  0  0  0  0
    3.8603    1.8620   19.2248 H   0  0  0  0  0  0  0  0  0  0  0  0
  1  2  1  0
  2  3  2  0
  3  4  1  0
  4  5  1  0
  4  6  2  0
  6  7  1  0
  7  8  2  0
  8  9  1  0
  9 10  1  0
 10 11  2  0
 11 12  1  0
 11 13  1  0
 13 14  1  0
 13 15  2  0
 15 16  1  0
 15 17  1  0
 17 18  1  0
 18 19  1  0
 18 20  1  0
 18 21  1  0
 17 22  2  0
 22 23  1  0
  9 24  1  0
 24 25  2  0
 24 26  1  0
 26 27  1  0
 26 28  2  0
 28 29  1  0
  6 30  1  0
 30 31  1  0
 30 32  2  0
 32 33  1  0
 32  2  1  0
 28  7  1  0
 22 10  1  0
M  END
>  <cnnaffinity>  (1) 
-5.20376

>  <filename>  (1) 
O=c1ccc(-c2cccnc2)nn1-c1cccc(C(F)(F)F)c1

$$$$
