
     RDKit          3D

 28 30  0  0  0  0  0  0  0  0999 V2000
    4.9070    1.7764   17.0013 H   0  0  0  0  0  0  0  0  0  0  0  0
    5.3978    1.2941   17.8423 C   0  0  0  0  0  0  0  0  0  0  0  0
    6.5628    0.6783   17.5783 N   0  0  0  0  0  0  0  0  0  0  0  0
    7.1797    0.0591   18.5917 C   0  0  0  0  0  0  0  0  0  0  0  0
    8.1289   -0.4304   18.3834 H   0  0  0  0  0  0  0  0  0  0  0  0
    6.6669    0.0023   19.9078 C   0  0  0  0  0  0  0  0  0  0  0  0
    7.3594   -0.6833   20.9475 N   0  0  0  0  0  0  0  0  0  0  0  0
    6.7696   -1.4521   21.9424 C   0  0  0  0  0  0  0  0  0  0  0  0
    5.7008   -1.5831   21.9949 H   0  0  0  0  0  0  0  0  0  0  0  0
    7.7411   -1.9346   22.7454 C   0  0  0  0  0  0  0  0  0  0  0  0
    7.6152   -2.7851   23.9220 C   0  0  0  0  0  0  0  0  0  0  0  0
    6.4253   -3.4951   24.1267 C   0  0  0  0  0  0  0  0  0  0  0  0
    5.6073   -3.4378   23.4167 H   0  0  0  0  0  0  0  0  0  0  0  0
    6.3171   -4.2903   25.2602 C   0  0  0  0  0  0  0  0  0  0  0  0
    5.3979   -4.8467   25.4261 H   0  0  0  0  0  0  0  0  0  0  0  0
    7.2896   -4.4176   26.1740 N   0  0  0  0  0  0  0  0  0  0  0  0
    8.4231   -3.7307   25.9685 C   0  0  0  0  0  0  0  0  0  0  0  0
    9.2114   -3.8332   26.7106 H   0  0  0  0  0  0  0  0  0  0  0  0
    8.6378   -2.9066   24.8706 C   0  0  0  0  0  0  0  0  0  0  0  0
    9.5710   -2.3641   24.7700 H   0  0  0  0  0  0  0  0  0  0  0  0
    8.9449   -1.4571   22.2412 N   0  0  0  0  0  0  0  0  0  0  0  0
    9.8758   -1.6245   22.5729 H   0  0  0  0  0  0  0  0  0  0  0  0
    8.7525   -0.6730   21.1365 C   0  0  0  0  0  0  0  0  0  0  0  0
    9.5957   -0.1041   20.4735 O   0  0  0  0  0  0  0  0  0  0  0  0
    5.4472    0.6449   20.1626 C   0  0  0  0  0  0  0  0  0  0  0  0
    5.0142    0.6305   21.1627 H   0  0  0  0  0  0  0  0  0  0  0  0
    4.8082    1.3111   19.1111 C   0  0  0  0  0  0  0  0  0  0  0  0
    3.8729    1.8439   19.2679 H   0  0  0  0  0  0  0  0  0  0  0  0
  1  2  1  0
  2  3  2  0
  3  4  1  0
  4  5  1  0
  4  6  2  0
  6  7  1  0
  7  8  1  0
  8  9  1  0
  8 10  2  0
 10 11  1  0
 11 12  2  0
 12 13  1  0
 12 14  1  0
 14 15  1  0
 14 16  2  0
 16 17  1  0
 17 18  1  0
 17 19  2  0
 19 20  1  0
 10 21  1  0
 21 22  1  0
 21 23  1  0
 23 24  2  0
  6 25  1  0
 25 26  1  0
 25 27  2  0
 27 28  1  0
 27  2  1  0
 23  7  1  0
 19 11  1  0
M  END
>  <cnnaffinity>  (1) 
-5.15673

>  <filename>  (1) 
O=c1[nH]c(-c2ccncc2)cn1-c1cccnc1

$$$$
