
     RDKit          3D

 32 34  0  0  0  0  0  0  0  0999 V2000
   12.1574    2.7054   22.3460 H   0  0  0  0  0  0  0  0  0  0  0  0
   12.9449    2.1777   22.5325 O   0  0  0  0  0  0  0  0  0  0  0  0
   12.5712    0.8895   22.3555 C   0  0  0  0  0  0  0  0  0  0  0  0
   13.5585   -0.0928   22.3051 C   0  0  0  0  0  0  0  0  0  0  0  0
   14.6011    0.1892   22.3991 H   0  0  0  0  0  0  0  0  0  0  0  0
   13.1635   -1.4101   22.0840 C   0  0  0  0  0  0  0  0  0  0  0  0
   14.0790   -2.3848   21.8863 O   0  0  0  0  0  0  0  0  0  0  0  0
   14.9511   -1.9828   21.9199 H   0  0  0  0  0  0  0  0  0  0  0  0
   11.8128   -1.7673   22.0419 C   0  0  0  0  0  0  0  0  0  0  0  0
   11.5470   -2.8156   22.0476 H   0  0  0  0  0  0  0  0  0  0  0  0
   10.8316   -0.7702   22.0679 C   0  0  0  0  0  0  0  0  0  0  0  0
    9.3774   -1.1283   21.9563 C   0  0  0  0  0  0  0  0  0  0  0  0
    8.6940   -0.4775   21.0486 N   0  0  0  0  0  0  0  0  0  0  0  0
    7.3422   -0.6845   20.9708 N   0  0  0  0  0  0  0  0  0  0  0  0
    6.6842   -0.0163   19.8939 C   0  0  0  0  0  0  0  0  0  0  0  0
    7.2849    0.0037   18.6226 C   0  0  0  0  0  0  0  0  0  0  0  0
    8.2296   -0.5163   18.4679 H   0  0  0  0  0  0  0  0  0  0  0  0
    6.7461    0.6217   17.5642 N   0  0  0  0  0  0  0  0  0  0  0  0
    5.5887    1.2839   17.7414 C   0  0  0  0  0  0  0  0  0  0  0  0
    5.1788    1.7902   16.8681 H   0  0  0  0  0  0  0  0  0  0  0  0
    4.9193    1.3266   18.9671 C   0  0  0  0  0  0  0  0  0  0  0  0
    3.9960    1.8872   19.0588 H   0  0  0  0  0  0  0  0  0  0  0  0
    5.4662    0.6531   20.0647 C   0  0  0  0  0  0  0  0  0  0  0  0
    4.9909    0.6679   21.0436 H   0  0  0  0  0  0  0  0  0  0  0  0
    6.6752   -1.5085   21.8479 C   0  0  0  0  0  0  0  0  0  0  0  0
    5.5948   -1.5467   21.7100 H   0  0  0  0  0  0  0  0  0  0  0  0
    7.3248   -2.2550   22.7558 C   0  0  0  0  0  0  0  0  0  0  0  0
    6.8110   -2.9209   23.4363 H   0  0  0  0  0  0  0  0  0  0  0  0
    8.7833   -2.2077   22.8271 C   0  0  0  0  0  0  0  0  0  0  0  0
    9.4206   -2.9691   23.5456 O   0  0  0  0  0  0  0  0  0  0  0  0
   11.2170    0.5694   22.2085 C   0  0  0  0  0  0  0  0  0  0  0  0
   10.4699    1.3570   22.2000 H   0  0  0  0  0  0  0  0  0  0  0  0
  1  2  1  0
  2  3  1  0
  3  4  2  0
  4  5  1  0
  4  6  1  0
  6  7  1  0
  7  8  1  0
  6  9  2  0
  9 10  1  0
  9 11  1  0
 11 12  1  0
 12 13  2  0
 13 14  1  0
 14 15  1  0
 15 16  2  0
 16 17  1  0
 16 18  1  0
 18 19  2  0
 19 20  1  0
 19 21  1  0
 21 22  1  0
 21 23  2  0
 23 24  1  0
 14 25  1  0
 25 26  1  0
 25 27  2  0
 27 28  1  0
 27 29  1  0
 29 30  2  0
 11 31  2  0
 31 32  1  0
 31  3  1  0
 29 12  1  0
 23 15  1  0
M  END
>  <cnnaffinity>  (1) 
-5.88673

>  <filename>  (1) 
O=c1ccn(-c2cccnc2)nc1-c1cc(O)cc(O)c1

$$$$
