
     RDKit          3D

 33 35  0  0  0  0  0  0  0  0999 V2000
   12.7907   -0.8540   22.2026 H   0  0  0  0  0  0  0  0  0  0  0  0
   13.3369   -0.0527   22.2711 O   0  0  0  0  0  0  0  0  0  0  0  0
   12.4890    0.9884   22.4524 C   0  0  0  0  0  0  0  0  0  0  0  0
   13.0255    2.2687   22.4986 C   0  0  0  0  0  0  0  0  0  0  0  0
   14.1020    2.3542   22.4756 H   0  0  0  0  0  0  0  0  0  0  0  0
   12.1804    3.3816   22.5329 C   0  0  0  0  0  0  0  0  0  0  0  0
   12.8506    4.9703   22.3455 Cl  0  0  0  0  0  0  0  0  0  0  0  0
   10.8031    3.2231   22.6792 C   0  0  0  0  0  0  0  0  0  0  0  0
   10.1531    4.0895   22.7241 H   0  0  0  0  0  0  0  0  0  0  0  0
   10.2645    1.9308   22.7338 C   0  0  0  0  0  0  0  0  0  0  0  0
    9.2067    1.7774   22.9118 H   0  0  0  0  0  0  0  0  0  0  0  0
   11.0903    0.8174   22.5713 C   0  0  0  0  0  0  0  0  0  0  0  0
   10.6542   -0.4999   22.5771 O   0  0  0  0  0  0  0  0  0  0  0  0
    9.3654   -0.8602   22.2497 C   0  0  0  0  0  0  0  0  0  0  0  0
    8.7996   -1.9585   22.9722 C   0  0  0  0  0  0  0  0  0  0  0  0
    9.3951   -2.4248   23.7632 H   0  0  0  0  0  0  0  0  0  0  0  0
    7.5401   -2.3861   22.6643 C   0  0  0  0  0  0  0  0  0  0  0  0
    7.0522   -3.2087   23.1677 H   0  0  0  0  0  0  0  0  0  0  0  0
    6.7259   -1.7916   21.6052 C   0  0  0  0  0  0  0  0  0  0  0  0
    5.6236   -2.2096   21.2952 O   0  0  0  0  0  0  0  0  0  0  0  0
    7.3690   -0.6918   20.9179 N   0  0  0  0  0  0  0  0  0  0  0  0
    6.6765    0.0103   19.8650 C   0  0  0  0  0  0  0  0  0  0  0  0
    7.1961    0.0828   18.5573 C   0  0  0  0  0  0  0  0  0  0  0  0
    8.1372   -0.4158   18.3182 H   0  0  0  0  0  0  0  0  0  0  0  0
    6.5794    0.7082   17.5462 N   0  0  0  0  0  0  0  0  0  0  0  0
    5.4148    1.3238   17.8139 C   0  0  0  0  0  0  0  0  0  0  0  0
    4.9335    1.8208   16.9736 H   0  0  0  0  0  0  0  0  0  0  0  0
    4.8228    1.3207   19.0800 C   0  0  0  0  0  0  0  0  0  0  0  0
    3.8820    1.8387   19.2306 H   0  0  0  0  0  0  0  0  0  0  0  0
    5.4576    0.6472   20.1273 C   0  0  0  0  0  0  0  0  0  0  0  0
    5.0353    0.6077   21.1317 H   0  0  0  0  0  0  0  0  0  0  0  0
    8.6493   -0.2686   21.2500 C   0  0  0  0  0  0  0  0  0  0  0  0
    9.0324    0.5811   20.6919 H   0  0  0  0  0  0  0  0  0  0  0  0
  1  2  1  0
  2  3  1  0
  3  4  2  0
  4  5  1  0
  4  6  1  0
  6  7  1  0
  6  8  2  0
  8  9  1  0
  8 10  1  0
 10 11  1  0
 10 12  2  0
 12 13  1  0
 13 14  1  0
 14 15  1  0
 15 16  1  0
 15 17  2  0
 17 18  1  0
 17 19  1  0
 19 20  2  0
 19 21  1  0
 21 22  1  0
 22 23  2  0
 23 24  1  0
 23 25  1  0
 25 26  2  0
 26 27  1  0
 26 28  1  0
 28 29  1  0
 28 30  2  0
 30 31  1  0
 21 32  1  0
 32 33  1  0
 12  3  1  0
 32 14  2  0
 30 22  1  0
M  END
>  <cnnaffinity>  (1) 
-5.66373

>  <filename>  (1) 
O=c1ccc(Oc2ccc(Cl)cc2O)cn1-c1cccnc1

$$$$
