
     RDKit          3D

 29 31  0  0  0  0  0  0  0  0999 V2000
    4.9691    1.7923   16.9486 H   0  0  0  0  0  0  0  0  0  0  0  0
    5.4675    1.3227   17.7971 C   0  0  0  0  0  0  0  0  0  0  0  0
    6.6622    0.7628   17.5485 N   0  0  0  0  0  0  0  0  0  0  0  0
    7.2810    0.1569   18.5685 C   0  0  0  0  0  0  0  0  0  0  0  0
    8.2550   -0.2801   18.3546 H   0  0  0  0  0  0  0  0  0  0  0  0
    6.7285    0.0264   19.8559 C   0  0  0  0  0  0  0  0  0  0  0  0
    7.4708   -0.7638   20.8886 C   0  0  0  0  0  0  0  0  0  0  0  0
    8.7452   -0.4811   20.9976 N   0  0  0  0  0  0  0  0  0  0  0  0
    9.4769   -1.1354   21.9544 N   0  0  0  0  0  0  0  0  0  0  0  0
   10.8733   -0.8437   21.9759 C   0  0  0  0  0  0  0  0  0  0  0  0
   11.3015    0.4905   21.8736 C   0  0  0  0  0  0  0  0  0  0  0  0
   10.5484    1.2646   21.7333 H   0  0  0  0  0  0  0  0  0  0  0  0
   12.5840    0.8630   21.9727 N   0  0  0  0  0  0  0  0  0  0  0  0
   13.5037   -0.1073   22.1192 C   0  0  0  0  0  0  0  0  0  0  0  0
   14.5444    0.2114   22.1958 H   0  0  0  0  0  0  0  0  0  0  0  0
   13.1795   -1.4688   22.1368 C   0  0  0  0  0  0  0  0  0  0  0  0
   13.9639   -2.2170   22.1656 H   0  0  0  0  0  0  0  0  0  0  0  0
   11.8351   -1.8547   22.1017 C   0  0  0  0  0  0  0  0  0  0  0  0
   11.5268   -2.8982   22.2078 H   0  0  0  0  0  0  0  0  0  0  0  0
    8.8917   -1.9177   22.9262 C   0  0  0  0  0  0  0  0  0  0  0  0
    9.5538   -2.2515   23.7258 H   0  0  0  0  0  0  0  0  0  0  0  0
    7.5912   -2.2481   22.8813 C   0  0  0  0  0  0  0  0  0  0  0  0
    7.1118   -2.8575   23.6346 H   0  0  0  0  0  0  0  0  0  0  0  0
    6.7860   -1.8258   21.7440 C   0  0  0  0  0  0  0  0  0  0  0  0
    5.6809   -2.2995   21.5171 O   0  0  0  0  0  0  0  0  0  0  0  0
    5.4974    0.6537   20.1096 C   0  0  0  0  0  0  0  0  0  0  0  0
    5.0532    0.6228   21.1069 H   0  0  0  0  0  0  0  0  0  0  0  0
    4.8609    1.3114   19.0567 C   0  0  0  0  0  0  0  0  0  0  0  0
    3.9124    1.8160   19.1962 H   0  0  0  0  0  0  0  0  0  0  0  0
  1  2  1  0
  2  3  2  0
  3  4  1  0
  4  5  1  0
  4  6  2  0
  6  7  1  0
  7  8  2  0
  8  9  1  0
  9 10  1  0
 10 11  2  0
 11 12  1  0
 11 13  1  0
 13 14  2  0
 14 15  1  0
 14 16  1  0
 16 17  1  0
 16 18  2  0
 18 19  1  0
  9 20  1  0
 20 21  1  0
 20 22  2  0
 22 23  1  0
 22 24  1  0
 24 25  2  0
  6 26  1  0
 26 27  1  0
 26 28  2  0
 28 29  1  0
 28  2  1  0
 24  7  1  0
 18 10  1  0
M  END
>  <cnnaffinity>  (1) 
-5.41698

>  <filename>  (1) 
O=c1ccn(-c2cccnc2)nc1-c1cccnc1

$$$$
