
     RDKit          3D

 34 37  0  0  0  0  0  0  0  0999 V2000
    4.8942    1.7953   16.8811 H   0  0  0  0  0  0  0  0  0  0  0  0
    5.3420    1.3789   17.7806 C   0  0  0  0  0  0  0  0  0  0  0  0
    6.5543    0.8351   17.6113 N   0  0  0  0  0  0  0  0  0  0  0  0
    7.1519    0.3258   18.6937 C   0  0  0  0  0  0  0  0  0  0  0  0
    8.1357   -0.1093   18.5120 H   0  0  0  0  0  0  0  0  0  0  0  0
    6.5921    0.3399   19.9877 C   0  0  0  0  0  0  0  0  0  0  0  0
    7.2696   -0.4136   21.0821 C   0  0  0  0  0  0  0  0  0  0  0  0
    7.5679    0.4202   22.5919 S   0  0  0  0  0  0  0  0  0  0  0  0
    8.2861   -0.8312   23.6049 C   0  0  0  0  0  0  0  0  0  0  0  0
    8.4967   -0.4430   25.0096 C   0  0  0  0  0  0  0  0  0  0  0  0
    9.6334   -0.6824   25.7408 C   0  0  0  0  0  0  0  0  0  0  0  0
   10.5765   -1.0821   25.3812 H   0  0  0  0  0  0  0  0  0  0  0  0
    9.4714   -0.2119   27.0211 N   0  0  0  0  0  0  0  0  0  0  0  0
   10.1478   -0.1866   27.7682 H   0  0  0  0  0  0  0  0  0  0  0  0
    8.2266    0.3558   27.1373 C   0  0  0  0  0  0  0  0  0  0  0  0
    7.6432    0.9947   28.2401 C   0  0  0  0  0  0  0  0  0  0  0  0
    8.1852    1.0620   29.1781 H   0  0  0  0  0  0  0  0  0  0  0  0
    6.3684    1.5254   28.0738 C   0  0  0  0  0  0  0  0  0  0  0  0
    5.8969    2.0493   28.9006 H   0  0  0  0  0  0  0  0  0  0  0  0
    5.6756    1.3989   26.8434 C   0  0  0  0  0  0  0  0  0  0  0  0
    4.6780    1.8170   26.7467 H   0  0  0  0  0  0  0  0  0  0  0  0
    6.2547    0.7438   25.7579 C   0  0  0  0  0  0  0  0  0  0  0  0
    5.7265    0.6213   24.8124 H   0  0  0  0  0  0  0  0  0  0  0  0
    7.5647    0.2302   25.8948 C   0  0  0  0  0  0  0  0  0  0  0  0
    8.6055   -2.0703   23.1565 C   0  0  0  0  0  0  0  0  0  0  0  0
    9.0865   -2.7921   23.8106 H   0  0  0  0  0  0  0  0  0  0  0  0
    8.2662   -2.5978   21.8332 C   0  0  0  0  0  0  0  0  0  0  0  0
    8.5102   -3.7562   21.5245 O   0  0  0  0  0  0  0  0  0  0  0  0
    7.6070   -1.6970   20.8793 C   0  0  0  0  0  0  0  0  0  0  0  0
    7.3908   -2.1597   19.9270 H   0  0  0  0  0  0  0  0  0  0  0  0
    5.3373    0.9491   20.1493 C   0  0  0  0  0  0  0  0  0  0  0  0
    4.8881    1.0077   21.1403 H   0  0  0  0  0  0  0  0  0  0  0  0
    4.6959    1.4592   19.0163 C   0  0  0  0  0  0  0  0  0  0  0  0
    3.7294    1.9446   19.0827 H   0  0  0  0  0  0  0  0  0  0  0  0
  1  2  1  0
  2  3  2  0
  3  4  1  0
  4  5  1  0
  4  6  2  0
  6  7  1  0
  7  8  1  0
  8  9  1  0
  9 10  1  0
 10 11  2  0
 11 12  1  0
 11 13  1  0
 13 14  1  0
 13 15  1  0
 15 16  2  0
 16 17  1  0
 16 18  1  0
 18 19  1  0
 18 20  2  0
 20 21  1  0
 20 22  1  0
 22 23  1  0
 22 24  2  0
  9 25  2  0
 25 26  1  0
 25 27  1  0
 27 28  2  0
 27 29  1  0
 29 30  1  0
  6 31  1  0
 31 32  1  0
 31 33  2  0
 33 34  1  0
 33  2  1  0
 29  7  2  0
 24 10  1  0
 24 15  1  0
M  END
>  <cnnaffinity>  (1) 
-5.51211

>  <filename>  (1) 
O=c1cc(-c2cccnc2)sc(-c2c[nH]c3ccccc23)c1

$$$$
