
     RDKit          3D

 23 24  0  0  0  0  0  0  0  0999 V2000
    4.9410    1.7908   17.0101 H   0  0  0  0  0  0  0  0  0  0  0  0
    5.4148    1.2861   17.8460 C   0  0  0  0  0  0  0  0  0  0  0  0
    6.5790    0.6736   17.5727 N   0  0  0  0  0  0  0  0  0  0  0  0
    7.2036    0.0638   18.5880 C   0  0  0  0  0  0  0  0  0  0  0  0
    8.1463   -0.4311   18.3560 H   0  0  0  0  0  0  0  0  0  0  0  0
    6.6970   -0.0019   19.9078 C   0  0  0  0  0  0  0  0  0  0  0  0
    7.3947   -0.6817   20.9430 N   0  0  0  0  0  0  0  0  0  0  0  0
    6.8080   -1.6036   21.8080 C   0  0  0  0  0  0  0  0  0  0  0  0
    5.7301   -2.1345   21.7515 O   0  0  0  0  0  0  0  0  0  0  0  0
    7.7522   -1.8937   22.7593 N   0  0  0  0  0  0  0  0  0  0  0  0
    7.5755   -2.6135   23.4360 H   0  0  0  0  0  0  0  0  0  0  0  0
    9.0105   -1.5712   22.3600 C   0  0  0  0  0  0  0  0  0  0  0  0
   10.0075   -1.9866   22.8783 O   0  0  0  0  0  0  0  0  0  0  0  0
    8.8476   -0.6512   21.1381 C   0  0  2  0  0  0  0  0  0  0  0  0
    9.3955   -1.1019   20.2967 H   0  0  0  0  0  0  0  0  0  0  0  0
    9.3575    0.7734   21.3640 C   0  0  0  0  0  0  0  0  0  0  0  0
    8.9555    1.1846   22.2939 H   0  0  0  0  0  0  0  0  0  0  0  0
    9.0416    1.4151   20.5348 H   0  0  0  0  0  0  0  0  0  0  0  0
   11.1369    0.7805   21.4472 Cl  0  0  0  0  0  0  0  0  0  0  0  0
    5.4642    0.6261   20.1667 C   0  0  0  0  0  0  0  0  0  0  0  0
    5.0345    0.5765   21.1679 H   0  0  0  0  0  0  0  0  0  0  0  0
    4.8204    1.2929   19.1155 C   0  0  0  0  0  0  0  0  0  0  0  0
    3.8835    1.8273   19.2663 H   0  0  0  0  0  0  0  0  0  0  0  0
  1  2  1  0
  2  3  2  0
  3  4  1  0
  4  5  1  0
  4  6  2  0
  6  7  1  0
  7  8  1  0
  8  9  2  0
  8 10  1  0
 10 11  1  0
 10 12  1  0
 12 13  2  0
 12 14  1  0
 14 15  1  6
 14 16  1  0
 16 17  1  0
 16 18  1  0
 16 19  1  0
  6 20  1  0
 20 21  1  0
 20 22  2  0
 22 23  1  0
 22  2  1  0
 14  7  1  0
M  END
>  <cnnaffinity>  (1) 
-4.28896

>  <filename>  (1) 
O=C1NC(=O)N(c2cccnc2)[C@H]1CCl

$$$$
