
     RDKit          3D

 28 30  0  0  0  0  0  0  0  0999 V2000
    6.3129   -2.8203   24.1320 H   0  0  0  0  0  0  0  0  0  0  0  0
    7.3627   -2.7548   23.8314 C   0  0  0  0  0  0  0  0  0  0  0  0
    8.2714   -3.5495   24.4456 C   0  0  0  0  0  0  0  0  0  0  0  0
    7.8234   -4.8431   25.5771 S   0  0  0  0  0  0  0  0  0  0  0  0
    9.3568   -5.6731   25.3339 C   0  0  0  0  0  0  0  0  0  0  0  0
    9.7466   -7.1485   25.8768 S   0  0  0  0  0  0  0  0  0  0  0  0
   10.1716   -4.8839   24.5858 N   0  0  0  0  0  0  0  0  0  0  0  0
   11.1376   -5.1244   24.4351 H   0  0  0  0  0  0  0  0  0  0  0  0
    9.7275   -3.6613   24.1549 C   0  0  0  0  0  0  0  0  0  0  0  0
   10.4765   -2.8605   23.6342 O   0  0  0  0  0  0  0  0  0  0  0  0
    7.5332   -1.8450   22.7235 C   0  0  0  0  0  0  0  0  0  0  0  0
    6.5786   -1.3816   21.8654 C   0  0  0  0  0  0  0  0  0  0  0  0
    5.5314   -1.6317   21.7789 H   0  0  0  0  0  0  0  0  0  0  0  0
    7.1744   -0.4815   21.0013 N   0  0  0  0  0  0  0  0  0  0  0  0
    6.5162    0.1317   19.8909 C   0  0  0  0  0  0  0  0  0  0  0  0
    7.0789    0.0724   18.6016 C   0  0  0  0  0  0  0  0  0  0  0  0
    8.0199   -0.4606   18.4589 H   0  0  0  0  0  0  0  0  0  0  0  0
    6.5206    0.6481   17.5320 N   0  0  0  0  0  0  0  0  0  0  0  0
    5.3767    1.3290   17.7077 C   0  0  0  0  0  0  0  0  0  0  0  0
    4.9631    1.8018   16.8187 H   0  0  0  0  0  0  0  0  0  0  0  0
    4.7357    1.4295   18.9439 C   0  0  0  0  0  0  0  0  0  0  0  0
    3.8145    1.9925   19.0228 H   0  0  0  0  0  0  0  0  0  0  0  0
    5.3067    0.8127   20.0608 C   0  0  0  0  0  0  0  0  0  0  0  0
    4.8503    0.8740   21.0484 H   0  0  0  0  0  0  0  0  0  0  0  0
    8.5050   -0.3200   21.3549 C   0  0  0  0  0  0  0  0  0  0  0  0
    9.6834    0.6798   20.7538 S   0  0  0  0  0  0  0  0  0  0  0  0
    8.6970   -1.1952   22.3661 N   0  0  0  0  0  0  0  0  0  0  0  0
    9.6154   -1.3511   22.7663 H   0  0  0  0  0  0  0  0  0  0  0  0
  1  2  1  0
  2  3  2  3
  3  4  1  0
  4  5  1  0
  5  6  2  0
  5  7  1  0
  7  8  1  0
  7  9  1  0
  9 10  2  0
  2 11  1  0
 11 12  2  0
 12 13  1  0
 12 14  1  0
 14 15  1  0
 15 16  2  0
 16 17  1  0
 16 18  1  0
 18 19  2  0
 19 20  1  0
 19 21  1  0
 21 22  1  0
 21 23  2  0
 23 24  1  0
 14 25  1  0
 25 26  2  0
 25 27  1  0
 27 28  1  0
  9  3  1  0
 27 11  1  0
 23 15  1  0
M  END
>  <cnnaffinity>  (1) 
-5.42576

>  <filename>  (1) 
O=C1NC(=S)SC1=Cc1cn(-c2cccnc2)c(=S)[nH]1

$$$$
