
     RDKit          3D

 38 41  0  0  0  0  0  0  0  0999 V2000
    4.9569    1.7901   16.8815 H   0  0  0  0  0  0  0  0  0  0  0  0
    5.4165    1.3337   17.7547 C   0  0  0  0  0  0  0  0  0  0  0  0
    6.5749    0.6882   17.5414 N   0  0  0  0  0  0  0  0  0  0  0  0
    7.1514    0.0911   18.5909 C   0  0  0  0  0  0  0  0  0  0  0  0
    8.0895   -0.4305   18.4066 H   0  0  0  0  0  0  0  0  0  0  0  0
    6.6139    0.1171   19.8931 C   0  0  0  0  0  0  0  0  0  0  0  0
    7.2320   -0.6118   20.9775 N   0  0  0  0  0  0  0  0  0  0  0  0
    7.3329   -1.9970   20.8940 C   0  0  0  0  0  0  0  0  0  0  0  0
    6.8771   -2.4393   20.0067 H   0  0  0  0  0  0  0  0  0  0  0  0
    7.9599   -2.7224   21.8392 C   0  0  0  0  0  0  0  0  0  0  0  0
    8.0881   -4.2143   21.7857 C   0  0  0  0  0  0  0  0  0  0  0  0
    8.9466   -4.5319   22.3848 H   0  0  0  0  0  0  0  0  0  0  0  0
    8.2222   -4.5787   20.7581 H   0  0  0  0  0  0  0  0  0  0  0  0
    6.9296   -4.8765   22.3552 N   0  0  0  0  0  0  0  0  0  0  0  0
    5.7103   -5.0336   21.7095 C   0  0  0  0  0  0  0  0  0  0  0  0
    5.5170   -4.7918   20.5395 O   0  0  0  0  0  0  0  0  0  0  0  0
    4.7611   -5.5717   22.7283 C   0  0  0  0  0  0  0  0  0  0  0  0
    3.4102   -5.9098   22.6370 C   0  0  0  0  0  0  0  0  0  0  0  0
    2.8510   -5.8375   21.7108 H   0  0  0  0  0  0  0  0  0  0  0  0
    2.7706   -6.3702   23.7911 C   0  0  0  0  0  0  0  0  0  0  0  0
    1.7137   -6.6199   23.7541 H   0  0  0  0  0  0  0  0  0  0  0  0
    3.4791   -6.5123   25.0029 C   0  0  0  0  0  0  0  0  0  0  0  0
    2.9616   -6.8707   25.8879 H   0  0  0  0  0  0  0  0  0  0  0  0
    4.8387   -6.1924   25.0815 C   0  0  0  0  0  0  0  0  0  0  0  0
    5.3966   -6.3032   26.0104 H   0  0  0  0  0  0  0  0  0  0  0  0
    5.4630   -5.7257   23.9230 C   0  0  0  0  0  0  0  0  0  0  0  0
    6.8743   -5.3219   23.6713 C   0  0  0  0  0  0  0  0  0  0  0  0
    7.8307   -5.3873   24.4036 O   0  0  0  0  0  0  0  0  0  0  0  0
    8.5704   -2.0326   22.9851 C   0  0  0  0  0  0  0  0  0  0  0  0
    9.2766   -2.5196   23.8387 O   0  0  0  0  0  0  0  0  0  0  0  0
    8.3139   -0.6908   23.0384 N   0  0  0  0  0  0  0  0  0  0  0  0
    8.6636   -0.1876   23.8305 H   0  0  0  0  0  0  0  0  0  0  0  0
    7.6542    0.0738   22.1367 C   0  0  0  0  0  0  0  0  0  0  0  0
    7.4870    1.2508   22.3512 O   0  0  0  0  0  0  0  0  0  0  0  0
    5.4375    0.8381   20.1141 C   0  0  0  0  0  0  0  0  0  0  0  0
    5.0463    0.9333   21.1271 H   0  0  0  0  0  0  0  0  0  0  0  0
    4.8101    1.4306   19.0130 C   0  0  0  0  0  0  0  0  0  0  0  0
    3.8784    1.9756   19.1263 H   0  0  0  0  0  0  0  0  0  0  0  0
  1  2  1  0
  2  3  2  0
  3  4  1  0
  4  5  1  0
  4  6  2  0
  6  7  1  0
  7  8  1  0
  8  9  1  0
  8 10  2  0
 10 11  1  0
 11 12  1  0
 11 13  1  0
 11 14  1  0
 14 15  1  0
 15 16  2  0
 15 17  1  0
 17 18  2  0
 18 19  1  0
 18 20  1  0
 20 21  1  0
 20 22  2  0
 22 23  1  0
 22 24  1  0
 24 25  1  0
 24 26  2  0
 26 27  1  0
 27 28  2  0
 10 29  1  0
 29 30  2  0
 29 31  1  0
 31 32  1  0
 31 33  1  0
 33 34  2  0
  6 35  1  0
 35 36  1  0
 35 37  2  0
 37 38  1  0
 37  2  1  0
 33  7  1  0
 27 14  1  0
 26 17  1  0
M  END
>  <cnnaffinity>  (1) 
-5.05477

>  <filename>  (1) 
O=C1c2ccccc2C(=O)N1Cc1cn(-c2cccnc2)c(=O)[nH]c1=O

$$$$
