
     RDKit          3D

 33 35  0  0  0  0  0  0  0  0999 V2000
    5.0258    1.7998   17.0210 H   0  0  0  0  0  0  0  0  0  0  0  0
    5.4861    1.2525   17.8417 C   0  0  0  0  0  0  0  0  0  0  0  0
    6.6364    0.6178   17.5642 N   0  0  0  0  0  0  0  0  0  0  0  0
    7.2342   -0.0375   18.5705 C   0  0  0  0  0  0  0  0  0  0  0  0
    8.1689   -0.5394   18.3167 H   0  0  0  0  0  0  0  0  0  0  0  0
    6.7238   -0.1306   19.8803 C   0  0  0  0  0  0  0  0  0  0  0  0
    7.4263   -0.8639   20.9485 C   0  0  0  0  0  0  0  0  0  0  0  0
    8.6625   -0.5884   21.4515 C   0  0  0  0  0  0  0  0  0  0  0  0
    9.5305    0.6072   21.2272 C   0  0  0  0  0  0  0  0  0  0  0  0
    9.6938    0.7634   20.1509 H   0  0  0  0  0  0  0  0  0  0  0  0
   10.5136    0.4384   21.6770 H   0  0  0  0  0  0  0  0  0  0  0  0
    8.8570    1.8778   21.8806 C   0  0  0  0  0  0  0  0  0  0  0  0
    9.0757    2.1884   23.2569 C   0  0  0  0  0  0  0  0  0  0  0  0
    9.6303    1.5307   23.9212 H   0  0  0  0  0  0  0  0  0  0  0  0
    8.3949    3.4466   23.7450 C   0  0  0  0  0  0  0  0  0  0  0  0
    8.5804    3.5995   24.8304 H   0  0  0  0  0  0  0  0  0  0  0  0
    7.8579    4.4762   22.9935 C   0  0  0  0  0  0  0  0  0  0  0  0
    7.1958    5.4572   23.3758 H   0  0  0  0  0  0  0  0  0  0  0  0
    7.7317    4.4544   22.8578 C   0  0  0  0  0  0  0  0  0  0  0  0
    6.4847    4.8385   21.3173 Cl  0  0  0  0  0  0  0  0  0  0  0  0
    7.9250    2.6596   21.2847 C   0  0  0  0  0  0  0  0  0  0  0  0
    7.4282    2.3989   20.3502 H   0  0  0  0  0  0  0  0  0  0  0  0
    8.9037   -1.4612   22.6213 C   0  0  0  0  0  0  0  0  0  0  0  0
    9.8341   -1.4753   23.4082 O   0  0  0  0  0  0  0  0  0  0  0  0
    7.8205   -2.2912   22.7043 N   0  0  0  0  0  0  0  0  0  0  0  0
    7.7092   -2.7670   23.5842 H   0  0  0  0  0  0  0  0  0  0  0  0
    6.7869   -1.9775   21.7419 C   0  0  0  0  0  0  0  0  0  0  0  0
    6.5364   -2.8450   21.1127 H   0  0  0  0  0  0  0  0  0  0  0  0
    5.8517   -1.6508   22.2148 H   0  0  0  0  0  0  0  0  0  0  0  0
    5.5012    0.5210   20.1325 C   0  0  0  0  0  0  0  0  0  0  0  0
    5.0808    0.4992   21.1404 H   0  0  0  0  0  0  0  0  0  0  0  0
    4.8841    1.2325   19.1052 C   0  0  0  0  0  0  0  0  0  0  0  0
    3.9671    1.7851   19.2739 H   0  0  0  0  0  0  0  0  0  0  0  0
  1  2  1  0
  2  3  2  0
  3  4  1  0
  4  5  1  0
  4  6  2  0
  6  7  1  0
  7  8  2  0
  8  9  1  0
  9 10  1  0
  9 11  1  0
  9 12  1  0
 12 13  2  0
 13 14  1  0
 13 15  1  0
 15 16  1  0
 15 17  2  0
 17 18  1  0
 17 19  1  0
 19 20  1  0
 19 21  2  0
 21 22  1  0
  8 23  1  0
 23 24  2  0
 23 25  1  0
 25 26  1  0
 25 27  1  0
 27 28  1  0
 27 29  1  0
  6 30  1  0
 30 31  1  0
 30 32  2  0
 32 33  1  0
 32  2  1  0
 27  7  1  0
 21 12  1  0
M  END
>  <cnnaffinity>  (1) 
-4.73815

>  <filename>  (1) 
O=C1NCC(c2cccnc2)=C1Cc1cccc(Cl)c1

$$$$
