
     RDKit          3D

 35 38  0  0  0  0  0  0  0  0999 V2000
    4.9331    1.8336   16.9455 H   0  0  0  0  0  0  0  0  0  0  0  0
    5.3903    1.3179   17.7867 C   0  0  0  0  0  0  0  0  0  0  0  0
    6.5480    0.6842   17.5389 N   0  0  0  0  0  0  0  0  0  0  0  0
    7.1410    0.0661   18.5710 C   0  0  0  0  0  0  0  0  0  0  0  0
    8.0849   -0.4303   18.3381 H   0  0  0  0  0  0  0  0  0  0  0  0
    6.6189    0.0087   19.8817 C   0  0  0  0  0  0  0  0  0  0  0  0
    7.3402   -0.7205   20.9762 C   0  0  0  0  0  0  0  0  0  0  0  0
    8.7496   -0.5728   21.1437 C   0  0  0  0  0  0  0  0  0  0  0  0
    9.3152    0.0732   20.4718 H   0  0  0  0  0  0  0  0  0  0  0  0
    9.4523   -1.2163   22.1451 C   0  0  0  0  0  0  0  0  0  0  0  0
   10.9008   -1.0414   22.2702 C   0  0  0  0  0  0  0  0  0  0  0  0
   11.7554   -2.1416   22.1819 C   0  0  0  0  0  0  0  0  0  0  0  0
   11.3123   -3.1295   22.1887 H   0  0  0  0  0  0  0  0  0  0  0  0
   13.1554   -1.9730   22.1323 C   0  0  0  0  0  0  0  0  0  0  0  0
   13.8131   -2.8285   22.0118 H   0  0  0  0  0  0  0  0  0  0  0  0
   13.7407   -0.7288   22.3314 C   0  0  0  0  0  0  0  0  0  0  0  0
   14.8186   -0.6318   22.4112 H   0  0  0  0  0  0  0  0  0  0  0  0
   12.8851    0.3715   22.4789 C   0  0  0  0  0  0  0  0  0  0  0  0
   11.4751    0.2531   22.3883 C   0  0  0  0  0  0  0  0  0  0  0  0
   10.9550    1.5885   22.4976 C   0  0  0  0  0  0  0  0  0  0  0  0
    9.9123    1.8653   22.4263 H   0  0  0  0  0  0  0  0  0  0  0  0
   12.0125    2.4317   22.6645 C   0  0  0  0  0  0  0  0  0  0  0  0
   12.0354    3.5120   22.7168 H   0  0  0  0  0  0  0  0  0  0  0  0
   13.1770    1.6992   22.6758 N   0  0  0  0  0  0  0  0  0  0  0  0
   14.1071    2.0780   22.7257 H   0  0  0  0  0  0  0  0  0  0  0  0
    8.7559   -2.1325   23.0544 C   0  0  0  0  0  0  0  0  0  0  0  0
    9.1816   -2.8130   23.9744 O   0  0  0  0  0  0  0  0  0  0  0  0
    7.3761   -2.2095   22.8210 N   0  0  0  0  0  0  0  0  0  0  0  0
    6.9811   -2.7833   23.5535 H   0  0  0  0  0  0  0  0  0  0  0  0
    6.6761   -1.5465   21.8494 C   0  0  0  0  0  0  0  0  0  0  0  0
    5.6015   -1.7206   21.7890 H   0  0  0  0  0  0  0  0  0  0  0  0
    5.4006    0.6749   20.1041 C   0  0  0  0  0  0  0  0  0  0  0  0
    4.9662    0.7006   21.1029 H   0  0  0  0  0  0  0  0  0  0  0  0
    4.7812    1.3399   19.0444 C   0  0  0  0  0  0  0  0  0  0  0  0
    3.8482    1.8743   19.1837 H   0  0  0  0  0  0  0  0  0  0  0  0
  1  2  1  0
  2  3  2  0
  3  4  1  0
  4  5  1  0
  4  6  2  0
  6  7  1  0
  7  8  1  0
  8  9  1  0
  8 10  2  0
 10 11  1  0
 11 12  2  0
 12 13  1  0
 12 14  1  0
 14 15  1  0
 14 16  2  0
 16 17  1  0
 16 18  1  0
 18 19  2  0
 19 20  1  0
 20 21  1  0
 20 22  2  0
 22 23  1  0
 22 24  1  0
 24 25  1  0
 10 26  1  0
 26 27  2  0
 26 28  1  0
 28 29  1  0
 28 30  1  0
 30 31  1  0
  6 32  1  0
 32 33  1  0
 32 34  2  0
 34 35  1  0
 34  2  1  0
 30  7  2  0
 19 11  1  0
 24 18  1  0
M  END
>  <cnnaffinity>  (1) 
-6.14963

>  <filename>  (1) 
O=c1[nH]cc(-c2cccnc2)cc1-c1cccc2[nH]ccc12

$$$$
