
     RDKit          3D

 33 35  0  0  0  0  0  0  0  0999 V2000
    4.9227    1.8027   16.9676 H   0  0  0  0  0  0  0  0  0  0  0  0
    5.3936    1.3033   17.8157 C   0  0  0  0  0  0  0  0  0  0  0  0
    6.5587    0.6833   17.5659 N   0  0  0  0  0  0  0  0  0  0  0  0
    7.1714    0.0693   18.5876 C   0  0  0  0  0  0  0  0  0  0  0  0
    8.1074   -0.4225   18.3279 H   0  0  0  0  0  0  0  0  0  0  0  0
    6.6665    0.0156   19.9028 C   0  0  0  0  0  0  0  0  0  0  0  0
    7.3380   -0.7041   20.9879 C   0  0  0  0  0  0  0  0  0  0  0  0
    6.8193   -1.2369   22.1159 C   0  0  0  0  0  0  0  0  0  0  0  0
    5.7956   -1.3132   22.3935 H   0  0  0  0  0  0  0  0  0  0  0  0
    7.8327   -1.8083   22.8761 N   0  0  0  0  0  0  0  0  0  0  0  0
    7.6666   -2.4784   24.1225 C   0  0  0  0  0  0  0  0  0  0  0  0
    6.7085   -2.0295   25.0487 C   0  0  0  0  0  0  0  0  0  0  0  0
    6.0927   -1.1657   24.8075 H   0  0  0  0  0  0  0  0  0  0  0  0
    6.5582   -2.6817   26.2754 C   0  0  0  0  0  0  0  0  0  0  0  0
    5.8304   -2.3613   27.0159 H   0  0  0  0  0  0  0  0  0  0  0  0
    7.3613   -3.7885   26.5597 C   0  0  0  0  0  0  0  0  0  0  0  0
    7.1380   -4.3648   27.8012 O   0  0  0  0  0  0  0  0  0  0  0  0
    7.8169   -5.4523   28.2133 C   0  0  0  0  0  0  0  0  0  0  0  0
    7.6115   -6.5240   27.4382 F   0  0  0  0  0  0  0  0  0  0  0  0
    9.1452   -5.2566   28.2438 F   0  0  0  0  0  0  0  0  0  0  0  0
    7.3852   -5.7284   29.4348 F   0  0  0  0  0  0  0  0  0  0  0  0
    8.3042   -4.2554   25.6465 C   0  0  0  0  0  0  0  0  0  0  0  0
    8.9277   -5.1054   25.8903 H   0  0  0  0  0  0  0  0  0  0  0  0
    8.4531   -3.5957   24.4261 C   0  0  0  0  0  0  0  0  0  0  0  0
    9.1939   -3.9106   23.7026 H   0  0  0  0  0  0  0  0  0  0  0  0
    9.0405   -1.6417   22.1877 C   0  0  0  0  0  0  0  0  0  0  0  0
   10.1705   -1.9730   22.4822 O   0  0  0  0  0  0  0  0  0  0  0  0
    8.6932   -0.9891   21.0307 N   0  0  0  0  0  0  0  0  0  0  0  0
    9.4425   -0.6912   20.4360 H   0  0  0  0  0  0  0  0  0  0  0  0
    5.4393    0.6657   20.1338 C   0  0  0  0  0  0  0  0  0  0  0  0
    5.0038    0.6645   21.1326 H   0  0  0  0  0  0  0  0  0  0  0  0
    4.7987    1.3206   19.0823 C   0  0  0  0  0  0  0  0  0  0  0  0
    3.8642    1.8516   19.2277 H   0  0  0  0  0  0  0  0  0  0  0  0
  1  2  1  0
  2  3  2  0
  3  4  1  0
  4  5  1  0
  4  6  2  0
  6  7  1  0
  7  8  2  0
  8  9  1  0
  8 10  1  0
 10 11  1  0
 11 12  2  0
 12 13  1  0
 12 14  1  0
 14 15  1  0
 14 16  2  0
 16 17  1  0
 17 18  1  0
 18 19  1  0
 18 20  1  0
 18 21  1  0
 16 22  1  0
 22 23  1  0
 22 24  2  0
 24 25  1  0
 10 26  1  0
 26 27  2  0
 26 28  1  0
 28 29  1  0
  6 30  1  0
 30 31  1  0
 30 32  2  0
 32 33  1  0
 32  2  1  0
 28  7  1  0
 24 11  1  0
M  END
>  <cnnaffinity>  (1) 
-5.39916

>  <filename>  (1) 
O=c1[nH]c(-c2cccnc2)cn1-c1ccc(OC(F)(F)F)cc1

$$$$
