
     RDKit          3D

 30 32  0  0  0  0  0  0  0  0999 V2000
    5.2881    1.7234   16.7748 H   0  0  0  0  0  0  0  0  0  0  0  0
    5.6481    1.2838   17.7025 C   0  0  0  0  0  0  0  0  0  0  0  0
    6.8277    0.6475   17.6289 N   0  0  0  0  0  0  0  0  0  0  0  0
    7.2897    0.0910   18.7522 C   0  0  0  0  0  0  0  0  0  0  0  0
    8.2649   -0.3928   18.7160 H   0  0  0  0  0  0  0  0  0  0  0  0
    6.5768    0.0875   19.9580 C   0  0  0  0  0  0  0  0  0  0  0  0
    7.1485   -0.6654   21.0929 C   0  0  0  0  0  0  0  0  0  0  0  0
    8.4284   -0.5175   21.2825 N   0  0  0  0  0  0  0  0  0  0  0  0
    9.0132   -1.1935   22.3208 N   0  0  0  0  0  0  0  0  0  0  0  0
   10.4276   -1.0360   22.3622 C   0  0  0  0  0  0  0  0  0  0  0  0
   11.2737   -2.1418   22.3441 C   0  0  0  0  0  0  0  0  0  0  0  0
   10.8470   -3.1323   22.4256 H   0  0  0  0  0  0  0  0  0  0  0  0
   12.6456   -1.9768   22.1764 C   0  0  0  0  0  0  0  0  0  0  0  0
   13.3201   -2.8204   22.1206 H   0  0  0  0  0  0  0  0  0  0  0  0
   13.1668   -0.6943   22.1151 C   0  0  0  0  0  0  0  0  0  0  0  0
   14.4854   -0.5318   21.9907 F   0  0  0  0  0  0  0  0  0  0  0  0
   12.3644    0.4394   22.1683 C   0  0  0  0  0  0  0  0  0  0  0  0
   12.7768    1.4374   22.0765 H   0  0  0  0  0  0  0  0  0  0  0  0
   10.9946    0.2460   22.2787 C   0  0  0  0  0  0  0  0  0  0  0  0
   10.2040    1.3195   22.3162 F   0  0  0  0  0  0  0  0  0  0  0  0
    8.3207   -2.0019   23.2857 C   0  0  0  0  0  0  0  0  0  0  0  0
    8.8867   -2.4806   24.2505 O   0  0  0  0  0  0  0  0  0  0  0  0
    6.9131   -2.1819   22.9514 C   0  0  0  0  0  0  0  0  0  0  0  0
    6.3657   -2.8299   23.6230 H   0  0  0  0  0  0  0  0  0  0  0  0
    6.3518   -1.5447   21.8895 C   0  0  0  0  0  0  0  0  0  0  0  0
    5.3208   -1.6925   21.5845 H   0  0  0  0  0  0  0  0  0  0  0  0
    5.3581    0.7691   20.0333 C   0  0  0  0  0  0  0  0  0  0  0  0
    4.8016    0.8319   20.9715 H   0  0  0  0  0  0  0  0  0  0  0  0
    4.8940    1.3924   18.8763 C   0  0  0  0  0  0  0  0  0  0  0  0
    3.9723    1.9625   18.8698 H   0  0  0  0  0  0  0  0  0  0  0  0
  1  2  1  0
  2  3  2  0
  3  4  1  0
  4  5  1  0
  4  6  2  0
  6  7  1  0
  7  8  2  0
  8  9  1  0
  9 10  1  0
 10 11  2  0
 11 12  1  0
 11 13  1  0
 13 14  1  0
 13 15  2  0
 15 16  1  0
 15 17  1  0
 17 18  1  0
 17 19  2  0
 19 20  1  0
  9 21  1  0
 21 22  2  0
 21 23  1  0
 23 24  1  0
 23 25  2  0
 25 26  1  0
  6 27  1  0
 27 28  1  0
 27 29  2  0
 29 30  1  0
 29  2  1  0
 25  7  1  0
 19 10  1  0
M  END
>  <cnnaffinity>  (1) 
-5.37037

>  <filename>  (1) 
O=c1ccc(-c2cccnc2)nn1-c1ccc(F)cc1F

$$$$
