
     RDKit          3D

 33 35  0  0  0  0  0  0  0  0999 V2000
    4.9665    1.7401   16.8244 H   0  0  0  0  0  0  0  0  0  0  0  0
    5.4200    1.3044   17.7153 C   0  0  0  0  0  0  0  0  0  0  0  0
    6.5818    0.6594   17.5301 N   0  0  0  0  0  0  0  0  0  0  0  0
    7.1525    0.0726   18.5889 C   0  0  0  0  0  0  0  0  0  0  0  0
    8.0792   -0.4726   18.4060 H   0  0  0  0  0  0  0  0  0  0  0  0
    6.6100    0.1281   19.8873 C   0  0  0  0  0  0  0  0  0  0  0  0
    7.2270   -0.5615   20.9897 N   0  0  0  0  0  0  0  0  0  0  0  0
    7.3108   -1.9406   20.9320 C   0  0  0  0  0  0  0  0  0  0  0  0
    6.8269   -2.4000   20.0790 H   0  0  0  0  0  0  0  0  0  0  0  0
    7.9659   -2.6879   21.8779 C   0  0  0  0  0  0  0  0  0  0  0  0
    8.0641   -4.0740   21.7128 N   0  0  0  0  0  0  0  0  0  0  0  0
    7.3149   -4.4551   21.1467 H   0  0  0  0  0  0  0  0  0  0  0  0
    8.5048   -4.9893   22.7532 C   0  0  0  0  0  0  0  0  0  0  0  0
    9.4785   -4.6691   23.1384 H   0  0  0  0  0  0  0  0  0  0  0  0
    8.6696   -5.9636   22.2652 H   0  0  0  0  0  0  0  0  0  0  0  0
    7.6046   -5.1745   23.9548 C   0  0  0  0  0  0  0  0  0  0  0  0
    5.9234   -5.5268   23.7926 S   0  0  0  0  0  0  0  0  0  0  0  0
    5.7453   -5.7397   25.4917 C   0  0  0  0  0  0  0  0  0  0  0  0
    4.7770   -6.0213   25.8867 H   0  0  0  0  0  0  0  0  0  0  0  0
    6.9094   -5.5061   26.1588 C   0  0  0  0  0  0  0  0  0  0  0  0
    7.0186   -5.5799   27.2386 H   0  0  0  0  0  0  0  0  0  0  0  0
    7.9750   -5.1711   25.2677 C   0  0  0  0  0  0  0  0  0  0  0  0
    8.9867   -4.9343   25.5915 H   0  0  0  0  0  0  0  0  0  0  0  0
    8.5590   -1.9892   22.9805 C   0  0  0  0  0  0  0  0  0  0  0  0
    9.0980   -2.5526   23.7343 H   0  0  0  0  0  0  0  0  0  0  0  0
    8.4317   -0.6363   23.0876 C   0  0  0  0  0  0  0  0  0  0  0  0
    8.8522   -0.0571   23.8950 H   0  0  0  0  0  0  0  0  0  0  0  0
    7.7011    0.1723   22.1295 C   0  0  0  0  0  0  0  0  0  0  0  0
    7.5159    1.3694   22.2712 O   0  0  0  0  0  0  0  0  0  0  0  0
    5.4262    0.8427   20.0818 C   0  0  0  0  0  0  0  0  0  0  0  0
    5.0229    0.9329   21.0886 H   0  0  0  0  0  0  0  0  0  0  0  0
    4.8053    1.4153   18.9673 C   0  0  0  0  0  0  0  0  0  0  0  0
    3.8673    1.9475   19.0578 H   0  0  0  0  0  0  0  0  0  0  0  0
  1  2  1  0
  2  3  2  0
  3  4  1  0
  4  5  1  0
  4  6  2  0
  6  7  1  0
  7  8  1  0
  8  9  1  0
  8 10  2  0
 10 11  1  0
 11 12  1  0
 11 13  1  0
 13 14  1  0
 13 15  1  0
 13 16  1  0
 16 17  1  0
 17 18  1  0
 18 19  1  0
 18 20  2  0
 20 21  1  0
 20 22  1  0
 22 23  1  0
 10 24  1  0
 24 25  1  0
 24 26  2  0
 26 27  1  0
 26 28  1  0
 28 29  2  0
  6 30  1  0
 30 31  1  0
 30 32  2  0
 32 33  1  0
 32  2  1  0
 28  7  1  0
 22 16  2  0
M  END
>  <cnnaffinity>  (1) 
-5.19948

>  <filename>  (1) 
O=c1ccc(NCc2cccs2)cn1-c1cccnc1

$$$$
