
     RDKit          3D

 33 36  0  0  0  0  0  0  0  0999 V2000
    4.9116    1.7848   16.9915 H   0  0  0  0  0  0  0  0  0  0  0  0
    5.3957    1.2986   17.8344 C   0  0  0  0  0  0  0  0  0  0  0  0
    6.5572    0.6770   17.5701 N   0  0  0  0  0  0  0  0  0  0  0  0
    7.1663    0.0564   18.5853 C   0  0  0  0  0  0  0  0  0  0  0  0
    8.1190   -0.4231   18.3789 H   0  0  0  0  0  0  0  0  0  0  0  0
    6.6394   -0.0079   19.8874 C   0  0  0  0  0  0  0  0  0  0  0  0
    7.3415   -0.6927   20.9390 N   0  0  0  0  0  0  0  0  0  0  0  0
    6.7195   -1.7388   21.5788 C   0  0  0  0  0  0  0  0  0  0  0  0
    5.7091   -1.9701   21.2334 H   0  0  0  0  0  0  0  0  0  0  0  0
    7.3404   -2.4433   22.5738 C   0  0  0  0  0  0  0  0  0  0  0  0
    6.6135   -3.5407   23.2076 C   0  0  0  0  0  0  0  0  0  0  0  0
    5.4217   -3.9341   22.9078 N   0  0  0  0  0  0  0  0  0  0  0  0
    5.1897   -4.9927   23.7768 C   0  0  0  0  0  0  0  0  0  0  0  0
    4.0736   -5.8224   23.9380 C   0  0  0  0  0  0  0  0  0  0  0  0
    3.2008   -5.6614   23.3117 H   0  0  0  0  0  0  0  0  0  0  0  0
    4.1349   -6.8234   24.9111 C   0  0  0  0  0  0  0  0  0  0  0  0
    3.2763   -7.4811   25.0561 H   0  0  0  0  0  0  0  0  0  0  0  0
    5.2909   -6.9780   25.7143 C   0  0  0  0  0  0  0  0  0  0  0  0
    5.3114   -7.7436   26.4864 H   0  0  0  0  0  0  0  0  0  0  0  0
    6.4128   -6.1501   25.5615 C   0  0  0  0  0  0  0  0  0  0  0  0
    7.3126   -6.2835   26.1575 H   0  0  0  0  0  0  0  0  0  0  0  0
    6.3242   -5.1749   24.5777 C   0  0  0  0  0  0  0  0  0  0  0  0
    7.2439   -4.2379   24.2015 O   0  0  0  0  0  0  0  0  0  0  0  0
    8.6695   -2.0773   22.9680 C   0  0  0  0  0  0  0  0  0  0  0  0
    9.1760   -2.6295   23.7638 H   0  0  0  0  0  0  0  0  0  0  0  0
    9.2885   -1.0429   22.3495 C   0  0  0  0  0  0  0  0  0  0  0  0
   10.2860   -0.7104   22.5912 H   0  0  0  0  0  0  0  0  0  0  0  0
    8.6711   -0.2636   21.2913 C   0  0  0  0  0  0  0  0  0  0  0  0
    9.2153    0.6679   20.7194 O   0  0  0  0  0  0  0  0  0  0  0  0
    5.4307    0.6420   20.1540 C   0  0  0  0  0  0  0  0  0  0  0  0
    5.0246    0.6203   21.1705 H   0  0  0  0  0  0  0  0  0  0  0  0
    4.8011    1.3193   19.1030 C   0  0  0  0  0  0  0  0  0  0  0  0
    3.8673    1.8499   19.2596 H   0  0  0  0  0  0  0  0  0  0  0  0
  1  2  1  0
  2  3  2  0
  3  4  1  0
  4  5  1  0
  4  6  2  0
  6  7  1  0
  7  8  1  0
  8  9  1  0
  8 10  2  0
 10 11  1  0
 11 12  2  0
 12 13  1  0
 13 14  2  0
 14 15  1  0
 14 16  1  0
 16 17  1  0
 16 18  2  0
 18 19  1  0
 18 20  1  0
 20 21  1  0
 20 22  2  0
 22 23  1  0
 10 24  1  0
 24 25  1  0
 24 26  2  0
 26 27  1  0
 26 28  1  0
 28 29  2  0
  6 30  1  0
 30 31  1  0
 30 32  2  0
 32 33  1  0
 32  2  1  0
 28  7  1  0
 23 11  1  0
 22 13  1  0
M  END
>  <cnnaffinity>  (1) 
-5.73479

>  <filename>  (1) 
O=c1ccc(-c2nc3ccccc3o2)cn1-c1cccnc1

$$$$
