
     RDKit          3D

 31 33  0  0  0  0  0  0  0  0999 V2000
    4.9119    1.7885   16.9889 H   0  0  0  0  0  0  0  0  0  0  0  0
    5.3936    1.2996   17.8289 C   0  0  0  0  0  0  0  0  0  0  0  0
    6.5522    0.6800   17.5576 N   0  0  0  0  0  0  0  0  0  0  0  0
    7.1578    0.0685   18.5776 C   0  0  0  0  0  0  0  0  0  0  0  0
    8.1105   -0.4134   18.3726 H   0  0  0  0  0  0  0  0  0  0  0  0
    6.6432    0.0025   19.8870 C   0  0  0  0  0  0  0  0  0  0  0  0
    7.3497   -0.7135   20.9638 C   0  0  0  0  0  0  0  0  0  0  0  0
    6.6904   -1.6484   21.7347 C   0  0  0  0  0  0  0  0  0  0  0  0
    5.6318   -1.8401   21.5421 H   0  0  0  0  0  0  0  0  0  0  0  0
    7.3442   -2.3700   22.7744 C   0  0  0  0  0  0  0  0  0  0  0  0
    6.6117   -3.3777   23.5831 C   0  0  0  0  0  0  0  0  0  0  0  0
    6.8109   -3.4598   24.9688 C   0  0  0  0  0  0  0  0  0  0  0  0
    7.4901   -2.7644   25.4496 H   0  0  0  0  0  0  0  0  0  0  0  0
    6.1265   -4.4006   25.7365 C   0  0  0  0  0  0  0  0  0  0  0  0
    6.2808   -4.4801   26.8059 H   0  0  0  0  0  0  0  0  0  0  0  0
    5.2388   -5.2697   25.1133 C   0  0  0  0  0  0  0  0  0  0  0  0
    4.5822   -6.1834   25.8363 F   0  0  0  0  0  0  0  0  0  0  0  0
    5.0256   -5.1936   23.7313 C   0  0  0  0  0  0  0  0  0  0  0  0
    4.1613   -6.0335   23.1472 F   0  0  0  0  0  0  0  0  0  0  0  0
    5.6972   -4.2511   22.9688 C   0  0  0  0  0  0  0  0  0  0  0  0
    5.5198   -4.2260   21.8984 H   0  0  0  0  0  0  0  0  0  0  0  0
    8.6660   -2.0979   23.0101 C   0  0  0  0  0  0  0  0  0  0  0  0
    9.2409   -2.6122   23.7813 H   0  0  0  0  0  0  0  0  0  0  0  0
    9.3176   -1.1693   22.2529 N   0  0  0  0  0  0  0  0  0  0  0  0
   10.2807   -0.9044   22.3750 H   0  0  0  0  0  0  0  0  0  0  0  0
    8.7703   -0.4073   21.2200 C   0  0  0  0  0  0  0  0  0  0  0  0
    9.5100    0.3930   20.6691 O   0  0  0  0  0  0  0  0  0  0  0  0
    5.4242    0.6458   20.1464 C   0  0  0  0  0  0  0  0  0  0  0  0
    5.0118    0.6329   21.1615 H   0  0  0  0  0  0  0  0  0  0  0  0
    4.7993    1.3199   19.0982 C   0  0  0  0  0  0  0  0  0  0  0  0
    3.8665    1.8513   19.2533 H   0  0  0  0  0  0  0  0  0  0  0  0
  1  2  1  0
  2  3  2  0
  3  4  1  0
  4  5  1  0
  4  6  2  0
  6  7  1  0
  7  8  2  0
  8  9  1  0
  8 10  1  0
 10 11  1  0
 11 12  2  0
 12 13  1  0
 12 14  1  0
 14 15  1  0
 14 16  2  0
 16 17  1  0
 16 18  1  0
 18 19  1  0
 18 20  2  0
 20 21  1  0
 10 22  2  0
 22 23  1  0
 22 24  1  0
 24 25  1  0
 24 26  1  0
 26 27  2  0
  6 28  1  0
 28 29  1  0
 28 30  2  0
 30 31  1  0
 30  2  1  0
 26  7  1  0
 20 11  1  0
M  END
>  <cnnaffinity>  (1) 
-5.42917

>  <filename>  (1) 
O=c1[nH]cc(-c2ccc(F)c(F)c2)cc1-c1cccnc1

$$$$
