
     RDKit          3D

 33 35  0  0  0  0  0  0  0  0999 V2000
    5.4663   -5.4328   26.9789 H   0  0  0  0  0  0  0  0  0  0  0  0
    5.9441   -4.6649   26.6507 O   0  0  0  0  0  0  0  0  0  0  0  0
    5.9193   -4.6792   25.2995 C   0  0  0  0  0  0  0  0  0  0  0  0
    5.2662   -5.6771   24.5663 C   0  0  0  0  0  0  0  0  0  0  0  0
    4.7461   -6.4921   25.0669 H   0  0  0  0  0  0  0  0  0  0  0  0
    5.3036   -5.5836   23.1698 C   0  0  0  0  0  0  0  0  0  0  0  0
    4.6983   -6.4817   22.3593 O   0  0  0  0  0  0  0  0  0  0  0  0
    4.2866   -7.1630   22.9009 H   0  0  0  0  0  0  0  0  0  0  0  0
    5.9651   -4.5374   22.5291 C   0  0  0  0  0  0  0  0  0  0  0  0
    5.9761   -4.5246   21.4477 H   0  0  0  0  0  0  0  0  0  0  0  0
    6.6207   -3.5565   23.2773 C   0  0  0  0  0  0  0  0  0  0  0  0
    7.3054   -2.4424   22.5932 C   0  0  0  0  0  0  0  0  0  0  0  0
    6.7125   -1.7368   21.5978 C   0  0  0  0  0  0  0  0  0  0  0  0
    5.7019   -1.9471   21.2537 H   0  0  0  0  0  0  0  0  0  0  0  0
    7.3420   -0.6904   20.9442 N   0  0  0  0  0  0  0  0  0  0  0  0
    6.6498    0.0041   19.8868 C   0  0  0  0  0  0  0  0  0  0  0  0
    7.1674    0.0560   18.5789 C   0  0  0  0  0  0  0  0  0  0  0  0
    8.1220   -0.4190   18.3568 H   0  0  0  0  0  0  0  0  0  0  0  0
    6.5474    0.6744   17.5680 N   0  0  0  0  0  0  0  0  0  0  0  0
    5.3888    1.2987   17.8318 C   0  0  0  0  0  0  0  0  0  0  0  0
    4.9139    1.7947   16.9884 H   0  0  0  0  0  0  0  0  0  0  0  0
    4.8021    1.3177   19.1006 C   0  0  0  0  0  0  0  0  0  0  0  0
    3.8720    1.8483   19.2548 H   0  0  0  0  0  0  0  0  0  0  0  0
    5.4377    0.6458   20.1491 C   0  0  0  0  0  0  0  0  0  0  0  0
    5.0293    0.6236   21.1602 H   0  0  0  0  0  0  0  0  0  0  0  0
    8.6494   -0.2998   21.3016 C   0  0  0  0  0  0  0  0  0  0  0  0
    9.2736    0.6002   20.7875 O   0  0  0  0  0  0  0  0  0  0  0  0
    9.2064   -1.0312   22.2869 N   0  0  0  0  0  0  0  0  0  0  0  0
   10.1385   -0.7670   22.5269 H   0  0  0  0  0  0  0  0  0  0  0  0
    8.6807   -2.0842   22.9884 C   0  0  0  0  0  0  0  0  0  0  0  0
    9.3995   -2.5953   23.8201 O   0  0  0  0  0  0  0  0  0  0  0  0
    6.5944   -3.6349   24.6706 C   0  0  0  0  0  0  0  0  0  0  0  0
    7.0983   -2.8954   25.2768 H   0  0  0  0  0  0  0  0  0  0  0  0
  1  2  1  0
  2  3  1  0
  3  4  2  0
  4  5  1  0
  4  6  1  0
  6  7  1  0
  7  8  1  0
  6  9  2  0
  9 10  1  0
  9 11  1  0
 11 12  1  0
 12 13  2  0
 13 14  1  0
 13 15  1  0
 15 16  1  0
 16 17  2  0
 17 18  1  0
 17 19  1  0
 19 20  2  0
 20 21  1  0
 20 22  1  0
 22 23  1  0
 22 24  2  0
 24 25  1  0
 15 26  1  0
 26 27  2  0
 26 28  1  0
 28 29  1  0
 28 30  1  0
 30 31  2  0
 11 32  2  0
 32 33  1  0
 32  3  1  0
 30 12  1  0
 24 16  1  0
M  END
>  <cnnaffinity>  (1) 
-5.41847

>  <filename>  (1) 
O=c1[nH]c(=O)n(-c2cccnc2)cc1-c1cc(O)cc(O)c1

$$$$
