
     RDKit          3D

 30 32  0  0  0  0  0  0  0  0999 V2000
    4.9788    1.8049   16.9721 H   0  0  0  0  0  0  0  0  0  0  0  0
    5.4485    1.3063   17.8172 C   0  0  0  0  0  0  0  0  0  0  0  0
    6.6334    0.7186   17.5712 N   0  0  0  0  0  0  0  0  0  0  0  0
    7.2377    0.1057   18.5920 C   0  0  0  0  0  0  0  0  0  0  0  0
    8.2080   -0.3476   18.4085 H   0  0  0  0  0  0  0  0  0  0  0  0
    6.6754   -0.0002   19.8759 C   0  0  0  0  0  0  0  0  0  0  0  0
    7.3738   -0.7371   20.8801 N   0  0  0  0  0  0  0  0  0  0  0  0
    8.7137   -0.4692   20.9510 N   0  0  0  0  0  0  0  0  0  0  0  0
    9.4094   -1.0019   21.9164 C   0  0  0  0  0  0  0  0  0  0  0  0
   10.8528   -0.5481   22.0204 C   0  0  0  0  0  0  0  0  0  0  0  0
   11.1638   -0.1636   21.0418 H   0  0  0  0  0  0  0  0  0  0  0  0
   11.4928   -1.4018   22.2686 H   0  0  0  0  0  0  0  0  0  0  0  0
   10.9790    0.5379   23.0660 C   0  0  0  0  0  0  0  0  0  0  0  0
   11.0974    0.1381   24.7426 S   0  0  0  0  0  0  0  0  0  0  0  0
   10.8324    1.7629   25.2189 C   0  0  0  0  0  0  0  0  0  0  0  0
   10.7274    1.9392   26.2822 H   0  0  0  0  0  0  0  0  0  0  0  0
   10.7029    2.5938   24.1432 C   0  0  0  0  0  0  0  0  0  0  0  0
   10.4806    3.6571   24.2056 H   0  0  0  0  0  0  0  0  0  0  0  0
   10.8097    1.8842   22.8971 C   0  0  0  0  0  0  0  0  0  0  0  0
   10.7262    2.3466   21.9119 H   0  0  0  0  0  0  0  0  0  0  0  0
    8.8251   -1.9177   22.8703 C   0  0  0  0  0  0  0  0  0  0  0  0
    9.4424   -2.3152   23.6765 H   0  0  0  0  0  0  0  0  0  0  0  0
    7.5184   -2.2651   22.7392 C   0  0  0  0  0  0  0  0  0  0  0  0
    6.9984   -2.9590   23.3906 H   0  0  0  0  0  0  0  0  0  0  0  0
    6.6931   -1.7476   21.6492 C   0  0  0  0  0  0  0  0  0  0  0  0
    5.5665   -2.1263   21.3880 O   0  0  0  0  0  0  0  0  0  0  0  0
    5.4483    0.6210   20.1326 C   0  0  0  0  0  0  0  0  0  0  0  0
    4.9996    0.5788   21.1252 H   0  0  0  0  0  0  0  0  0  0  0  0
    4.8327    1.2981   19.0735 C   0  0  0  0  0  0  0  0  0  0  0  0
    3.8928    1.8240   19.2098 H   0  0  0  0  0  0  0  0  0  0  0  0
  1  2  1  0
  2  3  2  0
  3  4  1  0
  4  5  1  0
  4  6  2  0
  6  7  1  0
  7  8  1  0
  8  9  2  0
  9 10  1  0
 10 11  1  0
 10 12  1  0
 10 13  1  0
 13 14  1  0
 14 15  1  0
 15 16  1  0
 15 17  2  0
 17 18  1  0
 17 19  1  0
 19 20  1  0
  9 21  1  0
 21 22  1  0
 21 23  2  0
 23 24  1  0
 23 25  1  0
 25 26  2  0
  6 27  1  0
 27 28  1  0
 27 29  2  0
 29 30  1  0
 29  2  1  0
 25  7  1  0
 19 13  2  0
M  END
>  <cnnaffinity>  (1) 
-5.22922

>  <filename>  (1) 
O=c1ccc(Cc2cccs2)nn1-c1cccnc1

$$$$
