
     RDKit          3D

 32 34  0  0  0  0  0  0  0  0999 V2000
    4.9408    1.7928   17.0214 H   0  0  0  0  0  0  0  0  0  0  0  0
    5.4300    1.2886   17.8488 C   0  0  0  0  0  0  0  0  0  0  0  0
    6.5967    0.6859   17.5702 N   0  0  0  0  0  0  0  0  0  0  0  0
    7.2252    0.0631   18.5761 C   0  0  0  0  0  0  0  0  0  0  0  0
    8.1633   -0.4351   18.3345 H   0  0  0  0  0  0  0  0  0  0  0  0
    6.7185   -0.0216   19.8918 C   0  0  0  0  0  0  0  0  0  0  0  0
    7.4014   -0.7485   20.9133 N   0  0  0  0  0  0  0  0  0  0  0  0
    6.7575   -1.6564   21.7555 C   0  0  0  0  0  0  0  0  0  0  0  0
    5.6473   -2.1084   21.5894 O   0  0  0  0  0  0  0  0  0  0  0  0
    7.7408   -2.0319   22.8495 C   0  0  0  0  0  0  0  0  0  0  0  0
    7.6178   -3.0969   23.0655 H   0  0  0  0  0  0  0  0  0  0  0  0
    7.4844   -1.4671   23.7493 H   0  0  0  0  0  0  0  0  0  0  0  0
    9.1150   -1.6468   22.2828 C   0  0  0  0  0  0  0  0  0  0  0  0
    9.8133   -1.2438   23.0234 H   0  0  0  0  0  0  0  0  0  0  0  0
    9.6135   -2.5256   21.8700 H   0  0  0  0  0  0  0  0  0  0  0  0
    8.8476   -0.6341   21.1489 C   0  0  2  0  0  0  0  0  0  0  0  0
    9.3930   -0.9370   20.2459 H   0  0  0  0  0  0  0  0  0  0  0  0
    9.3222    0.8139   21.4316 C   0  0  0  0  0  0  0  0  0  0  0  0
    9.1961    1.3765   20.4995 H   0  0  0  0  0  0  0  0  0  0  0  0
   10.4010    0.7832   21.6429 H   0  0  0  0  0  0  0  0  0  0  0  0
    8.5881    1.5450   22.5176 C   0  0  0  0  0  0  0  0  0  0  0  0
    8.9597    1.3614   24.1945 S   0  0  0  0  0  0  0  0  0  0  0  0
    7.6634    2.3879   24.6657 C   0  0  0  0  0  0  0  0  0  0  0  0
    7.4874    2.5717   25.7177 H   0  0  0  0  0  0  0  0  0  0  0  0
    6.9874    2.8735   23.5830 C   0  0  0  0  0  0  0  0  0  0  0  0
    6.1408    3.5496   23.6559 H   0  0  0  0  0  0  0  0  0  0  0  0
    7.5276    2.3856   22.3512 C   0  0  0  0  0  0  0  0  0  0  0  0
    7.1447    2.6125   21.3581 H   0  0  0  0  0  0  0  0  0  0  0  0
    5.4970    0.6191   20.1623 C   0  0  0  0  0  0  0  0  0  0  0  0
    5.0682    0.5786   21.1656 H   0  0  0  0  0  0  0  0  0  0  0  0
    4.8426    1.2891   19.1205 C   0  0  0  0  0  0  0  0  0  0  0  0
    3.8981    1.8078   19.2829 H   0  0  0  0  0  0  0  0  0  0  0  0
  1  2  1  0
  2  3  2  0
  3  4  1  0
  4  5  1  0
  4  6  2  0
  6  7  1  0
  7  8  1  0
  8  9  2  0
  8 10  1  0
 10 11  1  0
 10 12  1  0
 10 13  1  0
 13 14  1  0
 13 15  1  0
 13 16  1  0
 16 17  1  6
 16 18  1  0
 18 19  1  0
 18 20  1  0
 18 21  1  0
 21 22  1  0
 22 23  1  0
 23 24  1  0
 23 25  2  0
 25 26  1  0
 25 27  1  0
 27 28  1  0
  6 29  1  0
 29 30  1  0
 29 31  2  0
 31 32  1  0
 31  2  1  0
 16  7  1  0
 27 21  2  0
M  END
>  <cnnaffinity>  (1) 
-5.00143

>  <filename>  (1) 
O=C1CC[C@H](Cc2cccs2)N1c1cccnc1

$$$$
