
     RDKit          3D

 33 35  0  0  0  0  0  0  0  0999 V2000
    4.9533    1.8004   16.9582 H   0  0  0  0  0  0  0  0  0  0  0  0
    5.4449    1.3235   17.8041 C   0  0  0  0  0  0  0  0  0  0  0  0
    6.6303    0.7496   17.5428 N   0  0  0  0  0  0  0  0  0  0  0  0
    7.2394    0.1251   18.5544 C   0  0  0  0  0  0  0  0  0  0  0  0
    8.2213   -0.2978   18.3485 H   0  0  0  0  0  0  0  0  0  0  0  0
    6.6851   -0.0190   19.8430 C   0  0  0  0  0  0  0  0  0  0  0  0
    7.4407   -0.7848   20.8561 C   0  0  0  0  0  0  0  0  0  0  0  0
    8.7394   -0.5517   20.9393 N   0  0  0  0  0  0  0  0  0  0  0  0
    9.4558   -1.0749   21.9948 C   0  0  0  0  0  0  0  0  0  0  0  0
   10.9441   -0.8339   22.0554 C   0  0  0  0  0  0  0  0  0  0  0  0
   11.7937   -1.9575   22.0632 C   0  0  0  0  0  0  0  0  0  0  0  0
   11.3660   -2.9541   22.1196 H   0  0  0  0  0  0  0  0  0  0  0  0
   13.1816   -1.8136   22.0275 C   0  0  0  0  0  0  0  0  0  0  0  0
   13.8207   -2.6938   21.9572 H   0  0  0  0  0  0  0  0  0  0  0  0
   13.7460   -0.5444   22.1431 C   0  0  0  0  0  0  0  0  0  0  0  0
   14.8209   -0.4240   22.2065 H   0  0  0  0  0  0  0  0  0  0  0  0
   12.9254    0.5774   22.2188 C   0  0  0  0  0  0  0  0  0  0  0  0
   13.3864    1.5587   22.3292 H   0  0  0  0  0  0  0  0  0  0  0  0
   11.5309    0.4498   22.1238 C   0  0  0  0  0  0  0  0  0  0  0  0
   10.6668    1.6966   22.0841 C   0  0  0  0  0  0  0  0  0  0  0  0
   11.3453    2.8011   22.4494 F   0  0  0  0  0  0  0  0  0  0  0  0
    9.6031    1.5893   22.9037 F   0  0  0  0  0  0  0  0  0  0  0  0
   10.1859    1.9305   20.8543 F   0  0  0  0  0  0  0  0  0  0  0  0
    8.8633   -1.8550   22.9570 C   0  0  0  0  0  0  0  0  0  0  0  0
    9.4125   -2.2738   23.7946 H   0  0  0  0  0  0  0  0  0  0  0  0
    7.5267   -2.1694   22.8452 N   0  0  0  0  0  0  0  0  0  0  0  0
    7.0386   -2.8273   23.4452 H   0  0  0  0  0  0  0  0  0  0  0  0
    6.7424   -1.8112   21.7458 C   0  0  0  0  0  0  0  0  0  0  0  0
    5.6619   -2.3557   21.6115 O   0  0  0  0  0  0  0  0  0  0  0  0
    5.4560    0.6149   20.1091 C   0  0  0  0  0  0  0  0  0  0  0  0
    5.0183    0.6161   21.1117 H   0  0  0  0  0  0  0  0  0  0  0  0
    4.8361    1.3009   19.0629 C   0  0  0  0  0  0  0  0  0  0  0  0
    3.9009    1.8281   19.2037 H   0  0  0  0  0  0  0  0  0  0  0  0
  1  2  1  0
  2  3  2  0
  3  4  1  0
  4  5  1  0
  4  6  2  0
  6  7  1  0
  7  8  2  0
  8  9  1  0
  9 10  1  0
 10 11  2  0
 11 12  1  0
 11 13  1  0
 13 14  1  0
 13 15  2  0
 15 16  1  0
 15 17  1  0
 17 18  1  0
 17 19  2  0
 19 20  1  0
 20 21  1  0
 20 22  1  0
 20 23  1  0
  9 24  2  0
 24 25  1  0
 24 26  1  0
 26 27  1  0
 26 28  1  0
 28 29  2  0
  6 30  1  0
 30 31  1  0
 30 32  2  0
 32 33  1  0
 32  2  1  0
 28  7  1  0
 19 10  1  0
M  END
>  <cnnaffinity>  (1) 
-6.0549

>  <filename>  (1) 
O=c1[nH]cc(-c2ccccc2C(F)(F)F)nc1-c1cccnc1

$$$$
