
     RDKit          3D

 29 31  0  0  0  0  0  0  0  0999 V2000
    5.0106    1.7496   16.9705 H   0  0  0  0  0  0  0  0  0  0  0  0
    5.4848    1.2726   17.8268 C   0  0  0  0  0  0  0  0  0  0  0  0
    6.6638    0.6631   17.6043 N   0  0  0  0  0  0  0  0  0  0  0  0
    7.2652    0.0698   18.6451 C   0  0  0  0  0  0  0  0  0  0  0  0
    8.2237   -0.4115   18.4657 H   0  0  0  0  0  0  0  0  0  0  0  0
    6.7117    0.0272   19.9355 C   0  0  0  0  0  0  0  0  0  0  0  0
    7.3849   -0.6691   20.9810 N   0  0  0  0  0  0  0  0  0  0  0  0
    8.7466   -0.5192   21.0238 N   0  0  0  0  0  0  0  0  0  0  0  0
    9.4159   -1.1652   21.9454 C   0  0  0  0  0  0  0  0  0  0  0  0
   10.8902   -0.9258   21.9469 C   0  0  0  0  0  0  0  0  0  0  0  0
   11.3688    0.3967   21.9252 C   0  0  0  0  0  0  0  0  0  0  0  0
   10.6574    1.2179   21.8750 H   0  0  0  0  0  0  0  0  0  0  0  0
   12.6689    0.7022   22.0454 N   0  0  0  0  0  0  0  0  0  0  0  0
   13.5519   -0.3038   22.0964 C   0  0  0  0  0  0  0  0  0  0  0  0
   14.6116   -0.0690   22.2122 H   0  0  0  0  0  0  0  0  0  0  0  0
   13.1630   -1.6432   21.9990 C   0  0  0  0  0  0  0  0  0  0  0  0
   14.1054   -2.5851   21.8864 F   0  0  0  0  0  0  0  0  0  0  0  0
   11.8156   -1.9811   21.9981 C   0  0  0  0  0  0  0  0  0  0  0  0
   11.5008   -3.0169   22.1050 H   0  0  0  0  0  0  0  0  0  0  0  0
    8.7707   -2.1001   22.9517 C   0  0  0  0  0  0  0  0  0  0  0  0
    9.3734   -2.7413   23.8024 O   0  0  0  0  0  0  0  0  0  0  0  0
    7.3216   -2.1583   22.8331 C   0  0  0  0  0  0  0  0  0  0  0  0
    6.7886   -2.7711   23.5460 H   0  0  0  0  0  0  0  0  0  0  0  0
    6.6993   -1.4694   21.8688 C   0  0  0  0  0  0  0  0  0  0  0  0
    5.6195   -1.5288   21.7286 H   0  0  0  0  0  0  0  0  0  0  0  0
    5.4921    0.6778   20.1623 C   0  0  0  0  0  0  0  0  0  0  0  0
    5.0708    0.7082   21.1668 H   0  0  0  0  0  0  0  0  0  0  0  0
    4.8688    1.3084   19.0823 C   0  0  0  0  0  0  0  0  0  0  0  0
    3.9175    1.8151   19.2078 H   0  0  0  0  0  0  0  0  0  0  0  0
  1  2  1  0
  2  3  2  0
  3  4  1  0
  4  5  1  0
  4  6  2  0
  6  7  1  0
  7  8  1  0
  8  9  2  0
  9 10  1  0
 10 11  2  0
 11 12  1  0
 11 13  1  0
 13 14  2  0
 14 15  1  0
 14 16  1  0
 16 17  1  0
 16 18  2  0
 18 19  1  0
  9 20  1  0
 20 21  2  0
 20 22  1  0
 22 23  1  0
 22 24  2  0
 24 25  1  0
  6 26  1  0
 26 27  1  0
 26 28  2  0
 28 29  1  0
 28  2  1  0
 24  7  1  0
 18 10  1  0
M  END
>  <cnnaffinity>  (1) 
-5.76702

>  <filename>  (1) 
O=c1ccn(-c2cccnc2)nc1-c1cncc(F)c1

$$$$
