
     RDKit          3D

 34 37  0  0  0  0  0  0  0  0999 V2000
    4.9026    1.7853   16.9411 H   0  0  0  0  0  0  0  0  0  0  0  0
    5.3646    1.3394   17.8216 C   0  0  0  0  0  0  0  0  0  0  0  0
    6.5475    0.7331   17.6306 N   0  0  0  0  0  0  0  0  0  0  0  0
    7.1279    0.1817   18.6985 C   0  0  0  0  0  0  0  0  0  0  0  0
    8.0828   -0.2986   18.5009 H   0  0  0  0  0  0  0  0  0  0  0  0
    6.5991    0.2063   20.0014 C   0  0  0  0  0  0  0  0  0  0  0  0
    7.3658   -0.4763   21.0622 C   0  0  0  0  0  0  0  0  0  0  0  0
    7.1039   -0.0634   22.3437 O   0  0  0  0  0  0  0  0  0  0  0  0
    7.7533   -0.6744   23.4009 C   0  0  0  0  0  0  0  0  0  0  0  0
    7.5333   -0.0844   24.7045 C   0  0  0  0  0  0  0  0  0  0  0  0
    7.9049   -0.6196   25.9172 C   0  0  0  0  0  0  0  0  0  0  0  0
    8.4023   -1.5553   26.1509 H   0  0  0  0  0  0  0  0  0  0  0  0
    7.5232    0.2233   26.9246 N   0  0  0  0  0  0  0  0  0  0  0  0
    7.7188    0.1033   27.9043 H   0  0  0  0  0  0  0  0  0  0  0  0
    6.9050    1.3290   26.3960 C   0  0  0  0  0  0  0  0  0  0  0  0
    6.3509    2.4579   27.0250 C   0  0  0  0  0  0  0  0  0  0  0  0
    6.3600    2.5618   28.1063 H   0  0  0  0  0  0  0  0  0  0  0  0
    5.7905    3.4368   26.2110 C   0  0  0  0  0  0  0  0  0  0  0  0
    5.3484    4.3227   26.6570 H   0  0  0  0  0  0  0  0  0  0  0  0
    5.7895    3.3035   24.8005 C   0  0  0  0  0  0  0  0  0  0  0  0
    5.3563    4.0824   24.1838 H   0  0  0  0  0  0  0  0  0  0  0  0
    6.3405    2.1890   24.1891 C   0  0  0  0  0  0  0  0  0  0  0  0
    6.3656    2.0841   23.1137 H   0  0  0  0  0  0  0  0  0  0  0  0
    6.8934    1.1774   24.9934 C   0  0  0  0  0  0  0  0  0  0  0  0
    8.5026   -1.7788   23.2149 C   0  0  0  0  0  0  0  0  0  0  0  0
    9.0086   -2.2769   24.0245 H   0  0  0  0  0  0  0  0  0  0  0  0
    8.6227   -2.3621   21.8948 C   0  0  0  0  0  0  0  0  0  0  0  0
    8.9985   -3.5054   21.7036 O   0  0  0  0  0  0  0  0  0  0  0  0
    8.1999   -1.4940   20.8151 C   0  0  0  0  0  0  0  0  0  0  0  0
    8.5065   -1.7824   19.8293 H   0  0  0  0  0  0  0  0  0  0  0  0
    5.3460    0.8195   20.1756 C   0  0  0  0  0  0  0  0  0  0  0  0
    4.8725    0.8409   21.1586 H   0  0  0  0  0  0  0  0  0  0  0  0
    4.7239    1.3916   19.0650 C   0  0  0  0  0  0  0  0  0  0  0  0
    3.7589    1.8832   19.1462 H   0  0  0  0  0  0  0  0  0  0  0  0
  1  2  1  0
  2  3  2  0
  3  4  1  0
  4  5  1  0
  4  6  2  0
  6  7  1  0
  7  8  1  0
  8  9  1  0
  9 10  1  0
 10 11  2  0
 11 12  1  0
 11 13  1  0
 13 14  1  0
 13 15  1  0
 15 16  2  0
 16 17  1  0
 16 18  1  0
 18 19  1  0
 18 20  2  0
 20 21  1  0
 20 22  1  0
 22 23  1  0
 22 24  2  0
  9 25  2  0
 25 26  1  0
 25 27  1  0
 27 28  2  0
 27 29  1  0
 29 30  1  0
  6 31  1  0
 31 32  1  0
 31 33  2  0
 33 34  1  0
 33  2  1  0
 29  7  2  0
 24 10  1  0
 24 15  1  0
M  END
>  <cnnaffinity>  (1) 
-5.38657

>  <filename>  (1) 
O=c1cc(-c2cccnc2)oc(-c2c[nH]c3ccccc23)c1

$$$$
