
     RDKit          3D

 33 36  0  0  0  0  0  0  0  0999 V2000
    4.9321    1.8134   16.9604 H   0  0  0  0  0  0  0  0  0  0  0  0
    5.4049    1.3104   17.7980 C   0  0  0  0  0  0  0  0  0  0  0  0
    6.5642    0.6888   17.5342 N   0  0  0  0  0  0  0  0  0  0  0  0
    7.1798    0.0760   18.5517 C   0  0  0  0  0  0  0  0  0  0  0  0
    8.1125   -0.4265   18.3025 H   0  0  0  0  0  0  0  0  0  0  0  0
    6.6831    0.0354   19.8659 C   0  0  0  0  0  0  0  0  0  0  0  0
    7.3791   -0.6851   20.9369 C   0  0  0  0  0  0  0  0  0  0  0  0
    6.8432   -1.2132   22.0502 C   0  0  0  0  0  0  0  0  0  0  0  0
    5.8272   -1.2804   22.3780 H   0  0  0  0  0  0  0  0  0  0  0  0
    7.8373   -1.8002   22.8119 N   0  0  0  0  0  0  0  0  0  0  0  0
    7.5974   -2.4236   24.0337 C   0  0  0  0  0  0  0  0  0  0  0  0
    6.4004   -2.7967   24.5780 C   0  0  0  0  0  0  0  0  0  0  0  0
    5.4272   -2.6977   24.1266 H   0  0  0  0  0  0  0  0  0  0  0  0
    6.6899   -3.4017   25.8360 C   0  0  0  0  0  0  0  0  0  0  0  0
    5.8893   -4.0032   26.8289 C   0  0  0  0  0  0  0  0  0  0  0  0
    4.8105   -4.0005   26.7175 H   0  0  0  0  0  0  0  0  0  0  0  0
    6.4988   -4.6295   27.9072 C   0  0  0  0  0  0  0  0  0  0  0  0
    5.8877   -5.0647   28.6983 H   0  0  0  0  0  0  0  0  0  0  0  0
    7.9123   -4.6727   27.9908 C   0  0  0  0  0  0  0  0  0  0  0  0
    8.3664   -5.2851   28.7597 H   0  0  0  0  0  0  0  0  0  0  0  0
    8.7284   -4.0052   27.0776 C   0  0  0  0  0  0  0  0  0  0  0  0
    9.8052   -3.9515   27.2153 H   0  0  0  0  0  0  0  0  0  0  0  0
    8.1050   -3.3773   25.9896 C   0  0  0  0  0  0  0  0  0  0  0  0
    8.6218   -2.7388   24.8787 N   0  0  0  0  0  0  0  0  0  0  0  0
    9.5795   -2.6174   24.5896 H   0  0  0  0  0  0  0  0  0  0  0  0
    9.0625   -1.6439   22.1643 C   0  0  0  0  0  0  0  0  0  0  0  0
   10.1695   -1.9791   22.5450 O   0  0  0  0  0  0  0  0  0  0  0  0
    8.7434   -1.0037   20.9902 N   0  0  0  0  0  0  0  0  0  0  0  0
    9.5124   -0.6979   20.4231 H   0  0  0  0  0  0  0  0  0  0  0  0
    5.4498    0.6785   20.1124 C   0  0  0  0  0  0  0  0  0  0  0  0
    5.0124    0.6826   21.1131 H   0  0  0  0  0  0  0  0  0  0  0  0
    4.8060    1.3274   19.0618 C   0  0  0  0  0  0  0  0  0  0  0  0
    3.8663    1.8499   19.2078 H   0  0  0  0  0  0  0  0  0  0  0  0
  1  2  1  0
  2  3  2  0
  3  4  1  0
  4  5  1  0
  4  6  2  0
  6  7  1  0
  7  8  2  0
  8  9  1  0
  8 10  1  0
 10 11  1  0
 11 12  2  0
 12 13  1  0
 12 14  1  0
 14 15  2  0
 15 16  1  0
 15 17  1  0
 17 18  1  0
 17 19  2  0
 19 20  1  0
 19 21  1  0
 21 22  1  0
 21 23  2  0
 23 24  1  0
 24 25  1  0
 10 26  1  0
 26 27  2  0
 26 28  1  0
 28 29  1  0
  6 30  1  0
 30 31  1  0
 30 32  2  0
 32 33  1  0
 32  2  1  0
 28  7  1  0
 24 11  1  0
 23 14  1  0
M  END
>  <cnnaffinity>  (1) 
-5.18888

>  <filename>  (1) 
O=c1[nH]c(-c2cccnc2)cn1-c1cc2ccccc2[nH]1

$$$$
