
     RDKit          3D

 30 32  0  0  0  0  0  0  0  0999 V2000
    4.9848    1.8176   16.9464 H   0  0  0  0  0  0  0  0  0  0  0  0
    5.4666    1.3253   17.7933 C   0  0  0  0  0  0  0  0  0  0  0  0
    6.6611    0.7618   17.5552 N   0  0  0  0  0  0  0  0  0  0  0  0
    7.2618    0.1362   18.5739 C   0  0  0  0  0  0  0  0  0  0  0  0
    8.2411   -0.2879   18.3675 H   0  0  0  0  0  0  0  0  0  0  0  0
    6.6869   -0.0199   19.8487 C   0  0  0  0  0  0  0  0  0  0  0  0
    7.4138   -0.8417   20.8672 C   0  0  0  0  0  0  0  0  0  0  0  0
    8.6946   -0.5841   20.9472 N   0  0  0  0  0  0  0  0  0  0  0  0
    9.4405   -1.2073   21.9122 N   0  0  0  0  0  0  0  0  0  0  0  0
   10.8334   -0.8559   21.9564 C   0  0  0  0  0  0  0  0  0  0  0  0
   11.8257   -1.8416   22.0376 C   0  0  0  0  0  0  0  0  0  0  0  0
   11.5242   -2.8821   22.0905 H   0  0  0  0  0  0  0  0  0  0  0  0
   13.1727   -1.4661   22.1142 C   0  0  0  0  0  0  0  0  0  0  0  0
   13.9497   -2.2290   22.1316 H   0  0  0  0  0  0  0  0  0  0  0  0
   13.5256   -0.1128   22.1855 C   0  0  0  0  0  0  0  0  0  0  0  0
   14.5565    0.2118   22.2642 H   0  0  0  0  0  0  0  0  0  0  0  0
   12.5154    0.8462   22.1211 C   0  0  0  0  0  0  0  0  0  0  0  0
   12.8368    2.1460   22.2233 F   0  0  0  0  0  0  0  0  0  0  0  0
   11.1800    0.4996   21.9542 C   0  0  0  0  0  0  0  0  0  0  0  0
   10.4205    1.2596   21.8355 H   0  0  0  0  0  0  0  0  0  0  0  0
    8.8543   -1.9734   22.8970 C   0  0  0  0  0  0  0  0  0  0  0  0
    9.5154   -2.2959   23.7032 H   0  0  0  0  0  0  0  0  0  0  0  0
    7.5450   -2.2890   22.8738 C   0  0  0  0  0  0  0  0  0  0  0  0
    7.0654   -2.8798   23.6405 H   0  0  0  0  0  0  0  0  0  0  0  0
    6.7204   -1.8768   21.7460 C   0  0  0  0  0  0  0  0  0  0  0  0
    5.6029   -2.3343   21.5436 O   0  0  0  0  0  0  0  0  0  0  0  0
    5.4687    0.6300   20.0994 C   0  0  0  0  0  0  0  0  0  0  0  0
    5.0214    0.6102   21.0942 H   0  0  0  0  0  0  0  0  0  0  0  0
    4.8483    1.3072   19.0469 C   0  0  0  0  0  0  0  0  0  0  0  0
    3.9106    1.8328   19.1852 H   0  0  0  0  0  0  0  0  0  0  0  0
  1  2  1  0
  2  3  2  0
  3  4  1  0
  4  5  1  0
  4  6  2  0
  6  7  1  0
  7  8  2  0
  8  9  1  0
  9 10  1  0
 10 11  2  0
 11 12  1  0
 11 13  1  0
 13 14  1  0
 13 15  2  0
 15 16  1  0
 15 17  1  0
 17 18  1  0
 17 19  2  0
 19 20  1  0
  9 21  1  0
 21 22  1  0
 21 23  2  0
 23 24  1  0
 23 25  1  0
 25 26  2  0
  6 27  1  0
 27 28  1  0
 27 29  2  0
 29 30  1  0
 29  2  1  0
 25  7  1  0
 19 10  1  0
M  END
>  <cnnaffinity>  (1) 
-5.50008

>  <filename>  (1) 
O=c1ccn(-c2cccc(F)c2)nc1-c1cccnc1

$$$$
