
     RDKit          3D

 34 37  0  0  0  0  0  0  0  0999 V2000
    4.9262    1.7824   16.9935 H   0  0  0  0  0  0  0  0  0  0  0  0
    5.4008    1.2930   17.8401 C   0  0  0  0  0  0  0  0  0  0  0  0
    6.5584    0.6677   17.5857 N   0  0  0  0  0  0  0  0  0  0  0  0
    7.1537    0.0455   18.6058 C   0  0  0  0  0  0  0  0  0  0  0  0
    8.1141   -0.4153   18.3849 H   0  0  0  0  0  0  0  0  0  0  0  0
    6.6210   -0.0140   19.9042 C   0  0  0  0  0  0  0  0  0  0  0  0
    7.3146   -0.7340   20.9826 C   0  0  0  0  0  0  0  0  0  0  0  0
    6.5870   -1.5039   21.7640 N   0  0  0  0  0  0  0  0  0  0  0  0
    7.1824   -2.1972   22.8023 C   0  0  0  0  0  0  0  0  0  0  0  0
    6.2923   -3.0436   23.6596 C   0  0  0  0  0  0  0  0  0  0  0  0
    5.0790   -3.5831   23.1231 C   0  0  0  0  0  0  0  0  0  0  0  0
    4.8247   -3.3347   22.0947 H   0  0  0  0  0  0  0  0  0  0  0  0
    4.2304   -4.3754   23.8835 C   0  0  0  0  0  0  0  0  0  0  0  0
    3.3013   -4.7726   23.4751 H   0  0  0  0  0  0  0  0  0  0  0  0
    4.6085   -4.6330   25.2139 C   0  0  0  0  0  0  0  0  0  0  0  0
    5.7995   -4.1161   25.7780 C   0  0  0  0  0  0  0  0  0  0  0  0
    6.6366   -3.3170   24.9876 C   0  0  0  0  0  0  0  0  0  0  0  0
    7.5327   -2.9082   25.4468 H   0  0  0  0  0  0  0  0  0  0  0  0
    5.8560   -4.5773   27.1357 C   0  0  0  0  0  0  0  0  0  0  0  0
    6.6462   -4.3564   27.8413 H   0  0  0  0  0  0  0  0  0  0  0  0
    4.7428   -5.3285   27.3555 C   0  0  0  0  0  0  0  0  0  0  0  0
    4.4116   -5.8515   28.2510 H   0  0  0  0  0  0  0  0  0  0  0  0
    3.9876   -5.3637   26.1956 N   0  0  0  0  0  0  0  0  0  0  0  0
    3.1149   -5.8364   26.0636 H   0  0  0  0  0  0  0  0  0  0  0  0
    8.5370   -2.1206   23.0228 C   0  0  0  0  0  0  0  0  0  0  0  0
    9.0464   -2.6820   23.7983 H   0  0  0  0  0  0  0  0  0  0  0  0
    9.3098   -1.3216   22.2131 N   0  0  0  0  0  0  0  0  0  0  0  0
   10.3096   -1.1727   22.3078 H   0  0  0  0  0  0  0  0  0  0  0  0
    8.8067   -0.5533   21.1694 C   0  0  0  0  0  0  0  0  0  0  0  0
    9.5973    0.1431   20.5543 O   0  0  0  0  0  0  0  0  0  0  0  0
    5.4116    0.6482   20.1571 C   0  0  0  0  0  0  0  0  0  0  0  0
    4.9825    0.6331   21.1632 H   0  0  0  0  0  0  0  0  0  0  0  0
    4.8002    1.3208   19.1041 C   0  0  0  0  0  0  0  0  0  0  0  0
    3.8689    1.8531   19.2507 H   0  0  0  0  0  0  0  0  0  0  0  0
  1  2  1  0
  2  3  2  0
  3  4  1  0
  4  5  1  0
  4  6  2  0
  6  7  1  0
  7  8  2  0
  8  9  1  0
  9 10  1  0
 10 11  2  0
 11 12  1  0
 11 13  1  0
 13 14  1  0
 13 15  2  0
 15 16  1  0
 16 17  2  0
 17 18  1  0
 16 19  1  0
 19 20  1  0
 19 21  2  0
 21 22  1  0
 21 23  1  0
 23 24  1  0
  9 25  2  0
 25 26  1  0
 25 27  1  0
 27 28  1  0
 27 29  1  0
 29 30  2  0
  6 31  1  0
 31 32  1  0
 31 33  2  0
 33 34  1  0
 33  2  1  0
 29  7  1  0
 17 10  1  0
 23 15  1  0
M  END
>  <cnnaffinity>  (1) 
-5.37626

>  <filename>  (1) 
O=c1[nH]cc(-c2ccc3[nH]ccc3c2)nc1-c1cccnc1

$$$$
