
     RDKit          3D

 34 37  0  0  0  0  0  0  0  0999 V2000
    4.9385    1.7986   16.9838 H   0  0  0  0  0  0  0  0  0  0  0  0
    5.3927    1.2945   17.8331 C   0  0  0  0  0  0  0  0  0  0  0  0
    6.5444    0.6619   17.5776 N   0  0  0  0  0  0  0  0  0  0  0  0
    7.1444    0.0444   18.5988 C   0  0  0  0  0  0  0  0  0  0  0  0
    8.1086   -0.4173   18.3899 H   0  0  0  0  0  0  0  0  0  0  0  0
    6.6234    0.0029   19.8998 C   0  0  0  0  0  0  0  0  0  0  0  0
    7.3381   -0.7220   20.9586 C   0  0  0  0  0  0  0  0  0  0  0  0
    6.6060   -1.5089   21.7141 N   0  0  0  0  0  0  0  0  0  0  0  0
    7.1823   -2.2097   22.7516 C   0  0  0  0  0  0  0  0  0  0  0  0
    6.2832   -3.0437   23.5671 C   0  0  0  0  0  0  0  0  0  0  0  0
    5.1842   -3.7428   23.1399 C   0  0  0  0  0  0  0  0  0  0  0  0
    4.7572   -3.7585   22.1437 H   0  0  0  0  0  0  0  0  0  0  0  0
    4.6368   -4.4465   24.1889 N   0  0  0  0  0  0  0  0  0  0  0  0
    3.8101   -5.0227   24.1567 H   0  0  0  0  0  0  0  0  0  0  0  0
    5.3559   -4.1895   25.3356 C   0  0  0  0  0  0  0  0  0  0  0  0
    5.1793   -4.6427   26.6585 C   0  0  0  0  0  0  0  0  0  0  0  0
    4.3706   -5.3210   26.9149 H   0  0  0  0  0  0  0  0  0  0  0  0
    6.0875   -4.2117   27.6236 C   0  0  0  0  0  0  0  0  0  0  0  0
    5.9627   -4.5333   28.6550 H   0  0  0  0  0  0  0  0  0  0  0  0
    7.1556   -3.3493   27.2700 C   0  0  0  0  0  0  0  0  0  0  0  0
    7.9329   -3.0502   27.9625 H   0  0  0  0  0  0  0  0  0  0  0  0
    7.2902   -2.8650   25.9841 C   0  0  0  0  0  0  0  0  0  0  0  0
    8.0654   -2.1375   25.7709 H   0  0  0  0  0  0  0  0  0  0  0  0
    6.4019   -3.3058   24.9833 C   0  0  0  0  0  0  0  0  0  0  0  0
    8.5363   -2.1422   22.9982 C   0  0  0  0  0  0  0  0  0  0  0  0
    9.0243   -2.7064   23.7840 H   0  0  0  0  0  0  0  0  0  0  0  0
    9.3112   -1.3305   22.2096 N   0  0  0  0  0  0  0  0  0  0  0  0
   10.3070   -1.1676   22.2911 H   0  0  0  0  0  0  0  0  0  0  0  0
    8.8298   -0.5545   21.1666 C   0  0  0  0  0  0  0  0  0  0  0  0
    9.6453    0.1365   20.5773 O   0  0  0  0  0  0  0  0  0  0  0  0
    5.4001    0.6475   20.1478 C   0  0  0  0  0  0  0  0  0  0  0  0
    4.9583    0.6388   21.1474 H   0  0  0  0  0  0  0  0  0  0  0  0
    4.7858    1.3205   19.0949 C   0  0  0  0  0  0  0  0  0  0  0  0
    3.8603    1.8675   19.2326 H   0  0  0  0  0  0  0  0  0  0  0  0
  1  2  1  0
  2  3  2  0
  3  4  1  0
  4  5  1  0
  4  6  2  0
  6  7  1  0
  7  8  2  0
  8  9  1  0
  9 10  1  0
 10 11  2  0
 11 12  1  0
 11 13  1  0
 13 14  1  0
 13 15  1  0
 15 16  2  0
 16 17  1  0
 16 18  1  0
 18 19  1  0
 18 20  2  0
 20 21  1  0
 20 22  1  0
 22 23  1  0
 22 24  2  0
  9 25  2  0
 25 26  1  0
 25 27  1  0
 27 28  1  0
 27 29  1  0
 29 30  2  0
  6 31  1  0
 31 32  1  0
 31 33  2  0
 33 34  1  0
 33  2  1  0
 29  7  1  0
 24 10  1  0
 24 15  1  0
M  END
>  <cnnaffinity>  (1) 
-5.45442

>  <filename>  (1) 
O=c1[nH]cc(-c2c[nH]c3ccccc23)nc1-c1cccnc1

$$$$
