
     RDKit          3D

 35 37  0  0  0  0  0  0  0  0999 V2000
    4.9960    2.1344   16.7987 H   0  0  0  0  0  0  0  0  0  0  0  0
    5.3265    1.4739   17.5983 C   0  0  0  0  0  0  0  0  0  0  0  0
    6.4283    0.7452   17.3514 N   0  0  0  0  0  0  0  0  0  0  0  0
    6.8716   -0.0554   18.3282 C   0  0  0  0  0  0  0  0  0  0  0  0
    7.7606   -0.6473   18.1161 H   0  0  0  0  0  0  0  0  0  0  0  0
    6.2456   -0.1823   19.5826 C   0  0  0  0  0  0  0  0  0  0  0  0
    6.8719   -0.9279   20.6519 N   0  0  0  0  0  0  0  0  0  0  0  0
    7.9874   -0.3466   21.2250 C   0  0  0  0  0  0  0  0  0  0  0  0
    8.3752    0.5524   20.7569 H   0  0  0  0  0  0  0  0  0  0  0  0
    8.5868   -0.8344   22.3544 C   0  0  0  0  0  0  0  0  0  0  0  0
    9.6807   -0.1424   22.8472 N   0  0  0  0  0  0  0  0  0  0  0  0
   10.0821    0.4844   22.1604 H   0  0  0  0  0  0  0  0  0  0  0  0
   10.6170   -0.6128   23.8540 C   0  0  0  0  0  0  0  0  0  0  0  0
   10.7866   -1.6995   23.7903 H   0  0  0  0  0  0  0  0  0  0  0  0
   10.2379   -0.3870   24.8599 H   0  0  0  0  0  0  0  0  0  0  0  0
   11.9115    0.1140   23.6100 C   0  0  0  0  0  0  0  0  0  0  0  0
   12.0184    1.4700   23.9519 C   0  0  0  0  0  0  0  0  0  0  0  0
   11.2113    1.9927   24.4753 H   0  0  0  0  0  0  0  0  0  0  0  0
   13.0714    2.2293   23.6294 N   0  0  0  0  0  0  0  0  0  0  0  0
   14.0415    1.6646   22.9019 C   0  0  0  0  0  0  0  0  0  0  0  0
   14.8705    2.3081   22.6162 H   0  0  0  0  0  0  0  0  0  0  0  0
   14.0118    0.3360   22.4766 C   0  0  0  0  0  0  0  0  0  0  0  0
   14.7780   -0.0590   21.8305 H   0  0  0  0  0  0  0  0  0  0  0  0
   12.9357   -0.4610   22.8509 C   0  0  0  0  0  0  0  0  0  0  0  0
   12.9042   -1.5133   22.5540 H   0  0  0  0  0  0  0  0  0  0  0  0
    8.0170   -1.9943   22.9723 C   0  0  0  0  0  0  0  0  0  0  0  0
    8.4687   -2.3734   23.8911 H   0  0  0  0  0  0  0  0  0  0  0  0
    6.9355   -2.6078   22.4082 C   0  0  0  0  0  0  0  0  0  0  0  0
    6.4873   -3.4919   22.8380 H   0  0  0  0  0  0  0  0  0  0  0  0
    6.3277   -2.1704   21.1492 C   0  0  0  0  0  0  0  0  0  0  0  0
    5.4761   -2.8008   20.5503 O   0  0  0  0  0  0  0  0  0  0  0  0
    5.0697    0.5426   19.8081 C   0  0  0  0  0  0  0  0  0  0  0  0
    4.5476    0.4468   20.7587 H   0  0  0  0  0  0  0  0  0  0  0  0
    4.6137    1.4017   18.7999 C   0  0  0  0  0  0  0  0  0  0  0  0
    3.7350    2.0240   18.9378 H   0  0  0  0  0  0  0  0  0  0  0  0
  1  2  1  0
  2  3  2  0
  3  4  1  0
  4  5  1  0
  4  6  2  0
  6  7  1  0
  7  8  1  0
  8  9  1  0
  8 10  2  0
 10 11  1  0
 11 12  1  0
 11 13  1  0
 13 14  1  0
 13 15  1  0
 13 16  1  0
 16 17  2  0
 17 18  1  0
 17 19  1  0
 19 20  2  0
 20 21  1  0
 20 22  1  0
 22 23  1  0
 22 24  2  0
 24 25  1  0
 10 26  1  0
 26 27  1  0
 26 28  2  0
 28 29  1  0
 28 30  1  0
 30 31  2  0
  6 32  1  0
 32 33  1  0
 32 34  2  0
 34 35  1  0
 34  2  1  0
 30  7  1  0
 24 16  1  0
M  END
>  <cnnaffinity>  (1) 
-5.70107

>  <filename>  (1) 
O=c1ccc(NCc2cccnc2)cn1-c1cccnc1

$$$$
