
     RDKit          3D

 37 39  0  0  0  0  0  0  0  0999 V2000
    4.9272    1.7584   16.8710 H   0  0  0  0  0  0  0  0  0  0  0  0
    5.4078    1.3290   17.7487 C   0  0  0  0  0  0  0  0  0  0  0  0
    6.5767    0.7019   17.5357 N   0  0  0  0  0  0  0  0  0  0  0  0
    7.1601    0.1091   18.5876 C   0  0  0  0  0  0  0  0  0  0  0  0
    8.0901   -0.4251   18.3962 H   0  0  0  0  0  0  0  0  0  0  0  0
    6.6378    0.1491   19.8979 C   0  0  0  0  0  0  0  0  0  0  0  0
    7.2942   -0.5029   21.0102 N   0  0  0  0  0  0  0  0  0  0  0  0
    7.4220   -1.8772   20.9713 C   0  0  0  0  0  0  0  0  0  0  0  0
    6.9489   -2.3273   20.1021 H   0  0  0  0  0  0  0  0  0  0  0  0
    8.0691   -2.5882   21.9412 C   0  0  0  0  0  0  0  0  0  0  0  0
    8.2176   -4.0970   21.8512 C   0  0  0  0  0  0  0  0  0  0  0  0
    8.4018   -4.3560   20.8037 H   0  0  0  0  0  0  0  0  0  0  0  0
    9.1282   -4.3785   22.3876 H   0  0  0  0  0  0  0  0  0  0  0  0
    7.0595   -4.9408   22.3700 C   0  0  0  0  0  0  0  0  0  0  0  0
    7.0167   -5.3606   23.7108 C   0  0  0  0  0  0  0  0  0  0  0  0
    7.8599   -5.1593   24.3668 H   0  0  0  0  0  0  0  0  0  0  0  0
    5.9176   -6.0479   24.2285 C   0  0  0  0  0  0  0  0  0  0  0  0
    5.9252   -6.3461   25.2759 H   0  0  0  0  0  0  0  0  0  0  0  0
    4.8331   -6.3597   23.3917 C   0  0  0  0  0  0  0  0  0  0  0  0
    3.5706   -6.9927   23.9462 C   0  0  0  0  0  0  0  0  0  0  0  0
    2.7968   -7.5334   22.9828 F   0  0  0  0  0  0  0  0  0  0  0  0
    3.8566   -7.9767   24.8214 F   0  0  0  0  0  0  0  0  0  0  0  0
    2.7993   -6.1002   24.6035 F   0  0  0  0  0  0  0  0  0  0  0  0
    4.9175   -6.0417   22.0297 C   0  0  0  0  0  0  0  0  0  0  0  0
    4.1157   -6.3418   21.3708 H   0  0  0  0  0  0  0  0  0  0  0  0
    6.0133   -5.3439   21.5264 C   0  0  0  0  0  0  0  0  0  0  0  0
    6.0490   -5.1209   20.4618 H   0  0  0  0  0  0  0  0  0  0  0  0
    8.6240   -1.8628   23.0456 C   0  0  0  0  0  0  0  0  0  0  0  0
    9.1971   -2.4055   23.8023 H   0  0  0  0  0  0  0  0  0  0  0  0
    8.4361   -0.5205   23.1604 C   0  0  0  0  0  0  0  0  0  0  0  0
    8.7904    0.0728   23.9931 H   0  0  0  0  0  0  0  0  0  0  0  0
    7.7023    0.2520   22.1675 C   0  0  0  0  0  0  0  0  0  0  0  0
    7.4666    1.4395   22.2898 O   0  0  0  0  0  0  0  0  0  0  0  0
    5.4288    0.8167   20.1055 C   0  0  0  0  0  0  0  0  0  0  0  0
    5.0222    0.8814   21.1127 H   0  0  0  0  0  0  0  0  0  0  0  0
    4.7943    1.3979   19.0035 C   0  0  0  0  0  0  0  0  0  0  0  0
    3.8340    1.8884   19.1118 H   0  0  0  0  0  0  0  0  0  0  0  0
  1  2  1  0
  2  3  2  0
  3  4  1  0
  4  5  1  0
  4  6  2  0
  6  7  1  0
  7  8  1  0
  8  9  1  0
  8 10  2  0
 10 11  1  0
 11 12  1  0
 11 13  1  0
 11 14  1  0
 14 15  2  0
 15 16  1  0
 15 17  1  0
 17 18  1  0
 17 19  2  0
 19 20  1  0
 20 21  1  0
 20 22  1  0
 20 23  1  0
 19 24  1  0
 24 25  1  0
 24 26  2  0
 26 27  1  0
 10 28  1  0
 28 29  1  0
 28 30  2  0
 30 31  1  0
 30 32  1  0
 32 33  2  0
  6 34  1  0
 34 35  1  0
 34 36  2  0
 36 37  1  0
 36  2  1  0
 32  7  1  0
 26 14  1  0
M  END
>  <cnnaffinity>  (1) 
-5.0717

>  <filename>  (1) 
O=c1ccc(Cc2ccc(C(F)(F)F)cc2)cn1-c1cccnc1

$$$$
