
     RDKit          3D

 29 31  0  0  0  0  0  0  0  0999 V2000
    4.9534    1.8842   16.8087 H   0  0  0  0  0  0  0  0  0  0  0  0
    5.3966    1.3604   17.6485 C   0  0  0  0  0  0  0  0  0  0  0  0
    6.5577    0.7324   17.4004 N   0  0  0  0  0  0  0  0  0  0  0  0
    7.1325    0.0874   18.4222 C   0  0  0  0  0  0  0  0  0  0  0  0
    8.0840   -0.3886   18.1891 H   0  0  0  0  0  0  0  0  0  0  0  0
    6.5893    0.0263   19.7214 C   0  0  0  0  0  0  0  0  0  0  0  0
    7.2526   -0.6543   20.8315 C   0  0  0  0  0  0  0  0  0  0  0  0
    7.1341   -0.4507   22.1606 C   0  0  0  0  0  0  0  0  0  0  0  0
    6.5420    0.2659   22.7125 H   0  0  0  0  0  0  0  0  0  0  0  0
    7.9747   -1.3449   22.8296 N   0  0  0  0  0  0  0  0  0  0  0  0
    8.2499   -1.3131   24.2312 C   0  0  0  0  0  0  0  0  0  0  0  0
    8.4164   -2.4780   25.0102 C   0  0  0  0  0  0  0  0  0  0  0  0
    8.2663   -3.4419   24.5363 H   0  0  0  0  0  0  0  0  0  0  0  0
    8.7652   -2.4086   26.3715 C   0  0  0  0  0  0  0  0  0  0  0  0
    8.9204   -3.2921   26.9877 H   0  0  0  0  0  0  0  0  0  0  0  0
    8.9450   -1.1565   26.9471 C   0  0  0  0  0  0  0  0  0  0  0  0
    9.3334   -1.0450   28.2236 F   0  0  0  0  0  0  0  0  0  0  0  0
    8.7224    0.0183   26.2404 C   0  0  0  0  0  0  0  0  0  0  0  0
    8.8328    0.9768   26.7309 H   0  0  0  0  0  0  0  0  0  0  0  0
    8.3567   -0.0806   24.9066 C   0  0  0  0  0  0  0  0  0  0  0  0
    8.0845    1.0745   24.2625 F   0  0  0  0  0  0  0  0  0  0  0  0
    8.6062   -2.1686   21.8812 C   0  0  0  0  0  0  0  0  0  0  0  0
    9.3066   -3.1446   22.0319 O   0  0  0  0  0  0  0  0  0  0  0  0
    8.2095   -1.6447   20.6752 N   0  0  0  0  0  0  0  0  0  0  0  0
    8.4079   -2.2054   19.8669 H   0  0  0  0  0  0  0  0  0  0  0  0
    5.3690    0.6871   19.9505 C   0  0  0  0  0  0  0  0  0  0  0  0
    4.9083    0.6581   20.9397 H   0  0  0  0  0  0  0  0  0  0  0  0
    4.7628    1.3612   18.8957 C   0  0  0  0  0  0  0  0  0  0  0  0
    3.8273    1.8917   19.0323 H   0  0  0  0  0  0  0  0  0  0  0  0
  1  2  1  0
  2  3  2  0
  3  4  1  0
  4  5  1  0
  4  6  2  0
  6  7  1  0
  7  8  2  0
  8  9  1  0
  8 10  1  0
 10 11  1  0
 11 12  2  0
 12 13  1  0
 12 14  1  0
 14 15  1  0
 14 16  2  0
 16 17  1  0
 16 18  1  0
 18 19  1  0
 18 20  2  0
 20 21  1  0
 10 22  1  0
 22 23  2  0
 22 24  1  0
 24 25  1  0
  6 26  1  0
 26 27  1  0
 26 28  2  0
 28 29  1  0
 28  2  1  0
 24  7  1  0
 20 11  1  0
M  END
>  <cnnaffinity>  (1) 
-5.50023

>  <filename>  (1) 
O=c1[nH]c(-c2cccnc2)cn1-c1ccc(F)cc1F

$$$$
