
     RDKit          3D

 21 22  0  0  0  0  0  0  0  0999 V2000
    4.9082    1.7768   17.0009 H   0  0  0  0  0  0  0  0  0  0  0  0
    5.4007    1.2944   17.8421 C   0  0  0  0  0  0  0  0  0  0  0  0
    6.5671    0.6817   17.5768 N   0  0  0  0  0  0  0  0  0  0  0  0
    7.1832    0.0669   18.5937 C   0  0  0  0  0  0  0  0  0  0  0  0
    8.1227   -0.4387   18.3749 H   0  0  0  0  0  0  0  0  0  0  0  0
    6.6755    0.0146   19.9079 C   0  0  0  0  0  0  0  0  0  0  0  0
    7.3570   -0.6880   20.9551 N   0  0  0  0  0  0  0  0  0  0  0  0
    8.6597   -0.5336   21.4114 C   0  0  0  0  0  0  0  0  0  0  0  0
    9.6227    0.4315   20.8250 C   0  0  0  0  0  0  0  0  0  0  0  0
   10.5127    0.4733   21.4542 H   0  0  0  0  0  0  0  0  0  0  0  0
    9.8593    0.0818   19.8217 H   0  0  0  0  0  0  0  0  0  0  0  0
    9.0527    1.6895   20.7265 F   0  0  0  0  0  0  0  0  0  0  0  0
    8.9506   -1.3322   22.3878 N   0  0  0  0  0  0  0  0  0  0  0  0
    7.7727   -2.0043   22.6053 N   0  0  0  0  0  0  0  0  0  0  0  0
    7.6548   -2.6885   23.3268 H   0  0  0  0  0  0  0  0  0  0  0  0
    6.7510   -1.6620   21.7736 C   0  0  0  0  0  0  0  0  0  0  0  0
    5.6257   -2.1136   21.7098 O   0  0  0  0  0  0  0  0  0  0  0  0
    5.4517    0.6451   20.1642 C   0  0  0  0  0  0  0  0  0  0  0  0
    5.0170    0.6139   21.1641 H   0  0  0  0  0  0  0  0  0  0  0  0
    4.8115    1.3109   19.1121 C   0  0  0  0  0  0  0  0  0  0  0  0
    3.8759    1.8422   19.2669 H   0  0  0  0  0  0  0  0  0  0  0  0
  1  2  1  0
  2  3  2  0
  3  4  1  0
  4  5  1  0
  4  6  2  0
  6  7  1  0
  7  8  1  0
  8  9  1  0
  9 10  1  0
  9 11  1  0
  9 12  1  0
  8 13  2  0
 13 14  1  0
 14 15  1  0
 14 16  1  0
 16 17  2  0
  6 18  1  0
 18 19  1  0
 18 20  2  0
 20 21  1  0
 20  2  1  0
 16  7  1  0
M  END
>  <cnnaffinity>  (1) 
-3.86031

>  <filename>  (1) 
O=c1[nH]nc(CF)n1-c1cccnc1

$$$$
