
     RDKit          3D

 32 34  0  0  0  0  0  0  0  0999 V2000
    4.9221    1.7802   16.9591 H   0  0  0  0  0  0  0  0  0  0  0  0
    5.3764    1.3175   17.8326 C   0  0  0  0  0  0  0  0  0  0  0  0
    6.5475    0.6968   17.6282 N   0  0  0  0  0  0  0  0  0  0  0  0
    7.1303    0.1297   18.6867 C   0  0  0  0  0  0  0  0  0  0  0  0
    8.0828   -0.3584   18.4834 H   0  0  0  0  0  0  0  0  0  0  0  0
    6.6048    0.1531   19.9902 C   0  0  0  0  0  0  0  0  0  0  0  0
    7.3515   -0.5318   21.0570 C   0  0  0  0  0  0  0  0  0  0  0  0
    7.0153   -0.1231   22.3241 O   0  0  0  0  0  0  0  0  0  0  0  0
    7.6619   -0.6810   23.3718 C   0  0  0  0  0  0  0  0  0  0  0  0
    7.4223   -0.1124   24.5700 N   0  0  0  0  0  0  0  0  0  0  0  0
    7.7777   -0.6270   25.3529 H   0  0  0  0  0  0  0  0  0  0  0  0
    6.8316    1.1166   24.8456 C   0  0  0  0  0  0  0  0  0  0  0  0
    7.0051    2.2204   24.0085 C   0  0  0  0  0  0  0  0  0  0  0  0
    7.6401    2.1159   23.1336 H   0  0  0  0  0  0  0  0  0  0  0  0
    6.3362    3.4095   24.2900 C   0  0  0  0  0  0  0  0  0  0  0  0
    6.4365    4.2570   23.6203 H   0  0  0  0  0  0  0  0  0  0  0  0
    5.5140    3.4875   25.4171 C   0  0  0  0  0  0  0  0  0  0  0  0
    4.6607    4.9611   25.7483 Cl  0  0  0  0  0  0  0  0  0  0  0  0
    5.3766    2.3977   26.2830 C   0  0  0  0  0  0  0  0  0  0  0  0
    4.7419    2.4762   27.1580 H   0  0  0  0  0  0  0  0  0  0  0  0
    6.0535    1.2115   25.9991 C   0  0  0  0  0  0  0  0  0  0  0  0
    5.9564    0.3301   26.6283 H   0  0  0  0  0  0  0  0  0  0  0  0
    8.4807   -1.7379   23.2935 C   0  0  0  0  0  0  0  0  0  0  0  0
    8.9436   -2.1673   24.1697 H   0  0  0  0  0  0  0  0  0  0  0  0
    8.7347   -2.3076   22.0075 C   0  0  0  0  0  0  0  0  0  0  0  0
    9.2860   -3.3801   21.8426 O   0  0  0  0  0  0  0  0  0  0  0  0
    8.2354   -1.5222   20.8747 C   0  0  0  0  0  0  0  0  0  0  0  0
    8.5493   -1.8380   19.9004 H   0  0  0  0  0  0  0  0  0  0  0  0
    5.3659    0.7919   20.1845 C   0  0  0  0  0  0  0  0  0  0  0  0
    4.9136    0.8188   21.1758 H   0  0  0  0  0  0  0  0  0  0  0  0
    4.7468    1.3765   19.0818 C   0  0  0  0  0  0  0  0  0  0  0  0
    3.7927    1.8810   19.1712 H   0  0  0  0  0  0  0  0  0  0  0  0
  1  2  1  0
  2  3  2  0
  3  4  1  0
  4  5  1  0
  4  6  2  0
  6  7  1  0
  7  8  1  0
  8  9  1  0
  9 10  1  0
 10 11  1  0
 10 12  1  0
 12 13  2  0
 13 14  1  0
 13 15  1  0
 15 16  1  0
 15 17  2  0
 17 18  1  0
 17 19  1  0
 19 20  1  0
 19 21  2  0
 21 22  1  0
  9 23  2  0
 23 24  1  0
 23 25  1  0
 25 26  2  0
 25 27  1  0
 27 28  1  0
  6 29  1  0
 29 30  1  0
 29 31  2  0
 31 32  1  0
 31  2  1  0
 27  7  2  0
 21 12  1  0
M  END
>  <cnnaffinity>  (1) 
-5.35937

>  <filename>  (1) 
O=c1cc(Nc2ccc(Cl)cc2)oc(-c2cccnc2)c1

$$$$
