
     RDKit          3D

 32 34  0  0  0  0  0  0  0  0999 V2000
    5.5736    1.8802   16.9684 H   0  0  0  0  0  0  0  0  0  0  0  0
    5.9275    1.2821   17.8067 C   0  0  0  0  0  0  0  0  0  0  0  0
    7.1159    0.6722   17.6528 N   0  0  0  0  0  0  0  0  0  0  0  0
    7.5812   -0.0646   18.6671 C   0  0  0  0  0  0  0  0  0  0  0  0
    8.5599   -0.5216   18.5422 H   0  0  0  0  0  0  0  0  0  0  0  0
    6.8555   -0.2746   19.8552 C   0  0  0  0  0  0  0  0  0  0  0  0
    7.3485   -1.1494   20.8557 N   0  0  0  0  0  0  0  0  0  0  0  0
    8.6949   -1.2442   21.1216 N   0  0  0  0  0  0  0  0  0  0  0  0
    8.8246   -1.9944   22.1777 C   0  0  0  0  0  0  0  0  0  0  0  0
   10.1433   -2.2990   22.8194 C   0  0  0  0  0  0  0  0  0  0  0  0
    9.9509   -2.8202   23.7681 H   0  0  0  0  0  0  0  0  0  0  0  0
   10.7116   -2.9975   22.1981 H   0  0  0  0  0  0  0  0  0  0  0  0
   10.9562   -1.0453   23.1013 C   0  0  0  0  0  0  0  0  0  0  0  0
   10.5552   -0.2091   24.1580 C   0  0  0  0  0  0  0  0  0  0  0  0
    9.7050   -0.5095   24.7708 H   0  0  0  0  0  0  0  0  0  0  0  0
   11.2186    0.9894   24.4325 C   0  0  0  0  0  0  0  0  0  0  0  0
   10.8829    1.6083   25.2592 H   0  0  0  0  0  0  0  0  0  0  0  0
   12.2957    1.3934   23.6369 C   0  0  0  0  0  0  0  0  0  0  0  0
   12.8153    2.3390   23.8034 H   0  0  0  0  0  0  0  0  0  0  0  0
   12.7141    0.5836   22.5798 C   0  0  0  0  0  0  0  0  0  0  0  0
   13.5506    0.8907   21.9605 H   0  0  0  0  0  0  0  0  0  0  0  0
   12.0499   -0.6238   22.3242 C   0  0  0  0  0  0  0  0  0  0  0  0
   12.6545   -1.5964   21.0056 Cl  0  0  0  0  0  0  0  0  0  0  0  0
    7.5123   -2.4557   22.7272 C   0  0  0  0  0  0  0  0  0  0  0  0
    7.2727   -1.9430   23.6674 H   0  0  0  0  0  0  0  0  0  0  0  0
    7.4244   -3.5315   22.8961 H   0  0  0  0  0  0  0  0  0  0  0  0
    6.5638   -1.9696   21.6641 C   0  0  0  0  0  0  0  0  0  0  0  0
    5.4013   -2.2571   21.5025 O   0  0  0  0  0  0  0  0  0  0  0  0
    5.6218    0.3712   20.0169 C   0  0  0  0  0  0  0  0  0  0  0  0
    5.0486    0.2304   20.9332 H   0  0  0  0  0  0  0  0  0  0  0  0
    5.1581    1.1723   18.9710 C   0  0  0  0  0  0  0  0  0  0  0  0
    4.2165    1.7049   19.0485 H   0  0  0  0  0  0  0  0  0  0  0  0
  1  2  1  0
  2  3  2  0
  3  4  1  0
  4  5  1  0
  4  6  2  0
  6  7  1  0
  7  8  1  0
  8  9  2  0
  9 10  1  0
 10 11  1  0
 10 12  1  0
 10 13  1  0
 13 14  2  0
 14 15  1  0
 14 16  1  0
 16 17  1  0
 16 18  2  0
 18 19  1  0
 18 20  1  0
 20 21  1  0
 20 22  2  0
 22 23  1  0
  9 24  1  0
 24 25  1  0
 24 26  1  0
 24 27  1  0
 27 28  2  0
  6 29  1  0
 29 30  1  0
 29 31  2  0
 31 32  1  0
 31  2  1  0
 27  7  1  0
 22 13  1  0
M  END
>  <cnnaffinity>  (1) 
-5.44429

>  <filename>  (1) 
O=C1CC(Cc2ccccc2Cl)=NN1c1cccnc1

$$$$
