
     RDKit          3D

 29 32  0  0  0  0  0  0  0  0999 V2000
    7.6132    1.2550   26.3029 H   0  0  0  0  0  0  0  0  0  0  0  0
    7.1172    1.5132   25.3671 C   0  0  0  0  0  0  0  0  0  0  0  0
    6.3386    2.6114   25.2975 C   0  0  0  0  0  0  0  0  0  0  0  0
    5.3919    3.1560   23.9052 S   0  0  0  0  0  0  0  0  0  0  0  0
    4.6384    4.4341   24.8373 C   0  0  0  0  0  0  0  0  0  0  0  0
    3.4746    5.4737   24.3484 S   0  0  0  0  0  0  0  0  0  0  0  0
    5.1721    4.4558   26.0880 N   0  0  0  0  0  0  0  0  0  0  0  0
    4.8551    5.1164   26.7727 H   0  0  0  0  0  0  0  0  0  0  0  0
    6.1013    3.5129   26.4651 C   0  0  0  0  0  0  0  0  0  0  0  0
    6.5866    3.4706   27.5685 O   0  0  0  0  0  0  0  0  0  0  0  0
    7.3413    0.5949   24.2684 C   0  0  0  0  0  0  0  0  0  0  0  0
    8.1265   -0.5074   24.4246 N   0  0  0  0  0  0  0  0  0  0  0  0
    8.0828   -1.0075   23.2201 C   0  0  0  0  0  0  0  0  0  0  0  0
    8.8680   -2.2841   22.3612 S   0  0  0  0  0  0  0  0  0  0  0  0
    8.2857   -1.6186   20.8691 C   0  0  0  0  0  0  0  0  0  0  0  0
    8.6919   -1.9907   19.9496 H   0  0  0  0  0  0  0  0  0  0  0  0
    7.4277   -0.5925   21.0262 C   0  0  0  0  0  0  0  0  0  0  0  0
    6.6634    0.0943   19.9672 C   0  0  0  0  0  0  0  0  0  0  0  0
    7.1622    0.0737   18.6462 C   0  0  0  0  0  0  0  0  0  0  0  0
    8.1087   -0.4146   18.4146 H   0  0  0  0  0  0  0  0  0  0  0  0
    6.5596    0.6531   17.6049 N   0  0  0  0  0  0  0  0  0  0  0  0
    5.4000    1.2849   17.8417 C   0  0  0  0  0  0  0  0  0  0  0  0
    4.9447    1.7826   16.9886 H   0  0  0  0  0  0  0  0  0  0  0  0
    4.7921    1.3320   19.1012 C   0  0  0  0  0  0  0  0  0  0  0  0
    3.8432    1.8451   19.2121 H   0  0  0  0  0  0  0  0  0  0  0  0
    5.4317    0.7390   20.1895 C   0  0  0  0  0  0  0  0  0  0  0  0
    5.0157    0.7764   21.1987 H   0  0  0  0  0  0  0  0  0  0  0  0
    7.3193   -0.2646   22.3859 N   0  0  0  0  0  0  0  0  0  0  0  0
    6.8131    0.7989   23.0517 N   0  0  0  0  0  0  0  0  0  0  0  0
  1  2  1  0
  2  3  2  3
  3  4  1  0
  4  5  1  0
  5  6  2  0
  5  7  1  0
  7  8  1  0
  7  9  1  0
  9 10  2  0
  2 11  1  0
 11 12  1  0
 12 13  2  0
 13 14  1  0
 14 15  1  0
 15 16  1  0
 15 17  2  0
 17 18  1  0
 18 19  2  0
 19 20  1  0
 19 21  1  0
 21 22  2  0
 22 23  1  0
 22 24  1  0
 24 25  1  0
 24 26  2  0
 26 27  1  0
 17 28  1  0
 28 29  1  0
  9  3  1  0
 29 11  2  0
 28 13  1  0
 26 18  1  0
M  END
>  <cnnaffinity>  (1) 
-5.20119

>  <filename>  (1) 
O=C1NC(=S)SC1=Cc1nc2scc(-c3cccnc3)n2n1

$$$$
