
     RDKit          3D

 30 32  0  0  0  0  0  0  0  0999 V2000
    5.0677    1.7544   16.9327 H   0  0  0  0  0  0  0  0  0  0  0  0
    5.5192    1.2752   17.7986 C   0  0  0  0  0  0  0  0  0  0  0  0
    6.6954    0.6561   17.5891 N   0  0  0  0  0  0  0  0  0  0  0  0
    7.2849    0.0575   18.6336 C   0  0  0  0  0  0  0  0  0  0  0  0
    8.2435   -0.4248   18.4513 H   0  0  0  0  0  0  0  0  0  0  0  0
    6.7070    0.0106   19.9137 C   0  0  0  0  0  0  0  0  0  0  0  0
    7.3512   -0.6807   20.9869 N   0  0  0  0  0  0  0  0  0  0  0  0
    8.6950   -0.4725   21.1153 N   0  0  0  0  0  0  0  0  0  0  0  0
    9.3155   -0.9729   22.1488 C   0  0  0  0  0  0  0  0  0  0  0  0
   10.7922   -0.7283   22.1872 C   0  0  0  0  0  0  0  0  0  0  0  0
   11.7148   -1.7820   22.2793 C   0  0  0  0  0  0  0  0  0  0  0  0
   11.2357   -3.0167   22.4575 F   0  0  0  0  0  0  0  0  0  0  0  0
   13.0948   -1.5932   22.2276 C   0  0  0  0  0  0  0  0  0  0  0  0
   13.7483   -2.4573   22.2048 H   0  0  0  0  0  0  0  0  0  0  0  0
   13.5938   -0.2893   22.2334 C   0  0  0  0  0  0  0  0  0  0  0  0
   14.6683   -0.1193   22.2895 H   0  0  0  0  0  0  0  0  0  0  0  0
   12.7140    0.7961   22.1826 C   0  0  0  0  0  0  0  0  0  0  0  0
   13.0641    1.8216   22.1774 H   0  0  0  0  0  0  0  0  0  0  0  0
   11.3410    0.5609   22.0997 C   0  0  0  0  0  0  0  0  0  0  0  0
   10.5296    1.6163   21.9712 F   0  0  0  0  0  0  0  0  0  0  0  0
    8.6118   -1.7888   23.2358 C   0  0  0  0  0  0  0  0  0  0  0  0
    9.1092   -2.1530   24.2842 O   0  0  0  0  0  0  0  0  0  0  0  0
    7.2243   -2.1022   22.8900 C   0  0  0  0  0  0  0  0  0  0  0  0
    6.6842   -2.7493   23.5659 H   0  0  0  0  0  0  0  0  0  0  0  0
    6.6523   -1.5269   21.8228 C   0  0  0  0  0  0  0  0  0  0  0  0
    5.6116   -1.6916   21.5429 H   0  0  0  0  0  0  0  0  0  0  0  0
    5.4886    0.6678   20.1259 C   0  0  0  0  0  0  0  0  0  0  0  0
    5.0692    0.6815   21.1322 H   0  0  0  0  0  0  0  0  0  0  0  0
    4.8849    1.3166   19.0456 C   0  0  0  0  0  0  0  0  0  0  0  0
    3.9441    1.8459   19.1618 H   0  0  0  0  0  0  0  0  0  0  0  0
  1  2  1  0
  2  3  2  0
  3  4  1  0
  4  5  1  0
  4  6  2  0
  6  7  1  0
  7  8  1  0
  8  9  2  0
  9 10  1  0
 10 11  2  0
 11 12  1  0
 11 13  1  0
 13 14  1  0
 13 15  2  0
 15 16  1  0
 15 17  1  0
 17 18  1  0
 17 19  2  0
 19 20  1  0
  9 21  1  0
 21 22  2  0
 21 23  1  0
 23 24  1  0
 23 25  2  0
 25 26  1  0
  6 27  1  0
 27 28  1  0
 27 29  2  0
 29 30  1  0
 29  2  1  0
 25  7  1  0
 19 10  1  0
M  END
>  <cnnaffinity>  (1) 
-5.37829

>  <filename>  (1) 
O=c1ccn(-c2cccnc2)nc1-c1c(F)cccc1F

$$$$
