
     RDKit          3D

 36 39  0  0  0  0  0  0  0  0999 V2000
    4.9324    1.8358   16.9506 H   0  0  0  0  0  0  0  0  0  0  0  0
    5.3996    1.3156   17.7857 C   0  0  0  0  0  0  0  0  0  0  0  0
    6.5661    0.7005   17.5287 N   0  0  0  0  0  0  0  0  0  0  0  0
    7.1654    0.0659   18.5455 C   0  0  0  0  0  0  0  0  0  0  0  0
    8.1262   -0.3940   18.3059 H   0  0  0  0  0  0  0  0  0  0  0  0
    6.6462   -0.0092   19.8567 C   0  0  0  0  0  0  0  0  0  0  0  0
    7.3796   -0.6811   21.0196 C   0  0  2  0  0  0  0  0  0  0  0  0
    8.2078   -1.2653   20.6042 H   0  0  0  0  0  0  0  0  0  0  0  0
    6.5356   -1.6983   21.8043 C   0  0  0  0  0  0  0  0  0  0  0  0
    5.8520   -2.6060   21.3770 O   0  0  0  0  0  0  0  0  0  0  0  0
    6.6865   -1.4376   23.1290 N   0  0  0  0  0  0  0  0  0  0  0  0
    5.9963   -1.8864   23.7113 H   0  0  0  0  0  0  0  0  0  0  0  0
    7.4379   -0.2468   23.4700 C   0  0  0  0  0  0  0  0  0  0  0  0
    6.8236    0.4766   24.0260 H   0  0  0  0  0  0  0  0  0  0  0  0
    8.2970   -0.4962   24.1100 H   0  0  0  0  0  0  0  0  0  0  0  0
    7.9078    0.3283   22.0987 C   0  0  1  0  0  0  0  0  0  0  0  0
    7.4094    1.2932   21.9403 H   0  0  0  0  0  0  0  0  0  0  0  0
    9.3939    0.5616   22.0229 C   0  0  0  0  0  0  0  0  0  0  0  0
   10.0815    1.7142   21.7667 C   0  0  0  0  0  0  0  0  0  0  0  0
    9.6996    2.7019   21.5373 H   0  0  0  0  0  0  0  0  0  0  0  0
   11.4422    1.4672   21.7548 N   0  0  0  0  0  0  0  0  0  0  0  0
   12.1649    2.1477   21.5911 H   0  0  0  0  0  0  0  0  0  0  0  0
   11.6589    0.1283   21.9816 C   0  0  0  0  0  0  0  0  0  0  0  0
   12.8492   -0.6232   21.9933 C   0  0  0  0  0  0  0  0  0  0  0  0
   13.8161   -0.1423   21.8474 H   0  0  0  0  0  0  0  0  0  0  0  0
   12.7332   -1.9923   22.1886 C   0  0  0  0  0  0  0  0  0  0  0  0
   13.6067   -2.6368   22.1220 H   0  0  0  0  0  0  0  0  0  0  0  0
   11.4858   -2.5798   22.5236 C   0  0  0  0  0  0  0  0  0  0  0  0
   11.4536   -3.6161   22.8289 H   0  0  0  0  0  0  0  0  0  0  0  0
   10.3159   -1.8438   22.5077 C   0  0  0  0  0  0  0  0  0  0  0  0
    9.3574   -2.3066   22.7417 H   0  0  0  0  0  0  0  0  0  0  0  0
   10.3888   -0.4714   22.1776 C   0  0  0  0  0  0  0  0  0  0  0  0
    5.4255    0.6365   20.0920 C   0  0  0  0  0  0  0  0  0  0  0  0
    4.9989    0.6376   21.0964 H   0  0  0  0  0  0  0  0  0  0  0  0
    4.7929    1.3088   19.0440 C   0  0  0  0  0  0  0  0  0  0  0  0
    3.8648    1.8479   19.1959 H   0  0  0  0  0  0  0  0  0  0  0  0
  1  2  1  0
  2  3  2  0
  3  4  1  0
  4  5  1  0
  4  6  2  0
  6  7  1  0
  7  8  1  6
  7  9  1  0
  9 10  2  0
  9 11  1  0
 11 12  1  0
 11 13  1  0
 13 14  1  0
 13 15  1  0
 13 16  1  0
 16 17  1  6
 16 18  1  0
 18 19  2  0
 19 20  1  0
 19 21  1  0
 21 22  1  0
 21 23  1  0
 23 24  2  0
 24 25  1  0
 24 26  1  0
 26 27  1  0
 26 28  2  0
 28 29  1  0
 28 30  1  0
 30 31  1  0
 30 32  2  0
  6 33  1  0
 33 34  1  0
 33 35  2  0
 35 36  1  0
 35  2  1  0
 16  7  1  0
 32 18  1  0
 32 23  1  0
M  END
>  <cnnaffinity>  (1) 
-5.80524

>  <filename>  (1) 
O=C1NC[C@@H](c2c[nH]c3ccccc23)[C@@H]1c1cccnc1

$$$$
