
     RDKit          3D

 28 30  0  0  0  0  0  0  0  0999 V2000
    4.9191    1.7946   16.9768 H   0  0  0  0  0  0  0  0  0  0  0  0
    5.3946    1.3004   17.8223 C   0  0  0  0  0  0  0  0  0  0  0  0
    6.5603    0.6829   17.5653 N   0  0  0  0  0  0  0  0  0  0  0  0
    7.1726    0.0713   18.5877 C   0  0  0  0  0  0  0  0  0  0  0  0
    8.1103   -0.4246   18.3383 H   0  0  0  0  0  0  0  0  0  0  0  0
    6.6643    0.0194   19.9002 C   0  0  0  0  0  0  0  0  0  0  0  0
    7.3367   -0.6976   20.9820 C   0  0  0  0  0  0  0  0  0  0  0  0
    6.8215   -1.2280   22.1076 C   0  0  0  0  0  0  0  0  0  0  0  0
    5.7993   -1.2929   22.3935 H   0  0  0  0  0  0  0  0  0  0  0  0
    7.8362   -1.8062   22.8590 N   0  0  0  0  0  0  0  0  0  0  0  0
    7.6580   -2.4746   24.0995 C   0  0  0  0  0  0  0  0  0  0  0  0
    6.6952   -2.0629   25.0455 C   0  0  0  0  0  0  0  0  0  0  0  0
    6.0439   -1.2084   24.8664 H   0  0  0  0  0  0  0  0  0  0  0  0
    6.5298   -2.6647   26.2310 N   0  0  0  0  0  0  0  0  0  0  0  0
    7.3016   -3.7015   26.5076 C   0  0  0  0  0  0  0  0  0  0  0  0
    7.0591   -4.5083   28.0274 Cl  0  0  0  0  0  0  0  0  0  0  0  0
    8.2832   -4.2011   25.6459 C   0  0  0  0  0  0  0  0  0  0  0  0
    8.8756   -5.0458   25.9623 H   0  0  0  0  0  0  0  0  0  0  0  0
    8.4658   -3.5785   24.4156 C   0  0  0  0  0  0  0  0  0  0  0  0
    9.2239   -3.9067   23.7068 H   0  0  0  0  0  0  0  0  0  0  0  0
    9.0497   -1.6346   22.1655 C   0  0  0  0  0  0  0  0  0  0  0  0
   10.1808   -1.9623   22.4599 O   0  0  0  0  0  0  0  0  0  0  0  0
    8.6920   -0.9788   21.0160 N   0  0  0  0  0  0  0  0  0  0  0  0
    9.4249   -0.6791   20.4061 H   0  0  0  0  0  0  0  0  0  0  0  0
    5.4361    0.6629   20.1390 C   0  0  0  0  0  0  0  0  0  0  0  0
    5.0044    0.6555   21.1414 H   0  0  0  0  0  0  0  0  0  0  0  0
    4.7987    1.3193   19.0885 C   0  0  0  0  0  0  0  0  0  0  0  0
    3.8657    1.8502   19.2390 H   0  0  0  0  0  0  0  0  0  0  0  0
  1  2  1  0
  2  3  2  0
  3  4  1  0
  4  5  1  0
  4  6  2  0
  6  7  1  0
  7  8  2  0
  8  9  1  0
  8 10  1  0
 10 11  1  0
 11 12  2  0
 12 13  1  0
 12 14  1  0
 14 15  2  0
 15 16  1  0
 15 17  1  0
 17 18  1  0
 17 19  2  0
 19 20  1  0
 10 21  1  0
 21 22  2  0
 21 23  1  0
 23 24  1  0
  6 25  1  0
 25 26  1  0
 25 27  2  0
 27 28  1  0
 27  2  1  0
 23  7  1  0
 19 11  1  0
M  END
>  <cnnaffinity>  (1) 
-5.36363

>  <filename>  (1) 
O=c1[nH]c(-c2cccnc2)cn1-c1ccc(Cl)nc1

$$$$
