
     RDKit          3D

 33 36  0  0  0  0  0  0  0  0999 V2000
    4.9642    1.8111   16.9932 H   0  0  0  0  0  0  0  0  0  0  0  0
    5.4160    1.2951   17.8364 C   0  0  0  0  0  0  0  0  0  0  0  0
    6.5703    0.6569   17.5926 N   0  0  0  0  0  0  0  0  0  0  0  0
    7.1554    0.0331   18.6201 C   0  0  0  0  0  0  0  0  0  0  0  0
    8.0948   -0.4663   18.3811 H   0  0  0  0  0  0  0  0  0  0  0  0
    6.6228   -0.0130   19.9177 C   0  0  0  0  0  0  0  0  0  0  0  0
    7.3453   -0.7467   20.9954 C   0  0  0  0  0  0  0  0  0  0  0  0
    6.6034   -1.3474   21.8999 N   0  0  0  0  0  0  0  0  0  0  0  0
    7.2104   -1.9656   22.9663 N   0  0  0  0  0  0  0  0  0  0  0  0
    6.3331   -2.4933   23.9651 C   0  0  0  0  0  0  0  0  0  0  0  0
    6.5048   -2.2893   25.2942 C   0  0  0  0  0  0  0  0  0  0  0  0
    7.3256   -1.7593   25.7530 H   0  0  0  0  0  0  0  0  0  0  0  0
    5.2611   -2.9754   26.2716 S   0  0  0  0  0  0  0  0  0  0  0  0
    4.4770   -3.6489   24.8661 C   0  0  0  0  0  0  0  0  0  0  0  0
    3.3226   -4.4571   24.8617 C   0  0  0  0  0  0  0  0  0  0  0  0
    2.7925   -4.6675   25.7852 H   0  0  0  0  0  0  0  0  0  0  0  0
    2.9072   -5.0279   23.6636 C   0  0  0  0  0  0  0  0  0  0  0  0
    1.9949   -5.6308   23.6449 H   0  0  0  0  0  0  0  0  0  0  0  0
    3.6506   -4.8011   22.4861 C   0  0  0  0  0  0  0  0  0  0  0  0
    3.4134   -5.3745   21.5973 H   0  0  0  0  0  0  0  0  0  0  0  0
    4.7138   -3.9026   22.4638 C   0  0  0  0  0  0  0  0  0  0  0  0
    5.1922   -3.6040   21.5350 H   0  0  0  0  0  0  0  0  0  0  0  0
    5.1672   -3.3228   23.6733 C   0  0  0  0  0  0  0  0  0  0  0  0
    8.6348   -2.0987   23.1332 C   0  0  0  0  0  0  0  0  0  0  0  0
    9.1414   -2.7028   24.0633 O   0  0  0  0  0  0  0  0  0  0  0  0
    9.3948   -1.4489   22.0726 C   0  0  0  0  0  0  0  0  0  0  0  0
   10.4693   -1.5582   22.1811 H   0  0  0  0  0  0  0  0  0  0  0  0
    8.7835   -0.7937   21.0503 C   0  0  0  0  0  0  0  0  0  0  0  0
    9.3686   -0.2836   20.2890 H   0  0  0  0  0  0  0  0  0  0  0  0
    5.4003    0.6407   20.1495 C   0  0  0  0  0  0  0  0  0  0  0  0
    4.9508    0.6179   21.1427 H   0  0  0  0  0  0  0  0  0  0  0  0
    4.7958    1.3145   19.0892 C   0  0  0  0  0  0  0  0  0  0  0  0
    3.8664    1.8573   19.2202 H   0  0  0  0  0  0  0  0  0  0  0  0
  1  2  1  0
  2  3  2  0
  3  4  1  0
  4  5  1  0
  4  6  2  0
  6  7  1  0
  7  8  2  0
  8  9  1  0
  9 10  1  0
 10 11  2  0
 11 12  1  0
 11 13  1  0
 13 14  1  0
 14 15  2  0
 15 16  1  0
 15 17  1  0
 17 18  1  0
 17 19  2  0
 19 20  1  0
 19 21  1  0
 21 22  1  0
 21 23  2  0
  9 24  1  0
 24 25  2  0
 24 26  1  0
 26 27  1  0
 26 28  2  0
 28 29  1  0
  6 30  1  0
 30 31  1  0
 30 32  2  0
 32 33  1  0
 32  2  1  0
 28  7  1  0
 23 10  1  0
 23 14  1  0
M  END
>  <cnnaffinity>  (1) 
-5.29485

>  <filename>  (1) 
O=c1ccc(-c2cccnc2)nn1-c1csc2ccccc12

$$$$
