
     RDKit          3D

 40 43  0  0  0  0  0  0  0  0999 V2000
    4.9483    1.8276   16.9507 H   0  0  0  0  0  0  0  0  0  0  0  0
    5.4048    1.3151   17.7950 C   0  0  0  0  0  0  0  0  0  0  0  0
    6.5562    0.6772   17.5477 N   0  0  0  0  0  0  0  0  0  0  0  0
    7.1463    0.0573   18.5750 C   0  0  0  0  0  0  0  0  0  0  0  0
    8.0908   -0.4396   18.3604 H   0  0  0  0  0  0  0  0  0  0  0  0
    6.6298    0.0231   19.8800 C   0  0  0  0  0  0  0  0  0  0  0  0
    7.3455   -0.7100   20.9512 C   0  0  0  0  0  0  0  0  0  0  0  0
    6.6081   -1.4880   21.7083 N   0  0  0  0  0  0  0  0  0  0  0  0
    7.1741   -2.1889   22.7556 C   0  0  0  0  0  0  0  0  0  0  0  0
    6.2336   -3.0040   23.5887 C   0  0  0  0  0  0  0  0  0  0  0  0
    5.0828   -3.5701   23.0067 C   0  0  0  0  0  0  0  0  0  0  0  0
    4.8657   -3.3508   21.9650 H   0  0  0  0  0  0  0  0  0  0  0  0
    4.2285   -4.3689   23.7648 C   0  0  0  0  0  0  0  0  0  0  0  0
    3.3580   -4.8184   23.2956 H   0  0  0  0  0  0  0  0  0  0  0  0
    4.4982   -4.6024   25.1146 C   0  0  0  0  0  0  0  0  0  0  0  0
    3.8383   -5.2398   25.6953 H   0  0  0  0  0  0  0  0  0  0  0  0
    5.6424   -4.0518   25.7210 C   0  0  0  0  0  0  0  0  0  0  0  0
    5.9900   -4.3944   27.1328 C   0  0  0  0  0  0  0  0  0  0  0  0
    7.2547   -4.9518   27.4023 C   0  0  0  0  0  0  0  0  0  0  0  0
    7.9788   -5.0199   26.5934 H   0  0  0  0  0  0  0  0  0  0  0  0
    7.5547   -5.4592   28.6708 C   0  0  0  0  0  0  0  0  0  0  0  0
    8.5093   -5.9484   28.8486 H   0  0  0  0  0  0  0  0  0  0  0  0
    6.6269   -5.3238   29.7110 C   0  0  0  0  0  0  0  0  0  0  0  0
    6.8523   -5.7134   30.6996 H   0  0  0  0  0  0  0  0  0  0  0  0
    5.3972   -4.6963   29.4721 C   0  0  0  0  0  0  0  0  0  0  0  0
    4.6909   -4.5441   30.2824 H   0  0  0  0  0  0  0  0  0  0  0  0
    5.0728   -4.2545   28.1873 C   0  0  0  0  0  0  0  0  0  0  0  0
    4.0892   -3.8318   27.9879 H   0  0  0  0  0  0  0  0  0  0  0  0
    6.4884   -3.2379   24.9515 C   0  0  0  0  0  0  0  0  0  0  0  0
    7.3374   -2.7680   25.4466 H   0  0  0  0  0  0  0  0  0  0  0  0
    8.5220   -2.1436   23.0089 C   0  0  0  0  0  0  0  0  0  0  0  0
    9.0064   -2.7181   23.7937 H   0  0  0  0  0  0  0  0  0  0  0  0
    9.3231   -1.3572   22.2111 N   0  0  0  0  0  0  0  0  0  0  0  0
   10.3192   -1.2187   22.3538 H   0  0  0  0  0  0  0  0  0  0  0  0
    8.8492   -0.5718   21.1586 C   0  0  0  0  0  0  0  0  0  0  0  0
    9.6535    0.1130   20.5508 O   0  0  0  0  0  0  0  0  0  0  0  0
    5.3918    0.6524   20.1086 C   0  0  0  0  0  0  0  0  0  0  0  0
    4.9135    0.6064   21.0894 H   0  0  0  0  0  0  0  0  0  0  0  0
    4.7864    1.3287   19.0507 C   0  0  0  0  0  0  0  0  0  0  0  0
    3.8505    1.8632   19.1772 H   0  0  0  0  0  0  0  0  0  0  0  0
  1  2  1  0
  2  3  2  0
  3  4  1  0
  4  5  1  0
  4  6  2  0
  6  7  1  0
  7  8  2  0
  8  9  1  0
  9 10  1  0
 10 11  2  0
 11 12  1  0
 11 13  1  0
 13 14  1  0
 13 15  2  0
 15 16  1  0
 15 17  1  0
 17 18  1  0
 18 19  2  0
 19 20  1  0
 19 21  1  0
 21 22  1  0
 21 23  2  0
 23 24  1  0
 23 25  1  0
 25 26  1  0
 25 27  2  0
 27 28  1  0
 17 29  2  0
 29 30  1  0
  9 31  2  0
 31 32  1  0
 31 33  1  0
 33 34  1  0
 33 35  1  0
 35 36  2  0
  6 37  1  0
 37 38  1  0
 37 39  2  0
 39 40  1  0
 39  2  1  0
 35  7  1  0
 29 10  1  0
 27 18  1  0
M  END
>  <cnnaffinity>  (1) 
-5.73066

>  <filename>  (1) 
O=c1[nH]cc(-c2cccc(-c3ccccc3)c2)nc1-c1cccnc1

$$$$
