
     RDKit          3D

 26 28  0  0  0  0  0  0  0  0999 V2000
   13.6541   -0.5727   23.2689 H   0  0  0  0  0  0  0  0  0  0  0  0
   12.7688   -0.1637   22.8124 C   0  0  0  0  0  0  0  0  0  0  0  0
   11.6244   -0.9170   22.8384 N   0  0  0  0  0  0  0  0  0  0  0  0
   10.6645   -0.3133   22.1948 C   0  0  0  0  0  0  0  0  0  0  0  0
    9.2893   -0.8444   22.0189 C   0  0  0  0  0  0  0  0  0  0  0  0
    8.5971   -0.3337   21.0302 N   0  0  0  0  0  0  0  0  0  0  0  0
    7.3184   -0.7529   20.8484 N   0  0  0  0  0  0  0  0  0  0  0  0
    6.6305   -0.0334   19.8137 C   0  0  0  0  0  0  0  0  0  0  0  0
    7.2509    0.1335   18.5615 C   0  0  0  0  0  0  0  0  0  0  0  0
    8.2574   -0.2575   18.4139 H   0  0  0  0  0  0  0  0  0  0  0  0
    6.6671    0.7729   17.5438 N   0  0  0  0  0  0  0  0  0  0  0  0
    5.4678    1.3383   17.7742 C   0  0  0  0  0  0  0  0  0  0  0  0
    5.0189    1.8549   16.9305 H   0  0  0  0  0  0  0  0  0  0  0  0
    4.8151    1.2950   19.0100 C   0  0  0  0  0  0  0  0  0  0  0  0
    3.8791    1.8265   19.1445 H   0  0  0  0  0  0  0  0  0  0  0  0
    5.4054    0.5853   20.0615 C   0  0  0  0  0  0  0  0  0  0  0  0
    4.9580    0.5319   21.0532 H   0  0  0  0  0  0  0  0  0  0  0  0
    6.6665   -1.8125   21.5878 C   0  0  0  0  0  0  0  0  0  0  0  0
    5.5724   -2.2531   21.2910 O   0  0  0  0  0  0  0  0  0  0  0  0
    7.4900   -2.2974   22.6939 C   0  0  0  0  0  0  0  0  0  0  0  0
    7.0079   -3.0383   23.3180 H   0  0  0  0  0  0  0  0  0  0  0  0
    8.7603   -1.8522   22.8937 C   0  0  0  0  0  0  0  0  0  0  0  0
    9.4027   -2.2279   23.6860 H   0  0  0  0  0  0  0  0  0  0  0  0
   11.1011    1.2271   21.5184 S   0  0  0  0  0  0  0  0  0  0  0  0
   12.6664    1.0461   22.1940 C   0  0  0  0  0  0  0  0  0  0  0  0
   13.4145    1.8208   22.1424 H   0  0  0  0  0  0  0  0  0  0  0  0
  1  2  1  0
  2  3  1  0
  3  4  2  0
  4  5  1  0
  5  6  2  0
  6  7  1  0
  7  8  1  0
  8  9  2  0
  9 10  1  0
  9 11  1  0
 11 12  2  0
 12 13  1  0
 12 14  1  0
 14 15  1  0
 14 16  2  0
 16 17  1  0
  7 18  1  0
 18 19  2  0
 18 20  1  0
 20 21  1  0
 20 22  2  0
 22 23  1  0
  4 24  1  0
 24 25  1  0
 25 26  1  0
 25  2  2  0
 22  5  1  0
 16  8  1  0
M  END
>  <cnnaffinity>  (1) 
-4.50914

>  <filename>  (1) 
O=c1ccc(-c2nccs2)nn1-c1cccnc1

$$$$
