
     RDKit          3D

 35 37  0  0  0  0  0  0  0  0999 V2000
    4.9093    1.7805   16.9950 H   0  0  0  0  0  0  0  0  0  0  0  0
    5.3987    1.2959   17.8355 C   0  0  0  0  0  0  0  0  0  0  0  0
    6.5639    0.6827   17.5670 N   0  0  0  0  0  0  0  0  0  0  0  0
    7.1860    0.0782   18.5868 C   0  0  0  0  0  0  0  0  0  0  0  0
    8.1230   -0.4328   18.3702 H   0  0  0  0  0  0  0  0  0  0  0  0
    6.6764    0.0331   19.8967 C   0  0  0  0  0  0  0  0  0  0  0  0
    7.3705   -0.6599   20.9440 N   0  0  0  0  0  0  0  0  0  0  0  0
    8.6598   -0.2452   21.2745 C   0  0  0  0  0  0  0  0  0  0  0  0
    9.0466    0.5964   20.7003 H   0  0  0  0  0  0  0  0  0  0  0  0
    9.3758   -0.8560   22.2656 C   0  0  0  0  0  0  0  0  0  0  0  0
   10.6446   -0.5387   22.6652 O   0  0  0  0  0  0  0  0  0  0  0  0
   11.3671    0.5595   22.0681 C   0  0  0  0  0  0  0  0  0  0  0  0
   11.3547    0.4488   20.9792 H   0  0  0  0  0  0  0  0  0  0  0  0
   12.8125    0.5119   22.5758 C   0  0  0  0  0  0  0  0  0  0  0  0
   13.4916    0.8384   21.7850 H   0  0  0  0  0  0  0  0  0  0  0  0
   13.1119   -0.4998   22.8578 H   0  0  0  0  0  0  0  0  0  0  0  0
   12.8891    1.5013   23.7410 C   0  0  0  0  0  0  0  0  0  0  0  0
   12.5850    1.0033   24.6666 H   0  0  0  0  0  0  0  0  0  0  0  0
   13.9010    1.8898   23.8823 H   0  0  0  0  0  0  0  0  0  0  0  0
   11.8975    2.6124   23.3739 C   0  0  0  0  0  0  0  0  0  0  0  0
   11.4699    3.0775   24.2669 H   0  0  0  0  0  0  0  0  0  0  0  0
   12.4019    3.4013   22.8039 H   0  0  0  0  0  0  0  0  0  0  0  0
   10.8120    1.9372   22.5030 C   0  0  0  0  0  0  0  0  0  0  0  0
   10.5662    2.5586   21.6353 H   0  0  0  0  0  0  0  0  0  0  0  0
    9.8904    1.7959   23.0739 H   0  0  0  0  0  0  0  0  0  0  0  0
    8.7565   -1.9537   22.9678 C   0  0  0  0  0  0  0  0  0  0  0  0
    9.3207   -2.4390   23.7642 H   0  0  0  0  0  0  0  0  0  0  0  0
    7.5018   -2.3682   22.6511 C   0  0  0  0  0  0  0  0  0  0  0  0
    6.9947   -3.1860   23.1421 H   0  0  0  0  0  0  0  0  0  0  0  0
    6.7013   -1.7557   21.6010 C   0  0  0  0  0  0  0  0  0  0  0  0
    5.5888   -2.1395   21.2752 O   0  0  0  0  0  0  0  0  0  0  0  0
    5.4496    0.6547   20.1588 C   0  0  0  0  0  0  0  0  0  0  0  0
    5.0194    0.6131   21.1615 H   0  0  0  0  0  0  0  0  0  0  0  0
    4.8096    1.3139   19.1062 C   0  0  0  0  0  0  0  0  0  0  0  0
    3.8740    1.8428   19.2620 H   0  0  0  0  0  0  0  0  0  0  0  0
  1  2  1  0
  2  3  2  0
  3  4  1  0
  4  5  1  0
  4  6  2  0
  6  7  1  0
  7  8  1  0
  8  9  1  0
  8 10  2  0
 10 11  1  0
 11 12  1  0
 12 13  1  0
 12 14  1  0
 14 15  1  0
 14 16  1  0
 14 17  1  0
 17 18  1  0
 17 19  1  0
 17 20  1  0
 20 21  1  0
 20 22  1  0
 20 23  1  0
 23 24  1  0
 23 25  1  0
 10 26  1  0
 26 27  1  0
 26 28  2  0
 28 29  1  0
 28 30  1  0
 30 31  2  0
  6 32  1  0
 32 33  1  0
 32 34  2  0
 34 35  1  0
 34  2  1  0
 30  7  1  0
 23 12  1  0
M  END
>  <cnnaffinity>  (1) 
-5.21598

>  <filename>  (1) 
O=c1ccc(OC2CCCC2)cn1-c1cccnc1

$$$$
