
     RDKit          3D

 35 38  0  0  0  0  0  0  0  0999 V2000
    4.9128    1.7917   16.9880 H   0  0  0  0  0  0  0  0  0  0  0  0
    5.3907    1.2995   17.8310 C   0  0  0  0  0  0  0  0  0  0  0  0
    6.5485    0.6757   17.5645 N   0  0  0  0  0  0  0  0  0  0  0  0
    7.1681    0.0595   18.5760 C   0  0  0  0  0  0  0  0  0  0  0  0
    8.1208   -0.4187   18.3609 H   0  0  0  0  0  0  0  0  0  0  0  0
    6.6520    0.0116   19.8834 C   0  0  0  0  0  0  0  0  0  0  0  0
    7.3493   -0.6776   20.9385 N   0  0  0  0  0  0  0  0  0  0  0  0
    6.7212   -1.7273   21.5919 C   0  0  0  0  0  0  0  0  0  0  0  0
    5.7056   -1.9433   21.2540 H   0  0  0  0  0  0  0  0  0  0  0  0
    7.3147   -2.4264   22.5906 C   0  0  0  0  0  0  0  0  0  0  0  0
    6.6250   -3.5332   23.2767 C   0  0  0  0  0  0  0  0  0  0  0  0
    6.6158   -3.6085   24.7011 C   0  0  0  0  0  0  0  0  0  0  0  0
    7.1466   -2.8361   25.2548 H   0  0  0  0  0  0  0  0  0  0  0  0
    5.9594   -4.6343   25.3671 C   0  0  0  0  0  0  0  0  0  0  0  0
    5.9522   -4.6895   26.4538 H   0  0  0  0  0  0  0  0  0  0  0  0
    5.3128   -5.6044   24.5761 C   0  0  0  0  0  0  0  0  0  0  0  0
    5.3107   -5.5563   23.1602 C   0  0  0  0  0  0  0  0  0  0  0  0
    5.9702   -4.5051   22.5151 C   0  0  0  0  0  0  0  0  0  0  0  0
    6.0020   -4.4629   21.4297 H   0  0  0  0  0  0  0  0  0  0  0  0
    4.5568   -6.6836   22.7019 C   0  0  0  0  0  0  0  0  0  0  0  0
    4.3713   -6.9268   21.6654 H   0  0  0  0  0  0  0  0  0  0  0  0
    4.1392   -7.3637   23.8059 C   0  0  0  0  0  0  0  0  0  0  0  0
    3.5415   -8.2651   23.8793 H   0  0  0  0  0  0  0  0  0  0  0  0
    4.5969   -6.7141   24.9380 N   0  0  0  0  0  0  0  0  0  0  0  0
    4.4414   -6.9813   25.8930 H   0  0  0  0  0  0  0  0  0  0  0  0
    8.6985   -2.0699   22.9839 C   0  0  0  0  0  0  0  0  0  0  0  0
    9.4166   -2.5820   23.8135 O   0  0  0  0  0  0  0  0  0  0  0  0
    9.2210   -1.0162   22.2771 N   0  0  0  0  0  0  0  0  0  0  0  0
   10.1528   -0.7510   22.5184 H   0  0  0  0  0  0  0  0  0  0  0  0
    8.6587   -0.2835   21.2938 C   0  0  0  0  0  0  0  0  0  0  0  0
    9.2829    0.6171   20.7784 O   0  0  0  0  0  0  0  0  0  0  0  0
    5.4367    0.6463   20.1506 C   0  0  0  0  0  0  0  0  0  0  0  0
    5.0279    0.6234   21.1639 H   0  0  0  0  0  0  0  0  0  0  0  0
    4.8028    1.3182   19.1013 C   0  0  0  0  0  0  0  0  0  0  0  0
    3.8715    1.8475   19.2563 H   0  0  0  0  0  0  0  0  0  0  0  0
  1  2  1  0
  2  3  2  0
  3  4  1  0
  4  5  1  0
  4  6  2  0
  6  7  1  0
  7  8  1  0
  8  9  1  0
  8 10  2  0
 10 11  1  0
 11 12  2  0
 12 13  1  0
 12 14  1  0
 14 15  1  0
 14 16  2  0
 16 17  1  0
 17 18  2  0
 18 19  1  0
 17 20  1  0
 20 21  1  0
 20 22  2  0
 22 23  1  0
 22 24  1  0
 24 25  1  0
 10 26  1  0
 26 27  2  0
 26 28  1  0
 28 29  1  0
 28 30  1  0
 30 31  2  0
  6 32  1  0
 32 33  1  0
 32 34  2  0
 34 35  1  0
 34  2  1  0
 30  7  1  0
 18 11  1  0
 24 16  1  0
M  END
>  <cnnaffinity>  (1) 
-5.36289

>  <filename>  (1) 
O=c1[nH]c(=O)n(-c2cccnc2)cc1-c1ccc2[nH]ccc2c1

$$$$
