
     RDKit          3D

 29 31  0  0  0  0  0  0  0  0999 V2000
    4.9067    1.7758   17.0021 H   0  0  0  0  0  0  0  0  0  0  0  0
    5.3977    1.2939   17.8430 C   0  0  0  0  0  0  0  0  0  0  0  0
    6.5632    0.6787   17.5793 N   0  0  0  0  0  0  0  0  0  0  0  0
    7.1802    0.0589   18.5924 C   0  0  0  0  0  0  0  0  0  0  0  0
    8.1293   -0.4311   18.3836 H   0  0  0  0  0  0  0  0  0  0  0  0
    6.6667    0.0019   19.9084 C   0  0  0  0  0  0  0  0  0  0  0  0
    7.3581   -0.6863   20.9493 N   0  0  0  0  0  0  0  0  0  0  0  0
    6.7690   -1.4485   21.9518 C   0  0  0  0  0  0  0  0  0  0  0  0
    5.7022   -1.5975   21.9859 H   0  0  0  0  0  0  0  0  0  0  0  0
    7.7394   -1.9384   22.7546 C   0  0  0  0  0  0  0  0  0  0  0  0
    7.6140   -2.7867   23.9361 C   0  0  0  0  0  0  0  0  0  0  0  0
    6.3662   -2.8528   24.5811 C   0  0  0  0  0  0  0  0  0  0  0  0
    5.5243   -2.2661   24.2291 H   0  0  0  0  0  0  0  0  0  0  0  0
    6.2196   -3.6639   25.6996 C   0  0  0  0  0  0  0  0  0  0  0  0
    4.6808   -3.7422   26.5004 Cl  0  0  0  0  0  0  0  0  0  0  0  0
    7.2870   -4.4178   26.1929 C   0  0  0  0  0  0  0  0  0  0  0  0
    7.1618   -5.0467   27.0638 H   0  0  0  0  0  0  0  0  0  0  0  0
    8.5191   -4.3438   25.5376 C   0  0  0  0  0  0  0  0  0  0  0  0
    9.8568   -5.2772   26.1362 Cl  0  0  0  0  0  0  0  0  0  0  0  0
    8.6972   -3.5404   24.4167 C   0  0  0  0  0  0  0  0  0  0  0  0
    9.6611   -3.5180   23.9198 H   0  0  0  0  0  0  0  0  0  0  0  0
    8.9454   -1.4778   22.2358 N   0  0  0  0  0  0  0  0  0  0  0  0
    9.8727   -1.6042   22.5944 H   0  0  0  0  0  0  0  0  0  0  0  0
    8.7510   -0.6815   21.1366 C   0  0  0  0  0  0  0  0  0  0  0  0
    9.5929   -0.1088   20.4748 O   0  0  0  0  0  0  0  0  0  0  0  0
    5.4470    0.6451   20.1624 C   0  0  0  0  0  0  0  0  0  0  0  0
    5.0141    0.6301   21.1620 H   0  0  0  0  0  0  0  0  0  0  0  0
    4.8080    1.3113   19.1113 C   0  0  0  0  0  0  0  0  0  0  0  0
    3.8731    1.8439   19.2681 H   0  0  0  0  0  0  0  0  0  0  0  0
  1  2  1  0
  2  3  2  0
  3  4  1  0
  4  5  1  0
  4  6  2  0
  6  7  1  0
  7  8  1  0
  8  9  1  0
  8 10  2  0
 10 11  1  0
 11 12  2  0
 12 13  1  0
 12 14  1  0
 14 15  1  0
 14 16  2  0
 16 17  1  0
 16 18  1  0
 18 19  1  0
 18 20  2  0
 20 21  1  0
 10 22  1  0
 22 23  1  0
 22 24  1  0
 24 25  2  0
  6 26  1  0
 26 27  1  0
 26 28  2  0
 28 29  1  0
 28  2  1  0
 24  7  1  0
 20 11  1  0
M  END
>  <cnnaffinity>  (1) 
-5.76002

>  <filename>  (1) 
O=c1[nH]c(-c2cc(Cl)cc(Cl)c2)cn1-c1cccnc1

$$$$
