
     RDKit          3D

 32 34  0  0  0  0  0  0  0  0999 V2000
    4.9119    1.7842   16.9955 H   0  0  0  0  0  0  0  0  0  0  0  0
    5.3987    1.2947   17.8339 C   0  0  0  0  0  0  0  0  0  0  0  0
    6.5629    0.6834   17.5661 N   0  0  0  0  0  0  0  0  0  0  0  0
    7.1700    0.0669   18.5836 C   0  0  0  0  0  0  0  0  0  0  0  0
    8.1204   -0.4192   18.3623 H   0  0  0  0  0  0  0  0  0  0  0  0
    6.6616   -0.0010   19.8889 C   0  0  0  0  0  0  0  0  0  0  0  0
    7.4006   -0.7314   20.9826 C   0  0  2  0  0  0  0  0  0  0  0  0
    8.2974   -1.1941   20.5541 H   0  0  0  0  0  0  0  0  0  0  0  0
    6.5658   -1.8499   21.6458 C   0  0  0  0  0  0  0  0  0  0  0  0
    5.5002   -1.7918   21.3739 H   0  0  0  0  0  0  0  0  0  0  0  0
    6.9221   -2.8408   21.3343 H   0  0  0  0  0  0  0  0  0  0  0  0
    6.7690   -1.6242   23.0546 N   0  0  0  0  0  0  0  0  0  0  0  0
    6.3716   -2.1769   23.7963 H   0  0  0  0  0  0  0  0  0  0  0  0
    7.4158   -0.4940   23.4208 C   0  0  0  0  0  0  0  0  0  0  0  0
    7.5958   -0.1315   24.5605 O   0  0  0  0  0  0  0  0  0  0  0  0
    7.8445    0.2123   22.1336 C   0  0  1  0  0  0  0  0  0  0  0  0
    7.2846    1.1512   22.1232 H   0  0  0  0  0  0  0  0  0  0  0  0
    9.3195    0.5746   22.0849 C   0  0  0  0  0  0  0  0  0  0  0  0
   10.3104   -0.3753   22.3423 C   0  0  0  0  0  0  0  0  0  0  0  0
    9.9144   -1.6233   22.6521 F   0  0  0  0  0  0  0  0  0  0  0  0
   11.6743   -0.1114   22.2903 C   0  0  0  0  0  0  0  0  0  0  0  0
   12.3768   -0.9062   22.5123 H   0  0  0  0  0  0  0  0  0  0  0  0
   12.0827    1.1770   21.9406 C   0  0  0  0  0  0  0  0  0  0  0  0
   13.1403    1.4062   21.8978 H   0  0  0  0  0  0  0  0  0  0  0  0
   11.1434    2.1656   21.6419 C   0  0  0  0  0  0  0  0  0  0  0  0
   11.4320    3.1733   21.3605 H   0  0  0  0  0  0  0  0  0  0  0  0
    9.7927    1.8408   21.7184 C   0  0  0  0  0  0  0  0  0  0  0  0
    8.8955    2.7987   21.4166 F   0  0  0  0  0  0  0  0  0  0  0  0
    5.4452    0.6479   20.1502 C   0  0  0  0  0  0  0  0  0  0  0  0
    5.0119    0.6328   21.1560 H   0  0  0  0  0  0  0  0  0  0  0  0
    4.8079    1.3100   19.1025 C   0  0  0  0  0  0  0  0  0  0  0  0
    3.8761    1.8427   19.2587 H   0  0  0  0  0  0  0  0  0  0  0  0
  1  2  1  0
  2  3  2  0
  3  4  1  0
  4  5  1  0
  4  6  2  0
  6  7  1  0
  7  8  1  6
  7  9  1  0
  9 10  1  0
  9 11  1  0
  9 12  1  0
 12 13  1  0
 12 14  1  0
 14 15  2  0
 14 16  1  0
 16 17  1  6
 16 18  1  0
 18 19  2  0
 19 20  1  0
 19 21  1  0
 21 22  1  0
 21 23  2  0
 23 24  1  0
 23 25  1  0
 25 26  1  0
 25 27  2  0
 27 28  1  0
  6 29  1  0
 29 30  1  0
 29 31  2  0
 31 32  1  0
 31  2  1  0
 16  7  1  0
 27 18  1  0
M  END
>  <cnnaffinity>  (1) 
-5.1477

>  <filename>  (1) 
O=C1NC[C@@H](c2cccnc2)[C@@H]1c1c(F)cccc1F

$$$$
