
     RDKit          3D

 34 37  0  0  0  0  0  0  0  0999 V2000
    4.9317    1.7982   16.9830 H   0  0  0  0  0  0  0  0  0  0  0  0
    5.3903    1.2996   17.8335 C   0  0  0  0  0  0  0  0  0  0  0  0
    6.5455    0.6693   17.5767 N   0  0  0  0  0  0  0  0  0  0  0  0
    7.1341    0.0374   18.5939 C   0  0  0  0  0  0  0  0  0  0  0  0
    8.1077   -0.4111   18.3960 H   0  0  0  0  0  0  0  0  0  0  0  0
    6.5952   -0.0267   19.8916 C   0  0  0  0  0  0  0  0  0  0  0  0
    7.3156   -0.7430   20.9832 C   0  0  0  0  0  0  0  0  0  0  0  0
    6.5721   -1.4798   21.7654 N   0  0  0  0  0  0  0  0  0  0  0  0
    7.1637   -2.1917   22.7841 N   0  0  0  0  0  0  0  0  0  0  0  0
    6.3661   -3.0329   23.5937 C   0  0  0  0  0  0  0  0  0  0  0  0
    6.7224   -3.8654   24.6318 C   0  0  0  0  0  0  0  0  0  0  0  0
    7.7245   -4.0873   24.9705 H   0  0  0  0  0  0  0  0  0  0  0  0
    5.5162   -4.4425   25.1353 C   0  0  0  0  0  0  0  0  0  0  0  0
    5.2365   -5.3801   26.1502 C   0  0  0  0  0  0  0  0  0  0  0  0
    6.0640   -5.8123   26.7082 H   0  0  0  0  0  0  0  0  0  0  0  0
    3.9173   -5.7341   26.3982 C   0  0  0  0  0  0  0  0  0  0  0  0
    3.6997   -6.4601   27.1745 H   0  0  0  0  0  0  0  0  0  0  0  0
    2.8557   -5.1585   25.6555 C   0  0  0  0  0  0  0  0  0  0  0  0
    1.8330   -5.4552   25.8794 H   0  0  0  0  0  0  0  0  0  0  0  0
    3.1006   -4.2355   24.6426 C   0  0  0  0  0  0  0  0  0  0  0  0
    2.2715   -3.7957   24.0938 H   0  0  0  0  0  0  0  0  0  0  0  0
    4.4396   -3.9096   24.3667 C   0  0  0  0  0  0  0  0  0  0  0  0
    5.0078   -3.1067   23.4004 N   0  0  0  0  0  0  0  0  0  0  0  0
    4.5426   -2.4487   22.7924 H   0  0  0  0  0  0  0  0  0  0  0  0
    8.5206   -2.0962   23.0260 C   0  0  0  0  0  0  0  0  0  0  0  0
    8.8569   -2.6854   23.8694 H   0  0  0  0  0  0  0  0  0  0  0  0
    9.3501   -1.3427   22.2878 C   0  0  0  0  0  0  0  0  0  0  0  0
   10.4147   -1.2699   22.4680 H   0  0  0  0  0  0  0  0  0  0  0  0
    8.8095   -0.5608   21.1783 C   0  0  0  0  0  0  0  0  0  0  0  0
    9.5166    0.1666   20.4938 O   0  0  0  0  0  0  0  0  0  0  0  0
    5.3914    0.6393   20.1482 C   0  0  0  0  0  0  0  0  0  0  0  0
    4.9817    0.6285   21.1599 H   0  0  0  0  0  0  0  0  0  0  0  0
    4.7862    1.3247   19.0956 C   0  0  0  0  0  0  0  0  0  0  0  0
    3.8611    1.8686   19.2336 H   0  0  0  0  0  0  0  0  0  0  0  0
  1  2  1  0
  2  3  2  0
  3  4  1  0
  4  5  1  0
  4  6  2  0
  6  7  1  0
  7  8  2  0
  8  9  1  0
  9 10  1  0
 10 11  2  0
 11 12  1  0
 11 13  1  0
 13 14  2  0
 14 15  1  0
 14 16  1  0
 16 17  1  0
 16 18  2  0
 18 19  1  0
 18 20  1  0
 20 21  1  0
 20 22  2  0
 22 23  1  0
 23 24  1  0
  9 25  1  0
 25 26  1  0
 25 27  2  0
 27 28  1  0
 27 29  1  0
 29 30  2  0
  6 31  1  0
 31 32  1  0
 31 33  2  0
 33 34  1  0
 33  2  1  0
 29  7  1  0
 23 10  1  0
 22 13  1  0
M  END
>  <cnnaffinity>  (1) 
-5.28665

>  <filename>  (1) 
O=c1ccn(-c2cc3ccccc3[nH]2)nc1-c1cccnc1

$$$$
