
     RDKit          3D

 36 38  0  0  0  0  0  0  0  0999 V2000
    4.9246    1.8124   16.9811 H   0  0  0  0  0  0  0  0  0  0  0  0
    5.3829    1.2993   17.8242 C   0  0  0  0  0  0  0  0  0  0  0  0
    6.5354    0.6641   17.5596 N   0  0  0  0  0  0  0  0  0  0  0  0
    7.1511    0.0440   18.5702 C   0  0  0  0  0  0  0  0  0  0  0  0
    8.1119   -0.4146   18.3520 H   0  0  0  0  0  0  0  0  0  0  0  0
    6.6403   -0.0112   19.8816 C   0  0  0  0  0  0  0  0  0  0  0  0
    7.3542   -0.6809   20.9412 N   0  0  0  0  0  0  0  0  0  0  0  0
    6.7314   -1.7377   21.5855 C   0  0  0  0  0  0  0  0  0  0  0  0
    5.7268   -1.9734   21.2591 H   0  0  0  0  0  0  0  0  0  0  0  0
    7.3382   -2.4543   22.5796 C   0  0  0  0  0  0  0  0  0  0  0  0
    6.7593   -3.5716   23.2136 N   0  0  0  0  0  0  0  0  0  0  0  0
    5.8933   -4.4862   22.4776 C   0  0  0  0  0  0  0  0  0  0  0  0
    6.1981   -4.4571   21.4244 H   0  0  0  0  0  0  0  0  0  0  0  0
    4.8276   -4.1813   22.5167 H   0  0  0  0  0  0  0  0  0  0  0  0
    6.0243   -5.9158   23.0444 C   0  0  0  0  0  0  0  0  0  0  0  0
    7.0549   -6.2505   22.8557 H   0  0  0  0  0  0  0  0  0  0  0  0
    5.3644   -6.5913   22.4837 H   0  0  0  0  0  0  0  0  0  0  0  0
    5.7113   -5.9130   24.5575 C   0  0  0  0  0  0  0  0  0  0  0  0
    5.7604   -6.9034   25.0330 H   0  0  0  0  0  0  0  0  0  0  0  0
    4.6679   -5.5837   24.6988 H   0  0  0  0  0  0  0  0  0  0  0  0
    6.6586   -4.9260   25.2646 C   0  0  0  0  0  0  0  0  0  0  0  0
    6.4638   -4.8888   26.3450 H   0  0  0  0  0  0  0  0  0  0  0  0
    7.7050   -5.2450   25.1405 H   0  0  0  0  0  0  0  0  0  0  0  0
    6.5116   -3.5241   24.6537 C   0  0  0  0  0  0  0  0  0  0  0  0
    7.2165   -2.8181   25.1084 H   0  0  0  0  0  0  0  0  0  0  0  0
    5.4965   -3.1397   24.8827 H   0  0  0  0  0  0  0  0  0  0  0  0
    8.6598   -2.0562   22.9743 C   0  0  0  0  0  0  0  0  0  0  0  0
    9.1209   -2.6506   23.7605 H   0  0  0  0  0  0  0  0  0  0  0  0
    9.3030   -1.0274   22.3594 C   0  0  0  0  0  0  0  0  0  0  0  0
   10.3045   -0.7054   22.6019 H   0  0  0  0  0  0  0  0  0  0  0  0
    8.6893   -0.2558   21.2854 C   0  0  0  0  0  0  0  0  0  0  0  0
    9.2449    0.6638   20.7101 O   0  0  0  0  0  0  0  0  0  0  0  0
    5.4262    0.6346   20.1416 C   0  0  0  0  0  0  0  0  0  0  0  0
    5.0350    0.6200   21.1593 H   0  0  0  0  0  0  0  0  0  0  0  0
    4.7921    1.3129   19.0933 C   0  0  0  0  0  0  0  0  0  0  0  0
    3.8658    1.8567   19.2439 H   0  0  0  0  0  0  0  0  0  0  0  0
  1  2  1  0
  2  3  2  0
  3  4  1  0
  4  5  1  0
  4  6  2  0
  6  7  1  0
  7  8  1  0
  8  9  1  0
  8 10  2  0
 10 11  1  0
 11 12  1  0
 12 13  1  0
 12 14  1  0
 12 15  1  0
 15 16  1  0
 15 17  1  0
 15 18  1  0
 18 19  1  0
 18 20  1  0
 18 21  1  0
 21 22  1  0
 21 23  1  0
 21 24  1  0
 24 25  1  0
 24 26  1  0
 10 27  1  0
 27 28  1  0
 27 29  2  0
 29 30  1  0
 29 31  1  0
 31 32  2  0
  6 33  1  0
 33 34  1  0
 33 35  2  0
 35 36  1  0
 35  2  1  0
 31  7  1  0
 24 11  1  0
M  END
>  <cnnaffinity>  (1) 
-5.25001

>  <filename>  (1) 
O=c1ccc(N2CCCCC2)cn1-c1cccnc1

$$$$
