
     RDKit          3D

 30 31  0  0  0  0  0  0  0  0999 V2000
   12.8477    2.3631   23.3674 H   0  0  0  0  0  0  0  0  0  0  0  0
   13.1315    1.5493   23.8029 O   0  0  0  0  0  0  0  0  0  0  0  0
   12.7927    0.4989   22.9202 C   0  0  0  0  0  0  0  0  0  0  0  0
   13.3143   -0.3945   23.2734 H   0  0  0  0  0  0  0  0  0  0  0  0
   13.1633    0.7019   21.9044 H   0  0  0  0  0  0  0  0  0  0  0  0
   11.2955    0.2348   22.8804 C   0  0  0  0  0  0  0  0  0  0  0  0
   10.7719    1.1464   22.5703 H   0  0  0  0  0  0  0  0  0  0  0  0
   10.9536    0.0133   23.8991 H   0  0  0  0  0  0  0  0  0  0  0  0
   10.9182   -0.9102   21.9222 C   0  0  0  0  0  0  0  0  0  0  0  0
   11.2735   -0.6926   20.9091 H   0  0  0  0  0  0  0  0  0  0  0  0
   11.4017   -1.8331   22.2656 H   0  0  0  0  0  0  0  0  0  0  0  0
    9.4259   -1.1392   21.8780 C   0  0  0  0  0  0  0  0  0  0  0  0
    8.7451   -0.5406   20.9416 N   0  0  0  0  0  0  0  0  0  0  0  0
    7.3763   -0.6725   20.9447 N   0  0  0  0  0  0  0  0  0  0  0  0
    6.6683    0.0154   19.9094 C   0  0  0  0  0  0  0  0  0  0  0  0
    7.1886    0.0664   18.6044 C   0  0  0  0  0  0  0  0  0  0  0  0
    8.1308   -0.4281   18.3875 H   0  0  0  0  0  0  0  0  0  0  0  0
    6.5674    0.6698   17.5817 N   0  0  0  0  0  0  0  0  0  0  0  0
    5.4022    1.2918   17.8384 C   0  0  0  0  0  0  0  0  0  0  0  0
    4.9171    1.7803   16.9949 H   0  0  0  0  0  0  0  0  0  0  0  0
    4.8092    1.3109   19.1060 C   0  0  0  0  0  0  0  0  0  0  0  0
    3.8750    1.8419   19.2607 H   0  0  0  0  0  0  0  0  0  0  0  0
    5.4388    0.6454   20.1630 C   0  0  0  0  0  0  0  0  0  0  0  0
    5.0179    0.6356   21.1701 H   0  0  0  0  0  0  0  0  0  0  0  0
    6.7268   -1.4697   21.8589 C   0  0  0  0  0  0  0  0  0  0  0  0
    5.6459   -1.5530   21.7218 H   0  0  0  0  0  0  0  0  0  0  0  0
    7.3770   -2.1241   22.8418 C   0  0  0  0  0  0  0  0  0  0  0  0
    6.8725   -2.7404   23.5780 H   0  0  0  0  0  0  0  0  0  0  0  0
    8.8175   -1.9966   22.9553 C   0  0  0  0  0  0  0  0  0  0  0  0
    9.4675   -2.5461   23.8380 O   0  0  0  0  0  0  0  0  0  0  0  0
  1  2  1  0
  2  3  1  0
  3  4  1  0
  3  5  1  0
  3  6  1  0
  6  7  1  0
  6  8  1  0
  6  9  1  0
  9 10  1  0
  9 11  1  0
  9 12  1  0
 12 13  2  0
 13 14  1  0
 14 15  1  0
 15 16  2  0
 16 17  1  0
 16 18  1  0
 18 19  2  0
 19 20  1  0
 19 21  1  0
 21 22  1  0
 21 23  2  0
 23 24  1  0
 14 25  1  0
 25 26  1  0
 25 27  2  0
 27 28  1  0
 27 29  1  0
 29 30  2  0
 29 12  1  0
 23 15  1  0
M  END
>  <cnnaffinity>  (1) 
-4.86731

>  <filename>  (1) 
O=c1ccn(-c2cccnc2)nc1CCCO

$$$$
