
     RDKit          3D

 32 34  0  0  0  0  0  0  0  0999 V2000
    5.1637    2.0053   16.3322 H   0  0  0  0  0  0  0  0  0  0  0  0
    5.4185    1.4631   17.2407 C   0  0  0  0  0  0  0  0  0  0  0  0
    6.4283    0.5863   17.1290 N   0  0  0  0  0  0  0  0  0  0  0  0
    6.7649   -0.1130   18.2181 C   0  0  0  0  0  0  0  0  0  0  0  0
    7.5296   -0.8781   18.0989 H   0  0  0  0  0  0  0  0  0  0  0  0
    6.1636    0.0765   19.4717 C   0  0  0  0  0  0  0  0  0  0  0  0
    6.6107   -0.6526   20.6209 N   0  0  0  0  0  0  0  0  0  0  0  0
    6.9049    0.1066   21.7101 N   0  0  0  0  0  0  0  0  0  0  0  0
    7.4848   -0.4721   22.7372 C   0  0  0  0  0  0  0  0  0  0  0  0
    7.6534    0.3628   23.9856 C   0  0  0  0  0  0  0  0  0  0  0  0
    8.1253   -0.2514   25.0808 N   0  0  0  0  0  0  0  0  0  0  0  0
    8.1943    0.4222   26.2388 C   0  0  0  0  0  0  0  0  0  0  0  0
    8.6342   -0.4078   27.4629 C   0  0  0  0  0  0  0  0  0  0  0  0
    8.4699    0.2810   28.6101 F   0  0  0  0  0  0  0  0  0  0  0  0
    9.9274   -0.7645   27.3943 F   0  0  0  0  0  0  0  0  0  0  0  0
    7.9212   -1.5414   27.5828 F   0  0  0  0  0  0  0  0  0  0  0  0
    7.8633    1.7800   26.3408 C   0  0  0  0  0  0  0  0  0  0  0  0
    7.9760    2.3030   27.2841 H   0  0  0  0  0  0  0  0  0  0  0  0
    7.3718    2.4229   25.2008 C   0  0  0  0  0  0  0  0  0  0  0  0
    7.0606    3.4629   25.2299 H   0  0  0  0  0  0  0  0  0  0  0  0
    7.2551    1.7103   24.0093 C   0  0  0  0  0  0  0  0  0  0  0  0
    6.8652    2.1383   23.0965 H   0  0  0  0  0  0  0  0  0  0  0  0
    7.8851   -1.8626   22.7015 C   0  0  0  0  0  0  0  0  0  0  0  0
    8.4760   -2.2617   23.5244 H   0  0  0  0  0  0  0  0  0  0  0  0
    7.4616   -2.6393   21.6670 C   0  0  0  0  0  0  0  0  0  0  0  0
    7.6540   -3.6991   21.5661 H   0  0  0  0  0  0  0  0  0  0  0  0
    6.6091   -2.0936   20.6146 C   0  0  0  0  0  0  0  0  0  0  0  0
    5.9888   -2.7492   19.8019 O   0  0  0  0  0  0  0  0  0  0  0  0
    5.1303    1.0099   19.5902 C   0  0  0  0  0  0  0  0  0  0  0  0
    4.7036    1.2077   20.5725 H   0  0  0  0  0  0  0  0  0  0  0  0
    4.7226    1.6827   18.4343 C   0  0  0  0  0  0  0  0  0  0  0  0
    3.8809    2.3673   18.4436 H   0  0  0  0  0  0  0  0  0  0  0  0
  1  2  1  0
  2  3  2  0
  3  4  1  0
  4  5  1  0
  4  6  2  0
  6  7  1  0
  7  8  1  0
  8  9  2  0
  9 10  1  0
 10 11  2  0
 11 12  1  0
 12 13  1  0
 13 14  1  0
 13 15  1  0
 13 16  1  0
 12 17  2  0
 17 18  1  0
 17 19  1  0
 19 20  1  0
 19 21  2  0
 21 22  1  0
  9 23  1  0
 23 24  1  0
 23 25  2  0
 25 26  1  0
 25 27  1  0
 27 28  2  0
  6 29  1  0
 29 30  1  0
 29 31  2  0
 31 32  1  0
 31  2  1  0
 27  7  1  0
 21 10  1  0
M  END
>  <cnnaffinity>  (1) 
-5.42383

>  <filename>  (1) 
O=c1ccc(-c2cccc(C(F)(F)F)n2)nn1-c1cccnc1

$$$$
