
     RDKit          3D

 31 33  0  0  0  0  0  0  0  0999 V2000
    3.1443   -3.8079   23.8277 H   0  0  0  0  0  0  0  0  0  0  0  0
    4.2110   -3.8329   24.0488 C   0  0  0  0  0  0  0  0  0  0  0  0
    4.9978   -3.1682   23.2202 N   0  0  0  0  0  0  0  0  0  0  0  0
    6.2775   -3.0542   23.5784 C   0  0  0  0  0  0  0  0  0  0  0  0
    7.1218   -2.2208   22.7897 N   0  0  0  0  0  0  0  0  0  0  0  0
    6.5624   -1.4815   21.7560 N   0  0  0  0  0  0  0  0  0  0  0  0
    7.3109   -0.7502   20.9883 C   0  0  0  0  0  0  0  0  0  0  0  0
    6.5873   -0.0372   19.8930 C   0  0  0  0  0  0  0  0  0  0  0  0
    7.1258    0.0288   18.5972 C   0  0  0  0  0  0  0  0  0  0  0  0
    8.1031   -0.4088   18.4001 H   0  0  0  0  0  0  0  0  0  0  0  0
    6.5395    0.6639   17.5797 N   0  0  0  0  0  0  0  0  0  0  0  0
    5.3882    1.2990   17.8343 C   0  0  0  0  0  0  0  0  0  0  0  0
    4.9391    1.8067   16.9822 H   0  0  0  0  0  0  0  0  0  0  0  0
    4.7811    1.3201   19.0967 C   0  0  0  0  0  0  0  0  0  0  0  0
    3.8595    1.8722   19.2284 H   0  0  0  0  0  0  0  0  0  0  0  0
    5.3826    0.6263   20.1484 C   0  0  0  0  0  0  0  0  0  0  0  0
    4.9764    0.6113   21.1612 H   0  0  0  0  0  0  0  0  0  0  0  0
    8.7983   -0.5897   21.2186 C   0  0  0  0  0  0  0  0  0  0  0  0
    9.5293    0.1304   20.5524 O   0  0  0  0  0  0  0  0  0  0  0  0
    9.3086   -1.3827   22.3314 C   0  0  0  0  0  0  0  0  0  0  0  0
   10.3714   -1.3066   22.5067 H   0  0  0  0  0  0  0  0  0  0  0  0
    8.4810   -2.1422   23.0651 C   0  0  0  0  0  0  0  0  0  0  0  0
    8.8106   -2.7438   23.9082 H   0  0  0  0  0  0  0  0  0  0  0  0
    6.8398   -3.6819   24.6225 N   0  0  0  0  0  0  0  0  0  0  0  0
    6.0626   -4.4501   25.3998 C   0  0  0  0  0  0  0  0  0  0  0  0
    6.6592   -5.2815   26.5850 C   0  0  0  0  0  0  0  0  0  0  0  0
    6.0806   -4.9254   27.7522 F   0  0  0  0  0  0  0  0  0  0  0  0
    7.9791   -5.1519   26.7304 F   0  0  0  0  0  0  0  0  0  0  0  0
    6.3912   -6.5959   26.4207 F   0  0  0  0  0  0  0  0  0  0  0  0
    4.6905   -4.5250   25.1584 C   0  0  0  0  0  0  0  0  0  0  0  0
    4.0274   -5.1185   25.7691 H   0  0  0  0  0  0  0  0  0  0  0  0
  1  2  1  0
  2  3  2  0
  3  4  1  0
  4  5  1  0
  5  6  1  0
  6  7  2  0
  7  8  1  0
  8  9  2  0
  9 10  1  0
  9 11  1  0
 11 12  2  0
 12 13  1  0
 12 14  1  0
 14 15  1  0
 14 16  2  0
 16 17  1  0
  7 18  1  0
 18 19  2  0
 18 20  1  0
 20 21  1  0
 20 22  2  0
 22 23  1  0
  4 24  2  0
 24 25  1  0
 25 26  1  0
 26 27  1  0
 26 28  1  0
 26 29  1  0
 25 30  2  0
 30 31  1  0
 30  2  1  0
 22  5  1  0
 16  8  1  0
M  END
>  <cnnaffinity>  (1) 
-5.48458

>  <filename>  (1) 
O=c1ccn(-c2nccc(C(F)(F)F)n2)nc1-c1cccnc1

$$$$
