
     RDKit          3D

 44 47  0  0  0  0  0  0  0  0999 V2000
    4.9497    1.7273   16.9751 H   0  0  0  0  0  0  0  0  0  0  0  0
    5.3986    1.3141   17.8718 C   0  0  0  0  0  0  0  0  0  0  0  0
    6.6009    0.7478   17.7033 N   0  0  0  0  0  0  0  0  0  0  0  0
    7.1706    0.2161   18.7830 C   0  0  0  0  0  0  0  0  0  0  0  0
    8.1522   -0.2190   18.6105 H   0  0  0  0  0  0  0  0  0  0  0  0
    6.6020    0.2014   20.0716 C   0  0  0  0  0  0  0  0  0  0  0  0
    7.3524   -0.5013   21.1612 C   0  0  0  0  0  0  0  0  0  0  0  0
    7.2021   -0.1057   22.4076 N   0  0  0  0  0  0  0  0  0  0  0  0
    7.8862   -0.7969   23.3831 N   0  0  0  0  0  0  0  0  0  0  0  0
    7.8728   -0.2371   24.6318 N   0  0  0  0  0  0  0  0  0  0  0  0
    7.0621   -0.9157   25.6438 C   0  0  0  0  0  0  0  0  0  0  0  0
    6.0047   -0.6369   25.5370 H   0  0  0  0  0  0  0  0  0  0  0  0
    7.1351   -1.9958   25.5003 H   0  0  0  0  0  0  0  0  0  0  0  0
    7.5635   -0.5232   27.0400 C   0  0  0  0  0  0  0  0  0  0  0  0
    8.5704   -0.9526   27.1894 H   0  0  0  0  0  0  0  0  0  0  0  0
    6.9003   -0.9548   27.7990 H   0  0  0  0  0  0  0  0  0  0  0  0
    7.5606    0.9331   27.1608 N   0  0  0  0  0  0  0  0  0  0  0  0
    7.4412    1.5311   28.4303 C   0  0  0  0  0  0  0  0  0  0  0  0
    8.0326    0.9809   29.5781 C   0  0  0  0  0  0  0  0  0  0  0  0
    8.7093    0.1417   29.4564 H   0  0  0  0  0  0  0  0  0  0  0  0
    7.7650    1.5310   30.8344 C   0  0  0  0  0  0  0  0  0  0  0  0
    8.2201    1.0818   31.7131 H   0  0  0  0  0  0  0  0  0  0  0  0
    6.9131    2.6353   30.9539 C   0  0  0  0  0  0  0  0  0  0  0  0
    6.6731    3.0351   31.9369 H   0  0  0  0  0  0  0  0  0  0  0  0
    6.3876    3.2341   29.8015 C   0  0  0  0  0  0  0  0  0  0  0  0
    5.7735    4.1289   29.8759 H   0  0  0  0  0  0  0  0  0  0  0  0
    6.6715    2.6983   28.5438 C   0  0  0  0  0  0  0  0  0  0  0  0
    6.3080    3.1497   27.6238 H   0  0  0  0  0  0  0  0  0  0  0  0
    8.3842    1.5981   26.1510 C   0  0  0  0  0  0  0  0  0  0  0  0
    8.3387    2.6849   26.2882 H   0  0  0  0  0  0  0  0  0  0  0  0
    9.4445    1.2980   26.2345 H   0  0  0  0  0  0  0  0  0  0  0  0
    7.8723    1.2268   24.7487 C   0  0  0  0  0  0  0  0  0  0  0  0
    6.8568    1.6164   24.5979 H   0  0  0  0  0  0  0  0  0  0  0  0
    8.5075    1.6558   23.9688 H   0  0  0  0  0  0  0  0  0  0  0  0
    8.6269   -2.0268   23.2122 C   0  0  0  0  0  0  0  0  0  0  0  0
    9.0325   -2.7004   24.1457 O   0  0  0  0  0  0  0  0  0  0  0  0
    8.8496   -2.3097   21.8198 C   0  0  0  0  0  0  0  0  0  0  0  0
    9.5199   -3.1403   21.6331 H   0  0  0  0  0  0  0  0  0  0  0  0
    8.2668   -1.5572   20.8499 C   0  0  0  0  0  0  0  0  0  0  0  0
    8.4995   -1.7512   19.8175 H   0  0  0  0  0  0  0  0  0  0  0  0
    5.3594    0.8419   20.2396 C   0  0  0  0  0  0  0  0  0  0  0  0
    4.8944    0.9284   21.2253 H   0  0  0  0  0  0  0  0  0  0  0  0
    4.7460    1.3894   19.1077 C   0  0  0  0  0  0  0  0  0  0  0  0
    3.7878    1.8917   19.1660 H   0  0  0  0  0  0  0  0  0  0  0  0
  1  2  1  0
  2  3  2  0
  3  4  1  0
  4  5  1  0
  4  6  2  0
  6  7  1  0
  7  8  2  0
  8  9  1  0
  9 10  1  0
 10 11  1  0
 11 12  1  0
 11 13  1  0
 11 14  1  0
 14 15  1  0
 14 16  1  0
 14 17  1  0
 17 18  1  0
 18 19  2  0
 19 20  1  0
 19 21  1  0
 21 22  1  0
 21 23  2  0
 23 24  1  0
 23 25  1  0
 25 26  1  0
 25 27  2  0
 27 28  1  0
 17 29  1  0
 29 30  1  0
 29 31  1  0
 29 32  1  0
 32 33  1  0
 32 34  1  0
  9 35  1  0
 35 36  2  0
 35 37  1  0
 37 38  1  0
 37 39  2  0
 39 40  1  0
  6 41  1  0
 41 42  1  0
 41 43  2  0
 43 44  1  0
 43  2  1  0
 39  7  1  0
 32 10  1  0
 27 18  1  0
M  END
>  <cnnaffinity>  (1) 
-5.22164

>  <filename>  (1) 
O=c1ccc(-c2cccnc2)nn1N1CCN(c2ccccc2)CC1

$$$$
