
     RDKit          3D

 30 32  0  0  0  0  0  0  0  0999 V2000
    5.3762    1.9100   16.8656 H   0  0  0  0  0  0  0  0  0  0  0  0
    5.6969    1.3513   17.7433 C   0  0  0  0  0  0  0  0  0  0  0  0
    6.9432    0.8579   17.6968 N   0  0  0  0  0  0  0  0  0  0  0  0
    7.3795    0.2089   18.7772 C   0  0  0  0  0  0  0  0  0  0  0  0
    8.4187   -0.1140   18.7566 H   0  0  0  0  0  0  0  0  0  0  0  0
    6.5847   -0.0609   19.9103 C   0  0  0  0  0  0  0  0  0  0  0  0
    7.2119   -0.7947   21.0262 C   0  0  0  0  0  0  0  0  0  0  0  0
    8.4850   -0.5195   21.2497 N   0  0  0  0  0  0  0  0  0  0  0  0
    9.1040   -1.0161   22.3719 C   0  0  0  0  0  0  0  0  0  0  0  0
   10.5654   -0.7684   22.5283 C   0  0  0  0  0  0  0  0  0  0  0  0
   11.4073   -1.3520   21.5705 C   0  0  0  0  0  0  0  0  0  0  0  0
   10.9371   -1.9388   20.7948 H   0  0  0  0  0  0  0  0  0  0  0  0
   12.7922   -1.2053   21.6178 C   0  0  0  0  0  0  0  0  0  0  0  0
   13.4162   -1.6446   20.8453 H   0  0  0  0  0  0  0  0  0  0  0  0
   13.3694   -0.5074   22.6747 C   0  0  0  0  0  0  0  0  0  0  0  0
   14.4465   -0.4033   22.7849 H   0  0  0  0  0  0  0  0  0  0  0  0
   12.5514    0.0432   23.6650 C   0  0  0  0  0  0  0  0  0  0  0  0
   13.3052    0.6627   25.0783 Cl  0  0  0  0  0  0  0  0  0  0  0  0
   11.1493   -0.0487   23.5860 C   0  0  0  0  0  0  0  0  0  0  0  0
   10.1557    0.7257   24.7771 Cl  0  0  0  0  0  0  0  0  0  0  0  0
    8.4520   -1.8125   23.2770 C   0  0  0  0  0  0  0  0  0  0  0  0
    8.9275   -2.1646   24.1877 H   0  0  0  0  0  0  0  0  0  0  0  0
    7.1675   -2.2019   22.9983 N   0  0  0  0  0  0  0  0  0  0  0  0
    6.6194   -2.8476   23.5549 H   0  0  0  0  0  0  0  0  0  0  0  0
    6.4704   -1.8598   21.8363 C   0  0  0  0  0  0  0  0  0  0  0  0
    5.4192   -2.4400   21.6209 O   0  0  0  0  0  0  0  0  0  0  0  0
    5.2835    0.4618   19.9408 C   0  0  0  0  0  0  0  0  0  0  0  0
    4.6462    0.3378   20.8160 H   0  0  0  0  0  0  0  0  0  0  0  0
    4.8362    1.1796   18.8277 C   0  0  0  0  0  0  0  0  0  0  0  0
    3.8485    1.6243   18.7936 H   0  0  0  0  0  0  0  0  0  0  0  0
  1  2  1  0
  2  3  2  0
  3  4  1  0
  4  5  1  0
  4  6  2  0
  6  7  1  0
  7  8  2  0
  8  9  1  0
  9 10  1  0
 10 11  2  0
 11 12  1  0
 11 13  1  0
 13 14  1  0
 13 15  2  0
 15 16  1  0
 15 17  1  0
 17 18  1  0
 17 19  2  0
 19 20  1  0
  9 21  2  0
 21 22  1  0
 21 23  1  0
 23 24  1  0
 23 25  1  0
 25 26  2  0
  6 27  1  0
 27 28  1  0
 27 29  2  0
 29 30  1  0
 29  2  1  0
 25  7  1  0
 19 10  1  0
M  END
>  <cnnaffinity>  (1) 
-5.81546

>  <filename>  (1) 
O=c1[nH]cc(-c2cccc(Cl)c2Cl)nc1-c1cccnc1

$$$$
