
     RDKit          3D

 29 31  0  0  0  0  0  0  0  0999 V2000
    4.9162    1.7929   16.9880 H   0  0  0  0  0  0  0  0  0  0  0  0
    5.3984    1.2966   17.8273 C   0  0  0  0  0  0  0  0  0  0  0  0
    6.5632    0.6863   17.5595 N   0  0  0  0  0  0  0  0  0  0  0  0
    7.1742    0.0696   18.5781 C   0  0  0  0  0  0  0  0  0  0  0  0
    8.1251   -0.4134   18.3462 H   0  0  0  0  0  0  0  0  0  0  0  0
    6.6631    0.0097   19.8863 C   0  0  0  0  0  0  0  0  0  0  0  0
    7.3957   -0.6869   21.0126 C   0  0  2  0  0  0  0  0  0  0  0  0
    8.1912   -1.3096   20.5909 H   0  0  0  0  0  0  0  0  0  0  0  0
    6.5227   -1.6507   21.8225 C   0  0  0  0  0  0  0  0  0  0  0  0
    5.8162   -2.5563   21.4285 O   0  0  0  0  0  0  0  0  0  0  0  0
    6.6973   -1.3478   23.1290 N   0  0  0  0  0  0  0  0  0  0  0  0
    6.1974   -1.9306   23.7733 H   0  0  0  0  0  0  0  0  0  0  0  0
    7.6561   -0.3150   23.4446 C   0  0  0  0  0  0  0  0  0  0  0  0
    7.2383    0.4336   24.1298 H   0  0  0  0  0  0  0  0  0  0  0  0
    8.5510   -0.7331   23.9302 H   0  0  0  0  0  0  0  0  0  0  0  0
    7.9790    0.2993   22.0614 C   0  0  1  0  0  0  0  0  0  0  0  0
    7.4433    1.2546   21.9816 H   0  0  0  0  0  0  0  0  0  0  0  0
    9.4312    0.5778   21.8419 C   0  0  0  0  0  0  0  0  0  0  0  0
   10.5095   -0.3351   21.9408 C   0  0  0  0  0  0  0  0  0  0  0  0
   10.4877   -1.3876   22.1990 H   0  0  0  0  0  0  0  0  0  0  0  0
   11.6701    0.2444   21.6613 N   0  0  0  0  0  0  0  0  0  0  0  0
   11.3512    1.5127   21.3805 N   0  0  0  0  0  0  0  0  0  0  0  0
   12.0929    2.1530   21.1417 H   0  0  0  0  0  0  0  0  0  0  0  0
   10.0195    1.7633   21.4741 C   0  0  0  0  0  0  0  0  0  0  0  0
    9.5930    2.7375   21.2750 H   0  0  0  0  0  0  0  0  0  0  0  0
    5.4475    0.6514   20.1428 C   0  0  0  0  0  0  0  0  0  0  0  0
    5.0204    0.6274   21.1505 H   0  0  0  0  0  0  0  0  0  0  0  0
    4.8071    1.3098   19.0944 C   0  0  0  0  0  0  0  0  0  0  0  0
    3.8783    1.8409   19.2499 H   0  0  0  0  0  0  0  0  0  0  0  0
  1  2  1  0
  2  3  2  0
  3  4  1  0
  4  5  1  0
  4  6  2  0
  6  7  1  0
  7  8  1  6
  7  9  1  0
  9 10  2  0
  9 11  1  0
 11 12  1  0
 11 13  1  0
 13 14  1  0
 13 15  1  0
 13 16  1  0
 16 17  1  1
 16 18  1  0
 18 19  1  0
 19 20  1  0
 19 21  2  0
 21 22  1  0
 22 23  1  0
 22 24  1  0
 24 25  1  0
  6 26  1  0
 26 27  1  0
 26 28  2  0
 28 29  1  0
 28  2  1  0
 16  7  1  0
 24 18  2  0
M  END
>  <cnnaffinity>  (1) 
-4.93369

>  <filename>  (1) 
O=C1NC[C@@H](c2cn[nH]c2)[C@@H]1c1cccnc1

$$$$
