
     RDKit          3D

 37 39  0  0  0  0  0  0  0  0999 V2000
    4.9169    1.8058   16.9788 H   0  0  0  0  0  0  0  0  0  0  0  0
    5.3900    1.2980   17.8181 C   0  0  0  0  0  0  0  0  0  0  0  0
    6.5518    0.6783   17.5521 N   0  0  0  0  0  0  0  0  0  0  0  0
    7.1566    0.0463   18.5654 C   0  0  0  0  0  0  0  0  0  0  0  0
    8.1211   -0.4118   18.3499 H   0  0  0  0  0  0  0  0  0  0  0  0
    6.6437   -0.0007   19.8764 C   0  0  0  0  0  0  0  0  0  0  0  0
    7.3453   -0.6750   20.9406 N   0  0  0  0  0  0  0  0  0  0  0  0
    7.5671   -2.0332   20.8173 C   0  0  0  0  0  0  0  0  0  0  0  0
    7.1122   -2.4494   19.9251 H   0  0  0  0  0  0  0  0  0  0  0  0
    8.2522   -2.7415   21.7521 C   0  0  0  0  0  0  0  0  0  0  0  0
    8.4217   -3.8078   21.6147 H   0  0  0  0  0  0  0  0  0  0  0  0
    8.7173   -2.0781   22.9333 C   0  0  0  0  0  0  0  0  0  0  0  0
    9.3839   -2.8713   24.0397 C   0  0  0  0  0  0  0  0  0  0  0  0
   10.0988   -2.2294   24.5683 H   0  0  0  0  0  0  0  0  0  0  0  0
    9.9693   -3.6890   23.6046 H   0  0  0  0  0  0  0  0  0  0  0  0
    8.3576   -3.4184   25.0118 C   0  0  0  0  0  0  0  0  0  0  0  0
    7.9236   -2.6426   26.0961 C   0  0  0  0  0  0  0  0  0  0  0  0
    8.3623   -1.6593   26.2667 H   0  0  0  0  0  0  0  0  0  0  0  0
    6.9229   -3.1012   26.9511 C   0  0  0  0  0  0  0  0  0  0  0  0
    6.5889   -2.4632   27.7651 H   0  0  0  0  0  0  0  0  0  0  0  0
    6.3384   -4.3609   26.7374 C   0  0  0  0  0  0  0  0  0  0  0  0
    5.3101   -4.9013   27.7121 C   0  0  0  0  0  0  0  0  0  0  0  0
    5.8898   -5.5976   28.7106 F   0  0  0  0  0  0  0  0  0  0  0  0
    4.4347   -5.7340   27.1139 F   0  0  0  0  0  0  0  0  0  0  0  0
    4.5921   -3.9181   28.2901 F   0  0  0  0  0  0  0  0  0  0  0  0
    6.7552   -5.1407   25.6456 C   0  0  0  0  0  0  0  0  0  0  0  0
    6.3105   -6.1172   25.4633 H   0  0  0  0  0  0  0  0  0  0  0  0
    7.7477   -4.6624   24.7894 C   0  0  0  0  0  0  0  0  0  0  0  0
    8.0495   -5.2604   23.9309 H   0  0  0  0  0  0  0  0  0  0  0  0
    8.4530   -0.7468   23.0943 C   0  0  0  0  0  0  0  0  0  0  0  0
    8.7358   -0.1827   23.9701 H   0  0  0  0  0  0  0  0  0  0  0  0
    7.7537    0.0543   22.1117 C   0  0  0  0  0  0  0  0  0  0  0  0
    7.5394    1.2471   22.2420 O   0  0  0  0  0  0  0  0  0  0  0  0
    5.4365    0.6431   20.1427 C   0  0  0  0  0  0  0  0  0  0  0  0
    5.0461    0.6402   21.1614 H   0  0  0  0  0  0  0  0  0  0  0  0
    4.8014    1.3031   19.0876 C   0  0  0  0  0  0  0  0  0  0  0  0
    3.8774    1.8407   19.2477 H   0  0  0  0  0  0  0  0  0  0  0  0
  1  2  1  0
  2  3  2  0
  3  4  1  0
  4  5  1  0
  4  6  2  0
  6  7  1  0
  7  8  1  0
  8  9  1  0
  8 10  2  0
 10 11  1  0
 10 12  1  0
 12 13  1  0
 13 14  1  0
 13 15  1  0
 13 16  1  0
 16 17  2  0
 17 18  1  0
 17 19  1  0
 19 20  1  0
 19 21  2  0
 21 22  1  0
 22 23  1  0
 22 24  1  0
 22 25  1  0
 21 26  1  0
 26 27  1  0
 26 28  2  0
 28 29  1  0
 12 30  2  0
 30 31  1  0
 30 32  1  0
 32 33  2  0
  6 34  1  0
 34 35  1  0
 34 36  2  0
 36 37  1  0
 36  2  1  0
 32  7  1  0
 28 16  1  0
M  END
>  <cnnaffinity>  (1) 
-5.47058

>  <filename>  (1) 
O=c1cc(Cc2ccc(C(F)(F)F)cc2)ccn1-c1cccnc1

$$$$
