
     RDKit          3D

 30 32  0  0  0  0  0  0  0  0999 V2000
    4.9378    1.7813   16.9939 H   0  0  0  0  0  0  0  0  0  0  0  0
    5.4142    1.2847   17.8383 C   0  0  0  0  0  0  0  0  0  0  0  0
    6.5838    0.6710   17.5839 N   0  0  0  0  0  0  0  0  0  0  0  0
    7.2143    0.0871   18.6103 C   0  0  0  0  0  0  0  0  0  0  0  0
    8.1621   -0.3991   18.3914 H   0  0  0  0  0  0  0  0  0  0  0  0
    6.6854    0.0419   19.9125 C   0  0  0  0  0  0  0  0  0  0  0  0
    7.3756   -0.6606   20.9543 N   0  0  0  0  0  0  0  0  0  0  0  0
    8.7057   -0.3657   21.0617 N   0  0  0  0  0  0  0  0  0  0  0  0
    9.4026   -0.9338   22.0175 C   0  0  0  0  0  0  0  0  0  0  0  0
   10.8316   -0.4948   22.1395 C   0  0  0  0  0  0  0  0  0  0  0  0
   11.1850    0.8664   21.9915 C   0  0  0  0  0  0  0  0  0  0  0  0
   10.3968    1.5777   21.7434 H   0  0  0  0  0  0  0  0  0  0  0  0
   12.5050    1.3022   22.1527 C   0  0  0  0  0  0  0  0  0  0  0  0
   12.8148    2.3370   22.0275 H   0  0  0  0  0  0  0  0  0  0  0  0
   13.4866    0.3505   22.4122 C   0  0  0  0  0  0  0  0  0  0  0  0
   14.7596    0.7327   22.5747 F   0  0  0  0  0  0  0  0  0  0  0  0
   13.2091   -1.0050   22.4927 C   0  0  0  0  0  0  0  0  0  0  0  0
   14.0320   -1.6945   22.6350 H   0  0  0  0  0  0  0  0  0  0  0  0
   11.8748   -1.3969   22.4036 C   0  0  0  0  0  0  0  0  0  0  0  0
   11.5888   -2.6947   22.6180 F   0  0  0  0  0  0  0  0  0  0  0  0
    8.8133   -1.8969   22.9190 C   0  0  0  0  0  0  0  0  0  0  0  0
    9.4541   -2.3193   23.6857 H   0  0  0  0  0  0  0  0  0  0  0  0
    7.5038   -2.2367   22.7786 C   0  0  0  0  0  0  0  0  0  0  0  0
    6.9887   -2.9726   23.3845 H   0  0  0  0  0  0  0  0  0  0  0  0
    6.6826   -1.6707   21.7153 C   0  0  0  0  0  0  0  0  0  0  0  0
    5.5485   -2.0268   21.4460 O   0  0  0  0  0  0  0  0  0  0  0  0
    5.4591    0.6575   20.1665 C   0  0  0  0  0  0  0  0  0  0  0  0
    5.0195    0.5985   21.1598 H   0  0  0  0  0  0  0  0  0  0  0  0
    4.8251    1.3091   19.1046 C   0  0  0  0  0  0  0  0  0  0  0  0
    3.8868    1.8285   19.2512 H   0  0  0  0  0  0  0  0  0  0  0  0
  1  2  1  0
  2  3  2  0
  3  4  1  0
  4  5  1  0
  4  6  2  0
  6  7  1  0
  7  8  1  0
  8  9  2  0
  9 10  1  0
 10 11  2  0
 11 12  1  0
 11 13  1  0
 13 14  1  0
 13 15  2  0
 15 16  1  0
 15 17  1  0
 17 18  1  0
 17 19  2  0
 19 20  1  0
  9 21  1  0
 21 22  1  0
 21 23  2  0
 23 24  1  0
 23 25  1  0
 25 26  2  0
  6 27  1  0
 27 28  1  0
 27 29  2  0
 29 30  1  0
 29  2  1  0
 25  7  1  0
 19 10  1  0
M  END
>  <cnnaffinity>  (1) 
-5.00413

>  <filename>  (1) 
O=c1ccc(-c2ccc(F)cc2F)nn1-c1cccnc1

$$$$
