
     RDKit          3D

 32 35  0  0  0  0  0  0  0  0999 V2000
    4.9857    1.8725   16.9312 H   0  0  0  0  0  0  0  0  0  0  0  0
    5.4655    1.3462   17.7541 C   0  0  0  0  0  0  0  0  0  0  0  0
    6.6457    0.7647   17.4819 N   0  0  0  0  0  0  0  0  0  0  0  0
    7.2587    0.1012   18.4666 C   0  0  0  0  0  0  0  0  0  0  0  0
    8.2171   -0.3547   18.2310 H   0  0  0  0  0  0  0  0  0  0  0  0
    6.7159   -0.0475   19.7594 C   0  0  0  0  0  0  0  0  0  0  0  0
    7.3676   -0.8191   20.7497 N   0  0  0  0  0  0  0  0  0  0  0  0
    6.8023   -1.7468   21.6426 C   0  0  0  0  0  0  0  0  0  0  0  0
    5.6510   -2.1451   21.5669 O   0  0  0  0  0  0  0  0  0  0  0  0
    7.9091   -2.0766   22.5785 C   0  0  0  0  0  0  0  0  0  0  0  0
    7.7789   -2.9106   23.7881 C   0  0  0  0  0  0  0  0  0  0  0  0
    6.6658   -3.8115   23.9021 C   0  0  0  0  0  0  0  0  0  0  0  0
    5.9101   -3.7773   23.1287 H   0  0  0  0  0  0  0  0  0  0  0  0
    6.5176   -4.6619   24.9782 C   0  0  0  0  0  0  0  0  0  0  0  0
    5.6857   -5.3498   25.0777 H   0  0  0  0  0  0  0  0  0  0  0  0
    7.4819   -4.5737   25.9931 C   0  0  0  0  0  0  0  0  0  0  0  0
    8.5401   -3.6484   25.9556 C   0  0  0  0  0  0  0  0  0  0  0  0
    9.2124   -3.8641   27.1875 C   0  0  0  0  0  0  0  0  0  0  0  0
   10.0526   -3.3115   27.5613 H   0  0  0  0  0  0  0  0  0  0  0  0
    8.6584   -4.8235   27.8945 N   0  0  0  0  0  0  0  0  0  0  0  0
    7.6031   -5.2435   27.1649 N   0  0  0  0  0  0  0  0  0  0  0  0
    7.0725   -6.0565   27.4312 H   0  0  0  0  0  0  0  0  0  0  0  0
    8.7033   -2.8116   24.8270 C   0  0  0  0  0  0  0  0  0  0  0  0
    9.5123   -2.0888   24.7814 H   0  0  0  0  0  0  0  0  0  0  0  0
    9.0072   -1.4386   22.0958 C   0  0  0  0  0  0  0  0  0  0  0  0
   10.0220   -1.4737   22.4748 H   0  0  0  0  0  0  0  0  0  0  0  0
    8.7570   -0.7680   20.8990 N   0  0  0  0  0  0  0  0  0  0  0  0
    9.1178    0.1808   20.7916 H   0  0  0  0  0  0  0  0  0  0  0  0
    5.4959    0.5862   20.0403 C   0  0  0  0  0  0  0  0  0  0  0  0
    5.0770    0.5285   21.0409 H   0  0  0  0  0  0  0  0  0  0  0  0
    4.8654    1.2951   19.0154 C   0  0  0  0  0  0  0  0  0  0  0  0
    3.9316    1.8189   19.1855 H   0  0  0  0  0  0  0  0  0  0  0  0
  1  2  1  0
  2  3  2  0
  3  4  1  0
  4  5  1  0
  4  6  2  0
  6  7  1  0
  7  8  1  0
  8  9  2  0
  8 10  1  0
 10 11  1  0
 11 12  2  0
 12 13  1  0
 12 14  1  0
 14 15  1  0
 14 16  2  0
 16 17  1  0
 17 18  1  0
 18 19  1  0
 18 20  2  0
 20 21  1  0
 21 22  1  0
 17 23  2  0
 23 24  1  0
 10 25  2  0
 25 26  1  0
 25 27  1  0
 27 28  1  0
  6 29  1  0
 29 30  1  0
 29 31  2  0
 31 32  1  0
 31  2  1  0
 27  7  1  0
 23 11  1  0
 21 16  1  0
M  END
>  <cnnaffinity>  (1) 
-5.43063

>  <filename>  (1) 
O=c1c(-c2ccc3[nH]ncc3c2)c[nH]n1-c1cccnc1

$$$$
