
     RDKit          3D

 36 39  0  0  0  0  0  0  0  0999 V2000
    5.0006    1.8187   16.9318 H   0  0  0  0  0  0  0  0  0  0  0  0
    5.4801    1.3282   17.7811 C   0  0  0  0  0  0  0  0  0  0  0  0
    6.6815    0.7757   17.5538 N   0  0  0  0  0  0  0  0  0  0  0  0
    7.2766    0.1542   18.5800 C   0  0  0  0  0  0  0  0  0  0  0  0
    8.2619   -0.2584   18.3819 H   0  0  0  0  0  0  0  0  0  0  0  0
    6.6944   -0.0101   19.8507 C   0  0  0  0  0  0  0  0  0  0  0  0
    7.4310   -0.8067   20.8900 C   0  0  0  0  0  0  0  0  0  0  0  0
    8.6941   -0.4728   21.0342 N   0  0  0  0  0  0  0  0  0  0  0  0
    9.4373   -1.0910   21.9939 N   0  0  0  0  0  0  0  0  0  0  0  0
   10.8444   -0.7994   22.0728 C   0  0  0  0  0  0  0  0  0  0  0  0
   11.7235   -1.8664   22.0069 C   0  0  0  0  0  0  0  0  0  0  0  0
   11.3036   -2.8633   21.9726 H   0  0  0  0  0  0  0  0  0  0  0  0
   13.1296   -1.6755   21.9836 C   0  0  0  0  0  0  0  0  0  0  0  0
   13.7798   -2.5352   21.8207 H   0  0  0  0  0  0  0  0  0  0  0  0
   13.6453   -0.4187   22.1822 C   0  0  0  0  0  0  0  0  0  0  0  0
   14.7205   -0.2485   22.1842 H   0  0  0  0  0  0  0  0  0  0  0  0
   12.7760    0.7019   22.3779 C   0  0  0  0  0  0  0  0  0  0  0  0
   13.3180    1.9931   22.6584 C   0  0  0  0  0  0  0  0  0  0  0  0
   14.4005    2.0747   22.7583 H   0  0  0  0  0  0  0  0  0  0  0  0
   12.5029    3.0916   22.7814 C   0  0  0  0  0  0  0  0  0  0  0  0
   12.9339    4.0740   22.9619 H   0  0  0  0  0  0  0  0  0  0  0  0
   11.0932    2.9536   22.6507 C   0  0  0  0  0  0  0  0  0  0  0  0
   10.4575    3.8346   22.7236 H   0  0  0  0  0  0  0  0  0  0  0  0
   10.5267    1.7181   22.4227 C   0  0  0  0  0  0  0  0  0  0  0  0
    9.4473    1.6150   22.3473 H   0  0  0  0  0  0  0  0  0  0  0  0
   11.3450    0.5422   22.2749 C   0  0  0  0  0  0  0  0  0  0  0  0
    8.8596   -1.9358   22.9103 C   0  0  0  0  0  0  0  0  0  0  0  0
    9.5206   -2.2796   23.7081 H   0  0  0  0  0  0  0  0  0  0  0  0
    7.5679   -2.3099   22.8388 C   0  0  0  0  0  0  0  0  0  0  0  0
    7.1212   -2.9543   23.5803 H   0  0  0  0  0  0  0  0  0  0  0  0
    6.7558   -1.8982   21.7079 C   0  0  0  0  0  0  0  0  0  0  0  0
    5.6614   -2.3910   21.4663 O   0  0  0  0  0  0  0  0  0  0  0  0
    5.4652    0.6298   20.0875 C   0  0  0  0  0  0  0  0  0  0  0  0
    5.0126    0.6167   21.0811 H   0  0  0  0  0  0  0  0  0  0  0  0
    4.8491    1.3034   19.0289 C   0  0  0  0  0  0  0  0  0  0  0  0
    3.9128    1.8322   19.1627 H   0  0  0  0  0  0  0  0  0  0  0  0
  1  2  1  0
  2  3  2  0
  3  4  1  0
  4  5  1  0
  4  6  2  0
  6  7  1  0
  7  8  2  0
  8  9  1  0
  9 10  1  0
 10 11  2  0
 11 12  1  0
 11 13  1  0
 13 14  1  0
 13 15  2  0
 15 16  1  0
 15 17  1  0
 17 18  2  0
 18 19  1  0
 18 20  1  0
 20 21  1  0
 20 22  2  0
 22 23  1  0
 22 24  1  0
 24 25  1  0
 24 26  2  0
  9 27  1  0
 27 28  1  0
 27 29  2  0
 29 30  1  0
 29 31  1  0
 31 32  2  0
  6 33  1  0
 33 34  1  0
 33 35  2  0
 35 36  1  0
 35  2  1  0
 31  7  1  0
 26 10  1  0
 26 17  1  0
M  END
>  <cnnaffinity>  (1) 
-5.94602

>  <filename>  (1) 
O=c1ccn(-c2cccc3ccccc23)nc1-c1cccnc1

$$$$
