
     RDKit          3D

 32 34  0  0  0  0  0  0  0  0999 V2000
    4.9797    1.7741   16.9530 H   0  0  0  0  0  0  0  0  0  0  0  0
    5.4285    1.2969   17.8250 C   0  0  0  0  0  0  0  0  0  0  0  0
    6.5989    0.6717   17.6316 N   0  0  0  0  0  0  0  0  0  0  0  0
    7.1564    0.0611   18.6870 C   0  0  0  0  0  0  0  0  0  0  0  0
    8.1058   -0.4353   18.4967 H   0  0  0  0  0  0  0  0  0  0  0  0
    6.6071    0.0493   19.9836 C   0  0  0  0  0  0  0  0  0  0  0  0
    7.2845   -0.6778   21.0703 C   0  0  0  0  0  0  0  0  0  0  0  0
    7.7323   -1.9428   21.0916 C   0  0  0  0  0  0  0  0  0  0  0  0
    7.6596   -2.7718   20.4124 H   0  0  0  0  0  0  0  0  0  0  0  0
    8.2946   -2.2389   22.2982 O   0  0  0  0  0  0  0  0  0  0  0  0
    8.1726   -1.1515   23.1140 C   0  0  0  0  0  0  0  0  0  0  0  0
    8.5331   -1.1312   24.2611 O   0  0  0  0  0  0  0  0  0  0  0  0
    7.5618   -0.1561   22.3566 N   0  0  0  0  0  0  0  0  0  0  0  0
    7.1979    1.1032   22.9221 C   0  0  0  0  0  0  0  0  0  0  0  0
    7.5065    2.3100   22.2817 C   0  0  0  0  0  0  0  0  0  0  0  0
    8.0195    2.2951   21.3260 H   0  0  0  0  0  0  0  0  0  0  0  0
    7.1165    3.5148   22.8714 C   0  0  0  0  0  0  0  0  0  0  0  0
    7.3425    4.4509   22.3673 H   0  0  0  0  0  0  0  0  0  0  0  0
    6.4309    3.5186   24.0882 C   0  0  0  0  0  0  0  0  0  0  0  0
    6.1123    4.4415   24.5557 H   0  0  0  0  0  0  0  0  0  0  0  0
    6.1405    2.3022   24.7112 C   0  0  0  0  0  0  0  0  0  0  0  0
    5.4531    2.4098   25.9229 O   0  0  0  0  0  0  0  0  0  0  0  0
    5.1118    1.3130   26.6373 C   0  0  0  0  0  0  0  0  0  0  0  0
    4.5100    1.7279   27.7446 F   0  0  0  0  0  0  0  0  0  0  0  0
    6.1673    0.5586   26.9914 F   0  0  0  0  0  0  0  0  0  0  0  0
    4.2713    0.4980   25.9793 F   0  0  0  0  0  0  0  0  0  0  0  0
    6.5344    1.0943   24.1528 C   0  0  0  0  0  0  0  0  0  0  0  0
    6.3780    0.1464   24.6555 H   0  0  0  0  0  0  0  0  0  0  0  0
    5.3845    0.7194   20.1574 C   0  0  0  0  0  0  0  0  0  0  0  0
    4.9494    0.7662   21.1536 H   0  0  0  0  0  0  0  0  0  0  0  0
    4.7802    1.3388   19.0627 C   0  0  0  0  0  0  0  0  0  0  0  0
    3.8355    1.8603   19.1596 H   0  0  0  0  0  0  0  0  0  0  0  0
  1  2  1  0
  2  3  2  0
  3  4  1  0
  4  5  1  0
  4  6  2  0
  6  7  1  0
  7  8  2  0
  8  9  1  0
  8 10  1  0
 10 11  1  0
 11 12  2  0
 11 13  1  0
 13 14  1  0
 14 15  2  0
 15 16  1  0
 15 17  1  0
 17 18  1  0
 17 19  2  0
 19 20  1  0
 19 21  1  0
 21 22  1  0
 22 23  1  0
 23 24  1  0
 23 25  1  0
 23 26  1  0
 21 27  2  0
 27 28  1  0
  6 29  1  0
 29 30  1  0
 29 31  2  0
 31 32  1  0
 31  2  1  0
 13  7  1  0
 27 14  1  0
M  END
>  <cnnaffinity>  (1) 
-5.17406

>  <filename>  (1) 
O=c1occ(-c2cccnc2)n1-c1cccc(OC(F)(F)F)c1

$$$$
