
     RDKit          3D

 38 40  0  0  0  0  0  0  0  0999 V2000
    4.9547    1.7940   16.9334 H   0  0  0  0  0  0  0  0  0  0  0  0
    5.4204    1.2850   17.7766 C   0  0  0  0  0  0  0  0  0  0  0  0
    6.5699    0.6348   17.5240 N   0  0  0  0  0  0  0  0  0  0  0  0
    7.1691    0.0234   18.5509 C   0  0  0  0  0  0  0  0  0  0  0  0
    8.0961   -0.4962   18.3233 H   0  0  0  0  0  0  0  0  0  0  0  0
    6.6767    0.0317   19.8798 C   0  0  0  0  0  0  0  0  0  0  0  0
    7.3616   -0.6204   20.9338 N   0  0  0  0  0  0  0  0  0  0  0  0
    7.4259   -0.2787   22.2977 C   0  0  0  0  0  0  0  0  0  0  0  0
    6.8476    0.6644   22.8191 O   0  0  0  0  0  0  0  0  0  0  0  0
    8.2993   -1.2966   22.8983 C   0  0  0  0  0  0  0  0  0  0  0  0
    8.6628   -1.2776   24.3560 C   0  0  0  0  0  0  0  0  0  0  0  0
    9.1982   -0.3475   24.5844 H   0  0  0  0  0  0  0  0  0  0  0  0
    9.3684   -2.0862   24.5896 H   0  0  0  0  0  0  0  0  0  0  0  0
    7.4380   -1.3583   25.2801 C   0  0  0  0  0  0  0  0  0  0  0  0
    7.7490   -1.2168   26.3231 H   0  0  0  0  0  0  0  0  0  0  0  0
    6.7710   -0.5247   25.0346 H   0  0  0  0  0  0  0  0  0  0  0  0
    6.6647   -2.6845   25.1656 C   0  0  0  0  0  0  0  0  0  0  0  0
    5.7781   -2.6428   25.8131 H   0  0  0  0  0  0  0  0  0  0  0  0
    6.2915   -2.7804   24.1373 H   0  0  0  0  0  0  0  0  0  0  0  0
    7.5053   -3.9001   25.5149 C   0  0  0  0  0  0  0  0  0  0  0  0
    7.9808   -4.7595   24.5082 C   0  0  0  0  0  0  0  0  0  0  0  0
    7.6872   -4.5832   23.4744 H   0  0  0  0  0  0  0  0  0  0  0  0
    8.8223   -5.8334   24.8150 C   0  0  0  0  0  0  0  0  0  0  0  0
    9.1909   -6.4837   24.0244 H   0  0  0  0  0  0  0  0  0  0  0  0
    9.1910   -6.0667   26.1428 C   0  0  0  0  0  0  0  0  0  0  0  0
    9.8538   -6.8914   26.3808 H   0  0  0  0  0  0  0  0  0  0  0  0
    8.7124   -5.2347   27.1609 C   0  0  0  0  0  0  0  0  0  0  0  0
    8.9904   -5.4249   28.1957 H   0  0  0  0  0  0  0  0  0  0  0  0
    7.8839   -4.1527   26.8474 C   0  0  0  0  0  0  0  0  0  0  0  0
    7.5315   -3.4897   27.6379 H   0  0  0  0  0  0  0  0  0  0  0  0
    8.6485   -2.1422   21.9044 C   0  0  0  0  0  0  0  0  0  0  0  0
    9.2213   -3.0546   21.9708 H   0  0  0  0  0  0  0  0  0  0  0  0
    8.2153   -1.6969   20.6541 N   0  0  0  0  0  0  0  0  0  0  0  0
    7.7567   -2.3867   20.0630 H   0  0  0  0  0  0  0  0  0  0  0  0
    5.4703    0.7042   20.1270 C   0  0  0  0  0  0  0  0  0  0  0  0
    5.0657    0.7361   21.1364 H   0  0  0  0  0  0  0  0  0  0  0  0
    4.8327    1.3208   19.0455 C   0  0  0  0  0  0  0  0  0  0  0  0
    3.8927    1.8421   19.1815 H   0  0  0  0  0  0  0  0  0  0  0  0
  1  2  1  0
  2  3  2  0
  3  4  1  0
  4  5  1  0
  4  6  2  0
  6  7  1  0
  7  8  1  0
  8  9  2  0
  8 10  1  0
 10 11  1  0
 11 12  1  0
 11 13  1  0
 11 14  1  0
 14 15  1  0
 14 16  1  0
 14 17  1  0
 17 18  1  0
 17 19  1  0
 17 20  1  0
 20 21  2  0
 21 22  1  0
 21 23  1  0
 23 24  1  0
 23 25  2  0
 25 26  1  0
 25 27  1  0
 27 28  1  0
 27 29  2  0
 29 30  1  0
 10 31  2  0
 31 32  1  0
 31 33  1  0
 33 34  1  0
  6 35  1  0
 35 36  1  0
 35 37  2  0
 37 38  1  0
 37  2  1  0
 33  7  1  0
 29 20  1  0
M  END
>  <cnnaffinity>  (1) 
-5.40064

>  <filename>  (1) 
O=c1c(CCCc2ccccc2)c[nH]n1-c1cccnc1

$$$$
