
     RDKit          3D

 36 39  0  0  0  0  0  0  0  0999 V2000
    4.9815    1.7582   17.0520 H   0  0  0  0  0  0  0  0  0  0  0  0
    5.4516    1.2527   17.8952 C   0  0  0  0  0  0  0  0  0  0  0  0
    6.6202    0.6420   17.6447 N   0  0  0  0  0  0  0  0  0  0  0  0
    7.2310    0.0177   18.6607 C   0  0  0  0  0  0  0  0  0  0  0  0
    8.1848   -0.4542   18.4274 H   0  0  0  0  0  0  0  0  0  0  0  0
    6.7072   -0.0673   19.9764 C   0  0  0  0  0  0  0  0  0  0  0  0
    7.4101   -0.7235   21.0246 N   0  0  0  0  0  0  0  0  0  0  0  0
    6.8683   -1.6158   21.9493 C   0  0  0  0  0  0  0  0  0  0  0  0
    5.8157   -2.2029   21.8891 O   0  0  0  0  0  0  0  0  0  0  0  0
    7.8121   -1.7429   22.9500 N   0  0  0  0  0  0  0  0  0  0  0  0
    7.5693   -2.4693   24.1081 C   0  0  0  0  0  0  0  0  0  0  0  0
    8.5764   -3.1753   24.5475 N   0  0  0  0  0  0  0  0  0  0  0  0
    8.4069   -3.8404   25.7326 C   0  0  0  0  0  0  0  0  0  0  0  0
    9.5333   -4.5345   26.2554 C   0  0  0  0  0  0  0  0  0  0  0  0
   10.4252   -4.5178   25.6354 H   0  0  0  0  0  0  0  0  0  0  0  0
    9.4478   -5.1909   27.4613 C   0  0  0  0  0  0  0  0  0  0  0  0
   10.3250   -5.6487   27.9122 H   0  0  0  0  0  0  0  0  0  0  0  0
    8.2047   -5.2559   28.1537 C   0  0  0  0  0  0  0  0  0  0  0  0
    8.1279   -5.8644   29.0512 H   0  0  0  0  0  0  0  0  0  0  0  0
    7.1022   -4.5692   27.6893 C   0  0  0  0  0  0  0  0  0  0  0  0
    6.1669   -4.5767   28.2481 H   0  0  0  0  0  0  0  0  0  0  0  0
    7.1832   -3.8227   26.4789 C   0  0  0  0  0  0  0  0  0  0  0  0
    6.1184   -3.0164   25.9629 C   0  0  0  0  0  0  0  0  0  0  0  0
    5.1813   -2.9284   26.5192 H   0  0  0  0  0  0  0  0  0  0  0  0
    6.3072   -2.3503   24.7776 C   0  0  0  0  0  0  0  0  0  0  0  0
    5.5432   -1.7290   24.3396 H   0  0  0  0  0  0  0  0  0  0  0  0
    9.1426   -1.3869   22.4778 C   0  0  0  0  0  0  0  0  0  0  0  0
    9.7593   -2.2833   22.3400 H   0  0  0  0  0  0  0  0  0  0  0  0
    9.6522   -0.7415   23.1993 H   0  0  0  0  0  0  0  0  0  0  0  0
    8.8616   -0.6787   21.1440 C   0  0  0  0  0  0  0  0  0  0  0  0
    9.3277   -1.2101   20.3053 H   0  0  0  0  0  0  0  0  0  0  0  0
    9.2241    0.3532   21.1383 H   0  0  0  0  0  0  0  0  0  0  0  0
    5.4758    0.5722   20.2155 C   0  0  0  0  0  0  0  0  0  0  0  0
    5.0342    0.5429   21.2117 H   0  0  0  0  0  0  0  0  0  0  0  0
    4.8511    1.2524   19.1599 C   0  0  0  0  0  0  0  0  0  0  0  0
    3.9141    1.7852   19.2991 H   0  0  0  0  0  0  0  0  0  0  0  0
  1  2  1  0
  2  3  2  0
  3  4  1  0
  4  5  1  0
  4  6  2  0
  6  7  1  0
  7  8  1  0
  8  9  2  0
  8 10  1  0
 10 11  1  0
 11 12  2  0
 12 13  1  0
 13 14  2  0
 14 15  1  0
 14 16  1  0
 16 17  1  0
 16 18  2  0
 18 19  1  0
 18 20  1  0
 20 21  1  0
 20 22  2  0
 22 23  1  0
 23 24  1  0
 23 25  2  0
 25 26  1  0
 10 27  1  0
 27 28  1  0
 27 29  1  0
 27 30  1  0
 30 31  1  0
 30 32  1  0
  6 33  1  0
 33 34  1  0
 33 35  2  0
 35 36  1  0
 35  2  1  0
 30  7  1  0
 25 11  1  0
 22 13  1  0
M  END
>  <cnnaffinity>  (1) 
-5.29257

>  <filename>  (1) 
O=C1N(c2cccnc2)CCN1c1ccc2ccccc2n1

$$$$
