
     RDKit          3D

 32 34  0  0  0  0  0  0  0  0999 V2000
    4.9957    1.8379   16.8976 H   0  0  0  0  0  0  0  0  0  0  0  0
    5.4575    1.3217   17.7371 C   0  0  0  0  0  0  0  0  0  0  0  0
    6.6121    0.6840   17.4828 N   0  0  0  0  0  0  0  0  0  0  0  0
    7.2097    0.0637   18.5070 C   0  0  0  0  0  0  0  0  0  0  0  0
    8.1258   -0.4672   18.2582 H   0  0  0  0  0  0  0  0  0  0  0  0
    6.7098    0.0390   19.8203 C   0  0  0  0  0  0  0  0  0  0  0  0
    7.3877   -0.6733   20.9011 C   0  0  0  0  0  0  0  0  0  0  0  0
    6.8651   -1.2479   22.0051 C   0  0  0  0  0  0  0  0  0  0  0  0
    5.8296   -1.4068   22.2506 H   0  0  0  0  0  0  0  0  0  0  0  0
    7.9018   -1.7812   22.7663 N   0  0  0  0  0  0  0  0  0  0  0  0
    7.7572   -2.4611   24.0008 C   0  0  0  0  0  0  0  0  0  0  0  0
    6.7729   -2.0544   24.9120 C   0  0  0  0  0  0  0  0  0  0  0  0
    6.2206   -1.1374   24.7295 H   0  0  0  0  0  0  0  0  0  0  0  0
    6.5150   -2.8169   26.0512 C   0  0  0  0  0  0  0  0  0  0  0  0
    5.7038   -2.5266   26.7215 H   0  0  0  0  0  0  0  0  0  0  0  0
    7.2760   -3.9737   26.3007 C   0  0  0  0  0  0  0  0  0  0  0  0
    7.0390   -4.8490   27.5104 C   0  0  0  0  0  0  0  0  0  0  0  0
    8.1719   -5.0553   28.2123 F   0  0  0  0  0  0  0  0  0  0  0  0
    6.6065   -6.0745   27.1463 F   0  0  0  0  0  0  0  0  0  0  0  0
    6.1289   -4.3464   28.3636 F   0  0  0  0  0  0  0  0  0  0  0  0
    8.2767   -4.3643   25.3904 C   0  0  0  0  0  0  0  0  0  0  0  0
    8.8449   -5.2825   25.5432 H   0  0  0  0  0  0  0  0  0  0  0  0
    8.5402   -3.5896   24.2662 C   0  0  0  0  0  0  0  0  0  0  0  0
    9.3511   -3.8166   23.5872 H   0  0  0  0  0  0  0  0  0  0  0  0
    9.1084   -1.5994   22.0901 C   0  0  0  0  0  0  0  0  0  0  0  0
   10.2367   -1.9492   22.3826 O   0  0  0  0  0  0  0  0  0  0  0  0
    8.7529   -0.9237   20.9503 N   0  0  0  0  0  0  0  0  0  0  0  0
    9.4989   -0.5953   20.3739 H   0  0  0  0  0  0  0  0  0  0  0  0
    5.4874    0.6931   20.0550 C   0  0  0  0  0  0  0  0  0  0  0  0
    5.0586    0.6994   21.0577 H   0  0  0  0  0  0  0  0  0  0  0  0
    4.8526    1.3414   18.9983 C   0  0  0  0  0  0  0  0  0  0  0  0
    3.9134    1.8652   19.1368 H   0  0  0  0  0  0  0  0  0  0  0  0
  1  2  1  0
  2  3  2  0
  3  4  1  0
  4  5  1  0
  4  6  2  0
  6  7  1  0
  7  8  2  0
  8  9  1  0
  8 10  1  0
 10 11  1  0
 11 12  2  0
 12 13  1  0
 12 14  1  0
 14 15  1  0
 14 16  2  0
 16 17  1  0
 17 18  1  0
 17 19  1  0
 17 20  1  0
 16 21  1  0
 21 22  1  0
 21 23  2  0
 23 24  1  0
 10 25  1  0
 25 26  2  0
 25 27  1  0
 27 28  1  0
  6 29  1  0
 29 30  1  0
 29 31  2  0
 31 32  1  0
 31  2  1  0
 27  7  1  0
 23 11  1  0
M  END
>  <cnnaffinity>  (1) 
-5.45656

>  <filename>  (1) 
O=c1[nH]c(-c2cccnc2)cn1-c1ccc(C(F)(F)F)cc1

$$$$
