
     RDKit          3D

 29 31  0  0  0  0  0  0  0  0999 V2000
    4.9073    1.7766   17.0013 H   0  0  0  0  0  0  0  0  0  0  0  0
    5.3977    1.2939   17.8424 C   0  0  0  0  0  0  0  0  0  0  0  0
    6.5627    0.6780   17.5786 N   0  0  0  0  0  0  0  0  0  0  0  0
    7.1794    0.0587   18.5915 C   0  0  0  0  0  0  0  0  0  0  0  0
    8.1285   -0.4301   18.3832 H   0  0  0  0  0  0  0  0  0  0  0  0
    6.6671    0.0023   19.9069 C   0  0  0  0  0  0  0  0  0  0  0  0
    7.3625   -0.6793   20.9466 N   0  0  0  0  0  0  0  0  0  0  0  0
    6.7700   -1.4350   21.9475 C   0  0  0  0  0  0  0  0  0  0  0  0
    5.7035   -1.5690   22.0227 H   0  0  0  0  0  0  0  0  0  0  0  0
    7.7401   -1.9202   22.7512 C   0  0  0  0  0  0  0  0  0  0  0  0
    7.6244   -2.7209   23.9613 C   0  0  0  0  0  0  0  0  0  0  0  0
    8.3821   -2.3697   25.0942 C   0  0  0  0  0  0  0  0  0  0  0  0
    9.0668   -1.5260   25.0406 H   0  0  0  0  0  0  0  0  0  0  0  0
    8.2464   -3.0772   26.2806 C   0  0  0  0  0  0  0  0  0  0  0  0
    8.8361   -2.7953   27.1460 H   0  0  0  0  0  0  0  0  0  0  0  0
    7.3558   -4.1483   26.3562 C   0  0  0  0  0  0  0  0  0  0  0  0
    7.2478   -4.7029   27.2807 H   0  0  0  0  0  0  0  0  0  0  0  0
    6.6023   -4.5221   25.2394 C   0  0  0  0  0  0  0  0  0  0  0  0
    5.5256   -5.8711   25.3863 Cl  0  0  0  0  0  0  0  0  0  0  0  0
    6.7348   -3.8189   24.0325 C   0  0  0  0  0  0  0  0  0  0  0  0
    5.8494   -4.3564   22.6359 Cl  0  0  0  0  0  0  0  0  0  0  0  0
    8.9437   -1.4427   22.2515 N   0  0  0  0  0  0  0  0  0  0  0  0
    9.8698   -1.5953   22.6059 H   0  0  0  0  0  0  0  0  0  0  0  0
    8.7566   -0.6656   21.1390 C   0  0  0  0  0  0  0  0  0  0  0  0
    9.5990   -0.0967   20.4771 O   0  0  0  0  0  0  0  0  0  0  0  0
    5.4477    0.6437   20.1633 C   0  0  0  0  0  0  0  0  0  0  0  0
    5.0157    0.6302   21.1641 H   0  0  0  0  0  0  0  0  0  0  0  0
    4.8086    1.3106   19.1115 C   0  0  0  0  0  0  0  0  0  0  0  0
    3.8735    1.8433   19.2680 H   0  0  0  0  0  0  0  0  0  0  0  0
  1  2  1  0
  2  3  2  0
  3  4  1  0
  4  5  1  0
  4  6  2  0
  6  7  1  0
  7  8  1  0
  8  9  1  0
  8 10  2  0
 10 11  1  0
 11 12  2  0
 12 13  1  0
 12 14  1  0
 14 15  1  0
 14 16  2  0
 16 17  1  0
 16 18  1  0
 18 19  1  0
 18 20  2  0
 20 21  1  0
 10 22  1  0
 22 23  1  0
 22 24  1  0
 24 25  2  0
  6 26  1  0
 26 27  1  0
 26 28  2  0
 28 29  1  0
 28  2  1  0
 24  7  1  0
 20 11  1  0
M  END
>  <cnnaffinity>  (1) 
-5.86936

>  <filename>  (1) 
O=c1[nH]c(-c2cccc(Cl)c2Cl)cn1-c1cccnc1

$$$$
