
     RDKit          3D

 39 42  0  0  0  0  0  0  0  0999 V2000
    5.5784    1.0030   26.0511 O   0  0  0  0  0  0  0  0  0  0  0  0
    5.9108   -0.1129   25.7498 C   0  0  0  0  0  0  0  0  0  0  0  0
    6.4502   -0.5050   24.4634 C   0  0  0  0  0  0  0  0  0  0  0  0
    6.8064   -1.7855   24.2020 C   0  0  0  0  0  0  0  0  0  0  0  0
    7.3257   -2.1953   22.9635 N   0  0  0  0  0  0  0  0  0  0  0  0
    8.7710   -2.3617   22.8147 C   0  0  0  0  0  0  0  0  0  0  0  0
    9.4648   -1.0913   22.3014 C   0  0  0  0  0  0  0  0  0  0  0  0
    8.6890   -0.4403   21.1906 C   0  0  0  0  0  0  0  0  0  0  0  0
    7.3987   -0.7076   20.9642 C   0  0  0  0  0  0  0  0  0  0  0  0
    6.6521    0.0022   19.9013 C   0  0  0  0  0  0  0  0  0  0  0  0
    5.4321    0.6455   20.1520 C   0  0  0  0  0  0  0  0  0  0  0  0
    4.8013    1.3160   19.1036 C   0  0  0  0  0  0  0  0  0  0  0  0
    5.3997    1.2950   17.8363 C   0  0  0  0  0  0  0  0  0  0  0  0
    6.5643    0.6801   17.5670 N   0  0  0  0  0  0  0  0  0  0  0  0
    7.1726    0.0758   18.5932 C   0  0  0  0  0  0  0  0  0  0  0  0
    8.1167   -0.4243   18.3804 H   0  0  0  0  0  0  0  0  0  0  0  0
    4.9103    1.7796   16.9965 H   0  0  0  0  0  0  0  0  0  0  0  0
    3.8672    1.8485   19.2604 H   0  0  0  0  0  0  0  0  0  0  0  0
    5.0102    0.6312   21.1622 H   0  0  0  0  0  0  0  0  0  0  0  0
    6.6690   -1.8037   21.7304 C   0  0  0  0  0  0  0  0  0  0  0  0
    6.5929   -2.6817   21.0716 H   0  0  0  0  0  0  0  0  0  0  0  0
    5.6380   -1.5046   21.9073 H   0  0  0  0  0  0  0  0  0  0  0  0
    9.1868    0.3239   20.5954 H   0  0  0  0  0  0  0  0  0  0  0  0
    9.5518   -0.3728   23.1220 H   0  0  0  0  0  0  0  0  0  0  0  0
   10.4819   -1.3176   21.9619 H   0  0  0  0  0  0  0  0  0  0  0  0
    8.9504   -3.1824   22.1050 H   0  0  0  0  0  0  0  0  0  0  0  0
    9.2088   -2.6686   23.7703 H   0  0  0  0  0  0  0  0  0  0  0  0
    6.6375   -2.8082   25.2221 C   0  0  0  0  0  0  0  0  0  0  0  0
    6.9459   -4.1755   25.0239 C   0  0  0  0  0  0  0  0  0  0  0  0
    6.7555   -5.0949   26.0404 C   0  0  0  0  0  0  0  0  0  0  0  0
    6.2431   -4.6711   27.2803 C   0  0  0  0  0  0  0  0  0  0  0  0
    5.9145   -3.3346   27.4951 C   0  0  0  0  0  0  0  0  0  0  0  0
    6.1071   -2.4060   26.4660 C   0  0  0  0  0  0  0  0  0  0  0  0
    5.7656   -1.1103   26.7125 O   0  0  0  0  0  0  0  0  0  0  0  0
    5.5114   -2.9912   28.4437 H   0  0  0  0  0  0  0  0  0  0  0  0
    6.0992   -5.3994   28.0740 H   0  0  0  0  0  0  0  0  0  0  0  0
    7.0038   -6.1381   25.8727 H   0  0  0  0  0  0  0  0  0  0  0  0
    7.3257   -4.4780   24.0496 H   0  0  0  0  0  0  0  0  0  0  0  0
    6.5530    0.2914   23.7460 H   0  0  0  0  0  0  0  0  0  0  0  0
  1  2  2  0
  2  3  1  0
  3  4  2  0
  4  5  1  0
  5  6  1  0
  6  7  1  0
  7  8  1  0
  8  9  2  0
  9 10  1  0
 10 11  2  0
 11 12  1  0
 12 13  2  0
 13 14  1  0
 14 15  2  0
 15 16  1  0
 13 17  1  0
 12 18  1  0
 11 19  1  0
  9 20  1  0
 20 21  1  0
 20 22  1  0
  8 23  1  0
  7 24  1  0
  7 25  1  0
  6 26  1  0
  6 27  1  0
  4 28  1  0
 28 29  2  0
 29 30  1  0
 30 31  2  0
 31 32  1  0
 32 33  2  0
 33 34  1  0
 32 35  1  0
 31 36  1  0
 30 37  1  0
 29 38  1  0
  3 39  1  0
 34  2  1  0
 20  5  1  0
 33 28  1  0
 15 10  1  0
M  END
>  <cnnaffinity>  (1) 
-5.53194

>  <filename>  (1) 
O=c1cc(N2CCC=C(c3cccnc3)C2)c2ccccc2o1

$$$$
