
     RDKit          3D

 34 36  0  0  0  0  0  0  0  0999 V2000
    4.9638    1.8868   16.9554 H   0  0  0  0  0  0  0  0  0  0  0  0
    5.4175    1.3443   17.7826 C   0  0  0  0  0  0  0  0  0  0  0  0
    6.5783    0.7214   17.5192 N   0  0  0  0  0  0  0  0  0  0  0  0
    7.1691    0.0612   18.5226 C   0  0  0  0  0  0  0  0  0  0  0  0
    8.1149   -0.4263   18.2871 H   0  0  0  0  0  0  0  0  0  0  0  0
    6.6275   -0.0383   19.8229 C   0  0  0  0  0  0  0  0  0  0  0  0
    7.3268   -0.7316   20.8888 N   0  0  0  0  0  0  0  0  0  0  0  0
    8.5951   -0.2889   21.2481 C   0  0  0  0  0  0  0  0  0  0  0  0
    8.9591    0.5758   20.6926 H   0  0  0  0  0  0  0  0  0  0  0  0
    9.3481   -0.8816   22.2069 C   0  0  0  0  0  0  0  0  0  0  0  0
   10.7331   -0.4090   22.4558 C   0  0  0  0  0  0  0  0  0  0  0  0
   11.8305   -1.2791   22.3423 C   0  0  0  0  0  0  0  0  0  0  0  0
   11.6515   -2.3209   22.0964 H   0  0  0  0  0  0  0  0  0  0  0  0
   13.1355   -0.8085   22.5037 C   0  0  0  0  0  0  0  0  0  0  0  0
   13.9706   -1.4994   22.4253 H   0  0  0  0  0  0  0  0  0  0  0  0
   13.3738    0.5464   22.7438 C   0  0  0  0  0  0  0  0  0  0  0  0
   14.4010    0.8855   22.8750 H   0  0  0  0  0  0  0  0  0  0  0  0
   12.2911    1.4410   22.8165 C   0  0  0  0  0  0  0  0  0  0  0  0
   12.4985    2.9416   22.9151 C   0  0  0  0  0  0  0  0  0  0  0  0
   12.2663    3.5534   21.7345 F   0  0  0  0  0  0  0  0  0  0  0  0
   13.7448    3.2807   23.2785 F   0  0  0  0  0  0  0  0  0  0  0  0
   11.6545    3.4917   23.8148 F   0  0  0  0  0  0  0  0  0  0  0  0
   10.9767    0.9547   22.7018 C   0  0  0  0  0  0  0  0  0  0  0  0
   10.1303    1.6299   22.8178 H   0  0  0  0  0  0  0  0  0  0  0  0
    8.7620   -2.0192   22.9523 C   0  0  0  0  0  0  0  0  0  0  0  0
    9.2694   -2.7230   23.7988 O   0  0  0  0  0  0  0  0  0  0  0  0
    7.4514   -2.2833   22.6202 N   0  0  0  0  0  0  0  0  0  0  0  0
    7.0336   -3.0543   23.0977 H   0  0  0  0  0  0  0  0  0  0  0  0
    6.7077   -1.7922   21.5987 C   0  0  0  0  0  0  0  0  0  0  0  0
    5.6281   -2.2798   21.3523 O   0  0  0  0  0  0  0  0  0  0  0  0
    5.4127    0.6065   20.0794 C   0  0  0  0  0  0  0  0  0  0  0  0
    4.9658    0.5579   21.0710 H   0  0  0  0  0  0  0  0  0  0  0  0
    4.8025    1.3161   19.0381 C   0  0  0  0  0  0  0  0  0  0  0  0
    3.8735    1.8554   19.1935 H   0  0  0  0  0  0  0  0  0  0  0  0
  1  2  1  0
  2  3  2  0
  3  4  1  0
  4  5  1  0
  4  6  2  0
  6  7  1  0
  7  8  1  0
  8  9  1  0
  8 10  2  0
 10 11  1  0
 11 12  2  0
 12 13  1  0
 12 14  1  0
 14 15  1  0
 14 16  2  0
 16 17  1  0
 16 18  1  0
 18 19  1  0
 19 20  1  0
 19 21  1  0
 19 22  1  0
 18 23  2  0
 23 24  1  0
 10 25  1  0
 25 26  2  0
 25 27  1  0
 27 28  1  0
 27 29  1  0
 29 30  2  0
  6 31  1  0
 31 32  1  0
 31 33  2  0
 33 34  1  0
 33  2  1  0
 29  7  1  0
 23 11  1  0
M  END
>  <cnnaffinity>  (1) 
-5.22609

>  <filename>  (1) 
O=c1[nH]c(=O)n(-c2cccnc2)cc1-c1cccc(C(F)(F)F)c1

$$$$
