
     RDKit          3D

 34 36  0  0  0  0  0  0  0  0999 V2000
    4.9822    1.7453   16.8745 H   0  0  0  0  0  0  0  0  0  0  0  0
    5.4303    1.2816   17.7517 C   0  0  0  0  0  0  0  0  0  0  0  0
    6.5643    0.5896   17.5415 N   0  0  0  0  0  0  0  0  0  0  0  0
    7.1254   -0.0257   18.5901 C   0  0  0  0  0  0  0  0  0  0  0  0
    8.0091   -0.6280   18.3865 H   0  0  0  0  0  0  0  0  0  0  0  0
    6.6219    0.0767   19.9014 C   0  0  0  0  0  0  0  0  0  0  0  0
    7.2778   -0.5817   20.9940 N   0  0  0  0  0  0  0  0  0  0  0  0
    7.5723   -1.9173   20.7761 N   0  0  0  0  0  0  0  0  0  0  0  0
    8.0592   -2.6173   21.7758 C   0  0  0  0  0  0  0  0  0  0  0  0
    8.1865   -3.9565   21.5249 N   0  0  0  0  0  0  0  0  0  0  0  0
    7.8163   -4.1234   20.6018 H   0  0  0  0  0  0  0  0  0  0  0  0
    8.5127   -5.0258   22.4486 C   0  0  0  0  0  0  0  0  0  0  0  0
    9.4235   -4.7655   23.0013 H   0  0  0  0  0  0  0  0  0  0  0  0
    8.7752   -5.8977   21.8369 H   0  0  0  0  0  0  0  0  0  0  0  0
    7.4849   -5.4539   23.5067 C   0  0  0  0  0  0  0  0  0  0  0  0
    7.8169   -5.4059   24.8711 C   0  0  0  0  0  0  0  0  0  0  0  0
    8.7741   -5.0178   25.1983 H   0  0  0  0  0  0  0  0  0  0  0  0
    6.8990   -5.8332   25.8312 C   0  0  0  0  0  0  0  0  0  0  0  0
    7.1585   -5.7668   26.8869 H   0  0  0  0  0  0  0  0  0  0  0  0
    5.6852   -6.3075   25.5310 N   0  0  0  0  0  0  0  0  0  0  0  0
    5.3569   -6.3523   24.2343 C   0  0  0  0  0  0  0  0  0  0  0  0
    4.3634   -6.7286   24.0030 H   0  0  0  0  0  0  0  0  0  0  0  0
    6.2120   -5.9535   23.2013 C   0  0  0  0  0  0  0  0  0  0  0  0
    5.8725   -6.0374   22.1779 H   0  0  0  0  0  0  0  0  0  0  0  0
    8.4567   -2.0130   23.0179 C   0  0  0  0  0  0  0  0  0  0  0  0
    8.8945   -2.6534   23.7748 H   0  0  0  0  0  0  0  0  0  0  0  0
    8.2538   -0.6856   23.1990 C   0  0  0  0  0  0  0  0  0  0  0  0
    8.5357   -0.1432   24.0929 H   0  0  0  0  0  0  0  0  0  0  0  0
    7.5636    0.1389   22.2072 C   0  0  0  0  0  0  0  0  0  0  0  0
    7.2670    1.3053   22.3918 O   0  0  0  0  0  0  0  0  0  0  0  0
    5.4449    0.8050   20.1138 C   0  0  0  0  0  0  0  0  0  0  0  0
    5.0298    0.8942   21.1156 H   0  0  0  0  0  0  0  0  0  0  0  0
    4.8263    1.3928   19.0067 C   0  0  0  0  0  0  0  0  0  0  0  0
    3.8871    1.9269   19.1062 H   0  0  0  0  0  0  0  0  0  0  0  0
  1  2  1  0
  2  3  2  0
  3  4  1  0
  4  5  1  0
  4  6  2  0
  6  7  1  0
  7  8  1  0
  8  9  2  0
  9 10  1  0
 10 11  1  0
 10 12  1  0
 12 13  1  0
 12 14  1  0
 12 15  1  0
 15 16  2  0
 16 17  1  0
 16 18  1  0
 18 19  1  0
 18 20  2  0
 20 21  1  0
 21 22  1  0
 21 23  2  0
 23 24  1  0
  9 25  1  0
 25 26  1  0
 25 27  2  0
 27 28  1  0
 27 29  1  0
 29 30  2  0
  6 31  1  0
 31 32  1  0
 31 33  2  0
 33 34  1  0
 33  2  1  0
 29  7  1  0
 23 15  1  0
M  END
>  <cnnaffinity>  (1) 
-5.12002

>  <filename>  (1) 
O=c1ccc(NCc2ccncc2)nn1-c1cccnc1

$$$$
