
     RDKit          3D

 31 33  0  0  0  0  0  0  0  0999 V2000
    5.6373   -4.7024   27.5115 H   0  0  0  0  0  0  0  0  0  0  0  0
    6.1346   -4.7329   26.5469 C   0  0  0  0  0  0  0  0  0  0  0  0
    5.9105   -3.6781   25.7499 N   0  0  0  0  0  0  0  0  0  0  0  0
    6.5354   -3.6872   24.5757 C   0  0  0  0  0  0  0  0  0  0  0  0
    6.2619   -2.5904   23.7934 N   0  0  0  0  0  0  0  0  0  0  0  0
    5.5175   -2.0293   24.1835 H   0  0  0  0  0  0  0  0  0  0  0  0
    7.1902   -1.9777   23.0061 C   0  0  0  0  0  0  0  0  0  0  0  0
    6.5969   -1.2346   22.0399 O   0  0  0  0  0  0  0  0  0  0  0  0
    7.3635   -0.7283   21.0211 C   0  0  0  0  0  0  0  0  0  0  0  0
    6.5982   -0.0416   19.9613 C   0  0  0  0  0  0  0  0  0  0  0  0
    7.1434    0.0131   18.6666 C   0  0  0  0  0  0  0  0  0  0  0  0
    8.0862   -0.4869   18.4420 H   0  0  0  0  0  0  0  0  0  0  0  0
    6.5707    0.6380   17.6337 N   0  0  0  0  0  0  0  0  0  0  0  0
    5.4144    1.2781   17.8666 C   0  0  0  0  0  0  0  0  0  0  0  0
    4.9750    1.7989   17.0194 H   0  0  0  0  0  0  0  0  0  0  0  0
    4.7812    1.2967   19.1134 C   0  0  0  0  0  0  0  0  0  0  0  0
    3.8579    1.8572   19.2374 H   0  0  0  0  0  0  0  0  0  0  0  0
    5.3726    0.6216   20.1805 C   0  0  0  0  0  0  0  0  0  0  0  0
    4.9175    0.6326   21.1704 H   0  0  0  0  0  0  0  0  0  0  0  0
    8.7074   -0.8161   21.0550 C   0  0  0  0  0  0  0  0  0  0  0  0
    9.3378   -0.3484   20.3178 H   0  0  0  0  0  0  0  0  0  0  0  0
    9.3967   -1.4862   22.1576 C   0  0  0  0  0  0  0  0  0  0  0  0
   10.6194   -1.5410   22.2216 O   0  0  0  0  0  0  0  0  0  0  0  0
    8.5268   -2.0769   23.1425 C   0  0  0  0  0  0  0  0  0  0  0  0
    8.9870   -2.5970   23.9672 H   0  0  0  0  0  0  0  0  0  0  0  0
    7.3575   -4.7276   24.1129 C   0  0  0  0  0  0  0  0  0  0  0  0
    7.7644   -4.6455   23.1098 H   0  0  0  0  0  0  0  0  0  0  0  0
    7.5787   -5.8071   24.9594 C   0  0  0  0  0  0  0  0  0  0  0  0
    8.2483   -6.6073   24.6543 H   0  0  0  0  0  0  0  0  0  0  0  0
    6.9367   -5.8214   26.2053 C   0  0  0  0  0  0  0  0  0  0  0  0
    7.0363   -6.6567   26.8889 H   0  0  0  0  0  0  0  0  0  0  0  0
  1  2  1  0
  2  3  2  0
  3  4  1  0
  4  5  1  0
  5  6  1  0
  5  7  1  0
  7  8  1  0
  8  9  1  0
  9 10  1  0
 10 11  2  0
 11 12  1  0
 11 13  1  0
 13 14  2  0
 14 15  1  0
 14 16  1  0
 16 17  1  0
 16 18  2  0
 18 19  1  0
  9 20  2  0
 20 21  1  0
 20 22  1  0
 22 23  2  0
 22 24  1  0
 24 25  1  0
  4 26  2  0
 26 27  1  0
 26 28  1  0
 28 29  1  0
 28 30  2  0
 30 31  1  0
 30  2  1  0
 24  7  2  0
 18 10  1  0
M  END
>  <cnnaffinity>  (1) 
-5.15817

>  <filename>  (1) 
O=c1cc(Nc2ccccn2)oc(-c2cccnc2)c1

$$$$
