
     RDKit          3D

 35 37  0  0  0  0  0  0  0  0999 V2000
    4.9445    1.8267   17.0137 H   0  0  0  0  0  0  0  0  0  0  0  0
    5.4009    1.2844   17.8370 C   0  0  0  0  0  0  0  0  0  0  0  0
    6.5480    0.6432   17.5611 N   0  0  0  0  0  0  0  0  0  0  0  0
    7.1718    0.0248   18.5698 C   0  0  0  0  0  0  0  0  0  0  0  0
    8.1246   -0.4544   18.3497 H   0  0  0  0  0  0  0  0  0  0  0  0
    6.6600   -0.0153   19.8767 C   0  0  0  0  0  0  0  0  0  0  0  0
    7.3677   -0.6854   20.9227 N   0  0  0  0  0  0  0  0  0  0  0  0
    6.6090   -1.5578   21.6548 N   0  0  0  0  0  0  0  0  0  0  0  0
    7.1699   -2.2348   22.6206 C   0  0  0  0  0  0  0  0  0  0  0  0
    6.2757   -3.2245   23.3622 C   0  0  0  0  0  0  0  0  0  0  0  0
    5.2926   -3.1234   22.8855 H   0  0  0  0  0  0  0  0  0  0  0  0
    6.1380   -2.9064   24.8748 C   0  0  0  0  0  0  0  0  0  0  0  0
    5.7009   -1.9117   25.0291 H   0  0  0  0  0  0  0  0  0  0  0  0
    7.1408   -2.8927   25.3239 H   0  0  0  0  0  0  0  0  0  0  0  0
    5.3019   -3.9636   25.6089 C   0  0  0  0  0  0  0  0  0  0  0  0
    4.2416   -3.8782   25.2927 H   0  0  0  0  0  0  0  0  0  0  0  0
    5.3258   -3.7662   26.6843 H   0  0  0  0  0  0  0  0  0  0  0  0
    5.8723   -5.2851   25.3657 N   0  0  0  0  0  0  0  0  0  0  0  0
    5.4736   -5.9972   25.9677 H   0  0  0  0  0  0  0  0  0  0  0  0
    5.8399   -5.6421   23.9538 C   0  0  0  0  0  0  0  0  0  0  0  0
    6.1801   -6.6665   23.8095 H   0  0  0  0  0  0  0  0  0  0  0  0
    4.8238   -5.5863   23.5143 H   0  0  0  0  0  0  0  0  0  0  0  0
    6.7604   -4.6857   23.1966 C   0  0  0  0  0  0  0  0  0  0  0  0
    6.8179   -4.9740   22.1391 H   0  0  0  0  0  0  0  0  0  0  0  0
    7.7691   -4.7745   23.6260 H   0  0  0  0  0  0  0  0  0  0  0  0
    8.5595   -2.0658   22.9584 C   0  0  0  0  0  0  0  0  0  0  0  0
    8.9941   -2.6650   23.7572 H   0  0  0  0  0  0  0  0  0  0  0  0
    9.3107   -1.1620   22.2663 C   0  0  0  0  0  0  0  0  0  0  0  0
   10.3540   -0.9502   22.4651 H   0  0  0  0  0  0  0  0  0  0  0  0
    8.7480   -0.3732   21.1800 C   0  0  0  0  0  0  0  0  0  0  0  0
    9.3625    0.4585   20.5307 O   0  0  0  0  0  0  0  0  0  0  0  0
    5.4381    0.6121   20.1442 C   0  0  0  0  0  0  0  0  0  0  0  0
    5.0169    0.5487   21.1468 H   0  0  0  0  0  0  0  0  0  0  0  0
    4.8053    1.2962   19.1046 C   0  0  0  0  0  0  0  0  0  0  0  0
    3.8850    1.8508   19.2669 H   0  0  0  0  0  0  0  0  0  0  0  0
  1  2  1  0
  2  3  2  0
  3  4  1  0
  4  5  1  0
  4  6  2  0
  6  7  1  0
  7  8  1  0
  8  9  2  0
  9 10  1  0
 10 11  1  0
 10 12  1  0
 12 13  1  0
 12 14  1  0
 12 15  1  0
 15 16  1  0
 15 17  1  0
 15 18  1  0
 18 19  1  0
 18 20  1  0
 20 21  1  0
 20 22  1  0
 20 23  1  0
 23 24  1  0
 23 25  1  0
  9 26  1  0
 26 27  1  0
 26 28  2  0
 28 29  1  0
 28 30  1  0
 30 31  2  0
  6 32  1  0
 32 33  1  0
 32 34  2  0
 34 35  1  0
 34  2  1  0
 30  7  1  0
 23 10  1  0
M  END
>  <cnnaffinity>  (1) 
-5.15728

>  <filename>  (1) 
O=c1ccc(C2CCNCC2)nn1-c1cccnc1

$$$$
