
     RDKit          3D

 31 33  0  0  0  0  0  0  0  0999 V2000
    4.8834    1.8031   17.0083 H   0  0  0  0  0  0  0  0  0  0  0  0
    5.3967    1.3008   17.8181 C   0  0  0  0  0  0  0  0  0  0  0  0
    6.5647    0.6882   17.5525 N   0  0  0  0  0  0  0  0  0  0  0  0
    7.1713    0.0669   18.5766 C   0  0  0  0  0  0  0  0  0  0  0  0
    8.1213   -0.4293   18.3993 H   0  0  0  0  0  0  0  0  0  0  0  0
    6.6309    0.0023   19.8758 C   0  0  0  0  0  0  0  0  0  0  0  0
    7.3337   -0.7039   20.9493 C   0  0  0  0  0  0  0  0  0  0  0  0
    6.6529   -1.6403   21.7090 C   0  0  0  0  0  0  0  0  0  0  0  0
    5.5974   -1.8396   21.5135 H   0  0  0  0  0  0  0  0  0  0  0  0
    7.3521   -2.3661   22.7801 C   0  0  0  0  0  0  0  0  0  0  0  0
    6.6200   -3.3645   23.5729 C   0  0  0  0  0  0  0  0  0  0  0  0
    6.8246   -3.4523   24.9560 C   0  0  0  0  0  0  0  0  0  0  0  0
    7.5123   -2.7643   25.4378 H   0  0  0  0  0  0  0  0  0  0  0  0
    6.1337   -4.4000   25.7201 C   0  0  0  0  0  0  0  0  0  0  0  0
    6.2989   -4.4578   26.7914 H   0  0  0  0  0  0  0  0  0  0  0  0
    5.2314   -5.2773   25.1109 C   0  0  0  0  0  0  0  0  0  0  0  0
    4.3026   -6.5819   26.1565 Br  0  0  0  0  0  0  0  0  0  0  0  0
    5.0160   -5.1922   23.7318 C   0  0  0  0  0  0  0  0  0  0  0  0
    4.3190   -5.8785   23.2607 H   0  0  0  0  0  0  0  0  0  0  0  0
    5.7002   -4.2371   22.9677 C   0  0  0  0  0  0  0  0  0  0  0  0
    5.5319   -4.1883   21.8965 H   0  0  0  0  0  0  0  0  0  0  0  0
    8.6910   -2.0927   23.0312 C   0  0  0  0  0  0  0  0  0  0  0  0
    9.2075   -2.6409   23.8205 H   0  0  0  0  0  0  0  0  0  0  0  0
    9.3748   -1.1389   22.2558 N   0  0  0  0  0  0  0  0  0  0  0  0
   10.3516   -0.9179   22.4112 H   0  0  0  0  0  0  0  0  0  0  0  0
    8.7566   -0.4423   21.2437 C   0  0  0  0  0  0  0  0  0  0  0  0
    9.4350    0.3839   20.6415 O   0  0  0  0  0  0  0  0  0  0  0  0
    5.4228    0.6397   20.1494 C   0  0  0  0  0  0  0  0  0  0  0  0
    5.0055    0.6308   21.1611 H   0  0  0  0  0  0  0  0  0  0  0  0
    4.8091    1.3083   19.0932 C   0  0  0  0  0  0  0  0  0  0  0  0
    3.8781    1.8379   19.2564 H   0  0  0  0  0  0  0  0  0  0  0  0
  1  2  1  0
  2  3  2  0
  3  4  1  0
  4  5  1  0
  4  6  2  0
  6  7  1  0
  7  8  2  0
  8  9  1  0
  8 10  1  0
 10 11  1  0
 11 12  2  0
 12 13  1  0
 12 14  1  0
 14 15  1  0
 14 16  2  0
 16 17  1  0
 16 18  1  0
 18 19  1  0
 18 20  2  0
 20 21  1  0
 10 22  2  0
 22 23  1  0
 22 24  1  0
 24 25  1  0
 24 26  1  0
 26 27  2  0
  6 28  1  0
 28 29  1  0
 28 30  2  0
 30 31  1  0
 30  2  1  0
 26  7  1  0
 20 11  1  0
M  END
>  <cnnaffinity>  (1) 
-5.28134

>  <filename>  (1) 
O=c1[nH]cc(-c2ccc(Br)cc2)cc1-c1cccnc1

$$$$
