
     RDKit          3D

 30 32  0  0  0  0  0  0  0  0999 V2000
    4.8915    1.7975   17.0131 H   0  0  0  0  0  0  0  0  0  0  0  0
    5.4031    1.2959   17.8267 C   0  0  0  0  0  0  0  0  0  0  0  0
    6.5723    0.6774   17.5829 N   0  0  0  0  0  0  0  0  0  0  0  0
    7.1711    0.0528   18.6043 C   0  0  0  0  0  0  0  0  0  0  0  0
    8.1223   -0.4365   18.4100 H   0  0  0  0  0  0  0  0  0  0  0  0
    6.6198   -0.0034   19.8914 C   0  0  0  0  0  0  0  0  0  0  0  0
    7.3029   -0.7250   20.9649 C   0  0  0  0  0  0  0  0  0  0  0  0
    6.5617   -1.4988   21.7447 N   0  0  0  0  0  0  0  0  0  0  0  0
    7.1687   -2.1978   22.8049 C   0  0  0  0  0  0  0  0  0  0  0  0
    6.3064   -3.0450   23.6639 C   0  0  0  0  0  0  0  0  0  0  0  0
    5.1138   -3.5868   23.1523 C   0  0  0  0  0  0  0  0  0  0  0  0
    4.8356   -3.3776   22.1254 H   0  0  0  0  0  0  0  0  0  0  0  0
    4.2796   -4.3852   23.9413 C   0  0  0  0  0  0  0  0  0  0  0  0
    3.3631   -4.7950   23.5256 H   0  0  0  0  0  0  0  0  0  0  0  0
    4.6269   -4.6504   25.2683 C   0  0  0  0  0  0  0  0  0  0  0  0
    3.9838   -5.2682   25.8874 H   0  0  0  0  0  0  0  0  0  0  0  0
    5.8027   -4.1172   25.8059 C   0  0  0  0  0  0  0  0  0  0  0  0
    6.2647   -4.4717   27.6295 Br  0  0  0  0  0  0  0  0  0  0  0  0
    6.6350   -3.3212   25.0053 C   0  0  0  0  0  0  0  0  0  0  0  0
    7.5311   -2.9013   25.4485 H   0  0  0  0  0  0  0  0  0  0  0  0
    8.5468   -2.1096   23.0309 C   0  0  0  0  0  0  0  0  0  0  0  0
    8.9922   -2.6911   23.8378 H   0  0  0  0  0  0  0  0  0  0  0  0
    9.3596   -1.3006   22.2126 N   0  0  0  0  0  0  0  0  0  0  0  0
   10.3670   -1.2002   22.3478 H   0  0  0  0  0  0  0  0  0  0  0  0
    8.7772   -0.5830   21.1884 C   0  0  0  0  0  0  0  0  0  0  0  0
    9.5207    0.1436   20.5288 O   0  0  0  0  0  0  0  0  0  0  0  0
    5.4157    0.6464   20.1550 C   0  0  0  0  0  0  0  0  0  0  0  0
    4.9825    0.6416   21.1600 H   0  0  0  0  0  0  0  0  0  0  0  0
    4.8119    1.3100   19.0957 C   0  0  0  0  0  0  0  0  0  0  0  0
    3.8802    1.8371   19.2553 H   0  0  0  0  0  0  0  0  0  0  0  0
  1  2  1  0
  2  3  2  0
  3  4  1  0
  4  5  1  0
  4  6  2  0
  6  7  1  0
  7  8  2  0
  8  9  1  0
  9 10  1  0
 10 11  2  0
 11 12  1  0
 11 13  1  0
 13 14  1  0
 13 15  2  0
 15 16  1  0
 15 17  1  0
 17 18  1  0
 17 19  2  0
 19 20  1  0
  9 21  2  0
 21 22  1  0
 21 23  1  0
 23 24  1  0
 23 25  1  0
 25 26  2  0
  6 27  1  0
 27 28  1  0
 27 29  2  0
 29 30  1  0
 29  2  1  0
 25  7  1  0
 19 10  1  0
M  END
>  <cnnaffinity>  (1) 
-5.46487

>  <filename>  (1) 
O=c1[nH]cc(-c2cccc(Br)c2)nc1-c1cccnc1

$$$$
