
     RDKit          3D

 37 39  0  0  0  0  0  0  0  0999 V2000
    4.9756    1.8086   16.9719 H   0  0  0  0  0  0  0  0  0  0  0  0
    5.4362    1.2942   17.8156 C   0  0  0  0  0  0  0  0  0  0  0  0
    6.5933    0.6574   17.5683 N   0  0  0  0  0  0  0  0  0  0  0  0
    7.1857    0.0322   18.5926 C   0  0  0  0  0  0  0  0  0  0  0  0
    8.1122   -0.4804   18.3410 H   0  0  0  0  0  0  0  0  0  0  0  0
    6.6763   -0.0186   19.9054 C   0  0  0  0  0  0  0  0  0  0  0  0
    7.3687   -0.7451   20.9783 C   0  0  0  0  0  0  0  0  0  0  0  0
    6.9070   -1.2999   22.1200 C   0  0  0  0  0  0  0  0  0  0  0  0
    5.9094   -1.4016   22.5010 H   0  0  0  0  0  0  0  0  0  0  0  0
    7.9685   -1.8337   22.8328 N   0  0  0  0  0  0  0  0  0  0  0  0
    7.7451   -2.2307   24.1838 N   0  0  0  0  0  0  0  0  0  0  0  0
    6.7779   -2.5549   24.2429 H   0  0  0  0  0  0  0  0  0  0  0  0
    8.6429   -3.2594   24.7237 C   0  0  0  0  0  0  0  0  0  0  0  0
    9.6555   -2.8249   24.7174 H   0  0  0  0  0  0  0  0  0  0  0  0
    8.7089   -4.5755   23.9231 C   0  0  0  0  0  0  0  0  0  0  0  0
    9.0615   -4.3571   22.9088 H   0  0  0  0  0  0  0  0  0  0  0  0
    7.7045   -5.0174   23.8305 H   0  0  0  0  0  0  0  0  0  0  0  0
    9.6550   -5.5786   24.6128 C   0  0  0  0  0  0  0  0  0  0  0  0
    9.6116   -6.5466   24.1028 H   0  0  0  0  0  0  0  0  0  0  0  0
   10.6897   -5.2122   24.5230 H   0  0  0  0  0  0  0  0  0  0  0  0
    9.3432   -5.8030   26.0978 C   0  0  0  0  0  0  0  0  0  0  0  0
    8.4224   -6.3933   26.1982 H   0  0  0  0  0  0  0  0  0  0  0  0
   10.1476   -6.4024   26.5344 H   0  0  0  0  0  0  0  0  0  0  0  0
    9.1945   -4.4866   26.8692 C   0  0  0  0  0  0  0  0  0  0  0  0
    8.8720   -4.6826   27.8976 H   0  0  0  0  0  0  0  0  0  0  0  0
   10.1737   -3.9935   26.9338 H   0  0  0  0  0  0  0  0  0  0  0  0
    8.2140   -3.5326   26.1719 C   0  0  0  0  0  0  0  0  0  0  0  0
    8.1432   -2.5814   26.7127 H   0  0  0  0  0  0  0  0  0  0  0  0
    7.2034   -3.9794   26.1681 H   0  0  0  0  0  0  0  0  0  0  0  0
    9.1675   -1.6190   22.1156 C   0  0  0  0  0  0  0  0  0  0  0  0
   10.3252   -1.9273   22.3615 O   0  0  0  0  0  0  0  0  0  0  0  0
    8.7447   -0.9801   20.9724 N   0  0  0  0  0  0  0  0  0  0  0  0
    9.4568   -0.6105   20.3745 H   0  0  0  0  0  0  0  0  0  0  0  0
    5.4573    0.6504   20.1353 C   0  0  0  0  0  0  0  0  0  0  0  0
    5.0180    0.6676   21.1331 H   0  0  0  0  0  0  0  0  0  0  0  0
    4.8315    1.3090   19.0759 C   0  0  0  0  0  0  0  0  0  0  0  0
    3.8977    1.8448   19.2088 H   0  0  0  0  0  0  0  0  0  0  0  0
  1  2  1  0
  2  3  2  0
  3  4  1  0
  4  5  1  0
  4  6  2  0
  6  7  1  0
  7  8  2  0
  8  9  1  0
  8 10  1  0
 10 11  1  0
 11 12  1  0
 11 13  1  0
 13 14  1  0
 13 15  1  0
 15 16  1  0
 15 17  1  0
 15 18  1  0
 18 19  1  0
 18 20  1  0
 18 21  1  0
 21 22  1  0
 21 23  1  0
 21 24  1  0
 24 25  1  0
 24 26  1  0
 24 27  1  0
 27 28  1  0
 27 29  1  0
 10 30  1  0
 30 31  2  0
 30 32  1  0
 32 33  1  0
  6 34  1  0
 34 35  1  0
 34 36  2  0
 36 37  1  0
 36  2  1  0
 32  7  1  0
 27 13  1  0
M  END
>  <cnnaffinity>  (1) 
-5.22364

>  <filename>  (1) 
O=c1[nH]c(-c2cccnc2)cn1NC1CCCCC1

$$$$
