
     RDKit          3D

 30 32  0  0  0  0  0  0  0  0999 V2000
    4.9828    1.8361   16.9545 H   0  0  0  0  0  0  0  0  0  0  0  0
    5.4514    1.3254   17.7944 C   0  0  0  0  0  0  0  0  0  0  0  0
    6.6419    0.7572   17.5442 N   0  0  0  0  0  0  0  0  0  0  0  0
    7.2417    0.1201   18.5512 C   0  0  0  0  0  0  0  0  0  0  0  0
    8.2301   -0.2860   18.3347 H   0  0  0  0  0  0  0  0  0  0  0  0
    6.6636   -0.0532   19.8240 C   0  0  0  0  0  0  0  0  0  0  0  0
    7.4057   -0.8319   20.8314 C   0  0  0  0  0  0  0  0  0  0  0  0
    8.7017   -0.5906   20.9091 N   0  0  0  0  0  0  0  0  0  0  0  0
    9.4326   -1.1293   21.9405 C   0  0  0  0  0  0  0  0  0  0  0  0
   10.8965   -0.8165   21.9869 C   0  0  0  0  0  0  0  0  0  0  0  0
   11.8647   -1.8363   22.0544 C   0  0  0  0  0  0  0  0  0  0  0  0
   11.5345   -2.8714   22.0685 H   0  0  0  0  0  0  0  0  0  0  0  0
   13.2324   -1.5491   22.1116 C   0  0  0  0  0  0  0  0  0  0  0  0
   13.9643   -2.3484   22.1442 H   0  0  0  0  0  0  0  0  0  0  0  0
   13.6640   -0.2213   22.1706 C   0  0  0  0  0  0  0  0  0  0  0  0
   14.7261    0.0105   22.2303 H   0  0  0  0  0  0  0  0  0  0  0  0
   12.7248    0.8103   22.1310 C   0  0  0  0  0  0  0  0  0  0  0  0
   13.0286    1.8492   22.1756 H   0  0  0  0  0  0  0  0  0  0  0  0
   11.3695    0.5058   21.9810 C   0  0  0  0  0  0  0  0  0  0  0  0
   10.5237    1.5292   21.7957 F   0  0  0  0  0  0  0  0  0  0  0  0
    8.8560   -1.9062   22.9180 C   0  0  0  0  0  0  0  0  0  0  0  0
    9.3963   -2.2742   23.7867 H   0  0  0  0  0  0  0  0  0  0  0  0
    7.5224   -2.2264   22.8028 N   0  0  0  0  0  0  0  0  0  0  0  0
    7.0301   -2.8739   23.4074 H   0  0  0  0  0  0  0  0  0  0  0  0
    6.7218   -1.8711   21.7166 C   0  0  0  0  0  0  0  0  0  0  0  0
    5.6387   -2.4181   21.6057 O   0  0  0  0  0  0  0  0  0  0  0  0
    5.4431    0.5910   20.0859 C   0  0  0  0  0  0  0  0  0  0  0  0
    4.9969    0.5698   21.0805 H   0  0  0  0  0  0  0  0  0  0  0  0
    4.8305    1.2914   19.0441 C   0  0  0  0  0  0  0  0  0  0  0  0
    3.8989    1.8269   19.1885 H   0  0  0  0  0  0  0  0  0  0  0  0
  1  2  1  0
  2  3  2  0
  3  4  1  0
  4  5  1  0
  4  6  2  0
  6  7  1  0
  7  8  2  0
  8  9  1  0
  9 10  1  0
 10 11  2  0
 11 12  1  0
 11 13  1  0
 13 14  1  0
 13 15  2  0
 15 16  1  0
 15 17  1  0
 17 18  1  0
 17 19  2  0
 19 20  1  0
  9 21  2  0
 21 22  1  0
 21 23  1  0
 23 24  1  0
 23 25  1  0
 25 26  2  0
  6 27  1  0
 27 28  1  0
 27 29  2  0
 29 30  1  0
 29  2  1  0
 25  7  1  0
 19 10  1  0
M  END
>  <cnnaffinity>  (1) 
-5.71482

>  <filename>  (1) 
O=c1[nH]cc(-c2ccccc2F)nc1-c1cccnc1

$$$$
