
     RDKit          3D

 28 30  0  0  0  0  0  0  0  0999 V2000
    4.9684    1.7851   16.9598 H   0  0  0  0  0  0  0  0  0  0  0  0
    5.4236    1.3059   17.8317 C   0  0  0  0  0  0  0  0  0  0  0  0
    6.5876    0.6708   17.6302 N   0  0  0  0  0  0  0  0  0  0  0  0
    7.1554    0.0736   18.6859 C   0  0  0  0  0  0  0  0  0  0  0  0
    8.1026   -0.4236   18.4793 H   0  0  0  0  0  0  0  0  0  0  0  0
    6.6317    0.0754   19.9950 C   0  0  0  0  0  0  0  0  0  0  0  0
    7.3695   -0.6245   21.0612 C   0  0  0  0  0  0  0  0  0  0  0  0
    8.0106   -1.8011   21.0353 C   0  0  0  0  0  0  0  0  0  0  0  0
    8.0718   -2.6038   20.3345 H   0  0  0  0  0  0  0  0  0  0  0  0
    8.5440   -2.0983   22.2573 O   0  0  0  0  0  0  0  0  0  0  0  0
    8.2128   -1.1130   23.1394 C   0  0  0  0  0  0  0  0  0  0  0  0
    8.5030   -1.1249   24.3069 O   0  0  0  0  0  0  0  0  0  0  0  0
    7.4984   -0.1795   22.3984 N   0  0  0  0  0  0  0  0  0  0  0  0
    7.0657    1.0397   22.9685 C   0  0  0  0  0  0  0  0  0  0  0  0
    6.1308    0.9856   24.0097 C   0  0  0  0  0  0  0  0  0  0  0  0
    5.8210    0.0071   24.3704 H   0  0  0  0  0  0  0  0  0  0  0  0
    5.6479    2.1655   24.5646 C   0  0  0  0  0  0  0  0  0  0  0  0
    4.9047    2.1188   25.3508 H   0  0  0  0  0  0  0  0  0  0  0  0
    6.1120    3.3992   24.1080 C   0  0  0  0  0  0  0  0  0  0  0  0
    5.7311    4.3238   24.5264 H   0  0  0  0  0  0  0  0  0  0  0  0
    7.0622    3.4528   23.0860 C   0  0  0  0  0  0  0  0  0  0  0  0
    7.5937    5.0028   22.5429 Cl  0  0  0  0  0  0  0  0  0  0  0  0
    7.5492    2.2770   22.4995 C   0  0  0  0  0  0  0  0  0  0  0  0
    8.7202    2.3416   21.2308 Cl  0  0  0  0  0  0  0  0  0  0  0  0
    5.4043    0.7435   20.1823 C   0  0  0  0  0  0  0  0  0  0  0  0
    4.9450    0.7866   21.1717 H   0  0  0  0  0  0  0  0  0  0  0  0
    4.7953    1.3545   19.0816 C   0  0  0  0  0  0  0  0  0  0  0  0
    3.8429    1.8635   19.1655 H   0  0  0  0  0  0  0  0  0  0  0  0
  1  2  1  0
  2  3  2  0
  3  4  1  0
  4  5  1  0
  4  6  2  0
  6  7  1  0
  7  8  2  0
  8  9  1  0
  8 10  1  0
 10 11  1  0
 11 12  2  0
 11 13  1  0
 13 14  1  0
 14 15  2  0
 15 16  1  0
 15 17  1  0
 17 18  1  0
 17 19  2  0
 19 20  1  0
 19 21  1  0
 21 22  1  0
 21 23  2  0
 23 24  1  0
  6 25  1  0
 25 26  1  0
 25 27  2  0
 27 28  1  0
 27  2  1  0
 13  7  1  0
 23 14  1  0
M  END
>  <cnnaffinity>  (1) 
-5.0179

>  <filename>  (1) 
O=c1occ(-c2cccnc2)n1-c1cccc(Cl)c1Cl

$$$$
