
     RDKit          3D

 32 35  0  0  0  0  0  0  0  0999 V2000
    4.9605    1.7990   17.0065 H   0  0  0  0  0  0  0  0  0  0  0  0
    5.4219    1.2845   17.8462 C   0  0  0  0  0  0  0  0  0  0  0  0
    6.5977    0.6823   17.6001 N   0  0  0  0  0  0  0  0  0  0  0  0
    7.2044    0.0602   18.6202 C   0  0  0  0  0  0  0  0  0  0  0  0
    8.1552   -0.4255   18.4005 H   0  0  0  0  0  0  0  0  0  0  0  0
    6.6579   -0.0071   19.9217 C   0  0  0  0  0  0  0  0  0  0  0  0
    7.2927   -0.6964   21.0084 N   0  0  0  0  0  0  0  0  0  0  0  0
    7.7520   -0.1296   22.2251 C   0  0  0  0  0  0  0  0  0  0  0  0
    7.4418    1.2093   22.7475 C   0  0  0  0  0  0  0  0  0  0  0  0
    7.7141    2.3724   22.0151 C   0  0  0  0  0  0  0  0  0  0  0  0
    8.1236    2.2621   21.0176 H   0  0  0  0  0  0  0  0  0  0  0  0
    7.4324    3.6479   22.5386 C   0  0  0  0  0  0  0  0  0  0  0  0
    7.6773    4.5247   21.9490 H   0  0  0  0  0  0  0  0  0  0  0  0
    6.8608    3.8058   23.7967 C   0  0  0  0  0  0  0  0  0  0  0  0
    6.6583    4.7934   24.2024 H   0  0  0  0  0  0  0  0  0  0  0  0
    6.5508    2.6442   24.5202 C   0  0  0  0  0  0  0  0  0  0  0  0
    6.8136    1.3423   24.0237 C   0  0  0  0  0  0  0  0  0  0  0  0
    6.2881    0.4258   25.0099 C   0  0  0  0  0  0  0  0  0  0  0  0
    6.2525   -0.6534   24.9261 H   0  0  0  0  0  0  0  0  0  0  0  0
    5.7955    1.1703   26.0418 C   0  0  0  0  0  0  0  0  0  0  0  0
    5.3452    0.8501   26.9741 H   0  0  0  0  0  0  0  0  0  0  0  0
    5.9549    2.5068   25.7522 N   0  0  0  0  0  0  0  0  0  0  0  0
    5.6787    3.2735   26.3425 H   0  0  0  0  0  0  0  0  0  0  0  0
    8.3050   -1.1397   22.9086 C   0  0  0  0  0  0  0  0  0  0  0  0
    8.8400   -1.1448   23.8472 H   0  0  0  0  0  0  0  0  0  0  0  0
    8.0862   -2.3278   22.2698 O   0  0  0  0  0  0  0  0  0  0  0  0
    7.3253   -2.0906   21.1535 C   0  0  0  0  0  0  0  0  0  0  0  0
    6.7918   -2.9467   20.5023 O   0  0  0  0  0  0  0  0  0  0  0  0
    5.4364    0.6246   20.1610 C   0  0  0  0  0  0  0  0  0  0  0  0
    5.0349    0.6189   21.1762 H   0  0  0  0  0  0  0  0  0  0  0  0
    4.8036    1.2795   19.1019 C   0  0  0  0  0  0  0  0  0  0  0  0
    3.8681    1.8089   19.2522 H   0  0  0  0  0  0  0  0  0  0  0  0
  1  2  1  0
  2  3  2  0
  3  4  1  0
  4  5  1  0
  4  6  2  0
  6  7  1  0
  7  8  1  0
  8  9  1  0
  9 10  2  0
 10 11  1  0
 10 12  1  0
 12 13  1  0
 12 14  2  0
 14 15  1  0
 14 16  1  0
 16 17  2  0
 17 18  1  0
 18 19  1  0
 18 20  2  0
 20 21  1  0
 20 22  1  0
 22 23  1  0
  8 24  2  0
 24 25  1  0
 24 26  1  0
 26 27  1  0
 27 28  2  0
  6 29  1  0
 29 30  1  0
 29 31  2  0
 31 32  1  0
 31  2  1  0
 27  7  1  0
 17  9  1  0
 22 16  1  0
M  END
>  <cnnaffinity>  (1) 
-5.32229

>  <filename>  (1) 
O=c1occ(-c2cccc3[nH]ccc23)n1-c1cccnc1

$$$$
