
     RDKit          3D

 33 35  0  0  0  0  0  0  0  0999 V2000
    4.9327    1.7890   16.9868 H   0  0  0  0  0  0  0  0  0  0  0  0
    5.4000    1.2957   17.8358 C   0  0  0  0  0  0  0  0  0  0  0  0
    6.5594    0.6724   17.5766 N   0  0  0  0  0  0  0  0  0  0  0  0
    7.1638    0.0594   18.5996 C   0  0  0  0  0  0  0  0  0  0  0  0
    8.1032   -0.4277   18.3454 H   0  0  0  0  0  0  0  0  0  0  0  0
    6.6530    0.0081   19.9087 C   0  0  0  0  0  0  0  0  0  0  0  0
    7.3834   -0.7068   20.9909 C   0  0  0  0  0  0  0  0  0  0  0  0
    6.6013   -1.2802   21.9715 N   0  0  0  0  0  0  0  0  0  0  0  0
    7.1645   -1.9513   22.9578 C   0  0  0  0  0  0  0  0  0  0  0  0
    6.3096   -2.5790   24.0100 C   0  0  0  0  0  0  0  0  0  0  0  0
    6.5161   -2.2086   25.3519 C   0  0  0  0  0  0  0  0  0  0  0  0
    7.3384   -1.5393   25.5987 H   0  0  0  0  0  0  0  0  0  0  0  0
    5.7045   -2.7187   26.3668 C   0  0  0  0  0  0  0  0  0  0  0  0
    5.8810   -2.4252   27.3979 H   0  0  0  0  0  0  0  0  0  0  0  0
    4.6687   -3.6060   26.0598 C   0  0  0  0  0  0  0  0  0  0  0  0
    4.0257   -3.9997   26.8436 H   0  0  0  0  0  0  0  0  0  0  0  0
    4.4699   -4.0090   24.7396 C   0  0  0  0  0  0  0  0  0  0  0  0
    3.6592   -4.6943   24.4978 H   0  0  0  0  0  0  0  0  0  0  0  0
    5.3130   -3.5446   23.7205 C   0  0  0  0  0  0  0  0  0  0  0  0
    5.0808   -4.0329   22.3030 C   0  0  0  0  0  0  0  0  0  0  0  0
    6.2289   -4.2823   21.6394 F   0  0  0  0  0  0  0  0  0  0  0  0
    4.3264   -5.1471   22.2314 F   0  0  0  0  0  0  0  0  0  0  0  0
    4.4381   -3.0962   21.6156 F   0  0  0  0  0  0  0  0  0  0  0  0
    8.6553   -2.0808   23.0876 C   0  0  0  0  0  0  0  0  0  0  0  0
    9.3363   -2.6469   23.9282 O   0  0  0  0  0  0  0  0  0  0  0  0
    9.3466   -1.4459   22.0637 N   0  0  0  0  0  0  0  0  0  0  0  0
   10.3392   -1.5793   22.2150 H   0  0  0  0  0  0  0  0  0  0  0  0
    8.7476   -0.7689   21.0262 C   0  0  0  0  0  0  0  0  0  0  0  0
    9.3849   -0.2759   20.3002 H   0  0  0  0  0  0  0  0  0  0  0  0
    5.4298    0.6521   20.1578 C   0  0  0  0  0  0  0  0  0  0  0  0
    5.0102    0.6072   21.1664 H   0  0  0  0  0  0  0  0  0  0  0  0
    4.8056    1.3154   19.1024 C   0  0  0  0  0  0  0  0  0  0  0  0
    3.8731    1.8463   19.2438 H   0  0  0  0  0  0  0  0  0  0  0  0
  1  2  1  0
  2  3  2  0
  3  4  1  0
  4  5  1  0
  4  6  2  0
  6  7  1  0
  7  8  1  0
  8  9  2  0
  9 10  1  0
 10 11  2  0
 11 12  1  0
 11 13  1  0
 13 14  1  0
 13 15  2  0
 15 16  1  0
 15 17  1  0
 17 18  1  0
 17 19  2  0
 19 20  1  0
 20 21  1  0
 20 22  1  0
 20 23  1  0
  9 24  1  0
 24 25  2  0
 24 26  1  0
 26 27  1  0
 26 28  1  0
 28 29  1  0
  6 30  1  0
 30 31  1  0
 30 32  2  0
 32 33  1  0
 32  2  1  0
 28  7  2  0
 19 10  1  0
M  END
>  <cnnaffinity>  (1) 
-5.27835

>  <filename>  (1) 
O=c1[nH]cc(-c2cccnc2)nc1-c1ccccc1C(F)(F)F

$$$$
