
     RDKit          3D

 38 40  0  0  0  0  0  0  0  0999 V2000
    4.9739    1.7692   16.9883 H   0  0  0  0  0  0  0  0  0  0  0  0
    5.4620    1.2912   17.8336 C   0  0  0  0  0  0  0  0  0  0  0  0
    6.6388    0.6956   17.5682 N   0  0  0  0  0  0  0  0  0  0  0  0
    7.2541    0.0709   18.5765 C   0  0  0  0  0  0  0  0  0  0  0  0
    8.2151   -0.3908   18.3658 H   0  0  0  0  0  0  0  0  0  0  0  0
    6.7115   -0.0239   19.8728 C   0  0  0  0  0  0  0  0  0  0  0  0
    7.3920   -0.7497   20.8788 N   0  0  0  0  0  0  0  0  0  0  0  0
    8.7649   -0.7307   20.9039 N   0  0  0  0  0  0  0  0  0  0  0  0
    9.1385   -1.5051   21.8796 C   0  0  0  0  0  0  0  0  0  0  0  0
   10.5747   -1.7773   22.1292 C   0  0  0  0  0  0  0  0  0  0  0  0
   10.6806   -2.4424   23.0005 H   0  0  0  0  0  0  0  0  0  0  0  0
   10.9831   -2.3053   21.2579 H   0  0  0  0  0  0  0  0  0  0  0  0
   11.3817   -0.4876   22.3719 C   0  0  0  0  0  0  0  0  0  0  0  0
   11.1298    0.2402   21.5837 H   0  0  0  0  0  0  0  0  0  0  0  0
   12.8897   -0.7670   22.2499 C   0  0  0  0  0  0  0  0  0  0  0  0
   13.1428   -1.7138   22.7228 H   0  0  0  0  0  0  0  0  0  0  0  0
   13.1204   -0.9550   21.1924 H   0  0  0  0  0  0  0  0  0  0  0  0
   13.7858    0.3572   22.7930 C   0  0  0  0  0  0  0  0  0  0  0  0
   14.8037   -0.0285   22.9172 H   0  0  0  0  0  0  0  0  0  0  0  0
   13.8312    1.1528   22.0454 H   0  0  0  0  0  0  0  0  0  0  0  0
   13.2996    0.9913   24.1070 C   0  0  0  0  0  0  0  0  0  0  0  0
   13.8816    1.8952   24.2900 H   0  0  0  0  0  0  0  0  0  0  0  0
   13.4761    0.3182   24.9571 H   0  0  0  0  0  0  0  0  0  0  0  0
   11.8159    1.3665   24.0563 C   0  0  0  0  0  0  0  0  0  0  0  0
   11.4962    1.8075   25.0112 H   0  0  0  0  0  0  0  0  0  0  0  0
   11.6674    2.1299   23.2762 H   0  0  0  0  0  0  0  0  0  0  0  0
   10.9675    0.1436   23.7146 C   0  0  0  0  0  0  0  0  0  0  0  0
   11.0588   -0.6033   24.5181 H   0  0  0  0  0  0  0  0  0  0  0  0
    9.9047    0.4153   23.6739 H   0  0  0  0  0  0  0  0  0  0  0  0
    7.9889   -2.0326   22.6740 C   0  0  0  0  0  0  0  0  0  0  0  0
    7.9948   -3.0908   22.9344 H   0  0  0  0  0  0  0  0  0  0  0  0
    7.8750   -1.4670   23.6054 H   0  0  0  0  0  0  0  0  0  0  0  0
    6.8434   -1.6692   21.7676 C   0  0  0  0  0  0  0  0  0  0  0  0
    5.7158   -2.0953   21.7809 O   0  0  0  0  0  0  0  0  0  0  0  0
    5.4958    0.6119   20.1492 C   0  0  0  0  0  0  0  0  0  0  0  0
    5.0834    0.5892   21.1574 H   0  0  0  0  0  0  0  0  0  0  0  0
    4.8632    1.2864   19.0993 C   0  0  0  0  0  0  0  0  0  0  0  0
    3.9267    1.8098   19.2514 H   0  0  0  0  0  0  0  0  0  0  0  0
  1  2  1  0
  2  3  2  0
  3  4  1  0
  4  5  1  0
  4  6  2  0
  6  7  1  0
  7  8  1  0
  8  9  2  0
  9 10  1  0
 10 11  1  0
 10 12  1  0
 10 13  1  0
 13 14  1  0
 13 15  1  0
 15 16  1  0
 15 17  1  0
 15 18  1  0
 18 19  1  0
 18 20  1  0
 18 21  1  0
 21 22  1  0
 21 23  1  0
 21 24  1  0
 24 25  1  0
 24 26  1  0
 24 27  1  0
 27 28  1  0
 27 29  1  0
  9 30  1  0
 30 31  1  0
 30 32  1  0
 30 33  1  0
 33 34  2  0
  6 35  1  0
 35 36  1  0
 35 37  2  0
 37 38  1  0
 37  2  1  0
 33  7  1  0
 27 13  1  0
M  END
>  <cnnaffinity>  (1) 
-5.49672

>  <filename>  (1) 
O=C1CC(CC2CCCCC2)=NN1c1cccnc1

$$$$
