
     RDKit          3D

 36 39  0  0  0  0  0  0  0  0999 V2000
    4.9742    1.8552   16.9385 H   0  0  0  0  0  0  0  0  0  0  0  0
    5.4136    1.3179   17.7764 C   0  0  0  0  0  0  0  0  0  0  0  0
    6.5680    0.6822   17.5295 N   0  0  0  0  0  0  0  0  0  0  0  0
    7.1326    0.0187   18.5455 C   0  0  0  0  0  0  0  0  0  0  0  0
    8.0828   -0.4692   18.3235 H   0  0  0  0  0  0  0  0  0  0  0  0
    6.5899   -0.0735   19.8392 C   0  0  0  0  0  0  0  0  0  0  0  0
    7.2994   -0.8209   20.9488 C   0  0  2  0  0  0  0  0  0  0  0  0
    8.2096   -1.2948   20.5507 H   0  0  0  0  0  0  0  0  0  0  0  0
    6.4686   -1.9382   21.6313 C   0  0  0  0  0  0  0  0  0  0  0  0
    6.7454   -2.9338   21.2665 H   0  0  0  0  0  0  0  0  0  0  0  0
    5.3862   -1.8346   21.4581 H   0  0  0  0  0  0  0  0  0  0  0  0
    6.8031   -1.7983   23.0355 N   0  0  0  0  0  0  0  0  0  0  0  0
    6.2774   -2.2437   23.7714 H   0  0  0  0  0  0  0  0  0  0  0  0
    7.3074   -0.5808   23.3864 C   0  0  0  0  0  0  0  0  0  0  0  0
    7.3808   -0.1837   24.5294 O   0  0  0  0  0  0  0  0  0  0  0  0
    7.7270    0.1326   22.1014 C   0  0  1  0  0  0  0  0  0  0  0  0
    7.1440    1.0615   22.0953 H   0  0  0  0  0  0  0  0  0  0  0  0
    9.2009    0.5157   22.0835 C   0  0  0  0  0  0  0  0  0  0  0  0
   10.1769   -0.4635   22.4125 C   0  0  0  0  0  0  0  0  0  0  0  0
    9.8660   -1.4951   22.5590 H   0  0  0  0  0  0  0  0  0  0  0  0
   11.5232   -0.1407   22.5510 C   0  0  0  0  0  0  0  0  0  0  0  0
   12.2551   -0.9081   22.7824 H   0  0  0  0  0  0  0  0  0  0  0  0
   11.9269    1.1981   22.3694 C   0  0  0  0  0  0  0  0  0  0  0  0
   13.1576    1.9295   22.5412 C   0  0  0  0  0  0  0  0  0  0  0  0
   14.1027    1.5316   22.8859 H   0  0  0  0  0  0  0  0  0  0  0  0
   12.9149    3.2190   22.1629 C   0  0  0  0  0  0  0  0  0  0  0  0
   13.5866    4.0686   22.1268 H   0  0  0  0  0  0  0  0  0  0  0  0
   11.5980    3.3419   21.7674 N   0  0  0  0  0  0  0  0  0  0  0  0
   11.1688    4.1463   21.3421 H   0  0  0  0  0  0  0  0  0  0  0  0
   10.9643    2.1349   21.9174 C   0  0  0  0  0  0  0  0  0  0  0  0
    9.6035    1.8146   21.7722 C   0  0  0  0  0  0  0  0  0  0  0  0
    8.9117    2.5840   21.4358 H   0  0  0  0  0  0  0  0  0  0  0  0
    5.3853    0.6073   20.0734 C   0  0  0  0  0  0  0  0  0  0  0  0
    4.9363    0.6106   21.0692 H   0  0  0  0  0  0  0  0  0  0  0  0
    4.7869    1.3075   19.0257 C   0  0  0  0  0  0  0  0  0  0  0  0
    3.8726    1.8690   19.1680 H   0  0  0  0  0  0  0  0  0  0  0  0
  1  2  1  0
  2  3  2  0
  3  4  1  0
  4  5  1  0
  4  6  2  0
  6  7  1  0
  7  8  1  6
  7  9  1  0
  9 10  1  0
  9 11  1  0
  9 12  1  0
 12 13  1  0
 12 14  1  0
 14 15  2  0
 14 16  1  0
 16 17  1  6
 16 18  1  0
 18 19  2  0
 19 20  1  0
 19 21  1  0
 21 22  1  0
 21 23  2  0
 23 24  1  0
 24 25  1  0
 24 26  2  0
 26 27  1  0
 26 28  1  0
 28 29  1  0
 28 30  1  0
 30 31  2  0
 31 32  1  0
  6 33  1  0
 33 34  1  0
 33 35  2  0
 35 36  1  0
 35  2  1  0
 16  7  1  0
 31 18  1  0
 30 23  1  0
M  END
>  <cnnaffinity>  (1) 
-5.29107

>  <filename>  (1) 
O=C1NC[C@@H](c2cccnc2)[C@@H]1c1ccc2cc[nH]c2c1

$$$$
