
     RDKit          3D

 31 33  0  0  0  0  0  0  0  0999 V2000
    4.9615    1.8622   16.9552 H   0  0  0  0  0  0  0  0  0  0  0  0
    5.4208    1.3353   17.7884 C   0  0  0  0  0  0  0  0  0  0  0  0
    6.5822    0.7139   17.5281 N   0  0  0  0  0  0  0  0  0  0  0  0
    7.1765    0.0672   18.5388 C   0  0  0  0  0  0  0  0  0  0  0  0
    8.1207   -0.4265   18.3134 H   0  0  0  0  0  0  0  0  0  0  0  0
    6.6341   -0.0210   19.8374 C   0  0  0  0  0  0  0  0  0  0  0  0
    7.3286   -0.7124   20.8979 N   0  0  0  0  0  0  0  0  0  0  0  0
    8.5870   -0.2551   21.2360 C   0  0  0  0  0  0  0  0  0  0  0  0
    8.9425    0.5970   20.6659 H   0  0  0  0  0  0  0  0  0  0  0  0
    9.3574   -0.8317   22.2035 C   0  0  0  0  0  0  0  0  0  0  0  0
   10.7395   -0.3272   22.4495 C   0  0  0  0  0  0  0  0  0  0  0  0
   11.8450   -1.1958   22.4090 C   0  0  0  0  0  0  0  0  0  0  0  0
   11.6773   -2.2456   22.1800 H   0  0  0  0  0  0  0  0  0  0  0  0
   13.1356   -0.7055   22.6365 C   0  0  0  0  0  0  0  0  0  0  0  0
   13.9877   -1.3779   22.6668 H   0  0  0  0  0  0  0  0  0  0  0  0
   13.3439    0.6456   22.9162 C   0  0  0  0  0  0  0  0  0  0  0  0
   14.3509    1.0232   23.0679 H   0  0  0  0  0  0  0  0  0  0  0  0
   12.2422    1.5058   22.9552 C   0  0  0  0  0  0  0  0  0  0  0  0
   12.4971    3.1894   23.3092 Cl  0  0  0  0  0  0  0  0  0  0  0  0
   10.9493    1.0402   22.7126 C   0  0  0  0  0  0  0  0  0  0  0  0
   10.1172    1.7426   22.7182 H   0  0  0  0  0  0  0  0  0  0  0  0
    8.7906   -1.9159   22.9497 C   0  0  0  0  0  0  0  0  0  0  0  0
    9.3683   -2.3733   23.7540 H   0  0  0  0  0  0  0  0  0  0  0  0
    7.5348   -2.3689   22.6689 C   0  0  0  0  0  0  0  0  0  0  0  0
    7.0582   -3.1872   23.1881 H   0  0  0  0  0  0  0  0  0  0  0  0
    6.7138   -1.8145   21.5972 C   0  0  0  0  0  0  0  0  0  0  0  0
    5.6219   -2.2537   21.2895 O   0  0  0  0  0  0  0  0  0  0  0  0
    5.4276    0.6350   20.0951 C   0  0  0  0  0  0  0  0  0  0  0  0
    5.0029    0.5942   21.0972 H   0  0  0  0  0  0  0  0  0  0  0  0
    4.8101    1.3265   19.0475 C   0  0  0  0  0  0  0  0  0  0  0  0
    3.8806    1.8638   19.1988 H   0  0  0  0  0  0  0  0  0  0  0  0
  1  2  1  0
  2  3  2  0
  3  4  1  0
  4  5  1  0
  4  6  2  0
  6  7  1  0
  7  8  1  0
  8  9  1  0
  8 10  2  0
 10 11  1  0
 11 12  2  0
 12 13  1  0
 12 14  1  0
 14 15  1  0
 14 16  2  0
 16 17  1  0
 16 18  1  0
 18 19  1  0
 18 20  2  0
 20 21  1  0
 10 22  1  0
 22 23  1  0
 22 24  2  0
 24 25  1  0
 24 26  1  0
 26 27  2  0
  6 28  1  0
 28 29  1  0
 28 30  2  0
 30 31  1  0
 30  2  1  0
 26  7  1  0
 20 11  1  0
M  END
>  <cnnaffinity>  (1) 
-5.29815

>  <filename>  (1) 
O=c1ccc(-c2cccc(Cl)c2)cn1-c1cccnc1

$$$$
