
     RDKit          3D

 34 37  0  0  0  0  0  0  0  0999 V2000
    4.9092    1.7966   16.9302 H   0  0  0  0  0  0  0  0  0  0  0  0
    5.3630    1.3383   17.8053 C   0  0  0  0  0  0  0  0  0  0  0  0
    6.5381    0.7258   17.5974 N   0  0  0  0  0  0  0  0  0  0  0  0
    7.1225    0.1663   18.6568 C   0  0  0  0  0  0  0  0  0  0  0  0
    8.0766   -0.3197   18.4648 H   0  0  0  0  0  0  0  0  0  0  0  0
    6.6006    0.1945   19.9612 C   0  0  0  0  0  0  0  0  0  0  0  0
    7.3742   -0.4817   21.0203 C   0  0  0  0  0  0  0  0  0  0  0  0
    7.0998   -0.0630   22.2921 O   0  0  0  0  0  0  0  0  0  0  0  0
    7.7605   -0.6464   23.3489 C   0  0  0  0  0  0  0  0  0  0  0  0
    7.5018   -0.0241   24.6691 C   0  0  0  0  0  0  0  0  0  0  0  0
    6.3154    0.7350   24.8862 C   0  0  0  0  0  0  0  0  0  0  0  0
    5.6247    0.8751   24.0569 H   0  0  0  0  0  0  0  0  0  0  0  0
    6.0400    1.2894   26.1283 C   0  0  0  0  0  0  0  0  0  0  0  0
    5.1559    1.9046   26.2663 H   0  0  0  0  0  0  0  0  0  0  0  0
    6.9353    1.0716   27.2024 C   0  0  0  0  0  0  0  0  0  0  0  0
    7.0210    1.5111   28.5732 C   0  0  0  0  0  0  0  0  0  0  0  0
    6.3770    2.2268   29.0601 H   0  0  0  0  0  0  0  0  0  0  0  0
    8.1310    0.9398   29.1180 C   0  0  0  0  0  0  0  0  0  0  0  0
    8.5632    1.0228   30.1091 H   0  0  0  0  0  0  0  0  0  0  0  0
    8.7523    0.1465   28.1691 N   0  0  0  0  0  0  0  0  0  0  0  0
    9.7289   -0.0994   28.2012 H   0  0  0  0  0  0  0  0  0  0  0  0
    8.0780    0.2669   26.9801 C   0  0  0  0  0  0  0  0  0  0  0  0
    8.3999   -0.2488   25.7230 C   0  0  0  0  0  0  0  0  0  0  0  0
    9.3443   -0.7760   25.5876 H   0  0  0  0  0  0  0  0  0  0  0  0
    8.4912   -1.7708   23.1874 C   0  0  0  0  0  0  0  0  0  0  0  0
    8.9100   -2.2987   24.0281 H   0  0  0  0  0  0  0  0  0  0  0  0
    8.6097   -2.3885   21.8785 C   0  0  0  0  0  0  0  0  0  0  0  0
    8.9615   -3.5465   21.7155 O   0  0  0  0  0  0  0  0  0  0  0  0
    8.2033   -1.5150   20.7902 C   0  0  0  0  0  0  0  0  0  0  0  0
    8.4935   -1.8025   19.8013 H   0  0  0  0  0  0  0  0  0  0  0  0
    5.3512    0.8095   20.1575 C   0  0  0  0  0  0  0  0  0  0  0  0
    4.8812    0.8175   21.1414 H   0  0  0  0  0  0  0  0  0  0  0  0
    4.7301    1.3913   19.0534 C   0  0  0  0  0  0  0  0  0  0  0  0
    3.7706    1.8877   19.1399 H   0  0  0  0  0  0  0  0  0  0  0  0
  1  2  1  0
  2  3  2  0
  3  4  1  0
  4  5  1  0
  4  6  2  0
  6  7  1  0
  7  8  1  0
  8  9  1  0
  9 10  1  0
 10 11  2  0
 11 12  1  0
 11 13  1  0
 13 14  1  0
 13 15  2  0
 15 16  1  0
 16 17  1  0
 16 18  2  0
 18 19  1  0
 18 20  1  0
 20 21  1  0
 20 22  1  0
 22 23  2  0
 23 24  1  0
  9 25  2  0
 25 26  1  0
 25 27  1  0
 27 28  2  0
 27 29  1  0
 29 30  1  0
  6 31  1  0
 31 32  1  0
 31 33  2  0
 33 34  1  0
 33  2  1  0
 29  7  2  0
 23 10  1  0
 22 15  1  0
M  END
>  <cnnaffinity>  (1) 
-5.3101

>  <filename>  (1) 
O=c1cc(-c2cccnc2)oc(-c2ccc3cc[nH]c3c2)c1

$$$$
