
     RDKit          3D

 38 41  0  0  0  0  0  0  0  0999 V2000
    4.9176    1.7676   16.9403 H   0  0  0  0  0  0  0  0  0  0  0  0
    5.3972    1.2993   17.7942 C   0  0  0  0  0  0  0  0  0  0  0  0
    6.5483    0.6596   17.5329 N   0  0  0  0  0  0  0  0  0  0  0  0
    7.1714    0.0859   18.5672 C   0  0  0  0  0  0  0  0  0  0  0  0
    8.0910   -0.4477   18.3260 H   0  0  0  0  0  0  0  0  0  0  0  0
    6.7160    0.1317   19.9085 C   0  0  0  0  0  0  0  0  0  0  0  0
    7.4934   -0.4780   21.0122 C   0  0  0  0  0  0  0  0  0  0  0  0
    8.5473   -1.3323   20.9178 C   0  0  0  0  0  0  0  0  0  0  0  0
    8.9822   -1.7923   20.0402 H   0  0  0  0  0  0  0  0  0  0  0  0
    9.1159   -1.6207   22.1461 N   0  0  0  0  0  0  0  0  0  0  0  0
    9.3740   -2.5866   22.3521 H   0  0  0  0  0  0  0  0  0  0  0  0
    8.2654   -1.0400   23.0790 N   0  0  0  0  0  0  0  0  0  0  0  0
    8.4117   -1.3042   24.5054 C   0  0  0  0  0  0  0  0  0  0  0  0
    9.3942   -1.7678   24.6678 H   0  0  0  0  0  0  0  0  0  0  0  0
    8.4188   -0.3446   25.0262 H   0  0  0  0  0  0  0  0  0  0  0  0
    7.3277   -2.2097   25.0672 C   0  0  0  0  0  0  0  0  0  0  0  0
    6.1049   -1.6587   25.5600 C   0  0  0  0  0  0  0  0  0  0  0  0
    5.9649   -0.5833   25.5278 H   0  0  0  0  0  0  0  0  0  0  0  0
    5.1052   -2.4727   26.0387 C   0  0  0  0  0  0  0  0  0  0  0  0
    4.1760   -2.0416   26.4018 H   0  0  0  0  0  0  0  0  0  0  0  0
    5.2653   -3.8895   26.0754 C   0  0  0  0  0  0  0  0  0  0  0  0
    4.2556   -4.7763   26.5625 C   0  0  0  0  0  0  0  0  0  0  0  0
    3.3084   -4.3560   26.8934 H   0  0  0  0  0  0  0  0  0  0  0  0
    4.4812   -6.1323   26.6236 C   0  0  0  0  0  0  0  0  0  0  0  0
    3.7176   -6.8074   27.0048 H   0  0  0  0  0  0  0  0  0  0  0  0
    5.7295   -6.6726   26.2005 C   0  0  0  0  0  0  0  0  0  0  0  0
    5.9166   -7.7347   26.3117 H   0  0  0  0  0  0  0  0  0  0  0  0
    6.7024   -5.8518   25.6852 C   0  0  0  0  0  0  0  0  0  0  0  0
    7.6491   -6.2555   25.3361 H   0  0  0  0  0  0  0  0  0  0  0  0
    6.4993   -4.4447   25.6051 C   0  0  0  0  0  0  0  0  0  0  0  0
    7.5020   -3.5752   25.0889 C   0  0  0  0  0  0  0  0  0  0  0  0
    8.4137   -4.0249   24.7029 H   0  0  0  0  0  0  0  0  0  0  0  0
    7.2929   -0.2537   22.4819 C   0  0  0  0  0  0  0  0  0  0  0  0
    6.5052    0.4468   23.1089 O   0  0  0  0  0  0  0  0  0  0  0  0
    5.4937    0.7898   20.1430 C   0  0  0  0  0  0  0  0  0  0  0  0
    5.0966    0.8392   21.1578 H   0  0  0  0  0  0  0  0  0  0  0  0
    4.8211    1.3705   19.0653 C   0  0  0  0  0  0  0  0  0  0  0  0
    3.8703    1.8769   19.1909 H   0  0  0  0  0  0  0  0  0  0  0  0
  1  2  1  0
  2  3  2  0
  3  4  1  0
  4  5  1  0
  4  6  2  0
  6  7  1  0
  7  8  2  0
  8  9  1  0
  8 10  1  0
 10 11  1  0
 10 12  1  0
 12 13  1  0
 13 14  1  0
 13 15  1  0
 13 16  1  0
 16 17  2  0
 17 18  1  0
 17 19  1  0
 19 20  1  0
 19 21  2  0
 21 22  1  0
 22 23  1  0
 22 24  2  0
 24 25  1  0
 24 26  1  0
 26 27  1  0
 26 28  2  0
 28 29  1  0
 28 30  1  0
 30 31  2  0
 31 32  1  0
 12 33  1  0
 33 34  2  0
  6 35  1  0
 35 36  1  0
 35 37  2  0
 37 38  1  0
 37  2  1  0
 33  7  1  0
 31 16  1  0
 30 21  1  0
M  END
>  <cnnaffinity>  (1) 
-5.14846

>  <filename>  (1) 
O=c1c(-c2cccnc2)c[nH]n1Cc1ccc2ccccc2c1

$$$$
