
     RDKit          3D

 28 30  0  0  0  0  0  0  0  0999 V2000
    4.9154    1.7962   16.9847 H   0  0  0  0  0  0  0  0  0  0  0  0
    5.3940    1.3020   17.8270 C   0  0  0  0  0  0  0  0  0  0  0  0
    6.5591    0.6884   17.5616 N   0  0  0  0  0  0  0  0  0  0  0  0
    7.1802    0.0790   18.5778 C   0  0  0  0  0  0  0  0  0  0  0  0
    8.1240   -0.4204   18.3518 H   0  0  0  0  0  0  0  0  0  0  0  0
    6.6628    0.0244   19.8865 C   0  0  0  0  0  0  0  0  0  0  0  0
    7.3642   -0.6738   20.9386 N   0  0  0  0  0  0  0  0  0  0  0  0
    8.6475   -0.2779   21.2764 C   0  0  0  0  0  0  0  0  0  0  0  0
    9.0337    0.5619   20.7036 H   0  0  0  0  0  0  0  0  0  0  0  0
    9.3602   -0.8665   22.2800 C   0  0  0  0  0  0  0  0  0  0  0  0
   10.6910   -0.3893   22.6673 C   0  0  0  0  0  0  0  0  0  0  0  0
   11.7334    0.3657   21.5193 S   0  0  0  0  0  0  0  0  0  0  0  0
   12.9971    0.5529   22.6701 C   0  0  0  0  0  0  0  0  0  0  0  0
   13.9438    0.9770   22.3582 H   0  0  0  0  0  0  0  0  0  0  0  0
   12.6139    0.1163   23.9026 C   0  0  0  0  0  0  0  0  0  0  0  0
   13.2577    0.1471   24.7746 H   0  0  0  0  0  0  0  0  0  0  0  0
   11.2906   -0.4193   23.8963 C   0  0  0  0  0  0  0  0  0  0  0  0
   10.7786   -0.8791   24.7309 H   0  0  0  0  0  0  0  0  0  0  0  0
    8.7461   -1.9962   23.0037 C   0  0  0  0  0  0  0  0  0  0  0  0
    9.1915   -2.6889   23.8963 O   0  0  0  0  0  0  0  0  0  0  0  0
    7.4797   -2.3058   22.5846 N   0  0  0  0  0  0  0  0  0  0  0  0
    7.0460   -3.0663   23.0592 H   0  0  0  0  0  0  0  0  0  0  0  0
    6.7331   -1.7452   21.6120 C   0  0  0  0  0  0  0  0  0  0  0  0
    5.6374   -2.1923   21.3701 O   0  0  0  0  0  0  0  0  0  0  0  0
    5.4442    0.6529   20.1504 C   0  0  0  0  0  0  0  0  0  0  0  0
    5.0208    0.6082   21.1521 H   0  0  0  0  0  0  0  0  0  0  0  0
    4.8087    1.3165   19.0969 C   0  0  0  0  0  0  0  0  0  0  0  0
    3.8754    1.8412   19.2502 H   0  0  0  0  0  0  0  0  0  0  0  0
  1  2  1  0
  2  3  2  0
  3  4  1  0
  4  5  1  0
  4  6  2  0
  6  7  1  0
  7  8  1  0
  8  9  1  0
  8 10  2  0
 10 11  1  0
 11 12  1  0
 12 13  1  0
 13 14  1  0
 13 15  2  0
 15 16  1  0
 15 17  1  0
 17 18  1  0
 10 19  1  0
 19 20  2  0
 19 21  1  0
 21 22  1  0
 21 23  1  0
 23 24  2  0
  6 25  1  0
 25 26  1  0
 25 27  2  0
 27 28  1  0
 27  2  1  0
 23  7  1  0
 17 11  2  0
M  END
>  <cnnaffinity>  (1) 
-5.06083

>  <filename>  (1) 
O=c1[nH]c(=O)n(-c2cccnc2)cc1-c1cccs1

$$$$
