
     RDKit          3D

 30 32  0  0  0  0  0  0  0  0999 V2000
    4.9576    1.7954   16.9477 H   0  0  0  0  0  0  0  0  0  0  0  0
    5.4466    1.3269   17.8002 C   0  0  0  0  0  0  0  0  0  0  0  0
    6.6317    0.7507   17.5443 N   0  0  0  0  0  0  0  0  0  0  0  0
    7.2399    0.1368   18.5658 C   0  0  0  0  0  0  0  0  0  0  0  0
    8.2118   -0.3105   18.3623 H   0  0  0  0  0  0  0  0  0  0  0  0
    6.6796    0.0130   19.8505 C   0  0  0  0  0  0  0  0  0  0  0  0
    7.4144   -0.7907   20.8766 C   0  0  0  0  0  0  0  0  0  0  0  0
    8.6897   -0.5211   20.9639 N   0  0  0  0  0  0  0  0  0  0  0  0
    9.4334   -1.1579   21.9238 N   0  0  0  0  0  0  0  0  0  0  0  0
   10.8293   -0.8290   21.9460 C   0  0  0  0  0  0  0  0  0  0  0  0
   11.8114   -1.8206   22.1055 C   0  0  0  0  0  0  0  0  0  0  0  0
   11.5183   -2.8637   22.1889 H   0  0  0  0  0  0  0  0  0  0  0  0
   13.1609   -1.4532   22.1790 C   0  0  0  0  0  0  0  0  0  0  0  0
   13.9457   -2.1980   22.2537 H   0  0  0  0  0  0  0  0  0  0  0  0
   13.4842   -0.0993   22.2158 C   0  0  0  0  0  0  0  0  0  0  0  0
   14.7630    0.2616   22.3941 F   0  0  0  0  0  0  0  0  0  0  0  0
   12.5267    0.9025   22.0486 C   0  0  0  0  0  0  0  0  0  0  0  0
   12.8392    1.9433   22.0698 H   0  0  0  0  0  0  0  0  0  0  0  0
   11.1962    0.5213   21.8393 C   0  0  0  0  0  0  0  0  0  0  0  0
   10.4107    1.2389   21.6150 H   0  0  0  0  0  0  0  0  0  0  0  0
    8.8523   -1.9349   22.9054 C   0  0  0  0  0  0  0  0  0  0  0  0
    9.5133   -2.2734   23.7039 H   0  0  0  0  0  0  0  0  0  0  0  0
    7.5494   -2.2585   22.8827 C   0  0  0  0  0  0  0  0  0  0  0  0
    7.0767   -2.8537   23.6543 H   0  0  0  0  0  0  0  0  0  0  0  0
    6.7302   -1.8363   21.7560 C   0  0  0  0  0  0  0  0  0  0  0  0
    5.6165   -2.3061   21.5605 O   0  0  0  0  0  0  0  0  0  0  0  0
    5.4584    0.6534   20.1130 C   0  0  0  0  0  0  0  0  0  0  0  0
    5.0143    0.6311   21.1112 H   0  0  0  0  0  0  0  0  0  0  0  0
    4.8363    1.3222   19.0571 C   0  0  0  0  0  0  0  0  0  0  0  0
    3.8923    1.8349   19.1919 H   0  0  0  0  0  0  0  0  0  0  0  0
  1  2  1  0
  2  3  2  0
  3  4  1  0
  4  5  1  0
  4  6  2  0
  6  7  1  0
  7  8  2  0
  8  9  1  0
  9 10  1  0
 10 11  2  0
 11 12  1  0
 11 13  1  0
 13 14  1  0
 13 15  2  0
 15 16  1  0
 15 17  1  0
 17 18  1  0
 17 19  2  0
 19 20  1  0
  9 21  1  0
 21 22  1  0
 21 23  2  0
 23 24  1  0
 23 25  1  0
 25 26  2  0
  6 27  1  0
 27 28  1  0
 27 29  2  0
 29 30  1  0
 29  2  1  0
 25  7  1  0
 19 10  1  0
M  END
>  <cnnaffinity>  (1) 
-5.26336

>  <filename>  (1) 
O=c1ccn(-c2ccc(F)cc2)nc1-c1cccnc1

$$$$
