
     RDKit          3D

 31 33  0  0  0  0  0  0  0  0999 V2000
    5.2222    2.0200   16.9790 H   0  0  0  0  0  0  0  0  0  0  0  0
    5.6655    1.3689   17.7272 C   0  0  0  0  0  0  0  0  0  0  0  0
    6.8748    0.8276   17.4916 N   0  0  0  0  0  0  0  0  0  0  0  0
    7.4266    0.0570   18.4496 C   0  0  0  0  0  0  0  0  0  0  0  0
    8.4146   -0.3566   18.2621 H   0  0  0  0  0  0  0  0  0  0  0  0
    6.7778   -0.2179   19.6742 C   0  0  0  0  0  0  0  0  0  0  0  0
    7.4149   -0.9340   20.7906 C   0  0  0  0  0  0  0  0  0  0  0  0
    8.6528   -0.4951   21.2254 C   0  0  0  0  0  0  0  0  0  0  0  0
    9.1671    0.2925   20.6753 H   0  0  0  0  0  0  0  0  0  0  0  0
    9.2343   -1.0105   22.4770 C   0  0  0  0  0  0  0  0  0  0  0  0
   10.5815   -0.5840   22.8614 C   0  0  0  0  0  0  0  0  0  0  0  0
   10.8417    0.3234   23.9066 C   0  0  0  0  0  0  0  0  0  0  0  0
   10.0134    0.7494   24.4665 H   0  0  0  0  0  0  0  0  0  0  0  0
   12.1678    0.6862   24.2076 C   0  0  0  0  0  0  0  0  0  0  0  0
   12.3702    1.3760   25.0230 H   0  0  0  0  0  0  0  0  0  0  0  0
   13.2289    0.1736   23.4454 C   0  0  0  0  0  0  0  0  0  0  0  0
   14.2601    0.4490   23.6529 H   0  0  0  0  0  0  0  0  0  0  0  0
   12.9591   -0.7168   22.4031 C   0  0  0  0  0  0  0  0  0  0  0  0
   14.3449   -1.4766   21.3577 Br  0  0  0  0  0  0  0  0  0  0  0  0
   11.6503   -1.0854   22.1147 C   0  0  0  0  0  0  0  0  0  0  0  0
   11.4747   -1.7454   21.2703 H   0  0  0  0  0  0  0  0  0  0  0  0
    8.5533   -1.9746   23.2014 C   0  0  0  0  0  0  0  0  0  0  0  0
    9.0094   -2.3868   24.1053 H   0  0  0  0  0  0  0  0  0  0  0  0
    7.3102   -2.4442   22.7415 N   0  0  0  0  0  0  0  0  0  0  0  0
    6.7969   -3.1559   23.2530 H   0  0  0  0  0  0  0  0  0  0  0  0
    6.7234   -1.9830   21.5814 C   0  0  0  0  0  0  0  0  0  0  0  0
    5.6822   -2.5300   21.2238 O   0  0  0  0  0  0  0  0  0  0  0  0
    5.5064    0.3031   19.8890 C   0  0  0  0  0  0  0  0  0  0  0  0
    4.9993    0.1249   20.8371 H   0  0  0  0  0  0  0  0  0  0  0  0
    4.9546    1.1165   18.9046 C   0  0  0  0  0  0  0  0  0  0  0  0
    3.9915    1.5812   19.0596 H   0  0  0  0  0  0  0  0  0  0  0  0
  1  2  1  0
  2  3  2  0
  3  4  1  0
  4  5  1  0
  4  6  2  0
  6  7  1  0
  7  8  2  0
  8  9  1  0
  8 10  1  0
 10 11  1  0
 11 12  2  0
 12 13  1  0
 12 14  1  0
 14 15  1  0
 14 16  2  0
 16 17  1  0
 16 18  1  0
 18 19  1  0
 18 20  2  0
 20 21  1  0
 10 22  2  0
 22 23  1  0
 22 24  1  0
 24 25  1  0
 24 26  1  0
 26 27  2  0
  6 28  1  0
 28 29  1  0
 28 30  2  0
 30 31  1  0
 30  2  1  0
 26  7  1  0
 20 11  1  0
M  END
>  <cnnaffinity>  (1) 
-5.62988

>  <filename>  (1) 
O=c1[nH]cc(-c2cccc(Br)c2)cc1-c1cccnc1

$$$$
