
     RDKit          3D

 35 37  0  0  0  0  0  0  0  0999 V2000
    4.8971    1.8392   16.9774 H   0  0  0  0  0  0  0  0  0  0  0  0
    5.4177    1.3280   17.7819 C   0  0  0  0  0  0  0  0  0  0  0  0
    6.5860    0.7532   17.4473 N   0  0  0  0  0  0  0  0  0  0  0  0
    7.2476    0.0968   18.4071 C   0  0  0  0  0  0  0  0  0  0  0  0
    8.2026   -0.3515   18.1389 H   0  0  0  0  0  0  0  0  0  0  0  0
    6.7715   -0.0401   19.7310 C   0  0  0  0  0  0  0  0  0  0  0  0
    7.4883   -0.7733   20.7423 N   0  0  0  0  0  0  0  0  0  0  0  0
    6.8631   -1.6464   21.6451 C   0  0  0  0  0  0  0  0  0  0  0  0
    5.8253   -2.2318   21.4344 O   0  0  0  0  0  0  0  0  0  0  0  0
    7.6800   -1.6702   22.7779 N   0  0  0  0  0  0  0  0  0  0  0  0
    7.5890   -2.4257   23.9393 N   0  0  0  0  0  0  0  0  0  0  0  0
    7.0120   -1.9570   24.6390 H   0  0  0  0  0  0  0  0  0  0  0  0
    7.1894   -3.8184   23.7813 C   0  0  0  0  0  0  0  0  0  0  0  0
    6.3296   -3.8807   23.0952 H   0  0  0  0  0  0  0  0  0  0  0  0
    6.8816   -4.3998   25.1553 C   0  0  0  0  0  0  0  0  0  0  0  0
    7.6752   -4.0607   25.8350 H   0  0  0  0  0  0  0  0  0  0  0  0
    5.9175   -4.0621   25.5552 H   0  0  0  0  0  0  0  0  0  0  0  0
    6.9831   -5.9118   24.9805 C   0  0  0  0  0  0  0  0  0  0  0  0
    5.9981   -6.3353   24.7374 H   0  0  0  0  0  0  0  0  0  0  0  0
    7.3224   -6.3944   25.9028 H   0  0  0  0  0  0  0  0  0  0  0  0
    7.9947   -6.1163   23.8129 C   0  0  0  0  0  0  0  0  0  0  0  0
    8.9038   -6.6333   24.1379 H   0  0  0  0  0  0  0  0  0  0  0  0
    7.5505   -6.7330   23.0239 H   0  0  0  0  0  0  0  0  0  0  0  0
    8.3273   -4.7105   23.2722 C   0  0  0  0  0  0  0  0  0  0  0  0
    8.4081   -4.6960   22.1802 H   0  0  0  0  0  0  0  0  0  0  0  0
    9.2717   -4.3323   23.6909 H   0  0  0  0  0  0  0  0  0  0  0  0
    9.0276   -1.3072   22.4131 C   0  0  0  0  0  0  0  0  0  0  0  0
    9.5184   -0.7069   23.1753 H   0  0  0  0  0  0  0  0  0  0  0  0
    9.6521   -2.1878   22.2299 H   0  0  0  0  0  0  0  0  0  0  0  0
    8.8047   -0.5463   21.1400 C   0  0  0  0  0  0  0  0  0  0  0  0
    9.6059    0.1361   20.5595 O   0  0  0  0  0  0  0  0  0  0  0  0
    5.5599    0.5786   20.0687 C   0  0  0  0  0  0  0  0  0  0  0  0
    5.1809    0.5166   21.0890 H   0  0  0  0  0  0  0  0  0  0  0  0
    4.8751    1.2792   19.0702 C   0  0  0  0  0  0  0  0  0  0  0  0
    3.9376    1.7849   19.2776 H   0  0  0  0  0  0  0  0  0  0  0  0
  1  2  1  0
  2  3  2  0
  3  4  1  0
  4  5  1  0
  4  6  2  0
  6  7  1  0
  7  8  1  0
  8  9  2  0
  8 10  1  0
 10 11  1  0
 11 12  1  0
 11 13  1  0
 13 14  1  0
 13 15  1  0
 15 16  1  0
 15 17  1  0
 15 18  1  0
 18 19  1  0
 18 20  1  0
 18 21  1  0
 21 22  1  0
 21 23  1  0
 21 24  1  0
 24 25  1  0
 24 26  1  0
 10 27  1  0
 27 28  1  0
 27 29  1  0
 27 30  1  0
 30 31  2  0
  6 32  1  0
 32 33  1  0
 32 34  2  0
 34 35  1  0
 34  2  1  0
 30  7  1  0
 24 13  1  0
M  END
>  <cnnaffinity>  (1) 
-4.95647

>  <filename>  (1) 
O=C1CN(NC2CCCC2)C(=O)N1c1cccnc1

$$$$
