
     RDKit          3D

 32 34  0  0  0  0  0  0  0  0999 V2000
    4.9185    1.7828   16.9939 H   0  0  0  0  0  0  0  0  0  0  0  0
    5.4014    1.2951   17.8384 C   0  0  0  0  0  0  0  0  0  0  0  0
    6.5643    0.6750   17.5810 N   0  0  0  0  0  0  0  0  0  0  0  0
    7.1747    0.0604   18.6008 C   0  0  0  0  0  0  0  0  0  0  0  0
    8.1139   -0.4378   18.3729 H   0  0  0  0  0  0  0  0  0  0  0  0
    6.6578    0.0019   19.9081 C   0  0  0  0  0  0  0  0  0  0  0  0
    7.3404   -0.7011   20.9534 N   0  0  0  0  0  0  0  0  0  0  0  0
    6.5586   -1.4456   21.8029 N   0  0  0  0  0  0  0  0  0  0  0  0
    7.1323   -2.0846   22.7914 C   0  0  0  0  0  0  0  0  0  0  0  0
    6.2451   -2.8345   23.7195 C   0  0  0  0  0  0  0  0  0  0  0  0
    5.1589   -3.5625   23.2031 C   0  0  0  0  0  0  0  0  0  0  0  0
    4.9669   -3.5694   22.1350 H   0  0  0  0  0  0  0  0  0  0  0  0
    4.3453   -4.2955   23.9587 N   0  0  0  0  0  0  0  0  0  0  0  0
    4.5541   -4.3244   25.2882 C   0  0  0  0  0  0  0  0  0  0  0  0
    3.5856   -5.1344   26.1780 C   0  0  0  0  0  0  0  0  0  0  0  0
    2.6401   -5.7893   25.4987 F   0  0  0  0  0  0  0  0  0  0  0  0
    4.2553   -6.0445   26.9180 F   0  0  0  0  0  0  0  0  0  0  0  0
    2.9606   -4.3283   27.0645 F   0  0  0  0  0  0  0  0  0  0  0  0
    5.6188   -3.6314   25.8998 C   0  0  0  0  0  0  0  0  0  0  0  0
    5.7630   -3.6779   26.9744 H   0  0  0  0  0  0  0  0  0  0  0  0
    6.4777   -2.8856   25.1072 C   0  0  0  0  0  0  0  0  0  0  0  0
    7.3311   -2.3633   25.5439 H   0  0  0  0  0  0  0  0  0  0  0  0
    8.6298   -2.0870   23.0232 C   0  0  0  0  0  0  0  0  0  0  0  0
    9.1989   -2.7199   23.9076 O   0  0  0  0  0  0  0  0  0  0  0  0
    9.3701   -1.2556   22.0845 C   0  0  0  0  0  0  0  0  0  0  0  0
   10.4472   -1.2153   22.2141 H   0  0  0  0  0  0  0  0  0  0  0  0
    8.7110   -0.6129   21.1108 C   0  0  0  0  0  0  0  0  0  0  0  0
    9.2213    0.0342   20.3939 H   0  0  0  0  0  0  0  0  0  0  0  0
    5.4398    0.6445   20.1668 C   0  0  0  0  0  0  0  0  0  0  0  0
    5.0289    0.5993   21.1765 H   0  0  0  0  0  0  0  0  0  0  0  0
    4.8127    1.3120   19.1096 C   0  0  0  0  0  0  0  0  0  0  0  0
    3.8789    1.8414   19.2609 H   0  0  0  0  0  0  0  0  0  0  0  0
  1  2  1  0
  2  3  2  0
  3  4  1  0
  4  5  1  0
  4  6  2  0
  6  7  1  0
  7  8  1  0
  8  9  2  0
  9 10  1  0
 10 11  2  0
 11 12  1  0
 11 13  1  0
 13 14  2  0
 14 15  1  0
 15 16  1  0
 15 17  1  0
 15 18  1  0
 14 19  1  0
 19 20  1  0
 19 21  2  0
 21 22  1  0
  9 23  1  0
 23 24  2  0
 23 25  1  0
 25 26  1  0
 25 27  2  0
 27 28  1  0
  6 29  1  0
 29 30  1  0
 29 31  2  0
 31 32  1  0
 31  2  1  0
 27  7  1  0
 21 10  1  0
M  END
>  <cnnaffinity>  (1) 
-5.39466

>  <filename>  (1) 
O=c1ccn(-c2cccnc2)nc1-c1ccc(C(F)(F)F)nc1

$$$$
