
     RDKit          3D

 34 37  0  0  0  0  0  0  0  0999 V2000
    4.9333    1.7907   16.9884 H   0  0  0  0  0  0  0  0  0  0  0  0
    5.3957    1.2940   17.8378 C   0  0  0  0  0  0  0  0  0  0  0  0
    6.5505    0.6652   17.5824 N   0  0  0  0  0  0  0  0  0  0  0  0
    7.1475    0.0431   18.6029 C   0  0  0  0  0  0  0  0  0  0  0  0
    8.1122   -0.4162   18.3877 H   0  0  0  0  0  0  0  0  0  0  0  0
    6.6204   -0.0076   19.9034 C   0  0  0  0  0  0  0  0  0  0  0  0
    7.3267   -0.7289   20.9754 C   0  0  0  0  0  0  0  0  0  0  0  0
    6.6006   -1.5013   21.7556 N   0  0  0  0  0  0  0  0  0  0  0  0
    7.1910   -2.1941   22.7968 C   0  0  0  0  0  0  0  0  0  0  0  0
    6.3064   -3.0385   23.6666 C   0  0  0  0  0  0  0  0  0  0  0  0
    5.0967   -3.5776   23.1325 C   0  0  0  0  0  0  0  0  0  0  0  0
    4.8368   -3.3309   22.1074 H   0  0  0  0  0  0  0  0  0  0  0  0
    4.2558   -4.3680   23.8990 C   0  0  0  0  0  0  0  0  0  0  0  0
    3.3303   -4.7643   23.4886 H   0  0  0  0  0  0  0  0  0  0  0  0
    4.6010   -4.6472   25.2385 C   0  0  0  0  0  0  0  0  0  0  0  0
    3.9887   -5.3999   26.2981 C   0  0  0  0  0  0  0  0  0  0  0  0
    3.0537   -5.9359   26.2287 H   0  0  0  0  0  0  0  0  0  0  0  0
    4.8066   -5.3022   27.3864 C   0  0  0  0  0  0  0  0  0  0  0  0
    4.7032   -5.7241   28.3773 H   0  0  0  0  0  0  0  0  0  0  0  0
    5.9017   -4.5247   27.0679 N   0  0  0  0  0  0  0  0  0  0  0  0
    6.6656   -4.2861   27.6761 H   0  0  0  0  0  0  0  0  0  0  0  0
    5.8013   -4.1080   25.7634 C   0  0  0  0  0  0  0  0  0  0  0  0
    6.6575   -3.3062   24.9967 C   0  0  0  0  0  0  0  0  0  0  0  0
    7.5568   -2.8881   25.4417 H   0  0  0  0  0  0  0  0  0  0  0  0
    8.5433   -2.1228   23.0201 C   0  0  0  0  0  0  0  0  0  0  0  0
    9.0505   -2.6833   23.7950 H   0  0  0  0  0  0  0  0  0  0  0  0
    9.3125   -1.3260   22.2124 N   0  0  0  0  0  0  0  0  0  0  0  0
   10.3093   -1.1612   22.2963 H   0  0  0  0  0  0  0  0  0  0  0  0
    8.8176   -0.5574   21.1696 C   0  0  0  0  0  0  0  0  0  0  0  0
    9.6203    0.1361   20.5659 O   0  0  0  0  0  0  0  0  0  0  0  0
    5.4046    0.6456   20.1532 C   0  0  0  0  0  0  0  0  0  0  0  0
    4.9704    0.6348   21.1554 H   0  0  0  0  0  0  0  0  0  0  0  0
    4.7925    1.3203   19.1008 C   0  0  0  0  0  0  0  0  0  0  0  0
    3.8650    1.8603   19.2412 H   0  0  0  0  0  0  0  0  0  0  0  0
  1  2  1  0
  2  3  2  0
  3  4  1  0
  4  5  1  0
  4  6  2  0
  6  7  1  0
  7  8  2  0
  8  9  1  0
  9 10  1  0
 10 11  2  0
 11 12  1  0
 11 13  1  0
 13 14  1  0
 13 15  2  0
 15 16  1  0
 16 17  1  0
 16 18  2  0
 18 19  1  0
 18 20  1  0
 20 21  1  0
 20 22  1  0
 22 23  2  0
 23 24  1  0
  9 25  2  0
 25 26  1  0
 25 27  1  0
 27 28  1  0
 27 29  1  0
 29 30  2  0
  6 31  1  0
 31 32  1  0
 31 33  2  0
 33 34  1  0
 33  2  1  0
 29  7  1  0
 23 10  1  0
 22 15  1  0
M  END
>  <cnnaffinity>  (1) 
-5.44653

>  <filename>  (1) 
O=c1[nH]cc(-c2ccc3cc[nH]c3c2)nc1-c1cccnc1

$$$$
