
     RDKit          3D

 32 34  0  0  0  0  0  0  0  0999 V2000
    4.9459    1.7771   16.9263 H   0  0  0  0  0  0  0  0  0  0  0  0
    5.3909    1.3200   17.8094 C   0  0  0  0  0  0  0  0  0  0  0  0
    6.5717    0.7089   17.6269 N   0  0  0  0  0  0  0  0  0  0  0  0
    7.1402    0.1573   18.7017 C   0  0  0  0  0  0  0  0  0  0  0  0
    8.0996   -0.3215   18.5210 H   0  0  0  0  0  0  0  0  0  0  0  0
    6.6011    0.1788   19.9972 C   0  0  0  0  0  0  0  0  0  0  0  0
    7.3564   -0.4815   21.1064 C   0  0  0  0  0  0  0  0  0  0  0  0
    7.1707   -0.0428   22.3278 N   0  0  0  0  0  0  0  0  0  0  0  0
    7.7652   -0.7125   23.3617 N   0  0  0  0  0  0  0  0  0  0  0  0
    7.6470   -0.0937   24.6879 C   0  0  1  0  0  0  0  0  0  0  0  0
    6.9267    0.7291   24.5384 H   0  0  0  0  0  0  0  0  0  0  0  0
    7.1441   -1.0399   25.6742 N   0  0  0  0  0  0  0  0  0  0  0  0
    6.9789   -1.9203   25.2075 H   0  0  0  0  0  0  0  0  0  0  0  0
    8.0763   -1.1940   26.7928 C   0  0  0  0  0  0  0  0  0  0  0  0
    7.5165   -1.2873   27.7303 H   0  0  0  0  0  0  0  0  0  0  0  0
    8.6845   -2.1022   26.6794 H   0  0  0  0  0  0  0  0  0  0  0  0
    8.9301    0.0773   26.7438 C   0  0  0  0  0  0  0  0  0  0  0  0
    8.4393    0.8802   27.3081 H   0  0  0  0  0  0  0  0  0  0  0  0
    9.9207   -0.0706   27.1811 H   0  0  0  0  0  0  0  0  0  0  0  0
    9.0051    0.3954   25.2432 C   0  0  0  0  0  0  0  0  0  0  0  0
    9.1771    1.4538   25.0167 H   0  0  0  0  0  0  0  0  0  0  0  0
    9.8035   -0.1991   24.7820 H   0  0  0  0  0  0  0  0  0  0  0  0
    8.5457   -1.8719   23.2539 C   0  0  0  0  0  0  0  0  0  0  0  0
    9.0145   -2.4533   24.2291 O   0  0  0  0  0  0  0  0  0  0  0  0
    8.7708   -2.3003   21.8845 C   0  0  0  0  0  0  0  0  0  0  0  0
    9.3677   -3.1987   21.8073 H   0  0  0  0  0  0  0  0  0  0  0  0
    8.2509   -1.5856   20.8502 C   0  0  0  0  0  0  0  0  0  0  0  0
    8.5131   -1.8221   19.8347 H   0  0  0  0  0  0  0  0  0  0  0  0
    5.3548    0.8103   20.1699 C   0  0  0  0  0  0  0  0  0  0  0  0
    4.8883    0.8584   21.1564 H   0  0  0  0  0  0  0  0  0  0  0  0
    4.7419    1.3791   19.0490 C   0  0  0  0  0  0  0  0  0  0  0  0
    3.7769    1.8728   19.1193 H   0  0  0  0  0  0  0  0  0  0  0  0
  1  2  1  0
  2  3  2  0
  3  4  1  0
  4  5  1  0
  4  6  2  0
  6  7  1  0
  7  8  2  0
  8  9  1  0
  9 10  1  0
 10 11  1  6
 10 12  1  0
 12 13  1  0
 12 14  1  0
 14 15  1  0
 14 16  1  0
 14 17  1  0
 17 18  1  0
 17 19  1  0
 17 20  1  0
 20 21  1  0
 20 22  1  0
  9 23  1  0
 23 24  2  0
 23 25  1  0
 25 26  1  0
 25 27  2  0
 27 28  1  0
  6 29  1  0
 29 30  1  0
 29 31  2  0
 31 32  1  0
 31  2  1  0
 27  7  1  0
 20 10  1  0
M  END
>  <cnnaffinity>  (1) 
-4.49574

>  <filename>  (1) 
O=c1ccc(-c2cccnc2)nn1[C@@H]1CCCN1

$$$$
