
     RDKit          3D

 32 34  0  0  0  0  0  0  0  0999 V2000
   10.6682   -2.9518   23.3298 H   0  0  0  0  0  0  0  0  0  0  0  0
   11.4213   -2.9821   22.7051 O   0  0  0  0  0  0  0  0  0  0  0  0
   11.7690   -1.6997   22.4603 C   0  0  0  0  0  0  0  0  0  0  0  0
   13.1206   -1.4265   22.2117 C   0  0  0  0  0  0  0  0  0  0  0  0
   13.7800   -2.2728   22.0711 H   0  0  0  0  0  0  0  0  0  0  0  0
   13.5877   -0.1138   22.2297 C   0  0  0  0  0  0  0  0  0  0  0  0
   14.6375    0.0996   22.0508 H   0  0  0  0  0  0  0  0  0  0  0  0
   12.6987    0.9420   22.4584 C   0  0  0  0  0  0  0  0  0  0  0  0
   13.0527    1.9660   22.5142 H   0  0  0  0  0  0  0  0  0  0  0  0
   11.3360    0.6736   22.5944 C   0  0  0  0  0  0  0  0  0  0  0  0
   10.6257    1.4738   22.7854 H   0  0  0  0  0  0  0  0  0  0  0  0
   10.8330   -0.6378   22.5023 C   0  0  0  0  0  0  0  0  0  0  0  0
    9.3763   -0.8669   22.3080 C   0  0  0  0  0  0  0  0  0  0  0  0
    8.6956   -0.2959   21.2524 C   0  0  0  0  0  0  0  0  0  0  0  0
    9.2470    0.3587   20.5809 H   0  0  0  0  0  0  0  0  0  0  0  0
    7.3214   -0.5771   20.9900 C   0  0  0  0  0  0  0  0  0  0  0  0
    6.6064    0.0568   19.8417 C   0  0  0  0  0  0  0  0  0  0  0  0
    7.1447    0.0373   18.5399 C   0  0  0  0  0  0  0  0  0  0  0  0
    8.0663   -0.5144   18.3509 H   0  0  0  0  0  0  0  0  0  0  0  0
    6.5941    0.6467   17.4797 N   0  0  0  0  0  0  0  0  0  0  0  0
    5.4546    1.3251   17.6887 C   0  0  0  0  0  0  0  0  0  0  0  0
    5.0365    1.8397   16.8261 H   0  0  0  0  0  0  0  0  0  0  0  0
    4.8087    1.3789   18.9279 C   0  0  0  0  0  0  0  0  0  0  0  0
    3.8854    1.9354   19.0305 H   0  0  0  0  0  0  0  0  0  0  0  0
    5.3836    0.7239   20.0173 C   0  0  0  0  0  0  0  0  0  0  0  0
    4.9082    0.7443   20.9986 H   0  0  0  0  0  0  0  0  0  0  0  0
    6.6564   -1.4274   21.8329 C   0  0  0  0  0  0  0  0  0  0  0  0
    5.6260   -1.7210   21.6495 H   0  0  0  0  0  0  0  0  0  0  0  0
    7.3107   -1.9577   22.9130 N   0  0  0  0  0  0  0  0  0  0  0  0
    6.9166   -2.6023   23.5845 H   0  0  0  0  0  0  0  0  0  0  0  0
    8.6553   -1.7851   23.1890 C   0  0  0  0  0  0  0  0  0  0  0  0
    9.1268   -2.4534   24.1132 O   0  0  0  0  0  0  0  0  0  0  0  0
  1  2  1  0
  2  3  1  0
  3  4  2  0
  4  5  1  0
  4  6  1  0
  6  7  1  0
  6  8  2  0
  8  9  1  0
  8 10  1  0
 10 11  1  0
 10 12  2  0
 12 13  1  0
 13 14  2  0
 14 15  1  0
 14 16  1  0
 16 17  1  0
 17 18  2  0
 18 19  1  0
 18 20  1  0
 20 21  2  0
 21 22  1  0
 21 23  1  0
 23 24  1  0
 23 25  2  0
 25 26  1  0
 16 27  2  0
 27 28  1  0
 27 29  1  0
 29 30  1  0
 29 31  1  0
 31 32  2  0
 12  3  1  0
 31 13  1  0
 25 17  1  0
M  END
>  <cnnaffinity>  (1) 
-5.5334

>  <filename>  (1) 
O=c1[nH]cc(-c2cccnc2)cc1-c1ccccc1O

$$$$
