
     RDKit          3D

 30 32  0  0  0  0  0  0  0  0999 V2000
    5.0100    1.7901   16.9810 H   0  0  0  0  0  0  0  0  0  0  0  0
    5.4777    1.2978   17.8308 C   0  0  0  0  0  0  0  0  0  0  0  0
    6.6698    0.7202   17.5943 N   0  0  0  0  0  0  0  0  0  0  0  0
    7.2663    0.1040   18.6161 C   0  0  0  0  0  0  0  0  0  0  0  0
    8.2519   -0.3269   18.4516 H   0  0  0  0  0  0  0  0  0  0  0  0
    6.6792   -0.0248   19.8862 C   0  0  0  0  0  0  0  0  0  0  0  0
    7.3792   -0.7556   20.8908 N   0  0  0  0  0  0  0  0  0  0  0  0
    8.7037   -0.4254   20.9650 N   0  0  0  0  0  0  0  0  0  0  0  0
    9.4353   -0.9528   21.9159 C   0  0  0  0  0  0  0  0  0  0  0  0
   10.8561   -0.4572   21.9819 C   0  0  0  0  0  0  0  0  0  0  0  0
   11.9566   -1.3186   22.1808 C   0  0  0  0  0  0  0  0  0  0  0  0
   11.8506   -2.3945   22.2539 H   0  0  0  0  0  0  0  0  0  0  0  0
   13.2321   -0.7550   22.2825 C   0  0  0  0  0  0  0  0  0  0  0  0
   14.2986   -1.5531   22.4173 F   0  0  0  0  0  0  0  0  0  0  0  0
   13.4607    0.6141   22.2344 C   0  0  0  0  0  0  0  0  0  0  0  0
   14.4625    1.0235   22.2846 H   0  0  0  0  0  0  0  0  0  0  0  0
   12.3547    1.4320   22.0274 C   0  0  0  0  0  0  0  0  0  0  0  0
   12.5449    2.7572   21.9647 F   0  0  0  0  0  0  0  0  0  0  0  0
   11.0719    0.9299   21.8577 C   0  0  0  0  0  0  0  0  0  0  0  0
   10.2627    1.6031   21.5855 H   0  0  0  0  0  0  0  0  0  0  0  0
    8.8812   -1.8926   22.8597 C   0  0  0  0  0  0  0  0  0  0  0  0
    9.5100   -2.2729   23.6638 H   0  0  0  0  0  0  0  0  0  0  0  0
    7.5745   -2.2675   22.7477 C   0  0  0  0  0  0  0  0  0  0  0  0
    7.0712   -2.9626   23.4128 H   0  0  0  0  0  0  0  0  0  0  0  0
    6.7215   -1.7720   21.6720 C   0  0  0  0  0  0  0  0  0  0  0  0
    5.5958   -2.1670   21.4236 O   0  0  0  0  0  0  0  0  0  0  0  0
    5.4584    0.6004   20.1418 C   0  0  0  0  0  0  0  0  0  0  0  0
    5.0156    0.5610   21.1352 H   0  0  0  0  0  0  0  0  0  0  0  0
    4.8522    1.2814   19.0811 C   0  0  0  0  0  0  0  0  0  0  0  0
    3.9126    1.8049   19.2138 H   0  0  0  0  0  0  0  0  0  0  0  0
  1  2  1  0
  2  3  2  0
  3  4  1  0
  4  5  1  0
  4  6  2  0
  6  7  1  0
  7  8  1  0
  8  9  2  0
  9 10  1  0
 10 11  2  0
 11 12  1  0
 11 13  1  0
 13 14  1  0
 13 15  2  0
 15 16  1  0
 15 17  1  0
 17 18  1  0
 17 19  2  0
 19 20  1  0
  9 21  1  0
 21 22  1  0
 21 23  2  0
 23 24  1  0
 23 25  1  0
 25 26  2  0
  6 27  1  0
 27 28  1  0
 27 29  2  0
 29 30  1  0
 29  2  1  0
 25  7  1  0
 19 10  1  0
M  END
>  <cnnaffinity>  (1) 
-5.16326

>  <filename>  (1) 
O=c1ccc(-c2cc(F)cc(F)c2)nn1-c1cccnc1

$$$$
