
     RDKit          3D

 31 33  0  0  0  0  0  0  0  0999 V2000
    4.9417    1.8769   16.8250 H   0  0  0  0  0  0  0  0  0  0  0  0
    5.4202    1.3678   17.6583 C   0  0  0  0  0  0  0  0  0  0  0  0
    6.5980    0.7849   17.3954 N   0  0  0  0  0  0  0  0  0  0  0  0
    7.2108    0.1607   18.4059 C   0  0  0  0  0  0  0  0  0  0  0  0
    8.1953   -0.2577   18.1946 H   0  0  0  0  0  0  0  0  0  0  0  0
    6.6699    0.0458   19.7010 C   0  0  0  0  0  0  0  0  0  0  0  0
    7.3496   -0.7622   20.7558 C   0  0  0  0  0  0  0  0  0  0  0  0
    6.6187   -1.6885   21.3438 N   0  0  0  0  0  0  0  0  0  0  0  0
    7.1943   -2.3970   22.2950 N   0  0  0  0  0  0  0  0  0  0  0  0
    6.4125   -3.3811   22.8257 O   0  0  0  0  0  0  0  0  0  0  0  0
    6.3586   -3.5003   24.2440 C   0  0  0  0  0  0  0  0  0  0  0  0
    5.9119   -4.7289   24.7494 C   0  0  0  0  0  0  0  0  0  0  0  0
    5.6464   -5.5324   24.0673 H   0  0  0  0  0  0  0  0  0  0  0  0
    5.8374   -4.8965   26.1363 C   0  0  0  0  0  0  0  0  0  0  0  0
    5.5162   -5.8535   26.5391 H   0  0  0  0  0  0  0  0  0  0  0  0
    6.1774   -3.8550   27.0082 C   0  0  0  0  0  0  0  0  0  0  0  0
    6.1413   -3.9939   28.0858 H   0  0  0  0  0  0  0  0  0  0  0  0
    6.5739   -2.6270   26.4728 C   0  0  0  0  0  0  0  0  0  0  0  0
    6.9904   -1.3252   27.5452 Cl  0  0  0  0  0  0  0  0  0  0  0  0
    6.6518   -2.4208   25.0934 C   0  0  0  0  0  0  0  0  0  0  0  0
    6.9269   -1.4644   24.6581 H   0  0  0  0  0  0  0  0  0  0  0  0
    8.5347   -2.4424   22.5604 C   0  0  0  0  0  0  0  0  0  0  0  0
    8.8199   -3.2558   23.2190 H   0  0  0  0  0  0  0  0  0  0  0  0
    9.3475   -1.5106   22.0405 C   0  0  0  0  0  0  0  0  0  0  0  0
   10.3949   -1.4245   22.2722 H   0  0  0  0  0  0  0  0  0  0  0  0
    8.7993   -0.5271   21.1253 C   0  0  0  0  0  0  0  0  0  0  0  0
    9.4940    0.3809   20.6748 O   0  0  0  0  0  0  0  0  0  0  0  0
    5.4521    0.6888   19.9626 C   0  0  0  0  0  0  0  0  0  0  0  0
    5.0323    0.6786   20.9696 H   0  0  0  0  0  0  0  0  0  0  0  0
    4.8133    1.3542   18.9180 C   0  0  0  0  0  0  0  0  0  0  0  0
    3.8626    1.8542   19.0630 H   0  0  0  0  0  0  0  0  0  0  0  0
  1  2  1  0
  2  3  2  0
  3  4  1  0
  4  5  1  0
  4  6  2  0
  6  7  1  0
  7  8  2  0
  8  9  1  0
  9 10  1  0
 10 11  1  0
 11 12  2  0
 12 13  1  0
 12 14  1  0
 14 15  1  0
 14 16  2  0
 16 17  1  0
 16 18  1  0
 18 19  1  0
 18 20  2  0
 20 21  1  0
  9 22  1  0
 22 23  1  0
 22 24  2  0
 24 25  1  0
 24 26  1  0
 26 27  2  0
  6 28  1  0
 28 29  1  0
 28 30  2  0
 30 31  1  0
 30  2  1  0
 26  7  1  0
 20 11  1  0
M  END
>  <cnnaffinity>  (1) 
-5.33309

>  <filename>  (1) 
O=c1ccn(Oc2cccc(Cl)c2)nc1-c1cccnc1

$$$$
