
     RDKit          3D

 27 29  0  0  0  0  0  0  0  0999 V2000
   13.3587    1.8812   22.3502 H   0  0  0  0  0  0  0  0  0  0  0  0
   12.5417    1.1854   22.4934 C   0  0  0  0  0  0  0  0  0  0  0  0
   12.5375    0.2348   23.3765 N   0  0  0  0  0  0  0  0  0  0  0  0
   11.3476   -0.4426   23.3138 C   0  0  0  0  0  0  0  0  0  0  0  0
   11.1318   -1.2140   24.0460 H   0  0  0  0  0  0  0  0  0  0  0  0
   10.4579   -0.0451   22.3604 C   0  0  0  0  0  0  0  0  0  0  0  0
    9.1535   -0.6403   22.0504 C   0  0  0  0  0  0  0  0  0  0  0  0
    8.6529   -1.7332   22.8316 C   0  0  0  0  0  0  0  0  0  0  0  0
    9.2371   -2.0915   23.6832 H   0  0  0  0  0  0  0  0  0  0  0  0
    7.4516   -2.2916   22.5335 C   0  0  0  0  0  0  0  0  0  0  0  0
    7.0306   -3.1150   23.0949 H   0  0  0  0  0  0  0  0  0  0  0  0
    6.6134   -1.8176   21.4326 C   0  0  0  0  0  0  0  0  0  0  0  0
    5.5551   -2.3408   21.1390 O   0  0  0  0  0  0  0  0  0  0  0  0
    7.1542   -0.6981   20.6993 N   0  0  0  0  0  0  0  0  0  0  0  0
    6.4180   -0.0409   19.6361 C   0  0  0  0  0  0  0  0  0  0  0  0
    6.9690    0.0561   18.3425 C   0  0  0  0  0  0  0  0  0  0  0  0
    7.9101   -0.4494   18.1208 H   0  0  0  0  0  0  0  0  0  0  0  0
    6.4132    0.7600   17.3498 N   0  0  0  0  0  0  0  0  0  0  0  0
    5.2919    1.4466   17.6235 C   0  0  0  0  0  0  0  0  0  0  0  0
    4.9022    2.0688   16.8192 H   0  0  0  0  0  0  0  0  0  0  0  0
    4.6544    1.4028   18.8658 C   0  0  0  0  0  0  0  0  0  0  0  0
    3.7654    2.0027   19.0276 H   0  0  0  0  0  0  0  0  0  0  0  0
    5.2137    0.6273   19.8896 C   0  0  0  0  0  0  0  0  0  0  0  0
    4.7504    0.5559   20.8716 H   0  0  0  0  0  0  0  0  0  0  0  0
    8.3769   -0.1560   21.0303 C   0  0  0  0  0  0  0  0  0  0  0  0
    8.6864    0.7079   20.4505 H   0  0  0  0  0  0  0  0  0  0  0  0
   11.1207    1.3269   21.5285 S   0  0  0  0  0  0  0  0  0  0  0  0
  1  2  1  0
  2  3  2  0
  3  4  1  0
  4  5  1  0
  4  6  2  0
  6  7  1  0
  7  8  1  0
  8  9  1  0
  8 10  2  0
 10 11  1  0
 10 12  1  0
 12 13  2  0
 12 14  1  0
 14 15  1  0
 15 16  2  0
 16 17  1  0
 16 18  1  0
 18 19  2  0
 19 20  1  0
 19 21  1  0
 21 22  1  0
 21 23  2  0
 23 24  1  0
 14 25  1  0
 25 26  1  0
  6 27  1  0
 27  2  1  0
 25  7  2  0
 23 15  1  0
M  END
>  <cnnaffinity>  (1) 
-5.11918

>  <filename>  (1) 
O=c1ccc(-c2cncs2)cn1-c1cccnc1

$$$$
