
     RDKit          3D

 35 37  0  0  0  0  0  0  0  0999 V2000
    4.9731    1.8634   16.9175 H   0  0  0  0  0  0  0  0  0  0  0  0
    5.4139    1.3359   17.7602 C   0  0  0  0  0  0  0  0  0  0  0  0
    6.5815    0.7187   17.5172 N   0  0  0  0  0  0  0  0  0  0  0  0
    7.1523    0.0751   18.5441 C   0  0  0  0  0  0  0  0  0  0  0  0
    8.1046   -0.4111   18.3265 H   0  0  0  0  0  0  0  0  0  0  0  0
    6.5988   -0.0031   19.8434 C   0  0  0  0  0  0  0  0  0  0  0  0
    7.3012   -0.7132   20.9979 C   0  0  2  0  0  0  0  0  0  0  0  0
    8.1343   -1.2803   20.5673 H   0  0  0  0  0  0  0  0  0  0  0  0
    6.4629   -1.7683   21.7449 C   0  0  0  0  0  0  0  0  0  0  0  0
    5.8084   -2.6780   21.2867 O   0  0  0  0  0  0  0  0  0  0  0  0
    6.5922   -1.5367   23.0881 N   0  0  0  0  0  0  0  0  0  0  0  0
    5.8244   -1.9484   23.6040 H   0  0  0  0  0  0  0  0  0  0  0  0
    7.0440   -0.1922   23.3904 C   0  0  0  0  0  0  0  0  0  0  0  0
    6.1951    0.4788   23.5914 H   0  0  0  0  0  0  0  0  0  0  0  0
    7.6702   -0.1768   24.2909 H   0  0  0  0  0  0  0  0  0  0  0  0
    7.8056    0.2447   22.1186 C   0  0  1  0  0  0  0  0  0  0  0  0
    7.5393    1.2882   21.9012 H   0  0  0  0  0  0  0  0  0  0  0  0
    9.3134    0.1901   22.2612 C   0  0  0  0  0  0  0  0  0  0  0  0
    9.9896   -1.0036   22.5619 C   0  0  0  0  0  0  0  0  0  0  0  0
    9.4444   -1.9260   22.7409 H   0  0  0  0  0  0  0  0  0  0  0  0
   11.3807   -1.0310   22.6440 C   0  0  0  0  0  0  0  0  0  0  0  0
   11.8760   -1.9872   22.8037 H   0  0  0  0  0  0  0  0  0  0  0  0
   12.1226    0.1394   22.4685 C   0  0  0  0  0  0  0  0  0  0  0  0
   13.2084    0.1167   22.5674 H   0  0  0  0  0  0  0  0  0  0  0  0
   11.4527    1.3505   22.2058 C   0  0  0  0  0  0  0  0  0  0  0  0
   12.1797    2.6708   22.0600 C   0  0  0  0  0  0  0  0  0  0  0  0
   11.5800    3.6486   22.7745 F   0  0  0  0  0  0  0  0  0  0  0  0
   12.1942    3.1107   20.7848 F   0  0  0  0  0  0  0  0  0  0  0  0
   13.4512    2.5924   22.4921 F   0  0  0  0  0  0  0  0  0  0  0  0
   10.0553    1.3634   22.0882 C   0  0  0  0  0  0  0  0  0  0  0  0
    9.5236    2.2974   21.8993 H   0  0  0  0  0  0  0  0  0  0  0  0
    5.3851    0.6553   20.0672 C   0  0  0  0  0  0  0  0  0  0  0  0
    4.9238    0.6458   21.0599 H   0  0  0  0  0  0  0  0  0  0  0  0
    4.7774    1.3326   19.0069 C   0  0  0  0  0  0  0  0  0  0  0  0
    3.8425    1.8688   19.1362 H   0  0  0  0  0  0  0  0  0  0  0  0
  1  2  1  0
  2  3  2  0
  3  4  1  0
  4  5  1  0
  4  6  2  0
  6  7  1  0
  7  8  1  6
  7  9  1  0
  9 10  2  0
  9 11  1  0
 11 12  1  0
 11 13  1  0
 13 14  1  0
 13 15  1  0
 13 16  1  0
 16 17  1  6
 16 18  1  0
 18 19  2  0
 19 20  1  0
 19 21  1  0
 21 22  1  0
 21 23  2  0
 23 24  1  0
 23 25  1  0
 25 26  1  0
 26 27  1  0
 26 28  1  0
 26 29  1  0
 25 30  2  0
 30 31  1  0
  6 32  1  0
 32 33  1  0
 32 34  2  0
 34 35  1  0
 34  2  1  0
 16  7  1  0
 30 18  1  0
M  END
>  <cnnaffinity>  (1) 
-5.15971

>  <filename>  (1) 
O=C1NC[C@@H](c2cccc(C(F)(F)F)c2)[C@@H]1c1cccnc1

$$$$
