
     RDKit          3D

 38 40  0  0  0  0  0  0  0  0999 V2000
    4.9258    1.9015   16.8682 H   0  0  0  0  0  0  0  0  0  0  0  0
    5.3688    1.3713   17.7067 C   0  0  0  0  0  0  0  0  0  0  0  0
    6.4917    0.6910   17.4250 N   0  0  0  0  0  0  0  0  0  0  0  0
    7.0600    0.0192   18.4250 C   0  0  0  0  0  0  0  0  0  0  0  0
    7.9884   -0.5054   18.1974 H   0  0  0  0  0  0  0  0  0  0  0  0
    6.5452   -0.0591   19.7373 C   0  0  0  0  0  0  0  0  0  0  0  0
    7.2300   -0.9305   20.7338 C   0  0  0  0  0  0  0  0  0  0  0  0
    8.9655   -1.0733   20.4830 S   0  0  0  0  0  0  0  0  0  0  0  0
    9.5237   -1.8732   21.9161 C   0  0  0  0  0  0  0  0  0  0  0  0
   11.0197   -1.6919   22.1673 C   0  0  0  0  0  0  0  0  0  0  0  0
   11.5601   -1.6216   21.2168 H   0  0  0  0  0  0  0  0  0  0  0  0
   11.4018   -2.5852   22.6818 H   0  0  0  0  0  0  0  0  0  0  0  0
   11.3715   -0.5157   22.9642 N   0  0  0  0  0  0  0  0  0  0  0  0
   11.2401    0.7700   22.2683 C   0  0  0  0  0  0  0  0  0  0  0  0
   10.1771    1.0423   22.0991 H   0  0  0  0  0  0  0  0  0  0  0  0
   11.6888    0.6743   21.2730 H   0  0  0  0  0  0  0  0  0  0  0  0
   11.9550    1.8671   23.0697 C   0  0  0  0  0  0  0  0  0  0  0  0
   13.0364    1.6786   23.0389 H   0  0  0  0  0  0  0  0  0  0  0  0
   11.7950    2.8362   22.5816 H   0  0  0  0  0  0  0  0  0  0  0  0
   11.4732    1.9203   24.5306 C   0  0  0  0  0  0  0  0  0  0  0  0
   10.4578    2.3438   24.5696 H   0  0  0  0  0  0  0  0  0  0  0  0
   12.1092    2.5912   25.1078 H   0  0  0  0  0  0  0  0  0  0  0  0
   11.4500    0.5235   25.1730 C   0  0  0  0  0  0  0  0  0  0  0  0
   10.9473    0.5589   26.1455 H   0  0  0  0  0  0  0  0  0  0  0  0
   12.4627    0.1388   25.3434 H   0  0  0  0  0  0  0  0  0  0  0  0
   10.7029   -0.4477   24.2672 C   0  0  0  0  0  0  0  0  0  0  0  0
    9.6600   -0.0897   24.1680 H   0  0  0  0  0  0  0  0  0  0  0  0
   10.6265   -1.4459   24.7154 H   0  0  0  0  0  0  0  0  0  0  0  0
    8.6849   -2.5207   22.7571 C   0  0  0  0  0  0  0  0  0  0  0  0
    9.0653   -3.0791   23.6050 H   0  0  0  0  0  0  0  0  0  0  0  0
    7.2163   -2.4401   22.7315 C   0  0  0  0  0  0  0  0  0  0  0  0
    6.5545   -3.0270   23.5761 O   0  0  0  0  0  0  0  0  0  0  0  0
    6.5778   -1.6294   21.6888 C   0  0  0  0  0  0  0  0  0  0  0  0
    5.4992   -1.6311   21.7241 H   0  0  0  0  0  0  0  0  0  0  0  0
    5.3840    0.6879   20.0186 C   0  0  0  0  0  0  0  0  0  0  0  0
    4.9678    0.7438   21.0267 H   0  0  0  0  0  0  0  0  0  0  0  0
    4.7863    1.4065   18.9775 C   0  0  0  0  0  0  0  0  0  0  0  0
    3.8863    1.9958   19.1259 H   0  0  0  0  0  0  0  0  0  0  0  0
  1  2  1  0
  2  3  2  0
  3  4  1  0
  4  5  1  0
  4  6  2  0
  6  7  1  0
  7  8  1  0
  8  9  1  0
  9 10  1  0
 10 11  1  0
 10 12  1  0
 10 13  1  0
 13 14  1  0
 14 15  1  0
 14 16  1  0
 14 17  1  0
 17 18  1  0
 17 19  1  0
 17 20  1  0
 20 21  1  0
 20 22  1  0
 20 23  1  0
 23 24  1  0
 23 25  1  0
 23 26  1  0
 26 27  1  0
 26 28  1  0
  9 29  2  0
 29 30  1  0
 29 31  1  0
 31 32  2  0
 31 33  1  0
 33 34  1  0
  6 35  1  0
 35 36  1  0
 35 37  2  0
 37 38  1  0
 37  2  1  0
 33  7  2  0
 26 13  1  0
M  END
>  <cnnaffinity>  (1) 
-4.99593

>  <filename>  (1) 
O=c1cc(CN2CCCCC2)sc(-c2cccnc2)c1

$$$$
