
     RDKit          3D

 33 36  0  0  0  0  0  0  0  0999 V2000
    4.9258    1.7819   16.9937 H   0  0  0  0  0  0  0  0  0  0  0  0
    5.4013    1.2930   17.8398 C   0  0  0  0  0  0  0  0  0  0  0  0
    6.5587    0.6676   17.5872 N   0  0  0  0  0  0  0  0  0  0  0  0
    7.1539    0.0454   18.6067 C   0  0  0  0  0  0  0  0  0  0  0  0
    8.1143   -0.4149   18.3844 H   0  0  0  0  0  0  0  0  0  0  0  0
    6.6193   -0.0162   19.9053 C   0  0  0  0  0  0  0  0  0  0  0  0
    7.3106   -0.7392   20.9886 C   0  0  0  0  0  0  0  0  0  0  0  0
    6.5812   -1.5118   21.7737 N   0  0  0  0  0  0  0  0  0  0  0  0
    7.1749   -2.2058   22.8188 C   0  0  0  0  0  0  0  0  0  0  0  0
    6.2874   -3.0559   23.6868 C   0  0  0  0  0  0  0  0  0  0  0  0
    5.0874   -3.5859   23.1734 C   0  0  0  0  0  0  0  0  0  0  0  0
    4.8186   -3.3395   22.1511 H   0  0  0  0  0  0  0  0  0  0  0  0
    4.2315   -4.3866   23.9487 C   0  0  0  0  0  0  0  0  0  0  0  0
    3.3024   -4.7825   23.5538 H   0  0  0  0  0  0  0  0  0  0  0  0
    4.6132   -4.6412   25.2504 C   0  0  0  0  0  0  0  0  0  0  0  0
    5.7980   -4.1262   25.7806 C   0  0  0  0  0  0  0  0  0  0  0  0
    6.6463   -3.3408   25.0336 C   0  0  0  0  0  0  0  0  0  0  0  0
    7.5457   -2.9389   25.4902 H   0  0  0  0  0  0  0  0  0  0  0  0
    5.9346   -4.5287   27.0762 O   0  0  0  0  0  0  0  0  0  0  0  0
    4.7864   -5.3241   27.3643 C   0  0  0  0  0  0  0  0  0  0  0  0
    4.2222   -4.8705   28.1840 H   0  0  0  0  0  0  0  0  0  0  0  0
    5.0981   -6.3358   27.6397 H   0  0  0  0  0  0  0  0  0  0  0  0
    3.9686   -5.3787   26.1967 O   0  0  0  0  0  0  0  0  0  0  0  0
    8.5300   -2.1239   23.0277 C   0  0  0  0  0  0  0  0  0  0  0  0
    9.0488   -2.6819   23.8010 H   0  0  0  0  0  0  0  0  0  0  0  0
    9.3025   -1.3251   22.2168 N   0  0  0  0  0  0  0  0  0  0  0  0
   10.3037   -1.1756   22.3098 H   0  0  0  0  0  0  0  0  0  0  0  0
    8.8027   -0.5556   21.1724 C   0  0  0  0  0  0  0  0  0  0  0  0
    9.5945    0.1395   20.5575 O   0  0  0  0  0  0  0  0  0  0  0  0
    5.4122    0.6474   20.1590 C   0  0  0  0  0  0  0  0  0  0  0  0
    4.9833    0.6332   21.1634 H   0  0  0  0  0  0  0  0  0  0  0  0
    4.8014    1.3207   19.1040 C   0  0  0  0  0  0  0  0  0  0  0  0
    3.8691    1.8527   19.2512 H   0  0  0  0  0  0  0  0  0  0  0  0
  1  2  1  0
  2  3  2  0
  3  4  1  0
  4  5  1  0
  4  6  2  0
  6  7  1  0
  7  8  2  0
  8  9  1  0
  9 10  1  0
 10 11  2  0
 11 12  1  0
 11 13  1  0
 13 14  1  0
 13 15  2  0
 15 16  1  0
 16 17  2  0
 17 18  1  0
 16 19  1  0
 19 20  1  0
 20 21  1  0
 20 22  1  0
 20 23  1  0
  9 24  2  0
 24 25  1  0
 24 26  1  0
 26 27  1  0
 26 28  1  0
 28 29  2  0
  6 30  1  0
 30 31  1  0
 30 32  2  0
 32 33  1  0
 32  2  1  0
 28  7  1  0
 17 10  1  0
 23 15  1  0
M  END
>  <cnnaffinity>  (1) 
-5.26448

>  <filename>  (1) 
O=c1[nH]cc(-c2ccc3c(c2)OCO3)nc1-c1cccnc1

$$$$
