
     RDKit          3D

 41 43  0  0  0  0  0  0  0  0999 V2000
    4.9678    1.8749   16.9495 H   0  0  0  0  0  0  0  0  0  0  0  0
    5.4222    1.3253   17.7712 C   0  0  0  0  0  0  0  0  0  0  0  0
    6.5758    0.6971   17.4934 N   0  0  0  0  0  0  0  0  0  0  0  0
    7.1493    0.0205   18.4955 C   0  0  0  0  0  0  0  0  0  0  0  0
    8.0934   -0.4688   18.2592 H   0  0  0  0  0  0  0  0  0  0  0  0
    6.6258   -0.0928   19.7982 C   0  0  0  0  0  0  0  0  0  0  0  0
    7.3945   -0.8300   20.8829 C   0  0  2  0  0  0  0  0  0  0  0  0
    8.2576   -1.3012   20.3960 H   0  0  0  0  0  0  0  0  0  0  0  0
    6.5874   -1.9264   21.6335 C   0  0  0  0  0  0  0  0  0  0  0  0
    7.1031   -2.8946   21.5917 H   0  0  0  0  0  0  0  0  0  0  0  0
    5.5899   -2.0616   21.1889 H   0  0  0  0  0  0  0  0  0  0  0  0
    6.5095   -1.4397   23.0007 N   0  0  0  0  0  0  0  0  0  0  0  0
    5.7635   -1.6799   23.6344 H   0  0  0  0  0  0  0  0  0  0  0  0
    6.9531   -0.1624   23.1627 C   0  0  0  0  0  0  0  0  0  0  0  0
    6.6503    0.5459   24.0998 O   0  0  0  0  0  0  0  0  0  0  0  0
    7.8598    0.1496   21.9865 C   0  0  1  0  0  0  0  0  0  0  0  0
    7.6803    1.1864   21.6885 H   0  0  0  0  0  0  0  0  0  0  0  0
    9.3490    0.0131   22.3525 C   0  0  0  0  0  0  0  0  0  0  0  0
    9.5598   -1.0257   22.6419 H   0  0  0  0  0  0  0  0  0  0  0  0
    9.9429    0.1956   21.4437 H   0  0  0  0  0  0  0  0  0  0  0  0
    9.8073    0.9864   23.4494 C   0  0  0  0  0  0  0  0  0  0  0  0
    9.2165    0.7858   24.3584 H   0  0  0  0  0  0  0  0  0  0  0  0
    9.4967    2.4446   23.0284 C   0  0  0  0  0  0  0  0  0  0  0  0
    9.8532    2.6081   21.9954 H   0  0  0  0  0  0  0  0  0  0  0  0
    8.4072    2.5841   23.0128 H   0  0  0  0  0  0  0  0  0  0  0  0
   10.1144    3.4890   23.9636 C   0  0  0  0  0  0  0  0  0  0  0  0
    9.8966    4.5007   23.5994 H   0  0  0  0  0  0  0  0  0  0  0  0
    9.6318    3.3970   24.9522 H   0  0  0  0  0  0  0  0  0  0  0  0
   11.6225    3.2553   24.1178 C   0  0  0  0  0  0  0  0  0  0  0  0
   12.0856    4.0424   24.7242 H   0  0  0  0  0  0  0  0  0  0  0  0
   12.1048    3.3104   23.1273 H   0  0  0  0  0  0  0  0  0  0  0  0
   11.8463    1.8617   24.7245 C   0  0  0  0  0  0  0  0  0  0  0  0
   11.3153    1.8121   25.6888 H   0  0  0  0  0  0  0  0  0  0  0  0
   12.9044    1.6794   24.9329 H   0  0  0  0  0  0  0  0  0  0  0  0
   11.2950    0.7633   23.8041 C   0  0  0  0  0  0  0  0  0  0  0  0
   11.4061   -0.2181   24.2887 H   0  0  0  0  0  0  0  0  0  0  0  0
   11.8954    0.7258   22.8798 H   0  0  0  0  0  0  0  0  0  0  0  0
    5.4245    0.5840   20.0657 C   0  0  0  0  0  0  0  0  0  0  0  0
    4.9841    0.5705   21.0671 H   0  0  0  0  0  0  0  0  0  0  0  0
    4.8113    1.2971   19.0316 C   0  0  0  0  0  0  0  0  0  0  0  0
    3.8833    1.8408   19.1904 H   0  0  0  0  0  0  0  0  0  0  0  0
  1  2  1  0
  2  3  2  0
  3  4  1  0
  4  5  1  0
  4  6  2  0
  6  7  1  0
  7  8  1  6
  7  9  1  0
  9 10  1  0
  9 11  1  0
  9 12  1  0
 12 13  1  0
 12 14  1  0
 14 15  2  0
 14 16  1  0
 16 17  1  6
 16 18  1  0
 18 19  1  0
 18 20  1  0
 18 21  1  0
 21 22  1  0
 21 23  1  0
 23 24  1  0
 23 25  1  0
 23 26  1  0
 26 27  1  0
 26 28  1  0
 26 29  1  0
 29 30  1  0
 29 31  1  0
 29 32  1  0
 32 33  1  0
 32 34  1  0
 32 35  1  0
 35 36  1  0
 35 37  1  0
  6 38  1  0
 38 39  1  0
 38 40  2  0
 40 41  1  0
 40  2  1  0
 16  7  1  0
 35 21  1  0
M  END
>  <cnnaffinity>  (1) 
-5.25502

>  <filename>  (1) 
O=C1NC[C@@H](c2cccnc2)[C@@H]1CC1CCCCC1

$$$$
