
     RDKit          3D

 21 22  0  0  0  0  0  0  0  0999 V2000
    4.9766    1.7935   17.0013 H   0  0  0  0  0  0  0  0  0  0  0  0
    5.4257    1.2937   17.8574 C   0  0  0  0  0  0  0  0  0  0  0  0
    6.5836    0.6573   17.6229 N   0  0  0  0  0  0  0  0  0  0  0  0
    7.1767    0.0253   18.6412 C   0  0  0  0  0  0  0  0  0  0  0  0
    8.1134   -0.4596   18.3892 H   0  0  0  0  0  0  0  0  0  0  0  0
    6.6317   -0.0297   19.9542 C   0  0  0  0  0  0  0  0  0  0  0  0
    7.2227   -0.7447   21.0652 N   0  0  0  0  0  0  0  0  0  0  0  0
    8.4596   -0.5121   21.6697 C   0  0  0  0  0  0  0  0  0  0  0  0
    9.4482    0.3887   20.9664 C   0  0  0  0  0  0  0  0  0  0  0  0
    9.6939   -0.2370   19.7885 F   0  0  0  0  0  0  0  0  0  0  0  0
   10.6120    0.5774   21.5723 F   0  0  0  0  0  0  0  0  0  0  0  0
    8.9347    1.5973   20.6993 F   0  0  0  0  0  0  0  0  0  0  0  0
    8.7198   -1.3454   22.6258 N   0  0  0  0  0  0  0  0  0  0  0  0
    7.6010   -2.1274   22.6798 N   0  0  0  0  0  0  0  0  0  0  0  0
    7.4819   -2.8992   23.3130 H   0  0  0  0  0  0  0  0  0  0  0  0
    6.6392   -1.8411   21.7558 C   0  0  0  0  0  0  0  0  0  0  0  0
    5.5861   -2.4177   21.5759 O   0  0  0  0  0  0  0  0  0  0  0  0
    5.4250    0.6374   20.1749 C   0  0  0  0  0  0  0  0  0  0  0  0
    4.9884    0.6091   21.1731 H   0  0  0  0  0  0  0  0  0  0  0  0
    4.8117    1.3157   19.1118 C   0  0  0  0  0  0  0  0  0  0  0  0
    3.8752    1.8499   19.2400 H   0  0  0  0  0  0  0  0  0  0  0  0
  1  2  1  0
  2  3  2  0
  3  4  1  0
  4  5  1  0
  4  6  2  0
  6  7  1  0
  7  8  1  0
  8  9  1  0
  9 10  1  0
  9 11  1  0
  9 12  1  0
  8 13  2  0
 13 14  1  0
 14 15  1  0
 14 16  1  0
 16 17  2  0
  6 18  1  0
 18 19  1  0
 18 20  2  0
 20 21  1  0
 20  2  1  0
 16  7  1  0
M  END
>  <cnnaffinity>  (1) 
-4.34605

>  <filename>  (1) 
O=c1[nH]nc(C(F)(F)F)n1-c1cccnc1

$$$$
