
     RDKit          3D

 31 34  0  0  0  0  0  0  0  0999 V2000
    4.9250    1.7991   16.9715 H   0  0  0  0  0  0  0  0  0  0  0  0
    5.3953    1.3005   17.8194 C   0  0  0  0  0  0  0  0  0  0  0  0
    6.5602    0.6811   17.5693 N   0  0  0  0  0  0  0  0  0  0  0  0
    7.1740    0.0684   18.5903 C   0  0  0  0  0  0  0  0  0  0  0  0
    8.1106   -0.4249   18.3330 H   0  0  0  0  0  0  0  0  0  0  0  0
    6.6714    0.0185   19.9046 C   0  0  0  0  0  0  0  0  0  0  0  0
    7.3439   -0.7040   20.9918 C   0  0  0  0  0  0  0  0  0  0  0  0
    6.8128   -1.2274   22.1094 C   0  0  0  0  0  0  0  0  0  0  0  0
    5.7889   -1.2863   22.4035 H   0  0  0  0  0  0  0  0  0  0  0  0
    7.8242   -1.8108   22.8588 N   0  0  0  0  0  0  0  0  0  0  0  0
    7.6407   -2.4343   24.0618 C   0  0  0  0  0  0  0  0  0  0  0  0
    6.4944   -2.5598   24.6386 N   0  0  0  0  0  0  0  0  0  0  0  0
    6.8042   -3.2477   25.8071 C   0  0  0  0  0  0  0  0  0  0  0  0
    6.0025   -3.6959   26.8666 C   0  0  0  0  0  0  0  0  0  0  0  0
    4.9348   -3.5103   26.8738 H   0  0  0  0  0  0  0  0  0  0  0  0
    6.6200   -4.3984   27.9026 C   0  0  0  0  0  0  0  0  0  0  0  0
    6.0310   -4.7472   28.7468 H   0  0  0  0  0  0  0  0  0  0  0  0
    8.0023   -4.6511   27.8778 C   0  0  0  0  0  0  0  0  0  0  0  0
    8.4414   -5.2574   28.6591 H   0  0  0  0  0  0  0  0  0  0  0  0
    8.8178   -4.1768   26.8464 C   0  0  0  0  0  0  0  0  0  0  0  0
    9.8855   -4.3479   26.8368 H   0  0  0  0  0  0  0  0  0  0  0  0
    8.1839   -3.4892   25.8275 C   0  0  0  0  0  0  0  0  0  0  0  0
    8.7221   -2.9568   24.6852 O   0  0  0  0  0  0  0  0  0  0  0  0
    9.0484   -1.6642   22.1990 C   0  0  0  0  0  0  0  0  0  0  0  0
   10.1499   -2.0133   22.5240 O   0  0  0  0  0  0  0  0  0  0  0  0
    8.6991   -1.0031   21.0413 N   0  0  0  0  0  0  0  0  0  0  0  0
    9.4330   -0.7089   20.4277 H   0  0  0  0  0  0  0  0  0  0  0  0
    5.4415    0.6641   20.1377 C   0  0  0  0  0  0  0  0  0  0  0  0
    5.0060    0.6658   21.1371 H   0  0  0  0  0  0  0  0  0  0  0  0
    4.8016    1.3181   19.0856 C   0  0  0  0  0  0  0  0  0  0  0  0
    3.8677    1.8487   19.2322 H   0  0  0  0  0  0  0  0  0  0  0  0
  1  2  1  0
  2  3  2  0
  3  4  1  0
  4  5  1  0
  4  6  2  0
  6  7  1  0
  7  8  2  0
  8  9  1  0
  8 10  1  0
 10 11  1  0
 11 12  2  0
 12 13  1  0
 13 14  2  0
 14 15  1  0
 14 16  1  0
 16 17  1  0
 16 18  2  0
 18 19  1  0
 18 20  1  0
 20 21  1  0
 20 22  2  0
 22 23  1  0
 10 24  1  0
 24 25  2  0
 24 26  1  0
 26 27  1  0
  6 28  1  0
 28 29  1  0
 28 30  2  0
 30 31  1  0
 30  2  1  0
 26  7  1  0
 23 11  1  0
 22 13  1  0
M  END
>  <cnnaffinity>  (1) 
-5.20072

>  <filename>  (1) 
O=c1[nH]c(-c2cccnc2)cn1-c1nc2ccccc2o1

$$$$
