
     RDKit          3D

 31 33  0  0  0  0  0  0  0  0999 V2000
    5.1268    1.8856   16.9236 H   0  0  0  0  0  0  0  0  0  0  0  0
    5.5546    1.3418   17.7631 C   0  0  0  0  0  0  0  0  0  0  0  0
    6.7206    0.7129   17.5338 N   0  0  0  0  0  0  0  0  0  0  0  0
    7.2787    0.0510   18.5557 C   0  0  0  0  0  0  0  0  0  0  0  0
    8.2166   -0.4685   18.3530 H   0  0  0  0  0  0  0  0  0  0  0  0
    6.6995   -0.0288   19.8374 C   0  0  0  0  0  0  0  0  0  0  0  0
    7.3508   -0.7226   20.9191 N   0  0  0  0  0  0  0  0  0  0  0  0
    8.6067   -0.2981   21.3118 C   0  0  0  0  0  0  0  0  0  0  0  0
    8.9848    0.5997   20.8256 H   0  0  0  0  0  0  0  0  0  0  0  0
    9.3109   -0.9298   22.2904 C   0  0  0  0  0  0  0  0  0  0  0  0
   10.7706   -0.6989   22.4394 C   0  0  0  0  0  0  0  0  0  0  0  0
   11.6369   -1.2968   21.5121 C   0  0  0  0  0  0  0  0  0  0  0  0
   11.2051   -1.9403   20.7664 H   0  0  0  0  0  0  0  0  0  0  0  0
   13.0150   -1.1376   21.6226 C   0  0  0  0  0  0  0  0  0  0  0  0
   14.0685   -1.8159   20.4171 Cl  0  0  0  0  0  0  0  0  0  0  0  0
   13.5608   -0.4398   22.7020 C   0  0  0  0  0  0  0  0  0  0  0  0
   14.6302   -0.3584   22.8325 H   0  0  0  0  0  0  0  0  0  0  0  0
   12.6833    0.0691   23.6616 C   0  0  0  0  0  0  0  0  0  0  0  0
   13.2844    0.6831   25.1497 Cl  0  0  0  0  0  0  0  0  0  0  0  0
   11.3017   -0.0032   23.5209 C   0  0  0  0  0  0  0  0  0  0  0  0
   10.6617    0.4440   24.2684 H   0  0  0  0  0  0  0  0  0  0  0  0
    8.6698   -1.9584   23.0502 C   0  0  0  0  0  0  0  0  0  0  0  0
    9.1900   -2.3733   23.9166 H   0  0  0  0  0  0  0  0  0  0  0  0
    7.4344   -2.3945   22.6900 C   0  0  0  0  0  0  0  0  0  0  0  0
    6.9243   -3.2191   23.1684 H   0  0  0  0  0  0  0  0  0  0  0  0
    6.7101   -1.8500   21.5487 C   0  0  0  0  0  0  0  0  0  0  0  0
    5.6667   -2.3206   21.1299 O   0  0  0  0  0  0  0  0  0  0  0  0
    5.4733    0.6093   20.0546 C   0  0  0  0  0  0  0  0  0  0  0  0
    5.0016    0.5277   21.0328 H   0  0  0  0  0  0  0  0  0  0  0  0
    4.8976    1.3235   18.9989 C   0  0  0  0  0  0  0  0  0  0  0  0
    3.9567    1.8535   19.1238 H   0  0  0  0  0  0  0  0  0  0  0  0
  1  2  1  0
  2  3  2  0
  3  4  1  0
  4  5  1  0
  4  6  2  0
  6  7  1  0
  7  8  1  0
  8  9  1  0
  8 10  2  0
 10 11  1  0
 11 12  2  0
 12 13  1  0
 12 14  1  0
 14 15  1  0
 14 16  2  0
 16 17  1  0
 16 18  1  0
 18 19  1  0
 18 20  2  0
 20 21  1  0
 10 22  1  0
 22 23  1  0
 22 24  2  0
 24 25  1  0
 24 26  1  0
 26 27  2  0
  6 28  1  0
 28 29  1  0
 28 30  2  0
 30 31  1  0
 30  2  1  0
 26  7  1  0
 20 11  1  0
M  END
>  <cnnaffinity>  (1) 
-5.69474

>  <filename>  (1) 
O=c1ccc(-c2cc(Cl)cc(Cl)c2)cn1-c1cccnc1

$$$$
