
     RDKit          3D

 31 33  0  0  0  0  0  0  0  0999 V2000
    4.9140    1.7355   17.0476 H   0  0  0  0  0  0  0  0  0  0  0  0
    5.4402    1.2300   17.8565 C   0  0  0  0  0  0  0  0  0  0  0  0
    6.5765    0.6012   17.5081 N   0  0  0  0  0  0  0  0  0  0  0  0
    7.2597   -0.0332   18.4680 C   0  0  0  0  0  0  0  0  0  0  0  0
    8.1978   -0.5171   18.1915 H   0  0  0  0  0  0  0  0  0  0  0  0
    6.8351   -0.0971   19.8133 C   0  0  0  0  0  0  0  0  0  0  0  0
    7.6185   -0.7405   20.8238 N   0  0  0  0  0  0  0  0  0  0  0  0
    7.2950   -1.7693   21.7178 C   0  0  0  0  0  0  0  0  0  0  0  0
    5.9483   -2.4071   21.9057 C   0  0  0  0  0  0  0  0  0  0  0  0
    5.2105   -1.8885   21.2891 H   0  0  0  0  0  0  0  0  0  0  0  0
    5.7008   -2.2331   22.9556 H   0  0  0  0  0  0  0  0  0  0  0  0
    5.8527   -3.9144   21.7204 C   0  0  0  0  0  0  0  0  0  0  0  0
    5.7414   -4.7339   22.8544 C   0  0  0  0  0  0  0  0  0  0  0  0
    5.6177   -4.2564   23.8232 H   0  0  0  0  0  0  0  0  0  0  0  0
    5.7675   -6.1254   22.7701 C   0  0  0  0  0  0  0  0  0  0  0  0
    5.6904   -6.7427   23.6625 H   0  0  0  0  0  0  0  0  0  0  0  0
    5.8816   -6.7301   21.5195 C   0  0  0  0  0  0  0  0  0  0  0  0
    5.9449   -7.8138   21.4953 H   0  0  0  0  0  0  0  0  0  0  0  0
    5.8935   -5.9433   20.3593 C   0  0  0  0  0  0  0  0  0  0  0  0
    5.9129   -6.3783   19.3657 H   0  0  0  0  0  0  0  0  0  0  0  0
    5.8623   -4.5487   20.4706 C   0  0  0  0  0  0  0  0  0  0  0  0
    5.7482   -3.5828   19.0246 Cl  0  0  0  0  0  0  0  0  0  0  0  0
    8.2800   -2.0292   22.5237 N   0  0  0  0  0  0  0  0  0  0  0  0
    9.2742   -1.1707   22.1297 N   0  0  0  0  0  0  0  0  0  0  0  0
   10.1112   -1.0159   22.6630 H   0  0  0  0  0  0  0  0  0  0  0  0
    8.9114   -0.2944   21.1586 C   0  0  0  0  0  0  0  0  0  0  0  0
    9.5508    0.6335   20.6992 O   0  0  0  0  0  0  0  0  0  0  0  0
    5.6533    0.5568   20.1601 C   0  0  0  0  0  0  0  0  0  0  0  0
    5.3413    0.5341   21.2033 H   0  0  0  0  0  0  0  0  0  0  0  0
    4.9365    1.2296   19.1618 C   0  0  0  0  0  0  0  0  0  0  0  0
    4.0072    1.7407   19.3864 H   0  0  0  0  0  0  0  0  0  0  0  0
  1  2  1  0
  2  3  2  0
  3  4  1  0
  4  5  1  0
  4  6  2  0
  6  7  1  0
  7  8  1  0
  8  9  1  0
  9 10  1  0
  9 11  1  0
  9 12  1  0
 12 13  2  0
 13 14  1  0
 13 15  1  0
 15 16  1  0
 15 17  2  0
 17 18  1  0
 17 19  1  0
 19 20  1  0
 19 21  2  0
 21 22  1  0
  8 23  2  0
 23 24  1  0
 24 25  1  0
 24 26  1  0
 26 27  2  0
  6 28  1  0
 28 29  1  0
 28 30  2  0
 30 31  1  0
 30  2  1  0
 26  7  1  0
 21 12  1  0
M  END
>  <cnnaffinity>  (1) 
-5.38602

>  <filename>  (1) 
O=c1[nH]nc(Cc2ccccc2Cl)n1-c1cccnc1

$$$$
