
     RDKit          3D

 37 40  0  0  0  0  0  0  0  0999 V2000
   10.4857   -0.8722   22.1522 H   0  0  0  0  0  0  0  0  0  0  0  0
    9.4373   -1.1038   22.0390 C   0  0  0  0  0  0  0  0  0  0  0  0
    8.7545   -1.9197   22.8687 C   0  0  0  0  0  0  0  0  0  0  0  0
    9.3951   -2.7202   23.9417 C   0  0  0  0  0  0  0  0  0  0  0  0
   10.4850   -3.5690   23.7198 C   0  0  0  0  0  0  0  0  0  0  0  0
   10.9964   -3.5243   22.7616 H   0  0  0  0  0  0  0  0  0  0  0  0
   10.8700   -4.5251   24.6880 C   0  0  0  0  0  0  0  0  0  0  0  0
   11.6813   -5.2157   24.4880 H   0  0  0  0  0  0  0  0  0  0  0  0
   10.2121   -4.6363   25.9092 C   0  0  0  0  0  0  0  0  0  0  0  0
   10.4487   -5.4388   26.6019 H   0  0  0  0  0  0  0  0  0  0  0  0
    9.2149   -3.6941   26.1921 C   0  0  0  0  0  0  0  0  0  0  0  0
    8.8128   -2.7288   25.2411 C   0  0  0  0  0  0  0  0  0  0  0  0
    7.8054   -1.9284   25.8777 C   0  0  0  0  0  0  0  0  0  0  0  0
    7.2686   -1.1099   25.4146 H   0  0  0  0  0  0  0  0  0  0  0  0
    7.6391   -2.4065   27.1386 C   0  0  0  0  0  0  0  0  0  0  0  0
    6.9838   -2.0426   27.9165 H   0  0  0  0  0  0  0  0  0  0  0  0
    8.4765   -3.4883   27.3337 N   0  0  0  0  0  0  0  0  0  0  0  0
    8.6639   -3.9610   28.2059 H   0  0  0  0  0  0  0  0  0  0  0  0
    7.2437   -1.9596   22.7291 C   0  0  0  0  0  0  0  0  0  0  0  0
    6.8211   -1.0953   23.2641 H   0  0  0  0  0  0  0  0  0  0  0  0
    6.8273   -2.8621   23.1834 H   0  0  0  0  0  0  0  0  0  0  0  0
    6.8296   -1.8328   21.2682 C   0  0  0  0  0  0  0  0  0  0  0  0
    5.7415   -1.7240   21.1940 H   0  0  0  0  0  0  0  0  0  0  0  0
    7.1075   -2.7239   20.6785 H   0  0  0  0  0  0  0  0  0  0  0  0
    7.4507   -0.6326   20.7003 N   0  0  0  0  0  0  0  0  0  0  0  0
    6.7152    0.0655   19.6878 C   0  0  0  0  0  0  0  0  0  0  0  0
    7.1425    0.1159   18.3429 C   0  0  0  0  0  0  0  0  0  0  0  0
    8.0710   -0.3741   18.0659 H   0  0  0  0  0  0  0  0  0  0  0  0
    6.4748    0.7363   17.3623 N   0  0  0  0  0  0  0  0  0  0  0  0
    5.3323    1.3619   17.6934 C   0  0  0  0  0  0  0  0  0  0  0  0
    4.8251    1.8854   16.8874 H   0  0  0  0  0  0  0  0  0  0  0  0
    4.8001    1.3580   18.9884 C   0  0  0  0  0  0  0  0  0  0  0  0
    3.8618    1.8675   19.1891 H   0  0  0  0  0  0  0  0  0  0  0  0
    5.4951    0.6806   19.9993 C   0  0  0  0  0  0  0  0  0  0  0  0
    5.1223    0.6234   21.0225 H   0  0  0  0  0  0  0  0  0  0  0  0
    8.7994   -0.3221   20.9624 C   0  0  0  0  0  0  0  0  0  0  0  0
    9.4100    0.5394   20.3485 O   0  0  0  0  0  0  0  0  0  0  0  0
  1  2  1  0
  2  3  2  0
  3  4  1  0
  4  5  2  0
  5  6  1  0
  5  7  1  0
  7  8  1  0
  7  9  2  0
  9 10  1  0
  9 11  1  0
 11 12  2  0
 12 13  1  0
 13 14  1  0
 13 15  2  0
 15 16  1  0
 15 17  1  0
 17 18  1  0
  3 19  1  0
 19 20  1  0
 19 21  1  0
 19 22  1  0
 22 23  1  0
 22 24  1  0
 22 25  1  0
 25 26  1  0
 26 27  2  0
 27 28  1  0
 27 29  1  0
 29 30  2  0
 30 31  1  0
 30 32  1  0
 32 33  1  0
 32 34  2  0
 34 35  1  0
 25 36  1  0
 36 37  2  0
 36  2  1  0
 12  4  1  0
 34 26  1  0
 17 11  1  0
M  END
>  <cnnaffinity>  (1) 
-5.38882

>  <filename>  (1) 
O=C1C=C(c2cccc3[nH]ccc23)CCN1c1cccnc1

$$$$
