
     RDKit          3D

 29 31  0  0  0  0  0  0  0  0999 V2000
    4.9205    1.7986   16.9736 H   0  0  0  0  0  0  0  0  0  0  0  0
    5.3927    1.2995   17.8177 C   0  0  0  0  0  0  0  0  0  0  0  0
    6.5563    0.6794   17.5607 N   0  0  0  0  0  0  0  0  0  0  0  0
    7.1611    0.0567   18.5809 C   0  0  0  0  0  0  0  0  0  0  0  0
    8.1200   -0.4020   18.3403 H   0  0  0  0  0  0  0  0  0  0  0  0
    6.6449    0.0050   19.8914 C   0  0  0  0  0  0  0  0  0  0  0  0
    7.3319   -0.6558   21.0008 C   0  0  0  0  0  0  0  0  0  0  0  0
    7.2393   -0.4387   22.3324 C   0  0  0  0  0  0  0  0  0  0  0  0
    6.6651    0.2934   22.8768 H   0  0  0  0  0  0  0  0  0  0  0  0
    8.0878   -1.3291   22.9833 N   0  0  0  0  0  0  0  0  0  0  0  0
    8.2572   -1.4330   24.3849 C   0  0  0  0  0  0  0  0  0  0  0  0
    8.3120   -2.6940   24.9941 C   0  0  0  0  0  0  0  0  0  0  0  0
    8.2482   -3.5717   24.3570 H   0  0  0  0  0  0  0  0  0  0  0  0
    8.4759   -2.7979   26.3763 C   0  0  0  0  0  0  0  0  0  0  0  0
    8.5327   -3.7775   26.8380 H   0  0  0  0  0  0  0  0  0  0  0  0
    8.5892   -1.6408   27.1498 C   0  0  0  0  0  0  0  0  0  0  0  0
    8.7442   -1.6897   28.2135 H   0  0  0  0  0  0  0  0  0  0  0  0
    8.5272   -0.3784   26.5622 C   0  0  0  0  0  0  0  0  0  0  0  0
    8.6029    0.5322   27.1463 H   0  0  0  0  0  0  0  0  0  0  0  0
    8.3604   -0.2846   25.1904 C   0  0  0  0  0  0  0  0  0  0  0  0
    8.3109    0.9472   24.6408 F   0  0  0  0  0  0  0  0  0  0  0  0
    8.7252   -2.1350   22.0338 C   0  0  0  0  0  0  0  0  0  0  0  0
    9.5028   -3.0534   22.1714 O   0  0  0  0  0  0  0  0  0  0  0  0
    8.2612   -1.6652   20.8352 N   0  0  0  0  0  0  0  0  0  0  0  0
    8.5369   -2.1572   20.0079 H   0  0  0  0  0  0  0  0  0  0  0  0
    5.4267    0.6598   20.1328 C   0  0  0  0  0  0  0  0  0  0  0  0
    4.9911    0.6384   21.1342 H   0  0  0  0  0  0  0  0  0  0  0  0
    4.7946    1.3192   19.0823 C   0  0  0  0  0  0  0  0  0  0  0  0
    3.8642    1.8516   19.2365 H   0  0  0  0  0  0  0  0  0  0  0  0
  1  2  1  0
  2  3  2  0
  3  4  1  0
  4  5  1  0
  4  6  2  0
  6  7  1  0
  7  8  2  0
  8  9  1  0
  8 10  1  0
 10 11  1  0
 11 12  2  0
 12 13  1  0
 12 14  1  0
 14 15  1  0
 14 16  2  0
 16 17  1  0
 16 18  1  0
 18 19  1  0
 18 20  2  0
 20 21  1  0
 10 22  1  0
 22 23  2  0
 22 24  1  0
 24 25  1  0
  6 26  1  0
 26 27  1  0
 26 28  2  0
 28 29  1  0
 28  2  1  0
 24  7  1  0
 20 11  1  0
M  END
>  <cnnaffinity>  (1) 
-5.45784

>  <filename>  (1) 
O=c1[nH]c(-c2cccnc2)cn1-c1ccccc1F

$$$$
