
     RDKit          3D

 31 33  0  0  0  0  0  0  0  0999 V2000
    5.0185    2.0144   16.7541 H   0  0  0  0  0  0  0  0  0  0  0  0
    5.3179    1.4249   17.6171 C   0  0  0  0  0  0  0  0  0  0  0  0
    6.4168    0.6680   17.4533 N   0  0  0  0  0  0  0  0  0  0  0  0
    6.8173   -0.0390   18.5151 C   0  0  0  0  0  0  0  0  0  0  0  0
    7.7369   -0.6117   18.3912 H   0  0  0  0  0  0  0  0  0  0  0  0
    6.1524   -0.0818   19.7585 C   0  0  0  0  0  0  0  0  0  0  0  0
    6.7540   -0.8535   20.8820 C   0  0  0  0  0  0  0  0  0  0  0  0
    8.1362   -0.6490   21.1447 C   0  0  0  0  0  0  0  0  0  0  0  0
    8.6796    0.0470   20.5125 H   0  0  0  0  0  0  0  0  0  0  0  0
    8.8085   -1.2491   22.1780 C   0  0  0  0  0  0  0  0  0  0  0  0
   10.2386   -0.9286   22.3731 C   0  0  0  0  0  0  0  0  0  0  0  0
   11.2052   -1.9388   22.2316 C   0  0  0  0  0  0  0  0  0  0  0  0
   10.8366   -2.9513   22.0794 H   0  0  0  0  0  0  0  0  0  0  0  0
   12.5759   -1.6587   22.2277 C   0  0  0  0  0  0  0  0  0  0  0  0
   13.3116   -2.4361   22.0438 H   0  0  0  0  0  0  0  0  0  0  0  0
   12.9920   -0.3449   22.4607 C   0  0  0  0  0  0  0  0  0  0  0  0
   14.6653    0.0540   22.6167 Cl  0  0  0  0  0  0  0  0  0  0  0  0
   12.0714    0.6889   22.6030 C   0  0  0  0  0  0  0  0  0  0  0  0
   12.4089    1.7126   22.7214 H   0  0  0  0  0  0  0  0  0  0  0  0
   10.7066    0.3991   22.5393 C   0  0  0  0  0  0  0  0  0  0  0  0
    9.6235    1.7568   22.6775 Cl  0  0  0  0  0  0  0  0  0  0  0  0
    8.0933   -2.2359   23.0024 C   0  0  0  0  0  0  0  0  0  0  0  0
    8.5066   -2.9687   23.8843 O   0  0  0  0  0  0  0  0  0  0  0  0
    6.7256   -2.3324   22.7105 N   0  0  0  0  0  0  0  0  0  0  0  0
    6.3152   -2.9555   23.3914 H   0  0  0  0  0  0  0  0  0  0  0  0
    6.0622   -1.7157   21.6879 C   0  0  0  0  0  0  0  0  0  0  0  0
    5.0092   -1.9480   21.5431 H   0  0  0  0  0  0  0  0  0  0  0  0
    5.0061    0.7128   19.9029 C   0  0  0  0  0  0  0  0  0  0  0  0
    4.4969    0.7739   20.8668 H   0  0  0  0  0  0  0  0  0  0  0  0
    4.5904    1.4827   18.8115 C   0  0  0  0  0  0  0  0  0  0  0  0
    3.7306    2.1395   18.8801 H   0  0  0  0  0  0  0  0  0  0  0  0
  1  2  1  0
  2  3  2  0
  3  4  1  0
  4  5  1  0
  4  6  2  0
  6  7  1  0
  7  8  1  0
  8  9  1  0
  8 10  2  0
 10 11  1  0
 11 12  2  0
 12 13  1  0
 12 14  1  0
 14 15  1  0
 14 16  2  0
 16 17  1  0
 16 18  1  0
 18 19  1  0
 18 20  2  0
 20 21  1  0
 10 22  1  0
 22 23  2  0
 22 24  1  0
 24 25  1  0
 24 26  1  0
 26 27  1  0
  6 28  1  0
 28 29  1  0
 28 30  2  0
 30 31  1  0
 30  2  1  0
 26  7  2  0
 20 11  1  0
M  END
>  <cnnaffinity>  (1) 
-5.42237

>  <filename>  (1) 
O=c1[nH]cc(-c2cccnc2)cc1-c1ccc(Cl)cc1Cl

$$$$
