
     RDKit          3D

 33 35  0  0  0  0  0  0  0  0999 V2000
    4.9221    1.7964   16.9830 H   0  0  0  0  0  0  0  0  0  0  0  0
    5.3980    1.3027   17.8259 C   0  0  0  0  0  0  0  0  0  0  0  0
    6.5628    0.6892   17.5631 N   0  0  0  0  0  0  0  0  0  0  0  0
    7.1835    0.0794   18.5800 C   0  0  0  0  0  0  0  0  0  0  0  0
    8.1258   -0.4198   18.3474 H   0  0  0  0  0  0  0  0  0  0  0  0
    6.6612    0.0222   19.8875 C   0  0  0  0  0  0  0  0  0  0  0  0
    7.3535   -0.6820   20.9406 N   0  0  0  0  0  0  0  0  0  0  0  0
    8.6493   -0.2877   21.2745 C   0  0  0  0  0  0  0  0  0  0  0  0
    9.0546    0.5497   20.7061 H   0  0  0  0  0  0  0  0  0  0  0  0
    9.3759   -0.8764   22.2521 C   0  0  0  0  0  0  0  0  0  0  0  0
   10.6882   -0.4534   22.5356 N   0  0  0  0  0  0  0  0  0  0  0  0
   11.3326   -1.1147   22.9485 H   0  0  0  0  0  0  0  0  0  0  0  0
   11.1444    0.8730   22.5421 C   0  0  0  0  0  0  0  0  0  0  0  0
   10.2861    1.9596   22.7794 C   0  0  0  0  0  0  0  0  0  0  0  0
    9.2426    1.7554   23.0065 H   0  0  0  0  0  0  0  0  0  0  0  0
   10.7740    3.2737   22.7412 C   0  0  0  0  0  0  0  0  0  0  0  0
   10.1139    4.1281   22.8943 H   0  0  0  0  0  0  0  0  0  0  0  0
   12.1372    3.4861   22.5178 C   0  0  0  0  0  0  0  0  0  0  0  0
   12.7642    5.1055   22.4145 Cl  0  0  0  0  0  0  0  0  0  0  0  0
   13.0198    2.4096   22.3881 C   0  0  0  0  0  0  0  0  0  0  0  0
   14.0866    2.6215   22.3450 H   0  0  0  0  0  0  0  0  0  0  0  0
   12.5152    1.1054   22.3577 C   0  0  0  0  0  0  0  0  0  0  0  0
   13.1641    0.2539   22.1653 H   0  0  0  0  0  0  0  0  0  0  0  0
    8.7457   -2.0215   22.9917 C   0  0  0  0  0  0  0  0  0  0  0  0
    9.2157   -2.7121   23.8743 O   0  0  0  0  0  0  0  0  0  0  0  0
    7.4704   -2.3172   22.5917 N   0  0  0  0  0  0  0  0  0  0  0  0
    7.0327   -3.0836   23.0593 H   0  0  0  0  0  0  0  0  0  0  0  0
    6.7230   -1.7569   21.6104 C   0  0  0  0  0  0  0  0  0  0  0  0
    5.6303   -2.2100   21.3669 O   0  0  0  0  0  0  0  0  0  0  0  0
    5.4442    0.6575   20.1481 C   0  0  0  0  0  0  0  0  0  0  0  0
    5.0207    0.6088   21.1501 H   0  0  0  0  0  0  0  0  0  0  0  0
    4.8082    1.3204   19.0941 C   0  0  0  0  0  0  0  0  0  0  0  0
    3.8717    1.8441   19.2453 H   0  0  0  0  0  0  0  0  0  0  0  0
  1  2  1  0
  2  3  2  0
  3  4  1  0
  4  5  1  0
  4  6  2  0
  6  7  1  0
  7  8  1  0
  8  9  1  0
  8 10  2  0
 10 11  1  0
 11 12  1  0
 11 13  1  0
 13 14  2  0
 14 15  1  0
 14 16  1  0
 16 17  1  0
 16 18  2  0
 18 19  1  0
 18 20  1  0
 20 21  1  0
 20 22  2  0
 22 23  1  0
 10 24  1  0
 24 25  2  0
 24 26  1  0
 26 27  1  0
 26 28  1  0
 28 29  2  0
  6 30  1  0
 30 31  1  0
 30 32  2  0
 32 33  1  0
 32  2  1  0
 28  7  1  0
 22 13  1  0
M  END
>  <cnnaffinity>  (1) 
-5.5003

>  <filename>  (1) 
O=c1[nH]c(=O)n(-c2cccnc2)cc1Nc1ccc(Cl)cc1

$$$$
