
     RDKit          3D

 29 31  0  0  0  0  0  0  0  0999 V2000
    4.9070    1.7761   17.0017 H   0  0  0  0  0  0  0  0  0  0  0  0
    5.3977    1.2939   17.8426 C   0  0  0  0  0  0  0  0  0  0  0  0
    6.5630    0.6784   17.5790 N   0  0  0  0  0  0  0  0  0  0  0  0
    7.1799    0.0589   18.5922 C   0  0  0  0  0  0  0  0  0  0  0  0
    8.1290   -0.4307   18.3835 H   0  0  0  0  0  0  0  0  0  0  0  0
    6.6670    0.0021   19.9080 C   0  0  0  0  0  0  0  0  0  0  0  0
    7.3587   -0.6857   20.9479 N   0  0  0  0  0  0  0  0  0  0  0  0
    6.7688   -1.4488   21.9487 C   0  0  0  0  0  0  0  0  0  0  0  0
    5.7017   -1.5989   21.9853 H   0  0  0  0  0  0  0  0  0  0  0  0
    7.7395   -1.9394   22.7516 C   0  0  0  0  0  0  0  0  0  0  0  0
    7.6137   -2.7885   23.9323 C   0  0  0  0  0  0  0  0  0  0  0  0
    6.3669   -2.8634   24.5785 C   0  0  0  0  0  0  0  0  0  0  0  0
    5.5254   -2.2779   24.2177 H   0  0  0  0  0  0  0  0  0  0  0  0
    6.2107   -3.6741   25.6974 C   0  0  0  0  0  0  0  0  0  0  0  0
    5.2469   -3.7236   26.1914 H   0  0  0  0  0  0  0  0  0  0  0  0
    7.2852   -4.4212   26.1874 C   0  0  0  0  0  0  0  0  0  0  0  0
    7.1642   -5.0531   27.0589 H   0  0  0  0  0  0  0  0  0  0  0  0
    8.5213   -4.3461   25.5394 C   0  0  0  0  0  0  0  0  0  0  0  0
    9.8636   -5.2759   26.1420 Cl  0  0  0  0  0  0  0  0  0  0  0  0
    8.6973   -3.5402   24.4187 C   0  0  0  0  0  0  0  0  0  0  0  0
    9.6633   -3.5145   23.9248 H   0  0  0  0  0  0  0  0  0  0  0  0
    8.9446   -1.4782   22.2335 N   0  0  0  0  0  0  0  0  0  0  0  0
    9.8715   -1.6049   22.5931 H   0  0  0  0  0  0  0  0  0  0  0  0
    8.7514   -0.6811   21.1358 C   0  0  0  0  0  0  0  0  0  0  0  0
    9.5944   -0.1086   20.4755 O   0  0  0  0  0  0  0  0  0  0  0  0
    5.4471    0.6449   20.1624 C   0  0  0  0  0  0  0  0  0  0  0  0
    5.0142    0.6302   21.1624 H   0  0  0  0  0  0  0  0  0  0  0  0
    4.8082    1.3112   19.1112 C   0  0  0  0  0  0  0  0  0  0  0  0
    3.8731    1.8438   19.2679 H   0  0  0  0  0  0  0  0  0  0  0  0
  1  2  1  0
  2  3  2  0
  3  4  1  0
  4  5  1  0
  4  6  2  0
  6  7  1  0
  7  8  1  0
  8  9  1  0
  8 10  2  0
 10 11  1  0
 11 12  2  0
 12 13  1  0
 12 14  1  0
 14 15  1  0
 14 16  2  0
 16 17  1  0
 16 18  1  0
 18 19  1  0
 18 20  2  0
 20 21  1  0
 10 22  1  0
 22 23  1  0
 22 24  1  0
 24 25  2  0
  6 26  1  0
 26 27  1  0
 26 28  2  0
 28 29  1  0
 28  2  1  0
 24  7  1  0
 20 11  1  0
M  END
>  <cnnaffinity>  (1) 
-5.52139

>  <filename>  (1) 
O=c1[nH]c(-c2cccc(Cl)c2)cn1-c1cccnc1

$$$$
