
     RDKit          3D

 34 36  0  0  0  0  0  0  0  0999 V2000
   10.4757   -0.8251   22.5187 H   0  0  0  0  0  0  0  0  0  0  0  0
    9.4443   -1.0549   22.2869 C   0  0  0  0  0  0  0  0  0  0  0  0
    8.8228   -2.0596   22.9178 C   0  0  0  0  0  0  0  0  0  0  0  0
    9.4460   -2.9308   23.7764 N   0  0  0  0  0  0  0  0  0  0  0  0
   10.4479   -2.8860   23.6904 H   0  0  0  0  0  0  0  0  0  0  0  0
    8.9836   -3.4938   24.9861 C   0  0  0  0  0  0  0  0  0  0  0  0
    9.6352   -4.6344   25.4819 C   0  0  0  0  0  0  0  0  0  0  0  0
   10.4995   -5.0279   24.9537 H   0  0  0  0  0  0  0  0  0  0  0  0
    9.1513   -5.2793   26.6232 C   0  0  0  0  0  0  0  0  0  0  0  0
    9.6285   -6.1946   26.9562 H   0  0  0  0  0  0  0  0  0  0  0  0
    8.0454   -4.7694   27.3135 C   0  0  0  0  0  0  0  0  0  0  0  0
    7.6636   -5.2849   28.1905 H   0  0  0  0  0  0  0  0  0  0  0  0
    7.4380   -3.5917   26.8651 C   0  0  0  0  0  0  0  0  0  0  0  0
    6.5770   -3.1782   27.3896 H   0  0  0  0  0  0  0  0  0  0  0  0
    7.9123   -2.9493   25.7145 C   0  0  0  0  0  0  0  0  0  0  0  0
    7.4776   -2.0185   25.3662 H   0  0  0  0  0  0  0  0  0  0  0  0
    7.5017   -2.3173   22.6782 N   0  0  0  0  0  0  0  0  0  0  0  0
    7.0500   -3.1275   23.0531 H   0  0  0  0  0  0  0  0  0  0  0  0
    6.7575   -1.7623   21.6680 C   0  0  0  0  0  0  0  0  0  0  0  0
    5.6618   -2.2322   21.4436 O   0  0  0  0  0  0  0  0  0  0  0  0
    7.3637   -0.7158   20.9757 N   0  0  0  0  0  0  0  0  0  0  0  0
    6.6652   -0.0284   19.9191 C   0  0  0  0  0  0  0  0  0  0  0  0
    7.1854    0.0467   18.6050 C   0  0  0  0  0  0  0  0  0  0  0  0
    8.1365   -0.4347   18.3720 H   0  0  0  0  0  0  0  0  0  0  0  0
    6.5753    0.6706   17.5898 N   0  0  0  0  0  0  0  0  0  0  0  0
    5.4111    1.2871   17.8514 C   0  0  0  0  0  0  0  0  0  0  0  0
    4.9380    1.7826   17.0074 H   0  0  0  0  0  0  0  0  0  0  0  0
    4.8203    1.2984   19.1178 C   0  0  0  0  0  0  0  0  0  0  0  0
    3.8900    1.8331   19.2634 H   0  0  0  0  0  0  0  0  0  0  0  0
    5.4492    0.6226   20.1718 C   0  0  0  0  0  0  0  0  0  0  0  0
    5.0256    0.5941   21.1736 H   0  0  0  0  0  0  0  0  0  0  0  0
    8.6572   -0.1319   21.4104 C   0  0  0  0  0  0  0  0  0  0  0  0
    9.2485    0.1154   20.5078 H   0  0  0  0  0  0  0  0  0  0  0  0
    8.4675    0.8393   21.9195 H   0  0  0  0  0  0  0  0  0  0  0  0
  1  2  1  0
  2  3  2  0
  3  4  1  0
  4  5  1  0
  4  6  1  0
  6  7  2  0
  7  8  1  0
  7  9  1  0
  9 10  1  0
  9 11  2  0
 11 12  1  0
 11 13  1  0
 13 14  1  0
 13 15  2  0
 15 16  1  0
  3 17  1  0
 17 18  1  0
 17 19  1  0
 19 20  2  0
 19 21  1  0
 21 22  1  0
 22 23  2  0
 23 24  1  0
 23 25  1  0
 25 26  2  0
 26 27  1  0
 26 28  1  0
 28 29  1  0
 28 30  2  0
 30 31  1  0
 21 32  1  0
 32 33  1  0
 32 34  1  0
 32  2  1  0
 15  6  1  0
 30 22  1  0
M  END
>  <cnnaffinity>  (1) 
-4.74232

>  <filename>  (1) 
O=C1NC(Nc2ccccc2)=CCN1c1cccnc1

$$$$
