
     RDKit          3D

 27 29  0  0  0  0  0  0  0  0999 V2000
    4.9195    1.7943   16.9789 H   0  0  0  0  0  0  0  0  0  0  0  0
    5.3939    1.2978   17.8224 C   0  0  0  0  0  0  0  0  0  0  0  0
    6.5583    0.6792   17.5659 N   0  0  0  0  0  0  0  0  0  0  0  0
    7.1637    0.0561   18.5842 C   0  0  0  0  0  0  0  0  0  0  0  0
    8.1219   -0.4064   18.3459 H   0  0  0  0  0  0  0  0  0  0  0  0
    6.6472    0.0057   19.8925 C   0  0  0  0  0  0  0  0  0  0  0  0
    7.3370   -0.6555   20.9981 C   0  0  0  0  0  0  0  0  0  0  0  0
    7.2421   -0.4355   22.3242 C   0  0  0  0  0  0  0  0  0  0  0  0
    6.6506    0.2923   22.8545 H   0  0  0  0  0  0  0  0  0  0  0  0
    8.0912   -1.3214   22.9863 N   0  0  0  0  0  0  0  0  0  0  0  0
    8.2626   -1.4204   24.3809 C   0  0  0  0  0  0  0  0  0  0  0  0
    8.2150   -0.2770   25.2091 C   0  0  0  0  0  0  0  0  0  0  0  0
    8.0575    0.7236   24.8225 H   0  0  0  0  0  0  0  0  0  0  0  0
    8.3960   -0.3470   26.5265 N   0  0  0  0  0  0  0  0  0  0  0  0
    8.6168   -1.5210   27.1177 N   0  0  0  0  0  0  0  0  0  0  0  0
    8.6610   -2.6344   26.3740 C   0  0  0  0  0  0  0  0  0  0  0  0
    8.8491   -3.5421   26.9294 H   0  0  0  0  0  0  0  0  0  0  0  0
    8.4899   -2.6466   24.9864 C   0  0  0  0  0  0  0  0  0  0  0  0
    8.5476   -3.5627   24.4067 H   0  0  0  0  0  0  0  0  0  0  0  0
    8.7303   -2.1294   22.0319 C   0  0  0  0  0  0  0  0  0  0  0  0
    9.5208   -3.0371   22.1745 O   0  0  0  0  0  0  0  0  0  0  0  0
    8.2608   -1.6706   20.8307 N   0  0  0  0  0  0  0  0  0  0  0  0
    8.5425   -2.1508   19.9985 H   0  0  0  0  0  0  0  0  0  0  0  0
    5.4287    0.6598   20.1367 C   0  0  0  0  0  0  0  0  0  0  0  0
    4.9932    0.6395   21.1381 H   0  0  0  0  0  0  0  0  0  0  0  0
    4.7962    1.3181   19.0868 C   0  0  0  0  0  0  0  0  0  0  0  0
    3.8658    1.8506   19.2406 H   0  0  0  0  0  0  0  0  0  0  0  0
  1  2  1  0
  2  3  2  0
  3  4  1  0
  4  5  1  0
  4  6  2  0
  6  7  1  0
  7  8  2  0
  8  9  1  0
  8 10  1  0
 10 11  1  0
 11 12  2  0
 12 13  1  0
 12 14  1  0
 14 15  2  0
 15 16  1  0
 16 17  1  0
 16 18  2  0
 18 19  1  0
 10 20  1  0
 20 21  2  0
 20 22  1  0
 22 23  1  0
  6 24  1  0
 24 25  1  0
 24 26  2  0
 26 27  1  0
 26  2  1  0
 22  7  1  0
 18 11  1  0
M  END
>  <cnnaffinity>  (1) 
-5.23789

>  <filename>  (1) 
O=c1[nH]c(-c2cccnc2)cn1-c1ccnnc1

$$$$
