
     RDKit          3D

 34 36  0  0  0  0  0  0  0  0999 V2000
    4.9419    1.7796   17.0057 H   0  0  0  0  0  0  0  0  0  0  0  0
    5.4141    1.2778   17.8525 C   0  0  0  0  0  0  0  0  0  0  0  0
    6.5733    0.6542   17.6068 N   0  0  0  0  0  0  0  0  0  0  0  0
    7.1817    0.0332   18.6270 C   0  0  0  0  0  0  0  0  0  0  0  0
    8.1255   -0.4329   18.3658 H   0  0  0  0  0  0  0  0  0  0  0  0
    6.6786   -0.0097   19.9577 C   0  0  0  0  0  0  0  0  0  0  0  0
    7.3508   -0.6833   21.0140 N   0  0  0  0  0  0  0  0  0  0  0  0
    7.3753   -0.2915   22.3543 C   0  0  0  0  0  0  0  0  0  0  0  0
    6.9416    0.7426   22.8142 O   0  0  0  0  0  0  0  0  0  0  0  0
    8.0147   -1.3075   23.0575 N   0  0  0  0  0  0  0  0  0  0  0  0
    8.5340   -1.0999   24.3653 C   0  0  0  0  0  0  0  0  0  0  0  0
    9.4491   -0.0597   24.5668 C   0  0  0  0  0  0  0  0  0  0  0  0
    9.6797    0.5831   23.7215 H   0  0  0  0  0  0  0  0  0  0  0  0
   10.0326    0.1429   25.8215 C   0  0  0  0  0  0  0  0  0  0  0  0
   10.7271    0.9623   25.9686 H   0  0  0  0  0  0  0  0  0  0  0  0
    9.7061   -0.6907   26.8931 C   0  0  0  0  0  0  0  0  0  0  0  0
   10.1470   -0.5268   27.8762 H   0  0  0  0  0  0  0  0  0  0  0  0
    8.7967   -1.7292   26.6987 C   0  0  0  0  0  0  0  0  0  0  0  0
    8.5427   -2.3778   27.5317 H   0  0  0  0  0  0  0  0  0  0  0  0
    8.1888   -1.9390   25.4448 C   0  0  0  0  0  0  0  0  0  0  0  0
    7.2184   -3.0924   25.2864 C   0  0  0  0  0  0  0  0  0  0  0  0
    6.6700   -3.4431   26.4708 F   0  0  0  0  0  0  0  0  0  0  0  0
    6.2026   -2.8300   24.4500 F   0  0  0  0  0  0  0  0  0  0  0  0
    7.8307   -4.2050   24.8151 F   0  0  0  0  0  0  0  0  0  0  0  0
    8.4874   -2.3920   22.2030 C   0  0  0  0  0  0  0  0  0  0  0  0
    9.5777   -2.5014   22.2575 H   0  0  0  0  0  0  0  0  0  0  0  0
    8.0540   -3.3584   22.4830 H   0  0  0  0  0  0  0  0  0  0  0  0
    8.0526   -1.9391   20.7988 C   0  0  0  0  0  0  0  0  0  0  0  0
    7.3679   -2.6532   20.3381 H   0  0  0  0  0  0  0  0  0  0  0  0
    8.9072   -1.8061   20.1221 H   0  0  0  0  0  0  0  0  0  0  0  0
    5.4591    0.6416   20.1925 C   0  0  0  0  0  0  0  0  0  0  0  0
    5.0429    0.6413   21.2005 H   0  0  0  0  0  0  0  0  0  0  0  0
    4.8277    1.2879   19.1223 C   0  0  0  0  0  0  0  0  0  0  0  0
    3.8995    1.8209   19.2640 H   0  0  0  0  0  0  0  0  0  0  0  0
  1  2  1  0
  2  3  2  0
  3  4  1  0
  4  5  1  0
  4  6  2  0
  6  7  1  0
  7  8  1  0
  8  9  2  0
  8 10  1  0
 10 11  1  0
 11 12  2  0
 12 13  1  0
 12 14  1  0
 14 15  1  0
 14 16  2  0
 16 17  1  0
 16 18  1  0
 18 19  1  0
 18 20  2  0
 20 21  1  0
 21 22  1  0
 21 23  1  0
 21 24  1  0
 10 25  1  0
 25 26  1  0
 25 27  1  0
 25 28  1  0
 28 29  1  0
 28 30  1  0
  6 31  1  0
 31 32  1  0
 31 33  2  0
 33 34  1  0
 33  2  1  0
 28  7  1  0
 20 11  1  0
M  END
>  <cnnaffinity>  (1) 
-5.42143

>  <filename>  (1) 
O=C1N(c2cccnc2)CCN1c1ccccc1C(F)(F)F

$$$$
