
     RDKit          3D

 30 32  0  0  0  0  0  0  0  0999 V2000
    5.0131    1.8300   16.9402 H   0  0  0  0  0  0  0  0  0  0  0  0
    5.4741    1.3269   17.7882 C   0  0  0  0  0  0  0  0  0  0  0  0
    6.6674    0.7583   17.5502 N   0  0  0  0  0  0  0  0  0  0  0  0
    7.2586    0.1332   18.5734 C   0  0  0  0  0  0  0  0  0  0  0  0
    8.2496   -0.2791   18.3905 H   0  0  0  0  0  0  0  0  0  0  0  0
    6.6686   -0.0142   19.8424 C   0  0  0  0  0  0  0  0  0  0  0  0
    7.3969   -0.7977   20.8798 C   0  0  0  0  0  0  0  0  0  0  0  0
    8.6687   -0.5018   20.9632 N   0  0  0  0  0  0  0  0  0  0  0  0
    9.4172   -1.0848   21.9403 N   0  0  0  0  0  0  0  0  0  0  0  0
   10.7984   -0.7226   21.9907 C   0  0  0  0  0  0  0  0  0  0  0  0
   11.1866    0.6225   22.0196 C   0  0  0  0  0  0  0  0  0  0  0  0
   10.4193    1.3886   21.9596 H   0  0  0  0  0  0  0  0  0  0  0  0
   12.5494    0.9321   22.1162 C   0  0  0  0  0  0  0  0  0  0  0  0
   12.8621    1.9751   22.1258 H   0  0  0  0  0  0  0  0  0  0  0  0
   13.5146   -0.0860   22.1032 C   0  0  0  0  0  0  0  0  0  0  0  0
   14.5755    0.1487   22.0878 H   0  0  0  0  0  0  0  0  0  0  0  0
   13.0932   -1.4116   21.9883 C   0  0  0  0  0  0  0  0  0  0  0  0
   14.2305   -2.6901   21.8183 Cl  0  0  0  0  0  0  0  0  0  0  0  0
   11.7445   -1.7470   21.9880 C   0  0  0  0  0  0  0  0  0  0  0  0
   11.4162   -2.7752   21.9274 H   0  0  0  0  0  0  0  0  0  0  0  0
    8.8646   -1.9038   22.8956 C   0  0  0  0  0  0  0  0  0  0  0  0
    9.5533   -2.2088   23.6845 H   0  0  0  0  0  0  0  0  0  0  0  0
    7.5743   -2.2774   22.8564 C   0  0  0  0  0  0  0  0  0  0  0  0
    7.1361   -2.9231   23.6037 H   0  0  0  0  0  0  0  0  0  0  0  0
    6.7291   -1.8640   21.7453 C   0  0  0  0  0  0  0  0  0  0  0  0
    5.6189   -2.3474   21.5512 O   0  0  0  0  0  0  0  0  0  0  0  0
    5.4433    0.6209   20.0876 C   0  0  0  0  0  0  0  0  0  0  0  0
    4.9948    0.5930   21.0834 H   0  0  0  0  0  0  0  0  0  0  0  0
    4.8378    1.3073   19.0337 C   0  0  0  0  0  0  0  0  0  0  0  0
    3.9006    1.8377   19.1656 H   0  0  0  0  0  0  0  0  0  0  0  0
  1  2  1  0
  2  3  2  0
  3  4  1  0
  4  5  1  0
  4  6  2  0
  6  7  1  0
  7  8  2  0
  8  9  1  0
  9 10  1  0
 10 11  2  0
 11 12  1  0
 11 13  1  0
 13 14  1  0
 13 15  2  0
 15 16  1  0
 15 17  1  0
 17 18  1  0
 17 19  2  0
 19 20  1  0
  9 21  1  0
 21 22  1  0
 21 23  2  0
 23 24  1  0
 23 25  1  0
 25 26  2  0
  6 27  1  0
 27 28  1  0
 27 29  2  0
 29 30  1  0
 29  2  1  0
 25  7  1  0
 19 10  1  0
M  END
>  <cnnaffinity>  (1) 
-5.7102

>  <filename>  (1) 
O=c1ccn(-c2cccc(Cl)c2)nc1-c1cccnc1

$$$$
