
     RDKit          3D

 19 20  0  0  0  0  0  0  0  0999 V2000
    4.9273    1.7862   17.0005 H   0  0  0  0  0  0  0  0  0  0  0  0
    5.4036    1.2910   17.8422 C   0  0  0  0  0  0  0  0  0  0  0  0
    6.5661    0.6749   17.5723 N   0  0  0  0  0  0  0  0  0  0  0  0
    7.1926    0.0699   18.5854 C   0  0  0  0  0  0  0  0  0  0  0  0
    8.1290   -0.4357   18.3442 H   0  0  0  0  0  0  0  0  0  0  0  0
    6.6965    0.0244   19.9049 C   0  0  0  0  0  0  0  0  0  0  0  0
    7.4170   -0.6659   20.9216 N   0  0  0  0  0  0  0  0  0  0  0  0
    8.8137   -0.6693   21.1094 C   0  0  0  0  0  0  0  0  0  0  0  0
    9.4842   -0.1394   20.4573 H   0  0  0  0  0  0  0  0  0  0  0  0
    9.0676   -1.4165   22.1974 C   0  0  0  0  0  0  0  0  0  0  0  0
   10.5390   -1.8644   22.9360 Cl  0  0  0  0  0  0  0  0  0  0  0  0
    7.8534   -1.8641   22.6974 N   0  0  0  0  0  0  0  0  0  0  0  0
    7.6464   -2.4995   23.4410 H   0  0  0  0  0  0  0  0  0  0  0  0
    6.8348   -1.5616   21.8295 C   0  0  0  0  0  0  0  0  0  0  0  0
    5.7331   -2.0700   21.8352 O   0  0  0  0  0  0  0  0  0  0  0  0
    5.4628    0.6434   20.1675 C   0  0  0  0  0  0  0  0  0  0  0  0
    5.0269    0.5985   21.1639 H   0  0  0  0  0  0  0  0  0  0  0  0
    4.8232    1.3013   19.1131 C   0  0  0  0  0  0  0  0  0  0  0  0
    3.8905    1.8275   19.2632 H   0  0  0  0  0  0  0  0  0  0  0  0
  1  2  1  0
  2  3  2  0
  3  4  1  0
  4  5  1  0
  4  6  2  0
  6  7  1  0
  7  8  1  0
  8  9  1  0
  8 10  2  0
 10 11  1  0
 10 12  1  0
 12 13  1  0
 12 14  1  0
 14 15  2  0
  6 16  1  0
 16 17  1  0
 16 18  2  0
 18 19  1  0
 18  2  1  0
 14  7  1  0
M  END
>  <cnnaffinity>  (1) 
-4.57574

>  <filename>  (1) 
O=c1[nH]c(Cl)cn1-c1cccnc1

$$$$
