
     RDKit          3D

 35 38  0  0  0  0  0  0  0  0999 V2000
    4.9728    1.8160   16.9625 H   0  0  0  0  0  0  0  0  0  0  0  0
    5.4568    1.3170   17.8030 C   0  0  0  0  0  0  0  0  0  0  0  0
    6.6468    0.7486   17.5525 N   0  0  0  0  0  0  0  0  0  0  0  0
    7.2504    0.1157   18.5621 C   0  0  0  0  0  0  0  0  0  0  0  0
    8.2294   -0.3021   18.3413 H   0  0  0  0  0  0  0  0  0  0  0  0
    6.6838   -0.0488   19.8417 C   0  0  0  0  0  0  0  0  0  0  0  0
    7.4219   -0.8361   20.8513 C   0  0  0  0  0  0  0  0  0  0  0  0
    8.7193   -0.5990   20.9506 N   0  0  0  0  0  0  0  0  0  0  0  0
    9.4212   -1.1302   22.0111 C   0  0  0  0  0  0  0  0  0  0  0  0
   10.8811   -0.8496   22.1011 C   0  0  0  0  0  0  0  0  0  0  0  0
   11.7462   -1.9216   22.0539 C   0  0  0  0  0  0  0  0  0  0  0  0
   11.3545   -2.9330   21.9671 H   0  0  0  0  0  0  0  0  0  0  0  0
   13.1016   -1.8323   22.1129 N   0  0  0  0  0  0  0  0  0  0  0  0
   13.6336   -0.6434   22.2941 C   0  0  0  0  0  0  0  0  0  0  0  0
   14.7257   -0.5935   22.3343 H   0  0  0  0  0  0  0  0  0  0  0  0
   12.8713    0.5585   22.3920 C   0  0  0  0  0  0  0  0  0  0  0  0
   13.4808    1.8351   22.5874 C   0  0  0  0  0  0  0  0  0  0  0  0
   14.5645    1.8840   22.7148 H   0  0  0  0  0  0  0  0  0  0  0  0
   12.7229    2.9795   22.5065 C   0  0  0  0  0  0  0  0  0  0  0  0
   13.1972    3.9537   22.6088 H   0  0  0  0  0  0  0  0  0  0  0  0
   11.3314    2.9024   22.2314 C   0  0  0  0  0  0  0  0  0  0  0  0
   10.7536    3.8157   22.1027 H   0  0  0  0  0  0  0  0  0  0  0  0
   10.7141    1.6772   22.0996 C   0  0  0  0  0  0  0  0  0  0  0  0
    9.6484    1.5998   21.9188 H   0  0  0  0  0  0  0  0  0  0  0  0
   11.4566    0.4622   22.2058 C   0  0  0  0  0  0  0  0  0  0  0  0
    8.8271   -1.9481   22.9407 C   0  0  0  0  0  0  0  0  0  0  0  0
    9.3757   -2.3631   23.7830 H   0  0  0  0  0  0  0  0  0  0  0  0
    7.4937   -2.2632   22.8073 N   0  0  0  0  0  0  0  0  0  0  0  0
    6.9878   -2.9053   23.4105 H   0  0  0  0  0  0  0  0  0  0  0  0
    6.7101   -1.8632   21.7231 C   0  0  0  0  0  0  0  0  0  0  0  0
    5.6117   -2.3752   21.5900 O   0  0  0  0  0  0  0  0  0  0  0  0
    5.4638    0.5991   20.1035 C   0  0  0  0  0  0  0  0  0  0  0  0
    5.0224    0.5902   21.1029 H   0  0  0  0  0  0  0  0  0  0  0  0
    4.8437    1.2894   19.0593 C   0  0  0  0  0  0  0  0  0  0  0  0
    3.9113    1.8232   19.2058 H   0  0  0  0  0  0  0  0  0  0  0  0
  1  2  1  0
  2  3  2  0
  3  4  1  0
  4  5  1  0
  4  6  2  0
  6  7  1  0
  7  8  2  0
  8  9  1  0
  9 10  1  0
 10 11  2  0
 11 12  1  0
 11 13  1  0
 13 14  2  0
 14 15  1  0
 14 16  1  0
 16 17  2  0
 17 18  1  0
 17 19  1  0
 19 20  1  0
 19 21  2  0
 21 22  1  0
 21 23  1  0
 23 24  1  0
 23 25  2  0
  9 26  2  0
 26 27  1  0
 26 28  1  0
 28 29  1  0
 28 30  1  0
 30 31  2  0
  6 32  1  0
 32 33  1  0
 32 34  2  0
 34 35  1  0
 34  2  1  0
 30  7  1  0
 25 10  1  0
 25 16  1  0
M  END
>  <cnnaffinity>  (1) 
-6.48067

>  <filename>  (1) 
O=c1[nH]cc(-c2cncc3ccccc23)nc1-c1cccnc1

$$$$
