
     RDKit          3D

 33 35  0  0  0  0  0  0  0  0999 V2000
    4.9101    1.7791   16.9971 H   0  0  0  0  0  0  0  0  0  0  0  0
    5.3990    1.2954   17.8365 C   0  0  0  0  0  0  0  0  0  0  0  0
    6.5639    0.6809   17.5683 N   0  0  0  0  0  0  0  0  0  0  0  0
    7.1724    0.0722   18.5924 C   0  0  0  0  0  0  0  0  0  0  0  0
    8.1159   -0.4289   18.3740 H   0  0  0  0  0  0  0  0  0  0  0  0
    6.6523    0.0119   19.8978 C   0  0  0  0  0  0  0  0  0  0  0  0
    7.3646   -0.7065   20.9716 C   0  0  0  0  0  0  0  0  0  0  0  0
    8.7773   -0.5510   21.1223 C   0  0  0  0  0  0  0  0  0  0  0  0
    9.3151    0.1172   20.4453 H   0  0  0  0  0  0  0  0  0  0  0  0
    9.4281   -1.1982   22.1199 C   0  0  0  0  0  0  0  0  0  0  0  0
   10.4920   -1.1218   22.2780 H   0  0  0  0  0  0  0  0  0  0  0  0
    8.7501   -2.0767   23.0594 C   0  0  0  0  0  0  0  0  0  0  0  0
    9.3322   -2.6857   23.9396 O   0  0  0  0  0  0  0  0  0  0  0  0
    7.3283   -2.1973   22.8581 N   0  0  0  0  0  0  0  0  0  0  0  0
    6.5623   -3.0199   23.7471 C   0  0  0  0  0  0  0  0  0  0  0  0
    5.7653   -4.0729   23.2633 C   0  0  0  0  0  0  0  0  0  0  0  0
    5.7331   -4.2778   22.1961 H   0  0  0  0  0  0  0  0  0  0  0  0
    5.0581   -4.8741   24.0549 N   0  0  0  0  0  0  0  0  0  0  0  0
    5.0951   -4.6602   25.3836 C   0  0  0  0  0  0  0  0  0  0  0  0
    4.2645   -5.5725   26.2990 C   0  0  0  0  0  0  0  0  0  0  0  0
    3.5876   -6.5178   25.6462 F   0  0  0  0  0  0  0  0  0  0  0  0
    5.0467   -6.1900   27.2088 F   0  0  0  0  0  0  0  0  0  0  0  0
    3.3697   -4.8552   27.0123 F   0  0  0  0  0  0  0  0  0  0  0  0
    5.8603   -3.6300   25.9624 C   0  0  0  0  0  0  0  0  0  0  0  0
    5.8747   -3.4801   27.0379 H   0  0  0  0  0  0  0  0  0  0  0  0
    6.6086   -2.8050   25.1288 C   0  0  0  0  0  0  0  0  0  0  0  0
    7.2191   -2.0045   25.5374 H   0  0  0  0  0  0  0  0  0  0  0  0
    6.6904   -1.5197   21.8382 C   0  0  0  0  0  0  0  0  0  0  0  0
    5.6161   -1.6741   21.7487 H   0  0  0  0  0  0  0  0  0  0  0  0
    5.4309    0.6508   20.1505 C   0  0  0  0  0  0  0  0  0  0  0  0
    5.0102    0.6353   21.1588 H   0  0  0  0  0  0  0  0  0  0  0  0
    4.8014    1.3181   19.1028 C   0  0  0  0  0  0  0  0  0  0  0  0
    3.8688    1.8477   19.2604 H   0  0  0  0  0  0  0  0  0  0  0  0
  1  2  1  0
  2  3  2  0
  3  4  1  0
  4  5  1  0
  4  6  2  0
  6  7  1  0
  7  8  1  0
  8  9  1  0
  8 10  2  0
 10 11  1  0
 10 12  1  0
 12 13  2  0
 12 14  1  0
 14 15  1  0
 15 16  2  0
 16 17  1  0
 16 18  1  0
 18 19  2  0
 19 20  1  0
 20 21  1  0
 20 22  1  0
 20 23  1  0
 19 24  1  0
 24 25  1  0
 24 26  2  0
 26 27  1  0
 14 28  1  0
 28 29  1  0
  6 30  1  0
 30 31  1  0
 30 32  2  0
 32 33  1  0
 32  2  1  0
 28  7  2  0
 26 15  1  0
M  END
>  <cnnaffinity>  (1) 
-5.66866

>  <filename>  (1) 
O=c1ccc(-c2cccnc2)cn1-c1ccc(C(F)(F)F)nc1

$$$$
