
     RDKit          3D

 37 40  0  0  0  0  0  0  0  0999 V2000
    4.9174    1.8012   16.9833 H   0  0  0  0  0  0  0  0  0  0  0  0
    5.3860    1.3004   17.8292 C   0  0  0  0  0  0  0  0  0  0  0  0
    6.5437    0.6718   17.5673 N   0  0  0  0  0  0  0  0  0  0  0  0
    7.1551    0.0482   18.5797 C   0  0  0  0  0  0  0  0  0  0  0  0
    8.1159   -0.4171   18.3671 H   0  0  0  0  0  0  0  0  0  0  0  0
    6.6388   -0.0083   19.8861 C   0  0  0  0  0  0  0  0  0  0  0  0
    7.3479   -0.6889   20.9395 N   0  0  0  0  0  0  0  0  0  0  0  0
    6.7315   -1.7391   21.5921 C   0  0  0  0  0  0  0  0  0  0  0  0
    5.7236   -1.9496   21.2525 H   0  0  0  0  0  0  0  0  0  0  0  0
    7.3331   -2.4562   22.5943 C   0  0  0  0  0  0  0  0  0  0  0  0
    6.6453   -3.5953   23.2731 C   0  0  0  0  0  0  0  0  0  0  0  0
    5.8679   -4.5117   22.5389 C   0  0  0  0  0  0  0  0  0  0  0  0
    5.8071   -4.3996   21.4634 H   0  0  0  0  0  0  0  0  0  0  0  0
    5.2122   -5.5748   23.1641 C   0  0  0  0  0  0  0  0  0  0  0  0
    4.6165   -6.2916   22.6073 H   0  0  0  0  0  0  0  0  0  0  0  0
    5.3136   -5.7414   24.5451 C   0  0  0  0  0  0  0  0  0  0  0  0
    6.1034   -4.8408   25.3007 C   0  0  0  0  0  0  0  0  0  0  0  0
    6.7480   -3.7853   24.6617 C   0  0  0  0  0  0  0  0  0  0  0  0
    7.3173   -3.0942   25.2724 H   0  0  0  0  0  0  0  0  0  0  0  0
    6.2357   -4.9669   26.6591 O   0  0  0  0  0  0  0  0  0  0  0  0
    5.8341   -6.2285   27.1991 C   0  0  0  0  0  0  0  0  0  0  0  0
    5.6820   -6.0520   28.2665 H   0  0  0  0  0  0  0  0  0  0  0  0
    6.6331   -6.9677   27.0601 H   0  0  0  0  0  0  0  0  0  0  0  0
    4.5415   -6.7234   26.5525 C   0  0  0  0  0  0  0  0  0  0  0  0
    4.3208   -7.7426   26.8757 H   0  0  0  0  0  0  0  0  0  0  0  0
    3.7091   -6.0603   26.8262 H   0  0  0  0  0  0  0  0  0  0  0  0
    4.6632   -6.7952   25.1291 O   0  0  0  0  0  0  0  0  0  0  0  0
    8.6617   -2.0670   22.9698 C   0  0  0  0  0  0  0  0  0  0  0  0
    9.1681   -2.6352   23.7498 H   0  0  0  0  0  0  0  0  0  0  0  0
    9.2929   -1.0306   22.3538 C   0  0  0  0  0  0  0  0  0  0  0  0
   10.2902   -0.7013   22.6011 H   0  0  0  0  0  0  0  0  0  0  0  0
    8.6726   -0.2595   21.2895 C   0  0  0  0  0  0  0  0  0  0  0  0
    9.2247    0.6683   20.7205 O   0  0  0  0  0  0  0  0  0  0  0  0
    5.4284    0.6368   20.1472 C   0  0  0  0  0  0  0  0  0  0  0  0
    5.0285    0.6253   21.1618 H   0  0  0  0  0  0  0  0  0  0  0  0
    4.7982    1.3159   19.0978 C   0  0  0  0  0  0  0  0  0  0  0  0
    3.8706    1.8509   19.2499 H   0  0  0  0  0  0  0  0  0  0  0  0
  1  2  1  0
  2  3  2  0
  3  4  1  0
  4  5  1  0
  4  6  2  0
  6  7  1  0
  7  8  1  0
  8  9  1  0
  8 10  2  0
 10 11  1  0
 11 12  2  0
 12 13  1  0
 12 14  1  0
 14 15  1  0
 14 16  2  0
 16 17  1  0
 17 18  2  0
 18 19  1  0
 17 20  1  0
 20 21  1  0
 21 22  1  0
 21 23  1  0
 21 24  1  0
 24 25  1  0
 24 26  1  0
 24 27  1  0
 10 28  1  0
 28 29  1  0
 28 30  2  0
 30 31  1  0
 30 32  1  0
 32 33  2  0
  6 34  1  0
 34 35  1  0
 34 36  2  0
 36 37  1  0
 36  2  1  0
 32  7  1  0
 18 11  1  0
 27 16  1  0
M  END
>  <cnnaffinity>  (1) 
-5.55606

>  <filename>  (1) 
O=c1ccc(-c2ccc3c(c2)OCCO3)cn1-c1cccnc1

$$$$
