
     RDKit          3D

 35 37  0  0  0  0  0  0  0  0999 V2000
   11.2604   -0.6335   20.7879 H   0  0  0  0  0  0  0  0  0  0  0  0
   11.6988   -0.8195   21.6274 O   0  0  0  0  0  0  0  0  0  0  0  0
   10.7684   -0.4354   22.6301 C   0  0  1  0  0  0  0  0  0  0  0  0
   11.0956   -0.9713   23.5318 H   0  0  0  0  0  0  0  0  0  0  0  0
   10.8138    1.0656   22.9336 C   0  0  0  0  0  0  0  0  0  0  0  0
   10.3343    1.5143   24.1764 C   0  0  0  0  0  0  0  0  0  0  0  0
    9.9966    0.7889   24.9137 H   0  0  0  0  0  0  0  0  0  0  0  0
   10.2795    2.8779   24.4821 C   0  0  0  0  0  0  0  0  0  0  0  0
    9.8412    3.1918   25.4271 H   0  0  0  0  0  0  0  0  0  0  0  0
   10.7575    3.8204   23.5637 C   0  0  0  0  0  0  0  0  0  0  0  0
   10.7488    4.8818   23.8036 H   0  0  0  0  0  0  0  0  0  0  0  0
   11.2445    3.3868   22.3249 C   0  0  0  0  0  0  0  0  0  0  0  0
   11.6287    4.1039   21.6019 H   0  0  0  0  0  0  0  0  0  0  0  0
   11.2500    2.0252   22.0033 C   0  0  0  0  0  0  0  0  0  0  0  0
   11.6134    1.7105   21.0266 H   0  0  0  0  0  0  0  0  0  0  0  0
    9.3561   -0.8993   22.2705 C   0  0  0  0  0  0  0  0  0  0  0  0
    8.7474   -1.9868   22.9770 C   0  0  0  0  0  0  0  0  0  0  0  0
    9.3138   -2.4724   23.7742 H   0  0  0  0  0  0  0  0  0  0  0  0
    7.4906   -2.3973   22.6649 C   0  0  0  0  0  0  0  0  0  0  0  0
    6.9725   -3.2109   23.1489 H   0  0  0  0  0  0  0  0  0  0  0  0
    6.7079   -1.7763   21.6084 C   0  0  0  0  0  0  0  0  0  0  0  0
    5.5999   -2.1737   21.2832 O   0  0  0  0  0  0  0  0  0  0  0  0
    7.3567   -0.6737   20.9444 N   0  0  0  0  0  0  0  0  0  0  0  0
    6.6759    0.0362   19.8876 C   0  0  0  0  0  0  0  0  0  0  0  0
    7.1881    0.0889   18.5776 C   0  0  0  0  0  0  0  0  0  0  0  0
    8.1223   -0.4169   18.3358 H   0  0  0  0  0  0  0  0  0  0  0  0
    6.5631    0.6909   17.5569 N   0  0  0  0  0  0  0  0  0  0  0  0
    5.3977    1.3063   17.8168 C   0  0  0  0  0  0  0  0  0  0  0  0
    4.9222    1.8048   16.9722 H   0  0  0  0  0  0  0  0  0  0  0  0
    4.8143    1.3241   19.0875 C   0  0  0  0  0  0  0  0  0  0  0  0
    3.8748    1.8388   19.2376 H   0  0  0  0  0  0  0  0  0  0  0  0
    5.4566    0.6688   20.1426 C   0  0  0  0  0  0  0  0  0  0  0  0
    5.0366    0.6003   21.1445 H   0  0  0  0  0  0  0  0  0  0  0  0
    8.6310   -0.2842   21.2892 C   0  0  0  0  0  0  0  0  0  0  0  0
    8.9912    0.5773   20.7305 H   0  0  0  0  0  0  0  0  0  0  0  0
  1  2  1  0
  2  3  1  0
  3  4  1  1
  3  5  1  0
  5  6  2  0
  6  7  1  0
  6  8  1  0
  8  9  1  0
  8 10  2  0
 10 11  1  0
 10 12  1  0
 12 13  1  0
 12 14  2  0
 14 15  1  0
  3 16  1  0
 16 17  1  0
 17 18  1  0
 17 19  2  0
 19 20  1  0
 19 21  1  0
 21 22  2  0
 21 23  1  0
 23 24  1  0
 24 25  2  0
 25 26  1  0
 25 27  1  0
 27 28  2  0
 28 29  1  0
 28 30  1  0
 30 31  1  0
 30 32  2  0
 32 33  1  0
 23 34  1  0
 34 35  1  0
 14  5  1  0
 34 16  2  0
 32 24  1  0
M  END
>  <cnnaffinity>  (1) 
-5.11423

>  <filename>  (1) 
O=c1ccc([C@@H](O)c2ccccc2)cn1-c1cccnc1

$$$$
