
     RDKit          3D

 35 37  0  0  0  0  0  0  0  0999 V2000
    4.9538    1.8506   16.9612 H   0  0  0  0  0  0  0  0  0  0  0  0
    5.4701    1.3189   17.7594 C   0  0  0  0  0  0  0  0  0  0  0  0
    6.6507    0.7626   17.4409 N   0  0  0  0  0  0  0  0  0  0  0  0
    7.3154    0.1037   18.4030 C   0  0  0  0  0  0  0  0  0  0  0  0
    8.2898   -0.3053   18.1430 H   0  0  0  0  0  0  0  0  0  0  0  0
    6.8129   -0.0695   19.7142 C   0  0  0  0  0  0  0  0  0  0  0  0
    7.5006   -0.8287   20.7366 N   0  0  0  0  0  0  0  0  0  0  0  0
    6.8582   -1.7992   21.5318 C   0  0  0  0  0  0  0  0  0  0  0  0
    5.8842   -2.4156   21.2024 O   0  0  0  0  0  0  0  0  0  0  0  0
    7.6221   -1.8887   22.7254 N   0  0  0  0  0  0  0  0  0  0  0  0
    7.2387   -2.3484   24.0521 N   0  0  0  0  0  0  0  0  0  0  0  0
    7.9514   -2.9352   24.4882 H   0  0  0  0  0  0  0  0  0  0  0  0
    6.8871   -1.5381   25.5621 S   0  0  0  0  0  0  0  0  0  0  0  0
    7.7649   -2.3061   26.4272 O   0  0  0  0  0  0  0  0  0  0  0  0
    5.4585   -1.4614   25.7543 O   0  0  0  0  0  0  0  0  0  0  0  0
    7.5459    0.0925   25.3717 C   0  0  0  0  0  0  0  0  0  0  0  0
    8.7564    0.4181   25.9996 C   0  0  0  0  0  0  0  0  0  0  0  0
    9.2571   -0.2840   26.6644 H   0  0  0  0  0  0  0  0  0  0  0  0
    9.3311    1.6672   25.7669 C   0  0  0  0  0  0  0  0  0  0  0  0
   10.2830    1.8992   26.2355 H   0  0  0  0  0  0  0  0  0  0  0  0
    8.6873    2.6144   24.9586 C   0  0  0  0  0  0  0  0  0  0  0  0
    9.1325    3.5982   24.8054 H   0  0  0  0  0  0  0  0  0  0  0  0
    7.4495    2.2956   24.3812 C   0  0  0  0  0  0  0  0  0  0  0  0
    6.9281    3.0426   23.7837 H   0  0  0  0  0  0  0  0  0  0  0  0
    6.8687    1.0392   24.5865 C   0  0  0  0  0  0  0  0  0  0  0  0
    5.9009    0.8221   24.1328 H   0  0  0  0  0  0  0  0  0  0  0  0
    8.9027   -1.2424   22.5705 C   0  0  0  0  0  0  0  0  0  0  0  0
    9.1128   -0.5423   23.3831 H   0  0  0  0  0  0  0  0  0  0  0  0
    9.7253   -1.9587   22.4738 H   0  0  0  0  0  0  0  0  0  0  0  0
    8.7239   -0.4745   21.2891 C   0  0  0  0  0  0  0  0  0  0  0  0
    9.5064    0.3106   20.8163 O   0  0  0  0  0  0  0  0  0  0  0  0
    5.5917    0.5295   20.0276 C   0  0  0  0  0  0  0  0  0  0  0  0
    5.1959    0.4385   21.0364 H   0  0  0  0  0  0  0  0  0  0  0  0
    4.9071    1.2383   19.0358 C   0  0  0  0  0  0  0  0  0  0  0  0
    3.9624    1.7269   19.2438 H   0  0  0  0  0  0  0  0  0  0  0  0
  1  2  1  0
  2  3  2  0
  3  4  1  0
  4  5  1  0
  4  6  2  0
  6  7  1  0
  7  8  1  0
  8  9  2  0
  8 10  1  0
 10 11  1  0
 11 12  1  0
 11 13  1  0
 13 14  2  0
 13 15  2  0
 13 16  1  0
 16 17  2  0
 17 18  1  0
 17 19  1  0
 19 20  1  0
 19 21  2  0
 21 22  1  0
 21 23  1  0
 23 24  1  0
 23 25  2  0
 25 26  1  0
 10 27  1  0
 27 28  1  0
 27 29  1  0
 27 30  1  0
 30 31  2  0
  6 32  1  0
 32 33  1  0
 32 34  2  0
 34 35  1  0
 34  2  1  0
 30  7  1  0
 25 16  1  0
M  END
>  <cnnaffinity>  (1) 
-5.00737

>  <filename>  (1) 
O=C1CN(NS(=O)(=O)c2ccccc2)C(=O)N1c1cccnc1

$$$$
