
     RDKit          3D

 34 37  0  0  0  0  0  0  0  0999 V2000
    4.9146    1.7914   16.9850 H   0  0  0  0  0  0  0  0  0  0  0  0
    5.3946    1.3008   17.8276 C   0  0  0  0  0  0  0  0  0  0  0  0
    6.5588    0.6864   17.5641 N   0  0  0  0  0  0  0  0  0  0  0  0
    7.1798    0.0779   18.5805 C   0  0  0  0  0  0  0  0  0  0  0  0
    8.1211   -0.4246   18.3549 H   0  0  0  0  0  0  0  0  0  0  0  0
    6.6573    0.0246   19.8862 C   0  0  0  0  0  0  0  0  0  0  0  0
    7.3509   -0.6757   20.9360 N   0  0  0  0  0  0  0  0  0  0  0  0
    8.6392   -0.2904   21.2665 C   0  0  0  0  0  0  0  0  0  0  0  0
    9.0397    0.5459   20.6952 H   0  0  0  0  0  0  0  0  0  0  0  0
    9.3556   -0.8985   22.2480 C   0  0  0  0  0  0  0  0  0  0  0  0
   10.7110   -0.4783   22.5780 C   0  0  0  0  0  0  0  0  0  0  0  0
   11.7871   -1.3022   22.5732 C   0  0  0  0  0  0  0  0  0  0  0  0
   11.7448   -2.3777   22.4501 H   0  0  0  0  0  0  0  0  0  0  0  0
   13.2848   -0.4888   22.8716 S   0  0  0  0  0  0  0  0  0  0  0  0
   12.4585    1.0219   23.1097 C   0  0  0  0  0  0  0  0  0  0  0  0
   13.0272    2.2594   23.4397 C   0  0  0  0  0  0  0  0  0  0  0  0
   14.0918    2.3290   23.6019 H   0  0  0  0  0  0  0  0  0  0  0  0
   12.2031    3.3740   23.5249 C   0  0  0  0  0  0  0  0  0  0  0  0
   12.6385    4.3403   23.7578 H   0  0  0  0  0  0  0  0  0  0  0  0
   10.8141    3.2640   23.3033 C   0  0  0  0  0  0  0  0  0  0  0  0
   10.1818    4.1458   23.3656 H   0  0  0  0  0  0  0  0  0  0  0  0
   10.2477    2.0346   23.0009 C   0  0  0  0  0  0  0  0  0  0  0  0
    9.1749    1.9363   22.8476 H   0  0  0  0  0  0  0  0  0  0  0  0
   11.0741    0.8926   22.8909 C   0  0  0  0  0  0  0  0  0  0  0  0
    8.7409   -2.0149   22.9907 C   0  0  0  0  0  0  0  0  0  0  0  0
    9.1936   -2.6755   23.9010 O   0  0  0  0  0  0  0  0  0  0  0  0
    7.4700   -2.3161   22.5783 N   0  0  0  0  0  0  0  0  0  0  0  0
    7.0247   -3.0674   23.0623 H   0  0  0  0  0  0  0  0  0  0  0  0
    6.7215   -1.7503   21.6069 C   0  0  0  0  0  0  0  0  0  0  0  0
    5.6252   -2.1945   21.3628 O   0  0  0  0  0  0  0  0  0  0  0  0
    5.4404    0.6563   20.1515 C   0  0  0  0  0  0  0  0  0  0  0  0
    5.0194    0.6113   21.1566 H   0  0  0  0  0  0  0  0  0  0  0  0
    4.8068    1.3188   19.0974 C   0  0  0  0  0  0  0  0  0  0  0  0
    3.8737    1.8439   19.2512 H   0  0  0  0  0  0  0  0  0  0  0  0
  1  2  1  0
  2  3  2  0
  3  4  1  0
  4  5  1  0
  4  6  2  0
  6  7  1  0
  7  8  1  0
  8  9  1  0
  8 10  2  0
 10 11  1  0
 11 12  2  0
 12 13  1  0
 12 14  1  0
 14 15  1  0
 15 16  2  0
 16 17  1  0
 16 18  1  0
 18 19  1  0
 18 20  2  0
 20 21  1  0
 20 22  1  0
 22 23  1  0
 22 24  2  0
 10 25  1  0
 25 26  2  0
 25 27  1  0
 27 28  1  0
 27 29  1  0
 29 30  2  0
  6 31  1  0
 31 32  1  0
 31 33  2  0
 33 34  1  0
 33  2  1  0
 29  7  1  0
 24 11  1  0
 24 15  1  0
M  END
>  <cnnaffinity>  (1) 
-5.80868

>  <filename>  (1) 
O=c1[nH]c(=O)n(-c2cccnc2)cc1-c1csc2ccccc12

$$$$
