
     RDKit          3D

 30 32  0  0  0  0  0  0  0  0999 V2000
    4.9481    1.8588   16.9562 H   0  0  0  0  0  0  0  0  0  0  0  0
    5.4136    1.3383   17.7914 C   0  0  0  0  0  0  0  0  0  0  0  0
    6.5761    0.7187   17.5286 N   0  0  0  0  0  0  0  0  0  0  0  0
    7.1711    0.0684   18.5374 C   0  0  0  0  0  0  0  0  0  0  0  0
    8.1173   -0.4211   18.3095 H   0  0  0  0  0  0  0  0  0  0  0  0
    6.6321   -0.0239   19.8382 C   0  0  0  0  0  0  0  0  0  0  0  0
    7.3219   -0.7228   20.8991 N   0  0  0  0  0  0  0  0  0  0  0  0
    8.5781   -0.2719   21.2513 C   0  0  0  0  0  0  0  0  0  0  0  0
    8.9434    0.5715   20.6751 H   0  0  0  0  0  0  0  0  0  0  0  0
    9.3405   -0.8403   22.2326 C   0  0  0  0  0  0  0  0  0  0  0  0
   10.7193   -0.3209   22.4754 C   0  0  0  0  0  0  0  0  0  0  0  0
   10.9514    1.0482   22.6973 C   0  0  0  0  0  0  0  0  0  0  0  0
   10.1294    1.7609   22.7302 H   0  0  0  0  0  0  0  0  0  0  0  0
   12.2659    1.4821   22.8831 C   0  0  0  0  0  0  0  0  0  0  0  0
   12.4643    2.5355   23.0724 H   0  0  0  0  0  0  0  0  0  0  0  0
   13.3341    0.6732   22.8430 N   0  0  0  0  0  0  0  0  0  0  0  0
   13.1094   -0.6302   22.6302 C   0  0  0  0  0  0  0  0  0  0  0  0
   13.9893   -1.2768   22.6481 H   0  0  0  0  0  0  0  0  0  0  0  0
   11.8354   -1.1716   22.4474 C   0  0  0  0  0  0  0  0  0  0  0  0
   11.7273   -2.2436   22.3132 H   0  0  0  0  0  0  0  0  0  0  0  0
    8.7667   -1.9361   22.9618 C   0  0  0  0  0  0  0  0  0  0  0  0
    9.3401   -2.4070   23.7628 H   0  0  0  0  0  0  0  0  0  0  0  0
    7.5115   -2.3813   22.6705 C   0  0  0  0  0  0  0  0  0  0  0  0
    7.0303   -3.2045   23.1808 H   0  0  0  0  0  0  0  0  0  0  0  0
    6.6960   -1.8199   21.5975 C   0  0  0  0  0  0  0  0  0  0  0  0
    5.6031   -2.2597   21.2893 O   0  0  0  0  0  0  0  0  0  0  0  0
    5.4247    0.6309   20.0988 C   0  0  0  0  0  0  0  0  0  0  0  0
    5.0030    0.6017   21.1025 H   0  0  0  0  0  0  0  0  0  0  0  0
    4.8074    1.3251   19.0521 C   0  0  0  0  0  0  0  0  0  0  0  0
    3.8769    1.8598   19.2035 H   0  0  0  0  0  0  0  0  0  0  0  0
  1  2  1  0
  2  3  2  0
  3  4  1  0
  4  5  1  0
  4  6  2  0
  6  7  1  0
  7  8  1  0
  8  9  1  0
  8 10  2  0
 10 11  1  0
 11 12  2  0
 12 13  1  0
 12 14  1  0
 14 15  1  0
 14 16  2  0
 16 17  1  0
 17 18  1  0
 17 19  2  0
 19 20  1  0
 10 21  1  0
 21 22  1  0
 21 23  2  0
 23 24  1  0
 23 25  1  0
 25 26  2  0
  6 27  1  0
 27 28  1  0
 27 29  2  0
 29 30  1  0
 29  2  1  0
 25  7  1  0
 19 11  1  0
M  END
>  <cnnaffinity>  (1) 
-4.87454

>  <filename>  (1) 
O=c1ccc(-c2ccncc2)cn1-c1cccnc1

$$$$
