
     RDKit          3D

 35 38  0  0  0  0  0  0  0  0999 V2000
    4.9201    1.8268   16.9819 H   0  0  0  0  0  0  0  0  0  0  0  0
    5.4142    1.3112   17.8020 C   0  0  0  0  0  0  0  0  0  0  0  0
    6.5807    0.7167   17.5006 N   0  0  0  0  0  0  0  0  0  0  0  0
    7.2264    0.0811   18.4856 C   0  0  0  0  0  0  0  0  0  0  0  0
    8.1803   -0.3791   18.2355 H   0  0  0  0  0  0  0  0  0  0  0  0
    6.7296   -0.0216   19.8063 C   0  0  0  0  0  0  0  0  0  0  0  0
    7.4571   -0.7169   20.8470 N   0  0  0  0  0  0  0  0  0  0  0  0
    8.8052   -0.5142   21.1249 C   0  0  0  0  0  0  0  0  0  0  0  0
    9.5360    0.2059   20.4939 O   0  0  0  0  0  0  0  0  0  0  0  0
    9.2149   -1.3783   22.2920 C   0  0  0  0  0  0  0  0  0  0  0  0
    9.7944   -0.7868   23.0053 H   0  0  0  0  0  0  0  0  0  0  0  0
    9.8901   -2.1376   21.8950 H   0  0  0  0  0  0  0  0  0  0  0  0
    7.9113   -1.9769   22.8283 C   0  0  1  0  0  0  0  0  0  0  0  0
    7.9699   -3.0672   22.8968 H   0  0  0  0  0  0  0  0  0  0  0  0
    7.4549   -1.4346   24.1732 C   0  0  0  0  0  0  0  0  0  0  0  0
    7.3638   -0.0322   24.3839 C   0  0  0  0  0  0  0  0  0  0  0  0
    7.6305    0.6484   23.5790 H   0  0  0  0  0  0  0  0  0  0  0  0
    6.9302    0.4981   25.5945 C   0  0  0  0  0  0  0  0  0  0  0  0
    6.9078    1.5704   25.7623 H   0  0  0  0  0  0  0  0  0  0  0  0
    6.5312   -0.3698   26.6287 C   0  0  0  0  0  0  0  0  0  0  0  0
    5.9852   -0.1984   27.9503 C   0  0  0  0  0  0  0  0  0  0  0  0
    5.7728    0.7368   28.4510 H   0  0  0  0  0  0  0  0  0  0  0  0
    5.7774   -1.4423   28.4595 C   0  0  0  0  0  0  0  0  0  0  0  0
    5.3944   -1.7204   29.4342 H   0  0  0  0  0  0  0  0  0  0  0  0
    6.1631   -2.3928   27.5324 N   0  0  0  0  0  0  0  0  0  0  0  0
    6.1342   -3.3934   27.6313 H   0  0  0  0  0  0  0  0  0  0  0  0
    6.6304   -1.7646   26.4071 C   0  0  0  0  0  0  0  0  0  0  0  0
    7.1127   -2.3064   25.2054 C   0  0  0  0  0  0  0  0  0  0  0  0
    7.2318   -3.3819   25.1147 H   0  0  0  0  0  0  0  0  0  0  0  0
    6.9054   -1.6781   21.7029 C   0  0  0  0  0  0  0  0  0  0  0  0
    5.8461   -2.2198   21.5317 O   0  0  0  0  0  0  0  0  0  0  0  0
    5.5076    0.5924   20.1011 C   0  0  0  0  0  0  0  0  0  0  0  0
    5.1011    0.5300   21.1098 H   0  0  0  0  0  0  0  0  0  0  0  0
    4.8435    1.2817   19.0779 C   0  0  0  0  0  0  0  0  0  0  0  0
    3.9058    1.7988   19.2534 H   0  0  0  0  0  0  0  0  0  0  0  0
  1  2  1  0
  2  3  2  0
  3  4  1  0
  4  5  1  0
  4  6  2  0
  6  7  1  0
  7  8  1  0
  8  9  2  0
  8 10  1  0
 10 11  1  0
 10 12  1  0
 10 13  1  0
 13 14  1  1
 13 15  1  0
 15 16  2  0
 16 17  1  0
 16 18  1  0
 18 19  1  0
 18 20  2  0
 20 21  1  0
 21 22  1  0
 21 23  2  0
 23 24  1  0
 23 25  1  0
 25 26  1  0
 25 27  1  0
 27 28  2  0
 28 29  1  0
 13 30  1  0
 30 31  2  0
  6 32  1  0
 32 33  1  0
 32 34  2  0
 34 35  1  0
 34  2  1  0
 30  7  1  0
 28 15  1  0
 27 20  1  0
M  END
>  <cnnaffinity>  (1) 
-4.987

>  <filename>  (1) 
O=C1C[C@@H](c2ccc3cc[nH]c3c2)C(=O)N1c1cccnc1

$$$$
