
     RDKit          3D

 31 33  0  0  0  0  0  0  0  0999 V2000
    5.0401    1.8102   16.9102 H   0  0  0  0  0  0  0  0  0  0  0  0
    5.4695    1.2936   17.7672 C   0  0  0  0  0  0  0  0  0  0  0  0
    6.6168    0.6337   17.5436 N   0  0  0  0  0  0  0  0  0  0  0  0
    7.1835    0.0175   18.5912 C   0  0  0  0  0  0  0  0  0  0  0  0
    8.1157   -0.5098   18.3835 H   0  0  0  0  0  0  0  0  0  0  0  0
    6.6495    0.0025   19.8967 C   0  0  0  0  0  0  0  0  0  0  0  0
    7.3746   -0.6542   21.0282 C   0  0  0  0  0  0  0  0  0  0  0  0
    8.7534   -0.3805   21.2733 C   0  0  0  0  0  0  0  0  0  0  0  0
    9.2854    0.2732   20.5851 H   0  0  0  0  0  0  0  0  0  0  0  0
    9.4285   -0.8910   22.3609 C   0  0  0  0  0  0  0  0  0  0  0  0
   10.8613   -0.6058   22.5972 C   0  0  0  0  0  0  0  0  0  0  0  0
   11.7713   -1.0645   21.6320 C   0  0  0  0  0  0  0  0  0  0  0  0
   11.4023   -1.5899   20.7646 H   0  0  0  0  0  0  0  0  0  0  0  0
   13.1349   -0.8774   21.8224 C   0  0  0  0  0  0  0  0  0  0  0  0
   14.0072   -1.3541   20.9173 F   0  0  0  0  0  0  0  0  0  0  0  0
   13.6408   -0.2406   22.9454 C   0  0  0  0  0  0  0  0  0  0  0  0
   14.7105   -0.1556   23.0928 H   0  0  0  0  0  0  0  0  0  0  0  0
   12.7212    0.1937   23.8954 C   0  0  0  0  0  0  0  0  0  0  0  0
   13.1944    0.7562   25.0130 F   0  0  0  0  0  0  0  0  0  0  0  0
   11.3411    0.0422   23.7488 C   0  0  0  0  0  0  0  0  0  0  0  0
   10.6769    0.4294   24.5172 H   0  0  0  0  0  0  0  0  0  0  0  0
    8.7632   -1.8705   23.2285 C   0  0  0  0  0  0  0  0  0  0  0  0
    9.1906   -2.5132   24.1704 O   0  0  0  0  0  0  0  0  0  0  0  0
    7.4283   -2.1104   22.8889 N   0  0  0  0  0  0  0  0  0  0  0  0
    7.0928   -2.8288   23.5144 H   0  0  0  0  0  0  0  0  0  0  0  0
    6.7406   -1.5388   21.8620 C   0  0  0  0  0  0  0  0  0  0  0  0
    5.6968   -1.8092   21.7291 H   0  0  0  0  0  0  0  0  0  0  0  0
    5.4273    0.6662   20.0905 C   0  0  0  0  0  0  0  0  0  0  0  0
    4.9666    0.6880   21.0784 H   0  0  0  0  0  0  0  0  0  0  0  0
    4.8350    1.3290   19.0129 C   0  0  0  0  0  0  0  0  0  0  0  0
    3.9113    1.8827   19.1289 H   0  0  0  0  0  0  0  0  0  0  0  0
  1  2  1  0
  2  3  2  0
  3  4  1  0
  4  5  1  0
  4  6  2  0
  6  7  1  0
  7  8  1  0
  8  9  1  0
  8 10  2  0
 10 11  1  0
 11 12  2  0
 12 13  1  0
 12 14  1  0
 14 15  1  0
 14 16  2  0
 16 17  1  0
 16 18  1  0
 18 19  1  0
 18 20  2  0
 20 21  1  0
 10 22  1  0
 22 23  2  0
 22 24  1  0
 24 25  1  0
 24 26  1  0
 26 27  1  0
  6 28  1  0
 28 29  1  0
 28 30  2  0
 30 31  1  0
 30  2  1  0
 26  7  2  0
 20 11  1  0
M  END
>  <cnnaffinity>  (1) 
-5.65886

>  <filename>  (1) 
O=c1[nH]cc(-c2cccnc2)cc1-c1cc(F)cc(F)c1

$$$$
