
     RDKit          3D

 33 36  0  0  0  0  0  0  0  0999 V2000
    4.9496    1.8022   16.7801 H   0  0  0  0  0  0  0  0  0  0  0  0
    5.4453    1.3413   17.6312 C   0  0  0  0  0  0  0  0  0  0  0  0
    6.6132    0.7318   17.3811 N   0  0  0  0  0  0  0  0  0  0  0  0
    7.2554    0.1621   18.4079 C   0  0  0  0  0  0  0  0  0  0  0  0
    8.2070   -0.2993   18.1508 H   0  0  0  0  0  0  0  0  0  0  0  0
    6.7505    0.1366   19.7170 C   0  0  0  0  0  0  0  0  0  0  0  0
    7.4790   -0.5731   20.7970 C   0  0  0  0  0  0  0  0  0  0  0  0
    8.7819   -0.5880   20.7405 N   0  0  0  0  0  0  0  0  0  0  0  0
    9.4593   -1.1736   21.7763 C   0  0  0  0  0  0  0  0  0  0  0  0
   10.6633   -1.2900   21.8628 O   0  0  0  0  0  0  0  0  0  0  0  0
    8.7292   -1.6965   22.8400 N   0  0  0  0  0  0  0  0  0  0  0  0
    9.3502   -2.1175   23.5038 H   0  0  0  0  0  0  0  0  0  0  0  0
    7.3781   -1.7963   22.8691 C   0  0  0  0  0  0  0  0  0  0  0  0
    6.7305   -2.4809   23.9960 C   0  0  0  0  0  0  0  0  0  0  0  0
    5.7544   -1.9390   24.7709 C   0  0  0  0  0  0  0  0  0  0  0  0
    5.3655   -0.9272   24.7145 H   0  0  0  0  0  0  0  0  0  0  0  0
    5.2412   -2.9485   26.0740 S   0  0  0  0  0  0  0  0  0  0  0  0
    6.4194   -4.1661   25.6443 C   0  0  0  0  0  0  0  0  0  0  0  0
    6.7682   -5.3355   26.3514 C   0  0  0  0  0  0  0  0  0  0  0  0
    6.2617   -5.6276   27.2664 H   0  0  0  0  0  0  0  0  0  0  0  0
    7.8287   -6.1041   25.8848 C   0  0  0  0  0  0  0  0  0  0  0  0
    8.1423   -6.9618   26.4646 H   0  0  0  0  0  0  0  0  0  0  0  0
    8.5118   -5.7691   24.6966 C   0  0  0  0  0  0  0  0  0  0  0  0
    9.3559   -6.3648   24.3617 H   0  0  0  0  0  0  0  0  0  0  0  0
    8.1346   -4.6488   23.9740 C   0  0  0  0  0  0  0  0  0  0  0  0
    8.6043   -4.4189   23.0209 H   0  0  0  0  0  0  0  0  0  0  0  0
    7.1223   -3.8002   24.4765 C   0  0  0  0  0  0  0  0  0  0  0  0
    6.7176   -1.2084   21.8258 C   0  0  0  0  0  0  0  0  0  0  0  0
    5.6467   -1.2832   21.7513 H   0  0  0  0  0  0  0  0  0  0  0  0
    5.5361    0.8000   19.9621 C   0  0  0  0  0  0  0  0  0  0  0  0
    5.1262    0.8597   20.9724 H   0  0  0  0  0  0  0  0  0  0  0  0
    4.8699    1.4088   18.9035 C   0  0  0  0  0  0  0  0  0  0  0  0
    3.9281    1.9305   19.0503 H   0  0  0  0  0  0  0  0  0  0  0  0
  1  2  1  0
  2  3  2  0
  3  4  1  0
  4  5  1  0
  4  6  2  0
  6  7  1  0
  7  8  2  0
  8  9  1  0
  9 10  2  0
  9 11  1  0
 11 12  1  0
 11 13  1  0
 13 14  1  0
 14 15  2  0
 15 16  1  0
 15 17  1  0
 17 18  1  0
 18 19  2  0
 19 20  1  0
 19 21  1  0
 21 22  1  0
 21 23  2  0
 23 24  1  0
 23 25  1  0
 25 26  1  0
 25 27  2  0
 13 28  2  0
 28 29  1  0
  6 30  1  0
 30 31  1  0
 30 32  2  0
 32 33  1  0
 32  2  1  0
 28  7  1  0
 27 14  1  0
 27 18  1  0
M  END
>  <cnnaffinity>  (1) 
-5.25831

>  <filename>  (1) 
O=c1nc(-c2cccnc2)cc(-c2csc3ccccc23)[nH]1

$$$$
