
     RDKit          3D

 29 31  0  0  0  0  0  0  0  0999 V2000
   14.5332   -0.0820   22.8200 H   0  0  0  0  0  0  0  0  0  0  0  0
   13.4759   -0.3396   22.7696 C   0  0  0  0  0  0  0  0  0  0  0  0
   13.0934   -1.1561   21.7910 N   0  0  0  0  0  0  0  0  0  0  0  0
   11.7874   -1.4213   21.7103 C   0  0  0  0  0  0  0  0  0  0  0  0
   11.4646   -2.1172   20.9382 H   0  0  0  0  0  0  0  0  0  0  0  0
   10.8391   -0.8642   22.5749 C   0  0  0  0  0  0  0  0  0  0  0  0
    9.4148   -1.0848   22.4050 N   0  0  0  0  0  0  0  0  0  0  0  0
    8.7751   -0.4539   21.3439 C   0  0  0  0  0  0  0  0  0  0  0  0
    9.3964    0.2175   20.7578 H   0  0  0  0  0  0  0  0  0  0  0  0
    7.4542   -0.6543   21.0531 C   0  0  0  0  0  0  0  0  0  0  0  0
    6.7639    0.0267   19.9181 C   0  0  0  0  0  0  0  0  0  0  0  0
    7.2704    0.0383   18.6000 C   0  0  0  0  0  0  0  0  0  0  0  0
    8.1923   -0.4949   18.3578 H   0  0  0  0  0  0  0  0  0  0  0  0
    6.6658    0.6440   17.5677 N   0  0  0  0  0  0  0  0  0  0  0  0
    5.5069    1.2756   17.8140 C   0  0  0  0  0  0  0  0  0  0  0  0
    5.0423    1.7711   16.9682 H   0  0  0  0  0  0  0  0  0  0  0  0
    4.8954    1.3083   19.0712 C   0  0  0  0  0  0  0  0  0  0  0  0
    3.9520    1.8251   19.2102 H   0  0  0  0  0  0  0  0  0  0  0  0
    5.5282    0.6614   20.1286 C   0  0  0  0  0  0  0  0  0  0  0  0
    5.0935    0.6466   21.1281 H   0  0  0  0  0  0  0  0  0  0  0  0
    6.7107   -1.5584   21.8829 C   0  0  0  0  0  0  0  0  0  0  0  0
    5.6593   -1.7383   21.6453 H   0  0  0  0  0  0  0  0  0  0  0  0
    7.3069   -2.2128   22.9106 C   0  0  0  0  0  0  0  0  0  0  0  0
    6.7941   -2.9400   23.5260 H   0  0  0  0  0  0  0  0  0  0  0  0
    8.7100   -2.0234   23.2568 C   0  0  0  0  0  0  0  0  0  0  0  0
    9.2597   -2.6208   24.1615 O   0  0  0  0  0  0  0  0  0  0  0  0
   11.3716   -0.0675   23.5929 C   0  0  0  0  0  0  0  0  0  0  0  0
   10.7055    0.3931   24.3210 H   0  0  0  0  0  0  0  0  0  0  0  0
   12.6790    0.1908   23.6997 N   0  0  0  0  0  0  0  0  0  0  0  0
  1  2  1  0
  2  3  2  0
  3  4  1  0
  4  5  1  0
  4  6  2  0
  6  7  1  0
  7  8  1  0
  8  9  1  0
  8 10  2  0
 10 11  1  0
 11 12  2  0
 12 13  1  0
 12 14  1  0
 14 15  2  0
 15 16  1  0
 15 17  1  0
 17 18  1  0
 17 19  2  0
 19 20  1  0
 10 21  1  0
 21 22  1  0
 21 23  2  0
 23 24  1  0
 23 25  1  0
 25 26  2  0
  6 27  1  0
 27 28  1  0
 27 29  2  0
 29  2  1  0
 25  7  1  0
 19 11  1  0
M  END
>  <cnnaffinity>  (1) 
-5.60861

>  <filename>  (1) 
O=c1ccc(-c2cccnc2)cn1-c1cncnc1

$$$$
