
     RDKit          3D

 36 38  0  0  0  0  0  0  0  0999 V2000
    5.0407    1.8443   16.9854 H   0  0  0  0  0  0  0  0  0  0  0  0
    5.4965    1.3216   17.8240 C   0  0  0  0  0  0  0  0  0  0  0  0
    6.6708    0.7181   17.5778 N   0  0  0  0  0  0  0  0  0  0  0  0
    7.2578    0.0687   18.5916 C   0  0  0  0  0  0  0  0  0  0  0  0
    8.2066   -0.4203   18.3733 H   0  0  0  0  0  0  0  0  0  0  0  0
    6.6962   -0.0406   19.8795 C   0  0  0  0  0  0  0  0  0  0  0  0
    7.3558   -0.7758   20.9321 N   0  0  0  0  0  0  0  0  0  0  0  0
    8.6491   -0.4044   21.2941 C   0  0  0  0  0  0  0  0  0  0  0  0
    9.0933    0.4078   20.7208 H   0  0  0  0  0  0  0  0  0  0  0  0
    9.3239   -0.9721   22.3193 C   0  0  0  0  0  0  0  0  0  0  0  0
   10.6372   -0.4914   22.6355 N   0  0  0  0  0  0  0  0  0  0  0  0
   11.1405   -0.7984   23.4633 H   0  0  0  0  0  0  0  0  0  0  0  0
   11.2587    1.0685   22.6489 S   0  0  0  0  0  0  0  0  0  0  0  0
   11.7962    1.3919   21.3481 O   0  0  0  0  0  0  0  0  0  0  0  0
   12.0681    0.9522   23.8519 O   0  0  0  0  0  0  0  0  0  0  0  0
    9.8660    2.1143   22.9725 C   0  0  0  0  0  0  0  0  0  0  0  0
    9.3354    2.9081   21.9464 C   0  0  0  0  0  0  0  0  0  0  0  0
    9.6896    2.8153   20.9215 H   0  0  0  0  0  0  0  0  0  0  0  0
    8.3543    3.8526   22.2547 C   0  0  0  0  0  0  0  0  0  0  0  0
    7.9803    4.5222   21.4857 H   0  0  0  0  0  0  0  0  0  0  0  0
    7.8617    3.9636   23.5587 C   0  0  0  0  0  0  0  0  0  0  0  0
    7.1157    4.7221   23.7880 H   0  0  0  0  0  0  0  0  0  0  0  0
    8.3344    3.1011   24.5543 C   0  0  0  0  0  0  0  0  0  0  0  0
    7.9384    3.1670   25.5658 H   0  0  0  0  0  0  0  0  0  0  0  0
    9.3293    2.1636   24.2668 C   0  0  0  0  0  0  0  0  0  0  0  0
    9.6948    1.5175   25.0654 H   0  0  0  0  0  0  0  0  0  0  0  0
    8.6504   -2.1206   23.0460 C   0  0  0  0  0  0  0  0  0  0  0  0
    9.0848   -2.7932   23.9545 O   0  0  0  0  0  0  0  0  0  0  0  0
    7.3794   -2.3922   22.6088 N   0  0  0  0  0  0  0  0  0  0  0  0
    6.9171   -3.1499   23.0704 H   0  0  0  0  0  0  0  0  0  0  0  0
    6.6813   -1.8375   21.5855 C   0  0  0  0  0  0  0  0  0  0  0  0
    5.5945   -2.2753   21.2880 O   0  0  0  0  0  0  0  0  0  0  0  0
    5.4691    0.5882   20.1210 C   0  0  0  0  0  0  0  0  0  0  0  0
    5.0091    0.5185   21.1069 H   0  0  0  0  0  0  0  0  0  0  0  0
    4.8645    1.2920   19.0733 C   0  0  0  0  0  0  0  0  0  0  0  0
    3.9190    1.8088   19.2135 H   0  0  0  0  0  0  0  0  0  0  0  0
  1  2  1  0
  2  3  2  0
  3  4  1  0
  4  5  1  0
  4  6  2  0
  6  7  1  0
  7  8  1  0
  8  9  1  0
  8 10  2  0
 10 11  1  0
 11 12  1  0
 11 13  1  0
 13 14  2  0
 13 15  2  0
 13 16  1  0
 16 17  2  0
 17 18  1  0
 17 19  1  0
 19 20  1  0
 19 21  2  0
 21 22  1  0
 21 23  1  0
 23 24  1  0
 23 25  2  0
 25 26  1  0
 10 27  1  0
 27 28  2  0
 27 29  1  0
 29 30  1  0
 29 31  1  0
 31 32  2  0
  6 33  1  0
 33 34  1  0
 33 35  2  0
 35 36  1  0
 35  2  1  0
 31  7  1  0
 25 16  1  0
M  END
>  <cnnaffinity>  (1) 
-5.34062

>  <filename>  (1) 
O=c1[nH]c(=O)n(-c2cccnc2)cc1NS(=O)(=O)c1ccccc1

$$$$
