
     RDKit          3D

 38 41  0  0  0  0  0  0  0  0999 V2000
    4.9276    1.8044   16.7156 H   0  0  0  0  0  0  0  0  0  0  0  0
    5.3141    1.4216   17.6568 C   0  0  0  0  0  0  0  0  0  0  0  0
    6.5126    0.8262   17.5820 N   0  0  0  0  0  0  0  0  0  0  0  0
    7.0144    0.3429   18.7253 C   0  0  0  0  0  0  0  0  0  0  0  0
    7.9832   -0.1402   18.6437 H   0  0  0  0  0  0  0  0  0  0  0  0
    6.3897    0.4122   19.9880 C   0  0  0  0  0  0  0  0  0  0  0  0
    7.0931   -0.1859   21.2091 C   0  0  2  0  0  0  0  0  0  0  0  0
    6.4865    0.0230   22.0953 H   0  0  0  0  0  0  0  0  0  0  0  0
    8.5231    0.3958   21.4222 C   0  0  0  0  0  0  0  0  0  0  0  0
    8.6716    1.3739   20.9519 H   0  0  0  0  0  0  0  0  0  0  0  0
    8.7325    0.5162   22.4973 H   0  0  0  0  0  0  0  0  0  0  0  0
    9.3835   -0.5980   20.8053 N   0  0  0  0  0  0  0  0  0  0  0  0
   10.3821   -0.6307   20.9568 H   0  0  0  0  0  0  0  0  0  0  0  0
    8.8540   -1.8484   20.9194 C   0  0  0  0  0  0  0  0  0  0  0  0
    9.5303   -2.8478   20.9061 O   0  0  0  0  0  0  0  0  0  0  0  0
    7.3419   -1.7279   21.0405 C   0  0  1  0  0  0  0  0  0  0  0  0
    6.9508   -2.0438   20.0665 H   0  0  0  0  0  0  0  0  0  0  0  0
    6.7734   -2.7133   22.0620 C   0  0  0  0  0  0  0  0  0  0  0  0
    5.7224   -3.5985   21.6560 C   0  0  0  0  0  0  0  0  0  0  0  0
    5.3532   -3.5304   20.6330 H   0  0  0  0  0  0  0  0  0  0  0  0
    5.1898   -4.5241   22.5259 C   0  0  0  0  0  0  0  0  0  0  0  0
    4.4234   -5.2237   22.1944 H   0  0  0  0  0  0  0  0  0  0  0  0
    5.6588   -4.6030   23.8785 C   0  0  0  0  0  0  0  0  0  0  0  0
    5.0721   -5.4801   24.8478 C   0  0  0  0  0  0  0  0  0  0  0  0
    4.2241   -6.0963   24.5579 H   0  0  0  0  0  0  0  0  0  0  0  0
    5.5674   -5.5361   26.1319 C   0  0  0  0  0  0  0  0  0  0  0  0
    5.1125   -6.1892   26.8750 H   0  0  0  0  0  0  0  0  0  0  0  0
    6.6985   -4.7531   26.5010 C   0  0  0  0  0  0  0  0  0  0  0  0
    7.1031   -4.8372   27.5057 H   0  0  0  0  0  0  0  0  0  0  0  0
    7.2895   -3.9054   25.5915 C   0  0  0  0  0  0  0  0  0  0  0  0
    8.1721   -3.3242   25.8517 H   0  0  0  0  0  0  0  0  0  0  0  0
    6.7603   -3.7756   24.2709 C   0  0  0  0  0  0  0  0  0  0  0  0
    7.3053   -2.8462   23.3276 C   0  0  0  0  0  0  0  0  0  0  0  0
    8.1898   -2.2831   23.6169 H   0  0  0  0  0  0  0  0  0  0  0  0
    5.1374    1.0527   20.0351 C   0  0  0  0  0  0  0  0  0  0  0  0
    4.5929    1.1626   20.9777 H   0  0  0  0  0  0  0  0  0  0  0  0
    4.5857    1.5537   18.8454 C   0  0  0  0  0  0  0  0  0  0  0  0
    3.6145    2.0444   18.8165 H   0  0  0  0  0  0  0  0  0  0  0  0
  1  2  1  0
  2  3  2  0
  3  4  1  0
  4  5  1  0
  4  6  2  0
  6  7  1  0
  7  8  1  1
  7  9  1  0
  9 10  1  0
  9 11  1  0
  9 12  1  0
 12 13  1  0
 12 14  1  0
 14 15  2  0
 14 16  1  0
 16 17  1  6
 16 18  1  0
 18 19  2  0
 19 20  1  0
 19 21  1  0
 21 22  1  0
 21 23  2  0
 23 24  1  0
 24 25  1  0
 24 26  2  0
 26 27  1  0
 26 28  1  0
 28 29  1  0
 28 30  2  0
 30 31  1  0
 30 32  1  0
 32 33  2  0
 33 34  1  0
  6 35  1  0
 35 36  1  0
 35 37  2  0
 37 38  1  0
 37  2  1  0
 16  7  1  0
 33 18  1  0
 32 23  1  0
M  END
>  <cnnaffinity>  (1) 
-5.82622

>  <filename>  (1) 
O=C1NC[C@@H](c2cccnc2)[C@@H]1c1ccc2ccccc2c1

$$$$
