
     RDKit          3D

 33 36  0  0  0  0  0  0  0  0999 V2000
    4.9046    1.8360   16.9633 H   0  0  0  0  0  0  0  0  0  0  0  0
    5.3677    1.3144   17.7988 C   0  0  0  0  0  0  0  0  0  0  0  0
    6.5239    0.6888   17.5309 N   0  0  0  0  0  0  0  0  0  0  0  0
    7.1383    0.0708   18.5492 C   0  0  0  0  0  0  0  0  0  0  0  0
    8.0963   -0.3980   18.3323 H   0  0  0  0  0  0  0  0  0  0  0  0
    6.6314    0.0003   19.8673 C   0  0  0  0  0  0  0  0  0  0  0  0
    7.3340   -0.7354   20.9653 C   0  0  0  0  0  0  0  0  0  0  0  0
    6.6613   -1.6251   21.7410 C   0  0  0  0  0  0  0  0  0  0  0  0
    5.5989   -1.8303   21.6054 H   0  0  0  0  0  0  0  0  0  0  0  0
    7.2850   -2.3607   22.7480 N   0  0  0  0  0  0  0  0  0  0  0  0
    6.5576   -3.3082   23.4968 C   0  0  0  0  0  0  0  0  0  0  0  0
    5.2885   -3.1972   23.6306 N   0  0  0  0  0  0  0  0  0  0  0  0
    4.7896   -4.2579   24.3728 C   0  0  0  0  0  0  0  0  0  0  0  0
    3.4488   -4.4091   24.7569 C   0  0  0  0  0  0  0  0  0  0  0  0
    2.7474   -3.6219   24.5005 H   0  0  0  0  0  0  0  0  0  0  0  0
    3.0742   -5.5443   25.4681 C   0  0  0  0  0  0  0  0  0  0  0  0
    2.0399   -5.6735   25.7722 H   0  0  0  0  0  0  0  0  0  0  0  0
    4.0307   -6.5220   25.8076 C   0  0  0  0  0  0  0  0  0  0  0  0
    3.7278   -7.4043   26.3615 H   0  0  0  0  0  0  0  0  0  0  0  0
    5.3714   -6.3698   25.4652 C   0  0  0  0  0  0  0  0  0  0  0  0
    6.0995   -7.1104   25.7871 H   0  0  0  0  0  0  0  0  0  0  0  0
    5.7455   -5.2297   24.7416 C   0  0  0  0  0  0  0  0  0  0  0  0
    7.3240   -4.7210   24.2163 S   0  0  0  0  0  0  0  0  0  0  0  0
    8.6392   -2.1473   23.0683 C   0  0  0  0  0  0  0  0  0  0  0  0
    9.2331   -2.7403   23.9348 O   0  0  0  0  0  0  0  0  0  0  0  0
    9.2627   -1.2250   22.3093 N   0  0  0  0  0  0  0  0  0  0  0  0
   10.2271   -1.0622   22.5187 H   0  0  0  0  0  0  0  0  0  0  0  0
    8.7691   -0.4817   21.2630 C   0  0  0  0  0  0  0  0  0  0  0  0
    9.5358    0.2847   20.7223 O   0  0  0  0  0  0  0  0  0  0  0  0
    5.4081    0.6504   20.1077 C   0  0  0  0  0  0  0  0  0  0  0  0
    4.9919    0.6419   21.1162 H   0  0  0  0  0  0  0  0  0  0  0  0
    4.7690    1.3275   19.0646 C   0  0  0  0  0  0  0  0  0  0  0  0
    3.8426    1.8765   19.2170 H   0  0  0  0  0  0  0  0  0  0  0  0
  1  2  1  0
  2  3  2  0
  3  4  1  0
  4  5  1  0
  4  6  2  0
  6  7  1  0
  7  8  2  0
  8  9  1  0
  8 10  1  0
 10 11  1  0
 11 12  2  0
 12 13  1  0
 13 14  2  0
 14 15  1  0
 14 16  1  0
 16 17  1  0
 16 18  2  0
 18 19  1  0
 18 20  1  0
 20 21  1  0
 20 22  2  0
 22 23  1  0
 10 24  1  0
 24 25  2  0
 24 26  1  0
 26 27  1  0
 26 28  1  0
 28 29  2  0
  6 30  1  0
 30 31  1  0
 30 32  2  0
 32 33  1  0
 32  2  1  0
 28  7  1  0
 23 11  1  0
 22 13  1  0
M  END
>  <cnnaffinity>  (1) 
-5.5348

>  <filename>  (1) 
O=c1[nH]c(=O)n(-c2nc3ccccc3s2)cc1-c1cccnc1

$$$$
