
     RDKit          3D

 29 31  0  0  0  0  0  0  0  0999 V2000
    4.9235    1.7801   16.9959 H   0  0  0  0  0  0  0  0  0  0  0  0
    5.4015    1.2926   17.8415 C   0  0  0  0  0  0  0  0  0  0  0  0
    6.5611    0.6685   17.5888 N   0  0  0  0  0  0  0  0  0  0  0  0
    7.1563    0.0459   18.6083 C   0  0  0  0  0  0  0  0  0  0  0  0
    8.1155   -0.4166   18.3845 H   0  0  0  0  0  0  0  0  0  0  0  0
    6.6208   -0.0187   19.9066 C   0  0  0  0  0  0  0  0  0  0  0  0
    7.3021   -0.7443   20.9902 C   0  0  0  0  0  0  0  0  0  0  0  0
    6.5744   -1.5208   21.7733 N   0  0  0  0  0  0  0  0  0  0  0  0
    7.1825   -2.2020   22.8118 C   0  0  0  0  0  0  0  0  0  0  0  0
    6.3053   -3.0409   23.6865 C   0  0  0  0  0  0  0  0  0  0  0  0
    5.0946   -3.5748   23.1997 C   0  0  0  0  0  0  0  0  0  0  0  0
    4.7816   -3.3753   22.1822 H   0  0  0  0  0  0  0  0  0  0  0  0
    4.2756   -4.3539   23.9234 N   0  0  0  0  0  0  0  0  0  0  0  0
    4.6242   -4.6178   25.1901 C   0  0  0  0  0  0  0  0  0  0  0  0
    3.9588   -5.2401   25.7822 H   0  0  0  0  0  0  0  0  0  0  0  0
    5.8005   -4.1213   25.7587 C   0  0  0  0  0  0  0  0  0  0  0  0
    6.0992   -4.4169   27.0300 F   0  0  0  0  0  0  0  0  0  0  0  0
    6.6655   -3.3278   25.0192 C   0  0  0  0  0  0  0  0  0  0  0  0
    7.5598   -2.9342   25.4985 H   0  0  0  0  0  0  0  0  0  0  0  0
    8.5333   -2.1221   23.0275 C   0  0  0  0  0  0  0  0  0  0  0  0
    9.0462   -2.6814   23.8023 H   0  0  0  0  0  0  0  0  0  0  0  0
    9.3069   -1.3225   22.2166 N   0  0  0  0  0  0  0  0  0  0  0  0
   10.3076   -1.1782   22.3146 H   0  0  0  0  0  0  0  0  0  0  0  0
    8.7965   -0.5561   21.1732 C   0  0  0  0  0  0  0  0  0  0  0  0
    9.5791    0.1438   20.5509 O   0  0  0  0  0  0  0  0  0  0  0  0
    5.4145    0.6481   20.1580 C   0  0  0  0  0  0  0  0  0  0  0  0
    4.9852    0.6325   21.1640 H   0  0  0  0  0  0  0  0  0  0  0  0
    4.8021    1.3204   19.1049 C   0  0  0  0  0  0  0  0  0  0  0  0
    3.8699    1.8513   19.2540 H   0  0  0  0  0  0  0  0  0  0  0  0
  1  2  1  0
  2  3  2  0
  3  4  1  0
  4  5  1  0
  4  6  2  0
  6  7  1  0
  7  8  2  0
  8  9  1  0
  9 10  1  0
 10 11  2  0
 11 12  1  0
 11 13  1  0
 13 14  2  0
 14 15  1  0
 14 16  1  0
 16 17  1  0
 16 18  2  0
 18 19  1  0
  9 20  2  0
 20 21  1  0
 20 22  1  0
 22 23  1  0
 22 24  1  0
 24 25  2  0
  6 26  1  0
 26 27  1  0
 26 28  2  0
 28 29  1  0
 28  2  1  0
 24  7  1  0
 18 10  1  0
M  END
>  <cnnaffinity>  (1) 
-5.37895

>  <filename>  (1) 
O=c1[nH]cc(-c2cncc(F)c2)nc1-c1cccnc1

$$$$
