
     RDKit          3D

 33 35  0  0  0  0  0  0  0  0999 V2000
    4.9095    1.7877   16.9907 H   0  0  0  0  0  0  0  0  0  0  0  0
    5.3940    1.2987   17.8331 C   0  0  0  0  0  0  0  0  0  0  0  0
    6.5562    0.6815   17.5627 N   0  0  0  0  0  0  0  0  0  0  0  0
    7.1703    0.0648   18.5781 C   0  0  0  0  0  0  0  0  0  0  0  0
    8.1216   -0.4175   18.3694 H   0  0  0  0  0  0  0  0  0  0  0  0
    6.6493   -0.0002   19.8864 C   0  0  0  0  0  0  0  0  0  0  0  0
    7.3518   -0.6898   20.9515 N   0  0  0  0  0  0  0  0  0  0  0  0
    8.6219   -0.2062   21.3890 C   0  0  0  0  0  0  0  0  0  0  0  0
    9.0962    0.7788   20.8618 O   0  0  0  0  0  0  0  0  0  0  0  0
    9.2793   -0.9438   22.4230 C   0  0  0  0  0  0  0  0  0  0  0  0
   10.2251   -0.5452   22.7425 H   0  0  0  0  0  0  0  0  0  0  0  0
    8.6970   -2.0184   22.9675 C   0  0  0  0  0  0  0  0  0  0  0  0
    9.2580   -2.7736   23.9468 N   0  0  0  0  0  0  0  0  0  0  0  0
   10.2563   -2.6770   23.9757 H   0  0  0  0  0  0  0  0  0  0  0  0
    8.6691   -3.4228   25.0541 C   0  0  0  0  0  0  0  0  0  0  0  0
    7.4343   -3.0038   25.5719 C   0  0  0  0  0  0  0  0  0  0  0  0
    6.9579   -2.1301   25.1409 H   0  0  0  0  0  0  0  0  0  0  0  0
    6.8443   -3.6981   26.6297 C   0  0  0  0  0  0  0  0  0  0  0  0
    5.8788   -3.3693   26.9993 H   0  0  0  0  0  0  0  0  0  0  0  0
    7.4811   -4.8046   27.1961 C   0  0  0  0  0  0  0  0  0  0  0  0
    7.0103   -5.3426   28.0151 H   0  0  0  0  0  0  0  0  0  0  0  0
    8.7293   -5.2025   26.7040 C   0  0  0  0  0  0  0  0  0  0  0  0
    9.2297   -6.0572   27.1493 H   0  0  0  0  0  0  0  0  0  0  0  0
    9.3347   -4.5081   25.6502 C   0  0  0  0  0  0  0  0  0  0  0  0
   10.3046   -4.8268   25.2733 H   0  0  0  0  0  0  0  0  0  0  0  0
    7.4883   -2.4209   22.5136 N   0  0  0  0  0  0  0  0  0  0  0  0
    7.0482   -3.2528   22.8463 H   0  0  0  0  0  0  0  0  0  0  0  0
    6.7843   -1.8194   21.5136 C   0  0  0  0  0  0  0  0  0  0  0  0
    5.7352   -2.3153   21.1699 O   0  0  0  0  0  0  0  0  0  0  0  0
    5.4429    0.6442   20.1567 C   0  0  0  0  0  0  0  0  0  0  0  0
    5.0205    0.6146   21.1627 H   0  0  0  0  0  0  0  0  0  0  0  0
    4.8073    1.3163   19.1035 C   0  0  0  0  0  0  0  0  0  0  0  0
    3.8737    1.8456   19.2589 H   0  0  0  0  0  0  0  0  0  0  0  0
  1  2  1  0
  2  3  2  0
  3  4  1  0
  4  5  1  0
  4  6  2  0
  6  7  1  0
  7  8  1  0
  8  9  2  0
  8 10  1  0
 10 11  1  0
 10 12  2  0
 12 13  1  0
 13 14  1  0
 13 15  1  0
 15 16  2  0
 16 17  1  0
 16 18  1  0
 18 19  1  0
 18 20  2  0
 20 21  1  0
 20 22  1  0
 22 23  1  0
 22 24  2  0
 24 25  1  0
 12 26  1  0
 26 27  1  0
 26 28  1  0
 28 29  2  0
  6 30  1  0
 30 31  1  0
 30 32  2  0
 32 33  1  0
 32  2  1  0
 28  7  1  0
 24 15  1  0
M  END
>  <cnnaffinity>  (1) 
-5.51421

>  <filename>  (1) 
O=c1cc(Nc2ccccc2)[nH]c(=O)n1-c1cccnc1

$$$$
