
     RDKit          3D

 33 36  0  0  0  0  0  0  0  0999 V2000
    4.9288    1.7844   16.9914 H   0  0  0  0  0  0  0  0  0  0  0  0
    5.4003    1.2935   17.8393 C   0  0  0  0  0  0  0  0  0  0  0  0
    6.5570    0.6662   17.5849 N   0  0  0  0  0  0  0  0  0  0  0  0
    7.1504    0.0441   18.6062 C   0  0  0  0  0  0  0  0  0  0  0  0
    8.1121   -0.4134   18.3854 H   0  0  0  0  0  0  0  0  0  0  0  0
    6.6182   -0.0160   19.9053 C   0  0  0  0  0  0  0  0  0  0  0  0
    7.3160   -0.7341   20.9836 C   0  0  0  0  0  0  0  0  0  0  0  0
    6.5892   -1.5054   21.7680 N   0  0  0  0  0  0  0  0  0  0  0  0
    7.1854   -2.1950   22.8094 C   0  0  0  0  0  0  0  0  0  0  0  0
    6.2972   -3.0433   23.6707 C   0  0  0  0  0  0  0  0  0  0  0  0
    6.6513   -3.3194   25.0392 C   0  0  0  0  0  0  0  0  0  0  0  0
    7.5581   -2.8871   25.4602 H   0  0  0  0  0  0  0  0  0  0  0  0
    5.8563   -4.1041   25.8578 C   0  0  0  0  0  0  0  0  0  0  0  0
    6.1279   -4.3154   26.8915 H   0  0  0  0  0  0  0  0  0  0  0  0
    4.6732   -4.6265   25.2891 C   0  0  0  0  0  0  0  0  0  0  0  0
    4.2988   -4.3695   23.9501 C   0  0  0  0  0  0  0  0  0  0  0  0
    3.0593   -5.0553   23.7954 C   0  0  0  0  0  0  0  0  0  0  0  0
    2.4446   -5.0965   22.9070 H   0  0  0  0  0  0  0  0  0  0  0  0
    2.7047   -5.6727   24.9004 N   0  0  0  0  0  0  0  0  0  0  0  0
    3.6853   -5.4079   25.7927 N   0  0  0  0  0  0  0  0  0  0  0  0
    3.6359   -5.7807   26.7263 H   0  0  0  0  0  0  0  0  0  0  0  0
    5.1251   -3.5695   23.1361 C   0  0  0  0  0  0  0  0  0  0  0  0
    4.8605   -3.3299   22.1100 H   0  0  0  0  0  0  0  0  0  0  0  0
    8.5391   -2.1220   23.0250 C   0  0  0  0  0  0  0  0  0  0  0  0
    9.0455   -2.6849   23.8015 H   0  0  0  0  0  0  0  0  0  0  0  0
    9.3094   -1.3249   22.2131 N   0  0  0  0  0  0  0  0  0  0  0  0
   10.3092   -1.1697   22.3017 H   0  0  0  0  0  0  0  0  0  0  0  0
    8.8104   -0.5545   21.1705 C   0  0  0  0  0  0  0  0  0  0  0  0
    9.6090    0.1377   20.5617 O   0  0  0  0  0  0  0  0  0  0  0  0
    5.4083    0.6474   20.1571 C   0  0  0  0  0  0  0  0  0  0  0  0
    4.9788    0.6338   21.1634 H   0  0  0  0  0  0  0  0  0  0  0  0
    4.7992    1.3211   19.1033 C   0  0  0  0  0  0  0  0  0  0  0  0
    3.8681    1.8546   19.2482 H   0  0  0  0  0  0  0  0  0  0  0  0
  1  2  1  0
  2  3  2  0
  3  4  1  0
  4  5  1  0
  4  6  2  0
  6  7  1  0
  7  8  2  0
  8  9  1  0
  9 10  1  0
 10 11  2  0
 11 12  1  0
 11 13  1  0
 13 14  1  0
 13 15  2  0
 15 16  1  0
 16 17  1  0
 17 18  1  0
 17 19  2  0
 19 20  1  0
 20 21  1  0
 16 22  2  0
 22 23  1  0
  9 24  2  0
 24 25  1  0
 24 26  1  0
 26 27  1  0
 26 28  1  0
 28 29  2  0
  6 30  1  0
 30 31  1  0
 30 32  2  0
 32 33  1  0
 32  2  1  0
 28  7  1  0
 22 10  1  0
 20 15  1  0
M  END
>  <cnnaffinity>  (1) 
-5.39544

>  <filename>  (1) 
O=c1[nH]cc(-c2ccc3[nH]ncc3c2)nc1-c1cccnc1

$$$$
