
     RDKit          3D

 37 40  0  0  0  0  0  0  0  0999 V2000
    4.9142    1.7862   16.9883 H   0  0  0  0  0  0  0  0  0  0  0  0
    5.3979    1.2987   17.8284 C   0  0  0  0  0  0  0  0  0  0  0  0
    6.5598    0.6807   17.5581 N   0  0  0  0  0  0  0  0  0  0  0  0
    7.1655    0.0767   18.5869 C   0  0  0  0  0  0  0  0  0  0  0  0
    8.1071   -0.4226   18.3674 H   0  0  0  0  0  0  0  0  0  0  0  0
    6.6490    0.0138   19.8953 C   0  0  0  0  0  0  0  0  0  0  0  0
    7.3679   -0.7059   20.9710 C   0  0  0  0  0  0  0  0  0  0  0  0
    8.7818   -0.5535   21.1220 C   0  0  0  0  0  0  0  0  0  0  0  0
    9.3125    0.1175   20.4408 H   0  0  0  0  0  0  0  0  0  0  0  0
    9.4306   -1.2054   22.1241 C   0  0  0  0  0  0  0  0  0  0  0  0
   10.4938   -1.1323   22.2865 H   0  0  0  0  0  0  0  0  0  0  0  0
    8.7496   -2.0860   23.0639 C   0  0  0  0  0  0  0  0  0  0  0  0
    9.3319   -2.6930   23.9492 O   0  0  0  0  0  0  0  0  0  0  0  0
    7.3348   -2.1931   22.8615 N   0  0  0  0  0  0  0  0  0  0  0  0
    6.5607   -3.0366   23.7335 C   0  0  0  0  0  0  0  0  0  0  0  0
    6.5907   -2.7859   25.1373 C   0  0  0  0  0  0  0  0  0  0  0  0
    7.2040   -1.9702   25.5082 H   0  0  0  0  0  0  0  0  0  0  0  0
    5.8629   -3.5805   25.9904 C   0  0  0  0  0  0  0  0  0  0  0  0
    5.8814   -3.4043   27.0650 H   0  0  0  0  0  0  0  0  0  0  0  0
    5.0769   -4.6659   25.4912 C   0  0  0  0  0  0  0  0  0  0  0  0
    4.3118   -5.5092   26.3544 C   0  0  0  0  0  0  0  0  0  0  0  0
    4.3411   -5.3123   27.4265 H   0  0  0  0  0  0  0  0  0  0  0  0
    3.5601   -6.5422   25.8383 C   0  0  0  0  0  0  0  0  0  0  0  0
    2.9794   -7.1810   26.5016 H   0  0  0  0  0  0  0  0  0  0  0  0
    3.5351   -6.7857   24.4305 C   0  0  0  0  0  0  0  0  0  0  0  0
    2.9346   -7.6046   24.0400 H   0  0  0  0  0  0  0  0  0  0  0  0
    4.2624   -5.9931   23.5722 C   0  0  0  0  0  0  0  0  0  0  0  0
    4.2536   -6.1673   22.4957 H   0  0  0  0  0  0  0  0  0  0  0  0
    5.0541   -4.9166   24.0768 C   0  0  0  0  0  0  0  0  0  0  0  0
    5.8147   -4.0694   23.2145 C   0  0  0  0  0  0  0  0  0  0  0  0
    5.8142   -4.2461   22.1417 H   0  0  0  0  0  0  0  0  0  0  0  0
    6.6967   -1.5210   21.8401 C   0  0  0  0  0  0  0  0  0  0  0  0
    5.6231   -1.6831   21.7552 H   0  0  0  0  0  0  0  0  0  0  0  0
    5.4258    0.6511   20.1479 C   0  0  0  0  0  0  0  0  0  0  0  0
    5.0094    0.6398   21.1604 H   0  0  0  0  0  0  0  0  0  0  0  0
    4.7997    1.3195   19.0962 C   0  0  0  0  0  0  0  0  0  0  0  0
    3.8668    1.8492   19.2534 H   0  0  0  0  0  0  0  0  0  0  0  0
  1  2  1  0
  2  3  2  0
  3  4  1  0
  4  5  1  0
  4  6  2  0
  6  7  1  0
  7  8  1  0
  8  9  1  0
  8 10  2  0
 10 11  1  0
 10 12  1  0
 12 13  2  0
 12 14  1  0
 14 15  1  0
 15 16  2  0
 16 17  1  0
 16 18  1  0
 18 19  1  0
 18 20  2  0
 20 21  1  0
 21 22  1  0
 21 23  2  0
 23 24  1  0
 23 25  1  0
 25 26  1  0
 25 27  2  0
 27 28  1  0
 27 29  1  0
 29 30  2  0
 30 31  1  0
 14 32  1  0
 32 33  1  0
  6 34  1  0
 34 35  1  0
 34 36  2  0
 36 37  1  0
 36  2  1  0
 32  7  2  0
 30 15  1  0
 29 20  1  0
M  END
>  <cnnaffinity>  (1) 
-5.32025

>  <filename>  (1) 
O=c1ccc(-c2cccnc2)cn1-c1ccc2ccccc2c1

$$$$
