
     RDKit          3D

 31 33  0  0  0  0  0  0  0  0999 V2000
    4.9195    1.8015   16.9816 H   0  0  0  0  0  0  0  0  0  0  0  0
    5.3954    1.3007   17.8215 C   0  0  0  0  0  0  0  0  0  0  0  0
    6.5606    0.6902   17.5557 N   0  0  0  0  0  0  0  0  0  0  0  0
    7.1713    0.0716   18.5741 C   0  0  0  0  0  0  0  0  0  0  0  0
    8.1227   -0.4093   18.3375 H   0  0  0  0  0  0  0  0  0  0  0  0
    6.6585    0.0065   19.8824 C   0  0  0  0  0  0  0  0  0  0  0  0
    7.3948   -0.6990   21.0096 C   0  0  2  0  0  0  0  0  0  0  0  0
    8.2362   -1.2559   20.5742 H   0  0  0  0  0  0  0  0  0  0  0  0
    6.5328   -1.7420   21.7372 C   0  0  0  0  0  0  0  0  0  0  0  0
    5.9598   -2.7088   21.2822 O   0  0  0  0  0  0  0  0  0  0  0  0
    6.5219   -1.4309   23.0559 N   0  0  0  0  0  0  0  0  0  0  0  0
    5.7709   -1.8926   23.5493 H   0  0  0  0  0  0  0  0  0  0  0  0
    7.0902   -0.1487   23.4087 C   0  0  0  0  0  0  0  0  0  0  0  0
    6.3335    0.6082   23.6716 H   0  0  0  0  0  0  0  0  0  0  0  0
    7.7350   -0.2539   24.2952 H   0  0  0  0  0  0  0  0  0  0  0  0
    7.8760    0.2715   22.1328 C   0  0  1  0  0  0  0  0  0  0  0  0
    7.6298    1.3103   21.8773 H   0  0  0  0  0  0  0  0  0  0  0  0
    9.3751    0.2349   22.3192 C   0  0  0  0  0  0  0  0  0  0  0  0
   10.0312   -0.9388   22.7327 C   0  0  0  0  0  0  0  0  0  0  0  0
    9.4708   -1.8550   22.9338 H   0  0  0  0  0  0  0  0  0  0  0  0
   11.3567   -1.0256   22.9043 N   0  0  0  0  0  0  0  0  0  0  0  0
   12.0984    0.0651   22.6802 C   0  0  0  0  0  0  0  0  0  0  0  0
   13.1729   -0.0157   22.8394 H   0  0  0  0  0  0  0  0  0  0  0  0
   11.5338    1.2750   22.2633 C   0  0  0  0  0  0  0  0  0  0  0  0
   12.3251    2.3371   22.0496 F   0  0  0  0  0  0  0  0  0  0  0  0
   10.1610    1.3781   22.0742 C   0  0  0  0  0  0  0  0  0  0  0  0
    9.7313    2.3240   21.7410 H   0  0  0  0  0  0  0  0  0  0  0  0
    5.4435    0.6531   20.1362 C   0  0  0  0  0  0  0  0  0  0  0  0
    5.0145    0.6349   21.1405 H   0  0  0  0  0  0  0  0  0  0  0  0
    4.8013    1.3139   19.0875 C   0  0  0  0  0  0  0  0  0  0  0  0
    3.8716    1.8437   19.2437 H   0  0  0  0  0  0  0  0  0  0  0  0
  1  2  1  0
  2  3  2  0
  3  4  1  0
  4  5  1  0
  4  6  2  0
  6  7  1  0
  7  8  1  6
  7  9  1  0
  9 10  2  0
  9 11  1  0
 11 12  1  0
 11 13  1  0
 13 14  1  0
 13 15  1  0
 13 16  1  0
 16 17  1  6
 16 18  1  0
 18 19  2  0
 19 20  1  0
 19 21  1  0
 21 22  2  0
 22 23  1  0
 22 24  1  0
 24 25  1  0
 24 26  2  0
 26 27  1  0
  6 28  1  0
 28 29  1  0
 28 30  2  0
 30 31  1  0
 30  2  1  0
 16  7  1  0
 26 18  1  0
M  END
>  <cnnaffinity>  (1) 
-5.2884

>  <filename>  (1) 
O=C1NC[C@@H](c2cncc(F)c2)[C@@H]1c1cccnc1

$$$$
