
     RDKit          3D

 31 33  0  0  0  0  0  0  0  0999 V2000
    4.9215    1.7899   16.9957 H   0  0  0  0  0  0  0  0  0  0  0  0
    5.3953    1.2910   17.8384 C   0  0  0  0  0  0  0  0  0  0  0  0
    6.5529    0.6662   17.5742 N   0  0  0  0  0  0  0  0  0  0  0  0
    7.1722    0.0514   18.5866 C   0  0  0  0  0  0  0  0  0  0  0  0
    8.1270   -0.4194   18.3665 H   0  0  0  0  0  0  0  0  0  0  0  0
    6.6633    0.0018   19.9026 C   0  0  0  0  0  0  0  0  0  0  0  0
    7.3557   -0.6750   20.9475 N   0  0  0  0  0  0  0  0  0  0  0  0
    6.7652   -1.4458   21.9406 C   0  0  0  0  0  0  0  0  0  0  0  0
    5.6969   -1.6072   21.9791 H   0  0  0  0  0  0  0  0  0  0  0  0
    7.7234   -1.9449   22.7585 C   0  0  0  0  0  0  0  0  0  0  0  0
    7.5570   -2.8069   23.9567 C   0  0  0  0  0  0  0  0  0  0  0  0
    6.2954   -3.1503   24.2781 N   0  0  0  0  0  0  0  0  0  0  0  0
    6.0977   -3.9237   25.3397 C   0  0  0  0  0  0  0  0  0  0  0  0
    5.0591   -4.1580   25.5610 H   0  0  0  0  0  0  0  0  0  0  0  0
    7.1440   -4.4108   26.1259 C   0  0  0  0  0  0  0  0  0  0  0  0
    6.8290   -5.2405   27.3170 C   0  0  0  0  0  0  0  0  0  0  0  0
    7.8306   -6.0947   27.5966 F   0  0  0  0  0  0  0  0  0  0  0  0
    6.6385   -4.4853   28.4130 F   0  0  0  0  0  0  0  0  0  0  0  0
    5.7054   -5.9636   27.1490 F   0  0  0  0  0  0  0  0  0  0  0  0
    8.4643   -4.0550   25.8177 C   0  0  0  0  0  0  0  0  0  0  0  0
    9.3095   -4.4039   26.4186 H   0  0  0  0  0  0  0  0  0  0  0  0
    8.6609   -3.2433   24.7132 C   0  0  0  0  0  0  0  0  0  0  0  0
    9.6592   -2.9459   24.4252 H   0  0  0  0  0  0  0  0  0  0  0  0
    8.9343   -1.4637   22.2342 N   0  0  0  0  0  0  0  0  0  0  0  0
    9.8940   -1.5636   22.5123 H   0  0  0  0  0  0  0  0  0  0  0  0
    8.7498   -0.6733   21.1329 C   0  0  0  0  0  0  0  0  0  0  0  0
    9.6327   -0.1275   20.5018 O   0  0  0  0  0  0  0  0  0  0  0  0
    5.4473    0.6419   20.1630 C   0  0  0  0  0  0  0  0  0  0  0  0
    5.0321    0.6353   21.1722 H   0  0  0  0  0  0  0  0  0  0  0  0
    4.8119    1.3058   19.1094 C   0  0  0  0  0  0  0  0  0  0  0  0
    3.8816    1.8377   19.2616 H   0  0  0  0  0  0  0  0  0  0  0  0
  1  2  1  0
  2  3  2  0
  3  4  1  0
  4  5  1  0
  4  6  2  0
  6  7  1  0
  7  8  1  0
  8  9  1  0
  8 10  2  0
 10 11  1  0
 11 12  2  0
 12 13  1  0
 13 14  1  0
 13 15  2  0
 15 16  1  0
 16 17  1  0
 16 18  1  0
 16 19  1  0
 15 20  1  0
 20 21  1  0
 20 22  2  0
 22 23  1  0
 10 24  1  0
 24 25  1  0
 24 26  1  0
 26 27  2  0
  6 28  1  0
 28 29  1  0
 28 30  2  0
 30 31  1  0
 30  2  1  0
 26  7  1  0
 22 11  1  0
M  END
>  <cnnaffinity>  (1) 
-5.55069

>  <filename>  (1) 
O=c1[nH]c(-c2ccc(C(F)(F)F)cn2)cn1-c1cccnc1

$$$$
