
     RDKit          3D

 25 26  0  0  0  0  0  0  0  0999 V2000
    9.5052    5.5069   23.4175 H   0  0  0  0  0  0  0  0  0  0  0  0
    9.7869    4.7230   22.9257 O   0  0  0  0  0  0  0  0  0  0  0  0
    8.4774    3.8468   23.0868 P   0  0  0  0  0  0  0  0  0  0  0  0
    8.1878    3.9647   24.5335 O   0  0  0  0  0  0  0  0  0  0  0  0
    7.4769    4.7935   22.3041 O   0  0  0  0  0  0  0  0  0  0  0  0
    7.7756    5.6552   22.6281 H   0  0  0  0  0  0  0  0  0  0  0  0
    8.5037    2.0104   22.4511 C   0  0  0  0  0  0  0  0  0  0  0  0
    9.5560    1.3092   22.9733 F   0  0  0  0  0  0  0  0  0  0  0  0
    8.6267    1.9520   21.0874 F   0  0  0  0  0  0  0  0  0  0  0  0
    6.9590    1.0919   22.8876 S   0  0  0  0  0  0  0  0  0  0  0  0
    7.5017   -0.4235   22.1638 C   0  0  0  0  0  0  0  0  0  0  0  0
    8.1986   -1.3266   22.7878 N   0  0  0  0  0  0  0  0  0  0  0  0
    8.5651   -2.2377   21.8358 N   0  0  0  0  0  0  0  0  0  0  0  0
    8.1217   -1.9127   20.6750 N   0  0  0  0  0  0  0  0  0  0  0  0
    7.4090   -0.7777   20.8357 N   0  0  0  0  0  0  0  0  0  0  0  0
    6.7399   -0.0863   19.8171 C   0  0  0  0  0  0  0  0  0  0  0  0
    7.1411   -0.1889   18.4701 C   0  0  0  0  0  0  0  0  0  0  0  0
    7.9976   -0.8040   18.2243 H   0  0  0  0  0  0  0  0  0  0  0  0
    6.5372    0.4812   17.4677 N   0  0  0  0  0  0  0  0  0  0  0  0
    5.4939    1.2778   17.7676 C   0  0  0  0  0  0  0  0  0  0  0  0
    4.9942    1.8291   16.9784 H   0  0  0  0  0  0  0  0  0  0  0  0
    5.0269    1.4244   19.0818 C   0  0  0  0  0  0  0  0  0  0  0  0
    4.1779    2.0699   19.2717 H   0  0  0  0  0  0  0  0  0  0  0  0
    5.6590    0.7402   20.1187 C   0  0  0  0  0  0  0  0  0  0  0  0
    5.3050    0.8439   21.1452 H   0  0  0  0  0  0  0  0  0  0  0  0
  1  2  1  0
  2  3  1  0
  3  4  2  0
  3  5  1  0
  5  6  1  0
  3  7  1  0
  7  8  1  0
  7  9  1  0
  7 10  1  0
 10 11  1  0
 11 12  2  0
 12 13  1  0
 13 14  2  0
 14 15  1  0
 15 16  1  0
 16 17  2  0
 17 18  1  0
 17 19  1  0
 19 20  2  0
 20 21  1  0
 20 22  1  0
 22 23  1  0
 22 24  2  0
 24 25  1  0
 15 11  1  0
 24 16  1  0
M  END
>  <cnnaffinity>  (1) 
-4.3842

>  <filename>  (1) 
O=P(O)(O)C(F)(F)Sc1nnnn1-c1cccnc1

$$$$
