
     RDKit          3D

 35 38  0  0  0  0  0  0  0  0999 V2000
    4.9639    1.8170   16.9689 H   0  0  0  0  0  0  0  0  0  0  0  0
    5.4127    1.2910   17.8068 C   0  0  0  0  0  0  0  0  0  0  0  0
    6.5668    0.6548   17.5581 N   0  0  0  0  0  0  0  0  0  0  0  0
    7.1527    0.0068   18.5691 C   0  0  0  0  0  0  0  0  0  0  0  0
    8.1062   -0.4661   18.3370 H   0  0  0  0  0  0  0  0  0  0  0  0
    6.6148   -0.0430   19.8706 C   0  0  0  0  0  0  0  0  0  0  0  0
    7.3597   -0.6631   20.9756 C   0  0  0  0  0  0  0  0  0  0  0  0
    8.4976   -1.3332   20.7343 N   0  0  0  0  0  0  0  0  0  0  0  0
    8.9360   -1.6211   21.9800 N   0  0  0  0  0  0  0  0  0  0  0  0
   10.1417   -2.0607   22.5110 C   0  0  0  0  0  0  0  0  0  0  0  0
   10.8904   -2.4567   21.8500 H   0  0  0  0  0  0  0  0  0  0  0  0
   10.0838   -1.8393   23.8487 C   0  0  0  0  0  0  0  0  0  0  0  0
   10.7934   -2.0358   24.6387 H   0  0  0  0  0  0  0  0  0  0  0  0
    8.8183   -1.2748   24.1528 N   0  0  0  0  0  0  0  0  0  0  0  0
    8.2377   -0.5315   25.5614 S   0  0  0  0  0  0  0  0  0  0  0  0
    6.8906   -1.0163   25.8144 O   0  0  0  0  0  0  0  0  0  0  0  0
    9.2960   -0.6598   26.5474 O   0  0  0  0  0  0  0  0  0  0  0  0
    8.0777    1.1854   25.0495 C   0  0  0  0  0  0  0  0  0  0  0  0
    7.0057    1.9114   25.5811 C   0  0  0  0  0  0  0  0  0  0  0  0
    6.2836    1.4285   26.2382 H   0  0  0  0  0  0  0  0  0  0  0  0
    6.8538    3.2591   25.2583 C   0  0  0  0  0  0  0  0  0  0  0  0
    6.0383    3.8369   25.6809 H   0  0  0  0  0  0  0  0  0  0  0  0
    7.7658    3.8647   24.3899 C   0  0  0  0  0  0  0  0  0  0  0  0
    7.5824    5.5508   23.9964 Cl  0  0  0  0  0  0  0  0  0  0  0  0
    8.8293    3.1400   23.8434 C   0  0  0  0  0  0  0  0  0  0  0  0
    9.5250    3.6379   23.1740 H   0  0  0  0  0  0  0  0  0  0  0  0
    8.9838    1.7888   24.1642 C   0  0  0  0  0  0  0  0  0  0  0  0
    9.7945    1.2304   23.6942 H   0  0  0  0  0  0  0  0  0  0  0  0
    8.1330   -1.1618   22.9488 C   0  0  0  0  0  0  0  0  0  0  0  0
    7.0593   -0.5366   22.3616 C   0  0  0  0  0  0  0  0  0  0  0  0
    6.2505   -0.0286   22.8598 H   0  0  0  0  0  0  0  0  0  0  0  0
    5.4039    0.6258   20.1071 C   0  0  0  0  0  0  0  0  0  0  0  0
    4.9644    0.6473   21.1046 H   0  0  0  0  0  0  0  0  0  0  0  0
    4.7928    1.3021   19.0585 C   0  0  0  0  0  0  0  0  0  0  0  0
    3.8709    1.8511   19.2064 H   0  0  0  0  0  0  0  0  0  0  0  0
  1  2  1  0
  2  3  2  0
  3  4  1  0
  4  5  1  0
  4  6  2  0
  6  7  1  0
  7  8  2  0
  8  9  1  0
  9 10  1  0
 10 11  1  0
 10 12  2  0
 12 13  1  0
 12 14  1  0
 14 15  1  0
 15 16  2  0
 15 17  2  0
 15 18  1  0
 18 19  2  0
 19 20  1  0
 19 21  1  0
 21 22  1  0
 21 23  2  0
 23 24  1  0
 23 25  1  0
 25 26  1  0
 25 27  2  0
 27 28  1  0
 14 29  1  0
 29 30  2  0
 30 31  1  0
  6 32  1  0
 32 33  1  0
 32 34  2  0
 34 35  1  0
 34  2  1  0
 30  7  1  0
 29  9  1  0
 27 18  1  0
M  END
>  <cnnaffinity>  (1) 
-5.75677

>  <filename>  (1) 
O=S(=O)(c1ccc(Cl)cc1)n1ccn2nc(-c3cccnc3)cc12

$$$$
