
     RDKit          3D

 38 41  0  0  0  0  0  0  0  0999 V2000
    4.9617    1.8092   16.9687 H   0  0  0  0  0  0  0  0  0  0  0  0
    5.4007    1.2963   17.8227 C   0  0  0  0  0  0  0  0  0  0  0  0
    6.5620    0.6600   17.6024 N   0  0  0  0  0  0  0  0  0  0  0  0
    7.1468    0.0533   18.6415 C   0  0  0  0  0  0  0  0  0  0  0  0
    8.0861   -0.4591   18.4253 H   0  0  0  0  0  0  0  0  0  0  0  0
    6.6107    0.0506   19.9420 C   0  0  0  0  0  0  0  0  0  0  0  0
    7.3374   -0.6133   21.0252 C   0  0  0  0  0  0  0  0  0  0  0  0
    7.9747   -1.7630   20.8137 N   0  0  0  0  0  0  0  0  0  0  0  0
    8.5142   -2.0612   21.9905 N   0  0  0  0  0  0  0  0  0  0  0  0
    8.3377   -1.1486   22.9482 C   0  0  0  0  0  0  0  0  0  0  0  0
    7.5554   -0.1878   22.3556 C   0  0  0  0  0  0  0  0  0  0  0  0
    7.3862    1.4316   22.9221 S   0  0  0  0  0  0  0  0  0  0  0  0
    8.3657    1.6257   23.9884 O   0  0  0  0  0  0  0  0  0  0  0  0
    7.3513    2.2996   21.7531 O   0  0  0  0  0  0  0  0  0  0  0  0
    5.7609    1.3840   23.6736 C   0  0  0  0  0  0  0  0  0  0  0  0
    4.8875    2.4460   23.4180 C   0  0  0  0  0  0  0  0  0  0  0  0
    5.1768    3.2347   22.7234 H   0  0  0  0  0  0  0  0  0  0  0  0
    3.6539    2.4954   24.0738 C   0  0  0  0  0  0  0  0  0  0  0  0
    2.9858    3.3311   23.8746 H   0  0  0  0  0  0  0  0  0  0  0  0
    3.2818    1.4816   24.9680 C   0  0  0  0  0  0  0  0  0  0  0  0
    2.3092    1.5146   25.4585 H   0  0  0  0  0  0  0  0  0  0  0  0
    4.1658    0.4217   25.2163 C   0  0  0  0  0  0  0  0  0  0  0  0
    3.8798   -0.3759   25.9008 H   0  0  0  0  0  0  0  0  0  0  0  0
    5.4131    0.3738   24.5841 C   0  0  0  0  0  0  0  0  0  0  0  0
    6.0733   -0.4648   24.8086 H   0  0  0  0  0  0  0  0  0  0  0  0
    9.2749   -1.3837   24.0862 C   0  0  0  0  0  0  0  0  0  0  0  0
    9.9881   -0.5616   24.1713 H   0  0  0  0  0  0  0  0  0  0  0  0
    8.7482   -1.4100   25.0411 H   0  0  0  0  0  0  0  0  0  0  0  0
    9.9545   -2.7344   23.7001 C   0  0  0  0  0  0  0  0  0  0  0  0
   11.0403   -2.6727   23.7282 H   0  0  0  0  0  0  0  0  0  0  0  0
    9.6449   -3.5285   24.3771 H   0  0  0  0  0  0  0  0  0  0  0  0
    9.5014   -3.0659   22.2546 C   0  0  0  0  0  0  0  0  0  0  0  0
    9.0437   -4.0495   22.1313 H   0  0  0  0  0  0  0  0  0  0  0  0
   10.2967   -2.9320   21.5201 H   0  0  0  0  0  0  0  0  0  0  0  0
    5.3748    0.6726   20.1385 C   0  0  0  0  0  0  0  0  0  0  0  0
    4.9032    0.6646   21.1202 H   0  0  0  0  0  0  0  0  0  0  0  0
    4.7668    1.3183   19.0663 C   0  0  0  0  0  0  0  0  0  0  0  0
    3.8339    1.8504   19.1946 H   0  0  0  0  0  0  0  0  0  0  0  0
  1  2  1  0
  2  3  2  0
  3  4  1  0
  4  5  1  0
  4  6  2  0
  6  7  1  0
  7  8  2  0
  8  9  1  0
  9 10  1  0
 10 11  2  0
 11 12  1  0
 12 13  2  0
 12 14  2  0
 12 15  1  0
 15 16  2  0
 16 17  1  0
 16 18  1  0
 18 19  1  0
 18 20  2  0
 20 21  1  0
 20 22  1  0
 22 23  1  0
 22 24  2  0
 24 25  1  0
 10 26  1  0
 26 27  1  0
 26 28  1  0
 26 29  1  0
 29 30  1  0
 29 31  1  0
 29 32  1  0
 32 33  1  0
 32 34  1  0
  6 35  1  0
 35 36  1  0
 35 37  2  0
 37 38  1  0
 37  2  1  0
 11  7  1  0
 24 15  1  0
 32  9  1  0
M  END
>  <cnnaffinity>  (1) 
-5.65669

>  <filename>  (1) 
O=S(=O)(c1ccccc1)c1c(-c2cccnc2)nn2c1CCC2

$$$$
