
     RDKit          3D

 31 33  0  0  0  0  0  0  0  0999 V2000
    4.9132    1.8089   16.9744 H   0  0  0  0  0  0  0  0  0  0  0  0
    5.3845    1.3053   17.8190 C   0  0  0  0  0  0  0  0  0  0  0  0
    6.5474    0.6848   17.5571 N   0  0  0  0  0  0  0  0  0  0  0  0
    7.1526    0.0675   18.5758 C   0  0  0  0  0  0  0  0  0  0  0  0
    8.0976   -0.4157   18.3323 H   0  0  0  0  0  0  0  0  0  0  0  0
    6.6610    0.0028   19.8979 C   0  0  0  0  0  0  0  0  0  0  0  0
    7.3957   -0.7031   20.9705 C   0  0  0  0  0  0  0  0  0  0  0  0
    8.7692   -1.0829   21.0358 C   0  0  0  0  0  0  0  0  0  0  0  0
    9.5286   -0.9021   20.2872 H   0  0  0  0  0  0  0  0  0  0  0  0
    9.0828   -1.6937   22.1539 N   0  0  0  0  0  0  0  0  0  0  0  0
    7.9088   -1.7301   22.8689 N   0  0  0  0  0  0  0  0  0  0  0  0
    7.7386   -2.5151   24.4602 S   0  0  0  0  0  0  0  0  0  0  0  0
    6.7044   -3.5296   24.3411 O   0  0  0  0  0  0  0  0  0  0  0  0
    9.0712   -2.8094   24.9464 O   0  0  0  0  0  0  0  0  0  0  0  0
    7.0563   -1.2369   25.5306 C   0  0  0  0  0  0  0  0  0  0  0  0
    5.6699   -1.1696   25.7385 C   0  0  0  0  0  0  0  0  0  0  0  0
    4.9715   -1.8543   25.2554 H   0  0  0  0  0  0  0  0  0  0  0  0
    5.1677   -0.2045   26.6090 C   0  0  0  0  0  0  0  0  0  0  0  0
    4.1070   -0.1295   26.8088 H   0  0  0  0  0  0  0  0  0  0  0  0
    6.0415    0.6719   27.2518 C   0  0  0  0  0  0  0  0  0  0  0  0
    5.4045    1.8627   28.3423 Cl  0  0  0  0  0  0  0  0  0  0  0  0
    7.4171    0.6070   27.0353 C   0  0  0  0  0  0  0  0  0  0  0  0
    8.0690    1.2988   27.5528 H   0  0  0  0  0  0  0  0  0  0  0  0
    7.9364   -0.3545   26.1711 C   0  0  0  0  0  0  0  0  0  0  0  0
    9.0159   -0.4030   26.0220 H   0  0  0  0  0  0  0  0  0  0  0  0
    6.8894   -1.1438   22.1668 C   0  0  0  0  0  0  0  0  0  0  0  0
    5.8927   -1.0787   22.5494 H   0  0  0  0  0  0  0  0  0  0  0  0
    5.4400    0.6542   20.1404 C   0  0  0  0  0  0  0  0  0  0  0  0
    5.0110    0.6529   21.1428 H   0  0  0  0  0  0  0  0  0  0  0  0
    4.7989    1.3150   19.0899 C   0  0  0  0  0  0  0  0  0  0  0  0
    3.8659    1.8479   19.2397 H   0  0  0  0  0  0  0  0  0  0  0  0
  1  2  1  0
  2  3  2  0
  3  4  1  0
  4  5  1  0
  4  6  2  0
  6  7  1  0
  7  8  1  0
  8  9  1  0
  8 10  2  0
 10 11  1  0
 11 12  1  0
 12 13  2  0
 12 14  2  0
 12 15  1  0
 15 16  2  0
 16 17  1  0
 16 18  1  0
 18 19  1  0
 18 20  2  0
 20 21  1  0
 20 22  1  0
 22 23  1  0
 22 24  2  0
 24 25  1  0
 11 26  1  0
 26 27  1  0
  6 28  1  0
 28 29  1  0
 28 30  2  0
 30 31  1  0
 30  2  1  0
 26  7  2  0
 24 15  1  0
M  END
>  <cnnaffinity>  (1) 
-5.19218

>  <filename>  (1) 
O=S(=O)(c1ccc(Cl)cc1)n1cc(-c2cccnc2)cn1

$$$$
