
     RDKit          3D

 31 32  0  0  0  0  0  0  0  0999 V2000
    4.9397    1.8125   17.0050 H   0  0  0  0  0  0  0  0  0  0  0  0
    5.4318    1.2979   17.8295 C   0  0  0  0  0  0  0  0  0  0  0  0
    6.5740    0.6518   17.5391 N   0  0  0  0  0  0  0  0  0  0  0  0
    7.1816   -0.0196   18.5327 C   0  0  0  0  0  0  0  0  0  0  0  0
    8.0980   -0.5529   18.2823 H   0  0  0  0  0  0  0  0  0  0  0  0
    6.6999   -0.0811   19.8677 C   0  0  0  0  0  0  0  0  0  0  0  0
    7.2584   -0.8335   20.9391 N   0  0  0  0  0  0  0  0  0  0  0  0
    6.7773   -0.8258   21.8315 H   0  0  0  0  0  0  0  0  0  0  0  0
    8.7707   -1.2363   21.4974 S   0  0  0  0  0  0  0  0  0  0  0  0
    9.4159   -2.1614   20.5939 O   0  0  0  0  0  0  0  0  0  0  0  0
    8.3979   -1.5608   22.8598 O   0  0  0  0  0  0  0  0  0  0  0  0
    9.7045    0.3159   21.4445 C   0  0  0  0  0  0  0  0  0  0  0  0
    9.6088    0.5284   20.3713 H   0  0  0  0  0  0  0  0  0  0  0  0
    9.1064    1.4851   22.2691 C   0  0  0  0  0  0  0  0  0  0  0  0
    8.0626    1.6818   22.0048 H   0  0  0  0  0  0  0  0  0  0  0  0
    9.1358    1.2617   23.3450 H   0  0  0  0  0  0  0  0  0  0  0  0
    9.9443    2.7368   21.9958 C   0  0  0  0  0  0  0  0  0  0  0  0
    9.9311    2.8946   20.9131 H   0  0  0  0  0  0  0  0  0  0  0  0
    9.5187    3.6406   22.4366 H   0  0  0  0  0  0  0  0  0  0  0  0
   11.3340    2.5901   22.4248 N   0  0  0  0  0  0  0  0  0  0  0  0
   11.3252    2.3871   23.4222 H   0  0  0  0  0  0  0  0  0  0  0  0
   11.9860    1.4749   21.7388 C   0  0  0  0  0  0  0  0  0  0  0  0
   12.9906    1.3627   22.1626 H   0  0  0  0  0  0  0  0  0  0  0  0
   12.1304    1.7694   20.6927 H   0  0  0  0  0  0  0  0  0  0  0  0
   11.2156    0.1327   21.7979 C   0  0  0  0  0  0  0  0  0  0  0  0
   11.3327   -0.2701   22.8147 H   0  0  0  0  0  0  0  0  0  0  0  0
   11.6865   -0.5889   21.1197 H   0  0  0  0  0  0  0  0  0  0  0  0
    5.5148    0.6123   20.1429 C   0  0  0  0  0  0  0  0  0  0  0  0
    5.1182    0.6063   21.1577 H   0  0  0  0  0  0  0  0  0  0  0  0
    4.8688    1.3051   19.1107 C   0  0  0  0  0  0  0  0  0  0  0  0
    3.9399    1.8401   19.2863 H   0  0  0  0  0  0  0  0  0  0  0  0
  1  2  1  0
  2  3  2  0
  3  4  1  0
  4  5  1  0
  4  6  2  0
  6  7  1  0
  7  8  1  0
  7  9  1  0
  9 10  2  0
  9 11  2  0
  9 12  1  0
 12 13  1  0
 12 14  1  0
 14 15  1  0
 14 16  1  0
 14 17  1  0
 17 18  1  0
 17 19  1  0
 17 20  1  0
 20 21  1  0
 20 22  1  0
 22 23  1  0
 22 24  1  0
 22 25  1  0
 25 26  1  0
 25 27  1  0
  6 28  1  0
 28 29  1  0
 28 30  2  0
 30 31  1  0
 30  2  1  0
 25 12  1  0
M  END
>  <cnnaffinity>  (1) 
-4.36398

>  <filename>  (1) 
O=S(=O)(Nc1cccnc1)C1CCNCC1

$$$$
