
     RDKit          3D

 38 41  0  0  0  0  0  0  0  0999 V2000
    4.9614    1.8092   16.9697 H   0  0  0  0  0  0  0  0  0  0  0  0
    5.4006    1.2967   17.8238 C   0  0  0  0  0  0  0  0  0  0  0  0
    6.5621    0.6605   17.6031 N   0  0  0  0  0  0  0  0  0  0  0  0
    7.1468    0.0535   18.6418 C   0  0  0  0  0  0  0  0  0  0  0  0
    8.0863   -0.4586   18.4249 H   0  0  0  0  0  0  0  0  0  0  0  0
    6.6107    0.0501   19.9425 C   0  0  0  0  0  0  0  0  0  0  0  0
    7.3367   -0.6152   21.0248 C   0  0  0  0  0  0  0  0  0  0  0  0
    7.9726   -1.7653   20.8125 N   0  0  0  0  0  0  0  0  0  0  0  0
    8.5110   -2.0648   21.9898 N   0  0  0  0  0  0  0  0  0  0  0  0
    8.3345   -1.1532   22.9479 C   0  0  0  0  0  0  0  0  0  0  0  0
    7.5538   -0.1911   22.3558 C   0  0  0  0  0  0  0  0  0  0  0  0
    7.3849    1.4270   22.9245 S   0  0  0  0  0  0  0  0  0  0  0  0
    8.3616    1.6169   23.9943 O   0  0  0  0  0  0  0  0  0  0  0  0
    7.3521    2.2963   21.7575 O   0  0  0  0  0  0  0  0  0  0  0  0
    5.7617    1.3805   23.6744 C   0  0  0  0  0  0  0  0  0  0  0  0
    4.8897    2.4422   23.4239 C   0  0  0  0  0  0  0  0  0  0  0  0
    5.1796    3.2286   22.7296 H   0  0  0  0  0  0  0  0  0  0  0  0
    3.6552    2.4996   24.0737 C   0  0  0  0  0  0  0  0  0  0  0  0
    2.9747    3.3258   23.8866 H   0  0  0  0  0  0  0  0  0  0  0  0
    3.2952    1.4752   24.9562 C   0  0  0  0  0  0  0  0  0  0  0  0
    1.7222    1.5042   25.7034 Cl  0  0  0  0  0  0  0  0  0  0  0  0
    4.1656    0.4120   25.2168 C   0  0  0  0  0  0  0  0  0  0  0  0
    3.8594   -0.3788   25.8972 H   0  0  0  0  0  0  0  0  0  0  0  0
    5.4104    0.3723   24.5825 C   0  0  0  0  0  0  0  0  0  0  0  0
    6.0658   -0.4689   24.8015 H   0  0  0  0  0  0  0  0  0  0  0  0
    9.2711   -1.3896   24.0861 C   0  0  0  0  0  0  0  0  0  0  0  0
    9.9835   -0.5671   24.1719 H   0  0  0  0  0  0  0  0  0  0  0  0
    8.7440   -1.4163   25.0408 H   0  0  0  0  0  0  0  0  0  0  0  0
    9.9512   -2.7398   23.6993 C   0  0  0  0  0  0  0  0  0  0  0  0
   11.0370   -2.6785   23.7283 H   0  0  0  0  0  0  0  0  0  0  0  0
    9.6412   -3.5349   24.3749 H   0  0  0  0  0  0  0  0  0  0  0  0
    9.4989   -3.0695   22.2533 C   0  0  0  0  0  0  0  0  0  0  0  0
   10.2942   -2.9336   21.5189 H   0  0  0  0  0  0  0  0  0  0  0  0
    9.0421   -4.0534   22.1285 H   0  0  0  0  0  0  0  0  0  0  0  0
    5.3751    0.6723   20.1396 C   0  0  0  0  0  0  0  0  0  0  0  0
    4.9036    0.6634   21.1213 H   0  0  0  0  0  0  0  0  0  0  0  0
    4.7674    1.3184   19.0679 C   0  0  0  0  0  0  0  0  0  0  0  0
    3.8348    1.8512   19.1966 H   0  0  0  0  0  0  0  0  0  0  0  0
  1  2  1  0
  2  3  2  0
  3  4  1  0
  4  5  1  0
  4  6  2  0
  6  7  1  0
  7  8  2  0
  8  9  1  0
  9 10  1  0
 10 11  2  0
 11 12  1  0
 12 13  2  0
 12 14  2  0
 12 15  1  0
 15 16  2  0
 16 17  1  0
 16 18  1  0
 18 19  1  0
 18 20  2  0
 20 21  1  0
 20 22  1  0
 22 23  1  0
 22 24  2  0
 24 25  1  0
 10 26  1  0
 26 27  1  0
 26 28  1  0
 26 29  1  0
 29 30  1  0
 29 31  1  0
 29 32  1  0
 32 33  1  0
 32 34  1  0
  6 35  1  0
 35 36  1  0
 35 37  2  0
 37 38  1  0
 37  2  1  0
 11  7  1  0
 24 15  1  0
 32  9  1  0
M  END
>  <cnnaffinity>  (1) 
-5.80124

>  <filename>  (1) 
O=S(=O)(c1ccc(Cl)cc1)c1c(-c2cccnc2)nn2c1CCC2

$$$$
