
     RDKit          3D

 29 30  0  0  0  0  0  0  0  0999 V2000
    4.8755    1.4425   16.8573 H   0  0  0  0  0  0  0  0  0  0  0  0
    5.4517    1.1740   17.7343 C   0  0  0  0  0  0  0  0  0  0  0  0
    6.6290    0.5753   17.5034 N   0  0  0  0  0  0  0  0  0  0  0  0
    7.3844    0.2593   18.5531 C   0  0  0  0  0  0  0  0  0  0  0  0
    8.3323   -0.2339   18.3333 H   0  0  0  0  0  0  0  0  0  0  0  0
    6.9770    0.5536   19.8431 C   0  0  0  0  0  0  0  0  0  0  0  0
    7.9849   -0.0675   21.0894 S   0  0  0  0  0  0  0  0  0  0  0  0
    7.6716    0.6204   22.3188 O   0  0  0  0  0  0  0  0  0  0  0  0
    9.3330   -0.2480   20.5802 O   0  0  0  0  0  0  0  0  0  0  0  0
    7.4969   -1.6375   21.1661 N   0  0  0  0  0  0  0  0  0  0  0  0
    8.2880   -2.0688   20.7129 H   0  0  0  0  0  0  0  0  0  0  0  0
    6.1360   -2.0886   20.8705 C   0  0  0  0  0  0  0  0  0  0  0  0
    5.8082   -1.8332   19.8462 H   0  0  0  0  0  0  0  0  0  0  0  0
    5.4444   -1.5926   21.5627 H   0  0  0  0  0  0  0  0  0  0  0  0
    6.0340   -3.5841   21.0397 C   0  0  0  0  0  0  0  0  0  0  0  0
    6.0246   -4.4317   19.9176 C   0  0  0  0  0  0  0  0  0  0  0  0
    6.0842   -3.9882   18.9250 H   0  0  0  0  0  0  0  0  0  0  0  0
    5.9298   -5.8156   20.0504 C   0  0  0  0  0  0  0  0  0  0  0  0
    5.9122   -6.4373   19.1577 H   0  0  0  0  0  0  0  0  0  0  0  0
    5.8383   -6.3721   21.3316 C   0  0  0  0  0  0  0  0  0  0  0  0
    5.7398   -7.4416   21.4666 H   0  0  0  0  0  0  0  0  0  0  0  0
    5.8472   -5.5568   22.4661 C   0  0  0  0  0  0  0  0  0  0  0  0
    5.7887   -5.9776   23.4668 H   0  0  0  0  0  0  0  0  0  0  0  0
    5.9375   -4.1724   22.3132 C   0  0  0  0  0  0  0  0  0  0  0  0
    5.9248   -3.1834   23.7528 Cl  0  0  0  0  0  0  0  0  0  0  0  0
    5.7300    1.1279   20.1188 C   0  0  0  0  0  0  0  0  0  0  0  0
    5.3718    1.3155   21.1349 H   0  0  0  0  0  0  0  0  0  0  0  0
    4.9513    1.4337   19.0129 C   0  0  0  0  0  0  0  0  0  0  0  0
    3.9775    1.8888   19.1255 H   0  0  0  0  0  0  0  0  0  0  0  0
  1  2  1  0
  2  3  2  0
  3  4  1  0
  4  5  1  0
  4  6  2  0
  6  7  1  0
  7  8  2  0
  7  9  2  0
  7 10  1  0
 10 11  1  0
 10 12  1  0
 12 13  1  0
 12 14  1  0
 12 15  1  0
 15 16  2  0
 16 17  1  0
 16 18  1  0
 18 19  1  0
 18 20  2  0
 20 21  1  0
 20 22  1  0
 22 23  1  0
 22 24  2  0
 24 25  1  0
  6 26  1  0
 26 27  1  0
 26 28  2  0
 28 29  1  0
 28  2  1  0
 24 15  1  0
M  END
>  <cnnaffinity>  (1) 
-4.43205

>  <filename>  (1) 
O=S(=O)(NCc1ccccc1Cl)c1cccnc1

$$$$
