
     RDKit          3D

 35 38  0  0  0  0  0  0  0  0999 V2000
    5.1856    1.7329   17.2241 H   0  0  0  0  0  0  0  0  0  0  0  0
    5.6489    1.0970   17.9761 C   0  0  0  0  0  0  0  0  0  0  0  0
    6.8252    0.5434   17.6432 N   0  0  0  0  0  0  0  0  0  0  0  0
    7.4384   -0.1970   18.5691 C   0  0  0  0  0  0  0  0  0  0  0  0
    8.3789   -0.6542   18.2737 H   0  0  0  0  0  0  0  0  0  0  0  0
    6.9242   -0.4103   19.8603 C   0  0  0  0  0  0  0  0  0  0  0  0
    7.8072   -1.0379   20.8525 C   0  0  0  0  0  0  0  0  0  0  0  0
    9.1170   -1.0564   20.7961 N   0  0  0  0  0  0  0  0  0  0  0  0
    9.6230   -1.5679   21.9713 N   0  0  0  0  0  0  0  0  0  0  0  0
    8.5889   -1.8499   22.7119 C   0  0  0  0  0  0  0  0  0  0  0  0
    8.1997   -2.5215   24.2774 S   0  0  0  0  0  0  0  0  0  0  0  0
    6.5008   -2.4108   23.8224 C   0  0  0  0  0  0  0  0  0  0  0  0
    5.1997   -2.9894   24.9436 S   0  0  0  0  0  0  0  0  0  0  0  0
    4.0292   -3.3067   24.1549 O   0  0  0  0  0  0  0  0  0  0  0  0
    5.8393   -3.9510   25.8194 O   0  0  0  0  0  0  0  0  0  0  0  0
    4.7929   -1.7084   25.9249 N   0  0  0  0  0  0  0  0  0  0  0  0
    5.6970   -1.2020   26.9683 C   0  0  0  0  0  0  0  0  0  0  0  0
    5.1052   -1.1080   27.8887 H   0  0  0  0  0  0  0  0  0  0  0  0
    6.5118   -1.9018   27.1657 H   0  0  0  0  0  0  0  0  0  0  0  0
    6.2540    0.1801   26.5592 C   0  0  0  0  0  0  0  0  0  0  0  0
    6.7817    0.6603   27.3879 H   0  0  0  0  0  0  0  0  0  0  0  0
    6.9643    0.0341   25.7313 H   0  0  0  0  0  0  0  0  0  0  0  0
    5.2312    1.0943   26.1750 O   0  0  0  0  0  0  0  0  0  0  0  0
    4.4197    0.5799   25.1228 C   0  0  0  0  0  0  0  0  0  0  0  0
    5.0316    0.3984   24.2264 H   0  0  0  0  0  0  0  0  0  0  0  0
    3.6759    1.3470   24.8894 H   0  0  0  0  0  0  0  0  0  0  0  0
    3.7548   -0.7397   25.5451 C   0  0  0  0  0  0  0  0  0  0  0  0
    3.1125   -1.1622   24.7724 H   0  0  0  0  0  0  0  0  0  0  0  0
    3.1342   -0.5610   26.4326 H   0  0  0  0  0  0  0  0  0  0  0  0
    6.2533   -1.9287   22.6458 N   0  0  0  0  0  0  0  0  0  0  0  0
    7.4180   -1.5627   22.0659 N   0  0  0  0  0  0  0  0  0  0  0  0
    5.6544    0.0966   20.1631 C   0  0  0  0  0  0  0  0  0  0  0  0
    5.1995   -0.1331   21.1264 H   0  0  0  0  0  0  0  0  0  0  0  0
    5.0169    0.8867   19.2087 C   0  0  0  0  0  0  0  0  0  0  0  0
    4.0620    1.3554   19.4203 H   0  0  0  0  0  0  0  0  0  0  0  0
  1  2  1  0
  2  3  2  0
  3  4  1  0
  4  5  1  0
  4  6  2  0
  6  7  1  0
  7  8  2  0
  8  9  1  0
  9 10  2  0
 10 11  1  0
 11 12  1  0
 12 13  1  0
 13 14  2  0
 13 15  2  0
 13 16  1  0
 16 17  1  0
 17 18  1  0
 17 19  1  0
 17 20  1  0
 20 21  1  0
 20 22  1  0
 20 23  1  0
 23 24  1  0
 24 25  1  0
 24 26  1  0
 24 27  1  0
 27 28  1  0
 27 29  1  0
 12 30  2  0
 30 31  1  0
  6 32  1  0
 32 33  1  0
 32 34  2  0
 34 35  1  0
 34  2  1  0
 31  7  1  0
 31 10  1  0
 27 16  1  0
M  END
>  <cnnaffinity>  (1) 
-5.09227

>  <filename>  (1) 
O=S(=O)(c1nn2c(-c3cccnc3)nnc2s1)N1CCOCC1

$$$$
