
     RDKit          3D

 36 39  0  0  0  0  0  0  0  0999 V2000
    4.9352    1.7711   16.9654 H   0  0  0  0  0  0  0  0  0  0  0  0
    5.3997    1.3046   17.8345 C   0  0  0  0  0  0  0  0  0  0  0  0
    6.5674    0.6835   17.6076 N   0  0  0  0  0  0  0  0  0  0  0  0
    7.1595    0.1051   18.6548 C   0  0  0  0  0  0  0  0  0  0  0  0
    8.0987   -0.3970   18.4373 H   0  0  0  0  0  0  0  0  0  0  0  0
    6.6596    0.1093   19.9731 C   0  0  0  0  0  0  0  0  0  0  0  0
    7.4424   -0.5745   21.0190 C   0  0  0  0  0  0  0  0  0  0  0  0
    8.3323   -1.5711   20.8151 C   0  0  0  0  0  0  0  0  0  0  0  0
    8.7185   -1.9070   19.8705 H   0  0  0  0  0  0  0  0  0  0  0  0
    8.9314   -2.2895   22.2792 S   0  0  0  0  0  0  0  0  0  0  0  0
    8.0915   -1.0776   23.1960 C   0  0  0  0  0  0  0  0  0  0  0  0
    8.1215   -0.6003   24.4318 N   0  0  0  0  0  0  0  0  0  0  0  0
    7.3557    0.5344   24.3110 C   0  0  0  0  0  0  0  0  0  0  0  0
    7.0191    1.7975   25.6653 S   0  0  0  0  0  0  0  0  0  0  0  0
    7.5312    1.2947   26.9289 O   0  0  0  0  0  0  0  0  0  0  0  0
    5.6327    2.2081   25.5528 O   0  0  0  0  0  0  0  0  0  0  0  0
    7.9505    3.1938   25.2933 N   0  0  0  0  0  0  0  0  0  0  0  0
    9.3916    2.9396   25.0507 C   0  0  0  0  0  0  0  0  0  0  0  0
    9.4929    2.2871   24.1770 H   0  0  0  0  0  0  0  0  0  0  0  0
    9.8784    2.4451   25.9083 H   0  0  0  0  0  0  0  0  0  0  0  0
   10.0860    4.2701   24.7090 C   0  0  0  0  0  0  0  0  0  0  0  0
   11.1636    4.1175   24.6236 H   0  0  0  0  0  0  0  0  0  0  0  0
    9.7174    4.6357   23.7357 H   0  0  0  0  0  0  0  0  0  0  0  0
    9.8970    5.2521   25.7171 O   0  0  0  0  0  0  0  0  0  0  0  0
    8.5193    5.5227   25.9199 C   0  0  0  0  0  0  0  0  0  0  0  0
    8.4657    6.2429   26.7389 H   0  0  0  0  0  0  0  0  0  0  0  0
    8.0855    5.9870   25.0194 H   0  0  0  0  0  0  0  0  0  0  0  0
    7.7175    4.2674   26.2959 C   0  0  0  0  0  0  0  0  0  0  0  0
    7.9969    3.9487   27.3147 H   0  0  0  0  0  0  0  0  0  0  0  0
    6.6541    4.5281   26.2741 H   0  0  0  0  0  0  0  0  0  0  0  0
    6.8523    0.7583   23.1088 N   0  0  0  0  0  0  0  0  0  0  0  0
    7.3269   -0.3009   22.3917 N   0  0  0  0  0  0  0  0  0  0  0  0
    5.4269    0.7535   20.1889 C   0  0  0  0  0  0  0  0  0  0  0  0
    4.9912    0.7884   21.1877 H   0  0  0  0  0  0  0  0  0  0  0  0
    4.7949    1.3482   19.0942 C   0  0  0  0  0  0  0  0  0  0  0  0
    3.8428    1.8539   19.1969 H   0  0  0  0  0  0  0  0  0  0  0  0
  1  2  1  0
  2  3  2  0
  3  4  1  0
  4  5  1  0
  4  6  2  0
  6  7  1  0
  7  8  2  0
  8  9  1  0
  8 10  1  0
 10 11  1  0
 11 12  2  0
 12 13  1  0
 13 14  1  0
 14 15  2  0
 14 16  2  0
 14 17  1  0
 17 18  1  0
 18 19  1  0
 18 20  1  0
 18 21  1  0
 21 22  1  0
 21 23  1  0
 21 24  1  0
 24 25  1  0
 25 26  1  0
 25 27  1  0
 25 28  1  0
 28 29  1  0
 28 30  1  0
 13 31  2  0
 31 32  1  0
  6 33  1  0
 33 34  1  0
 33 35  2  0
 35 36  1  0
 35  2  1  0
 32  7  1  0
 32 11  1  0
 28 17  1  0
M  END
>  <cnnaffinity>  (1) 
-5.30225

>  <filename>  (1) 
O=S(=O)(c1nc2scc(-c3cccnc3)n2n1)N1CCOCC1

$$$$
