
     RDKit          3D

 27 28  0  0  0  0  0  0  0  0999 V2000
    4.9038    1.8168   16.9584 H   0  0  0  0  0  0  0  0  0  0  0  0
    5.3760    1.2902   17.7878 C   0  0  0  0  0  0  0  0  0  0  0  0
    6.5054    0.6254   17.5019 N   0  0  0  0  0  0  0  0  0  0  0  0
    7.1257    0.0076   18.5142 C   0  0  0  0  0  0  0  0  0  0  0  0
    8.0375   -0.5313   18.2479 H   0  0  0  0  0  0  0  0  0  0  0  0
    6.6847    0.0252   19.8570 C   0  0  0  0  0  0  0  0  0  0  0  0
    7.4444   -0.6228   21.0009 C   0  0  0  0  0  0  0  0  0  0  0  0
    8.0420   -1.4857   20.6890 H   0  0  0  0  0  0  0  0  0  0  0  0
    6.7716   -0.9481   21.7972 H   0  0  0  0  0  0  0  0  0  0  0  0
    8.7067    0.3317   21.9098 S   0  0  0  0  0  0  0  0  0  0  0  0
    9.7243    0.7500   20.9484 O   0  0  0  0  0  0  0  0  0  0  0  0
    9.0658   -0.5271   23.0356 O   0  0  0  0  0  0  0  0  0  0  0  0
    7.8695    1.8341   22.5039 C   0  0  0  0  0  0  0  0  0  0  0  0
    7.0999    1.8734   23.6856 C   0  0  0  0  0  0  0  0  0  0  0  0
    7.0313    1.0593   24.4021 H   0  0  0  0  0  0  0  0  0  0  0  0
    6.3735    3.0303   23.9692 C   0  0  0  0  0  0  0  0  0  0  0  0
    5.6591    3.0898   25.1025 F   0  0  0  0  0  0  0  0  0  0  0  0
    6.3618    4.1400   23.1336 C   0  0  0  0  0  0  0  0  0  0  0  0
    5.7612    5.0146   23.3394 H   0  0  0  0  0  0  0  0  0  0  0  0
    7.1780    4.0927   22.0118 C   0  0  0  0  0  0  0  0  0  0  0  0
    7.2142    5.1625   21.2072 F   0  0  0  0  0  0  0  0  0  0  0  0
    7.9635    2.9873   21.7029 C   0  0  0  0  0  0  0  0  0  0  0  0
    8.6578    3.0724   20.8714 H   0  0  0  0  0  0  0  0  0  0  0  0
    5.4697    0.6750   20.1108 C   0  0  0  0  0  0  0  0  0  0  0  0
    5.0364    0.6690   21.1135 H   0  0  0  0  0  0  0  0  0  0  0  0
    4.8077    1.3219   19.0627 C   0  0  0  0  0  0  0  0  0  0  0  0
    3.8810    1.8581   19.2220 H   0  0  0  0  0  0  0  0  0  0  0  0
  1  2  1  0
  2  3  2  0
  3  4  1  0
  4  5  1  0
  4  6  2  0
  6  7  1  0
  7  8  1  0
  7  9  1  0
  7 10  1  0
 10 11  2  0
 10 12  2  0
 10 13  1  0
 13 14  2  0
 14 15  1  0
 14 16  1  0
 16 17  1  0
 16 18  2  0
 18 19  1  0
 18 20  1  0
 20 21  1  0
 20 22  2  0
 22 23  1  0
  6 24  1  0
 24 25  1  0
 24 26  2  0
 26 27  1  0
 26  2  1  0
 22 13  1  0
M  END
>  <cnnaffinity>  (1) 
-4.36227

>  <filename>  (1) 
O=S(=O)(Cc1cccnc1)c1cc(F)cc(F)c1

$$$$
