
     RDKit          3D

 27 28  0  0  0  0  0  0  0  0999 V2000
    6.4263   -1.7300   22.0197 O   0  0  0  0  0  0  0  0  0  0  0  0
    7.4762   -1.0234   21.2978 S   0  0  0  0  0  0  0  0  0  0  0  0
    8.5575   -1.7424   20.6273 O   0  0  0  0  0  0  0  0  0  0  0  0
    8.3429   -0.0206   22.5008 C   0  0  0  0  0  0  0  0  0  0  0  0
    7.6261    1.2179   22.9373 C   0  0  0  0  0  0  0  0  0  0  0  0
    6.7202    1.1760   24.0025 C   0  0  0  0  0  0  0  0  0  0  0  0
    5.9755    2.3016   24.3589 C   0  0  0  0  0  0  0  0  0  0  0  0
    6.1475    3.5046   23.6592 C   0  0  0  0  0  0  0  0  0  0  0  0
    7.0685    3.5799   22.6103 C   0  0  0  0  0  0  0  0  0  0  0  0
    7.7862    2.4389   22.2530 C   0  0  0  0  0  0  0  0  0  0  0  0
    8.8929    2.5459   20.9225 Cl  0  0  0  0  0  0  0  0  0  0  0  0
    7.2453    4.5123   22.0770 H   0  0  0  0  0  0  0  0  0  0  0  0
    5.5828    4.3844   23.9494 H   0  0  0  0  0  0  0  0  0  0  0  0
    5.2924    2.2364   25.2001 H   0  0  0  0  0  0  0  0  0  0  0  0
    6.6288    0.2451   24.5638 H   0  0  0  0  0  0  0  0  0  0  0  0
    8.4526   -0.7533   23.3050 H   0  0  0  0  0  0  0  0  0  0  0  0
    9.3200    0.1671   22.0433 H   0  0  0  0  0  0  0  0  0  0  0  0
    6.7088    0.0166   20.1069 C   0  0  0  0  0  0  0  0  0  0  0  0
    5.4922    0.6841   20.2992 C   0  0  0  0  0  0  0  0  0  0  0  0
    4.9588    1.3397   19.1931 C   0  0  0  0  0  0  0  0  0  0  0  0
    5.6436    1.2964   17.9761 C   0  0  0  0  0  0  0  0  0  0  0  0
    6.8068    0.6485   17.8129 N   0  0  0  0  0  0  0  0  0  0  0  0
    7.3265    0.0243   18.8648 C   0  0  0  0  0  0  0  0  0  0  0  0
    8.2740   -0.4942   18.7237 H   0  0  0  0  0  0  0  0  0  0  0  0
    5.2412    1.7912   17.0930 H   0  0  0  0  0  0  0  0  0  0  0  0
    4.0193    1.8754   19.2564 H   0  0  0  0  0  0  0  0  0  0  0  0
    4.9604    0.6853   21.2542 H   0  0  0  0  0  0  0  0  0  0  0  0
  1  2  2  0
  2  3  2  0
  2  4  1  0
  4  5  1  0
  5  6  2  0
  6  7  1  0
  7  8  2  0
  8  9  1  0
  9 10  2  0
 10 11  1  0
  9 12  1  0
  8 13  1  0
  7 14  1  0
  6 15  1  0
  4 16  1  0
  4 17  1  0
  2 18  1  0
 18 19  2  0
 19 20  1  0
 20 21  2  0
 21 22  1  0
 22 23  2  0
 23 24  1  0
 21 25  1  0
 20 26  1  0
 19 27  1  0
 10  5  1  0
 23 18  1  0
M  END
>  <cnnaffinity>  (1) 
-4.01224

>  <filename>  (1) 
O=S(=O)(Cc1ccccc1Cl)c1cccnc1

$$$$
