
     RDKit          3D

 24 25  0  0  0  0  0  0  0  0999 V2000
    7.1382   -2.2780   21.0506 O   0  0  0  0  0  0  0  0  0  0  0  0
    7.5637   -0.8966   21.1333 S   0  0  0  0  0  0  0  0  0  0  0  0
    8.9586   -0.5614   20.9519 O   0  0  0  0  0  0  0  0  0  0  0  0
    7.0226   -0.2462   22.5426 O   0  0  0  0  0  0  0  0  0  0  0  0
    7.4905   -0.7122   23.7878 C   0  0  0  0  0  0  0  0  0  0  0  0
    8.4242   -1.7408   23.8958 C   0  0  0  0  0  0  0  0  0  0  0  0
    8.8002   -2.1472   25.1807 C   0  0  0  0  0  0  0  0  0  0  0  0
    9.8794   -3.4885   25.3862 Cl  0  0  0  0  0  0  0  0  0  0  0  0
    8.2707   -1.4866   26.2965 C   0  0  0  0  0  0  0  0  0  0  0  0
    7.3755   -0.4956   26.1849 N   0  0  0  0  0  0  0  0  0  0  0  0
    6.9777   -0.1150   24.9606 C   0  0  0  0  0  0  0  0  0  0  0  0
    6.2341    0.6782   24.9013 H   0  0  0  0  0  0  0  0  0  0  0  0
    8.5698   -1.7661   27.3043 H   0  0  0  0  0  0  0  0  0  0  0  0
    8.8554   -2.2277   23.0254 H   0  0  0  0  0  0  0  0  0  0  0  0
    6.6305    0.0554   20.0462 C   0  0  0  0  0  0  0  0  0  0  0  0
    5.4045    0.6820   20.2842 C   0  0  0  0  0  0  0  0  0  0  0  0
    4.8191    1.2929   19.1778 C   0  0  0  0  0  0  0  0  0  0  0  0
    5.4673    1.2341   17.9384 C   0  0  0  0  0  0  0  0  0  0  0  0
    6.6300    0.5952   17.7373 N   0  0  0  0  0  0  0  0  0  0  0  0
    7.2075    0.0173   18.7846 C   0  0  0  0  0  0  0  0  0  0  0  0
    8.1625   -0.4711   18.5987 H   0  0  0  0  0  0  0  0  0  0  0  0
    5.0312    1.7145   17.0653 H   0  0  0  0  0  0  0  0  0  0  0  0
    3.8783    1.8243   19.2619 H   0  0  0  0  0  0  0  0  0  0  0  0
    4.9218    0.7056   21.2676 H   0  0  0  0  0  0  0  0  0  0  0  0
  1  2  2  0
  2  3  2  0
  2  4  1  0
  4  5  1  0
  5  6  2  0
  6  7  1  0
  7  8  1  0
  7  9  2  0
  9 10  1  0
 10 11  2  0
 11 12  1  0
  9 13  1  0
  6 14  1  0
  2 15  1  0
 15 16  2  0
 16 17  1  0
 17 18  2  0
 18 19  1  0
 19 20  2  0
 20 21  1  0
 18 22  1  0
 17 23  1  0
 16 24  1  0
 11  5  1  0
 20 15  1  0
M  END
>  <cnnaffinity>  (1) 
-4.65795

>  <filename>  (1) 
O=S(=O)(Oc1cncc(Cl)c1)c1cccnc1

$$$$
