
     RDKit          3D

 40 43  0  0  0  0  0  0  0  0999 V2000
    4.9435    1.8485   16.9425 H   0  0  0  0  0  0  0  0  0  0  0  0
    5.3894    1.3088   17.7746 C   0  0  0  0  0  0  0  0  0  0  0  0
    6.5379    0.6619   17.5133 N   0  0  0  0  0  0  0  0  0  0  0  0
    7.1292    0.0225   18.5267 C   0  0  0  0  0  0  0  0  0  0  0  0
    8.0623   -0.4924   18.2936 H   0  0  0  0  0  0  0  0  0  0  0  0
    6.6212    0.0172   19.8378 C   0  0  0  0  0  0  0  0  0  0  0  0
    7.3649   -0.5973   20.9359 C   0  0  0  0  0  0  0  0  0  0  0  0
    8.1336   -1.6669   20.7362 N   0  0  0  0  0  0  0  0  0  0  0  0
    8.6586   -1.8908   21.9331 N   0  0  0  0  0  0  0  0  0  0  0  0
    8.3359   -1.0278   22.9041 C   0  0  0  0  0  0  0  0  0  0  0  0
    7.4293   -0.1718   22.3134 C   0  0  0  0  0  0  0  0  0  0  0  0
    6.6810    0.8801   22.9438 N   0  0  0  0  0  0  0  0  0  0  0  0
    7.1110    1.7806   22.7616 H   0  0  0  0  0  0  0  0  0  0  0  0
    6.7221    1.0076   24.6357 S   0  0  0  0  0  0  0  0  0  0  0  0
    6.2189   -0.2031   25.2530 O   0  0  0  0  0  0  0  0  0  0  0  0
    8.0526    1.5247   24.9127 O   0  0  0  0  0  0  0  0  0  0  0  0
    5.5462    2.3182   24.8056 C   0  0  0  0  0  0  0  0  0  0  0  0
    5.7878    3.4099   25.6509 C   0  0  0  0  0  0  0  0  0  0  0  0
    6.7345    3.5153   26.1809 H   0  0  0  0  0  0  0  0  0  0  0  0
    4.7925    4.3815   25.7848 C   0  0  0  0  0  0  0  0  0  0  0  0
    4.9630    5.2274   26.4437 H   0  0  0  0  0  0  0  0  0  0  0  0
    3.5818    4.2745   25.0886 C   0  0  0  0  0  0  0  0  0  0  0  0
    2.8099    5.0307   25.2095 H   0  0  0  0  0  0  0  0  0  0  0  0
    3.3681    3.1901   24.2297 C   0  0  0  0  0  0  0  0  0  0  0  0
    2.4402    3.1017   23.6730 H   0  0  0  0  0  0  0  0  0  0  0  0
    4.3543    2.2220   24.0737 C   0  0  0  0  0  0  0  0  0  0  0  0
    4.2345    1.4197   23.3505 H   0  0  0  0  0  0  0  0  0  0  0  0
    9.1512   -1.3049   24.1361 C   0  0  0  0  0  0  0  0  0  0  0  0
    9.7400   -0.4268   24.4199 H   0  0  0  0  0  0  0  0  0  0  0  0
    8.4969   -1.5459   24.9763 H   0  0  0  0  0  0  0  0  0  0  0  0
   10.0490   -2.4963   23.7002 C   0  0  0  0  0  0  0  0  0  0  0  0
   10.0032   -3.3324   24.3986 H   0  0  0  0  0  0  0  0  0  0  0  0
   11.0809   -2.1787   23.6241 H   0  0  0  0  0  0  0  0  0  0  0  0
    9.6044   -2.9072   22.2776 C   0  0  0  0  0  0  0  0  0  0  0  0
   10.4268   -2.8509   21.5654 H   0  0  0  0  0  0  0  0  0  0  0  0
    9.1282   -3.8885   22.2222 H   0  0  0  0  0  0  0  0  0  0  0  0
    5.4024    0.6639   20.0843 C   0  0  0  0  0  0  0  0  0  0  0  0
    4.9968    0.6598   21.0973 H   0  0  0  0  0  0  0  0  0  0  0  0
    4.7761    1.3186   19.0314 C   0  0  0  0  0  0  0  0  0  0  0  0
    3.8504    1.8622   19.1785 H   0  0  0  0  0  0  0  0  0  0  0  0
  1  2  1  0
  2  3  2  0
  3  4  1  0
  4  5  1  0
  4  6  2  0
  6  7  1  0
  7  8  2  0
  8  9  1  0
  9 10  1  0
 10 11  2  0
 11 12  1  0
 12 13  1  0
 12 14  1  0
 14 15  2  0
 14 16  2  0
 14 17  1  0
 17 18  2  0
 18 19  1  0
 18 20  1  0
 20 21  1  0
 20 22  2  0
 22 23  1  0
 22 24  1  0
 24 25  1  0
 24 26  2  0
 26 27  1  0
 10 28  1  0
 28 29  1  0
 28 30  1  0
 28 31  1  0
 31 32  1  0
 31 33  1  0
 31 34  1  0
 34 35  1  0
 34 36  1  0
  6 37  1  0
 37 38  1  0
 37 39  2  0
 39 40  1  0
 39  2  1  0
 11  7  1  0
 26 17  1  0
 34  9  1  0
M  END
>  <cnnaffinity>  (1) 
-5.52798

>  <filename>  (1) 
O=S(=O)(Nc1c(-c2cccnc2)nn2c1CCC2)c1ccccc1

$$$$
