
     RDKit          3D

 43 46  0  0  0  0  0  0  0  0999 V2000
    5.0358    1.8712   16.9978 H   0  0  0  0  0  0  0  0  0  0  0  0
    5.4948    1.4099   17.8683 C   0  0  0  0  0  0  0  0  0  0  0  0
    6.6960    0.8510   17.6767 N   0  0  0  0  0  0  0  0  0  0  0  0
    7.2760    0.2675   18.7335 C   0  0  0  0  0  0  0  0  0  0  0  0
    8.2566   -0.1636   18.5292 H   0  0  0  0  0  0  0  0  0  0  0  0
    6.7099    0.1774   20.0238 C   0  0  0  0  0  0  0  0  0  0  0  0
    7.5195   -0.4609   21.1750 C   0  0  2  0  0  0  0  0  0  0  0  0
    8.3878    0.5657   21.8293 N   0  0  0  0  0  0  0  0  0  0  0  0
    7.6905    1.7468   22.3457 C   0  0  0  0  0  0  0  0  0  0  0  0
    6.6816    1.5006   22.6953 H   0  0  0  0  0  0  0  0  0  0  0  0
    7.5445    2.5156   21.5662 H   0  0  0  0  0  0  0  0  0  0  0  0
    8.4780    2.2981   23.5210 C   0  0  0  0  0  0  0  0  0  0  0  0
    8.2108    3.3216   23.7768 H   0  0  0  0  0  0  0  0  0  0  0  0
    8.4353    1.6474   24.3956 H   0  0  0  0  0  0  0  0  0  0  0  0
   10.2079    2.3206   23.1495 S   0  0  0  0  0  0  0  0  0  0  0  0
   10.7477    3.6187   23.5099 O   0  0  0  0  0  0  0  0  0  0  0  0
   10.7976    1.1035   23.7047 O   0  0  0  0  0  0  0  0  0  0  0  0
   10.2227    2.1593   21.3893 C   0  0  0  0  0  0  0  0  0  0  0  0
   11.2642    2.2715   21.0988 H   0  0  0  0  0  0  0  0  0  0  0  0
    9.6143    2.9603   20.9759 H   0  0  0  0  0  0  0  0  0  0  0  0
    9.6431    0.8020   21.0875 C   0  0  0  0  0  0  0  0  0  0  0  0
    9.5091    0.7128   20.0019 H   0  0  0  0  0  0  0  0  0  0  0  0
   10.3711    0.0395   21.3974 H   0  0  0  0  0  0  0  0  0  0  0  0
    8.3718   -1.6927   20.6790 C   0  0  0  0  0  0  0  0  0  0  0  0
    7.9976   -1.8622   19.6808 H   0  0  0  0  0  0  0  0  0  0  0  0
    9.4409   -1.5004   20.6151 H   0  0  0  0  0  0  0  0  0  0  0  0
    8.0761   -2.8785   21.6223 C   0  0  2  0  0  0  0  0  0  0  0  0
    8.9061   -3.5885   21.6958 H   0  0  0  0  0  0  0  0  0  0  0  0
    6.7325   -3.5136   21.2274 C   0  0  0  0  0  0  0  0  0  0  0  0
    6.6901   -3.8764   20.1937 H   0  0  0  0  0  0  0  0  0  0  0  0
    6.5201   -4.3786   21.8704 H   0  0  0  0  0  0  0  0  0  0  0  0
    5.7475   -2.3369   21.4972 C   0  0  0  0  0  0  0  0  0  0  0  0
    5.3474   -1.9515   20.5515 H   0  0  0  0  0  0  0  0  0  0  0  0
    4.9111   -2.6708   22.1207 H   0  0  0  0  0  0  0  0  0  0  0  0
    6.6378   -1.2571   22.2151 C   0  0  1  0  0  0  0  0  0  0  0  0
    6.0897   -0.5781   22.8700 H   0  0  0  0  0  0  0  0  0  0  0  0
    7.6826   -2.1471   22.9151 C   0  0  0  0  0  0  0  0  0  0  0  0
    8.5017   -1.5621   23.3480 H   0  0  0  0  0  0  0  0  0  0  0  0
    7.2495   -2.7988   23.6886 H   0  0  0  0  0  0  0  0  0  0  0  0
    5.4615    0.7964   20.2029 C   0  0  0  0  0  0  0  0  0  0  0  0
    4.9639    0.8057   21.1760 H   0  0  0  0  0  0  0  0  0  0  0  0
    4.8452    1.4148   19.1073 C   0  0  0  0  0  0  0  0  0  0  0  0
    3.8782    1.8879   19.2028 H   0  0  0  0  0  0  0  0  0  0  0  0
  1  2  1  0
  2  3  2  0
  3  4  1  0
  4  5  1  0
  4  6  2  0
  6  7  1  0
  7  8  1  1
  8  9  1  0
  9 10  1  0
  9 11  1  0
  9 12  1  0
 12 13  1  0
 12 14  1  0
 12 15  1  0
 15 16  2  0
 15 17  2  0
 15 18  1  0
 18 19  1  0
 18 20  1  0
 18 21  1  0
 21 22  1  0
 21 23  1  0
  7 24  1  0
 24 25  1  0
 24 26  1  0
 24 27  1  0
 27 28  1  1
 27 29  1  0
 29 30  1  0
 29 31  1  0
 29 32  1  0
 32 33  1  0
 32 34  1  0
 32 35  1  0
 35 36  1  1
 35 37  1  0
 37 38  1  0
 37 39  1  0
  6 40  1  0
 40 41  1  0
 40 42  2  0
 42 43  1  0
 42  2  1  0
 35  7  1  0
 21  8  1  0
 37 27  1  0
M  END
>  <cnnaffinity>  (1) 
-5.17415

>  <filename>  (1) 
O=S1(=O)CCN([C@@]2(c3cccnc3)C[C@@H]3CC[C@H]2C3)CC1

$$$$
