
     RDKit          3D

 38 40  0  0  0  0  0  0  0  0999 V2000
    4.9327    1.8143   17.0060 H   0  0  0  0  0  0  0  0  0  0  0  0
    5.4076    1.2901   17.8321 C   0  0  0  0  0  0  0  0  0  0  0  0
    6.5578    0.6568   17.5521 N   0  0  0  0  0  0  0  0  0  0  0  0
    7.1767    0.0197   18.5579 C   0  0  0  0  0  0  0  0  0  0  0  0
    8.1181   -0.4767   18.3059 H   0  0  0  0  0  0  0  0  0  0  0  0
    6.6995   -0.0332   19.8971 C   0  0  0  0  0  0  0  0  0  0  0  0
    7.3827   -0.7088   20.9327 N   0  0  0  0  0  0  0  0  0  0  0  0
    7.2050   -1.6576   21.2033 H   0  0  0  0  0  0  0  0  0  0  0  0
    8.3255   -0.1574   21.8577 C   0  0  0  0  0  0  0  0  0  0  0  0
    8.7390   -1.2752   22.6856 N   0  0  0  0  0  0  0  0  0  0  0  0
    7.7392   -1.7519   23.6415 C   0  0  0  0  0  0  0  0  0  0  0  0
    7.0865   -0.9255   23.9630 H   0  0  0  0  0  0  0  0  0  0  0  0
    7.0632   -2.5222   23.2347 H   0  0  0  0  0  0  0  0  0  0  0  0
    8.4811   -2.2954   24.8468 C   0  0  0  0  0  0  0  0  0  0  0  0
    9.0690   -1.5312   25.3545 H   0  0  0  0  0  0  0  0  0  0  0  0
    7.8584   -2.8279   25.5634 H   0  0  0  0  0  0  0  0  0  0  0  0
    9.5945   -3.5418   24.2952 S   0  0  0  0  0  0  0  0  0  0  0  0
   10.4927   -3.8594   25.3891 O   0  0  0  0  0  0  0  0  0  0  0  0
    8.7877   -4.5743   23.6459 O   0  0  0  0  0  0  0  0  0  0  0  0
   10.5291   -2.7597   23.0307 C   0  0  0  0  0  0  0  0  0  0  0  0
   11.0278   -1.9095   23.4870 H   0  0  0  0  0  0  0  0  0  0  0  0
   11.2484   -3.5118   22.7299 H   0  0  0  0  0  0  0  0  0  0  0  0
    9.5632   -2.2623   21.9810 C   0  0  0  0  0  0  0  0  0  0  0  0
    8.9873   -3.0852   21.5245 H   0  0  0  0  0  0  0  0  0  0  0  0
   10.1216   -1.7906   21.1556 H   0  0  0  0  0  0  0  0  0  0  0  0
    7.8865    1.1265   22.6076 C   0  0  0  0  0  0  0  0  0  0  0  0
    8.0947    1.0783   23.6780 H   0  0  0  0  0  0  0  0  0  0  0  0
    6.8390    1.3736   22.4447 H   0  0  0  0  0  0  0  0  0  0  0  0
    8.9184    1.9621   21.8118 C   0  0  0  0  0  0  0  0  0  0  0  0
    9.6380    2.5121   22.4283 H   0  0  0  0  0  0  0  0  0  0  0  0
    8.4719    2.6524   21.0870 H   0  0  0  0  0  0  0  0  0  0  0  0
    9.4666    0.6575   21.1905 C   0  0  0  0  0  0  0  0  0  0  0  0
    9.4235    0.5943   20.1035 H   0  0  0  0  0  0  0  0  0  0  0  0
   10.4600    0.3785   21.5442 H   0  0  0  0  0  0  0  0  0  0  0  0
    5.4731    0.6071   20.1449 C   0  0  0  0  0  0  0  0  0  0  0  0
    5.0590    0.5894   21.1528 H   0  0  0  0  0  0  0  0  0  0  0  0
    4.8249    1.2806   19.1003 C   0  0  0  0  0  0  0  0  0  0  0  0
    3.8969    1.8146   19.2708 H   0  0  0  0  0  0  0  0  0  0  0  0
  1  2  1  0
  2  3  2  0
  3  4  1  0
  4  5  1  0
  4  6  2  0
  6  7  1  0
  7  8  1  0
  7  9  1  0
  9 10  1  0
 10 11  1  0
 11 12  1  0
 11 13  1  0
 11 14  1  0
 14 15  1  0
 14 16  1  0
 14 17  1  0
 17 18  2  0
 17 19  2  0
 17 20  1  0
 20 21  1  0
 20 22  1  0
 20 23  1  0
 23 24  1  0
 23 25  1  0
  9 26  1  0
 26 27  1  0
 26 28  1  0
 26 29  1  0
 29 30  1  0
 29 31  1  0
 29 32  1  0
 32 33  1  0
 32 34  1  0
  6 35  1  0
 35 36  1  0
 35 37  2  0
 37 38  1  0
 37  2  1  0
 32  9  1  0
 23 10  1  0
M  END
>  <cnnaffinity>  (1) 
-5.31034

>  <filename>  (1) 
O=S1(=O)CCN(C2(Nc3cccnc3)CCC2)CC1

$$$$
