
     RDKit          3D

 37 40  0  0  0  0  0  0  0  0999 V2000
    6.2906   -6.3798   22.9133 H   0  0  0  0  0  0  0  0  0  0  0  0
    5.4004   -6.2481   22.5449 O   0  0  0  0  0  0  0  0  0  0  0  0
    5.0552   -4.8745   22.6074 C   0  0  2  0  0  0  0  0  0  0  0  0
    4.1122   -4.7824   22.0563 H   0  0  0  0  0  0  0  0  0  0  0  0
    6.0778   -3.9900   21.9094 C   0  0  0  0  0  0  0  0  0  0  0  0
    7.2981   -4.3061   21.6451 N   0  0  0  0  0  0  0  0  0  0  0  0
    7.9326   -3.1395   21.2794 N   0  0  0  0  0  0  0  0  0  0  0  0
    7.0496   -2.1899   21.3102 C   0  0  0  0  0  0  0  0  0  0  0  0
    7.3135   -0.7199   21.0862 C   0  0  0  0  0  0  0  0  0  0  0  0
    6.5847   -0.0161   19.9611 C   0  0  0  0  0  0  0  0  0  0  0  0
    7.1327    0.0264   18.6648 C   0  0  0  0  0  0  0  0  0  0  0  0
    8.0773   -0.4808   18.4742 H   0  0  0  0  0  0  0  0  0  0  0  0
    6.5834    0.6533   17.6137 N   0  0  0  0  0  0  0  0  0  0  0  0
    5.4233    1.2918   17.8239 C   0  0  0  0  0  0  0  0  0  0  0  0
    4.9874    1.7967   16.9575 H   0  0  0  0  0  0  0  0  0  0  0  0
    4.7837    1.3208   19.0659 C   0  0  0  0  0  0  0  0  0  0  0  0
    3.8441    1.8487   19.1691 H   0  0  0  0  0  0  0  0  0  0  0  0
    5.3779    0.6673   20.1538 C   0  0  0  0  0  0  0  0  0  0  0  0
    4.9273    0.6904   21.1469 H   0  0  0  0  0  0  0  0  0  0  0  0
    8.7567   -0.3023   21.3091 C   0  0  0  0  0  0  0  0  0  0  0  0
    9.1837    0.4557   20.6564 H   0  0  0  0  0  0  0  0  0  0  0  0
    9.4316   -1.1004   21.6045 H   0  0  0  0  0  0  0  0  0  0  0  0
    7.7316    0.1228   22.3000 C   0  0  0  0  0  0  0  0  0  0  0  0
    7.4602    1.1773   22.3087 H   0  0  0  0  0  0  0  0  0  0  0  0
    7.7342   -0.3422   23.2803 H   0  0  0  0  0  0  0  0  0  0  0  0
    5.8253   -2.6742   21.6796 O   0  0  0  0  0  0  0  0  0  0  0  0
    4.8119   -4.3982   24.0475 C   0  0  0  0  0  0  0  0  0  0  0  0
    3.5090   -4.1987   24.5321 C   0  0  0  0  0  0  0  0  0  0  0  0
    2.6521   -4.3733   23.8834 H   0  0  0  0  0  0  0  0  0  0  0  0
    3.2927   -3.7668   25.8461 C   0  0  0  0  0  0  0  0  0  0  0  0
    2.2789   -3.5952   26.2028 H   0  0  0  0  0  0  0  0  0  0  0  0
    4.3802   -3.5465   26.6981 C   0  0  0  0  0  0  0  0  0  0  0  0
    4.2155   -3.2034   27.7166 H   0  0  0  0  0  0  0  0  0  0  0  0
    5.6840   -3.7467   26.2288 C   0  0  0  0  0  0  0  0  0  0  0  0
    6.5332   -3.5612   26.8826 H   0  0  0  0  0  0  0  0  0  0  0  0
    5.8951   -4.1689   24.9142 C   0  0  0  0  0  0  0  0  0  0  0  0
    6.9135   -4.2943   24.5454 H   0  0  0  0  0  0  0  0  0  0  0  0
  1  2  1  0
  2  3  1  0
  3  4  1  6
  3  5  1  0
  5  6  2  0
  6  7  1  0
  7  8  2  0
  8  9  1  0
  9 10  1  0
 10 11  2  0
 11 12  1  0
 11 13  1  0
 13 14  2  0
 14 15  1  0
 14 16  1  0
 16 17  1  0
 16 18  2  0
 18 19  1  0
  9 20  1  0
 20 21  1  0
 20 22  1  0
 20 23  1  0
 23 24  1  0
 23 25  1  0
  8 26  1  0
  3 27  1  0
 27 28  2  0
 28 29  1  0
 28 30  1  0
 30 31  1  0
 30 32  2  0
 32 33  1  0
 32 34  1  0
 34 35  1  0
 34 36  2  0
 36 37  1  0
 26  5  1  0
 36 27  1  0
 23  9  1  0
 18 10  1  0
M  END
>  <cnnaffinity>  (1) 
-5.27495

>  <filename>  (1) 
O[C@@H](c1ccccc1)c1nnc(C2(c3cccnc3)CC2)o1

$$$$
