
     RDKit          3D

 33 35  0  0  0  0  0  0  0  0999 V2000
   11.0400   -2.9239   21.0715 H   0  0  0  0  0  0  0  0  0  0  0  0
   11.3528   -2.1948   21.6127 O   0  0  0  0  0  0  0  0  0  0  0  0
   10.3440   -1.9439   22.5826 C   0  0  1  0  0  0  0  0  0  0  0  0
   10.2610   -2.8004   23.2796 H   0  0  0  0  0  0  0  0  0  0  0  0
   10.7945   -0.7107   23.3672 C   0  0  0  0  0  0  0  0  0  0  0  0
   11.4609    0.3235   22.6870 C   0  0  0  0  0  0  0  0  0  0  0  0
   11.7120    0.1849   21.6394 H   0  0  0  0  0  0  0  0  0  0  0  0
   11.8484    1.4837   23.3470 C   0  0  0  0  0  0  0  0  0  0  0  0
   12.3389    2.2765   22.7864 H   0  0  0  0  0  0  0  0  0  0  0  0
   11.6115    1.6175   24.7160 C   0  0  0  0  0  0  0  0  0  0  0  0
   11.9590    2.5053   25.2298 H   0  0  0  0  0  0  0  0  0  0  0  0
   10.9455    0.6050   25.4128 C   0  0  0  0  0  0  0  0  0  0  0  0
   10.7656    0.7143   26.4814 H   0  0  0  0  0  0  0  0  0  0  0  0
   10.5236   -0.5471   24.7337 C   0  0  0  0  0  0  0  0  0  0  0  0
    9.9974   -1.3254   25.2816 H   0  0  0  0  0  0  0  0  0  0  0  0
    8.9754   -1.7449   21.9543 C   0  0  0  0  0  0  0  0  0  0  0  0
    7.7328   -2.1312   22.5394 C   0  0  0  0  0  0  0  0  0  0  0  0
    7.6116   -2.7437   23.4288 H   0  0  0  0  0  0  0  0  0  0  0  0
    6.7349   -1.5643   21.7952 C   0  0  0  0  0  0  0  0  0  0  0  0
    5.6623   -1.6094   21.9070 H   0  0  0  0  0  0  0  0  0  0  0  0
    7.2979   -0.8373   20.7640 N   0  0  0  0  0  0  0  0  0  0  0  0
    6.6237   -0.0553   19.7824 C   0  0  0  0  0  0  0  0  0  0  0  0
    7.1388   -0.0328   18.4746 C   0  0  0  0  0  0  0  0  0  0  0  0
    8.0311   -0.6135   18.2342 H   0  0  0  0  0  0  0  0  0  0  0  0
    6.5804    0.6447   17.4699 N   0  0  0  0  0  0  0  0  0  0  0  0
    5.4573    1.3351   17.7232 C   0  0  0  0  0  0  0  0  0  0  0  0
    5.0231    1.8606   16.8766 H   0  0  0  0  0  0  0  0  0  0  0  0
    4.8602    1.3827   18.9853 C   0  0  0  0  0  0  0  0  0  0  0  0
    3.9424    1.9497   19.1163 H   0  0  0  0  0  0  0  0  0  0  0  0
    5.4591    0.6928   20.0448 C   0  0  0  0  0  0  0  0  0  0  0  0
    5.0390    0.7594   21.0496 H   0  0  0  0  0  0  0  0  0  0  0  0
    8.6682   -0.9757   20.8577 C   0  0  0  0  0  0  0  0  0  0  0  0
    9.3180   -0.4753   20.1500 H   0  0  0  0  0  0  0  0  0  0  0  0
  1  2  1  0
  2  3  1  0
  3  4  1  1
  3  5  1  0
  5  6  2  0
  6  7  1  0
  6  8  1  0
  8  9  1  0
  8 10  2  0
 10 11  1  0
 10 12  1  0
 12 13  1  0
 12 14  2  0
 14 15  1  0
  3 16  1  0
 16 17  1  0
 17 18  1  0
 17 19  2  0
 19 20  1  0
 19 21  1  0
 21 22  1  0
 22 23  2  0
 23 24  1  0
 23 25  1  0
 25 26  2  0
 26 27  1  0
 26 28  1  0
 28 29  1  0
 28 30  2  0
 30 31  1  0
 21 32  1  0
 32 33  1  0
 14  5  1  0
 32 16  2  0
 30 22  1  0
M  END
>  <cnnaffinity>  (1) 
-5.03635

>  <filename>  (1) 
O[C@@H](c1ccccc1)c1ccn(-c2cccnc2)c1

$$$$
