
     RDKit          3D

 36 39  0  0  0  0  0  0  0  0999 V2000
    8.6079   -2.3909   26.3551 H   0  0  0  0  0  0  0  0  0  0  0  0
    8.7638   -1.4496   26.5035 O   0  0  0  0  0  0  0  0  0  0  0  0
    8.2519   -0.8302   25.3546 C   0  0  1  0  0  0  0  0  0  0  0  0
    7.1544   -0.8695   25.3508 H   0  0  0  0  0  0  0  0  0  0  0  0
    8.6837    0.6247   25.2766 C   0  0  0  0  0  0  0  0  0  0  0  0
    7.7307    1.6392   25.1045 C   0  0  0  0  0  0  0  0  0  0  0  0
    6.6704    1.3890   25.0869 H   0  0  0  0  0  0  0  0  0  0  0  0
    8.1299    2.9712   24.9274 C   0  0  0  0  0  0  0  0  0  0  0  0
    7.3879    3.7622   24.8534 H   0  0  0  0  0  0  0  0  0  0  0  0
    9.4913    3.2786   24.8515 C   0  0  0  0  0  0  0  0  0  0  0  0
    9.8237    4.3042   24.6988 H   0  0  0  0  0  0  0  0  0  0  0  0
   10.4442    2.2642   24.9963 C   0  0  0  0  0  0  0  0  0  0  0  0
   11.4993    2.5068   24.9098 H   0  0  0  0  0  0  0  0  0  0  0  0
   10.0460    0.9508   25.2451 C   0  0  0  0  0  0  0  0  0  0  0  0
   10.7790    0.1563   25.3882 H   0  0  0  0  0  0  0  0  0  0  0  0
    8.6654   -1.5765   24.1494 N   0  0  0  0  0  0  0  0  0  0  0  0
    9.9210   -2.1471   23.8478 C   0  0  0  0  0  0  0  0  0  0  0  0
   10.6080   -2.4456   24.6305 H   0  0  0  0  0  0  0  0  0  0  0  0
   10.0822   -2.1870   22.5023 C   0  0  0  0  0  0  0  0  0  0  0  0
   10.8600   -2.5567   21.8566 H   0  0  0  0  0  0  0  0  0  0  0  0
    8.9349   -1.6302   21.9556 N   0  0  0  0  0  0  0  0  0  0  0  0
    8.5299   -1.2848   20.7130 N   0  0  0  0  0  0  0  0  0  0  0  0
    7.3661   -0.6558   20.9439 C   0  0  0  0  0  0  0  0  0  0  0  0
    6.6199   -0.0306   19.8367 C   0  0  0  0  0  0  0  0  0  0  0  0
    7.1493   -0.0025   18.5312 C   0  0  0  0  0  0  0  0  0  0  0  0
    8.0842   -0.5150   18.3107 H   0  0  0  0  0  0  0  0  0  0  0  0
    6.5751    0.6373   17.5049 N   0  0  0  0  0  0  0  0  0  0  0  0
    5.4278    1.2906   17.7524 C   0  0  0  0  0  0  0  0  0  0  0  0
    4.9965    1.8420   16.9163 H   0  0  0  0  0  0  0  0  0  0  0  0
    4.7974    1.2954   19.0013 C   0  0  0  0  0  0  0  0  0  0  0  0
    3.8779    1.8539   19.1417 H   0  0  0  0  0  0  0  0  0  0  0  0
    5.3954    0.6217   20.0630 C   0  0  0  0  0  0  0  0  0  0  0  0
    4.9278    0.6306   21.0508 H   0  0  0  0  0  0  0  0  0  0  0  0
    7.0283   -0.6060   22.3195 C   0  0  0  0  0  0  0  0  0  0  0  0
    6.1448   -0.1687   22.7508 H   0  0  0  0  0  0  0  0  0  0  0  0
    8.0910   -1.2470   22.9303 C   0  0  0  0  0  0  0  0  0  0  0  0
  1  2  1  0
  2  3  1  0
  3  4  1  1
  3  5  1  0
  5  6  2  0
  6  7  1  0
  6  8  1  0
  8  9  1  0
  8 10  2  0
 10 11  1  0
 10 12  1  0
 12 13  1  0
 12 14  2  0
 14 15  1  0
  3 16  1  0
 16 17  1  0
 17 18  1  0
 17 19  2  0
 19 20  1  0
 19 21  1  0
 21 22  1  0
 22 23  2  0
 23 24  1  0
 24 25  2  0
 25 26  1  0
 25 27  1  0
 27 28  2  0
 28 29  1  0
 28 30  1  0
 30 31  1  0
 30 32  2  0
 32 33  1  0
 23 34  1  0
 34 35  1  0
 34 36  2  0
 14  5  1  0
 36 16  1  0
 36 21  1  0
 32 24  1  0
M  END
>  <cnnaffinity>  (1) 
-5.49659

>  <filename>  (1) 
O[C@@H](c1ccccc1)n1ccn2nc(-c3cccnc3)cc12

$$$$
