
     RDKit          3D

 35 37  0  0  0  0  0  0  0  0999 V2000
    6.3836   -0.4404   22.6107 H   0  0  0  0  0  0  0  0  0  0  0  0
    6.5829   -1.1833   22.0215 O   0  0  0  0  0  0  0  0  0  0  0  0
    7.4314   -0.6908   21.0046 C   0  0  1  0  0  0  0  0  0  0  0  0
    7.8723   -1.5974   20.5620 H   0  0  0  0  0  0  0  0  0  0  0  0
    6.6567    0.0187   19.9139 C   0  0  0  0  0  0  0  0  0  0  0  0
    7.1672    0.0670   18.6089 C   0  0  0  0  0  0  0  0  0  0  0  0
    8.1097   -0.4272   18.3705 H   0  0  0  0  0  0  0  0  0  0  0  0
    6.5643    0.6807   17.5823 N   0  0  0  0  0  0  0  0  0  0  0  0
    5.4019    1.2958   17.8342 C   0  0  0  0  0  0  0  0  0  0  0  0
    4.9215    1.7849   16.9909 H   0  0  0  0  0  0  0  0  0  0  0  0
    4.8055    1.3150   19.0982 C   0  0  0  0  0  0  0  0  0  0  0  0
    3.8702    1.8408   19.2436 H   0  0  0  0  0  0  0  0  0  0  0  0
    5.4337    0.6604   20.1571 C   0  0  0  0  0  0  0  0  0  0  0  0
    4.9955    0.6303   21.1571 H   0  0  0  0  0  0  0  0  0  0  0  0
    8.6109    0.1632   21.5775 C   0  0  0  0  0  0  0  0  0  0  0  0
    8.3109    1.6720   21.8035 C   0  0  0  0  0  0  0  0  0  0  0  0
    9.2371    2.1654   22.1332 H   0  0  0  0  0  0  0  0  0  0  0  0
    8.0501    2.1294   20.8429 H   0  0  0  0  0  0  0  0  0  0  0  0
    7.2388    2.0026   22.7870 C   0  0  0  0  0  0  0  0  0  0  0  0
    7.2505    1.5600   24.0866 N   0  0  0  0  0  0  0  0  0  0  0  0
    6.1972    2.0841   24.6578 C   0  0  0  0  0  0  0  0  0  0  0  0
    5.9119    1.9727   25.7010 H   0  0  0  0  0  0  0  0  0  0  0  0
    5.4825    2.8402   23.7841 N   0  0  0  0  0  0  0  0  0  0  0  0
    4.6411    3.3466   23.9955 H   0  0  0  0  0  0  0  0  0  0  0  0
    6.1473    2.7994   22.5784 C   0  0  0  0  0  0  0  0  0  0  0  0
    5.8176    3.2983   21.6733 H   0  0  0  0  0  0  0  0  0  0  0  0
    9.9170    0.0011   20.7580 C   0  0  0  0  0  0  0  0  0  0  0  0
   10.3257    0.9819   20.5006 H   0  0  0  0  0  0  0  0  0  0  0  0
    9.8477   -0.6179   19.8554 H   0  0  0  0  0  0  0  0  0  0  0  0
   10.6242   -0.6675   21.9582 C   0  0  0  0  0  0  0  0  0  0  0  0
   11.4838   -0.1121   22.3484 H   0  0  0  0  0  0  0  0  0  0  0  0
   10.9411   -1.7035   21.7918 H   0  0  0  0  0  0  0  0  0  0  0  0
    9.3288   -0.5060   22.7833 C   0  0  0  0  0  0  0  0  0  0  0  0
    9.3953    0.1347   23.6664 H   0  0  0  0  0  0  0  0  0  0  0  0
    8.8624   -1.4448   23.0922 H   0  0  0  0  0  0  0  0  0  0  0  0
  1  2  1  0
  2  3  1  0
  3  4  1  6
  3  5  1  0
  5  6  2  0
  6  7  1  0
  6  8  1  0
  8  9  2  0
  9 10  1  0
  9 11  1  0
 11 12  1  0
 11 13  2  0
 13 14  1  0
  3 15  1  0
 15 16  1  0
 16 17  1  0
 16 18  1  0
 16 19  1  0
 19 20  1  0
 20 21  2  0
 21 22  1  0
 21 23  1  0
 23 24  1  0
 23 25  1  0
 25 26  1  0
 15 27  1  0
 27 28  1  0
 27 29  1  0
 27 30  1  0
 30 31  1  0
 30 32  1  0
 30 33  1  0
 33 34  1  0
 33 35  1  0
 13  5  1  0
 33 15  1  0
 25 19  2  0
M  END
>  <cnnaffinity>  (1) 
-4.85203

>  <filename>  (1) 
O[C@@H](c1cccnc1)C1(Cc2c[nH]cn2)CCC1

$$$$
