
     RDKit          3D

 25 26  0  0  0  0  0  0  0  0999 V2000
    7.4364   -2.2533   19.7664 H   0  0  0  0  0  0  0  0  0  0  0  0
    7.3132   -2.1528   20.7170 O   0  0  0  0  0  0  0  0  0  0  0  0
    7.3833   -0.7631   20.9849 C   0  0  2  0  0  0  0  0  0  0  0  0
    6.8581   -0.6277   21.9375 H   0  0  0  0  0  0  0  0  0  0  0  0
    6.6330    0.0007   19.9144 C   0  0  0  0  0  0  0  0  0  0  0  0
    7.1539    0.0350   18.6159 C   0  0  0  0  0  0  0  0  0  0  0  0
    8.1098   -0.4527   18.4084 H   0  0  0  0  0  0  0  0  0  0  0  0
    6.5775    0.6550   17.5803 N   0  0  0  0  0  0  0  0  0  0  0  0
    5.4158    1.2867   17.8199 C   0  0  0  0  0  0  0  0  0  0  0  0
    4.9639    1.7966   16.9691 H   0  0  0  0  0  0  0  0  0  0  0  0
    4.7974    1.3117   19.0734 C   0  0  0  0  0  0  0  0  0  0  0  0
    3.8664    1.8525   19.1997 H   0  0  0  0  0  0  0  0  0  0  0  0
    5.4140    0.6586   20.1420 C   0  0  0  0  0  0  0  0  0  0  0  0
    4.9563    0.6613   21.1348 H   0  0  0  0  0  0  0  0  0  0  0  0
    8.8125   -0.2527   21.1905 C   0  0  0  0  0  0  0  0  0  0  0  0
    8.9903    1.0285   21.7488 C   0  0  0  0  0  0  0  0  0  0  0  0
    8.1202    1.6433   21.9891 H   0  0  0  0  0  0  0  0  0  0  0  0
   10.2678    1.5087   22.0406 C   0  0  0  0  0  0  0  0  0  0  0  0
   10.4076    2.5182   22.4254 H   0  0  0  0  0  0  0  0  0  0  0  0
   11.3879    0.6835   21.8460 C   0  0  0  0  0  0  0  0  0  0  0  0
   12.9564    1.2160   22.3369 Cl  0  0  0  0  0  0  0  0  0  0  0  0
   11.2225   -0.5897   21.2761 C   0  0  0  0  0  0  0  0  0  0  0  0
   12.5677   -1.6663   21.0520 Cl  0  0  0  0  0  0  0  0  0  0  0  0
    9.9482   -1.0330   20.9120 C   0  0  0  0  0  0  0  0  0  0  0  0
    9.8627   -2.0161   20.4525 H   0  0  0  0  0  0  0  0  0  0  0  0
  1  2  1  0
  2  3  1  0
  3  4  1  1
  3  5  1  0
  5  6  2  0
  6  7  1  0
  6  8  1  0
  8  9  2  0
  9 10  1  0
  9 11  1  0
 11 12  1  0
 11 13  2  0
 13 14  1  0
  3 15  1  0
 15 16  2  0
 16 17  1  0
 16 18  1  0
 18 19  1  0
 18 20  2  0
 20 21  1  0
 20 22  1  0
 22 23  1  0
 22 24  2  0
 24 25  1  0
 13  5  1  0
 24 15  1  0
M  END
>  <cnnaffinity>  (1) 
-4.33229

>  <filename>  (1) 
O[C@H](c1cccnc1)c1ccc(Cl)c(Cl)c1

$$$$
