
     RDKit          3D

 33 35  0  0  0  0  0  0  0  0999 V2000
   11.3787   -2.1313   21.2941 H   0  0  0  0  0  0  0  0  0  0  0  0
   11.5199   -1.4708   21.9884 O   0  0  0  0  0  0  0  0  0  0  0  0
   10.3935   -1.5636   22.8463 C   0  0  1  0  0  0  0  0  0  0  0  0
   10.4036   -2.5433   23.3464 H   0  0  0  0  0  0  0  0  0  0  0  0
   10.4902   -0.4823   23.9212 C   0  0  0  0  0  0  0  0  0  0  0  0
   10.8291    0.8449   23.5933 C   0  0  0  0  0  0  0  0  0  0  0  0
   11.3095    1.0660   22.6410 H   0  0  0  0  0  0  0  0  0  0  0  0
   10.5475    1.8796   24.4902 C   0  0  0  0  0  0  0  0  0  0  0  0
   10.7238    2.9137   24.2071 H   0  0  0  0  0  0  0  0  0  0  0  0
   10.0302    1.5876   25.7571 C   0  0  0  0  0  0  0  0  0  0  0  0
    9.7528    2.3895   26.4351 H   0  0  0  0  0  0  0  0  0  0  0  0
    9.8683    0.2575   26.1550 C   0  0  0  0  0  0  0  0  0  0  0  0
    9.5700    0.0389   27.1776 H   0  0  0  0  0  0  0  0  0  0  0  0
   10.0895   -0.7722   25.2348 C   0  0  0  0  0  0  0  0  0  0  0  0
    9.9277   -1.8037   25.5438 H   0  0  0  0  0  0  0  0  0  0  0  0
    9.0917   -1.4553   22.0769 C   0  0  0  0  0  0  0  0  0  0  0  0
    8.7151   -0.6017   21.0966 C   0  0  0  0  0  0  0  0  0  0  0  0
    9.2520    0.1997   20.6148 H   0  0  0  0  0  0  0  0  0  0  0  0
    7.3842   -0.8479   20.7849 N   0  0  0  0  0  0  0  0  0  0  0  0
    6.6558   -0.0978   19.8072 C   0  0  0  0  0  0  0  0  0  0  0  0
    7.1867    0.0340   18.5101 C   0  0  0  0  0  0  0  0  0  0  0  0
    8.1324   -0.4489   18.2765 H   0  0  0  0  0  0  0  0  0  0  0  0
    6.5894    0.7067   17.5222 N   0  0  0  0  0  0  0  0  0  0  0  0
    5.4286    1.3162   17.8103 C   0  0  0  0  0  0  0  0  0  0  0  0
    4.9578    1.8650   16.9986 H   0  0  0  0  0  0  0  0  0  0  0  0
    4.8300    1.2696   19.0757 C   0  0  0  0  0  0  0  0  0  0  0  0
    3.9069    1.8129   19.2477 H   0  0  0  0  0  0  0  0  0  0  0  0
    5.4460    0.5444   20.1045 C   0  0  0  0  0  0  0  0  0  0  0  0
    5.0185    0.4984   21.1094 H   0  0  0  0  0  0  0  0  0  0  0  0
    6.9100   -1.8994   21.5449 C   0  0  0  0  0  0  0  0  0  0  0  0
    5.4593   -2.7096   21.4922 S   0  0  0  0  0  0  0  0  0  0  0  0
    7.9622   -2.2197   22.3505 N   0  0  0  0  0  0  0  0  0  0  0  0
    7.7894   -2.8254   23.1354 H   0  0  0  0  0  0  0  0  0  0  0  0
  1  2  1  0
  2  3  1  0
  3  4  1  1
  3  5  1  0
  5  6  2  0
  6  7  1  0
  6  8  1  0
  8  9  1  0
  8 10  2  0
 10 11  1  0
 10 12  1  0
 12 13  1  0
 12 14  2  0
 14 15  1  0
  3 16  1  0
 16 17  2  0
 17 18  1  0
 17 19  1  0
 19 20  1  0
 20 21  2  0
 21 22  1  0
 21 23  1  0
 23 24  2  0
 24 25  1  0
 24 26  1  0
 26 27  1  0
 26 28  2  0
 28 29  1  0
 19 30  1  0
 30 31  2  0
 30 32  1  0
 32 33  1  0
 14  5  1  0
 32 16  1  0
 28 20  1  0
M  END
>  <cnnaffinity>  (1) 
-5.42565

>  <filename>  (1) 
O[C@@H](c1ccccc1)c1cn(-c2cccnc2)c(=S)[nH]1

$$$$
