
     RDKit          3D

 33 34  0  0  0  0  0  0  0  0999 V2000
    9.0508   -0.5464   20.6977 H   0  0  0  0  0  0  0  0  0  0  0  0
    8.5764    0.1064   21.2497 O   0  0  0  0  0  0  0  0  0  0  0  0
    7.3693   -0.5790   21.0552 C   0  0  1  0  0  0  0  0  0  0  0  0
    6.7780   -0.6223   21.9849 H   0  0  0  0  0  0  0  0  0  0  0  0
    6.5866    0.0291   19.9486 C   0  0  0  0  0  0  0  0  0  0  0  0
    7.1435    0.0316   18.6635 C   0  0  0  0  0  0  0  0  0  0  0  0
    8.0792   -0.4871   18.4515 H   0  0  0  0  0  0  0  0  0  0  0  0
    6.5859    0.6391   17.6093 N   0  0  0  0  0  0  0  0  0  0  0  0
    5.4270    1.2818   17.8238 C   0  0  0  0  0  0  0  0  0  0  0  0
    5.0071    1.7988   16.9622 H   0  0  0  0  0  0  0  0  0  0  0  0
    4.7772    1.3230   19.0612 C   0  0  0  0  0  0  0  0  0  0  0  0
    3.8450    1.8627   19.1677 H   0  0  0  0  0  0  0  0  0  0  0  0
    5.3697    0.6847   20.1484 C   0  0  0  0  0  0  0  0  0  0  0  0
    4.9040    0.6999   21.1407 H   0  0  0  0  0  0  0  0  0  0  0  0
    7.8720   -1.8641   20.6103 N   0  0  0  0  0  0  0  0  0  0  0  0
    7.1510   -2.3593   20.1011 H   0  0  0  0  0  0  0  0  0  0  0  0
    8.4289   -2.7647   21.6240 C   0  0  0  0  0  0  0  0  0  0  0  0
    8.8108   -3.6308   21.0754 H   0  0  0  0  0  0  0  0  0  0  0  0
    9.3200   -2.2942   22.0630 H   0  0  0  0  0  0  0  0  0  0  0  0
    7.4709   -3.1919   22.7355 C   0  0  0  0  0  0  0  0  0  0  0  0
    6.5511   -4.2418   22.5554 C   0  0  0  0  0  0  0  0  0  0  0  0
    6.5408   -4.8027   21.6257 H   0  0  0  0  0  0  0  0  0  0  0  0
    5.6421   -4.5869   23.5596 C   0  0  0  0  0  0  0  0  0  0  0  0
    4.9546   -5.4106   23.3910 H   0  0  0  0  0  0  0  0  0  0  0  0
    5.6348   -3.8938   24.7830 C   0  0  0  0  0  0  0  0  0  0  0  0
    4.6155   -4.2351   25.8591 C   0  0  0  0  0  0  0  0  0  0  0  0
    3.4784   -3.5227   25.7240 F   0  0  0  0  0  0  0  0  0  0  0  0
    5.0787   -3.9838   27.0997 F   0  0  0  0  0  0  0  0  0  0  0  0
    4.2563   -5.5345   25.8268 F   0  0  0  0  0  0  0  0  0  0  0  0
    6.5591   -2.8542   24.9797 C   0  0  0  0  0  0  0  0  0  0  0  0
    6.5963   -2.3156   25.9227 H   0  0  0  0  0  0  0  0  0  0  0  0
    7.4602   -2.5115   23.9682 C   0  0  0  0  0  0  0  0  0  0  0  0
    8.1560   -1.6932   24.1369 H   0  0  0  0  0  0  0  0  0  0  0  0
  1  2  1  0
  2  3  1  0
  3  4  1  1
  3  5  1  0
  5  6  2  0
  6  7  1  0
  6  8  1  0
  8  9  2  0
  9 10  1  0
  9 11  1  0
 11 12  1  0
 11 13  2  0
 13 14  1  0
  3 15  1  0
 15 16  1  0
 15 17  1  0
 17 18  1  0
 17 19  1  0
 17 20  1  0
 20 21  2  0
 21 22  1  0
 21 23  1  0
 23 24  1  0
 23 25  2  0
 25 26  1  0
 26 27  1  0
 26 28  1  0
 26 29  1  0
 25 30  1  0
 30 31  1  0
 30 32  2  0
 32 33  1  0
 13  5  1  0
 32 20  1  0
M  END
>  <cnnaffinity>  (1) 
-4.2942

>  <filename>  (1) 
O[C@H](NCc1ccc(C(F)(F)F)cc1)c1cccnc1

$$$$
