
     RDKit          3D

 34 37  0  0  0  0  0  0  0  0999 V2000
    8.3961    5.4111   22.3370 H   0  0  0  0  0  0  0  0  0  0  0  0
    7.8849    4.6700   21.9902 O   0  0  0  0  0  0  0  0  0  0  0  0
    8.6056    3.4805   22.2609 C   0  0  2  0  0  0  0  0  0  0  0  0
    9.6399    3.5693   21.9140 H   0  0  0  0  0  0  0  0  0  0  0  0
    7.9568    2.2875   21.5599 C   0  0  0  0  0  0  0  0  0  0  0  0
    6.9032    2.5028   21.3642 H   0  0  0  0  0  0  0  0  0  0  0  0
    8.4225    2.0833   20.5915 H   0  0  0  0  0  0  0  0  0  0  0  0
    8.1372    1.1534   22.4799 N   0  0  0  0  0  0  0  0  0  0  0  0
    7.9348   -0.1371   22.1075 C   0  0  0  0  0  0  0  0  0  0  0  0
    7.3578   -0.6799   20.9444 C   0  0  0  0  0  0  0  0  0  0  0  0
    6.6400    0.0104   19.8886 C   0  0  0  0  0  0  0  0  0  0  0  0
    7.1632    0.0427   18.5917 C   0  0  0  0  0  0  0  0  0  0  0  0
    8.1173   -0.4378   18.3744 H   0  0  0  0  0  0  0  0  0  0  0  0
    6.5686    0.6745   17.5768 N   0  0  0  0  0  0  0  0  0  0  0  0
    5.4044    1.2937   17.8383 C   0  0  0  0  0  0  0  0  0  0  0  0
    4.9202    1.7801   16.9972 H   0  0  0  0  0  0  0  0  0  0  0  0
    4.7996    1.3160   19.1004 C   0  0  0  0  0  0  0  0  0  0  0  0
    3.8700    1.8476   19.2584 H   0  0  0  0  0  0  0  0  0  0  0  0
    5.4238    0.6558   20.1523 C   0  0  0  0  0  0  0  0  0  0  0  0
    5.0039    0.6364   21.1631 H   0  0  0  0  0  0  0  0  0  0  0  0
    7.4768   -2.0433   20.8966 N   0  0  0  0  0  0  0  0  0  0  0  0
    8.0594   -2.3467   22.0214 C   0  0  0  0  0  0  0  0  0  0  0  0
    8.5882   -3.8362   22.7743 S   0  0  0  0  0  0  0  0  0  0  0  0
    9.2182   -2.9141   24.1355 C   0  0  0  0  0  0  0  0  0  0  0  0
    9.6954   -3.4347   24.9536 H   0  0  0  0  0  0  0  0  0  0  0  0
    9.0240   -1.5908   24.0088 C   0  0  0  0  0  0  0  0  0  0  0  0
    9.3097   -0.8111   24.7102 H   0  0  0  0  0  0  0  0  0  0  0  0
    8.3690   -1.2611   22.8166 N   0  0  0  0  0  0  0  0  0  0  0  0
    8.6557    1.5786   23.7763 C   0  0  0  0  0  0  0  0  0  0  0  0
    9.6837    1.2185   23.9089 H   0  0  0  0  0  0  0  0  0  0  0  0
    8.0398    1.1789   24.5899 H   0  0  0  0  0  0  0  0  0  0  0  0
    8.6105    3.1055   23.7379 C   0  0  0  0  0  0  0  0  0  0  0  0
    9.4571    3.5534   24.2586 H   0  0  0  0  0  0  0  0  0  0  0  0
    7.6973    3.4878   24.1984 H   0  0  0  0  0  0  0  0  0  0  0  0
  1  2  1  0
  2  3  1  0
  3  4  1  6
  3  5  1  0
  5  6  1  0
  5  7  1  0
  5  8  1  0
  8  9  1  0
  9 10  2  0
 10 11  1  0
 11 12  2  0
 12 13  1  0
 12 14  1  0
 14 15  2  0
 15 16  1  0
 15 17  1  0
 17 18  1  0
 17 19  2  0
 19 20  1  0
 10 21  1  0
 21 22  2  0
 22 23  1  0
 23 24  1  0
 24 25  1  0
 24 26  2  0
 26 27  1  0
 26 28  1  0
  8 29  1  0
 29 30  1  0
 29 31  1  0
 29 32  1  0
 32 33  1  0
 32 34  1  0
 32  3  1  0
 28  9  1  0
 19 11  1  0
 28 22  1  0
M  END
>  <cnnaffinity>  (1) 
-5.1895

>  <filename>  (1) 
O[C@H]1CCN(c2c(-c3cccnc3)nc3sccn23)C1

$$$$
