
     RDKit          3D

 38 41  0  0  0  0  0  0  0  0999 V2000
    5.2962   -0.3869   27.7586 H   0  0  0  0  0  0  0  0  0  0  0  0
    5.0838   -0.1587   26.8413 O   0  0  0  0  0  0  0  0  0  0  0  0
    6.3049    0.1383   26.1872 C   0  0  2  0  0  0  0  0  0  0  0  0
    6.0267    0.6311   25.2422 H   0  0  0  0  0  0  0  0  0  0  0  0
    7.0714   -1.1687   25.8423 C   0  0  0  0  0  0  0  0  0  0  0  0
    6.9920   -1.8313   26.7204 H   0  0  0  0  0  0  0  0  0  0  0  0
    6.5325   -1.6605   25.0242 H   0  0  0  0  0  0  0  0  0  0  0  0
    8.4906   -1.0070   25.4602 N   0  0  0  0  0  0  0  0  0  0  0  0
    8.8098   -1.3118   24.1519 N   0  0  0  0  0  0  0  0  0  0  0  0
    9.9383   -2.0595   23.8305 C   0  0  0  0  0  0  0  0  0  0  0  0
   10.5494   -2.4422   24.6333 H   0  0  0  0  0  0  0  0  0  0  0  0
   10.0347   -2.1436   22.4827 C   0  0  0  0  0  0  0  0  0  0  0  0
   10.7176   -2.5863   21.7779 H   0  0  0  0  0  0  0  0  0  0  0  0
    8.9376   -1.4676   21.9855 N   0  0  0  0  0  0  0  0  0  0  0  0
    8.5209   -1.2035   20.7350 N   0  0  0  0  0  0  0  0  0  0  0  0
    7.3677   -0.5508   20.9364 C   0  0  0  0  0  0  0  0  0  0  0  0
    6.6047   -0.0117   19.7893 C   0  0  0  0  0  0  0  0  0  0  0  0
    7.1372   -0.0263   18.4795 C   0  0  0  0  0  0  0  0  0  0  0  0
    8.0531   -0.5694   18.2515 H   0  0  0  0  0  0  0  0  0  0  0  0
    6.5780    0.6083   17.4420 N   0  0  0  0  0  0  0  0  0  0  0  0
    5.4387    1.2810   17.6676 C   0  0  0  0  0  0  0  0  0  0  0  0
    5.0164    1.8102   16.8153 H   0  0  0  0  0  0  0  0  0  0  0  0
    4.7883    1.3020   18.9062 C   0  0  0  0  0  0  0  0  0  0  0  0
    3.8615    1.8540   19.0240 H   0  0  0  0  0  0  0  0  0  0  0  0
    5.3677    0.6308   19.9801 C   0  0  0  0  0  0  0  0  0  0  0  0
    4.8728    0.6144   20.9548 H   0  0  0  0  0  0  0  0  0  0  0  0
    7.0669   -0.4053   22.3142 C   0  0  0  0  0  0  0  0  0  0  0  0
    6.1861    0.0392   22.7352 H   0  0  0  0  0  0  0  0  0  0  0  0
    8.1533   -0.9858   22.9681 C   0  0  0  0  0  0  0  0  0  0  0  0
    9.2628    0.1028   26.0664 C   0  0  0  0  0  0  0  0  0  0  0  0
   10.1532    0.2726   25.4514 H   0  0  0  0  0  0  0  0  0  0  0  0
    9.6167   -0.2199   27.0583 H   0  0  0  0  0  0  0  0  0  0  0  0
    8.4560    1.4059   26.2348 C   0  0  0  0  0  0  0  0  0  0  0  0
    9.0593    2.1498   26.7673 H   0  0  0  0  0  0  0  0  0  0  0  0
    8.2220    1.8217   25.2434 H   0  0  0  0  0  0  0  0  0  0  0  0
    7.1653    1.1080   27.0038 C   0  0  0  0  0  0  0  0  0  0  0  0
    6.6003    2.0253   27.2098 H   0  0  0  0  0  0  0  0  0  0  0  0
    7.4189    0.6514   27.9802 H   0  0  0  0  0  0  0  0  0  0  0  0
  1  2  1  0
  2  3  1  0
  3  4  1  6
  3  5  1  0
  5  6  1  0
  5  7  1  0
  5  8  1  0
  8  9  1  0
  9 10  1  0
 10 11  1  0
 10 12  2  0
 12 13  1  0
 12 14  1  0
 14 15  1  0
 15 16  2  0
 16 17  1  0
 17 18  2  0
 18 19  1  0
 18 20  1  0
 20 21  2  0
 21 22  1  0
 21 23  1  0
 23 24  1  0
 23 25  2  0
 25 26  1  0
 16 27  1  0
 27 28  1  0
 27 29  2  0
  8 30  1  0
 30 31  1  0
 30 32  1  0
 30 33  1  0
 33 34  1  0
 33 35  1  0
 33 36  1  0
 36 37  1  0
 36 38  1  0
 36  3  1  0
 29  9  1  0
 29 14  1  0
 25 17  1  0
M  END
>  <cnnaffinity>  (1) 
-5.31526

>  <filename>  (1) 
O[C@H]1CCCN(n2ccn3nc(-c4cccnc4)cc23)C1

$$$$
