
     RDKit          3D

 30 32  0  0  0  0  0  0  0  0999 V2000
   11.5108   -3.6116   22.8937 H   0  0  0  0  0  0  0  0  0  0  0  0
   11.7116   -3.8158   23.8220 O   0  0  0  0  0  0  0  0  0  0  0  0
   10.5504   -4.0401   24.4724 C   0  0  0  0  0  0  0  0  0  0  0  0
   10.6223   -4.5656   25.7562 C   0  0  0  0  0  0  0  0  0  0  0  0
   11.6004   -4.8264   26.1321 H   0  0  0  0  0  0  0  0  0  0  0  0
    9.4542   -4.7578   26.4924 C   0  0  0  0  0  0  0  0  0  0  0  0
    9.5280   -5.3914   28.0952 Cl  0  0  0  0  0  0  0  0  0  0  0  0
    8.1986   -4.4704   25.9609 C   0  0  0  0  0  0  0  0  0  0  0  0
    7.3268   -4.6370   26.5862 H   0  0  0  0  0  0  0  0  0  0  0  0
    8.1208   -3.9690   24.6596 C   0  0  0  0  0  0  0  0  0  0  0  0
    7.1636   -3.7315   24.2038 H   0  0  0  0  0  0  0  0  0  0  0  0
    9.2871   -3.7429   23.9339 C   0  0  0  0  0  0  0  0  0  0  0  0
    9.2785   -3.2635   22.6344 O   0  0  0  0  0  0  0  0  0  0  0  0
    8.6317   -2.1085   22.3656 C   0  0  0  0  0  0  0  0  0  0  0  0
    8.5768   -1.7227   20.7129 S   0  0  0  0  0  0  0  0  0  0  0  0
    7.3829   -0.4940   21.0029 C   0  0  0  0  0  0  0  0  0  0  0  0
    6.6655    0.1302   19.8845 C   0  0  0  0  0  0  0  0  0  0  0  0
    7.1864    0.1291   18.5700 C   0  0  0  0  0  0  0  0  0  0  0  0
    8.1261   -0.3783   18.3557 H   0  0  0  0  0  0  0  0  0  0  0  0
    6.5924    0.7052   17.5219 N   0  0  0  0  0  0  0  0  0  0  0  0
    5.4171    1.3177   17.7409 C   0  0  0  0  0  0  0  0  0  0  0  0
    4.9727    1.8011   16.8756 H   0  0  0  0  0  0  0  0  0  0  0  0
    4.7806    1.3411   18.9848 C   0  0  0  0  0  0  0  0  0  0  0  0
    3.8234    1.8416   19.0876 H   0  0  0  0  0  0  0  0  0  0  0  0
    5.4061    0.7308   20.0715 C   0  0  0  0  0  0  0  0  0  0  0  0
    4.9138    0.6914   21.0442 H   0  0  0  0  0  0  0  0  0  0  0  0
    7.2119   -0.3061   22.3517 C   0  0  0  0  0  0  0  0  0  0  0  0
    6.5667    0.4655   22.7561 H   0  0  0  0  0  0  0  0  0  0  0  0
    7.9586   -1.2190   23.1516 C   0  0  0  0  0  0  0  0  0  0  0  0
    8.0051   -1.2181   24.2332 H   0  0  0  0  0  0  0  0  0  0  0  0
  1  2  1  0
  2  3  1  0
  3  4  2  0
  4  5  1  0
  4  6  1  0
  6  7  1  0
  6  8  2  0
  8  9  1  0
  8 10  1  0
 10 11  1  0
 10 12  2  0
 12 13  1  0
 13 14  1  0
 14 15  1  0
 15 16  1  0
 16 17  1  0
 17 18  2  0
 18 19  1  0
 18 20  1  0
 20 21  2  0
 21 22  1  0
 21 23  1  0
 23 24  1  0
 23 25  2  0
 25 26  1  0
 16 27  2  0
 27 28  1  0
 27 29  1  0
 29 30  1  0
 12  3  1  0
 29 14  2  0
 25 17  1  0
M  END
>  <cnnaffinity>  (1) 
-5.59843

>  <filename>  (1) 
Oc1cc(Cl)ccc1Oc1ccc(-c2cccnc2)s1

$$$$
