
     RDKit          3D

 32 34  0  0  0  0  0  0  0  0999 V2000
    7.9610    3.4164   22.1469 H   0  0  0  0  0  0  0  0  0  0  0  0
    7.7828    3.9730   22.9221 O   0  0  0  0  0  0  0  0  0  0  0  0
    7.1542    3.1951   23.8360 C   0  0  0  0  0  0  0  0  0  0  0  0
    6.7375    3.7920   25.0223 C   0  0  0  0  0  0  0  0  0  0  0  0
    6.9466    4.8453   25.1572 H   0  0  0  0  0  0  0  0  0  0  0  0
    6.0761    3.0306   25.9902 C   0  0  0  0  0  0  0  0  0  0  0  0
    5.5927    3.7896   27.4785 Cl  0  0  0  0  0  0  0  0  0  0  0  0
    5.7991    1.6788   25.7772 C   0  0  0  0  0  0  0  0  0  0  0  0
    5.2831    1.0998   26.5366 H   0  0  0  0  0  0  0  0  0  0  0  0
    6.2157    1.0734   24.5809 C   0  0  0  0  0  0  0  0  0  0  0  0
    6.0023    0.0270   24.3754 H   0  0  0  0  0  0  0  0  0  0  0  0
    6.9270    1.8147   23.6327 C   0  0  0  0  0  0  0  0  0  0  0  0
    7.4190    1.3251   22.4353 O   0  0  0  0  0  0  0  0  0  0  0  0
    7.6957   -0.0075   22.2416 C   0  0  0  0  0  0  0  0  0  0  0  0
    8.3913   -0.7704   23.1931 C   0  0  0  0  0  0  0  0  0  0  0  0
    8.6280   -0.3556   24.1693 H   0  0  0  0  0  0  0  0  0  0  0  0
    8.7651   -2.0414   23.0053 N   0  0  0  0  0  0  0  0  0  0  0  0
    8.3934   -2.6286   21.8634 C   0  0  0  0  0  0  0  0  0  0  0  0
    8.7125   -3.6560   21.7187 H   0  0  0  0  0  0  0  0  0  0  0  0
    7.6471   -1.9715   20.8880 C   0  0  0  0  0  0  0  0  0  0  0  0
    7.2408   -2.5042   20.0463 H   0  0  0  0  0  0  0  0  0  0  0  0
    7.3386   -0.6164   21.0275 C   0  0  0  0  0  0  0  0  0  0  0  0
    6.6315    0.0857   19.9194 C   0  0  0  0  0  0  0  0  0  0  0  0
    7.1417    0.0778   18.6057 C   0  0  0  0  0  0  0  0  0  0  0  0
    8.0870   -0.4207   18.3814 H   0  0  0  0  0  0  0  0  0  0  0  0
    6.5458    0.6768   17.5673 N   0  0  0  0  0  0  0  0  0  0  0  0
    5.3853    1.3062   17.8073 C   0  0  0  0  0  0  0  0  0  0  0  0
    4.9281    1.8023   16.9550 H   0  0  0  0  0  0  0  0  0  0  0  0
    4.7732    1.3496   19.0643 C   0  0  0  0  0  0  0  0  0  0  0  0
    3.8272    1.8639   19.1868 H   0  0  0  0  0  0  0  0  0  0  0  0
    5.4134    0.7367   20.1408 C   0  0  0  0  0  0  0  0  0  0  0  0
    4.9781    0.7311   21.1413 H   0  0  0  0  0  0  0  0  0  0  0  0
  1  2  1  0
  2  3  1  0
  3  4  2  0
  4  5  1  0
  4  6  1  0
  6  7  1  0
  6  8  2  0
  8  9  1  0
  8 10  1  0
 10 11  1  0
 10 12  2  0
 12 13  1  0
 13 14  1  0
 14 15  2  0
 15 16  1  0
 15 17  1  0
 17 18  2  0
 18 19  1  0
 18 20  1  0
 20 21  1  0
 20 22  2  0
 22 23  1  0
 23 24  2  0
 24 25  1  0
 24 26  1  0
 26 27  2  0
 27 28  1  0
 27 29  1  0
 29 30  1  0
 29 31  2  0
 31 32  1  0
 12  3  1  0
 22 14  1  0
 31 23  1  0
M  END
>  <cnnaffinity>  (1) 
-5.17965

>  <filename>  (1) 
Oc1cc(Cl)ccc1Oc1cnccc1-c1cccnc1

$$$$
