
     RDKit          3D

 30 32  0  0  0  0  0  0  0  0999 V2000
    7.8033   -6.1102   27.1681 H   0  0  0  0  0  0  0  0  0  0  0  0
    6.9684   -5.7216   26.8878 O   0  0  0  0  0  0  0  0  0  0  0  0
    7.2221   -4.8524   25.8809 C   0  0  0  0  0  0  0  0  0  0  0  0
    6.1130   -4.1914   25.3413 C   0  0  0  0  0  0  0  0  0  0  0  0
    5.1316   -4.4050   25.7467 H   0  0  0  0  0  0  0  0  0  0  0  0
    6.2937   -3.2840   24.3090 C   0  0  0  0  0  0  0  0  0  0  0  0
    5.4316   -2.7638   23.9021 H   0  0  0  0  0  0  0  0  0  0  0  0
    7.5726   -3.0110   23.7842 C   0  0  0  0  0  0  0  0  0  0  0  0
    7.6853   -2.0612   22.6754 C   0  0  0  0  0  0  0  0  0  0  0  0
    6.7453   -1.6024   21.8099 C   0  0  0  0  0  0  0  0  0  0  0  0
    5.7010   -1.8451   21.7242 H   0  0  0  0  0  0  0  0  0  0  0  0
    7.3437   -0.6953   20.9443 N   0  0  0  0  0  0  0  0  0  0  0  0
    6.6578   -0.0022   19.9030 C   0  0  0  0  0  0  0  0  0  0  0  0
    7.1741    0.0488   18.5946 C   0  0  0  0  0  0  0  0  0  0  0  0
    8.1252   -0.4301   18.3738 H   0  0  0  0  0  0  0  0  0  0  0  0
    6.5584    0.6699   17.5832 N   0  0  0  0  0  0  0  0  0  0  0  0
    5.3974    1.2928   17.8413 C   0  0  0  0  0  0  0  0  0  0  0  0
    4.9188    1.7846   16.9967 H   0  0  0  0  0  0  0  0  0  0  0  0
    4.8119    1.3092   19.1106 C   0  0  0  0  0  0  0  0  0  0  0  0
    3.8813    1.8387   19.2637 H   0  0  0  0  0  0  0  0  0  0  0  0
    5.4453    0.6434   20.1630 C   0  0  0  0  0  0  0  0  0  0  0  0
    5.0214    0.6292   21.1681 H   0  0  0  0  0  0  0  0  0  0  0  0
    8.6688   -0.5385   21.2918 C   0  0  0  0  0  0  0  0  0  0  0  0
    9.8098    0.4964   20.7019 S   0  0  0  0  0  0  0  0  0  0  0  0
    8.8618   -1.4186   22.3064 N   0  0  0  0  0  0  0  0  0  0  0  0
    9.7580   -1.4413   22.7579 H   0  0  0  0  0  0  0  0  0  0  0  0
    8.6742   -3.6881   24.3395 C   0  0  0  0  0  0  0  0  0  0  0  0
    9.6663   -3.4994   23.9342 H   0  0  0  0  0  0  0  0  0  0  0  0
    8.5092   -4.6043   25.3822 C   0  0  0  0  0  0  0  0  0  0  0  0
    9.3807   -5.1109   25.7952 H   0  0  0  0  0  0  0  0  0  0  0  0
  1  2  1  0
  2  3  1  0
  3  4  2  0
  4  5  1  0
  4  6  1  0
  6  7  1  0
  6  8  2  0
  8  9  1  0
  9 10  2  0
 10 11  1  0
 10 12  1  0
 12 13  1  0
 13 14  2  0
 14 15  1  0
 14 16  1  0
 16 17  2  0
 17 18  1  0
 17 19  1  0
 19 20  1  0
 19 21  2  0
 21 22  1  0
 12 23  1  0
 23 24  2  0
 23 25  1  0
 25 26  1  0
  8 27  1  0
 27 28  1  0
 27 29  2  0
 29 30  1  0
 29  3  1  0
 25  9  1  0
 21 13  1  0
M  END
>  <cnnaffinity>  (1) 
-5.4181

>  <filename>  (1) 
Oc1ccc(-c2cn(-c3cccnc3)c(=S)[nH]2)cc1

$$$$
