
     RDKit          3D

 31 34  0  0  0  0  0  0  0  0999 V2000
    7.6690    1.0673   29.0756 H   0  0  0  0  0  0  0  0  0  0  0  0
    7.0632    1.8136   29.0220 O   0  0  0  0  0  0  0  0  0  0  0  0
    6.6695    1.9363   27.7304 C   0  0  0  0  0  0  0  0  0  0  0  0
    5.7796    2.9716   27.4427 C   0  0  0  0  0  0  0  0  0  0  0  0
    5.4694    3.5944   28.2735 H   0  0  0  0  0  0  0  0  0  0  0  0
    5.3430    3.1533   26.1334 C   0  0  0  0  0  0  0  0  0  0  0  0
    4.6532    3.9632   25.9148 H   0  0  0  0  0  0  0  0  0  0  0  0
    5.7886    2.3072   25.1150 C   0  0  0  0  0  0  0  0  0  0  0  0
    5.4470    2.4594   24.0970 H   0  0  0  0  0  0  0  0  0  0  0  0
    6.6826    1.2596   25.4079 C   0  0  0  0  0  0  0  0  0  0  0  0
    7.1370    0.3709   24.3194 C   0  0  0  0  0  0  0  0  0  0  0  0
    6.7517    0.5242   23.0889 N   0  0  0  0  0  0  0  0  0  0  0  0
    7.3310   -0.4261   22.3286 N   0  0  0  0  0  0  0  0  0  0  0  0
    7.4084   -0.6773   20.9622 C   0  0  0  0  0  0  0  0  0  0  0  0
    6.6604    0.0256   19.9085 C   0  0  0  0  0  0  0  0  0  0  0  0
    7.1543    0.0744   18.5846 C   0  0  0  0  0  0  0  0  0  0  0  0
    8.1053   -0.3961   18.3403 H   0  0  0  0  0  0  0  0  0  0  0  0
    6.5435    0.6852   17.5659 N   0  0  0  0  0  0  0  0  0  0  0  0
    5.3796    1.3036   17.8210 C   0  0  0  0  0  0  0  0  0  0  0  0
    4.9114    1.8075   16.9747 H   0  0  0  0  0  0  0  0  0  0  0  0
    4.7905    1.3152   19.0886 C   0  0  0  0  0  0  0  0  0  0  0  0
    3.8593    1.8491   19.2342 H   0  0  0  0  0  0  0  0  0  0  0  0
    5.4308    0.6652   20.1470 C   0  0  0  0  0  0  0  0  0  0  0  0
    5.0172    0.6518   21.1527 H   0  0  0  0  0  0  0  0  0  0  0  0
    8.3193   -1.7081   20.8982 C   0  0  0  0  0  0  0  0  0  0  0  0
    8.7166   -2.1252   19.9951 H   0  0  0  0  0  0  0  0  0  0  0  0
    8.7786   -2.1199   22.1176 N   0  0  0  0  0  0  0  0  0  0  0  0
    8.1719   -1.3065   22.9413 C   0  0  0  0  0  0  0  0  0  0  0  0
    8.2535   -0.9633   24.6275 S   0  0  0  0  0  0  0  0  0  0  0  0
    7.1263    1.0776   26.7317 C   0  0  0  0  0  0  0  0  0  0  0  0
    7.8210    0.2803   26.9920 H   0  0  0  0  0  0  0  0  0  0  0  0
  1  2  1  0
  2  3  1  0
  3  4  2  0
  4  5  1  0
  4  6  1  0
  6  7  1  0
  6  8  2  0
  8  9  1  0
  8 10  1  0
 10 11  1  0
 11 12  2  0
 12 13  1  0
 13 14  1  0
 14 15  1  0
 15 16  2  0
 16 17  1  0
 16 18  1  0
 18 19  2  0
 19 20  1  0
 19 21  1  0
 21 22  1  0
 21 23  2  0
 23 24  1  0
 14 25  2  0
 25 26  1  0
 25 27  1  0
 27 28  2  0
 28 29  1  0
 10 30  2  0
 30 31  1  0
 30  3  1  0
 29 11  1  0
 28 13  1  0
 23 15  1  0
M  END
>  <cnnaffinity>  (1) 
-5.02415

>  <filename>  (1) 
Oc1cccc(-c2nn3c(-c4cccnc4)cnc3s2)c1

$$$$
