
     RDKit          3D

 31 33  0  0  0  0  0  0  0  0999 V2000
    8.3889   -4.3407   26.4849 H   0  0  0  0  0  0  0  0  0  0  0  0
    8.5300   -3.6489   27.1444 O   0  0  0  0  0  0  0  0  0  0  0  0
    8.4189   -2.4723   26.4945 C   0  0  0  0  0  0  0  0  0  0  0  0
    8.6496   -1.3024   27.2161 C   0  0  0  0  0  0  0  0  0  0  0  0
    8.9782   -1.3611   28.2439 H   0  0  0  0  0  0  0  0  0  0  0  0
    8.5093   -0.0886   26.5501 C   0  0  0  0  0  0  0  0  0  0  0  0
    8.6504    1.0950   27.1849 O   0  0  0  0  0  0  0  0  0  0  0  0
    9.2303    0.9608   27.9495 H   0  0  0  0  0  0  0  0  0  0  0  0
    8.2221   -0.0244   25.1891 C   0  0  0  0  0  0  0  0  0  0  0  0
    8.1841    0.9574   24.7340 H   0  0  0  0  0  0  0  0  0  0  0  0
    8.0721   -1.2093   24.4795 C   0  0  0  0  0  0  0  0  0  0  0  0
    7.9263   -1.1558   23.0610 N   0  0  0  0  0  0  0  0  0  0  0  0
    6.9765   -0.4167   22.3603 C   0  0  0  0  0  0  0  0  0  0  0  0
    6.2713    0.2223   22.8692 H   0  0  0  0  0  0  0  0  0  0  0  0
    7.1787   -0.6181   21.0386 C   0  0  0  0  0  0  0  0  0  0  0  0
    6.5431    0.0023   19.8735 C   0  0  0  0  0  0  0  0  0  0  0  0
    7.1456    0.0186   18.5990 C   0  0  0  0  0  0  0  0  0  0  0  0
    8.0970   -0.4826   18.4297 H   0  0  0  0  0  0  0  0  0  0  0  0
    6.6368    0.6460   17.5332 N   0  0  0  0  0  0  0  0  0  0  0  0
    5.4710    1.2951   17.7042 C   0  0  0  0  0  0  0  0  0  0  0  0
    5.0761    1.7980   16.8272 H   0  0  0  0  0  0  0  0  0  0  0  0
    4.7719    1.3347   18.9167 C   0  0  0  0  0  0  0  0  0  0  0  0
    3.8328    1.8801   18.9873 H   0  0  0  0  0  0  0  0  0  0  0  0
    5.3176    0.6799   20.0178 C   0  0  0  0  0  0  0  0  0  0  0  0
    4.8135    0.6891   20.9850 H   0  0  0  0  0  0  0  0  0  0  0  0
    8.2609   -1.4779   20.9574 N   0  0  0  0  0  0  0  0  0  0  0  0
    8.6580   -1.9106   20.1436 H   0  0  0  0  0  0  0  0  0  0  0  0
    8.7674   -1.7891   22.1773 C   0  0  0  0  0  0  0  0  0  0  0  0
   10.1425   -2.6827   22.4343 S   0  0  0  0  0  0  0  0  0  0  0  0
    8.1265   -2.4463   25.1284 C   0  0  0  0  0  0  0  0  0  0  0  0
    8.0100   -3.3662   24.5695 H   0  0  0  0  0  0  0  0  0  0  0  0
  1  2  1  0
  2  3  1  0
  3  4  2  0
  4  5  1  0
  4  6  1  0
  6  7  1  0
  7  8  1  0
  6  9  2  0
  9 10  1  0
  9 11  1  0
 11 12  1  0
 12 13  1  0
 13 14  1  0
 13 15  2  0
 15 16  1  0
 16 17  2  0
 17 18  1  0
 17 19  1  0
 19 20  2  0
 20 21  1  0
 20 22  1  0
 22 23  1  0
 22 24  2  0
 24 25  1  0
 15 26  1  0
 26 27  1  0
 26 28  1  0
 28 29  2  0
 11 30  2  0
 30 31  1  0
 30  3  1  0
 28 12  1  0
 24 16  1  0
M  END
>  <cnnaffinity>  (1) 
-5.29804

>  <filename>  (1) 
Oc1cc(O)cc(-n2cc(-c3cccnc3)[nH]c2=S)c1

$$$$
