
     RDKit          3D

 33 35  0  0  0  0  0  0  0  0999 V2000
   11.0421   -2.4451   22.9605 H   0  0  0  0  0  0  0  0  0  0  0  0
   10.7368   -3.3317   23.2548 O   0  0  0  0  0  0  0  0  0  0  0  0
    9.4874   -3.1838   23.7259 C   0  0  0  0  0  0  0  0  0  0  0  0
    8.9510   -4.2301   24.4871 C   0  0  0  0  0  0  0  0  0  0  0  0
    9.5489   -5.1302   24.6072 H   0  0  0  0  0  0  0  0  0  0  0  0
    7.7026   -4.0836   25.0810 C   0  0  0  0  0  0  0  0  0  0  0  0
    7.2967   -4.8981   25.6723 H   0  0  0  0  0  0  0  0  0  0  0  0
    6.9794   -2.8891   24.9308 C   0  0  0  0  0  0  0  0  0  0  0  0
    6.0169   -2.7706   25.4187 H   0  0  0  0  0  0  0  0  0  0  0  0
    7.4817   -1.8718   24.1166 C   0  0  0  0  0  0  0  0  0  0  0  0
    6.8919   -0.9629   23.9791 H   0  0  0  0  0  0  0  0  0  0  0  0
    8.7191   -2.0284   23.4504 C   0  0  0  0  0  0  0  0  0  0  0  0
    9.2779   -1.0448   22.4865 C   0  0  0  0  0  0  0  0  0  0  0  0
   10.5350   -0.7302   22.4686 N   0  0  0  0  0  0  0  0  0  0  0  0
   10.7278    0.4869   21.6816 C   0  0  0  0  0  0  0  0  0  0  0  0
   10.9126    1.3224   22.3690 H   0  0  0  0  0  0  0  0  0  0  0  0
   11.6115    0.3970   21.0433 H   0  0  0  0  0  0  0  0  0  0  0  0
    9.4211    0.7180   20.8802 C   0  0  0  0  0  0  0  0  0  0  0  0
    9.5497    0.5490   19.8087 H   0  0  0  0  0  0  0  0  0  0  0  0
    9.0279    1.7320   21.0041 H   0  0  0  0  0  0  0  0  0  0  0  0
    8.4978   -0.3377   21.4576 C   0  0  0  0  0  0  0  0  0  0  0  0
    7.2539   -0.6332   21.0307 C   0  0  0  0  0  0  0  0  0  0  0  0
    6.6610   -1.3754   21.5741 H   0  0  0  0  0  0  0  0  0  0  0  0
    6.5760   -0.0083   19.8773 C   0  0  0  0  0  0  0  0  0  0  0  0
    7.1140    0.0328   18.5728 C   0  0  0  0  0  0  0  0  0  0  0  0
    8.0368   -0.5045   18.3554 H   0  0  0  0  0  0  0  0  0  0  0  0
    6.5537    0.6847   17.5449 N   0  0  0  0  0  0  0  0  0  0  0  0
    5.4013    1.3290   17.7812 C   0  0  0  0  0  0  0  0  0  0  0  0
    4.9825    1.8810   16.9427 H   0  0  0  0  0  0  0  0  0  0  0  0
    4.7462    1.3070   19.0157 C   0  0  0  0  0  0  0  0  0  0  0  0
    3.8120    1.8439   19.1390 H   0  0  0  0  0  0  0  0  0  0  0  0
    5.3315    0.6092   20.0701 C   0  0  0  0  0  0  0  0  0  0  0  0
    4.8606    0.5590   21.0500 H   0  0  0  0  0  0  0  0  0  0  0  0
  1  2  1  0
  2  3  1  0
  3  4  2  0
  4  5  1  0
  4  6  1  0
  6  7  1  0
  6  8  2  0
  8  9  1  0
  8 10  1  0
 10 11  1  0
 10 12  2  0
 12 13  1  0
 13 14  2  0
 14 15  1  0
 15 16  1  0
 15 17  1  0
 15 18  1  0
 18 19  1  0
 18 20  1  0
 18 21  1  0
 21 22  2  3
 22 23  1  0
 22 24  1  0
 24 25  2  0
 25 26  1  0
 25 27  1  0
 27 28  2  0
 28 29  1  0
 28 30  1  0
 30 31  1  0
 30 32  2  0
 32 33  1  0
 12  3  1  0
 21 13  1  0
 32 24  1  0
M  END
>  <cnnaffinity>  (1) 
-4.91579

>  <filename>  (1) 
Oc1ccccc1C1=NCCC1=Cc1cccnc1

$$$$
