
     RDKit          3D

 33 36  0  0  0  0  0  0  0  0999 V2000
    7.4686    0.8921   29.4526 H   0  0  0  0  0  0  0  0  0  0  0  0
    6.7340    0.5202   28.9490 O   0  0  0  0  0  0  0  0  0  0  0  0
    7.2649   -0.0154   27.8181 C   0  0  0  0  0  0  0  0  0  0  0  0
    8.6428   -0.1696   27.6457 C   0  0  0  0  0  0  0  0  0  0  0  0
    9.3026    0.0655   28.4780 H   0  0  0  0  0  0  0  0  0  0  0  0
    9.1535   -0.6589   26.4383 C   0  0  0  0  0  0  0  0  0  0  0  0
   10.2302   -0.7261   26.3063 H   0  0  0  0  0  0  0  0  0  0  0  0
    8.2792   -1.0170   25.3964 C   0  0  0  0  0  0  0  0  0  0  0  0
    8.7541   -1.3979   24.1137 N   0  0  0  0  0  0  0  0  0  0  0  0
    9.9209   -2.0978   23.8133 C   0  0  0  0  0  0  0  0  0  0  0  0
   10.5340   -2.4698   24.6117 H   0  0  0  0  0  0  0  0  0  0  0  0
   10.0529   -2.2154   22.4692 C   0  0  0  0  0  0  0  0  0  0  0  0
   10.7903   -2.6835   21.8450 H   0  0  0  0  0  0  0  0  0  0  0  0
    8.9488   -1.5740   21.9287 N   0  0  0  0  0  0  0  0  0  0  0  0
    8.5219   -1.3033   20.6809 N   0  0  0  0  0  0  0  0  0  0  0  0
    7.3825   -0.6260   20.8992 C   0  0  0  0  0  0  0  0  0  0  0  0
    6.6097   -0.0342   19.7912 C   0  0  0  0  0  0  0  0  0  0  0  0
    7.1347   -0.0148   18.4874 C   0  0  0  0  0  0  0  0  0  0  0  0
    8.0595   -0.5397   18.2609 H   0  0  0  0  0  0  0  0  0  0  0  0
    6.5644    0.6368   17.4688 N   0  0  0  0  0  0  0  0  0  0  0  0
    5.4238    1.3015   17.7042 C   0  0  0  0  0  0  0  0  0  0  0  0
    4.9978    1.8523   16.8661 H   0  0  0  0  0  0  0  0  0  0  0  0
    4.7885    1.3094   18.9501 C   0  0  0  0  0  0  0  0  0  0  0  0
    3.8663    1.8640   19.0865 H   0  0  0  0  0  0  0  0  0  0  0  0
    5.3850    0.6220   20.0034 C   0  0  0  0  0  0  0  0  0  0  0  0
    4.9069    0.5997   20.9825 H   0  0  0  0  0  0  0  0  0  0  0  0
    7.0805   -0.4785   22.2732 C   0  0  0  0  0  0  0  0  0  0  0  0
    6.2068   -0.0182   22.7013 H   0  0  0  0  0  0  0  0  0  0  0  0
    8.1521   -1.0910   22.9022 C   0  0  0  0  0  0  0  0  0  0  0  0
    6.8909   -0.9342   25.6155 C   0  0  0  0  0  0  0  0  0  0  0  0
    6.2149   -1.2537   24.8233 H   0  0  0  0  0  0  0  0  0  0  0  0
    6.3873   -0.4262   26.8108 C   0  0  0  0  0  0  0  0  0  0  0  0
    5.3222   -0.2930   26.9645 H   0  0  0  0  0  0  0  0  0  0  0  0
  1  2  1  0
  2  3  1  0
  3  4  2  0
  4  5  1  0
  4  6  1  0
  6  7  1  0
  6  8  2  0
  8  9  1  0
  9 10  1  0
 10 11  1  0
 10 12  2  0
 12 13  1  0
 12 14  1  0
 14 15  1  0
 15 16  2  0
 16 17  1  0
 17 18  2  0
 18 19  1  0
 18 20  1  0
 20 21  2  0
 21 22  1  0
 21 23  1  0
 23 24  1  0
 23 25  2  0
 25 26  1  0
 16 27  1  0
 27 28  1  0
 27 29  2  0
  8 30  1  0
 30 31  1  0
 30 32  2  0
 32 33  1  0
 32  3  1  0
 29  9  1  0
 29 14  1  0
 25 17  1  0
M  END
>  <cnnaffinity>  (1) 
-5.2768

>  <filename>  (1) 
Oc1ccc(-n2ccn3nc(-c4cccnc4)cc23)cc1

$$$$
