
     RDKit          3D

 36 39  0  0  0  0  0  0  0  0999 V2000
    8.7734    2.5661   23.3119 H   0  0  0  0  0  0  0  0  0  0  0  0
    9.2206    1.8013   22.9370 O   0  0  0  0  0  0  0  0  0  0  0  0
   10.5577    2.0686   22.8671 C   0  0  0  0  0  0  0  0  0  0  0  0
   11.0366    3.2959   23.3355 C   0  0  0  0  0  0  0  0  0  0  0  0
   10.3118    4.0019   23.7388 H   0  0  0  0  0  0  0  0  0  0  0  0
   12.3969    3.5973   23.2775 C   0  0  0  0  0  0  0  0  0  0  0  0
   12.7477    4.5630   23.6390 H   0  0  0  0  0  0  0  0  0  0  0  0
   13.2933    2.6622   22.7557 C   0  0  0  0  0  0  0  0  0  0  0  0
   14.3553    2.8996   22.6913 H   0  0  0  0  0  0  0  0  0  0  0  0
   12.8111    1.4297   22.2975 C   0  0  0  0  0  0  0  0  0  0  0  0
   13.5208    0.7006   21.9041 H   0  0  0  0  0  0  0  0  0  0  0  0
   11.4390    1.1069   22.3297 C   0  0  0  0  0  0  0  0  0  0  0  0
   10.9124   -0.2281   21.8196 C   0  0  1  0  0  0  0  0  0  0  0  0
   11.7615   -0.7910   21.4210 H   0  0  0  0  0  0  0  0  0  0  0  0
   10.2453   -1.0861   22.9563 C   0  0  0  0  0  0  0  0  0  0  0  0
   10.7141   -2.0681   23.0465 H   0  0  0  0  0  0  0  0  0  0  0  0
   10.3420   -0.6167   23.9378 H   0  0  0  0  0  0  0  0  0  0  0  0
    8.8151   -1.1937   22.5158 C   0  0  0  0  0  0  0  0  0  0  0  0
    7.6969   -1.6479   23.0517 N   0  0  0  0  0  0  0  0  0  0  0  0
    6.7505   -1.3060   22.1326 N   0  0  0  0  0  0  0  0  0  0  0  0
    5.7801   -1.4500   22.3811 H   0  0  0  0  0  0  0  0  0  0  0  0
    7.2563   -0.6721   21.0244 C   0  0  0  0  0  0  0  0  0  0  0  0
    6.5180   -0.0272   19.9140 C   0  0  0  0  0  0  0  0  0  0  0  0
    7.0949    0.0365   18.6254 C   0  0  0  0  0  0  0  0  0  0  0  0
    8.0471   -0.4496   18.4132 H   0  0  0  0  0  0  0  0  0  0  0  0
    6.5438    0.6684   17.5769 N   0  0  0  0  0  0  0  0  0  0  0  0
    5.3848    1.3114   17.7894 C   0  0  0  0  0  0  0  0  0  0  0  0
    4.9612    1.8383   16.9378 H   0  0  0  0  0  0  0  0  0  0  0  0
    4.7325    1.3367   19.0261 C   0  0  0  0  0  0  0  0  0  0  0  0
    3.8153    1.9041   19.1465 H   0  0  0  0  0  0  0  0  0  0  0  0
    5.3034    0.6596   20.1041 C   0  0  0  0  0  0  0  0  0  0  0  0
    4.8524    0.7079   21.0955 H   0  0  0  0  0  0  0  0  0  0  0  0
    8.6075   -0.6302   21.2657 C   0  0  0  0  0  0  0  0  0  0  0  0
    9.8516   -0.0719   20.6792 C   0  0  0  0  0  0  0  0  0  0  0  0
   10.1411   -0.6303   19.7892 H   0  0  0  0  0  0  0  0  0  0  0  0
    9.7313    0.9651   20.3496 H   0  0  0  0  0  0  0  0  0  0  0  0
  1  2  1  0
  2  3  1  0
  3  4  2  0
  4  5  1  0
  4  6  1  0
  6  7  1  0
  6  8  2  0
  8  9  1  0
  8 10  1  0
 10 11  1  0
 10 12  2  0
 12 13  1  0
 13 14  1  6
 13 15  1  0
 15 16  1  0
 15 17  1  0
 15 18  1  0
 18 19  2  0
 19 20  1  0
 20 21  1  0
 20 22  1  0
 22 23  1  0
 23 24  2  0
 24 25  1  0
 24 26  1  0
 26 27  2  0
 27 28  1  0
 27 29  1  0
 29 30  1  0
 29 31  2  0
 31 32  1  0
 22 33  2  0
 33 34  1  0
 34 35  1  0
 34 36  1  0
 12  3  1  0
 34 13  1  0
 33 18  1  0
 31 23  1  0
M  END
>  <cnnaffinity>  (1) 
-5.32997

>  <filename>  (1) 
Oc1ccccc1[C@H]1Cc2n[nH]c(-c3cccnc3)c2C1

$$$$
