
     RDKit          3D

 33 36  0  0  0  0  0  0  0  0999 V2000
    6.7969    5.2086   22.8725 H   0  0  0  0  0  0  0  0  0  0  0  0
    7.1551    4.4939   22.3392 O   0  0  0  0  0  0  0  0  0  0  0  0
    6.9052    3.3450   22.9995 C   0  0  0  0  0  0  0  0  0  0  0  0
    6.2793    3.3270   24.2405 C   0  0  0  0  0  0  0  0  0  0  0  0
    5.9582    4.2245   24.7562 H   0  0  0  0  0  0  0  0  0  0  0  0
    6.0619    2.0914   24.8469 C   0  0  0  0  0  0  0  0  0  0  0  0
    5.4587    2.1025   26.0535 O   0  0  0  0  0  0  0  0  0  0  0  0
    5.3991    1.1843   26.3417 H   0  0  0  0  0  0  0  0  0  0  0  0
    6.4525    0.8989   24.2440 C   0  0  0  0  0  0  0  0  0  0  0  0
    6.2445   -0.0512   24.7230 H   0  0  0  0  0  0  0  0  0  0  0  0
    7.0808    0.9389   22.9936 C   0  0  0  0  0  0  0  0  0  0  0  0
    7.4818   -0.2810   22.3099 C   0  0  0  0  0  0  0  0  0  0  0  0
    7.3883   -0.6602   20.9710 C   0  0  0  0  0  0  0  0  0  0  0  0
    6.6470    0.0080   19.9080 C   0  0  0  0  0  0  0  0  0  0  0  0
    7.1601    0.0318   18.6012 C   0  0  0  0  0  0  0  0  0  0  0  0
    8.1048   -0.4581   18.3718 H   0  0  0  0  0  0  0  0  0  0  0  0
    6.5626    0.6564   17.5829 N   0  0  0  0  0  0  0  0  0  0  0  0
    5.4024    1.2867   17.8280 C   0  0  0  0  0  0  0  0  0  0  0  0
    4.9458    1.7995   16.9814 H   0  0  0  0  0  0  0  0  0  0  0  0
    4.7900    1.3053   19.0861 C   0  0  0  0  0  0  0  0  0  0  0  0
    3.8596    1.8482   19.2247 H   0  0  0  0  0  0  0  0  0  0  0  0
    5.4179    0.6512   20.1417 C   0  0  0  0  0  0  0  0  0  0  0  0
    4.9804    0.6607   21.1398 H   0  0  0  0  0  0  0  0  0  0  0  0
    8.0405   -1.8447   20.7410 N   0  0  0  0  0  0  0  0  0  0  0  0
    8.4616   -2.1962   21.9230 C   0  0  0  0  0  0  0  0  0  0  0  0
    9.3548   -3.5240   22.5850 S   0  0  0  0  0  0  0  0  0  0  0  0
    9.4286   -2.7369   24.1392 C   0  0  0  0  0  0  0  0  0  0  0  0
    9.9998   -3.1956   24.9343 H   0  0  0  0  0  0  0  0  0  0  0  0
    8.7496   -1.5780   24.1564 C   0  0  0  0  0  0  0  0  0  0  0  0
    8.5999   -0.8620   24.9571 H   0  0  0  0  0  0  0  0  0  0  0  0
    8.1767   -1.3029   22.9154 N   0  0  0  0  0  0  0  0  0  0  0  0
    7.3032    2.1691   22.3734 C   0  0  0  0  0  0  0  0  0  0  0  0
    7.7450    2.2481   21.3914 H   0  0  0  0  0  0  0  0  0  0  0  0
  1  2  1  0
  2  3  1  0
  3  4  2  0
  4  5  1  0
  4  6  1  0
  6  7  1  0
  7  8  1  0
  6  9  2  0
  9 10  1  0
  9 11  1  0
 11 12  1  0
 12 13  2  0
 13 14  1  0
 14 15  2  0
 15 16  1  0
 15 17  1  0
 17 18  2  0
 18 19  1  0
 18 20  1  0
 20 21  1  0
 20 22  2  0
 22 23  1  0
 13 24  1  0
 24 25  2  0
 25 26  1  0
 26 27  1  0
 27 28  1  0
 27 29  2  0
 29 30  1  0
 29 31  1  0
 11 32  2  0
 32 33  1  0
 32  3  1  0
 31 12  1  0
 22 14  1  0
 31 25  1  0
M  END
>  <cnnaffinity>  (1) 
-5.53927

>  <filename>  (1) 
Oc1cc(O)cc(-c2c(-c3cccnc3)nc3sccn23)c1

$$$$
