
     RDKit          3D

 31 33  0  0  0  0  0  0  0  0999 V2000
    9.9261    1.1403   22.6559 H   0  0  0  0  0  0  0  0  0  0  0  0
   10.8650    1.3684   22.6263 O   0  0  0  0  0  0  0  0  0  0  0  0
   11.5414    0.1993   22.4966 C   0  0  0  0  0  0  0  0  0  0  0  0
   12.9346    0.2876   22.5654 C   0  0  0  0  0  0  0  0  0  0  0  0
   13.3554    1.2706   22.7546 H   0  0  0  0  0  0  0  0  0  0  0  0
   13.7044   -0.8619   22.4010 C   0  0  0  0  0  0  0  0  0  0  0  0
   14.7873   -0.8201   22.5089 H   0  0  0  0  0  0  0  0  0  0  0  0
   13.0778   -2.0895   22.1548 C   0  0  0  0  0  0  0  0  0  0  0  0
   13.6943   -2.9700   22.0194 H   0  0  0  0  0  0  0  0  0  0  0  0
   11.6856   -2.1872   22.2054 C   0  0  0  0  0  0  0  0  0  0  0  0
   11.1700   -3.1443   22.1871 H   0  0  0  0  0  0  0  0  0  0  0  0
   10.8913   -1.0449   22.3180 C   0  0  0  0  0  0  0  0  0  0  0  0
    9.4151   -1.1882   22.1715 C   0  0  0  0  0  0  0  0  0  0  0  0
    8.6605   -2.0482   22.9933 C   0  0  0  0  0  0  0  0  0  0  0  0
    9.1297   -2.6116   23.8016 H   0  0  0  0  0  0  0  0  0  0  0  0
    7.3389   -2.2227   22.8561 N   0  0  0  0  0  0  0  0  0  0  0  0
    6.7034   -1.5536   21.8857 C   0  0  0  0  0  0  0  0  0  0  0  0
    5.6295   -1.7251   21.8054 H   0  0  0  0  0  0  0  0  0  0  0  0
    7.3605   -0.7042   20.9724 C   0  0  0  0  0  0  0  0  0  0  0  0
    6.6385    0.0055   19.8864 C   0  0  0  0  0  0  0  0  0  0  0  0
    7.1566    0.0688   18.5765 C   0  0  0  0  0  0  0  0  0  0  0  0
    8.1034   -0.4213   18.3477 H   0  0  0  0  0  0  0  0  0  0  0  0
    6.5522    0.6851   17.5541 N   0  0  0  0  0  0  0  0  0  0  0  0
    5.3891    1.3049   17.8147 C   0  0  0  0  0  0  0  0  0  0  0  0
    4.9218    1.8104   16.9723 H   0  0  0  0  0  0  0  0  0  0  0  0
    4.7872    1.3207   19.0781 C   0  0  0  0  0  0  0  0  0  0  0  0
    3.8551    1.8565   19.2265 H   0  0  0  0  0  0  0  0  0  0  0  0
    5.4202    0.6555   20.1296 C   0  0  0  0  0  0  0  0  0  0  0  0
    5.0027    0.6541   21.1370 H   0  0  0  0  0  0  0  0  0  0  0  0
    8.7394   -0.5403   21.1329 C   0  0  0  0  0  0  0  0  0  0  0  0
    9.2971    0.0906   20.4417 H   0  0  0  0  0  0  0  0  0  0  0  0
  1  2  1  0
  2  3  1  0
  3  4  2  0
  4  5  1  0
  4  6  1  0
  6  7  1  0
  6  8  2  0
  8  9  1  0
  8 10  1  0
 10 11  1  0
 10 12  2  0
 12 13  1  0
 13 14  2  0
 14 15  1  0
 14 16  1  0
 16 17  2  0
 17 18  1  0
 17 19  1  0
 19 20  1  0
 20 21  2  0
 21 22  1  0
 21 23  1  0
 23 24  2  0
 24 25  1  0
 24 26  1  0
 26 27  1  0
 26 28  2  0
 28 29  1  0
 19 30  2  0
 30 31  1  0
 12  3  1  0
 30 13  1  0
 28 20  1  0
M  END
>  <cnnaffinity>  (1) 
-5.37422

>  <filename>  (1) 
Oc1ccccc1-c1cncc(-c2cccnc2)c1

$$$$
