
     RDKit          3D

 37 40  0  0  0  0  0  0  0  0999 V2000
    6.3115    5.2174   24.3721 H   0  0  0  0  0  0  0  0  0  0  0  0
    6.1368    4.4818   24.9729 O   0  0  0  0  0  0  0  0  0  0  0  0
    6.4658    3.3374   24.2969 C   0  0  0  0  0  0  0  0  0  0  0  0
    6.9657    3.3789   23.0000 C   0  0  0  0  0  0  0  0  0  0  0  0
    7.1023    4.3435   22.5163 H   0  0  0  0  0  0  0  0  0  0  0  0
    7.2771    2.1931   22.3402 C   0  0  0  0  0  0  0  0  0  0  0  0
    7.6751    2.2224   21.3314 H   0  0  0  0  0  0  0  0  0  0  0  0
    7.0850    0.9602   22.9787 C   0  0  0  0  0  0  0  0  0  0  0  0
    7.4498   -0.2830   22.3286 C   0  0  0  0  0  0  0  0  0  0  0  0
    7.3545   -0.6865   20.9583 C   0  0  0  0  0  0  0  0  0  0  0  0
    6.6264   -0.0195   19.8792 C   0  0  0  0  0  0  0  0  0  0  0  0
    7.1555    0.0254   18.5785 C   0  0  0  0  0  0  0  0  0  0  0  0
    8.1076   -0.4520   18.3450 H   0  0  0  0  0  0  0  0  0  0  0  0
    6.5641    0.6671   17.5674 N   0  0  0  0  0  0  0  0  0  0  0  0
    5.4034    1.2922   17.8211 C   0  0  0  0  0  0  0  0  0  0  0  0
    4.9429    1.8113   16.9824 H   0  0  0  0  0  0  0  0  0  0  0  0
    4.7888    1.3013   19.0765 C   0  0  0  0  0  0  0  0  0  0  0  0
    3.8641    1.8458   19.2300 H   0  0  0  0  0  0  0  0  0  0  0  0
    5.4108    0.6346   20.1259 C   0  0  0  0  0  0  0  0  0  0  0  0
    4.9961    0.6523   21.1348 H   0  0  0  0  0  0  0  0  0  0  0  0
    8.0726   -1.7845   20.7347 N   0  0  0  0  0  0  0  0  0  0  0  0
    8.5481   -2.0958   21.9387 N   0  0  0  0  0  0  0  0  0  0  0  0
    8.2224   -1.2626   22.9213 C   0  0  0  0  0  0  0  0  0  0  0  0
    9.0675   -1.5038   24.1443 C   0  0  0  0  0  0  0  0  0  0  0  0
    9.6647   -0.6064   24.3469 H   0  0  0  0  0  0  0  0  0  0  0  0
    8.4607   -1.7065   25.0326 H   0  0  0  0  0  0  0  0  0  0  0  0
    9.9422   -2.7185   23.7215 C   0  0  0  0  0  0  0  0  0  0  0  0
   11.0018   -2.4883   23.7823 H   0  0  0  0  0  0  0  0  0  0  0  0
    9.7569   -3.5901   24.3474 H   0  0  0  0  0  0  0  0  0  0  0  0
    9.5733   -3.0504   22.2509 C   0  0  0  0  0  0  0  0  0  0  0  0
    9.1707   -4.0591   22.1408 H   0  0  0  0  0  0  0  0  0  0  0  0
   10.4091   -2.8865   21.5675 H   0  0  0  0  0  0  0  0  0  0  0  0
    6.6048    0.9211   24.2942 C   0  0  0  0  0  0  0  0  0  0  0  0
    6.4567   -0.0136   24.8326 H   0  0  0  0  0  0  0  0  0  0  0  0
    6.2817    2.0951   24.9523 C   0  0  0  0  0  0  0  0  0  0  0  0
    5.7980    1.9842   26.2171 O   0  0  0  0  0  0  0  0  0  0  0  0
    5.6303    2.8807   26.5424 H   0  0  0  0  0  0  0  0  0  0  0  0
  1  2  1  0
  2  3  1  0
  3  4  2  0
  4  5  1  0
  4  6  1  0
  6  7  1  0
  6  8  2  0
  8  9  1  0
  9 10  1  0
 10 11  1  0
 11 12  2  0
 12 13  1  0
 12 14  1  0
 14 15  2  0
 15 16  1  0
 15 17  1  0
 17 18  1  0
 17 19  2  0
 19 20  1  0
 10 21  2  0
 21 22  1  0
 22 23  1  0
 23 24  1  0
 24 25  1  0
 24 26  1  0
 24 27  1  0
 27 28  1  0
 27 29  1  0
 27 30  1  0
 30 31  1  0
 30 32  1  0
  8 33  1  0
 33 34  1  0
 33 35  2  0
 35 36  1  0
 36 37  1  0
 35  3  1  0
 23  9  2  0
 19 11  1  0
 30 22  1  0
M  END
>  <cnnaffinity>  (1) 
-5.49483

>  <filename>  (1) 
Oc1ccc(-c2c(-c3cccnc3)nn3c2CCC3)cc1O

$$$$
