
     RDKit          3D

 29 30  0  0  0  0  0  0  0  0999 V2000
    7.0195    3.6602   21.8620 H   0  0  0  0  0  0  0  0  0  0  0  0
    6.4365    3.8709   22.6025 O   0  0  0  0  0  0  0  0  0  0  0  0
    6.3665    2.7784   23.4106 C   0  0  0  0  0  0  0  0  0  0  0  0
    5.5461    2.9222   24.5273 C   0  0  0  0  0  0  0  0  0  0  0  0
    5.0311    3.8625   24.6730 H   0  0  0  0  0  0  0  0  0  0  0  0
    5.4030    1.8755   25.4348 C   0  0  0  0  0  0  0  0  0  0  0  0
    4.3723    2.0766   26.8149 Cl  0  0  0  0  0  0  0  0  0  0  0  0
    6.0745    0.6732   25.2476 C   0  0  0  0  0  0  0  0  0  0  0  0
    5.9472   -0.1294   25.9687 H   0  0  0  0  0  0  0  0  0  0  0  0
    6.9014    0.5187   24.1284 C   0  0  0  0  0  0  0  0  0  0  0  0
    7.4239   -0.4220   23.9988 H   0  0  0  0  0  0  0  0  0  0  0  0
    7.0654    1.5539   23.1948 C   0  0  0  0  0  0  0  0  0  0  0  0
    7.9005    1.5004   22.1072 O   0  0  0  0  0  0  0  0  0  0  0  0
    8.4398    0.2552   21.6410 C   0  0  0  0  0  0  0  0  0  0  0  0
    9.1568    0.5632   20.8762 H   0  0  0  0  0  0  0  0  0  0  0  0
    9.0057   -0.2498   22.4366 H   0  0  0  0  0  0  0  0  0  0  0  0
    7.4043   -0.6888   21.0050 C   0  0  0  0  0  0  0  0  0  0  0  0
    6.7103   -1.0323   21.7814 H   0  0  0  0  0  0  0  0  0  0  0  0
    7.9248   -1.5788   20.6238 H   0  0  0  0  0  0  0  0  0  0  0  0
    6.6404   -0.0158   19.8924 C   0  0  0  0  0  0  0  0  0  0  0  0
    7.1605    0.0595   18.5881 C   0  0  0  0  0  0  0  0  0  0  0  0
    8.1143   -0.4202   18.3667 H   0  0  0  0  0  0  0  0  0  0  0  0
    6.5598    0.6850   17.5671 N   0  0  0  0  0  0  0  0  0  0  0  0
    5.3970    1.2975   17.8340 C   0  0  0  0  0  0  0  0  0  0  0  0
    4.9142    1.7866   16.9913 H   0  0  0  0  0  0  0  0  0  0  0  0
    4.8005    1.3162   19.1003 C   0  0  0  0  0  0  0  0  0  0  0  0
    3.8674    1.8463   19.2505 H   0  0  0  0  0  0  0  0  0  0  0  0
    5.4341    0.6471   20.1490 C   0  0  0  0  0  0  0  0  0  0  0  0
    5.0166    0.6350   21.1600 H   0  0  0  0  0  0  0  0  0  0  0  0
  1  2  1  0
  2  3  1  0
  3  4  2  0
  4  5  1  0
  4  6  1  0
  6  7  1  0
  6  8  2  0
  8  9  1  0
  8 10  1  0
 10 11  1  0
 10 12  2  0
 12 13  1  0
 13 14  1  0
 14 15  1  0
 14 16  1  0
 14 17  1  0
 17 18  1  0
 17 19  1  0
 17 20  1  0
 20 21  2  0
 21 22  1  0
 21 23  1  0
 23 24  2  0
 24 25  1  0
 24 26  1  0
 26 27  1  0
 26 28  2  0
 28 29  1  0
 12  3  1  0
 28 20  1  0
M  END
>  <cnnaffinity>  (1) 
-4.51849

>  <filename>  (1) 
Oc1cc(Cl)ccc1OCCc1cccnc1

$$$$
