
     RDKit          3D

 34 36  0  0  0  0  0  0  0  0999 V2000
   15.0780    1.3487   22.8530 H   0  0  0  0  0  0  0  0  0  0  0  0
   14.8261    0.4295   22.7055 O   0  0  0  0  0  0  0  0  0  0  0  0
   13.5171    0.3559   22.3211 C   0  0  0  0  0  0  0  0  0  0  0  0
   12.6615    1.4588   22.3313 C   0  0  0  0  0  0  0  0  0  0  0  0
   13.0375    2.4089   22.7016 H   0  0  0  0  0  0  0  0  0  0  0  0
   11.3388    1.3371   21.8938 C   0  0  0  0  0  0  0  0  0  0  0  0
   10.6626    2.1898   21.9673 H   0  0  0  0  0  0  0  0  0  0  0  0
   10.8648    0.1018   21.4263 C   0  0  0  0  0  0  0  0  0  0  0  0
    9.4687    0.0256   20.9625 C   0  0  0  0  0  0  0  0  0  0  0  0
    9.1630    0.8630   20.3325 H   0  0  0  0  0  0  0  0  0  0  0  0
    8.5619   -0.8918   21.3360 C   0  0  0  0  0  0  0  0  0  0  0  0
    7.1195   -0.9216   20.9974 C   0  0  0  0  0  0  0  0  0  0  0  0
    6.5208   -0.1214   19.9112 C   0  0  0  0  0  0  0  0  0  0  0  0
    7.1665   -0.0718   18.6722 C   0  0  0  0  0  0  0  0  0  0  0  0
    8.1087   -0.5996   18.5314 H   0  0  0  0  0  0  0  0  0  0  0  0
    6.7048    0.6092   17.6166 N   0  0  0  0  0  0  0  0  0  0  0  0
    5.5660    1.2956   17.7846 C   0  0  0  0  0  0  0  0  0  0  0  0
    5.2156    1.8634   16.9237 H   0  0  0  0  0  0  0  0  0  0  0  0
    4.8424    1.3116   18.9843 C   0  0  0  0  0  0  0  0  0  0  0  0
    3.9396    1.9064   19.0564 H   0  0  0  0  0  0  0  0  0  0  0  0
    5.3149    0.5730   20.0692 C   0  0  0  0  0  0  0  0  0  0  0  0
    4.7770    0.5336   21.0186 H   0  0  0  0  0  0  0  0  0  0  0  0
    6.4296   -1.6996   21.7383 N   0  0  0  0  0  0  0  0  0  0  0  0
    7.2987   -2.2854   22.7674 C   0  0  0  0  0  0  0  0  0  0  0  0
    7.0447   -1.8144   23.7259 H   0  0  0  0  0  0  0  0  0  0  0  0
    7.0905   -3.3529   22.8639 H   0  0  0  0  0  0  0  0  0  0  0  0
    8.7614   -1.9844   22.3593 C   0  0  0  0  0  0  0  0  0  0  0  0
    9.2214   -2.8631   21.8925 H   0  0  0  0  0  0  0  0  0  0  0  0
    9.4076   -1.6700   23.1839 H   0  0  0  0  0  0  0  0  0  0  0  0
   11.7331   -1.0082   21.4548 C   0  0  0  0  0  0  0  0  0  0  0  0
   11.4047   -1.9882   21.1408 H   0  0  0  0  0  0  0  0  0  0  0  0
   13.0424   -0.9074   21.9032 C   0  0  0  0  0  0  0  0  0  0  0  0
   13.8056   -2.0389   21.8994 O   0  0  0  0  0  0  0  0  0  0  0  0
   14.6566   -1.8193   22.3061 H   0  0  0  0  0  0  0  0  0  0  0  0
  1  2  1  0
  2  3  1  0
  3  4  2  0
  4  5  1  0
  4  6  1  0
  6  7  1  0
  6  8  2  0
  8  9  1  0
  9 10  1  0
  9 11  2  3
 11 12  1  0
 12 13  1  0
 13 14  2  0
 14 15  1  0
 14 16  1  0
 16 17  2  0
 17 18  1  0
 17 19  1  0
 19 20  1  0
 19 21  2  0
 21 22  1  0
 12 23  2  0
 23 24  1  0
 24 25  1  0
 24 26  1  0
 24 27  1  0
 27 28  1  0
 27 29  1  0
  8 30  1  0
 30 31  1  0
 30 32  2  0
 32 33  1  0
 33 34  1  0
 32  3  1  0
 27 11  1  0
 21 13  1  0
M  END
>  <cnnaffinity>  (1) 
-6.10605

>  <filename>  (1) 
Oc1ccc(C=C2CCN=C2c2cccnc2)cc1O

$$$$
