
     RDKit          3D

 31 33  0  0  0  0  0  0  0  0999 V2000
    9.7038    0.1856   28.4814 H   0  0  0  0  0  0  0  0  0  0  0  0
    9.4580   -0.7351   28.2873 O   0  0  0  0  0  0  0  0  0  0  0  0
    8.9005   -0.7973   27.0446 C   0  0  0  0  0  0  0  0  0  0  0  0
    8.6980   -2.0680   26.4915 C   0  0  0  0  0  0  0  0  0  0  0  0
    8.8671   -2.9226   27.1426 H   0  0  0  0  0  0  0  0  0  0  0  0
    8.3103   -2.2234   25.1534 C   0  0  0  0  0  0  0  0  0  0  0  0
    8.2247   -3.2130   24.7064 H   0  0  0  0  0  0  0  0  0  0  0  0
    8.0682   -1.0845   24.3746 C   0  0  0  0  0  0  0  0  0  0  0  0
    7.8437   -1.1740   22.9577 N   0  0  0  0  0  0  0  0  0  0  0  0
    6.8619   -0.4787   22.2540 C   0  0  0  0  0  0  0  0  0  0  0  0
    6.0897    0.0539   22.7919 H   0  0  0  0  0  0  0  0  0  0  0  0
    7.1041   -0.6222   20.9278 C   0  0  0  0  0  0  0  0  0  0  0  0
    6.4889    0.0017   19.7505 C   0  0  0  0  0  0  0  0  0  0  0  0
    7.1028    0.0381   18.4790 C   0  0  0  0  0  0  0  0  0  0  0  0
    8.0544   -0.4545   18.2909 H   0  0  0  0  0  0  0  0  0  0  0  0
    6.6025    0.6808   17.4182 N   0  0  0  0  0  0  0  0  0  0  0  0
    5.4443    1.3402   17.5786 C   0  0  0  0  0  0  0  0  0  0  0  0
    5.0648    1.8670   16.7055 H   0  0  0  0  0  0  0  0  0  0  0  0
    4.7416    1.3597   18.7854 C   0  0  0  0  0  0  0  0  0  0  0  0
    3.8224    1.9235   18.8591 H   0  0  0  0  0  0  0  0  0  0  0  0
    5.2662    0.6801   19.8813 C   0  0  0  0  0  0  0  0  0  0  0  0
    4.7520    0.6833   20.8392 H   0  0  0  0  0  0  0  0  0  0  0  0
    8.2293   -1.4268   20.8483 N   0  0  0  0  0  0  0  0  0  0  0  0
    8.7147   -1.7609   20.0330 H   0  0  0  0  0  0  0  0  0  0  0  0
    8.7279   -1.7489   22.0689 C   0  0  0  0  0  0  0  0  0  0  0  0
   10.1299   -2.5948   22.3423 S   0  0  0  0  0  0  0  0  0  0  0  0
    8.1246    0.1871   24.9643 C   0  0  0  0  0  0  0  0  0  0  0  0
    7.8751    1.0669   24.3768 H   0  0  0  0  0  0  0  0  0  0  0  0
    8.5362    0.3433   26.2845 C   0  0  0  0  0  0  0  0  0  0  0  0
    8.6202    1.5845   26.8661 O   0  0  0  0  0  0  0  0  0  0  0  0
    8.6371    2.2441   26.1629 H   0  0  0  0  0  0  0  0  0  0  0  0
  1  2  1  0
  2  3  1  0
  3  4  2  0
  4  5  1  0
  4  6  1  0
  6  7  1  0
  6  8  2  0
  8  9  1  0
  9 10  1  0
 10 11  1  0
 10 12  2  0
 12 13  1  0
 13 14  2  0
 14 15  1  0
 14 16  1  0
 16 17  2  0
 17 18  1  0
 17 19  1  0
 19 20  1  0
 19 21  2  0
 21 22  1  0
 12 23  1  0
 23 24  1  0
 23 25  1  0
 25 26  2  0
  8 27  1  0
 27 28  1  0
 27 29  2  0
 29 30  1  0
 30 31  1  0
 29  3  1  0
 25  9  1  0
 21 13  1  0
M  END
>  <cnnaffinity>  (1) 
-5.43258

>  <filename>  (1) 
Oc1ccc(-n2cc(-c3cccnc3)[nH]c2=S)cc1O

$$$$
