
     RDKit          3D

 36 39  0  0  0  0  0  0  0  0999 V2000
    5.6778    0.0136   25.6898 H   0  0  0  0  0  0  0  0  0  0  0  0
    6.1650   -0.1886   24.8824 O   0  0  0  0  0  0  0  0  0  0  0  0
    6.4082    1.0048   24.2666 C   0  0  0  0  0  0  0  0  0  0  0  0
    6.0576    2.1976   24.9065 C   0  0  0  0  0  0  0  0  0  0  0  0
    5.6010    2.1559   25.8926 H   0  0  0  0  0  0  0  0  0  0  0  0
    6.3205    3.4280   24.3044 C   0  0  0  0  0  0  0  0  0  0  0  0
    6.0768    4.3511   24.8255 H   0  0  0  0  0  0  0  0  0  0  0  0
    6.9063    3.4696   23.0388 C   0  0  0  0  0  0  0  0  0  0  0  0
    7.1449    4.4210   22.5742 H   0  0  0  0  0  0  0  0  0  0  0  0
    7.2153    2.2837   22.3816 C   0  0  0  0  0  0  0  0  0  0  0  0
    7.6507    2.3125   21.3840 H   0  0  0  0  0  0  0  0  0  0  0  0
    6.9986    1.0341   22.9837 C   0  0  0  0  0  0  0  0  0  0  0  0
    7.4813   -0.1803   22.3167 C   0  0  0  0  0  0  0  0  0  0  0  0
    7.3823   -0.6049   20.9457 C   0  0  0  0  0  0  0  0  0  0  0  0
    6.6188    0.0069   19.8447 C   0  0  0  0  0  0  0  0  0  0  0  0
    7.1263   -0.0116   18.5282 C   0  0  0  0  0  0  0  0  0  0  0  0
    8.0349   -0.5624   18.2901 H   0  0  0  0  0  0  0  0  0  0  0  0
    6.5592    0.6282   17.5004 N   0  0  0  0  0  0  0  0  0  0  0  0
    5.4200    1.2950   17.7420 C   0  0  0  0  0  0  0  0  0  0  0  0
    4.9935    1.8426   16.9041 H   0  0  0  0  0  0  0  0  0  0  0  0
    4.7831    1.3065   18.9870 C   0  0  0  0  0  0  0  0  0  0  0  0
    3.8461    1.8386   19.1070 H   0  0  0  0  0  0  0  0  0  0  0  0
    5.3865    0.6490   20.0569 C   0  0  0  0  0  0  0  0  0  0  0  0
    4.9159    0.6390   21.0438 H   0  0  0  0  0  0  0  0  0  0  0  0
    8.1093   -1.7051   20.7381 N   0  0  0  0  0  0  0  0  0  0  0  0
    8.6160   -1.9803   21.9367 N   0  0  0  0  0  0  0  0  0  0  0  0
    8.2993   -1.1298   22.9091 C   0  0  0  0  0  0  0  0  0  0  0  0
    9.0608   -1.4548   24.1700 C   0  0  0  0  0  0  0  0  0  0  0  0
    9.6594   -0.6030   24.5030 H   0  0  0  0  0  0  0  0  0  0  0  0
    8.3794   -1.7251   24.9781 H   0  0  0  0  0  0  0  0  0  0  0  0
    9.9734   -2.6311   23.7301 C   0  0  0  0  0  0  0  0  0  0  0  0
    9.9330   -3.4655   24.4298 H   0  0  0  0  0  0  0  0  0  0  0  0
   11.0099   -2.3089   23.6736 H   0  0  0  0  0  0  0  0  0  0  0  0
    9.5306   -3.0292   22.2998 C   0  0  0  0  0  0  0  0  0  0  0  0
   10.3719   -2.9858   21.6152 H   0  0  0  0  0  0  0  0  0  0  0  0
    9.0327   -4.0008   22.2431 H   0  0  0  0  0  0  0  0  0  0  0  0
  1  2  1  0
  2  3  1  0
  3  4  2  0
  4  5  1  0
  4  6  1  0
  6  7  1  0
  6  8  2  0
  8  9  1  0
  8 10  1  0
 10 11  1  0
 10 12  2  0
 12 13  1  0
 13 14  1  0
 14 15  1  0
 15 16  2  0
 16 17  1  0
 16 18  1  0
 18 19  2  0
 19 20  1  0
 19 21  1  0
 21 22  1  0
 21 23  2  0
 23 24  1  0
 14 25  2  0
 25 26  1  0
 26 27  1  0
 27 28  1  0
 28 29  1  0
 28 30  1  0
 28 31  1  0
 31 32  1  0
 31 33  1  0
 31 34  1  0
 34 35  1  0
 34 36  1  0
 12  3  1  0
 27 13  2  0
 23 15  1  0
 34 26  1  0
M  END
>  <cnnaffinity>  (1) 
-5.35552

>  <filename>  (1) 
Oc1ccccc1-c1c(-c2cccnc2)nn2c1CCC2

$$$$
