
     RDKit          3D

 31 33  0  0  0  0  0  0  0  0999 V2000
    5.5881   -1.6028   26.7652 H   0  0  0  0  0  0  0  0  0  0  0  0
    5.7035   -0.8086   27.2953 O   0  0  0  0  0  0  0  0  0  0  0  0
    6.1423    0.1682   26.4649 C   0  0  0  0  0  0  0  0  0  0  0  0
    6.3813    1.4120   27.0432 C   0  0  0  0  0  0  0  0  0  0  0  0
    6.2013    1.5130   28.1050 H   0  0  0  0  0  0  0  0  0  0  0  0
    6.8286    2.4574   26.2430 C   0  0  0  0  0  0  0  0  0  0  0  0
    7.0032    3.4234   26.6986 H   0  0  0  0  0  0  0  0  0  0  0  0
    7.0400    2.2770   24.8745 C   0  0  0  0  0  0  0  0  0  0  0  0
    7.3965    3.0980   24.2605 H   0  0  0  0  0  0  0  0  0  0  0  0
    6.8120    1.0131   24.3092 C   0  0  0  0  0  0  0  0  0  0  0  0
    7.0233    0.8254   22.9419 N   0  0  0  0  0  0  0  0  0  0  0  0
    6.9815    1.6480   22.3612 H   0  0  0  0  0  0  0  0  0  0  0  0
    7.5090   -0.3254   22.3154 C   0  0  0  0  0  0  0  0  0  0  0  0
    8.2851   -1.3784   22.8587 C   0  0  0  0  0  0  0  0  0  0  0  0
    8.6218   -1.4601   23.8804 H   0  0  0  0  0  0  0  0  0  0  0  0
    8.6035   -2.2904   21.9473 N   0  0  0  0  0  0  0  0  0  0  0  0
    8.0472   -1.8252   20.8208 N   0  0  0  0  0  0  0  0  0  0  0  0
    8.1330   -2.3594   19.9713 H   0  0  0  0  0  0  0  0  0  0  0  0
    7.3651   -0.6590   20.9731 C   0  0  0  0  0  0  0  0  0  0  0  0
    6.6502    0.0132   19.8833 C   0  0  0  0  0  0  0  0  0  0  0  0
    7.1602    0.0647   18.5693 C   0  0  0  0  0  0  0  0  0  0  0  0
    8.1176   -0.4043   18.3398 H   0  0  0  0  0  0  0  0  0  0  0  0
    6.5555    0.6899   17.5550 N   0  0  0  0  0  0  0  0  0  0  0  0
    5.3901    1.3032   17.8239 C   0  0  0  0  0  0  0  0  0  0  0  0
    4.9111    1.7943   16.9833 H   0  0  0  0  0  0  0  0  0  0  0  0
    4.7957    1.3183   19.0914 C   0  0  0  0  0  0  0  0  0  0  0  0
    3.8646    1.8491   19.2480 H   0  0  0  0  0  0  0  0  0  0  0  0
    5.4327    0.6620   20.1443 C   0  0  0  0  0  0  0  0  0  0  0  0
    5.0177    0.6250   21.1545 H   0  0  0  0  0  0  0  0  0  0  0  0
    6.3466   -0.0457   25.1018 C   0  0  0  0  0  0  0  0  0  0  0  0
    6.1691   -1.0025   24.6184 H   0  0  0  0  0  0  0  0  0  0  0  0
  1  2  1  0
  2  3  1  0
  3  4  2  0
  4  5  1  0
  4  6  1  0
  6  7  1  0
  6  8  2  0
  8  9  1  0
  8 10  1  0
 10 11  1  0
 11 12  1  0
 11 13  1  0
 13 14  1  0
 14 15  1  0
 14 16  2  0
 16 17  1  0
 17 18  1  0
 17 19  1  0
 19 20  1  0
 20 21  2  0
 21 22  1  0
 21 23  1  0
 23 24  2  0
 24 25  1  0
 24 26  1  0
 26 27  1  0
 26 28  2  0
 28 29  1  0
 10 30  2  0
 30 31  1  0
 30  3  1  0
 19 13  2  0
 28 20  1  0
M  END
>  <cnnaffinity>  (1) 
-5.31133

>  <filename>  (1) 
Oc1cccc(Nc2cn[nH]c2-c2cccnc2)c1

$$$$
