
     RDKit          3D

 32 34  0  0  0  0  0  0  0  0999 V2000
    4.8909   -7.7263   24.7092 H   0  0  0  0  0  0  0  0  0  0  0  0
    4.1485   -7.1116   24.6632 O   0  0  0  0  0  0  0  0  0  0  0  0
    4.6019   -5.9652   24.0549 C   0  0  0  0  0  0  0  0  0  0  0  0
    5.7614   -5.9515   23.2825 C   0  0  0  0  0  0  0  0  0  0  0  0
    6.3301   -6.8753   23.1843 H   0  0  0  0  0  0  0  0  0  0  0  0
    6.1608   -4.7752   22.6259 C   0  0  0  0  0  0  0  0  0  0  0  0
    7.0539   -4.7688   22.0149 H   0  0  0  0  0  0  0  0  0  0  0  0
    5.3988   -3.6049   22.7305 C   0  0  0  0  0  0  0  0  0  0  0  0
    5.6874   -2.4434   21.9813 N   0  0  0  0  0  0  0  0  0  0  0  0
    4.9534   -1.7537   22.0824 H   0  0  0  0  0  0  0  0  0  0  0  0
    6.9531   -1.8240   21.8687 C   0  0  0  0  0  0  0  0  0  0  0  0
    8.1075   -2.0132   22.6758 C   0  0  0  0  0  0  0  0  0  0  0  0
    8.2119   -2.6807   23.5190 H   0  0  0  0  0  0  0  0  0  0  0  0
    9.1115   -1.2288   22.3041 N   0  0  0  0  0  0  0  0  0  0  0  0
    8.6239   -0.5490   21.2577 N   0  0  0  0  0  0  0  0  0  0  0  0
    9.1742    0.2067   20.8678 H   0  0  0  0  0  0  0  0  0  0  0  0
    7.3267   -0.8419   20.9511 C   0  0  0  0  0  0  0  0  0  0  0  0
    6.6211   -0.1236   19.8587 C   0  0  0  0  0  0  0  0  0  0  0  0
    7.1399   -0.0339   18.5451 C   0  0  0  0  0  0  0  0  0  0  0  0
    8.0685   -0.5418   18.2809 H   0  0  0  0  0  0  0  0  0  0  0  0
    6.5655    0.6506   17.5469 N   0  0  0  0  0  0  0  0  0  0  0  0
    5.4228    1.3010   17.8223 C   0  0  0  0  0  0  0  0  0  0  0  0
    4.9818    1.8723   17.0042 H   0  0  0  0  0  0  0  0  0  0  0  0
    4.8129    1.2769   19.0786 C   0  0  0  0  0  0  0  0  0  0  0  0
    3.8992    1.8371   19.2397 H   0  0  0  0  0  0  0  0  0  0  0  0
    5.4194    0.5568   20.1115 C   0  0  0  0  0  0  0  0  0  0  0  0
    4.9992    0.5555   21.1173 H   0  0  0  0  0  0  0  0  0  0  0  0
    4.2590   -3.6135   23.5505 C   0  0  0  0  0  0  0  0  0  0  0  0
    3.6649   -2.7360   23.7758 H   0  0  0  0  0  0  0  0  0  0  0  0
    3.8391   -4.7768   24.1848 C   0  0  0  0  0  0  0  0  0  0  0  0
    2.6917   -4.7034   24.9174 O   0  0  0  0  0  0  0  0  0  0  0  0
    2.4554   -5.6027   25.1891 H   0  0  0  0  0  0  0  0  0  0  0  0
  1  2  1  0
  2  3  1  0
  3  4  2  0
  4  5  1  0
  4  6  1  0
  6  7  1  0
  6  8  2  0
  8  9  1  0
  9 10  1  0
  9 11  1  0
 11 12  1  0
 12 13  1  0
 12 14  2  0
 14 15  1  0
 15 16  1  0
 15 17  1  0
 17 18  1  0
 18 19  2  0
 19 20  1  0
 19 21  1  0
 21 22  2  0
 22 23  1  0
 22 24  1  0
 24 25  1  0
 24 26  2  0
 26 27  1  0
  8 28  1  0
 28 29  1  0
 28 30  2  0
 30 31  1  0
 31 32  1  0
 30  3  1  0
 17 11  2  0
 26 18  1  0
M  END
>  <cnnaffinity>  (1) 
-5.36506

>  <filename>  (1) 
Oc1ccc(Nc2cn[nH]c2-c2cccnc2)cc1O

$$$$
