
     RDKit          3D

 33 35  0  0  0  0  0  0  0  0999 V2000
    6.9060   -6.2189   23.2427 H   0  0  0  0  0  0  0  0  0  0  0  0
    7.1490   -5.5244   22.6218 O   0  0  0  0  0  0  0  0  0  0  0  0
    7.7690   -4.5314   23.3151 C   0  0  0  0  0  0  0  0  0  0  0  0
    7.9931   -4.5778   24.6973 C   0  0  0  0  0  0  0  0  0  0  0  0
    7.6711   -5.4354   25.2881 H   0  0  0  0  0  0  0  0  0  0  0  0
    8.6457   -3.5049   25.3232 C   0  0  0  0  0  0  0  0  0  0  0  0
    8.8449   -3.5309   26.3927 H   0  0  0  0  0  0  0  0  0  0  0  0
    9.0687   -2.3996   24.5882 C   0  0  0  0  0  0  0  0  0  0  0  0
    9.5928   -1.5739   25.0653 H   0  0  0  0  0  0  0  0  0  0  0  0
    8.8488   -2.3481   23.2025 C   0  0  0  0  0  0  0  0  0  0  0  0
    9.3634   -1.1657   22.4392 C   0  0  0  0  0  0  0  0  0  0  0  0
   10.4807   -0.5836   22.6997 N   0  0  0  0  0  0  0  0  0  0  0  0
   10.6978    0.5108   21.7476 C   0  0  0  0  0  0  0  0  0  0  0  0
   10.7438    1.4518   22.3059 H   0  0  0  0  0  0  0  0  0  0  0  0
   11.6682    0.3722   21.2641 H   0  0  0  0  0  0  0  0  0  0  0  0
    9.5106    0.5150   20.7514 C   0  0  0  0  0  0  0  0  0  0  0  0
    9.0271    1.4926   20.6563 H   0  0  0  0  0  0  0  0  0  0  0  0
    9.7506    0.1834   19.7413 H   0  0  0  0  0  0  0  0  0  0  0  0
    8.6058   -0.5335   21.3440 C   0  0  0  0  0  0  0  0  0  0  0  0
    7.3232   -0.7199   20.9958 C   0  0  0  0  0  0  0  0  0  0  0  0
    6.6786   -1.3372   21.6247 H   0  0  0  0  0  0  0  0  0  0  0  0
    6.6409   -0.0163   19.8957 C   0  0  0  0  0  0  0  0  0  0  0  0
    7.1622    0.0648   18.5898 C   0  0  0  0  0  0  0  0  0  0  0  0
    8.1076   -0.4270   18.3715 H   0  0  0  0  0  0  0  0  0  0  0  0
    6.5615    0.6869   17.5674 N   0  0  0  0  0  0  0  0  0  0  0  0
    5.3980    1.3004   17.8329 C   0  0  0  0  0  0  0  0  0  0  0  0
    4.9155    1.7877   16.9899 H   0  0  0  0  0  0  0  0  0  0  0  0
    4.7983    1.3139   19.0992 C   0  0  0  0  0  0  0  0  0  0  0  0
    3.8685    1.8494   19.2531 H   0  0  0  0  0  0  0  0  0  0  0  0
    5.4196    0.6337   20.1455 C   0  0  0  0  0  0  0  0  0  0  0  0
    5.0061    0.6232   21.1571 H   0  0  0  0  0  0  0  0  0  0  0  0
    8.1910   -3.4212   22.5737 C   0  0  0  0  0  0  0  0  0  0  0  0
    7.9989   -3.4274   21.5067 H   0  0  0  0  0  0  0  0  0  0  0  0
  1  2  1  0
  2  3  1  0
  3  4  2  0
  4  5  1  0
  4  6  1  0
  6  7  1  0
  6  8  2  0
  8  9  1  0
  8 10  1  0
 10 11  1  0
 11 12  2  0
 12 13  1  0
 13 14  1  0
 13 15  1  0
 13 16  1  0
 16 17  1  0
 16 18  1  0
 16 19  1  0
 19 20  2  3
 20 21  1  0
 20 22  1  0
 22 23  2  0
 23 24  1  0
 23 25  1  0
 25 26  2  0
 26 27  1  0
 26 28  1  0
 28 29  1  0
 28 30  2  0
 30 31  1  0
 10 32  2  0
 32 33  1  0
 32  3  1  0
 19 11  1  0
 30 22  1  0
M  END
>  <cnnaffinity>  (1) 
-5.16564

>  <filename>  (1) 
Oc1cccc(C2=NCCC2=Cc2cccnc2)c1

$$$$
