
     RDKit          3D

 30 32  0  0  0  0  0  0  0  0999 V2000
    7.5036   -0.6555   25.1916 H   0  0  0  0  0  0  0  0  0  0  0  0
    7.9694   -1.1196   25.8967 O   0  0  0  0  0  0  0  0  0  0  0  0
    7.6528   -2.4378   25.8811 C   0  0  0  0  0  0  0  0  0  0  0  0
    8.2480   -3.2041   26.8807 C   0  0  0  0  0  0  0  0  0  0  0  0
    8.9102   -2.6925   27.5614 H   0  0  0  0  0  0  0  0  0  0  0  0
    8.0184   -4.5736   26.9376 C   0  0  0  0  0  0  0  0  0  0  0  0
    8.8646   -5.5216   28.1097 Cl  0  0  0  0  0  0  0  0  0  0  0  0
    7.1514   -5.2010   26.0452 C   0  0  0  0  0  0  0  0  0  0  0  0
    6.9562   -6.2655   26.1394 H   0  0  0  0  0  0  0  0  0  0  0  0
    6.5564   -4.4381   25.0386 C   0  0  0  0  0  0  0  0  0  0  0  0
    5.8747   -4.9025   24.3330 H   0  0  0  0  0  0  0  0  0  0  0  0
    6.8467   -3.0817   24.9118 C   0  0  0  0  0  0  0  0  0  0  0  0
    6.3334   -2.4114   23.7936 O   0  0  0  0  0  0  0  0  0  0  0  0
    7.1804   -1.9129   22.8628 C   0  0  0  0  0  0  0  0  0  0  0  0
    8.4995   -1.9655   23.0318 N   0  0  0  0  0  0  0  0  0  0  0  0
    9.3080   -1.3984   22.0945 N   0  0  0  0  0  0  0  0  0  0  0  0
    8.7539   -0.7864   21.0698 C   0  0  0  0  0  0  0  0  0  0  0  0
    9.4173   -0.3009   20.3517 H   0  0  0  0  0  0  0  0  0  0  0  0
    7.3299   -0.7457   20.9447 C   0  0  0  0  0  0  0  0  0  0  0  0
    6.6373   -0.0263   19.8771 C   0  0  0  0  0  0  0  0  0  0  0  0
    7.1665   -0.0049   18.5831 C   0  0  0  0  0  0  0  0  0  0  0  0
    8.0826   -0.5570   18.3672 H   0  0  0  0  0  0  0  0  0  0  0  0
    6.6018    0.6428   17.5632 N   0  0  0  0  0  0  0  0  0  0  0  0
    5.4602    1.3034   17.8144 C   0  0  0  0  0  0  0  0  0  0  0  0
    5.0163    1.8252   16.9716 H   0  0  0  0  0  0  0  0  0  0  0  0
    4.8338    1.3221   19.0667 C   0  0  0  0  0  0  0  0  0  0  0  0
    3.9047    1.8654   19.2005 H   0  0  0  0  0  0  0  0  0  0  0  0
    5.4226    0.6350   20.1206 C   0  0  0  0  0  0  0  0  0  0  0  0
    4.9625    0.5889   21.1121 H   0  0  0  0  0  0  0  0  0  0  0  0
    6.5476   -1.3424   21.8346 N   0  0  0  0  0  0  0  0  0  0  0  0
  1  2  1  0
  2  3  1  0
  3  4  2  0
  4  5  1  0
  4  6  1  0
  6  7  1  0
  6  8  2  0
  8  9  1  0
  8 10  1  0
 10 11  1  0
 10 12  2  0
 12 13  1  0
 13 14  1  0
 14 15  2  0
 15 16  1  0
 16 17  2  0
 17 18  1  0
 17 19  1  0
 19 20  1  0
 20 21  2  0
 21 22  1  0
 21 23  1  0
 23 24  2  0
 24 25  1  0
 24 26  1  0
 26 27  1  0
 26 28  2  0
 28 29  1  0
 19 30  2  0
 12  3  1  0
 30 14  1  0
 28 20  1  0
M  END
>  <cnnaffinity>  (1) 
-5.28647

>  <filename>  (1) 
Oc1cc(Cl)ccc1Oc1nncc(-c2cccnc2)n1

$$$$
