
     RDKit          3D

 32 34  0  0  0  0  0  0  0  0999 V2000
    8.8870   -0.6548   25.1274 H   0  0  0  0  0  0  0  0  0  0  0  0
    8.4328   -0.9568   25.9221 O   0  0  0  0  0  0  0  0  0  0  0  0
    8.5962   -2.2993   26.0476 C   0  0  0  0  0  0  0  0  0  0  0  0
    8.0579   -2.8465   27.2128 C   0  0  0  0  0  0  0  0  0  0  0  0
    7.5729   -2.1313   27.8637 H   0  0  0  0  0  0  0  0  0  0  0  0
    8.1350   -4.2218   27.4236 C   0  0  0  0  0  0  0  0  0  0  0  0
    7.3013   -4.9647   28.7552 Cl  0  0  0  0  0  0  0  0  0  0  0  0
    8.8155   -5.0364   26.5149 C   0  0  0  0  0  0  0  0  0  0  0  0
    8.9229   -6.0873   26.7425 H   0  0  0  0  0  0  0  0  0  0  0  0
    9.3320   -4.4877   25.3342 C   0  0  0  0  0  0  0  0  0  0  0  0
    9.8211   -5.1060   24.5837 H   0  0  0  0  0  0  0  0  0  0  0  0
    9.1905   -3.1272   25.0722 C   0  0  0  0  0  0  0  0  0  0  0  0
    9.6739   -2.6366   23.8630 O   0  0  0  0  0  0  0  0  0  0  0  0
    8.8396   -2.0300   22.9479 C   0  0  0  0  0  0  0  0  0  0  0  0
    9.4543   -1.3416   21.8784 C   0  0  0  0  0  0  0  0  0  0  0  0
   10.5430   -1.3136   21.8187 H   0  0  0  0  0  0  0  0  0  0  0  0
    8.7757   -0.7189   20.9092 N   0  0  0  0  0  0  0  0  0  0  0  0
    7.4290   -0.7182   20.9696 C   0  0  0  0  0  0  0  0  0  0  0  0
    6.6863    0.0118   19.9192 C   0  0  0  0  0  0  0  0  0  0  0  0
    7.1976    0.0609   18.6118 C   0  0  0  0  0  0  0  0  0  0  0  0
    8.1442   -0.4163   18.3682 H   0  0  0  0  0  0  0  0  0  0  0  0
    6.5757    0.6625   17.5906 N   0  0  0  0  0  0  0  0  0  0  0  0
    5.4126    1.2788   17.8459 C   0  0  0  0  0  0  0  0  0  0  0  0
    4.9411    1.7782   17.0022 H   0  0  0  0  0  0  0  0  0  0  0  0
    4.8194    1.3033   19.1109 C   0  0  0  0  0  0  0  0  0  0  0  0
    3.8833    1.8313   19.2541 H   0  0  0  0  0  0  0  0  0  0  0  0
    5.4578    0.6524   20.1638 C   0  0  0  0  0  0  0  0  0  0  0  0
    5.0086    0.6550   21.1582 H   0  0  0  0  0  0  0  0  0  0  0  0
    6.7410   -1.4101   21.9788 C   0  0  0  0  0  0  0  0  0  0  0  0
    5.6651   -1.4367   21.9187 H   0  0  0  0  0  0  0  0  0  0  0  0
    7.4421   -2.0710   22.9893 C   0  0  0  0  0  0  0  0  0  0  0  0
    6.9238   -2.5982   23.7888 H   0  0  0  0  0  0  0  0  0  0  0  0
  1  2  1  0
  2  3  1  0
  3  4  2  0
  4  5  1  0
  4  6  1  0
  6  7  1  0
  6  8  2  0
  8  9  1  0
  8 10  1  0
 10 11  1  0
 10 12  2  0
 12 13  1  0
 13 14  1  0
 14 15  2  0
 15 16  1  0
 15 17  1  0
 17 18  2  0
 18 19  1  0
 19 20  2  0
 20 21  1  0
 20 22  1  0
 22 23  2  0
 23 24  1  0
 23 25  1  0
 25 26  1  0
 25 27  2  0
 27 28  1  0
 18 29  1  0
 29 30  1  0
 29 31  2  0
 31 32  1  0
 12  3  1  0
 31 14  1  0
 27 19  1  0
M  END
>  <cnnaffinity>  (1) 
-4.93145

>  <filename>  (1) 
Oc1cc(Cl)ccc1Oc1ccc(-c2cccnc2)nc1

$$$$
