
     RDKit          3D

 37 40  0  0  0  0  0  0  0  0999 V2000
   12.2498    5.2832   24.0385 H   0  0  0  0  0  0  0  0  0  0  0  0
   12.9946    4.7257   23.7686 O   0  0  0  0  0  0  0  0  0  0  0  0
   12.4615    3.5544   23.3153 C   0  0  0  0  0  0  0  0  0  0  0  0
   13.3275    2.6015   22.7784 C   0  0  0  0  0  0  0  0  0  0  0  0
   14.3833    2.8451   22.7074 H   0  0  0  0  0  0  0  0  0  0  0  0
   12.8431    1.3735   22.3152 C   0  0  0  0  0  0  0  0  0  0  0  0
   13.5440    0.6431   21.9214 H   0  0  0  0  0  0  0  0  0  0  0  0
   11.4764    1.0734   22.3483 C   0  0  0  0  0  0  0  0  0  0  0  0
   10.9265   -0.2474   21.8354 C   0  0  1  0  0  0  0  0  0  0  0  0
   11.7578   -0.8283   21.4241 H   0  0  0  0  0  0  0  0  0  0  0  0
   10.2431   -1.1073   22.9630 C   0  0  0  0  0  0  0  0  0  0  0  0
   10.6682   -2.1170   23.0001 H   0  0  0  0  0  0  0  0  0  0  0  0
   10.3697   -0.6616   23.9569 H   0  0  0  0  0  0  0  0  0  0  0  0
    8.8054   -1.1471   22.5363 C   0  0  0  0  0  0  0  0  0  0  0  0
    7.6928   -1.6047   23.0757 N   0  0  0  0  0  0  0  0  0  0  0  0
    6.7415   -1.2703   22.1623 N   0  0  0  0  0  0  0  0  0  0  0  0
    5.7763   -1.5119   22.3665 H   0  0  0  0  0  0  0  0  0  0  0  0
    7.2363   -0.6131   21.0688 C   0  0  0  0  0  0  0  0  0  0  0  0
    6.4859   -0.0076   19.9464 C   0  0  0  0  0  0  0  0  0  0  0  0
    7.0680    0.0232   18.6630 C   0  0  0  0  0  0  0  0  0  0  0  0
    8.0090   -0.4937   18.4741 H   0  0  0  0  0  0  0  0  0  0  0  0
    6.5398    0.6486   17.6013 N   0  0  0  0  0  0  0  0  0  0  0  0
    5.3871    1.3104   17.7829 C   0  0  0  0  0  0  0  0  0  0  0  0
    4.9919    1.8414   16.9147 H   0  0  0  0  0  0  0  0  0  0  0  0
    4.7161    1.3383   19.0092 C   0  0  0  0  0  0  0  0  0  0  0  0
    3.7998    1.9101   19.0932 H   0  0  0  0  0  0  0  0  0  0  0  0
    5.2644    0.6682   20.1037 C   0  0  0  0  0  0  0  0  0  0  0  0
    4.7693    0.7043   21.0754 H   0  0  0  0  0  0  0  0  0  0  0  0
    8.5904   -0.5470   21.3031 C   0  0  0  0  0  0  0  0  0  0  0  0
    9.8554   -0.0519   20.7038 C   0  0  0  0  0  0  0  0  0  0  0  0
   10.1121   -0.6617   19.8346 H   0  0  0  0  0  0  0  0  0  0  0  0
    9.7684    0.9876   20.3629 H   0  0  0  0  0  0  0  0  0  0  0  0
   10.6087    2.0423   22.8801 C   0  0  0  0  0  0  0  0  0  0  0  0
    9.5447    1.8316   22.9104 H   0  0  0  0  0  0  0  0  0  0  0  0
   11.0767    3.2600   23.3715 C   0  0  0  0  0  0  0  0  0  0  0  0
   10.2209    4.1883   23.9173 O   0  0  0  0  0  0  0  0  0  0  0  0
    9.3260    3.8467   23.7958 H   0  0  0  0  0  0  0  0  0  0  0  0
  1  2  1  0
  2  3  1  0
  3  4  2  0
  4  5  1  0
  4  6  1  0
  6  7  1  0
  6  8  2  0
  8  9  1  0
  9 10  1  6
  9 11  1  0
 11 12  1  0
 11 13  1  0
 11 14  1  0
 14 15  2  0
 15 16  1  0
 16 17  1  0
 16 18  1  0
 18 19  1  0
 19 20  2  0
 20 21  1  0
 20 22  1  0
 22 23  2  0
 23 24  1  0
 23 25  1  0
 25 26  1  0
 25 27  2  0
 27 28  1  0
 18 29  2  0
 29 30  1  0
 30 31  1  0
 30 32  1  0
  8 33  1  0
 33 34  1  0
 33 35  2  0
 35 36  1  0
 36 37  1  0
 35  3  1  0
 30  9  1  0
 29 14  1  0
 27 19  1  0
M  END
>  <cnnaffinity>  (1) 
-5.56608

>  <filename>  (1) 
Oc1ccc([C@H]2Cc3n[nH]c(-c4cccnc4)c3C2)cc1O

$$$$
