
     RDKit          3D

 36 39  0  0  0  0  0  0  0  0999 V2000
    3.1028   -6.6784   22.9640 H   0  0  0  0  0  0  0  0  0  0  0  0
    3.3283   -5.7724   22.7145 O   0  0  0  0  0  0  0  0  0  0  0  0
    4.1926   -5.3098   23.6563 C   0  0  0  0  0  0  0  0  0  0  0  0
    4.5804   -6.1132   24.7302 C   0  0  0  0  0  0  0  0  0  0  0  0
    4.1767   -7.1201   24.7905 H   0  0  0  0  0  0  0  0  0  0  0  0
    5.4869   -5.6284   25.6802 C   0  0  0  0  0  0  0  0  0  0  0  0
    5.8057   -6.2734   26.4999 H   0  0  0  0  0  0  0  0  0  0  0  0
    6.0019   -4.3357   25.5614 C   0  0  0  0  0  0  0  0  0  0  0  0
    6.7273   -3.9740   26.2889 H   0  0  0  0  0  0  0  0  0  0  0  0
    5.6195   -3.5236   24.4715 C   0  0  0  0  0  0  0  0  0  0  0  0
    6.2443   -2.2073   24.2135 C   0  0  0  0  0  0  0  0  0  0  0  0
    6.6647   -1.6567   23.0170 C   0  0  0  0  0  0  0  0  0  0  0  0
    7.2792   -0.4551   23.3456 C   0  0  0  0  0  0  0  0  0  0  0  0
    7.2621   -0.2062   24.6424 N   0  0  0  0  0  0  0  0  0  0  0  0
    6.6417   -1.2977   25.1539 N   0  0  0  0  0  0  0  0  0  0  0  0
    6.5624   -1.3746   26.1600 H   0  0  0  0  0  0  0  0  0  0  0  0
    7.8443    0.2424   22.1479 C   0  0  0  0  0  0  0  0  0  0  0  0
    7.4369    1.2519   22.0612 H   0  0  0  0  0  0  0  0  0  0  0  0
    8.9295    0.3564   22.2178 H   0  0  0  0  0  0  0  0  0  0  0  0
    7.4545   -0.6968   20.9486 C   0  0  2  0  0  0  0  0  0  0  0  0
    8.3887   -1.0863   20.5246 H   0  0  0  0  0  0  0  0  0  0  0  0
    6.6940    0.0264   19.8495 C   0  0  0  0  0  0  0  0  0  0  0  0
    7.1696    0.0825   18.5251 C   0  0  0  0  0  0  0  0  0  0  0  0
    8.1120   -0.4042   18.2700 H   0  0  0  0  0  0  0  0  0  0  0  0
    6.5461    0.7003   17.5141 N   0  0  0  0  0  0  0  0  0  0  0  0
    5.3890    1.3183   17.7931 C   0  0  0  0  0  0  0  0  0  0  0  0
    4.9111    1.8337   16.9625 H   0  0  0  0  0  0  0  0  0  0  0  0
    4.8074    1.3216   19.0641 C   0  0  0  0  0  0  0  0  0  0  0  0
    3.8687    1.8418   19.2194 H   0  0  0  0  0  0  0  0  0  0  0  0
    5.4694    0.6672   20.1051 C   0  0  0  0  0  0  0  0  0  0  0  0
    5.0408    0.6627   21.1089 H   0  0  0  0  0  0  0  0  0  0  0  0
    6.6583   -1.9129   21.5422 C   0  0  0  0  0  0  0  0  0  0  0  0
    5.6347   -1.9535   21.1468 H   0  0  0  0  0  0  0  0  0  0  0  0
    7.1207   -2.8662   21.2574 H   0  0  0  0  0  0  0  0  0  0  0  0
    4.7065   -4.0208   23.5232 C   0  0  0  0  0  0  0  0  0  0  0  0
    4.3862   -3.4280   22.6742 H   0  0  0  0  0  0  0  0  0  0  0  0
  1  2  1  0
  2  3  1  0
  3  4  2  0
  4  5  1  0
  4  6  1  0
  6  7  1  0
  6  8  2  0
  8  9  1  0
  8 10  1  0
 10 11  1  0
 11 12  2  0
 12 13  1  0
 13 14  2  0
 14 15  1  0
 15 16  1  0
 13 17  1  0
 17 18  1  0
 17 19  1  0
 17 20  1  0
 20 21  1  6
 20 22  1  0
 22 23  2  0
 23 24  1  0
 23 25  1  0
 25 26  2  0
 26 27  1  0
 26 28  1  0
 28 29  1  0
 28 30  2  0
 30 31  1  0
 20 32  1  0
 32 33  1  0
 32 34  1  0
 10 35  2  0
 35 36  1  0
 35  3  1  0
 15 11  1  0
 30 22  1  0
 32 12  1  0
M  END
>  <cnnaffinity>  (1) 
-5.28954

>  <filename>  (1) 
Oc1cccc(-c2[nH]nc3c2C[C@@H](c2cccnc2)C3)c1

$$$$
