
     RDKit          3D

 34 37  0  0  0  0  0  0  0  0999 V2000
    7.1878   -2.8406   24.9769 H   0  0  0  0  0  0  0  0  0  0  0  0
    6.2427   -2.7098   25.1465 O   0  0  0  0  0  0  0  0  0  0  0  0
    6.0468   -1.4082   25.4733 C   0  0  0  0  0  0  0  0  0  0  0  0
    4.7330   -0.9910   25.7262 C   0  0  0  0  0  0  0  0  0  0  0  0
    3.9367   -1.7246   25.6291 H   0  0  0  0  0  0  0  0  0  0  0  0
    4.4796    0.3422   26.0709 C   0  0  0  0  0  0  0  0  0  0  0  0
    2.8372    0.8473   26.3634 Cl  0  0  0  0  0  0  0  0  0  0  0  0
    5.5207    1.2741   26.1914 C   0  0  0  0  0  0  0  0  0  0  0  0
    5.3165    2.3094   26.4605 H   0  0  0  0  0  0  0  0  0  0  0  0
    6.8332    0.8511   25.9259 C   0  0  0  0  0  0  0  0  0  0  0  0
    7.7007    1.5090   25.9458 H   0  0  0  0  0  0  0  0  0  0  0  0
    7.0917   -0.4617   25.5657 C   0  0  0  0  0  0  0  0  0  0  0  0
    8.4543   -0.7812   25.3087 O   0  0  0  0  0  0  0  0  0  0  0  0
    8.6672   -1.5097   24.1581 N   0  0  0  0  0  0  0  0  0  0  0  0
    9.9460   -2.0138   23.8907 C   0  0  0  0  0  0  0  0  0  0  0  0
   10.6438   -2.1266   24.7063 H   0  0  0  0  0  0  0  0  0  0  0  0
   10.0578   -2.1894   22.5487 C   0  0  0  0  0  0  0  0  0  0  0  0
   10.8409   -2.5382   21.9001 H   0  0  0  0  0  0  0  0  0  0  0  0
    8.8873   -1.6919   21.9891 N   0  0  0  0  0  0  0  0  0  0  0  0
    8.4990   -1.3865   20.7274 N   0  0  0  0  0  0  0  0  0  0  0  0
    7.3733   -0.6806   20.9319 C   0  0  0  0  0  0  0  0  0  0  0  0
    6.6260   -0.0451   19.8337 C   0  0  0  0  0  0  0  0  0  0  0  0
    7.1509    0.0158   18.5290 C   0  0  0  0  0  0  0  0  0  0  0  0
    8.1043   -0.4544   18.2911 H   0  0  0  0  0  0  0  0  0  0  0  0
    6.5572    0.6683   17.5247 N   0  0  0  0  0  0  0  0  0  0  0  0
    5.4048    1.3017   17.7880 C   0  0  0  0  0  0  0  0  0  0  0  0
    4.9523    1.8333   16.9565 H   0  0  0  0  0  0  0  0  0  0  0  0
    4.7937    1.3029   19.0437 C   0  0  0  0  0  0  0  0  0  0  0  0
    3.8732    1.8521   19.2034 H   0  0  0  0  0  0  0  0  0  0  0  0
    5.4121    0.6206   20.0847 C   0  0  0  0  0  0  0  0  0  0  0  0
    4.9745    0.6389   21.0839 H   0  0  0  0  0  0  0  0  0  0  0  0
    7.0420   -0.5402   22.3029 C   0  0  0  0  0  0  0  0  0  0  0  0
    6.2333    0.0106   22.7527 H   0  0  0  0  0  0  0  0  0  0  0  0
    8.0760   -1.2036   22.9400 C   0  0  0  0  0  0  0  0  0  0  0  0
  1  2  1  0
  2  3  1  0
  3  4  2  0
  4  5  1  0
  4  6  1  0
  6  7  1  0
  6  8  2  0
  8  9  1  0
  8 10  1  0
 10 11  1  0
 10 12  2  0
 12 13  1  0
 13 14  1  0
 14 15  1  0
 15 16  1  0
 15 17  2  0
 17 18  1  0
 17 19  1  0
 19 20  1  0
 20 21  2  0
 21 22  1  0
 22 23  2  0
 23 24  1  0
 23 25  1  0
 25 26  2  0
 26 27  1  0
 26 28  1  0
 28 29  1  0
 28 30  2  0
 30 31  1  0
 21 32  1  0
 32 33  1  0
 32 34  2  0
 12  3  1  0
 34 14  1  0
 34 19  1  0
 30 22  1  0
M  END
>  <cnnaffinity>  (1) 
-5.83527

>  <filename>  (1) 
Oc1cc(Cl)ccc1On1ccn2nc(-c3cccnc3)cc12

$$$$
