
     RDKit          3D

 31 33  0  0  0  0  0  0  0  0999 V2000
   10.1732   -1.4279   24.3211 H   0  0  0  0  0  0  0  0  0  0  0  0
   10.0417   -2.2805   24.7493 O   0  0  0  0  0  0  0  0  0  0  0  0
    9.2703   -3.0772   23.9605 C   0  0  0  0  0  0  0  0  0  0  0  0
    8.8012   -4.2442   24.5628 C   0  0  0  0  0  0  0  0  0  0  0  0
    9.0996   -4.4227   25.5886 H   0  0  0  0  0  0  0  0  0  0  0  0
    7.9946   -5.1293   23.8527 C   0  0  0  0  0  0  0  0  0  0  0  0
    7.6439   -6.0272   24.3425 H   0  0  0  0  0  0  0  0  0  0  0  0
    7.6309   -4.8701   22.5282 C   0  0  0  0  0  0  0  0  0  0  0  0
    6.9885   -5.5563   21.9838 H   0  0  0  0  0  0  0  0  0  0  0  0
    8.0971   -3.7087   21.9229 C   0  0  0  0  0  0  0  0  0  0  0  0
    7.8297   -3.4767   20.8942 H   0  0  0  0  0  0  0  0  0  0  0  0
    8.9333   -2.8106   22.6110 C   0  0  0  0  0  0  0  0  0  0  0  0
    9.4114   -1.6395   21.8864 C   0  0  0  0  0  0  0  0  0  0  0  0
    8.7107   -0.7298   21.1127 C   0  0  0  0  0  0  0  0  0  0  0  0
    7.3258   -0.7065   20.9243 N   0  0  0  0  0  0  0  0  0  0  0  0
    6.7787   -1.1155   21.6711 H   0  0  0  0  0  0  0  0  0  0  0  0
    6.6609   -0.0117   19.9080 C   0  0  0  0  0  0  0  0  0  0  0  0
    7.1695    0.0606   18.5863 C   0  0  0  0  0  0  0  0  0  0  0  0
    8.1186   -0.4285   18.3745 H   0  0  0  0  0  0  0  0  0  0  0  0
    6.5587    0.6829   17.5680 N   0  0  0  0  0  0  0  0  0  0  0  0
    5.3952    1.2983   17.8356 C   0  0  0  0  0  0  0  0  0  0  0  0
    4.9134    1.7886   16.9934 H   0  0  0  0  0  0  0  0  0  0  0  0
    4.8115    1.3052   19.1074 C   0  0  0  0  0  0  0  0  0  0  0  0
    3.8821    1.8374   19.2631 H   0  0  0  0  0  0  0  0  0  0  0  0
    5.4398    0.6308   20.1627 C   0  0  0  0  0  0  0  0  0  0  0  0
    5.0207    0.6203   21.1697 H   0  0  0  0  0  0  0  0  0  0  0  0
    9.7018    0.1657   20.6524 C   0  0  0  0  0  0  0  0  0  0  0  0
    9.5378    1.0190   20.0191 H   0  0  0  0  0  0  0  0  0  0  0  0
   10.9136   -0.1447   21.0923 N   0  0  0  0  0  0  0  0  0  0  0  0
   10.7078   -1.2297   21.8583 N   0  0  0  0  0  0  0  0  0  0  0  0
   11.5077   -1.7166   22.2360 H   0  0  0  0  0  0  0  0  0  0  0  0
  1  2  1  0
  2  3  1  0
  3  4  2  0
  4  5  1  0
  4  6  1  0
  6  7  1  0
  6  8  2  0
  8  9  1  0
  8 10  1  0
 10 11  1  0
 10 12  2  0
 12 13  1  0
 13 14  2  0
 14 15  1  0
 15 16  1  0
 15 17  1  0
 17 18  2  0
 18 19  1  0
 18 20  1  0
 20 21  2  0
 21 22  1  0
 21 23  1  0
 23 24  1  0
 23 25  2  0
 25 26  1  0
 14 27  1  0
 27 28  1  0
 27 29  2  0
 29 30  1  0
 30 31  1  0
 12  3  1  0
 30 13  1  0
 25 17  1  0
M  END
>  <cnnaffinity>  (1) 
-5.36609

>  <filename>  (1) 
Oc1ccccc1-c1[nH]ncc1Nc1cccnc1

$$$$
