
     RDKit          3D

 32 34  0  0  0  0  0  0  0  0999 V2000
    8.7143    3.0155   22.8451 H   0  0  0  0  0  0  0  0  0  0  0  0
    8.6968    2.1681   23.3054 O   0  0  0  0  0  0  0  0  0  0  0  0
    7.6786    2.1953   24.2022 C   0  0  0  0  0  0  0  0  0  0  0  0
    7.0622    3.4058   24.5158 C   0  0  0  0  0  0  0  0  0  0  0  0
    7.3828    4.2919   23.9756 H   0  0  0  0  0  0  0  0  0  0  0  0
    6.0842    3.4628   25.5112 C   0  0  0  0  0  0  0  0  0  0  0  0
    5.3891    5.0064   25.9087 Cl  0  0  0  0  0  0  0  0  0  0  0  0
    5.6963    2.3125   26.2015 C   0  0  0  0  0  0  0  0  0  0  0  0
    4.9700    2.3918   27.0051 H   0  0  0  0  0  0  0  0  0  0  0  0
    6.2815    1.0876   25.8534 C   0  0  0  0  0  0  0  0  0  0  0  0
    6.0048    0.1627   26.3520 H   0  0  0  0  0  0  0  0  0  0  0  0
    7.2363    1.0111   24.8435 C   0  0  0  0  0  0  0  0  0  0  0  0
    7.7138   -0.2611   24.5774 O   0  0  0  0  0  0  0  0  0  0  0  0
    7.7861   -0.7344   23.3126 C   0  0  0  0  0  0  0  0  0  0  0  0
    7.1128   -0.1483   22.3424 N   0  0  0  0  0  0  0  0  0  0  0  0
    7.3366   -0.6019   21.1019 C   0  0  0  0  0  0  0  0  0  0  0  0
    6.6175    0.0827   20.0069 C   0  0  0  0  0  0  0  0  0  0  0  0
    7.1634    0.0821   18.7147 C   0  0  0  0  0  0  0  0  0  0  0  0
    8.1198   -0.3983   18.5050 H   0  0  0  0  0  0  0  0  0  0  0  0
    6.5875    0.6607   17.6601 N   0  0  0  0  0  0  0  0  0  0  0  0
    5.4158    1.2798   17.8645 C   0  0  0  0  0  0  0  0  0  0  0  0
    4.9756    1.7596   16.9939 H   0  0  0  0  0  0  0  0  0  0  0  0
    4.7753    1.3300   19.1074 C   0  0  0  0  0  0  0  0  0  0  0  0
    3.8291    1.8500   19.2060 H   0  0  0  0  0  0  0  0  0  0  0  0
    5.3844    0.7277   20.2043 C   0  0  0  0  0  0  0  0  0  0  0  0
    4.9291    0.7459   21.1977 H   0  0  0  0  0  0  0  0  0  0  0  0
    8.1850   -1.6742   20.8388 C   0  0  0  0  0  0  0  0  0  0  0  0
    8.3702   -1.9153   19.8154 H   0  0  0  0  0  0  0  0  0  0  0  0
    8.7872   -2.3700   21.8943 C   0  0  0  0  0  0  0  0  0  0  0  0
    9.3889   -3.2610   21.7198 H   0  0  0  0  0  0  0  0  0  0  0  0
    8.5900   -1.8763   23.1689 C   0  0  0  0  0  0  0  0  0  0  0  0
    9.0464   -2.2864   24.0596 H   0  0  0  0  0  0  0  0  0  0  0  0
  1  2  1  0
  2  3  1  0
  3  4  2  0
  4  5  1  0
  4  6  1  0
  6  7  1  0
  6  8  2  0
  8  9  1  0
  8 10  1  0
 10 11  1  0
 10 12  2  0
 12 13  1  0
 13 14  1  0
 14 15  2  0
 15 16  1  0
 16 17  1  0
 17 18  2  0
 18 19  1  0
 18 20  1  0
 20 21  2  0
 21 22  1  0
 21 23  1  0
 23 24  1  0
 23 25  2  0
 25 26  1  0
 16 27  2  0
 27 28  1  0
 27 29  1  0
 29 30  1  0
 29 31  2  0
 31 32  1  0
 12  3  1  0
 31 14  1  0
 25 17  1  0
M  END
>  <cnnaffinity>  (1) 
-5.21304

>  <filename>  (1) 
Oc1cc(Cl)ccc1Oc1cccc(-c2cccnc2)n1

$$$$
