
     RDKit          3D

 31 33  0  0  0  0  0  0  0  0999 V2000
    7.5605    3.4519   22.1762 H   0  0  0  0  0  0  0  0  0  0  0  0
    7.4569    3.9122   23.0190 O   0  0  0  0  0  0  0  0  0  0  0  0
    7.1127    3.0208   23.9856 C   0  0  0  0  0  0  0  0  0  0  0  0
    6.9186    3.5740   25.2547 C   0  0  0  0  0  0  0  0  0  0  0  0
    7.0604    4.6372   25.3859 H   0  0  0  0  0  0  0  0  0  0  0  0
    6.5482    2.7634   26.3268 C   0  0  0  0  0  0  0  0  0  0  0  0
    6.3254    3.4601   27.8962 Cl  0  0  0  0  0  0  0  0  0  0  0  0
    6.3404    1.4012   26.1525 C   0  0  0  0  0  0  0  0  0  0  0  0
    6.0565    0.7806   26.9965 H   0  0  0  0  0  0  0  0  0  0  0  0
    6.5260    0.8413   24.8909 C   0  0  0  0  0  0  0  0  0  0  0  0
    6.3598   -0.2180   24.7445 H   0  0  0  0  0  0  0  0  0  0  0  0
    6.9557    1.6166   23.8142 C   0  0  0  0  0  0  0  0  0  0  0  0
    7.1456    1.0680   22.5439 O   0  0  0  0  0  0  0  0  0  0  0  0
    7.5925   -0.1979   22.3020 C   0  0  0  0  0  0  0  0  0  0  0  0
    8.2481   -0.8714   23.2329 N   0  0  0  0  0  0  0  0  0  0  0  0
    8.7190   -2.0843   22.8672 C   0  0  0  0  0  0  0  0  0  0  0  0
    9.2447   -2.6485   23.6292 H   0  0  0  0  0  0  0  0  0  0  0  0
    8.5369   -2.6115   21.5921 C   0  0  0  0  0  0  0  0  0  0  0  0
    8.9161   -3.5918   21.3310 H   0  0  0  0  0  0  0  0  0  0  0  0
    7.8947   -1.9150   20.6254 N   0  0  0  0  0  0  0  0  0  0  0  0
    7.3962   -0.7230   20.9558 C   0  0  0  0  0  0  0  0  0  0  0  0
    6.6511   -0.0037   19.8958 C   0  0  0  0  0  0  0  0  0  0  0  0
    7.1682    0.0397   18.5889 C   0  0  0  0  0  0  0  0  0  0  0  0
    8.1198   -0.4358   18.3611 H   0  0  0  0  0  0  0  0  0  0  0  0
    6.5671    0.6782   17.5815 N   0  0  0  0  0  0  0  0  0  0  0  0
    5.4014    1.2903   17.8428 C   0  0  0  0  0  0  0  0  0  0  0  0
    4.9210    1.7812   16.9998 H   0  0  0  0  0  0  0  0  0  0  0  0
    4.8053    1.3039   19.1070 C   0  0  0  0  0  0  0  0  0  0  0  0
    3.8780    1.8398   19.2584 H   0  0  0  0  0  0  0  0  0  0  0  0
    5.4395    0.6488   20.1587 C   0  0  0  0  0  0  0  0  0  0  0  0
    5.0196    0.6468   21.1661 H   0  0  0  0  0  0  0  0  0  0  0  0
  1  2  1  0
  2  3  1  0
  3  4  2  0
  4  5  1  0
  4  6  1  0
  6  7  1  0
  6  8  2  0
  8  9  1  0
  8 10  1  0
 10 11  1  0
 10 12  2  0
 12 13  1  0
 13 14  1  0
 14 15  2  0
 15 16  1  0
 16 17  1  0
 16 18  2  0
 18 19  1  0
 18 20  1  0
 20 21  2  0
 21 22  1  0
 22 23  2  0
 23 24  1  0
 23 25  1  0
 25 26  2  0
 26 27  1  0
 26 28  1  0
 28 29  1  0
 28 30  2  0
 30 31  1  0
 12  3  1  0
 21 14  1  0
 30 22  1  0
M  END
>  <cnnaffinity>  (1) 
-5.30099

>  <filename>  (1) 
Oc1cc(Cl)ccc1Oc1nccnc1-c1cccnc1

$$$$
