
     RDKit          3D

 29 31  0  0  0  0  0  0  0  0999 V2000
   11.2250   -3.0646   22.4484 H   0  0  0  0  0  0  0  0  0  0  0  0
   11.4700   -3.4121   23.3184 O   0  0  0  0  0  0  0  0  0  0  0  0
   10.3275   -3.7202   23.9693 C   0  0  0  0  0  0  0  0  0  0  0  0
   10.4637   -4.2829   25.2362 C   0  0  0  0  0  0  0  0  0  0  0  0
   11.4489   -4.5032   25.6165 H   0  0  0  0  0  0  0  0  0  0  0  0
    9.3354   -4.5666   26.0023 C   0  0  0  0  0  0  0  0  0  0  0  0
    9.5640   -5.1412   27.6246 Cl  0  0  0  0  0  0  0  0  0  0  0  0
    8.0538   -4.3419   25.5048 C   0  0  0  0  0  0  0  0  0  0  0  0
    7.1853   -4.5317   26.1323 H   0  0  0  0  0  0  0  0  0  0  0  0
    7.9112   -3.8414   24.2037 C   0  0  0  0  0  0  0  0  0  0  0  0
    6.9325   -3.6854   23.7598 H   0  0  0  0  0  0  0  0  0  0  0  0
    9.0338   -3.4968   23.4523 C   0  0  0  0  0  0  0  0  0  0  0  0
    8.9404   -2.9613   22.1631 O   0  0  0  0  0  0  0  0  0  0  0  0
    8.1812   -1.8708   21.9471 C   0  0  0  0  0  0  0  0  0  0  0  0
    7.7020   -1.0706   22.9254 N   0  0  0  0  0  0  0  0  0  0  0  0
    7.0534   -0.1610   22.2280 C   0  0  0  0  0  0  0  0  0  0  0  0
    6.5677    0.7143   22.6392 H   0  0  0  0  0  0  0  0  0  0  0  0
    7.1246   -0.4194   20.8978 N   0  0  0  0  0  0  0  0  0  0  0  0
    6.4967    0.2044   19.7829 C   0  0  0  0  0  0  0  0  0  0  0  0
    7.1125    0.1419   18.5170 C   0  0  0  0  0  0  0  0  0  0  0  0
    8.0479   -0.4045   18.4043 H   0  0  0  0  0  0  0  0  0  0  0  0
    6.6093    0.7203   17.4240 N   0  0  0  0  0  0  0  0  0  0  0  0
    5.4424    1.3795   17.5385 C   0  0  0  0  0  0  0  0  0  0  0  0
    5.0685    1.8544   16.6318 H   0  0  0  0  0  0  0  0  0  0  0  0
    4.7318    1.4559   18.7384 C   0  0  0  0  0  0  0  0  0  0  0  0
    3.7822    1.9802   18.7632 H   0  0  0  0  0  0  0  0  0  0  0  0
    5.2580    0.8560   19.8870 C   0  0  0  0  0  0  0  0  0  0  0  0
    4.7006    0.8705   20.8235 H   0  0  0  0  0  0  0  0  0  0  0  0
    7.8958   -1.5306   20.7080 N   0  0  0  0  0  0  0  0  0  0  0  0
  1  2  1  0
  2  3  1  0
  3  4  2  0
  4  5  1  0
  4  6  1  0
  6  7  1  0
  6  8  2  0
  8  9  1  0
  8 10  1  0
 10 11  1  0
 10 12  2  0
 12 13  1  0
 13 14  1  0
 14 15  1  0
 15 16  2  0
 16 17  1  0
 16 18  1  0
 18 19  1  0
 19 20  2  0
 20 21  1  0
 20 22  1  0
 22 23  2  0
 23 24  1  0
 23 25  1  0
 25 26  1  0
 25 27  2  0
 27 28  1  0
 18 29  1  0
 12  3  1  0
 29 14  2  0
 27 19  1  0
M  END
>  <cnnaffinity>  (1) 
-5.47069

>  <filename>  (1) 
Oc1cc(Cl)ccc1Oc1ncn(-c2cccnc2)n1

$$$$
