
     RDKit          3D

 32 35  0  0  0  0  0  0  0  0999 V2000
    3.7835   -0.3926   28.2962 H   0  0  0  0  0  0  0  0  0  0  0  0
    4.2251   -1.2512   28.3351 O   0  0  0  0  0  0  0  0  0  0  0  0
    5.0953   -1.3410   27.2936 C   0  0  0  0  0  0  0  0  0  0  0  0
    5.8231   -2.5267   27.2041 C   0  0  0  0  0  0  0  0  0  0  0  0
    5.6560   -3.2830   27.9598 H   0  0  0  0  0  0  0  0  0  0  0  0
    6.7389   -2.7337   26.1788 C   0  0  0  0  0  0  0  0  0  0  0  0
    7.2774   -3.6769   26.1398 H   0  0  0  0  0  0  0  0  0  0  0  0
    6.9543   -1.7520   25.1956 C   0  0  0  0  0  0  0  0  0  0  0  0
    7.9489   -2.0187   24.1241 C   0  0  0  0  0  0  0  0  0  0  0  0
    9.0757   -2.7645   24.2057 C   0  0  0  0  0  0  0  0  0  0  0  0
    9.4595   -3.2864   25.0706 H   0  0  0  0  0  0  0  0  0  0  0  0
    9.9956   -2.8115   22.7271 S   0  0  0  0  0  0  0  0  0  0  0  0
    8.8014   -1.8157   21.9506 C   0  0  0  0  0  0  0  0  0  0  0  0
    8.5497   -1.3259   20.7567 N   0  0  0  0  0  0  0  0  0  0  0  0
    7.3656   -0.6889   20.9672 C   0  0  0  0  0  0  0  0  0  0  0  0
    6.6454    0.0164   19.9125 C   0  0  0  0  0  0  0  0  0  0  0  0
    7.1794    0.0531   18.6165 C   0  0  0  0  0  0  0  0  0  0  0  0
    8.1264   -0.4330   18.3857 H   0  0  0  0  0  0  0  0  0  0  0  0
    6.5738    0.6675   17.5956 N   0  0  0  0  0  0  0  0  0  0  0  0
    5.4088    1.2855   17.8467 C   0  0  0  0  0  0  0  0  0  0  0  0
    4.9284    1.7727   17.0026 H   0  0  0  0  0  0  0  0  0  0  0  0
    4.8044    1.3102   19.1090 C   0  0  0  0  0  0  0  0  0  0  0  0
    3.8735    1.8434   19.2567 H   0  0  0  0  0  0  0  0  0  0  0  0
    5.4250    0.6591   20.1684 C   0  0  0  0  0  0  0  0  0  0  0  0
    4.9978    0.6352   21.1756 H   0  0  0  0  0  0  0  0  0  0  0  0
    6.8852   -0.7515   22.2055 N   0  0  0  0  0  0  0  0  0  0  0  0
    7.8343   -1.4858   22.8330 N   0  0  0  0  0  0  0  0  0  0  0  0
    6.2261   -0.5412   25.2876 C   0  0  0  0  0  0  0  0  0  0  0  0
    6.3876    0.2198   24.5263 H   0  0  0  0  0  0  0  0  0  0  0  0
    5.3052   -0.3309   26.3158 C   0  0  0  0  0  0  0  0  0  0  0  0
    4.5692    0.8265   26.4278 O   0  0  0  0  0  0  0  0  0  0  0  0
    4.8098    1.4174   25.7038 H   0  0  0  0  0  0  0  0  0  0  0  0
  1  2  1  0
  2  3  1  0
  3  4  2  0
  4  5  1  0
  4  6  1  0
  6  7  1  0
  6  8  2  0
  8  9  1  0
  9 10  2  0
 10 11  1  0
 10 12  1  0
 12 13  1  0
 13 14  2  0
 14 15  1  0
 15 16  1  0
 16 17  2  0
 17 18  1  0
 17 19  1  0
 19 20  2  0
 20 21  1  0
 20 22  1  0
 22 23  1  0
 22 24  2  0
 24 25  1  0
 15 26  2  0
 26 27  1  0
  8 28  1  0
 28 29  1  0
 28 30  2  0
 30 31  1  0
 31 32  1  0
 30  3  1  0
 27  9  1  0
 27 13  1  0
 24 16  1  0
M  END
>  <cnnaffinity>  (1) 
-5.57147

>  <filename>  (1) 
Oc1ccc(-c2csc3nc(-c4cccnc4)nn23)cc1O

$$$$
