
     RDKit          3D

 29 31  0  0  0  0  0  0  0  0999 V2000
    7.1016    5.2409   22.5655 H   0  0  0  0  0  0  0  0  0  0  0  0
    7.3741    4.4670   22.0644 O   0  0  0  0  0  0  0  0  0  0  0  0
    7.1090    3.3581   22.7871 C   0  0  0  0  0  0  0  0  0  0  0  0
    6.5437    3.4098   24.0546 C   0  0  0  0  0  0  0  0  0  0  0  0
    6.2821    4.3338   24.5594 H   0  0  0  0  0  0  0  0  0  0  0  0
    6.3103    2.2040   24.7174 C   0  0  0  0  0  0  0  0  0  0  0  0
    5.7797    2.3104   25.9578 O   0  0  0  0  0  0  0  0  0  0  0  0
    5.6847    1.4202   26.3096 H   0  0  0  0  0  0  0  0  0  0  0  0
    6.6216    0.9707   24.1364 C   0  0  0  0  0  0  0  0  0  0  0  0
    6.4627    0.0274   24.6505 H   0  0  0  0  0  0  0  0  0  0  0  0
    7.1986    0.9532   22.8568 C   0  0  0  0  0  0  0  0  0  0  0  0
    7.5266   -0.3049   22.2448 N   0  0  0  0  0  0  0  0  0  0  0  0
    8.1388   -1.3110   22.9318 N   0  0  0  0  0  0  0  0  0  0  0  0
    8.3541   -2.2088   21.9926 C   0  0  0  0  0  0  0  0  0  0  0  0
    8.8461   -3.1503   22.2091 H   0  0  0  0  0  0  0  0  0  0  0  0
    7.9210   -1.8747   20.7512 N   0  0  0  0  0  0  0  0  0  0  0  0
    7.3780   -0.6950   20.9382 C   0  0  0  0  0  0  0  0  0  0  0  0
    6.6435    0.0261   19.9034 C   0  0  0  0  0  0  0  0  0  0  0  0
    7.1654    0.0490   18.6027 C   0  0  0  0  0  0  0  0  0  0  0  0
    8.1128   -0.4399   18.3818 H   0  0  0  0  0  0  0  0  0  0  0  0
    6.5693    0.6724   17.5837 N   0  0  0  0  0  0  0  0  0  0  0  0
    5.4056    1.2939   17.8374 C   0  0  0  0  0  0  0  0  0  0  0  0
    4.9283    1.7842   16.9931 H   0  0  0  0  0  0  0  0  0  0  0  0
    4.7960    1.3109   19.0976 C   0  0  0  0  0  0  0  0  0  0  0  0
    3.8669    1.8463   19.2488 H   0  0  0  0  0  0  0  0  0  0  0  0
    5.4153    0.6532   20.1532 C   0  0  0  0  0  0  0  0  0  0  0  0
    4.9939    0.6432   21.1608 H   0  0  0  0  0  0  0  0  0  0  0  0
    7.4423    2.1474   22.1772 C   0  0  0  0  0  0  0  0  0  0  0  0
    7.8533    2.1876   21.1776 H   0  0  0  0  0  0  0  0  0  0  0  0
  1  2  1  0
  2  3  1  0
  3  4  2  0
  4  5  1  0
  4  6  1  0
  6  7  1  0
  7  8  1  0
  6  9  2  0
  9 10  1  0
  9 11  1  0
 11 12  1  0
 12 13  1  0
 13 14  2  0
 14 15  1  0
 14 16  1  0
 16 17  2  0
 17 18  1  0
 18 19  2  0
 19 20  1  0
 19 21  1  0
 21 22  2  0
 22 23  1  0
 22 24  1  0
 24 25  1  0
 24 26  2  0
 26 27  1  0
 11 28  2  0
 28 29  1  0
 28  3  1  0
 17 12  1  0
 26 18  1  0
M  END
>  <cnnaffinity>  (1) 
-4.9342

>  <filename>  (1) 
Oc1cc(O)cc(-n2ncnc2-c2cccnc2)c1

$$$$
