
     RDKit          3D

 31 33  0  0  0  0  0  0  0  0999 V2000
    8.5651   -0.7125   25.1839 H   0  0  0  0  0  0  0  0  0  0  0  0
    8.0480   -1.0896   25.9048 O   0  0  0  0  0  0  0  0  0  0  0  0
    8.2448   -2.4344   25.9652 C   0  0  0  0  0  0  0  0  0  0  0  0
    7.6550   -3.0644   27.0637 C   0  0  0  0  0  0  0  0  0  0  0  0
    7.0527   -2.4526   27.7185 H   0  0  0  0  0  0  0  0  0  0  0  0
    7.8186   -4.4324   27.2665 C   0  0  0  0  0  0  0  0  0  0  0  0
    7.0774   -5.1913   28.6414 Cl  0  0  0  0  0  0  0  0  0  0  0  0
    8.5757   -5.2036   26.3841 C   0  0  0  0  0  0  0  0  0  0  0  0
    8.7051   -6.2665   26.5756 H   0  0  0  0  0  0  0  0  0  0  0  0
    9.1436   -4.5775   25.2637 C   0  0  0  0  0  0  0  0  0  0  0  0
    9.7453   -5.1622   24.5787 H   0  0  0  0  0  0  0  0  0  0  0  0
    8.9461   -3.2166   25.0163 C   0  0  0  0  0  0  0  0  0  0  0  0
    9.5161   -2.6697   23.8540 O   0  0  0  0  0  0  0  0  0  0  0  0
    8.7558   -2.0280   22.9285 C   0  0  0  0  0  0  0  0  0  0  0  0
    7.4312   -2.0553   23.0077 N   0  0  0  0  0  0  0  0  0  0  0  0
    6.7846   -1.3912   22.0209 C   0  0  0  0  0  0  0  0  0  0  0  0
    5.7094   -1.4291   22.0251 H   0  0  0  0  0  0  0  0  0  0  0  0
    7.4326   -0.7090   20.9690 C   0  0  0  0  0  0  0  0  0  0  0  0
    6.6813    0.0108   19.9119 C   0  0  0  0  0  0  0  0  0  0  0  0
    7.1877    0.0682   18.6007 C   0  0  0  0  0  0  0  0  0  0  0  0
    8.1286   -0.4214   18.3676 H   0  0  0  0  0  0  0  0  0  0  0  0
    6.5658    0.6717   17.5848 N   0  0  0  0  0  0  0  0  0  0  0  0
    5.4032    1.2881   17.8456 C   0  0  0  0  0  0  0  0  0  0  0  0
    4.9177    1.7768   17.0022 H   0  0  0  0  0  0  0  0  0  0  0  0
    4.8126    1.3057   19.1123 C   0  0  0  0  0  0  0  0  0  0  0  0
    3.8794    1.8387   19.2617 H   0  0  0  0  0  0  0  0  0  0  0  0
    5.4491    0.6433   20.1629 C   0  0  0  0  0  0  0  0  0  0  0  0
    5.0033    0.6427   21.1613 H   0  0  0  0  0  0  0  0  0  0  0  0
    8.7920   -0.7174   20.8913 N   0  0  0  0  0  0  0  0  0  0  0  0
    9.4440   -1.3493   21.8740 C   0  0  0  0  0  0  0  0  0  0  0  0
   10.5264   -1.3537   21.8322 H   0  0  0  0  0  0  0  0  0  0  0  0
  1  2  1  0
  2  3  1  0
  3  4  2  0
  4  5  1  0
  4  6  1  0
  6  7  1  0
  6  8  2  0
  8  9  1  0
  8 10  1  0
 10 11  1  0
 10 12  2  0
 12 13  1  0
 13 14  1  0
 14 15  2  0
 15 16  1  0
 16 17  1  0
 16 18  2  0
 18 19  1  0
 19 20  2  0
 20 21  1  0
 20 22  1  0
 22 23  2  0
 23 24  1  0
 23 25  1  0
 25 26  1  0
 25 27  2  0
 27 28  1  0
 18 29  1  0
 29 30  2  0
 30 31  1  0
 12  3  1  0
 30 14  1  0
 27 19  1  0
M  END
>  <cnnaffinity>  (1) 
-4.94651

>  <filename>  (1) 
Oc1cc(Cl)ccc1Oc1cnc(-c2cccnc2)cn1

$$$$
