
     RDKit          3D

 30 32  0  0  0  0  0  0  0  0999 V2000
   10.4445    1.5965   24.0084 H   0  0  0  0  0  0  0  0  0  0  0  0
    9.6327    1.4497   23.5077 O   0  0  0  0  0  0  0  0  0  0  0  0
    8.5755    1.6363   24.3420 C   0  0  0  0  0  0  0  0  0  0  0  0
    8.7451    2.1036   25.6478 C   0  0  0  0  0  0  0  0  0  0  0  0
    9.7614    2.2748   25.9928 H   0  0  0  0  0  0  0  0  0  0  0  0
    7.6254    2.3245   26.4634 C   0  0  0  0  0  0  0  0  0  0  0  0
    7.8184    2.8485   28.0976 Cl  0  0  0  0  0  0  0  0  0  0  0  0
    6.3275    2.1106   25.9981 C   0  0  0  0  0  0  0  0  0  0  0  0
    5.4698    2.3347   26.6316 H   0  0  0  0  0  0  0  0  0  0  0  0
    6.1650    1.5973   24.7077 C   0  0  0  0  0  0  0  0  0  0  0  0
    5.1868    1.3629   24.2971 H   0  0  0  0  0  0  0  0  0  0  0  0
    7.2664    1.3341   23.9013 C   0  0  0  0  0  0  0  0  0  0  0  0
    6.9799    0.8347   22.6429 O   0  0  0  0  0  0  0  0  0  0  0  0
    7.4970   -0.3416   22.2575 C   0  0  0  0  0  0  0  0  0  0  0  0
    8.1996   -1.3419   22.8830 C   0  0  0  0  0  0  0  0  0  0  0  0
    8.4565   -1.4153   23.9286 H   0  0  0  0  0  0  0  0  0  0  0  0
    8.5427   -2.1969   21.8103 C   0  0  0  0  0  0  0  0  0  0  0  0
    9.1288   -3.1095   21.8279 H   0  0  0  0  0  0  0  0  0  0  0  0
    8.0656   -1.7845   20.6501 N   0  0  0  0  0  0  0  0  0  0  0  0
    7.3761   -0.6536   20.9426 N   0  0  0  0  0  0  0  0  0  0  0  0
    6.6479    0.0185   19.9311 C   0  0  0  0  0  0  0  0  0  0  0  0
    7.1811    0.0158   18.6345 C   0  0  0  0  0  0  0  0  0  0  0  0
    8.1176   -0.5039   18.4414 H   0  0  0  0  0  0  0  0  0  0  0  0
    6.5970    0.6349   17.6084 N   0  0  0  0  0  0  0  0  0  0  0  0
    5.4368    1.2719   17.8376 C   0  0  0  0  0  0  0  0  0  0  0  0
    4.9971    1.7840   16.9856 H   0  0  0  0  0  0  0  0  0  0  0  0
    4.8102    1.2963   19.0869 C   0  0  0  0  0  0  0  0  0  0  0  0
    3.8686    1.8194   19.2077 H   0  0  0  0  0  0  0  0  0  0  0  0
    5.4269    0.6671   20.1696 C   0  0  0  0  0  0  0  0  0  0  0  0
    4.9822    0.6893   21.1635 H   0  0  0  0  0  0  0  0  0  0  0  0
  1  2  1  0
  2  3  1  0
  3  4  2  0
  4  5  1  0
  4  6  1  0
  6  7  1  0
  6  8  2  0
  8  9  1  0
  8 10  1  0
 10 11  1  0
 10 12  2  0
 12 13  1  0
 13 14  1  0
 14 15  2  0
 15 16  1  0
 15 17  1  0
 17 18  1  0
 17 19  2  0
 19 20  1  0
 20 21  1  0
 21 22  2  0
 22 23  1  0
 22 24  1  0
 24 25  2  0
 25 26  1  0
 25 27  1  0
 27 28  1  0
 27 29  2  0
 29 30  1  0
 12  3  1  0
 20 14  1  0
 29 21  1  0
M  END
>  <cnnaffinity>  (1) 
-5.41664

>  <filename>  (1) 
Oc1cc(Cl)ccc1Oc1ccnn1-c1cccnc1

$$$$
