
     RDKit          3D

 34 36  0  0  0  0  0  0  0  0999 V2000
   13.0673    3.1649   22.3431 H   0  0  0  0  0  0  0  0  0  0  0  0
   13.5468    2.4308   22.7470 O   0  0  0  0  0  0  0  0  0  0  0  0
   12.9835    1.2869   22.2800 C   0  0  0  0  0  0  0  0  0  0  0  0
   13.7405    0.1185   22.3359 C   0  0  0  0  0  0  0  0  0  0  0  0
   14.7375    0.1298   22.7635 H   0  0  0  0  0  0  0  0  0  0  0  0
   13.2196   -1.0435   21.7804 C   0  0  0  0  0  0  0  0  0  0  0  0
   14.0224   -2.1247   21.6470 O   0  0  0  0  0  0  0  0  0  0  0  0
   14.9144   -1.8035   21.8135 H   0  0  0  0  0  0  0  0  0  0  0  0
   11.8973   -1.1048   21.3334 C   0  0  0  0  0  0  0  0  0  0  0  0
   11.4799   -2.0536   21.0279 H   0  0  0  0  0  0  0  0  0  0  0  0
   11.1141    0.0594   21.3275 C   0  0  0  0  0  0  0  0  0  0  0  0
    9.6937    0.0616   20.8752 C   0  0  0  0  0  0  0  0  0  0  0  0
    9.4229    0.9142   20.2488 H   0  0  0  0  0  0  0  0  0  0  0  0
    8.7370   -0.7895   21.2867 C   0  0  0  0  0  0  0  0  0  0  0  0
    7.2735   -0.8045   20.9992 C   0  0  0  0  0  0  0  0  0  0  0  0
    6.6191   -0.0222   19.9206 C   0  0  0  0  0  0  0  0  0  0  0  0
    7.1911    0.0277   18.6430 C   0  0  0  0  0  0  0  0  0  0  0  0
    8.1430   -0.4670   18.4513 H   0  0  0  0  0  0  0  0  0  0  0  0
    6.6406    0.6645   17.6014 N   0  0  0  0  0  0  0  0  0  0  0  0
    5.4810    1.3029   17.8124 C   0  0  0  0  0  0  0  0  0  0  0  0
    5.0484    1.8134   16.9531 H   0  0  0  0  0  0  0  0  0  0  0  0
    4.8273    1.3221   19.0503 C   0  0  0  0  0  0  0  0  0  0  0  0
    3.8975    1.8706   19.1546 H   0  0  0  0  0  0  0  0  0  0  0  0
    5.3975    0.6389   20.1238 C   0  0  0  0  0  0  0  0  0  0  0  0
    4.9180    0.6197   21.1047 H   0  0  0  0  0  0  0  0  0  0  0  0
    6.6014   -1.5780   21.7720 N   0  0  0  0  0  0  0  0  0  0  0  0
    7.4992   -2.1792   22.7656 C   0  0  0  0  0  0  0  0  0  0  0  0
    7.3228   -3.2559   22.8245 H   0  0  0  0  0  0  0  0  0  0  0  0
    7.2704   -1.7454   23.7455 H   0  0  0  0  0  0  0  0  0  0  0  0
    8.9483   -1.8400   22.3547 C   0  0  0  0  0  0  0  0  0  0  0  0
    9.4606   -2.7167   21.9428 H   0  0  0  0  0  0  0  0  0  0  0  0
    9.5603   -1.4473   23.1743 H   0  0  0  0  0  0  0  0  0  0  0  0
   11.6903    1.2734   21.7435 C   0  0  0  0  0  0  0  0  0  0  0  0
   11.1085    2.1907   21.7050 H   0  0  0  0  0  0  0  0  0  0  0  0
  1  2  1  0
  2  3  1  0
  3  4  2  0
  4  5  1  0
  4  6  1  0
  6  7  1  0
  7  8  1  0
  6  9  2  0
  9 10  1  0
  9 11  1  0
 11 12  1  0
 12 13  1  0
 12 14  2  3
 14 15  1  0
 15 16  1  0
 16 17  2  0
 17 18  1  0
 17 19  1  0
 19 20  2  0
 20 21  1  0
 20 22  1  0
 22 23  1  0
 22 24  2  0
 24 25  1  0
 15 26  2  0
 26 27  1  0
 27 28  1  0
 27 29  1  0
 27 30  1  0
 30 31  1  0
 30 32  1  0
 11 33  2  0
 33 34  1  0
 33  3  1  0
 30 14  1  0
 24 16  1  0
M  END
>  <cnnaffinity>  (1) 
-6.05441

>  <filename>  (1) 
Oc1cc(O)cc(C=C2CCN=C2c2cccnc2)c1

$$$$
