
     RDKit          3D

 31 33  0  0  0  0  0  0  0  0999 V2000
   10.3151   -1.9763   21.1975 H   0  0  0  0  0  0  0  0  0  0  0  0
   11.2008   -2.1428   21.5432 O   0  0  0  0  0  0  0  0  0  0  0  0
   11.5819   -1.1461   22.3924 C   0  0  0  0  0  0  0  0  0  0  0  0
   12.8612   -0.6294   22.1996 C   0  0  0  0  0  0  0  0  0  0  0  0
   13.4515   -0.9930   21.3663 H   0  0  0  0  0  0  0  0  0  0  0  0
   13.3399    0.3641   23.0474 C   0  0  0  0  0  0  0  0  0  0  0  0
   14.8438    1.1228   22.6755 Cl  0  0  0  0  0  0  0  0  0  0  0  0
   12.6133    0.7949   24.1556 C   0  0  0  0  0  0  0  0  0  0  0  0
   13.0601    1.5285   24.8200 H   0  0  0  0  0  0  0  0  0  0  0  0
   11.3317    0.2715   24.3555 C   0  0  0  0  0  0  0  0  0  0  0  0
   10.7240    0.5825   25.1981 H   0  0  0  0  0  0  0  0  0  0  0  0
   10.7907   -0.6494   23.4545 C   0  0  0  0  0  0  0  0  0  0  0  0
    9.4939   -1.1088   23.6901 O   0  0  0  0  0  0  0  0  0  0  0  0
    8.6423   -1.0891   22.6471 C   0  0  0  0  0  0  0  0  0  0  0  0
    8.4724   -0.3043   21.5590 C   0  0  0  0  0  0  0  0  0  0  0  0
    8.9839    0.5825   21.2313 H   0  0  0  0  0  0  0  0  0  0  0  0
    7.3858   -0.8319   20.8512 N   0  0  0  0  0  0  0  0  0  0  0  0
    6.7079   -0.1373   19.7943 C   0  0  0  0  0  0  0  0  0  0  0  0
    7.2593   -0.0236   18.5058 C   0  0  0  0  0  0  0  0  0  0  0  0
    8.1906   -0.5381   18.2717 H   0  0  0  0  0  0  0  0  0  0  0  0
    6.6801    0.6762   17.5202 N   0  0  0  0  0  0  0  0  0  0  0  0
    5.5176    1.2946   17.7874 C   0  0  0  0  0  0  0  0  0  0  0  0
    5.0734    1.8701   16.9770 H   0  0  0  0  0  0  0  0  0  0  0  0
    4.8804    1.2185   19.0307 C   0  0  0  0  0  0  0  0  0  0  0  0
    3.9490    1.7500   19.1922 H   0  0  0  0  0  0  0  0  0  0  0  0
    5.4742    0.4717   20.0516 C   0  0  0  0  0  0  0  0  0  0  0  0
    5.0080    0.3627   21.0310 H   0  0  0  0  0  0  0  0  0  0  0  0
    6.8603   -1.9151   21.5253 C   0  0  0  0  0  0  0  0  0  0  0  0
    5.5541   -2.8823   21.1874 S   0  0  0  0  0  0  0  0  0  0  0  0
    7.6696   -2.0515   22.6135 N   0  0  0  0  0  0  0  0  0  0  0  0
    7.4025   -2.6590   23.3609 H   0  0  0  0  0  0  0  0  0  0  0  0
  1  2  1  0
  2  3  1  0
  3  4  2  0
  4  5  1  0
  4  6  1  0
  6  7  1  0
  6  8  2  0
  8  9  1  0
  8 10  1  0
 10 11  1  0
 10 12  2  0
 12 13  1  0
 13 14  1  0
 14 15  2  0
 15 16  1  0
 15 17  1  0
 17 18  1  0
 18 19  2  0
 19 20  1  0
 19 21  1  0
 21 22  2  0
 22 23  1  0
 22 24  1  0
 24 25  1  0
 24 26  2  0
 26 27  1  0
 17 28  1  0
 28 29  2  0
 28 30  1  0
 30 31  1  0
 12  3  1  0
 30 14  1  0
 26 18  1  0
M  END
>  <cnnaffinity>  (1) 
-5.77836

>  <filename>  (1) 
Oc1cc(Cl)ccc1Oc1cn(-c2cccnc2)c(=S)[nH]1

$$$$
