
     RDKit          3D

 24 25  0  0  0  0  0  0  0  0999 V2000
    9.8295   -0.8659   20.4813 H   0  0  0  0  0  0  0  0  0  0  0  0
   10.4681   -1.1142   21.1603 O   0  0  0  0  0  0  0  0  0  0  0  0
   10.3693   -0.2561   22.2031 C   0  0  0  0  0  0  0  0  0  0  0  0
   11.5169   -0.1963   23.0081 C   0  0  0  0  0  0  0  0  0  0  0  0
   12.3524   -0.8335   22.7468 H   0  0  0  0  0  0  0  0  0  0  0  0
   11.5519    0.6550   24.1036 C   0  0  0  0  0  0  0  0  0  0  0  0
   12.9997    0.7979   25.0395 Cl  0  0  0  0  0  0  0  0  0  0  0  0
   10.4300    1.4052   24.4651 C   0  0  0  0  0  0  0  0  0  0  0  0
   10.4614    1.9902   25.3715 H   0  0  0  0  0  0  0  0  0  0  0  0
    9.2802    1.3454   23.6699 C   0  0  0  0  0  0  0  0  0  0  0  0
    8.3819    1.9115   23.9002 H   0  0  0  0  0  0  0  0  0  0  0  0
    9.2484    0.5235   22.5560 C   0  0  0  0  0  0  0  0  0  0  0  0
    8.0103    0.5853   21.7846 O   0  0  0  0  0  0  0  0  0  0  0  0
    7.3375   -0.8736   21.0186 S   0  0  0  0  0  0  0  0  0  0  0  0
    6.5139   -0.0553   19.7308 C   0  0  0  0  0  0  0  0  0  0  0  0
    7.0389   -0.0162   18.4282 C   0  0  0  0  0  0  0  0  0  0  0  0
    7.9495   -0.5672   18.1979 H   0  0  0  0  0  0  0  0  0  0  0  0
    6.4802    0.6707   17.4268 N   0  0  0  0  0  0  0  0  0  0  0  0
    5.3544    1.3548   17.6974 C   0  0  0  0  0  0  0  0  0  0  0  0
    4.9179    1.9088   16.8675 H   0  0  0  0  0  0  0  0  0  0  0  0
    4.7325    1.3504   18.9524 C   0  0  0  0  0  0  0  0  0  0  0  0
    3.8089    1.9012   19.0958 H   0  0  0  0  0  0  0  0  0  0  0  0
    5.3264    0.6379   19.9971 C   0  0  0  0  0  0  0  0  0  0  0  0
    4.8985    0.6055   20.9984 H   0  0  0  0  0  0  0  0  0  0  0  0
  1  2  1  0
  2  3  1  0
  3  4  2  0
  4  5  1  0
  4  6  1  0
  6  7  1  0
  6  8  2  0
  8  9  1  0
  8 10  1  0
 10 11  1  0
 10 12  2  0
 12 13  1  0
 13 14  1  0
 14 15  1  0
 15 16  2  0
 16 17  1  0
 16 18  1  0
 18 19  2  0
 19 20  1  0
 19 21  1  0
 21 22  1  0
 21 23  2  0
 23 24  1  0
 12  3  1  0
 23 15  1  0
M  END
>  <cnnaffinity>  (1) 
-4.2159

>  <filename>  (1) 
Oc1cc(Cl)ccc1OSc1cccnc1

$$$$
