
     RDKit          3D

 37 40  0  0  0  0  0  0  0  0999 V2000
    7.4442    4.3966   21.5117 H   0  0  0  0  0  0  0  0  0  0  0  0
    7.1404    4.5787   22.4114 O   0  0  0  0  0  0  0  0  0  0  0  0
    6.9627    3.3785   23.0045 C   0  0  0  0  0  0  0  0  0  0  0  0
    6.4633    3.3463   24.3027 C   0  0  0  0  0  0  0  0  0  0  0  0
    6.2077    4.2775   24.7934 H   0  0  0  0  0  0  0  0  0  0  0  0
    6.2897    2.1169   24.9274 C   0  0  0  0  0  0  0  0  0  0  0  0
    5.8069    2.0361   26.1848 O   0  0  0  0  0  0  0  0  0  0  0  0
    5.6594    2.9451   26.4617 H   0  0  0  0  0  0  0  0  0  0  0  0
    6.6119    0.9298   24.2805 C   0  0  0  0  0  0  0  0  0  0  0  0
    6.4777   -0.0142   24.7939 H   0  0  0  0  0  0  0  0  0  0  0  0
    7.0907    0.9803   22.9731 C   0  0  0  0  0  0  0  0  0  0  0  0
    7.4710   -0.2636   22.3252 C   0  0  0  0  0  0  0  0  0  0  0  0
    7.3688   -0.6744   20.9583 C   0  0  0  0  0  0  0  0  0  0  0  0
    6.6257   -0.0140   19.8764 C   0  0  0  0  0  0  0  0  0  0  0  0
    7.1497    0.0248   18.5726 C   0  0  0  0  0  0  0  0  0  0  0  0
    8.0980   -0.4642   18.3456 H   0  0  0  0  0  0  0  0  0  0  0  0
    6.5603    0.6639   17.5585 N   0  0  0  0  0  0  0  0  0  0  0  0
    5.4028    1.2943   17.8081 C   0  0  0  0  0  0  0  0  0  0  0  0
    4.9513    1.8232   16.9716 H   0  0  0  0  0  0  0  0  0  0  0  0
    4.7806    1.3003   19.0609 C   0  0  0  0  0  0  0  0  0  0  0  0
    3.8521    1.8472   19.2107 H   0  0  0  0  0  0  0  0  0  0  0  0
    5.4011    0.6315   20.1117 C   0  0  0  0  0  0  0  0  0  0  0  0
    4.9677    0.6372   21.1136 H   0  0  0  0  0  0  0  0  0  0  0  0
    8.0795   -1.7825   20.7411 N   0  0  0  0  0  0  0  0  0  0  0  0
    8.5531   -2.0870   21.9477 N   0  0  0  0  0  0  0  0  0  0  0  0
    8.2439   -1.2413   22.9227 C   0  0  0  0  0  0  0  0  0  0  0  0
    9.0759   -1.4937   24.1531 C   0  0  0  0  0  0  0  0  0  0  0  0
    8.4634   -1.6982   25.0371 H   0  0  0  0  0  0  0  0  0  0  0  0
    9.6800   -0.6074   24.3828 H   0  0  0  0  0  0  0  0  0  0  0  0
    9.9386   -2.7150   23.7256 C   0  0  0  0  0  0  0  0  0  0  0  0
   10.9981   -2.4811   23.7799 H   0  0  0  0  0  0  0  0  0  0  0  0
    9.7539   -3.5813   24.3593 H   0  0  0  0  0  0  0  0  0  0  0  0
    9.5654   -3.0508   22.2596 C   0  0  0  0  0  0  0  0  0  0  0  0
    9.1527   -4.0537   22.1298 H   0  0  0  0  0  0  0  0  0  0  0  0
   10.3987   -2.8966   21.5730 H   0  0  0  0  0  0  0  0  0  0  0  0
    7.2767    2.2075   22.3287 C   0  0  0  0  0  0  0  0  0  0  0  0
    7.6620    2.2727   21.3144 H   0  0  0  0  0  0  0  0  0  0  0  0
  1  2  1  0
  2  3  1  0
  3  4  2  0
  4  5  1  0
  4  6  1  0
  6  7  1  0
  7  8  1  0
  6  9  2  0
  9 10  1  0
  9 11  1  0
 11 12  1  0
 12 13  1  0
 13 14  1  0
 14 15  2  0
 15 16  1  0
 15 17  1  0
 17 18  2  0
 18 19  1  0
 18 20  1  0
 20 21  1  0
 20 22  2  0
 22 23  1  0
 13 24  2  0
 24 25  1  0
 25 26  1  0
 26 27  1  0
 27 28  1  0
 27 29  1  0
 27 30  1  0
 30 31  1  0
 30 32  1  0
 30 33  1  0
 33 34  1  0
 33 35  1  0
 11 36  2  0
 36 37  1  0
 36  3  1  0
 26 12  2  0
 22 14  1  0
 33 25  1  0
M  END
>  <cnnaffinity>  (1) 
-5.51327

>  <filename>  (1) 
Oc1cc(O)cc(-c2c(-c3cccnc3)nn3c2CCC3)c1

$$$$
