
     RDKit          3D

 31 33  0  0  0  0  0  0  0  0999 V2000
    4.8828   -4.9988   26.4903 H   0  0  0  0  0  0  0  0  0  0  0  0
    4.8598   -4.3592   25.7725 O   0  0  0  0  0  0  0  0  0  0  0  0
    6.1291   -4.1778   25.3428 C   0  0  0  0  0  0  0  0  0  0  0  0
    7.2132   -4.8590   25.8911 C   0  0  0  0  0  0  0  0  0  0  0  0
    7.1283   -5.5760   26.6993 H   0  0  0  0  0  0  0  0  0  0  0  0
    8.4848   -4.6063   25.3717 C   0  0  0  0  0  0  0  0  0  0  0  0
    9.5083   -5.2897   25.9336 O   0  0  0  0  0  0  0  0  0  0  0  0
   10.3168   -5.0185   25.4863 H   0  0  0  0  0  0  0  0  0  0  0  0
    8.6803   -3.6972   24.3271 C   0  0  0  0  0  0  0  0  0  0  0  0
    9.6719   -3.5219   23.9190 H   0  0  0  0  0  0  0  0  0  0  0  0
    7.5739   -3.0161   23.7881 C   0  0  0  0  0  0  0  0  0  0  0  0
    7.6813   -2.0623   22.6765 C   0  0  0  0  0  0  0  0  0  0  0  0
    6.7405   -1.6051   21.8139 C   0  0  0  0  0  0  0  0  0  0  0  0
    5.6948   -1.8450   21.7173 H   0  0  0  0  0  0  0  0  0  0  0  0
    7.3364   -0.6976   20.9501 N   0  0  0  0  0  0  0  0  0  0  0  0
    6.6549   -0.0046   19.9040 C   0  0  0  0  0  0  0  0  0  0  0  0
    7.1734    0.0457   18.5946 C   0  0  0  0  0  0  0  0  0  0  0  0
    8.1257   -0.4301   18.3657 H   0  0  0  0  0  0  0  0  0  0  0  0
    6.5571    0.6669   17.5831 N   0  0  0  0  0  0  0  0  0  0  0  0
    5.3976    1.2915   17.8416 C   0  0  0  0  0  0  0  0  0  0  0  0
    4.9236    1.7864   16.9967 H   0  0  0  0  0  0  0  0  0  0  0  0
    4.8118    1.3090   19.1108 C   0  0  0  0  0  0  0  0  0  0  0  0
    3.8815    1.8398   19.2606 H   0  0  0  0  0  0  0  0  0  0  0  0
    5.4452    0.6430   20.1628 C   0  0  0  0  0  0  0  0  0  0  0  0
    5.0282    0.6285   21.1716 H   0  0  0  0  0  0  0  0  0  0  0  0
    8.6603   -0.5401   21.2984 C   0  0  0  0  0  0  0  0  0  0  0  0
    9.8080    0.4982   20.7252 S   0  0  0  0  0  0  0  0  0  0  0  0
    8.8569   -1.4190   22.3082 N   0  0  0  0  0  0  0  0  0  0  0  0
    9.7599   -1.4276   22.7517 H   0  0  0  0  0  0  0  0  0  0  0  0
    6.3008   -3.2650   24.3060 C   0  0  0  0  0  0  0  0  0  0  0  0
    5.4130   -2.7632   23.9432 H   0  0  0  0  0  0  0  0  0  0  0  0
  1  2  1  0
  2  3  1  0
  3  4  2  0
  4  5  1  0
  4  6  1  0
  6  7  1  0
  7  8  1  0
  6  9  2  0
  9 10  1  0
  9 11  1  0
 11 12  1  0
 12 13  2  0
 13 14  1  0
 13 15  1  0
 15 16  1  0
 16 17  2  0
 17 18  1  0
 17 19  1  0
 19 20  2  0
 20 21  1  0
 20 22  1  0
 22 23  1  0
 22 24  2  0
 24 25  1  0
 15 26  1  0
 26 27  2  0
 26 28  1  0
 28 29  1  0
 11 30  2  0
 30 31  1  0
 30  3  1  0
 28 12  1  0
 24 16  1  0
M  END
>  <cnnaffinity>  (1) 
-5.35372

>  <filename>  (1) 
Oc1cc(O)cc(-c2cn(-c3cccnc3)c(=S)[nH]2)c1

$$$$
