
     RDKit          3D

 30 32  0  0  0  0  0  0  0  0999 V2000
    7.1744    5.2395   22.6390 H   0  0  0  0  0  0  0  0  0  0  0  0
    7.5117    4.4686   22.1726 O   0  0  0  0  0  0  0  0  0  0  0  0
    7.1122    3.3508   22.8164 C   0  0  0  0  0  0  0  0  0  0  0  0
    6.3482    3.3929   23.9759 C   0  0  0  0  0  0  0  0  0  0  0  0
    6.0319    4.3137   24.4534 H   0  0  0  0  0  0  0  0  0  0  0  0
    5.9760    2.1810   24.5594 C   0  0  0  0  0  0  0  0  0  0  0  0
    5.2480    2.2785   25.6943 O   0  0  0  0  0  0  0  0  0  0  0  0
    5.0695    1.3880   26.0127 H   0  0  0  0  0  0  0  0  0  0  0  0
    6.3416    0.9493   24.0033 C   0  0  0  0  0  0  0  0  0  0  0  0
    6.0749    0.0055   24.4646 H   0  0  0  0  0  0  0  0  0  0  0  0
    7.1084    0.9479   22.8367 C   0  0  0  0  0  0  0  0  0  0  0  0
    7.5101   -0.2949   22.2469 N   0  0  0  0  0  0  0  0  0  0  0  0
    7.3791   -0.6945   20.9253 C   0  0  0  0  0  0  0  0  0  0  0  0
    6.6399    0.0177   19.8924 C   0  0  0  0  0  0  0  0  0  0  0  0
    7.1625    0.0523   18.5899 C   0  0  0  0  0  0  0  0  0  0  0  0
    8.1124   -0.4353   18.3658 H   0  0  0  0  0  0  0  0  0  0  0  0
    6.5638    0.6795   17.5735 N   0  0  0  0  0  0  0  0  0  0  0  0
    5.3985    1.2963   17.8347 C   0  0  0  0  0  0  0  0  0  0  0  0
    4.9245    1.7899   16.9908 H   0  0  0  0  0  0  0  0  0  0  0  0
    4.7936    1.3108   19.0968 C   0  0  0  0  0  0  0  0  0  0  0  0
    3.8676    1.8468   19.2469 H   0  0  0  0  0  0  0  0  0  0  0  0
    5.4183    0.6518   20.1479 C   0  0  0  0  0  0  0  0  0  0  0  0
    5.0067    0.6378   21.1593 H   0  0  0  0  0  0  0  0  0  0  0  0
    7.9709   -1.8297   20.7102 N   0  0  0  0  0  0  0  0  0  0  0  0
    8.4721   -2.1728   21.9255 N   0  0  0  0  0  0  0  0  0  0  0  0
    9.0171   -3.0084   22.0727 H   0  0  0  0  0  0  0  0  0  0  0  0
    8.2495   -1.2678   22.8949 C   0  0  0  0  0  0  0  0  0  0  0  0
    8.8011   -1.3741   24.4501 S   0  0  0  0  0  0  0  0  0  0  0  0
    7.5055    2.1391   22.2443 C   0  0  0  0  0  0  0  0  0  0  0  0
    8.0670    2.1780   21.3226 H   0  0  0  0  0  0  0  0  0  0  0  0
  1  2  1  0
  2  3  1  0
  3  4  2  0
  4  5  1  0
  4  6  1  0
  6  7  1  0
  7  8  1  0
  6  9  2  0
  9 10  1  0
  9 11  1  0
 11 12  1  0
 12 13  1  0
 13 14  1  0
 14 15  2  0
 15 16  1  0
 15 17  1  0
 17 18  2  0
 18 19  1  0
 18 20  1  0
 20 21  1  0
 20 22  2  0
 22 23  1  0
 13 24  2  0
 24 25  1  0
 25 26  1  0
 25 27  1  0
 27 28  2  0
 11 29  2  0
 29 30  1  0
 29  3  1  0
 27 12  1  0
 22 14  1  0
M  END
>  <cnnaffinity>  (1) 
-5.09456

>  <filename>  (1) 
Oc1cc(O)cc(-n2c(-c3cccnc3)n[nH]c2=S)c1

$$$$
