
     RDKit          3D

 31 33  0  0  0  0  0  0  0  0999 V2000
    6.1259   -6.2123   22.5995 H   0  0  0  0  0  0  0  0  0  0  0  0
    6.3697   -5.4633   22.0450 O   0  0  0  0  0  0  0  0  0  0  0  0
    7.3888   -4.7981   22.6498 C   0  0  0  0  0  0  0  0  0  0  0  0
    7.9535   -5.1892   23.8712 C   0  0  0  0  0  0  0  0  0  0  0  0
    7.5845   -6.0636   24.4018 H   0  0  0  0  0  0  0  0  0  0  0  0
    9.0078   -4.4405   24.4173 C   0  0  0  0  0  0  0  0  0  0  0  0
    9.4622   -4.7323   25.3626 H   0  0  0  0  0  0  0  0  0  0  0  0
    9.4961   -3.3158   23.7584 C   0  0  0  0  0  0  0  0  0  0  0  0
   10.3036   -2.7242   24.1863 H   0  0  0  0  0  0  0  0  0  0  0  0
    8.9243   -2.9220   22.5358 C   0  0  0  0  0  0  0  0  0  0  0  0
    9.4001   -1.7262   21.8359 C   0  0  0  0  0  0  0  0  0  0  0  0
    8.7061   -0.7706   21.1058 C   0  0  0  0  0  0  0  0  0  0  0  0
    7.3217   -0.7165   20.9244 N   0  0  0  0  0  0  0  0  0  0  0  0
    6.7709   -1.0674   21.6974 H   0  0  0  0  0  0  0  0  0  0  0  0
    6.6637   -0.0096   19.9098 C   0  0  0  0  0  0  0  0  0  0  0  0
    7.1714    0.0612   18.5883 C   0  0  0  0  0  0  0  0  0  0  0  0
    8.1192   -0.4292   18.3742 H   0  0  0  0  0  0  0  0  0  0  0  0
    6.5600    0.6834   17.5703 N   0  0  0  0  0  0  0  0  0  0  0  0
    5.3959    1.2977   17.8369 C   0  0  0  0  0  0  0  0  0  0  0  0
    4.9124    1.7865   16.9947 H   0  0  0  0  0  0  0  0  0  0  0  0
    4.8121    1.3058   19.1089 C   0  0  0  0  0  0  0  0  0  0  0  0
    3.8811    1.8379   19.2639 H   0  0  0  0  0  0  0  0  0  0  0  0
    5.4429    0.6335   20.1634 C   0  0  0  0  0  0  0  0  0  0  0  0
    5.0188    0.6213   21.1683 H   0  0  0  0  0  0  0  0  0  0  0  0
    9.6957    0.1407   20.6739 C   0  0  0  0  0  0  0  0  0  0  0  0
    9.5342    1.0207   20.0727 H   0  0  0  0  0  0  0  0  0  0  0  0
   10.9035   -0.1912   21.1088 N   0  0  0  0  0  0  0  0  0  0  0  0
   10.6987   -1.3110   21.8138 N   0  0  0  0  0  0  0  0  0  0  0  0
   11.4984   -1.7580   22.2350 H   0  0  0  0  0  0  0  0  0  0  0  0
    7.8718   -3.6683   21.9878 C   0  0  0  0  0  0  0  0  0  0  0  0
    7.4291   -3.3882   21.0410 H   0  0  0  0  0  0  0  0  0  0  0  0
  1  2  1  0
  2  3  1  0
  3  4  2  0
  4  5  1  0
  4  6  1  0
  6  7  1  0
  6  8  2  0
  8  9  1  0
  8 10  1  0
 10 11  1  0
 11 12  2  0
 12 13  1  0
 13 14  1  0
 13 15  1  0
 15 16  2  0
 16 17  1  0
 16 18  1  0
 18 19  2  0
 19 20  1  0
 19 21  1  0
 21 22  1  0
 21 23  2  0
 23 24  1  0
 12 25  1  0
 25 26  1  0
 25 27  2  0
 27 28  1  0
 28 29  1  0
 10 30  2  0
 30 31  1  0
 30  3  1  0
 28 11  1  0
 23 15  1  0
M  END
>  <cnnaffinity>  (1) 
-5.46409

>  <filename>  (1) 
Oc1cccc(-c2[nH]ncc2Nc2cccnc2)c1

$$$$
