
     RDKit          3D

 40 42  0  0  0  0  0  0  0  0999 V2000
    8.4757   -3.4960   24.7106 O   0  0  0  0  0  0  0  0  0  0  0  0
    9.1547   -2.4638   25.3243 C   0  0  0  0  0  0  0  0  0  0  0  0
    8.8106   -2.0553   26.6105 C   0  0  0  0  0  0  0  0  0  0  0  0
    9.4332   -0.9328   27.1705 C   0  0  0  0  0  0  0  0  0  0  0  0
   10.4318   -0.2672   26.4482 C   0  0  0  0  0  0  0  0  0  0  0  0
   10.7745   -0.6902   25.1534 C   0  0  0  0  0  0  0  0  0  0  0  0
   10.1083   -1.7730   24.5543 C   0  0  0  0  0  0  0  0  0  0  0  0
   10.1442   -2.0770   23.0723 C   0  0  0  0  0  0  0  0  0  0  0  0
    8.7404   -1.8425   22.5600 N   0  0  0  0  0  4  0  0  0  0  0  0
    8.4457   -0.3421   22.5918 C   0  0  0  0  0  0  0  0  0  0  0  0
    7.0840    0.0409   22.0012 C   0  0  0  0  0  0  0  0  0  0  0  0
    6.9339   -0.5477   20.6809 N   0  0  0  0  0  0  0  0  0  0  0  0
    6.3366    0.1607   19.6265 C   0  0  0  0  0  0  0  0  0  0  0  0
    5.2069    0.9662   19.8459 C   0  0  0  0  0  0  0  0  0  0  0  0
    4.6687    1.6885   18.7770 C   0  0  0  0  0  0  0  0  0  0  0  0
    5.2749    1.6017   17.5195 C   0  0  0  0  0  0  0  0  0  0  0  0
    6.3561    0.8403   17.2813 N   0  0  0  0  0  0  0  0  0  0  0  0
    6.8641    0.1486   18.3104 C   0  0  0  0  0  0  0  0  0  0  0  0
    7.7525   -0.4420   18.0958 H   0  0  0  0  0  0  0  0  0  0  0  0
    4.8899    2.1691   16.6750 H   0  0  0  0  0  0  0  0  0  0  0  0
    3.8105    2.3353   18.9191 H   0  0  0  0  0  0  0  0  0  0  0  0
    4.7819    0.9957   20.8488 H   0  0  0  0  0  0  0  0  0  0  0  0
    7.0510   -1.9997   20.7095 C   0  0  0  0  0  0  0  0  0  0  0  0
    8.4618   -2.3924   21.1833 C   0  0  0  0  0  0  0  0  0  0  0  0
    9.1941   -1.9795   20.4751 H   0  0  0  0  0  0  0  0  0  0  0  0
    8.5707   -3.4831   21.1781 H   0  0  0  0  0  0  0  0  0  0  0  0
    6.3191   -2.4312   21.4159 H   0  0  0  0  0  0  0  0  0  0  0  0
    6.8100   -2.4012   19.7225 H   0  0  0  0  0  0  0  0  0  0  0  0
    7.0483    1.1325   21.9207 H   0  0  0  0  0  0  0  0  0  0  0  0
    6.2671   -0.2653   22.6784 H   0  0  0  0  0  0  0  0  0  0  0  0
    8.5219    0.0191   23.6213 H   0  0  0  0  0  0  0  0  0  0  0  0
    9.2143    0.1491   21.9800 H   0  0  0  0  0  0  0  0  0  0  0  0
    8.1510   -2.3364   23.2710 H   0  0  0  0  0  0  0  0  0  0  0  0
   10.8541   -1.4294   22.5362 H   0  0  0  0  0  0  0  0  0  0  0  0
   10.4148   -3.1179   22.8617 H   0  0  0  0  0  0  0  0  0  0  0  0
   11.5729   -0.1728   24.6197 H   0  0  0  0  0  0  0  0  0  0  0  0
   10.9459    0.5869   26.8708 H   0  0  0  0  0  0  0  0  0  0  0  0
    9.1494   -0.5726   28.1605 H   0  0  0  0  0  0  0  0  0  0  0  0
    8.0250   -2.5950   27.1344 H   0  0  0  0  0  0  0  0  0  0  0  0
    8.2629   -4.1387   25.3993 H   0  0  0  0  0  0  0  0  0  0  0  0
  1  2  1  0
  2  3  2  0
  3  4  1  0
  4  5  2  0
  5  6  1  0
  6  7  2  0
  7  8  1  0
  8  9  1  0
  9 10  1  0
 10 11  1  0
 11 12  1  0
 12 13  1  0
 13 14  2  0
 14 15  1  0
 15 16  2  0
 16 17  1  0
 17 18  2  0
 18 19  1  0
 16 20  1  0
 15 21  1  0
 14 22  1  0
 12 23  1  0
 23 24  1  0
 24 25  1  0
 24 26  1  0
 23 27  1  0
 23 28  1  0
 11 29  1  0
 11 30  1  0
 10 31  1  0
 10 32  1  0
  9 33  1  0
  8 34  1  0
  8 35  1  0
  6 36  1  0
  5 37  1  0
  4 38  1  0
  3 39  1  0
  1 40  1  0
  7  2  1  0
 24  9  1  0
 18 13  1  0
M  CHG  1   9   1
M  END
>  <cnnaffinity>  (1) 
-4.30455

>  <filename>  (1) 
Oc1ccccc1C[NH+]1CCN(c2cccnc2)CC1

$$$$
