
     RDKit          3D

 28 30  0  0  0  0  0  0  0  0999 V2000
    5.4967   -1.3215   23.7931 H   0  0  0  0  0  0  0  0  0  0  0  0
    5.6918   -1.3495   24.7398 O   0  0  0  0  0  0  0  0  0  0  0  0
    6.2477   -0.1692   25.1103 C   0  0  0  0  0  0  0  0  0  0  0  0
    6.2971    0.0468   26.4888 C   0  0  0  0  0  0  0  0  0  0  0  0
    5.9052   -0.7246   27.1377 H   0  0  0  0  0  0  0  0  0  0  0  0
    6.8604    1.2130   26.9942 C   0  0  0  0  0  0  0  0  0  0  0  0
    6.9292    1.4442   28.7108 Cl  0  0  0  0  0  0  0  0  0  0  0  0
    7.3657    2.1975   26.1467 C   0  0  0  0  0  0  0  0  0  0  0  0
    7.7799    3.1068   26.5699 H   0  0  0  0  0  0  0  0  0  0  0  0
    7.3271    1.9800   24.7649 C   0  0  0  0  0  0  0  0  0  0  0  0
    7.7006    2.7411   24.0887 H   0  0  0  0  0  0  0  0  0  0  0  0
    6.8095    0.7970   24.2412 C   0  0  0  0  0  0  0  0  0  0  0  0
    6.8124    0.6553   22.8343 O   0  0  0  0  0  0  0  0  0  0  0  0
    7.4341   -0.3967   22.2873 C   0  0  0  0  0  0  0  0  0  0  0  0
    8.1724   -1.3032   22.8655 N   0  0  0  0  0  0  0  0  0  0  0  0
    8.5898   -2.1183   21.8600 N   0  0  0  0  0  0  0  0  0  0  0  0
    8.1236   -1.7475   20.7306 N   0  0  0  0  0  0  0  0  0  0  0  0
    7.3608   -0.6431   20.9550 N   0  0  0  0  0  0  0  0  0  0  0  0
    6.6540    0.0159   19.9014 C   0  0  0  0  0  0  0  0  0  0  0  0
    7.1810    0.0520   18.5959 C   0  0  0  0  0  0  0  0  0  0  0  0
    8.1275   -0.4369   18.3756 H   0  0  0  0  0  0  0  0  0  0  0  0
    6.5697    0.6746   17.5853 N   0  0  0  0  0  0  0  0  0  0  0  0
    5.4014    1.2911   17.8393 C   0  0  0  0  0  0  0  0  0  0  0  0
    4.9206    1.7810   16.9964 H   0  0  0  0  0  0  0  0  0  0  0  0
    4.8055    1.3034   19.1040 C   0  0  0  0  0  0  0  0  0  0  0  0
    3.8774    1.8391   19.2598 H   0  0  0  0  0  0  0  0  0  0  0  0
    5.4351    0.6486   20.1644 C   0  0  0  0  0  0  0  0  0  0  0  0
    5.0114    0.6400   21.1684 H   0  0  0  0  0  0  0  0  0  0  0  0
  1  2  1  0
  2  3  1  0
  3  4  2  0
  4  5  1  0
  4  6  1  0
  6  7  1  0
  6  8  2  0
  8  9  1  0
  8 10  1  0
 10 11  1  0
 10 12  2  0
 12 13  1  0
 13 14  1  0
 14 15  2  0
 15 16  1  0
 16 17  2  0
 17 18  1  0
 18 19  1  0
 19 20  2  0
 20 21  1  0
 20 22  1  0
 22 23  2  0
 23 24  1  0
 23 25  1  0
 25 26  1  0
 25 27  2  0
 27 28  1  0
 12  3  1  0
 18 14  1  0
 27 19  1  0
M  END
>  <cnnaffinity>  (1) 
-5.3337

>  <filename>  (1) 
Oc1cc(Cl)ccc1Oc1nnnn1-c1cccnc1

$$$$
