
     RDKit          3D

 35 38  0  0  0  0  0  0  0  0999 V2000
    4.7980    2.0718   29.0675 H   0  0  0  0  0  0  0  0  0  0  0  0
    4.6871    2.0754   28.1106 O   0  0  0  0  0  0  0  0  0  0  0  0
    5.8021    2.7603   27.5617 C   0  0  0  0  0  0  0  0  0  0  0  0
    5.9569    3.7139   28.0979 H   0  0  0  0  0  0  0  0  0  0  0  0
    7.0611    1.9047   27.6491 C   0  0  0  0  0  0  0  0  0  0  0  0
    7.9162    2.4996   27.3168 H   0  0  0  0  0  0  0  0  0  0  0  0
    7.2472    1.6315   28.6916 H   0  0  0  0  0  0  0  0  0  0  0  0
    6.9591    0.6380   26.8048 C   0  0  0  0  0  0  0  0  0  0  0  0
    6.2228   -0.0471   27.2492 H   0  0  0  0  0  0  0  0  0  0  0  0
    7.9256    0.1243   26.8301 H   0  0  0  0  0  0  0  0  0  0  0  0
    6.5959    0.9588   25.4148 N   0  0  0  0  0  0  0  0  0  0  0  0
    7.0299    0.2019   24.3564 C   0  0  0  0  0  0  0  0  0  0  0  0
    6.6085    0.3752   23.1351 N   0  0  0  0  0  0  0  0  0  0  0  0
    7.2736   -0.4923   22.3021 N   0  0  0  0  0  0  0  0  0  0  0  0
    7.4008   -0.6835   20.9375 C   0  0  0  0  0  0  0  0  0  0  0  0
    6.6458    0.0133   19.8972 C   0  0  0  0  0  0  0  0  0  0  0  0
    7.1708    0.0523   18.5907 C   0  0  0  0  0  0  0  0  0  0  0  0
    8.1188   -0.4325   18.3676 H   0  0  0  0  0  0  0  0  0  0  0  0
    6.5666    0.6744   17.5759 N   0  0  0  0  0  0  0  0  0  0  0  0
    5.4030    1.2902   17.8394 C   0  0  0  0  0  0  0  0  0  0  0  0
    4.9236    1.7817   16.9966 H   0  0  0  0  0  0  0  0  0  0  0  0
    4.8042    1.3069   19.1043 C   0  0  0  0  0  0  0  0  0  0  0  0
    3.8752    1.8424   19.2537 H   0  0  0  0  0  0  0  0  0  0  0  0
    5.4278    0.6534   20.1631 C   0  0  0  0  0  0  0  0  0  0  0  0
    5.0112    0.6406   21.1723 H   0  0  0  0  0  0  0  0  0  0  0  0
    8.3194   -1.5916   20.7209 N   0  0  0  0  0  0  0  0  0  0  0  0
    8.8228   -2.0234   21.9289 N   0  0  0  0  0  0  0  0  0  0  0  0
    8.1976   -1.3321   22.8420 C   0  0  0  0  0  0  0  0  0  0  0  0
    8.2577   -1.0786   24.5669 S   0  0  0  0  0  0  0  0  0  0  0  0
    5.3935    1.7913   25.2512 C   0  0  0  0  0  0  0  0  0  0  0  0
    5.2937    2.0716   24.2003 H   0  0  0  0  0  0  0  0  0  0  0  0
    4.4888    1.2293   25.5249 H   0  0  0  0  0  0  0  0  0  0  0  0
    5.4916    3.0542   26.1047 C   0  0  0  0  0  0  0  0  0  0  0  0
    6.2814    3.6956   25.7064 H   0  0  0  0  0  0  0  0  0  0  0  0
    4.5575    3.6145   26.0380 H   0  0  0  0  0  0  0  0  0  0  0  0
  1  2  1  0
  2  3  1  0
  3  4  1  0
  3  5  1  0
  5  6  1  0
  5  7  1  0
  5  8  1  0
  8  9  1  0
  8 10  1  0
  8 11  1  0
 11 12  1  0
 12 13  2  0
 13 14  1  0
 14 15  1  0
 15 16  1  0
 16 17  2  0
 17 18  1  0
 17 19  1  0
 19 20  2  0
 20 21  1  0
 20 22  1  0
 22 23  1  0
 22 24  2  0
 24 25  1  0
 15 26  2  0
 26 27  1  0
 27 28  2  0
 28 29  1  0
 11 30  1  0
 30 31  1  0
 30 32  1  0
 30 33  1  0
 33 34  1  0
 33 35  1  0
 33  3  1  0
 29 12  1  0
 28 14  1  0
 24 16  1  0
M  END
>  <cnnaffinity>  (1) 
-4.96596

>  <filename>  (1) 
OC1CCN(c2nn3c(-c4cccnc4)nnc3s2)CC1

$$$$
