
     RDKit          3D

 30 32  0  0  0  0  0  0  0  0999 V2000
    9.2659    0.5053   23.9054 H   0  0  0  0  0  0  0  0  0  0  0  0
    8.8382    1.2245   24.3969 O   0  0  0  0  0  0  0  0  0  0  0  0
    7.9702    0.6611   25.2699 C   0  0  0  0  0  0  0  0  0  0  0  0
    7.3729    1.4973   26.2093 C   0  0  0  0  0  0  0  0  0  0  0  0
    7.6340    2.5495   26.1829 H   0  0  0  0  0  0  0  0  0  0  0  0
    6.4792    0.9552   27.1323 C   0  0  0  0  0  0  0  0  0  0  0  0
    5.7330    2.0084   28.2938 Cl  0  0  0  0  0  0  0  0  0  0  0  0
    6.1750   -0.4093   27.1302 C   0  0  0  0  0  0  0  0  0  0  0  0
    5.4995   -0.8131   27.8715 H   0  0  0  0  0  0  0  0  0  0  0  0
    6.7644   -1.2515   26.1794 C   0  0  0  0  0  0  0  0  0  0  0  0
    6.5643   -2.3226   26.1387 H   0  0  0  0  0  0  0  0  0  0  0  0
    7.6380   -0.7116   25.2384 C   0  0  0  0  0  0  0  0  0  0  0  0
    8.2363   -1.5750   24.3091 O   0  0  0  0  0  0  0  0  0  0  0  0
    8.0476   -1.3153   22.9788 N   0  0  0  0  0  0  0  0  0  0  0  0
    8.8050   -2.0156   22.1489 N   0  0  0  0  0  0  0  0  0  0  0  0
    8.4065   -1.6321   20.9473 C   0  0  0  0  0  0  0  0  0  0  0  0
    8.9035   -2.0513   20.0848 H   0  0  0  0  0  0  0  0  0  0  0  0
    7.3500   -0.6865   21.0003 C   0  0  0  0  0  0  0  0  0  0  0  0
    6.6490    0.0025   19.8975 C   0  0  0  0  0  0  0  0  0  0  0  0
    7.1584    0.0651   18.5793 C   0  0  0  0  0  0  0  0  0  0  0  0
    8.1122   -0.3996   18.3318 H   0  0  0  0  0  0  0  0  0  0  0  0
    6.5521    0.6855   17.5588 N   0  0  0  0  0  0  0  0  0  0  0  0
    5.3886    1.3056   17.8135 C   0  0  0  0  0  0  0  0  0  0  0  0
    4.9177    1.8119   16.9717 H   0  0  0  0  0  0  0  0  0  0  0  0
    4.7914    1.3190   19.0773 C   0  0  0  0  0  0  0  0  0  0  0  0
    3.8597    1.8508   19.2311 H   0  0  0  0  0  0  0  0  0  0  0  0
    5.4291    0.6566   20.1269 C   0  0  0  0  0  0  0  0  0  0  0  0
    4.9877    0.6430   21.1218 H   0  0  0  0  0  0  0  0  0  0  0  0
    7.1364   -0.5260   22.3616 C   0  0  0  0  0  0  0  0  0  0  0  0
    6.4879    0.1216   22.9382 H   0  0  0  0  0  0  0  0  0  0  0  0
  1  2  1  0
  2  3  1  0
  3  4  2  0
  4  5  1  0
  4  6  1  0
  6  7  1  0
  6  8  2  0
  8  9  1  0
  8 10  1  0
 10 11  1  0
 10 12  2  0
 12 13  1  0
 13 14  1  0
 14 15  1  0
 15 16  2  0
 16 17  1  0
 16 18  1  0
 18 19  1  0
 19 20  2  0
 20 21  1  0
 20 22  1  0
 22 23  2  0
 23 24  1  0
 23 25  1  0
 25 26  1  0
 25 27  2  0
 27 28  1  0
 18 29  2  0
 29 30  1  0
 12  3  1  0
 29 14  1  0
 27 19  1  0
M  END
>  <cnnaffinity>  (1) 
-5.10987

>  <filename>  (1) 
Oc1cc(Cl)ccc1On1cc(-c2cccnc2)cn1

$$$$
