
     RDKit          3D

 39 41  0  0  0  0  0  0  0  0999 V2000
    8.6205   -4.6716   21.6408 H   0  0  0  0  0  0  0  0  0  0  0  0
    8.4875   -5.4203   22.2464 O   0  0  0  0  0  0  0  0  0  0  0  0
    8.4260   -4.8130   23.4661 C   0  0  0  0  0  0  0  0  0  0  0  0
    8.3632   -5.6179   24.6046 C   0  0  0  0  0  0  0  0  0  0  0  0
    8.4127   -6.6872   24.4287 H   0  0  0  0  0  0  0  0  0  0  0  0
    8.2104   -5.0280   25.8655 C   0  0  0  0  0  0  0  0  0  0  0  0
    8.1211   -5.6451   26.7627 H   0  0  0  0  0  0  0  0  0  0  0  0
    8.1573   -3.6327   25.9788 C   0  0  0  0  0  0  0  0  0  0  0  0
    7.9995   -3.1761   26.9492 H   0  0  0  0  0  0  0  0  0  0  0  0
    8.2752   -2.8193   24.8384 C   0  0  0  0  0  0  0  0  0  0  0  0
    8.2190   -1.7376   24.9284 H   0  0  0  0  0  0  0  0  0  0  0  0
    8.4189   -3.3948   23.5695 C   0  0  0  0  0  0  0  0  0  0  0  0
    8.5402   -2.6416   22.3562 N   0  0  0  0  0  0  0  0  0  0  0  0
    7.3250   -2.3798   21.5891 C   0  0  0  0  0  0  0  0  0  0  0  0
    6.6202   -3.1954   21.7834 H   0  0  0  0  0  0  0  0  0  0  0  0
    7.5625   -2.4048   20.5154 H   0  0  0  0  0  0  0  0  0  0  0  0
    6.6493   -1.0236   21.8725 C   0  0  0  0  0  0  0  0  0  0  0  0
    5.5872   -1.1074   21.6355 H   0  0  0  0  0  0  0  0  0  0  0  0
    6.7172   -0.8340   22.9513 H   0  0  0  0  0  0  0  0  0  0  0  0
    7.1950    0.1055   21.1075 N   0  0  0  0  0  0  0  0  0  0  0  0
    6.5407    0.4523   19.8961 C   0  0  0  0  0  0  0  0  0  0  0  0
    7.1309    0.3411   18.6065 C   0  0  0  0  0  0  0  0  0  0  0  0
    8.0878   -0.1674   18.4970 H   0  0  0  0  0  0  0  0  0  0  0  0
    6.5880    0.7997   17.4711 N   0  0  0  0  0  0  0  0  0  0  0  0
    5.3866    1.3894   17.5544 C   0  0  0  0  0  0  0  0  0  0  0  0
    4.9907    1.8063   16.6307 H   0  0  0  0  0  0  0  0  0  0  0  0
    4.6594    1.4614   18.7493 C   0  0  0  0  0  0  0  0  0  0  0  0
    3.6751    1.9139   18.7447 H   0  0  0  0  0  0  0  0  0  0  0  0
    5.2271    0.9592   19.9256 C   0  0  0  0  0  0  0  0  0  0  0  0
    4.6906    0.9673   20.8743 H   0  0  0  0  0  0  0  0  0  0  0  0
    8.6258    0.4202   21.1884 C   0  0  0  0  0  0  0  0  0  0  0  0
    9.1341    0.1413   20.2504 H   0  0  0  0  0  0  0  0  0  0  0  0
    8.7276    1.5163   21.2450 H   0  0  0  0  0  0  0  0  0  0  0  0
    9.3935   -0.2330   22.3381 C   0  0  0  0  0  0  0  0  0  0  0  0
   10.3695    0.2638   22.4102 H   0  0  0  0  0  0  0  0  0  0  0  0
    8.8821   -0.0383   23.2838 H   0  0  0  0  0  0  0  0  0  0  0  0
    9.6631   -1.7373   22.1621 C   0  0  0  0  0  0  0  0  0  0  0  0
   10.0463   -1.8941   21.1388 H   0  0  0  0  0  0  0  0  0  0  0  0
   10.4616   -2.0608   22.8382 H   0  0  0  0  0  0  0  0  0  0  0  0
  1  2  1  0
  2  3  1  0
  3  4  2  0
  4  5  1  0
  4  6  1  0
  6  7  1  0
  6  8  2  0
  8  9  1  0
  8 10  1  0
 10 11  1  0
 10 12  2  0
 12 13  1  0
 13 14  1  0
 14 15  1  0
 14 16  1  0
 14 17  1  0
 17 18  1  0
 17 19  1  0
 17 20  1  0
 20 21  1  0
 21 22  2  0
 22 23  1  0
 22 24  1  0
 24 25  2  0
 25 26  1  0
 25 27  1  0
 27 28  1  0
 27 29  2  0
 29 30  1  0
 20 31  1  0
 31 32  1  0
 31 33  1  0
 31 34  1  0
 34 35  1  0
 34 36  1  0
 34 37  1  0
 37 38  1  0
 37 39  1  0
 12  3  1  0
 37 13  1  0
 29 21  1  0
M  END
>  <cnnaffinity>  (1) 
-5.33724

>  <filename>  (1) 
Oc1ccccc1N1CCCN(c2cccnc2)CC1

$$$$
