
     RDKit          3D

 29 31  0  0  0  0  0  0  0  0999 V2000
    4.9454    1.4675   23.4512 H   0  0  0  0  0  0  0  0  0  0  0  0
    4.8484    1.9474   24.2923 O   0  0  0  0  0  0  0  0  0  0  0  0
    6.0991    1.8955   24.8031 C   0  0  0  0  0  0  0  0  0  0  0  0
    6.3526    2.3983   26.0691 C   0  0  0  0  0  0  0  0  0  0  0  0
    5.5445    2.8368   26.6382 H   0  0  0  0  0  0  0  0  0  0  0  0
    7.6337    2.2824   26.6079 C   0  0  0  0  0  0  0  0  0  0  0  0
    7.8152    2.6644   28.2844 Cl  0  0  0  0  0  0  0  0  0  0  0  0
    8.6914    1.7879   25.8491 C   0  0  0  0  0  0  0  0  0  0  0  0
    9.6823    1.7485   26.2832 H   0  0  0  0  0  0  0  0  0  0  0  0
    8.4527    1.2814   24.5658 C   0  0  0  0  0  0  0  0  0  0  0  0
    9.2590    0.8189   24.0031 H   0  0  0  0  0  0  0  0  0  0  0  0
    7.1456    1.2825   24.0776 C   0  0  0  0  0  0  0  0  0  0  0  0
    6.7046    0.7493   22.8530 O   0  0  0  0  0  0  0  0  0  0  0  0
    7.3796   -0.3217   22.3201 N   0  0  0  0  0  0  0  0  0  0  0  0
    7.9924   -1.2149   23.0855 N   0  0  0  0  0  0  0  0  0  0  0  0
    8.5484   -2.0688   22.2826 N   0  0  0  0  0  0  0  0  0  0  0  0
    8.2610   -1.7219   21.0085 C   0  0  0  0  0  0  0  0  0  0  0  0
    8.6827   -2.3000   20.2149 H   0  0  0  0  0  0  0  0  0  0  0  0
    7.4425   -0.6049   20.9854 C   0  0  0  0  0  0  0  0  0  0  0  0
    6.6784    0.0893   19.9226 C   0  0  0  0  0  0  0  0  0  0  0  0
    7.1718    0.1124   18.5997 C   0  0  0  0  0  0  0  0  0  0  0  0
    8.1181   -0.3761   18.3778 H   0  0  0  0  0  0  0  0  0  0  0  0
    6.5653    0.7042   17.5634 N   0  0  0  0  0  0  0  0  0  0  0  0
    5.3964    1.3163   17.8051 C   0  0  0  0  0  0  0  0  0  0  0  0
    4.9177    1.8032   16.9544 H   0  0  0  0  0  0  0  0  0  0  0  0
    4.7905    1.3326   19.0651 C   0  0  0  0  0  0  0  0  0  0  0  0
    3.8389    1.8386   19.1925 H   0  0  0  0  0  0  0  0  0  0  0  0
    5.4324    0.7118   20.1413 C   0  0  0  0  0  0  0  0  0  0  0  0
    4.9704    0.7054   21.1261 H   0  0  0  0  0  0  0  0  0  0  0  0
  1  2  1  0
  2  3  1  0
  3  4  2  0
  4  5  1  0
  4  6  1  0
  6  7  1  0
  6  8  2  0
  8  9  1  0
  8 10  1  0
 10 11  1  0
 10 12  2  0
 12 13  1  0
 13 14  1  0
 14 15  1  0
 15 16  2  0
 16 17  1  0
 17 18  1  0
 17 19  2  0
 19 20  1  0
 20 21  2  0
 21 22  1  0
 21 23  1  0
 23 24  2  0
 24 25  1  0
 24 26  1  0
 26 27  1  0
 26 28  2  0
 28 29  1  0
 12  3  1  0
 19 14  1  0
 28 20  1  0
M  END
>  <cnnaffinity>  (1) 
-4.89157

>  <filename>  (1) 
Oc1cc(Cl)ccc1On1nncc1-c1cccnc1

$$$$
