
     RDKit          3D

 34 36  0  0  0  0  0  0  0  0999 V2000
   11.4268   -5.3236   25.1064 H   0  0  0  0  0  0  0  0  0  0  0  0
   10.6982   -5.7908   25.5309 O   0  0  0  0  0  0  0  0  0  0  0  0
    9.6626   -4.8445   25.7381 C   0  0  0  0  0  0  0  0  0  0  0  0
    8.9273   -5.3427   26.3752 H   0  0  0  0  0  0  0  0  0  0  0  0
   10.0399   -3.9707   26.2912 H   0  0  0  0  0  0  0  0  0  0  0  0
    9.0113   -4.4108   24.4426 C   0  0  0  0  0  0  0  0  0  0  0  0
    7.9721   -5.1622   23.8664 C   0  0  0  0  0  0  0  0  0  0  0  0
    7.6168   -6.0522   24.3791 H   0  0  0  0  0  0  0  0  0  0  0  0
    7.4099   -4.7901   22.6413 C   0  0  0  0  0  0  0  0  0  0  0  0
    6.6013   -5.3727   22.2091 H   0  0  0  0  0  0  0  0  0  0  0  0
    7.8832   -3.6568   21.9783 C   0  0  0  0  0  0  0  0  0  0  0  0
    7.4628   -3.3480   21.0246 H   0  0  0  0  0  0  0  0  0  0  0  0
    8.9317   -2.9028   22.5313 C   0  0  0  0  0  0  0  0  0  0  0  0
    9.4090   -1.7072   21.8410 C   0  0  0  0  0  0  0  0  0  0  0  0
    8.7096   -0.7597   21.1076 C   0  0  0  0  0  0  0  0  0  0  0  0
    7.3240   -0.7173   20.9228 N   0  0  0  0  0  0  0  0  0  0  0  0
    6.7744   -1.0683   21.6975 H   0  0  0  0  0  0  0  0  0  0  0  0
    6.6635   -0.0105   19.9097 C   0  0  0  0  0  0  0  0  0  0  0  0
    7.1706    0.0614   18.5877 C   0  0  0  0  0  0  0  0  0  0  0  0
    8.1183   -0.4283   18.3737 H   0  0  0  0  0  0  0  0  0  0  0  0
    6.5594    0.6832   17.5692 N   0  0  0  0  0  0  0  0  0  0  0  0
    5.3959    1.2980   17.8365 C   0  0  0  0  0  0  0  0  0  0  0  0
    4.9129    1.7874   16.9938 H   0  0  0  0  0  0  0  0  0  0  0  0
    4.8124    1.3054   19.1088 C   0  0  0  0  0  0  0  0  0  0  0  0
    3.8820    1.8374   19.2635 H   0  0  0  0  0  0  0  0  0  0  0  0
    5.4426    0.6325   20.1636 C   0  0  0  0  0  0  0  0  0  0  0  0
    5.0192    0.6212   21.1696 H   0  0  0  0  0  0  0  0  0  0  0  0
    9.6993    0.1485   20.6720 C   0  0  0  0  0  0  0  0  0  0  0  0
    9.5359    1.0243   20.0687 H   0  0  0  0  0  0  0  0  0  0  0  0
   10.9097   -0.1781   21.1038 N   0  0  0  0  0  0  0  0  0  0  0  0
   10.7069   -1.2954   21.8133 N   0  0  0  0  0  0  0  0  0  0  0  0
   11.5007   -1.7495   22.2356 H   0  0  0  0  0  0  0  0  0  0  0  0
    9.4886   -3.2899   23.7603 C   0  0  0  0  0  0  0  0  0  0  0  0
   10.2973   -2.6973   24.1861 H   0  0  0  0  0  0  0  0  0  0  0  0
  1  2  1  0
  2  3  1  0
  3  4  1  0
  3  5  1  0
  3  6  1  0
  6  7  2  0
  7  8  1  0
  7  9  1  0
  9 10  1  0
  9 11  2  0
 11 12  1  0
 11 13  1  0
 13 14  1  0
 14 15  2  0
 15 16  1  0
 16 17  1  0
 16 18  1  0
 18 19  2  0
 19 20  1  0
 19 21  1  0
 21 22  2  0
 22 23  1  0
 22 24  1  0
 24 25  1  0
 24 26  2  0
 26 27  1  0
 15 28  1  0
 28 29  1  0
 28 30  2  0
 30 31  1  0
 31 32  1  0
 13 33  2  0
 33 34  1  0
 33  6  1  0
 31 14  1  0
 26 18  1  0
M  END
>  <cnnaffinity>  (1) 
-5.58107

>  <filename>  (1) 
OCc1cccc(-c2[nH]ncc2Nc2cccnc2)c1

$$$$
