
     RDKit          3D

 39 41  0  0  0  0  0  0  0  0999 V2000
    9.3256   -6.1306   26.6740 H   0  0  0  0  0  0  0  0  0  0  0  0
    8.8394   -6.2106   25.8405 O   0  0  0  0  0  0  0  0  0  0  0  0
    8.1838   -4.9744   25.6163 C   0  0  0  0  0  0  0  0  0  0  0  0
    7.3828   -4.8140   26.3604 H   0  0  0  0  0  0  0  0  0  0  0  0
    7.6924   -5.0798   24.6412 H   0  0  0  0  0  0  0  0  0  0  0  0
    9.1676   -3.7874   25.6277 C   0  0  0  0  0  0  0  0  0  0  0  0
    9.6478   -3.7950   26.6199 H   0  0  0  0  0  0  0  0  0  0  0  0
   10.2786   -3.9243   24.5684 C   0  0  0  0  0  0  0  0  0  0  0  0
   10.6838   -4.9429   24.5623 H   0  0  0  0  0  0  0  0  0  0  0  0
   11.0997   -3.2496   24.8371 H   0  0  0  0  0  0  0  0  0  0  0  0
    9.8083   -3.5843   23.1513 C   0  0  0  0  0  0  0  0  0  0  0  0
    9.2342   -4.4261   22.7299 H   0  0  0  0  0  0  0  0  0  0  0  0
   10.6997   -3.4487   22.5326 H   0  0  0  0  0  0  0  0  0  0  0  0
    9.0296   -2.3558   23.0839 N   0  0  0  0  0  0  0  0  0  0  0  0
    9.3514   -1.3647   22.1715 C   0  0  0  0  0  0  0  0  0  0  0  0
    8.6429   -0.5701   21.2639 C   0  0  0  0  0  0  0  0  0  0  0  0
    7.2759   -0.6198   20.9222 N   0  0  0  0  0  0  0  0  0  0  0  0
    6.6874   -1.1194   21.5757 H   0  0  0  0  0  0  0  0  0  0  0  0
    6.6254    0.0234   19.8514 C   0  0  0  0  0  0  0  0  0  0  0  0
    7.1278    0.0657   18.5234 C   0  0  0  0  0  0  0  0  0  0  0  0
    8.0488   -0.4669   18.2870 H   0  0  0  0  0  0  0  0  0  0  0  0
    6.5286    0.7012   17.5028 N   0  0  0  0  0  0  0  0  0  0  0  0
    5.3740    1.3356   17.7654 C   0  0  0  0  0  0  0  0  0  0  0  0
    4.9147    1.8678   16.9355 H   0  0  0  0  0  0  0  0  0  0  0  0
    4.7677    1.3202   19.0270 C   0  0  0  0  0  0  0  0  0  0  0  0
    3.8302    1.8432   19.1757 H   0  0  0  0  0  0  0  0  0  0  0  0
    5.3877    0.6446   20.0824 C   0  0  0  0  0  0  0  0  0  0  0  0
    4.9460    0.6218   21.0801 H   0  0  0  0  0  0  0  0  0  0  0  0
    9.6337    0.2841   20.7221 C   0  0  0  0  0  0  0  0  0  0  0  0
    9.4811    1.0639   19.9915 H   0  0  0  0  0  0  0  0  0  0  0  0
   10.8477    0.0453   21.1970 N   0  0  0  0  0  0  0  0  0  0  0  0
   10.6548   -0.9731   22.0538 N   0  0  0  0  0  0  0  0  0  0  0  0
   11.4166   -1.3455   22.5992 H   0  0  0  0  0  0  0  0  0  0  0  0
    7.9402   -2.2066   24.0362 C   0  0  0  0  0  0  0  0  0  0  0  0
    7.1317   -2.9291   23.8292 H   0  0  0  0  0  0  0  0  0  0  0  0
    7.5142   -1.2013   23.9447 H   0  0  0  0  0  0  0  0  0  0  0  0
    8.4829   -2.4166   25.4571 C   0  0  0  0  0  0  0  0  0  0  0  0
    7.6757   -2.2901   26.1862 H   0  0  0  0  0  0  0  0  0  0  0  0
    9.2230   -1.6283   25.6536 H   0  0  0  0  0  0  0  0  0  0  0  0
  1  2  1  0
  2  3  1  0
  3  4  1  0
  3  5  1  0
  3  6  1  0
  6  7  1  0
  6  8  1  0
  8  9  1  0
  8 10  1  0
  8 11  1  0
 11 12  1  0
 11 13  1  0
 11 14  1  0
 14 15  1  0
 15 16  2  0
 16 17  1  0
 17 18  1  0
 17 19  1  0
 19 20  2  0
 20 21  1  0
 20 22  1  0
 22 23  2  0
 23 24  1  0
 23 25  1  0
 25 26  1  0
 25 27  2  0
 27 28  1  0
 16 29  1  0
 29 30  1  0
 29 31  2  0
 31 32  1  0
 32 33  1  0
 14 34  1  0
 34 35  1  0
 34 36  1  0
 34 37  1  0
 37 38  1  0
 37 39  1  0
 37  6  1  0
 32 15  1  0
 27 19  1  0
M  END
>  <cnnaffinity>  (1) 
-5.43099

>  <filename>  (1) 
OCC1CCN(c2[nH]ncc2Nc2cccnc2)CC1

$$$$
