
     RDKit          3D

 38 41  0  0  0  0  0  0  0  0999 V2000
    5.2464    3.4590   30.1033 H   0  0  0  0  0  0  0  0  0  0  0  0
    6.0806    3.8132   29.7746 O   0  0  0  0  0  0  0  0  0  0  0  0
    5.9044    4.0590   28.3894 C   0  0  0  0  0  0  0  0  0  0  0  0
    5.0209    4.6958   28.2173 H   0  0  0  0  0  0  0  0  0  0  0  0
    6.7761    4.6370   28.0629 H   0  0  0  0  0  0  0  0  0  0  0  0
    5.8049    2.7778   27.5544 C   0  0  0  0  0  0  0  0  0  0  0  0
    4.9648    2.1908   27.9612 H   0  0  0  0  0  0  0  0  0  0  0  0
    5.5201    3.0816   26.0800 C   0  0  0  0  0  0  0  0  0  0  0  0
    4.5920    3.6553   25.9865 H   0  0  0  0  0  0  0  0  0  0  0  0
    6.3208    3.7126   25.6745 H   0  0  0  0  0  0  0  0  0  0  0  0
    5.4126    1.8106   25.2340 C   0  0  0  0  0  0  0  0  0  0  0  0
    5.2990    2.0746   24.1814 H   0  0  0  0  0  0  0  0  0  0  0  0
    4.5059    1.2562   25.5262 H   0  0  0  0  0  0  0  0  0  0  0  0
    6.6010    0.9570   25.4026 N   0  0  0  0  0  0  0  0  0  0  0  0
    7.0376    0.2059   24.3471 C   0  0  0  0  0  0  0  0  0  0  0  0
    6.6130    0.3785   23.1263 N   0  0  0  0  0  0  0  0  0  0  0  0
    7.2755   -0.4929   22.2977 N   0  0  0  0  0  0  0  0  0  0  0  0
    7.4018   -0.6854   20.9348 C   0  0  0  0  0  0  0  0  0  0  0  0
    6.6460    0.0131   19.8968 C   0  0  0  0  0  0  0  0  0  0  0  0
    7.1714    0.0526   18.5910 C   0  0  0  0  0  0  0  0  0  0  0  0
    8.1194   -0.4328   18.3685 H   0  0  0  0  0  0  0  0  0  0  0  0
    6.5668    0.6748   17.5766 N   0  0  0  0  0  0  0  0  0  0  0  0
    5.4031    1.2901   17.8400 C   0  0  0  0  0  0  0  0  0  0  0  0
    4.9228    1.7810   16.9972 H   0  0  0  0  0  0  0  0  0  0  0  0
    4.8042    1.3071   19.1048 C   0  0  0  0  0  0  0  0  0  0  0  0
    3.8750    1.8426   19.2544 H   0  0  0  0  0  0  0  0  0  0  0  0
    5.4283    0.6534   20.1631 C   0  0  0  0  0  0  0  0  0  0  0  0
    5.0109    0.6401   21.1717 H   0  0  0  0  0  0  0  0  0  0  0  0
    8.3198   -1.5943   20.7189 N   0  0  0  0  0  0  0  0  0  0  0  0
    8.8236   -2.0243   21.9272 N   0  0  0  0  0  0  0  0  0  0  0  0
    8.1992   -1.3315   22.8389 C   0  0  0  0  0  0  0  0  0  0  0  0
    8.2650   -1.0740   24.5619 S   0  0  0  0  0  0  0  0  0  0  0  0
    6.9750    0.6531   26.7948 C   0  0  0  0  0  0  0  0  0  0  0  0
    7.9373    0.1326   26.8267 H   0  0  0  0  0  0  0  0  0  0  0  0
    6.2370   -0.0270   27.2485 H   0  0  0  0  0  0  0  0  0  0  0  0
    7.0756    1.9221   27.6361 C   0  0  0  0  0  0  0  0  0  0  0  0
    7.2775    1.6580   28.6780 H   0  0  0  0  0  0  0  0  0  0  0  0
    7.9388    2.5080   27.2981 H   0  0  0  0  0  0  0  0  0  0  0  0
  1  2  1  0
  2  3  1  0
  3  4  1  0
  3  5  1  0
  3  6  1  0
  6  7  1  0
  6  8  1  0
  8  9  1  0
  8 10  1  0
  8 11  1  0
 11 12  1  0
 11 13  1  0
 11 14  1  0
 14 15  1  0
 15 16  2  0
 16 17  1  0
 17 18  1  0
 18 19  1  0
 19 20  2  0
 20 21  1  0
 20 22  1  0
 22 23  2  0
 23 24  1  0
 23 25  1  0
 25 26  1  0
 25 27  2  0
 27 28  1  0
 18 29  2  0
 29 30  1  0
 30 31  2  0
 31 32  1  0
 14 33  1  0
 33 34  1  0
 33 35  1  0
 33 36  1  0
 36 37  1  0
 36 38  1  0
 36  6  1  0
 32 15  1  0
 31 17  1  0
 27 19  1  0
M  END
>  <cnnaffinity>  (1) 
-5.17637

>  <filename>  (1) 
OCC1CCN(c2nn3c(-c4cccnc4)nnc3s2)CC1

$$$$
