
     RDKit          3D

 40 43  0  0  0  0  0  0  0  0999 V2000
    6.2096    4.8857   26.4833 H   0  0  0  0  0  0  0  0  0  0  0  0
    6.9401    4.3311   26.7838 O   0  0  0  0  0  0  0  0  0  0  0  0
    7.7699    4.1201   25.6556 C   0  0  0  0  0  0  0  0  0  0  0  0
    8.6976    3.6696   26.0245 H   0  0  0  0  0  0  0  0  0  0  0  0
    8.0498    5.0800   25.1940 H   0  0  0  0  0  0  0  0  0  0  0  0
    7.1425    3.1951   24.6132 C   0  0  0  0  0  0  0  0  0  0  0  0
    6.1824    3.6454   24.3140 H   0  0  0  0  0  0  0  0  0  0  0  0
    6.8511    1.7958   25.1819 C   0  0  0  0  0  0  0  0  0  0  0  0
    6.1812    1.8674   26.0429 H   0  0  0  0  0  0  0  0  0  0  0  0
    7.7855    1.3536   25.5508 H   0  0  0  0  0  0  0  0  0  0  0  0
    6.2582    0.8700   24.1242 C   0  0  0  0  0  0  0  0  0  0  0  0
    5.2366    1.2129   23.8812 H   0  0  0  0  0  0  0  0  0  0  0  0
    6.1489   -0.1481   24.5067 H   0  0  0  0  0  0  0  0  0  0  0  0
    7.1116    0.8609   22.9377 N   0  0  0  0  0  0  0  0  0  0  0  0
    7.4417   -0.2960   22.2881 C   0  0  0  0  0  0  0  0  0  0  0  0
    7.3687   -0.6866   20.9426 C   0  0  0  0  0  0  0  0  0  0  0  0
    6.6483    0.0044   19.8913 C   0  0  0  0  0  0  0  0  0  0  0  0
    7.1712    0.0459   18.5908 C   0  0  0  0  0  0  0  0  0  0  0  0
    8.1216   -0.4356   18.3718 H   0  0  0  0  0  0  0  0  0  0  0  0
    6.5713    0.6773   17.5800 N   0  0  0  0  0  0  0  0  0  0  0  0
    5.4066    1.2925   17.8430 C   0  0  0  0  0  0  0  0  0  0  0  0
    4.9208    1.7778   17.0017 H   0  0  0  0  0  0  0  0  0  0  0  0
    4.8022    1.3120   19.1059 C   0  0  0  0  0  0  0  0  0  0  0  0
    3.8714    1.8438   19.2610 H   0  0  0  0  0  0  0  0  0  0  0  0
    5.4336    0.6564   20.1549 C   0  0  0  0  0  0  0  0  0  0  0  0
    5.0028    0.6339   21.1608 H   0  0  0  0  0  0  0  0  0  0  0  0
    8.0542   -1.8552   20.7162 N   0  0  0  0  0  0  0  0  0  0  0  0
    8.4874   -2.1831   21.9009 C   0  0  0  0  0  0  0  0  0  0  0  0
    9.4845   -3.4405   22.5639 S   0  0  0  0  0  0  0  0  0  0  0  0
    9.4773   -2.6864   24.1320 C   0  0  0  0  0  0  0  0  0  0  0  0
   10.0409   -3.1539   24.9281 H   0  0  0  0  0  0  0  0  0  0  0  0
    8.7289   -1.5735   24.1484 C   0  0  0  0  0  0  0  0  0  0  0  0
    8.5607   -0.9040   24.9824 H   0  0  0  0  0  0  0  0  0  0  0  0
    8.1482   -1.3141   22.9034 N   0  0  0  0  0  0  0  0  0  0  0  0
    7.3990    2.1601   22.3225 C   0  0  0  0  0  0  0  0  0  0  0  0
    8.0833    1.9942   21.4867 H   0  0  0  0  0  0  0  0  0  0  0  0
    6.4953    2.6283   21.9005 H   0  0  0  0  0  0  0  0  0  0  0  0
    8.0254    3.0861   23.3625 C   0  0  0  0  0  0  0  0  0  0  0  0
    8.1953    4.0738   22.9202 H   0  0  0  0  0  0  0  0  0  0  0  0
    9.0101    2.6876   23.6404 H   0  0  0  0  0  0  0  0  0  0  0  0
  1  2  1  0
  2  3  1  0
  3  4  1  0
  3  5  1  0
  3  6  1  0
  6  7  1  0
  6  8  1  0
  8  9  1  0
  8 10  1  0
  8 11  1  0
 11 12  1  0
 11 13  1  0
 11 14  1  0
 14 15  1  0
 15 16  2  0
 16 17  1  0
 17 18  2  0
 18 19  1  0
 18 20  1  0
 20 21  2  0
 21 22  1  0
 21 23  1  0
 23 24  1  0
 23 25  2  0
 25 26  1  0
 16 27  1  0
 27 28  2  0
 28 29  1  0
 29 30  1  0
 30 31  1  0
 30 32  2  0
 32 33  1  0
 32 34  1  0
 14 35  1  0
 35 36  1  0
 35 37  1  0
 35 38  1  0
 38 39  1  0
 38 40  1  0
 38  6  1  0
 34 15  1  0
 25 17  1  0
 34 28  1  0
M  END
>  <cnnaffinity>  (1) 
-5.48018

>  <filename>  (1) 
OCC1CCN(c2c(-c3cccnc3)nc3sccn23)CC1

$$$$
