
     RDKit          3D

 33 34  0  0  0  0  0  0  0  0999 V2000
    6.2037   -4.4545   18.9254 H   0  0  0  0  0  0  0  0  0  0  0  0
    5.4330   -3.8946   19.0865 O   0  0  0  0  0  0  0  0  0  0  0  0
    5.9563   -2.6215   19.4335 C   0  0  0  0  0  0  0  0  0  0  0  0
    6.5346   -2.2085   18.5909 H   0  0  0  0  0  0  0  0  0  0  0  0
    5.1096   -1.9403   19.5334 H   0  0  0  0  0  0  0  0  0  0  0  0
    6.7460   -2.7077   20.7552 C   0  0  0  0  0  0  0  0  0  0  0  0
    6.0245   -2.6382   21.5807 H   0  0  0  0  0  0  0  0  0  0  0  0
    7.1512   -3.7319   20.8170 H   0  0  0  0  0  0  0  0  0  0  0  0
    7.9274   -1.7370   20.9548 C   0  0  0  0  0  0  0  0  0  0  0  0
    8.5463   -2.1346   21.7765 H   0  0  0  0  0  0  0  0  0  0  0  0
    8.5636   -1.7709   20.0625 H   0  0  0  0  0  0  0  0  0  0  0  0
    7.6396   -0.2322   21.2399 C   0  0  1  0  0  0  0  0  0  0  0  0
    6.8495    0.4053   20.0841 C   0  0  0  0  0  0  0  0  0  0  0  0
    7.4199    0.4412   18.7902 C   0  0  0  0  0  0  0  0  0  0  0  0
    8.4519    0.1186   18.6246 H   0  0  0  0  0  0  0  0  0  0  0  0
    6.7902    0.8736   17.6889 N   0  0  0  0  0  0  0  0  0  0  0  0
    5.5504    1.3628   17.8427 C   0  0  0  0  0  0  0  0  0  0  0  0
    5.0690    1.7352   16.9454 H   0  0  0  0  0  0  0  0  0  0  0  0
    4.8966    1.4189   19.0782 C   0  0  0  0  0  0  0  0  0  0  0  0
    3.8968    1.8343   19.1378 H   0  0  0  0  0  0  0  0  0  0  0  0
    5.5600    0.9480   20.2112 C   0  0  0  0  0  0  0  0  0  0  0  0
    5.0805    1.0174   21.1876 H   0  0  0  0  0  0  0  0  0  0  0  0
    7.0135   -0.0308   22.6489 C   0  0  0  0  0  0  0  0  0  0  0  0
    5.9309   -0.1462   22.6700 H   0  0  0  0  0  0  0  0  0  0  0  0
    7.4204   -0.8018   23.3180 H   0  0  0  0  0  0  0  0  0  0  0  0
    7.4201    1.2820   23.1525 N   0  0  0  0  0  0  0  0  0  0  0  0
    6.6686    1.9506   23.0393 H   0  0  0  0  0  0  0  0  0  0  0  0
    8.6020    1.7178   22.3977 C   0  0  0  0  0  0  0  0  0  0  0  0
    9.4221    1.9743   23.0792 H   0  0  0  0  0  0  0  0  0  0  0  0
    8.3865    2.6209   21.8150 H   0  0  0  0  0  0  0  0  0  0  0  0
    8.9728    0.5440   21.4832 C   0  0  0  0  0  0  0  0  0  0  0  0
    9.4601    0.8773   20.5650 H   0  0  0  0  0  0  0  0  0  0  0  0
    9.6898   -0.1009   22.0054 H   0  0  0  0  0  0  0  0  0  0  0  0
  1  2  1  0
  2  3  1  0
  3  4  1  0
  3  5  1  0
  3  6  1  0
  6  7  1  0
  6  8  1  0
  6  9  1  0
  9 10  1  0
  9 11  1  0
 12  9  1  6
 12 13  1  0
 13 14  2  0
 14 15  1  0
 14 16  1  0
 16 17  2  0
 17 18  1  0
 17 19  1  0
 19 20  1  0
 19 21  2  0
 21 22  1  0
 12 23  1  0
 23 24  1  0
 23 25  1  0
 23 26  1  0
 26 27  1  0
 26 28  1  0
 28 29  1  0
 28 30  1  0
 28 31  1  0
 31 32  1  0
 31 33  1  0
 31 12  1  0
 21 13  1  0
M  END
>  <cnnaffinity>  (1) 
-4.48521

>  <filename>  (1) 
OCCC[C@]1(c2cccnc2)CCNC1

$$$$
