
     RDKit          3D

 34 36  0  0  0  0  0  0  0  0999 V2000
    7.1173   -3.2115   25.3033 H   0  0  0  0  0  0  0  0  0  0  0  0
    6.7172   -2.6738   26.0011 O   0  0  0  0  0  0  0  0  0  0  0  0
    7.6107   -2.6990   27.1102 C   0  0  0  0  0  0  0  0  0  0  0  0
    7.2304   -1.9511   27.8126 H   0  0  0  0  0  0  0  0  0  0  0  0
    7.5482   -3.6747   27.6095 H   0  0  0  0  0  0  0  0  0  0  0  0
    9.0384   -2.3407   26.7014 C   0  0  0  0  0  0  0  0  0  0  0  0
    9.7603   -2.5439   27.4881 H   0  0  0  0  0  0  0  0  0  0  0  0
    9.3302   -3.0004   25.8769 H   0  0  0  0  0  0  0  0  0  0  0  0
    9.1846   -0.8737   26.2824 C   0  0  0  0  0  0  0  0  0  0  0  0
    8.8403   -0.2103   27.0869 H   0  0  0  0  0  0  0  0  0  0  0  0
   10.2254   -0.5859   26.0797 H   0  0  0  0  0  0  0  0  0  0  0  0
    8.3655   -0.5626   25.1151 N   0  0  0  0  0  0  0  0  0  0  0  0
    7.4537   -1.0043   25.2711 H   0  0  0  0  0  0  0  0  0  0  0  0
    8.8191   -1.1056   23.9142 N   0  0  0  0  0  0  0  0  0  0  0  0
   10.0033   -1.7799   23.6452 C   0  0  0  0  0  0  0  0  0  0  0  0
   10.7035   -1.9744   24.4405 H   0  0  0  0  0  0  0  0  0  0  0  0
   10.0538   -2.0556   22.3202 C   0  0  0  0  0  0  0  0  0  0  0  0
   10.7435   -2.5794   21.6795 H   0  0  0  0  0  0  0  0  0  0  0  0
    8.9138   -1.4951   21.7803 N   0  0  0  0  0  0  0  0  0  0  0  0
    8.4438   -1.3093   20.5336 N   0  0  0  0  0  0  0  0  0  0  0  0
    7.3021   -0.6317   20.7493 C   0  0  0  0  0  0  0  0  0  0  0  0
    6.5351   -0.0738   19.6249 C   0  0  0  0  0  0  0  0  0  0  0  0
    7.0798   -0.0562   18.3283 C   0  0  0  0  0  0  0  0  0  0  0  0
    7.9969   -0.5978   18.1081 H   0  0  0  0  0  0  0  0  0  0  0  0
    6.5473    0.6258   17.3100 N   0  0  0  0  0  0  0  0  0  0  0  0
    5.4196    1.3123   17.5457 C   0  0  0  0  0  0  0  0  0  0  0  0
    5.0312    1.8955   16.7137 H   0  0  0  0  0  0  0  0  0  0  0  0
    4.7597    1.3095   18.7773 C   0  0  0  0  0  0  0  0  0  0  0  0
    3.8598    1.8987   18.9133 H   0  0  0  0  0  0  0  0  0  0  0  0
    5.3157    0.5923   19.8317 C   0  0  0  0  0  0  0  0  0  0  0  0
    4.8226    0.5759   20.8029 H   0  0  0  0  0  0  0  0  0  0  0  0
    7.0248   -0.4097   22.1194 C   0  0  0  0  0  0  0  0  0  0  0  0
    6.1609    0.0355   22.5840 H   0  0  0  0  0  0  0  0  0  0  0  0
    8.1487   -0.9393   22.7423 C   0  0  0  0  0  0  0  0  0  0  0  0
  1  2  1  0
  2  3  1  0
  3  4  1  0
  3  5  1  0
  3  6  1  0
  6  7  1  0
  6  8  1  0
  6  9  1  0
  9 10  1  0
  9 11  1  0
  9 12  1  0
 12 13  1  0
 12 14  1  0
 14 15  1  0
 15 16  1  0
 15 17  2  0
 17 18  1  0
 17 19  1  0
 19 20  1  0
 20 21  2  0
 21 22  1  0
 22 23  2  0
 23 24  1  0
 23 25  1  0
 25 26  2  0
 26 27  1  0
 26 28  1  0
 28 29  1  0
 28 30  2  0
 30 31  1  0
 21 32  1  0
 32 33  1  0
 32 34  2  0
 34 14  1  0
 34 19  1  0
 30 22  1  0
M  END
>  <cnnaffinity>  (1) 
-5.08183

>  <filename>  (1) 
OCCCNn1ccn2nc(-c3cccnc3)cc12

$$$$
