
     RDKit          3D

 42 45  0  0  0  0  0  0  0  0999 V2000
    4.3193    6.6314   25.5131 H   0  0  0  0  0  0  0  0  0  0  0  0
    3.8930    5.8366   25.8606 O   0  0  0  0  0  0  0  0  0  0  0  0
    4.7649    4.7301   25.6681 C   0  0  0  0  0  0  0  0  0  0  0  0
    5.7865    4.9287   26.0241 H   0  0  0  0  0  0  0  0  0  0  0  0
    4.3565    3.9179   26.2815 H   0  0  0  0  0  0  0  0  0  0  0  0
    4.8328    4.2867   24.2015 C   0  0  0  0  0  0  0  0  0  0  0  0
    3.8122    4.0323   23.8540 H   0  0  0  0  0  0  0  0  0  0  0  0
    5.1522    5.1538   23.6040 H   0  0  0  0  0  0  0  0  0  0  0  0
    5.7974    3.2004   24.0041 N   0  0  0  0  0  0  0  0  0  0  0  0
    5.2328    1.8741   24.2993 C   0  0  0  0  0  0  0  0  0  0  0  0
    4.8008    1.8830   25.3046 H   0  0  0  0  0  0  0  0  0  0  0  0
    4.4182    1.6198   23.5919 H   0  0  0  0  0  0  0  0  0  0  0  0
    6.3038    0.7794   24.2220 C   0  0  0  0  0  0  0  0  0  0  0  0
    5.8429   -0.2057   24.3338 H   0  0  0  0  0  0  0  0  0  0  0  0
    7.0244    0.9316   25.0442 H   0  0  0  0  0  0  0  0  0  0  0  0
    6.9524    0.8158   22.9181 N   0  0  0  0  0  0  0  0  0  0  0  0
    7.4019   -0.3091   22.2925 C   0  0  0  0  0  0  0  0  0  0  0  0
    7.3882   -0.6826   20.9431 C   0  0  0  0  0  0  0  0  0  0  0  0
    6.6497    0.0039   19.8891 C   0  0  0  0  0  0  0  0  0  0  0  0
    7.1604    0.0364   18.5833 C   0  0  0  0  0  0  0  0  0  0  0  0
    8.1101   -0.4428   18.3551 H   0  0  0  0  0  0  0  0  0  0  0  0
    6.5591    0.6675   17.5737 N   0  0  0  0  0  0  0  0  0  0  0  0
    5.4024    1.2959   17.8317 C   0  0  0  0  0  0  0  0  0  0  0  0
    4.9387    1.7968   16.9856 H   0  0  0  0  0  0  0  0  0  0  0  0
    4.8037    1.3199   19.0959 C   0  0  0  0  0  0  0  0  0  0  0  0
    3.8682    1.8449   19.2359 H   0  0  0  0  0  0  0  0  0  0  0  0
    5.4350    0.6676   20.1478 C   0  0  0  0  0  0  0  0  0  0  0  0
    5.0068    0.6530   21.1546 H   0  0  0  0  0  0  0  0  0  0  0  0
    8.1395   -1.8154   20.7302 N   0  0  0  0  0  0  0  0  0  0  0  0
    8.5397   -2.1372   21.9269 C   0  0  0  0  0  0  0  0  0  0  0  0
    9.5417   -3.3781   22.6075 S   0  0  0  0  0  0  0  0  0  0  0  0
    9.4764   -2.6332   24.1850 C   0  0  0  0  0  0  0  0  0  0  0  0
   10.0454   -3.1065   24.9752 H   0  0  0  0  0  0  0  0  0  0  0  0
    8.6927   -1.5400   24.1917 C   0  0  0  0  0  0  0  0  0  0  0  0
    8.4674   -0.8786   25.0198 H   0  0  0  0  0  0  0  0  0  0  0  0
    8.1406   -1.2908   22.9276 N   0  0  0  0  0  0  0  0  0  0  0  0
    7.4540    2.1335   22.5085 C   0  0  0  0  0  0  0  0  0  0  0  0
    8.3330    2.4204   23.1083 H   0  0  0  0  0  0  0  0  0  0  0  0
    7.7568    2.0575   21.4612 H   0  0  0  0  0  0  0  0  0  0  0  0
    6.3660    3.1961   22.6485 C   0  0  0  0  0  0  0  0  0  0  0  0
    6.8115    4.1798   22.4566 H   0  0  0  0  0  0  0  0  0  0  0  0
    5.6023    3.0154   21.8627 H   0  0  0  0  0  0  0  0  0  0  0  0
  1  2  1  0
  2  3  1  0
  3  4  1  0
  3  5  1  0
  3  6  1  0
  6  7  1  0
  6  8  1  0
  6  9  1  0
  9 10  1  0
 10 11  1  0
 10 12  1  0
 10 13  1  0
 13 14  1  0
 13 15  1  0
 13 16  1  0
 16 17  1  0
 17 18  2  0
 18 19  1  0
 19 20  2  0
 20 21  1  0
 20 22  1  0
 22 23  2  0
 23 24  1  0
 23 25  1  0
 25 26  1  0
 25 27  2  0
 27 28  1  0
 18 29  1  0
 29 30  2  0
 30 31  1  0
 31 32  1  0
 32 33  1  0
 32 34  2  0
 34 35  1  0
 34 36  1  0
 16 37  1  0
 37 38  1  0
 37 39  1  0
 37 40  1  0
 40 41  1  0
 40 42  1  0
 40  9  1  0
 36 17  1  0
 27 19  1  0
 36 30  1  0
M  END
>  <cnnaffinity>  (1) 
-5.34179

>  <filename>  (1) 
OCCN1CCN(c2c(-c3cccnc3)nc3sccn23)CC1

$$$$
