
     RDKit          3D

 41 43  0  0  0  0  0  0  0  0999 V2000
    6.4604    3.3566   29.3064 H   0  0  0  0  0  0  0  0  0  0  0  0
    7.3926    3.1820   29.4989 O   0  0  0  0  0  0  0  0  0  0  0  0
    7.5647    1.7774   29.6348 C   0  0  0  0  0  0  0  0  0  0  0  0
    8.6343    1.5940   29.5119 H   0  0  0  0  0  0  0  0  0  0  0  0
    7.2950    1.4564   30.6560 H   0  0  0  0  0  0  0  0  0  0  0  0
    6.7499    0.8892   28.6791 C   0  0  0  0  0  0  0  0  0  0  0  0
    5.7361    1.3166   28.6932 H   0  0  0  0  0  0  0  0  0  0  0  0
    6.6577   -0.1188   29.1263 H   0  0  0  0  0  0  0  0  0  0  0  0
    7.1793    0.8118   27.2842 N   0  0  0  0  0  0  0  0  0  0  0  0
    8.3281   -0.0805   27.0269 C   0  0  0  0  0  0  0  0  0  0  0  0
    9.1746    0.2083   27.6612 H   0  0  0  0  0  0  0  0  0  0  0  0
    8.0852   -1.1333   27.2668 H   0  0  0  0  0  0  0  0  0  0  0  0
    8.7572    0.0126   25.5481 C   0  0  0  0  0  0  0  0  0  0  0  0
    9.6047   -0.6525   25.3673 H   0  0  0  0  0  0  0  0  0  0  0  0
    9.1276    1.0374   25.3853 H   0  0  0  0  0  0  0  0  0  0  0  0
    7.6380   -0.2940   24.6353 N   0  0  0  0  0  0  0  0  0  0  0  0
    7.8332   -0.7683   23.3501 C   0  0  0  0  0  0  0  0  0  0  0  0
    7.1576   -0.1525   22.3702 N   0  0  0  0  0  0  0  0  0  0  0  0
    7.3660   -0.5531   21.1162 C   0  0  0  0  0  0  0  0  0  0  0  0
    6.6106    0.1565   20.0427 C   0  0  0  0  0  0  0  0  0  0  0  0
    7.1779    0.2004   18.7605 C   0  0  0  0  0  0  0  0  0  0  0  0
    8.1609   -0.2297   18.5777 H   0  0  0  0  0  0  0  0  0  0  0  0
    6.6044    0.7539   17.6909 N   0  0  0  0  0  0  0  0  0  0  0  0
    5.4006    1.3169   17.8670 C   0  0  0  0  0  0  0  0  0  0  0  0
    4.9463    1.7437   16.9776 H   0  0  0  0  0  0  0  0  0  0  0  0
    4.7527    1.3718   19.1057 C   0  0  0  0  0  0  0  0  0  0  0  0
    3.7942    1.8744   19.1722 H   0  0  0  0  0  0  0  0  0  0  0  0
    5.3686    0.8004   20.2217 C   0  0  0  0  0  0  0  0  0  0  0  0
    4.9001    0.8677   21.2064 H   0  0  0  0  0  0  0  0  0  0  0  0
    8.2499   -1.5977   20.8115 C   0  0  0  0  0  0  0  0  0  0  0  0
    8.4735   -1.8017   19.7819 H   0  0  0  0  0  0  0  0  0  0  0  0
    8.8685   -2.3160   21.8378 C   0  0  0  0  0  0  0  0  0  0  0  0
    9.5166   -3.1631   21.6089 H   0  0  0  0  0  0  0  0  0  0  0  0
    8.6654   -1.8923   23.1448 C   0  0  0  0  0  0  0  0  0  0  0  0
    9.0875   -2.4060   24.0048 H   0  0  0  0  0  0  0  0  0  0  0  0
    6.4758    0.5481   24.9332 C   0  0  0  0  0  0  0  0  0  0  0  0
    5.6386    0.2711   24.2914 H   0  0  0  0  0  0  0  0  0  0  0  0
    6.6896    1.6090   24.7352 H   0  0  0  0  0  0  0  0  0  0  0  0
    6.0749    0.4042   26.4013 C   0  0  0  0  0  0  0  0  0  0  0  0
    5.7767   -0.6471   26.5865 H   0  0  0  0  0  0  0  0  0  0  0  0
    5.2003    1.0399   26.5909 H   0  0  0  0  0  0  0  0  0  0  0  0
  1  2  1  0
  2  3  1  0
  3  4  1  0
  3  5  1  0
  3  6  1  0
  6  7  1  0
  6  8  1  0
  6  9  1  0
  9 10  1  0
 10 11  1  0
 10 12  1  0
 10 13  1  0
 13 14  1  0
 13 15  1  0
 13 16  1  0
 16 17  1  0
 17 18  2  0
 18 19  1  0
 19 20  1  0
 20 21  2  0
 21 22  1  0
 21 23  1  0
 23 24  2  0
 24 25  1  0
 24 26  1  0
 26 27  1  0
 26 28  2  0
 28 29  1  0
 19 30  2  0
 30 31  1  0
 30 32  1  0
 32 33  1  0
 32 34  2  0
 34 35  1  0
 16 36  1  0
 36 37  1  0
 36 38  1  0
 36 39  1  0
 39 40  1  0
 39 41  1  0
 39  9  1  0
 34 17  1  0
 28 20  1  0
M  END
>  <cnnaffinity>  (1) 
-4.89209

>  <filename>  (1) 
OCCN1CCN(c2cccc(-c3cccnc3)n2)CC1

$$$$
