
     RDKit          3D

 43 46  0  0  0  0  0  0  0  0999 V2000
    5.7965    3.2538   29.2869 H   0  0  0  0  0  0  0  0  0  0  0  0
    6.7580    3.2594   29.2004 O   0  0  0  0  0  0  0  0  0  0  0  0
    7.2067    1.9092   29.2048 C   0  0  0  0  0  0  0  0  0  0  0  0
    6.7906    1.3396   30.0471 H   0  0  0  0  0  0  0  0  0  0  0  0
    8.2897    1.9537   29.3429 H   0  0  0  0  0  0  0  0  0  0  0  0
    6.8925    1.1830   27.8920 C   0  0  0  0  0  0  0  0  0  0  0  0
    7.3533    1.7546   27.0675 H   0  0  0  0  0  0  0  0  0  0  0  0
    5.8084    1.2377   27.7313 H   0  0  0  0  0  0  0  0  0  0  0  0
    7.2852   -0.2321   27.9271 N   0  0  0  0  0  0  0  0  0  0  0  0
    8.7178   -0.4976   27.6794 C   0  0  0  0  0  0  0  0  0  0  0  0
    9.3331    0.0720   28.3716 H   0  0  0  0  0  0  0  0  0  0  0  0
    8.8977   -1.5508   27.9201 H   0  0  0  0  0  0  0  0  0  0  0  0
    9.1207   -0.2684   26.2149 C   0  0  0  0  0  0  0  0  0  0  0  0
   10.2023   -0.3597   26.0821 H   0  0  0  0  0  0  0  0  0  0  0  0
    8.8365    0.7591   25.9342 H   0  0  0  0  0  0  0  0  0  0  0  0
    8.3888   -1.2721   25.3931 N   0  0  0  0  0  0  0  0  0  0  0  0
    8.8304   -1.3859   24.0764 N   0  0  0  0  0  0  0  0  0  0  0  0
    9.9623   -2.1215   23.7536 C   0  0  0  0  0  0  0  0  0  0  0  0
   10.5383   -2.5421   24.5602 H   0  0  0  0  0  0  0  0  0  0  0  0
   10.0867   -2.1932   22.4071 C   0  0  0  0  0  0  0  0  0  0  0  0
   10.7981   -2.6570   21.7485 H   0  0  0  0  0  0  0  0  0  0  0  0
    8.9963   -1.5035   21.8965 N   0  0  0  0  0  0  0  0  0  0  0  0
    8.5561   -1.2338   20.6509 N   0  0  0  0  0  0  0  0  0  0  0  0
    7.4059   -0.5787   20.8806 C   0  0  0  0  0  0  0  0  0  0  0  0
    6.6196   -0.0071   19.7691 C   0  0  0  0  0  0  0  0  0  0  0  0
    7.1276   -0.0038   18.4572 C   0  0  0  0  0  0  0  0  0  0  0  0
    8.0474   -0.5369   18.2230 H   0  0  0  0  0  0  0  0  0  0  0  0
    6.5483    0.6407   17.4392 N   0  0  0  0  0  0  0  0  0  0  0  0
    5.4107    1.3070   17.6871 C   0  0  0  0  0  0  0  0  0  0  0  0
    4.9832    1.8549   16.8501 H   0  0  0  0  0  0  0  0  0  0  0  0
    4.7833    1.3132   18.9353 C   0  0  0  0  0  0  0  0  0  0  0  0
    3.8589    1.8630   19.0724 H   0  0  0  0  0  0  0  0  0  0  0  0
    5.3861    0.6308   19.9879 C   0  0  0  0  0  0  0  0  0  0  0  0
    4.9059    0.5978   20.9660 H   0  0  0  0  0  0  0  0  0  0  0  0
    7.1073   -0.4500   22.2602 C   0  0  0  0  0  0  0  0  0  0  0  0
    6.2182   -0.0477   22.7164 H   0  0  0  0  0  0  0  0  0  0  0  0
    8.2064   -1.0369   22.8840 C   0  0  0  0  0  0  0  0  0  0  0  0
    6.9251   -1.0331   25.5513 C   0  0  0  0  0  0  0  0  0  0  0  0
    6.6423   -0.0280   25.1811 H   0  0  0  0  0  0  0  0  0  0  0  0
    6.3583   -1.7697   24.9739 H   0  0  0  0  0  0  0  0  0  0  0  0
    6.5163   -1.1165   27.0375 C   0  0  0  0  0  0  0  0  0  0  0  0
    6.6614   -2.1453   27.3937 H   0  0  0  0  0  0  0  0  0  0  0  0
    5.4480   -0.8845   27.1405 H   0  0  0  0  0  0  0  0  0  0  0  0
  1  2  1  0
  2  3  1  0
  3  4  1  0
  3  5  1  0
  3  6  1  0
  6  7  1  0
  6  8  1  0
  6  9  1  0
  9 10  1  0
 10 11  1  0
 10 12  1  0
 10 13  1  0
 13 14  1  0
 13 15  1  0
 13 16  1  0
 16 17  1  0
 17 18  1  0
 18 19  1  0
 18 20  2  0
 20 21  1  0
 20 22  1  0
 22 23  1  0
 23 24  2  0
 24 25  1  0
 25 26  2  0
 26 27  1  0
 26 28  1  0
 28 29  2  0
 29 30  1  0
 29 31  1  0
 31 32  1  0
 31 33  2  0
 33 34  1  0
 24 35  1  0
 35 36  1  0
 35 37  2  0
 16 38  1  0
 38 39  1  0
 38 40  1  0
 38 41  1  0
 41 42  1  0
 41 43  1  0
 41  9  1  0
 37 17  1  0
 37 22  1  0
 33 25  1  0
M  END
>  <cnnaffinity>  (1) 
-4.90712

>  <filename>  (1) 
OCCN1CCN(n2ccn3nc(-c4cccnc4)cc23)CC1

$$$$
