
     RDKit          3D

 30 31  0  0  0  0  0  0  0  0999 V2000
    7.8533   -2.5128   20.4051 H   0  0  0  0  0  0  0  0  0  0  0  0
    8.2377   -1.6323   20.5675 O   0  0  0  0  0  0  0  0  0  0  0  0
    7.1485   -0.8388   20.9656 N   0  0  0  0  0  0  0  0  0  0  0  0
    6.6188   -0.0552   19.9166 C   0  0  0  0  0  0  0  0  0  0  0  0
    7.1682   -0.0016   18.6061 C   0  0  0  0  0  0  0  0  0  0  0  0
    8.1155   -0.4910   18.3847 H   0  0  0  0  0  0  0  0  0  0  0  0
    6.5854    0.6466   17.5892 N   0  0  0  0  0  0  0  0  0  0  0  0
    5.4268    1.2894   17.8280 C   0  0  0  0  0  0  0  0  0  0  0  0
    4.9760    1.7987   16.9817 H   0  0  0  0  0  0  0  0  0  0  0  0
    4.8104    1.3220   19.0826 C   0  0  0  0  0  0  0  0  0  0  0  0
    3.8731    1.8617   19.2185 H   0  0  0  0  0  0  0  0  0  0  0  0
    5.4245    0.6554   20.1422 C   0  0  0  0  0  0  0  0  0  0  0  0
    5.0002    0.6664   21.1418 H   0  0  0  0  0  0  0  0  0  0  0  0
    7.2805   -0.2976   22.3357 C   0  0  0  0  0  0  0  0  0  0  0  0
    6.3008   -0.3735   22.8315 H   0  0  0  0  0  0  0  0  0  0  0  0
    7.9279   -1.0066   22.8620 H   0  0  0  0  0  0  0  0  0  0  0  0
    7.7984    1.1371   22.5010 C   0  0  0  0  0  0  0  0  0  0  0  0
    9.1263    1.4758   22.2125 C   0  0  0  0  0  0  0  0  0  0  0  0
    9.8082    0.7043   21.8752 H   0  0  0  0  0  0  0  0  0  0  0  0
    9.5897    2.7867   22.3556 C   0  0  0  0  0  0  0  0  0  0  0  0
   10.6288    3.0099   22.1292 H   0  0  0  0  0  0  0  0  0  0  0  0
    8.7280    3.8017   22.7984 C   0  0  0  0  0  0  0  0  0  0  0  0
    9.2041    5.2383   22.9544 C   0  0  0  0  0  0  0  0  0  0  0  0
    8.9475    5.9993   21.8735 F   0  0  0  0  0  0  0  0  0  0  0  0
   10.5297    5.3229   23.1784 F   0  0  0  0  0  0  0  0  0  0  0  0
    8.6029    5.8538   23.9948 F   0  0  0  0  0  0  0  0  0  0  0  0
    7.3986    3.4719   23.0985 C   0  0  0  0  0  0  0  0  0  0  0  0
    6.7111    4.2318   23.4561 H   0  0  0  0  0  0  0  0  0  0  0  0
    6.9502    2.1588   22.9488 C   0  0  0  0  0  0  0  0  0  0  0  0
    5.9178    1.9346   23.1912 H   0  0  0  0  0  0  0  0  0  0  0  0
  1  2  1  0
  2  3  1  0
  3  4  1  0
  4  5  2  0
  5  6  1  0
  5  7  1  0
  7  8  2  0
  8  9  1  0
  8 10  1  0
 10 11  1  0
 10 12  2  0
 12 13  1  0
  3 14  1  0
 14 15  1  0
 14 16  1  0
 14 17  1  0
 17 18  2  0
 18 19  1  0
 18 20  1  0
 20 21  1  0
 20 22  2  0
 22 23  1  0
 23 24  1  0
 23 25  1  0
 23 26  1  0
 22 27  1  0
 27 28  1  0
 27 29  2  0
 29 30  1  0
 12  4  1  0
 29 17  1  0
M  END
>  <cnnaffinity>  (1) 
-4.20256

>  <filename>  (1) 
ON(Cc1ccc(C(F)(F)F)cc1)c1cccnc1

$$$$
