
     RDKit          3D

 24 25  0  0  0  0  0  0  0  0999 V2000
    6.3410   -1.9509   21.9710 H   0  0  0  0  0  0  0  0  0  0  0  0
    6.5400   -0.9983   21.9949 O   0  0  0  0  0  0  0  0  0  0  0  0
    7.3149   -0.7565   20.8549 N   0  0  0  0  0  0  0  0  0  0  0  0
    6.6626    0.0037   19.8500 C   0  0  0  0  0  0  0  0  0  0  0  0
    7.1723    0.0691   18.5325 C   0  0  0  0  0  0  0  0  0  0  0  0
    8.0983   -0.4465   18.2842 H   0  0  0  0  0  0  0  0  0  0  0  0
    6.5682    0.7158   17.5208 N   0  0  0  0  0  0  0  0  0  0  0  0
    5.4083    1.3375   17.7865 C   0  0  0  0  0  0  0  0  0  0  0  0
    4.9168    1.8592   16.9659 H   0  0  0  0  0  0  0  0  0  0  0  0
    4.8150    1.3336   19.0546 C   0  0  0  0  0  0  0  0  0  0  0  0
    3.8751    1.8474   19.2243 H   0  0  0  0  0  0  0  0  0  0  0  0
    5.4413    0.6608   20.1026 C   0  0  0  0  0  0  0  0  0  0  0  0
    5.0179    0.6266   21.1047 H   0  0  0  0  0  0  0  0  0  0  0  0
    8.7096   -0.7204   21.1390 C   0  0  0  0  0  0  0  0  0  0  0  0
    9.4706    0.4696   21.0622 C   0  0  0  0  0  0  0  0  0  0  0  0
    8.9723    1.4024   20.8178 H   0  0  0  0  0  0  0  0  0  0  0  0
   10.8544    0.4525   21.2667 C   0  0  0  0  0  0  0  0  0  0  0  0
   11.4324    1.3682   21.1617 H   0  0  0  0  0  0  0  0  0  0  0  0
   11.5009   -0.7387   21.6092 C   0  0  0  0  0  0  0  0  0  0  0  0
   12.5781   -0.7563   21.7407 H   0  0  0  0  0  0  0  0  0  0  0  0
   10.7560   -1.9079   21.7834 C   0  0  0  0  0  0  0  0  0  0  0  0
   11.2256   -2.8274   22.1133 H   0  0  0  0  0  0  0  0  0  0  0  0
    9.3833   -1.9016   21.5485 C   0  0  0  0  0  0  0  0  0  0  0  0
    8.5176   -3.4060   21.7355 Cl  0  0  0  0  0  0  0  0  0  0  0  0
  1  2  1  0
  2  3  1  0
  3  4  1  0
  4  5  2  0
  5  6  1  0
  5  7  1  0
  7  8  2  0
  8  9  1  0
  8 10  1  0
 10 11  1  0
 10 12  2  0
 12 13  1  0
  3 14  1  0
 14 15  2  0
 15 16  1  0
 15 17  1  0
 17 18  1  0
 17 19  2  0
 19 20  1  0
 19 21  1  0
 21 22  1  0
 21 23  2  0
 23 24  1  0
 12  4  1  0
 23 14  1  0
M  END
>  <cnnaffinity>  (1) 
-4.84012

>  <filename>  (1) 
ON(c1cccnc1)c1ccccc1Cl

$$$$
