
     RDKit          3D

 27 28  0  0  0  0  0  0  0  0999 V2000
    4.9571    1.8212   16.8911 H   0  0  0  0  0  0  0  0  0  0  0  0
    5.3958    1.3018   17.7379 C   0  0  0  0  0  0  0  0  0  0  0  0
    6.5250    0.6140   17.4948 N   0  0  0  0  0  0  0  0  0  0  0  0
    7.0917   -0.0214   18.5288 C   0  0  0  0  0  0  0  0  0  0  0  0
    7.9827   -0.6064   18.2985 H   0  0  0  0  0  0  0  0  0  0  0  0
    6.5843    0.0083   19.8411 C   0  0  0  0  0  0  0  0  0  0  0  0
    7.4329   -0.7729   21.2190 S   0  0  0  0  0  0  0  0  0  0  0  0
    8.3599    0.6224   21.9127 C   0  0  0  0  0  0  0  0  0  0  0  0
    7.9111    1.4170   23.2493 S   0  0  0  0  0  0  0  0  0  0  0  0
    9.5959    1.0405   21.1215 C   0  0  0  0  0  0  0  0  0  0  0  0
    9.6176    0.5086   20.1666 H   0  0  0  0  0  0  0  0  0  0  0  0
    9.4685    2.1075   20.8968 H   0  0  0  0  0  0  0  0  0  0  0  0
   10.8777    0.8629   21.9233 C   0  0  0  0  0  0  0  0  0  0  0  0
   11.3497    1.9312   22.7029 C   0  0  0  0  0  0  0  0  0  0  0  0
   10.7977    2.8698   22.6728 H   0  0  0  0  0  0  0  0  0  0  0  0
   12.4969    1.8088   23.4923 C   0  0  0  0  0  0  0  0  0  0  0  0
   12.7965    2.6381   24.1228 H   0  0  0  0  0  0  0  0  0  0  0  0
   13.2305    0.6163   23.4858 C   0  0  0  0  0  0  0  0  0  0  0  0
   14.1527    0.5203   24.0549 H   0  0  0  0  0  0  0  0  0  0  0  0
   12.7851   -0.4590   22.7176 C   0  0  0  0  0  0  0  0  0  0  0  0
   13.3307   -1.3965   22.6590 H   0  0  0  0  0  0  0  0  0  0  0  0
   11.5941   -0.3451   21.9939 C   0  0  0  0  0  0  0  0  0  0  0  0
   11.0112   -1.7843   21.2263 Cl  0  0  0  0  0  0  0  0  0  0  0  0
    5.3731    0.6779   20.0624 C   0  0  0  0  0  0  0  0  0  0  0  0
    4.9135    0.6532   21.0511 H   0  0  0  0  0  0  0  0  0  0  0  0
    4.7727    1.3407   18.9909 C   0  0  0  0  0  0  0  0  0  0  0  0
    3.8384    1.8776   19.1241 H   0  0  0  0  0  0  0  0  0  0  0  0
  1  2  1  0
  2  3  2  0
  3  4  1  0
  4  5  1  0
  4  6  2  0
  6  7  1  0
  7  8  1  0
  8  9  2  0
  8 10  1  0
 10 11  1  0
 10 12  1  0
 10 13  1  0
 13 14  2  0
 14 15  1  0
 14 16  1  0
 16 17  1  0
 16 18  2  0
 18 19  1  0
 18 20  1  0
 20 21  1  0
 20 22  2  0
 22 23  1  0
  6 24  1  0
 24 25  1  0
 24 26  2  0
 26 27  1  0
 26  2  1  0
 22 13  1  0
M  END
>  <cnnaffinity>  (1) 
-4.89843

>  <filename>  (1) 
S=C(Cc1ccccc1Cl)Sc1cccnc1

$$$$
