
     RDKit          3D

 41 43  0  0  0  0  0  0  0  0999 V2000
    5.6506   -1.6857   21.6918 H   0  0  0  0  0  0  0  0  0  0  0  0
    6.7131   -1.5308   21.8095 C   0  0  0  0  0  0  0  0  0  0  0  0
    7.3798   -0.7141   20.9671 C   0  0  0  0  0  0  0  0  0  0  0  0
    6.7007    0.0440   19.9107 C   0  0  0  0  0  0  0  0  0  0  0  0
    7.2017    0.0830   18.5991 C   0  0  0  0  0  0  0  0  0  0  0  0
    8.1326   -0.4244   18.3429 H   0  0  0  0  0  0  0  0  0  0  0  0
    6.5725    0.6745   17.5782 N   0  0  0  0  0  0  0  0  0  0  0  0
    5.4077    1.2889   17.8404 C   0  0  0  0  0  0  0  0  0  0  0  0
    4.9272    1.7810   16.9970 H   0  0  0  0  0  0  0  0  0  0  0  0
    4.8177    1.3133   19.1077 C   0  0  0  0  0  0  0  0  0  0  0  0
    3.8779    1.8331   19.2536 H   0  0  0  0  0  0  0  0  0  0  0  0
    5.4626    0.6648   20.1571 C   0  0  0  0  0  0  0  0  0  0  0  0
    5.0243    0.6358   21.1576 H   0  0  0  0  0  0  0  0  0  0  0  0
    8.7592   -0.5862   21.1071 N   0  0  0  0  0  0  0  0  0  0  0  0
    9.3209    0.0732   20.5989 H   0  0  0  0  0  0  0  0  0  0  0  0
    9.4994   -1.2644   22.0162 C   0  0  0  0  0  0  0  0  0  0  0  0
   11.1423   -1.0635   22.1290 S   0  0  0  0  0  0  0  0  0  0  0  0
    8.8358   -2.1150   22.8149 N   0  0  0  0  0  0  0  0  0  0  0  0
    9.4600   -2.5413   23.4794 H   0  0  0  0  0  0  0  0  0  0  0  0
    7.3777   -2.1402   22.9914 C   0  0  1  0  0  0  0  0  0  0  0  0
    7.0818   -3.2002   23.0587 H   0  0  0  0  0  0  0  0  0  0  0  0
    6.9399   -1.4618   24.3181 C   0  0  0  0  0  0  0  0  0  0  0  0
    5.8430   -1.4950   24.3489 H   0  0  0  0  0  0  0  0  0  0  0  0
    7.2911   -2.0740   25.1582 H   0  0  0  0  0  0  0  0  0  0  0  0
    7.4210   -0.0147   24.4727 C   0  0  0  0  0  0  0  0  0  0  0  0
    8.5123   -0.0037   24.5893 H   0  0  0  0  0  0  0  0  0  0  0  0
    7.2022    0.5419   23.5477 H   0  0  0  0  0  0  0  0  0  0  0  0
    6.7658    0.7152   25.6561 C   0  0  0  0  0  0  0  0  0  0  0  0
    6.8995    0.1239   26.5731 H   0  0  0  0  0  0  0  0  0  0  0  0
    7.2945    1.6627   25.8289 H   0  0  0  0  0  0  0  0  0  0  0  0
    5.2918    0.9930   25.4294 C   0  0  0  0  0  0  0  0  0  0  0  0
    4.2946    0.2214   26.0482 C   0  0  0  0  0  0  0  0  0  0  0  0
    4.5915   -0.5832   26.7191 H   0  0  0  0  0  0  0  0  0  0  0  0
    2.9388    0.4670   25.8041 C   0  0  0  0  0  0  0  0  0  0  0  0
    2.1850   -0.1533   26.2830 H   0  0  0  0  0  0  0  0  0  0  0  0
    2.5609    1.4986   24.9387 C   0  0  0  0  0  0  0  0  0  0  0  0
    1.5099    1.6734   24.7258 H   0  0  0  0  0  0  0  0  0  0  0  0
    3.5438    2.2660   24.2994 C   0  0  0  0  0  0  0  0  0  0  0  0
    3.2626    3.0443   23.5920 H   0  0  0  0  0  0  0  0  0  0  0  0
    4.8954    2.0071   24.5394 C   0  0  0  0  0  0  0  0  0  0  0  0
    5.6627    2.5897   24.0303 H   0  0  0  0  0  0  0  0  0  0  0  0
  1  2  1  0
  2  3  2  0
  3  4  1  0
  4  5  2  0
  5  6  1  0
  5  7  1  0
  7  8  2  0
  8  9  1  0
  8 10  1  0
 10 11  1  0
 10 12  2  0
 12 13  1  0
  3 14  1  0
 14 15  1  0
 14 16  1  0
 16 17  2  0
 16 18  1  0
 18 19  1  0
 18 20  1  0
 20 21  1  1
 20 22  1  0
 22 23  1  0
 22 24  1  0
 22 25  1  0
 25 26  1  0
 25 27  1  0
 25 28  1  0
 28 29  1  0
 28 30  1  0
 28 31  1  0
 31 32  2  0
 32 33  1  0
 32 34  1  0
 34 35  1  0
 34 36  2  0
 36 37  1  0
 36 38  1  0
 38 39  1  0
 38 40  2  0
 40 41  1  0
 20  2  1  0
 40 31  1  0
 12  4  1  0
M  END
>  <cnnaffinity>  (1) 
-5.21717

>  <filename>  (1) 
S=C1NC(c2cccnc2)=C[C@H](CCCc2ccccc2)N1

$$$$
