
     RDKit          3D

 32 35  0  0  0  0  0  0  0  0999 V2000
    4.9319    1.8007   16.9925 H   0  0  0  0  0  0  0  0  0  0  0  0
    5.3949    1.2924   17.8307 C   0  0  0  0  0  0  0  0  0  0  0  0
    6.5500    0.6631   17.5625 N   0  0  0  0  0  0  0  0  0  0  0  0
    7.1689    0.0460   18.5744 C   0  0  0  0  0  0  0  0  0  0  0  0
    8.1241   -0.4302   18.3534 H   0  0  0  0  0  0  0  0  0  0  0  0
    6.6427    0.0034   19.8818 C   0  0  0  0  0  0  0  0  0  0  0  0
    7.3162   -0.6765   20.9397 N   0  0  0  0  0  0  0  0  0  0  0  0
    6.7207   -1.5929   21.7910 C   0  0  0  0  0  0  0  0  0  0  0  0
    5.6719   -1.8371   21.7180 H   0  0  0  0  0  0  0  0  0  0  0  0
    7.6750   -2.0481   22.6452 C   0  0  0  0  0  0  0  0  0  0  0  0
    7.6257   -2.9708   23.7488 C   0  0  0  0  0  0  0  0  0  0  0  0
    6.4039   -3.5391   24.0176 O   0  0  0  0  0  0  0  0  0  0  0  0
    6.5870   -4.3615   25.0853 C   0  0  0  0  0  0  0  0  0  0  0  0
    5.6150   -5.1523   25.7082 C   0  0  0  0  0  0  0  0  0  0  0  0
    4.5841   -5.1564   25.3635 H   0  0  0  0  0  0  0  0  0  0  0  0
    6.0424   -5.9272   26.7894 C   0  0  0  0  0  0  0  0  0  0  0  0
    5.3304   -6.5634   27.3107 H   0  0  0  0  0  0  0  0  0  0  0  0
    7.3862   -5.9084   27.2291 C   0  0  0  0  0  0  0  0  0  0  0  0
    7.6833   -6.5285   28.0697 H   0  0  0  0  0  0  0  0  0  0  0  0
    8.3357   -5.1118   26.5973 C   0  0  0  0  0  0  0  0  0  0  0  0
    9.3742   -5.0848   26.9187 H   0  0  0  0  0  0  0  0  0  0  0  0
    7.9283   -4.3231   25.5046 C   0  0  0  0  0  0  0  0  0  0  0  0
    8.5806   -3.4036   24.6137 C   0  0  0  0  0  0  0  0  0  0  0  0
    9.6239   -3.1223   24.6367 H   0  0  0  0  0  0  0  0  0  0  0  0
    8.8384   -1.3883   22.2896 N   0  0  0  0  0  0  0  0  0  0  0  0
    9.7574   -1.4084   22.6993 H   0  0  0  0  0  0  0  0  0  0  0  0
    8.6409   -0.5049   21.2937 C   0  0  0  0  0  0  0  0  0  0  0  0
    9.8067    0.5477   20.7693 S   0  0  0  0  0  0  0  0  0  0  0  0
    5.4358    0.6502   20.1498 C   0  0  0  0  0  0  0  0  0  0  0  0
    5.0410    0.6333   21.1686 H   0  0  0  0  0  0  0  0  0  0  0  0
    4.8021    1.3146   19.0986 C   0  0  0  0  0  0  0  0  0  0  0  0
    3.8723    1.8477   19.2544 H   0  0  0  0  0  0  0  0  0  0  0  0
  1  2  1  0
  2  3  2  0
  3  4  1  0
  4  5  1  0
  4  6  2  0
  6  7  1  0
  7  8  1  0
  8  9  1  0
  8 10  2  0
 10 11  1  0
 11 12  1  0
 12 13  1  0
 13 14  2  0
 14 15  1  0
 14 16  1  0
 16 17  1  0
 16 18  2  0
 18 19  1  0
 18 20  1  0
 20 21  1  0
 20 22  2  0
 22 23  1  0
 23 24  1  0
 10 25  1  0
 25 26  1  0
 25 27  1  0
 27 28  2  0
  6 29  1  0
 29 30  1  0
 29 31  2  0
 31 32  1  0
 31  2  1  0
 27  7  1  0
 23 11  2  0
 22 13  1  0
M  END
>  <cnnaffinity>  (1) 
-5.67103

>  <filename>  (1) 
S=c1[nH]c(-c2cc3ccccc3o2)cn1-c1cccnc1

$$$$
