
     RDKit          3D

 38 40  0  0  0  0  0  0  0  0999 V2000
    6.3131    1.4114   21.9456 H   0  0  0  0  0  0  0  0  0  0  0  0
    6.6411    0.3853   21.8933 C   0  0  0  0  0  0  0  0  0  0  0  0
    6.6867   -0.2542   20.7044 C   0  0  0  0  0  0  0  0  0  0  0  0
    6.1598    0.2972   19.4447 C   0  0  0  0  0  0  0  0  0  0  0  0
    6.8576    0.1914   18.2274 C   0  0  0  0  0  0  0  0  0  0  0  0
    7.8019   -0.3530   18.1748 H   0  0  0  0  0  0  0  0  0  0  0  0
    6.4603    0.7734   17.0896 N   0  0  0  0  0  0  0  0  0  0  0  0
    5.3210    1.4827   17.1257 C   0  0  0  0  0  0  0  0  0  0  0  0
    5.0337    1.9760   16.2021 H   0  0  0  0  0  0  0  0  0  0  0  0
    4.5248    1.6148   18.2690 C   0  0  0  0  0  0  0  0  0  0  0  0
    3.6206    2.2110   18.2259 H   0  0  0  0  0  0  0  0  0  0  0  0
    4.9518    1.0174   19.4519 C   0  0  0  0  0  0  0  0  0  0  0  0
    4.3718    1.0965   20.3755 H   0  0  0  0  0  0  0  0  0  0  0  0
    7.2651   -1.5187   20.6470 N   0  0  0  0  0  0  0  0  0  0  0  0
    7.3923   -2.0161   19.7869 H   0  0  0  0  0  0  0  0  0  0  0  0
    7.6098   -2.2475   21.7326 C   0  0  0  0  0  0  0  0  0  0  0  0
    8.2947   -3.7566   21.5911 S   0  0  0  0  0  0  0  0  0  0  0  0
    7.3440   -1.6747   22.9193 N   0  0  0  0  0  0  0  0  0  0  0  0
    7.6973   -2.2400   23.6678 H   0  0  0  0  0  0  0  0  0  0  0  0
    7.2015   -0.2259   23.1316 C   0  0  1  0  0  0  0  0  0  0  0  0
    6.4771   -0.0727   23.9563 H   0  0  0  0  0  0  0  0  0  0  0  0
    8.5531    0.4424   23.5438 C   0  0  0  0  0  0  0  0  0  0  0  0
    9.2370    0.3745   22.6856 H   0  0  0  0  0  0  0  0  0  0  0  0
    8.3428    1.5122   23.6781 H   0  0  0  0  0  0  0  0  0  0  0  0
    9.2576   -0.0520   24.8249 C   0  0  0  0  0  0  0  0  0  0  0  0
   10.1716    0.5503   24.9152 H   0  0  0  0  0  0  0  0  0  0  0  0
    8.6470    0.2011   25.7019 H   0  0  0  0  0  0  0  0  0  0  0  0
    9.6445   -1.5210   24.9177 C   0  0  0  0  0  0  0  0  0  0  0  0
    9.1475   -2.3296   25.9581 C   0  0  0  0  0  0  0  0  0  0  0  0
    8.4630   -1.8870   26.6777 H   0  0  0  0  0  0  0  0  0  0  0  0
    9.5071   -3.6799   26.0635 C   0  0  0  0  0  0  0  0  0  0  0  0
    9.1102   -4.2823   26.8771 H   0  0  0  0  0  0  0  0  0  0  0  0
   10.3612   -4.2564   25.1191 C   0  0  0  0  0  0  0  0  0  0  0  0
   10.6270   -5.3109   25.1817 H   0  0  0  0  0  0  0  0  0  0  0  0
   10.8682   -3.4574   24.0887 C   0  0  0  0  0  0  0  0  0  0  0  0
   11.5606   -3.8616   23.3668 H   0  0  0  0  0  0  0  0  0  0  0  0
   10.5115   -2.1093   23.9830 C   0  0  0  0  0  0  0  0  0  0  0  0
   10.9531   -1.5133   23.1855 H   0  0  0  0  0  0  0  0  0  0  0  0
  1  2  1  0
  2  3  2  0
  3  4  1  0
  4  5  2  0
  5  6  1  0
  5  7  1  0
  7  8  2  0
  8  9  1  0
  8 10  1  0
 10 11  1  0
 10 12  2  0
 12 13  1  0
  3 14  1  0
 14 15  1  0
 14 16  1  0
 16 17  2  0
 16 18  1  0
 18 19  1  0
 18 20  1  0
 20 21  1  1
 20 22  1  0
 22 23  1  0
 22 24  1  0
 22 25  1  0
 25 26  1  0
 25 27  1  0
 25 28  1  0
 28 29  2  0
 29 30  1  0
 29 31  1  0
 31 32  1  0
 31 33  2  0
 33 34  1  0
 33 35  1  0
 35 36  1  0
 35 37  2  0
 37 38  1  0
 20  2  1  0
 37 28  1  0
 12  4  1  0
M  END
>  <cnnaffinity>  (1) 
-5.45591

>  <filename>  (1) 
S=C1NC(c2cccnc2)=C[C@H](CCc2ccccc2)N1

$$$$
