
     RDKit          3D

 36 39  0  0  0  0  0  0  0  0999 V2000
    5.6550   -1.6910   21.6809 H   0  0  0  0  0  0  0  0  0  0  0  0
    6.7174   -1.5422   21.7901 C   0  0  0  0  0  0  0  0  0  0  0  0
    7.3825   -0.7101   20.9662 C   0  0  0  0  0  0  0  0  0  0  0  0
    6.7045    0.0438   19.9064 C   0  0  0  0  0  0  0  0  0  0  0  0
    7.2043    0.0827   18.5949 C   0  0  0  0  0  0  0  0  0  0  0  0
    8.1351   -0.4245   18.3415 H   0  0  0  0  0  0  0  0  0  0  0  0
    6.5736    0.6752   17.5754 N   0  0  0  0  0  0  0  0  0  0  0  0
    5.4094    1.2893   17.8385 C   0  0  0  0  0  0  0  0  0  0  0  0
    4.9273    1.7814   16.9968 H   0  0  0  0  0  0  0  0  0  0  0  0
    4.8194    1.3127   19.1074 C   0  0  0  0  0  0  0  0  0  0  0  0
    3.8794    1.8325   19.2551 H   0  0  0  0  0  0  0  0  0  0  0  0
    5.4658    0.6630   20.1566 C   0  0  0  0  0  0  0  0  0  0  0  0
    5.0337    0.6295   21.1604 H   0  0  0  0  0  0  0  0  0  0  0  0
    8.7597   -0.5670   21.1170 N   0  0  0  0  0  0  0  0  0  0  0  0
    9.3213    0.0724   20.5827 H   0  0  0  0  0  0  0  0  0  0  0  0
    9.4640   -1.0946   22.1506 C   0  0  0  0  0  0  0  0  0  0  0  0
   11.0765   -0.7657   22.3521 S   0  0  0  0  0  0  0  0  0  0  0  0
    8.7929   -1.8844   22.9989 N   0  0  0  0  0  0  0  0  0  0  0  0
    9.3692   -2.1892   23.7649 H   0  0  0  0  0  0  0  0  0  0  0  0
    7.3890   -2.3016   22.8805 C   0  0  1  0  0  0  0  0  0  0  0  0
    7.3804   -3.3809   22.6344 H   0  0  0  0  0  0  0  0  0  0  0  0
    6.6379   -2.1697   24.2150 C   0  0  0  0  0  0  0  0  0  0  0  0
    6.0005   -3.2645   24.8019 C   0  0  0  0  0  0  0  0  0  0  0  0
    6.0642   -4.2364   24.3176 H   0  0  0  0  0  0  0  0  0  0  0  0
    5.2662   -3.1313   26.0031 C   0  0  0  0  0  0  0  0  0  0  0  0
    4.7862   -4.0088   26.4309 H   0  0  0  0  0  0  0  0  0  0  0  0
    5.1512   -1.8994   26.6395 C   0  0  0  0  0  0  0  0  0  0  0  0
    4.5907   -1.7914   27.5645 H   0  0  0  0  0  0  0  0  0  0  0  0
    5.7906   -0.7942   26.0433 C   0  0  0  0  0  0  0  0  0  0  0  0
    6.5318   -0.9064   24.8429 C   0  0  0  0  0  0  0  0  0  0  0  0
    7.0110    0.4197   24.5346 C   0  0  0  0  0  0  0  0  0  0  0  0
    7.6046    0.6753   23.6661 H   0  0  0  0  0  0  0  0  0  0  0  0
    6.5743    1.2540   25.5226 C   0  0  0  0  0  0  0  0  0  0  0  0
    6.7307    2.3173   25.6619 H   0  0  0  0  0  0  0  0  0  0  0  0
    5.8375    0.5209   26.4315 N   0  0  0  0  0  0  0  0  0  0  0  0
    5.3975    0.8719   27.2651 H   0  0  0  0  0  0  0  0  0  0  0  0
  1  2  1  0
  2  3  2  0
  3  4  1  0
  4  5  2  0
  5  6  1  0
  5  7  1  0
  7  8  2  0
  8  9  1  0
  8 10  1  0
 10 11  1  0
 10 12  2  0
 12 13  1  0
  3 14  1  0
 14 15  1  0
 14 16  1  0
 16 17  2  0
 16 18  1  0
 18 19  1  0
 18 20  1  0
 20 21  1  6
 20 22  1  0
 22 23  2  0
 23 24  1  0
 23 25  1  0
 25 26  1  0
 25 27  2  0
 27 28  1  0
 27 29  1  0
 29 30  2  0
 30 31  1  0
 31 32  1  0
 31 33  2  0
 33 34  1  0
 33 35  1  0
 35 36  1  0
 20  2  1  0
 30 22  1  0
 12  4  1  0
 35 29  1  0
M  END
>  <cnnaffinity>  (1) 
-5.21614

>  <filename>  (1) 
S=C1NC(c2cccnc2)=C[C@H](c2cccc3[nH]ccc23)N1

$$$$
