
     RDKit          3D

 36 38  0  0  0  0  0  0  0  0999 V2000
    6.9646    0.8716   22.4911 H   0  0  0  0  0  0  0  0  0  0  0  0
    7.3580   -0.0959   22.2435 C   0  0  0  0  0  0  0  0  0  0  0  0
    7.2150   -0.6374   21.0179 C   0  0  0  0  0  0  0  0  0  0  0  0
    6.5540    0.0166   19.8781 C   0  0  0  0  0  0  0  0  0  0  0  0
    7.1346   -0.0188   18.5982 C   0  0  0  0  0  0  0  0  0  0  0  0
    8.0749   -0.5468   18.4377 H   0  0  0  0  0  0  0  0  0  0  0  0
    6.6223    0.5931   17.5257 N   0  0  0  0  0  0  0  0  0  0  0  0
    5.4753    1.2724   17.6846 C   0  0  0  0  0  0  0  0  0  0  0  0
    5.0870    1.7660   16.7940 H   0  0  0  0  0  0  0  0  0  0  0  0
    4.8010    1.3603   18.9070 C   0  0  0  0  0  0  0  0  0  0  0  0
    3.8903    1.9464   18.9684 H   0  0  0  0  0  0  0  0  0  0  0  0
    5.3473    0.7269   20.0240 C   0  0  0  0  0  0  0  0  0  0  0  0
    4.8448    0.7762   20.9924 H   0  0  0  0  0  0  0  0  0  0  0  0
    7.6852   -1.9285   20.8032 N   0  0  0  0  0  0  0  0  0  0  0  0
    7.3991   -2.4503   19.9908 H   0  0  0  0  0  0  0  0  0  0  0  0
    8.0565   -2.7696   21.8109 C   0  0  0  0  0  0  0  0  0  0  0  0
    8.0741   -4.4057   21.5859 S   0  0  0  0  0  0  0  0  0  0  0  0
    8.3985   -2.1683   22.9528 N   0  0  0  0  0  0  0  0  0  0  0  0
    8.8536   -2.7109   23.6572 H   0  0  0  0  0  0  0  0  0  0  0  0
    8.0110   -0.8380   23.3577 C   0  0  1  0  0  0  0  0  0  0  0  0
    7.3021   -0.9042   24.2073 H   0  0  0  0  0  0  0  0  0  0  0  0
    9.2930   -0.3259   23.8303 N   0  0  0  0  0  0  0  0  0  0  0  0
    9.9430   -0.7146   23.1528 H   0  0  0  0  0  0  0  0  0  0  0  0
    9.4553    1.1431   23.8976 C   0  0  0  0  0  0  0  0  0  0  0  0
    8.6980    1.6586   23.2913 H   0  0  0  0  0  0  0  0  0  0  0  0
    9.2884    1.4758   24.9318 H   0  0  0  0  0  0  0  0  0  0  0  0
   10.8245    1.6186   23.4247 C   0  0  0  0  0  0  0  0  0  0  0  0
   10.9905    2.5124   22.3473 C   0  0  0  0  0  0  0  0  0  0  0  0
   10.1381    2.9040   21.8007 H   0  0  0  0  0  0  0  0  0  0  0  0
   12.2778    2.9310   21.9912 C   0  0  0  0  0  0  0  0  0  0  0  0
   12.4282    3.6319   21.1683 H   0  0  0  0  0  0  0  0  0  0  0  0
   13.3828    2.5140   22.6208 N   0  0  0  0  0  0  0  0  0  0  0  0
   13.2303    1.6367   23.6154 C   0  0  0  0  0  0  0  0  0  0  0  0
   14.1475    1.2769   24.0736 H   0  0  0  0  0  0  0  0  0  0  0  0
   11.9932    1.1862   24.0733 C   0  0  0  0  0  0  0  0  0  0  0  0
   11.9569    0.5043   24.9179 H   0  0  0  0  0  0  0  0  0  0  0  0
  1  2  1  0
  2  3  2  0
  3  4  1  0
  4  5  2  0
  5  6  1  0
  5  7  1  0
  7  8  2  0
  8  9  1  0
  8 10  1  0
 10 11  1  0
 10 12  2  0
 12 13  1  0
  3 14  1  0
 14 15  1  0
 14 16  1  0
 16 17  2  0
 16 18  1  0
 18 19  1  0
 18 20  1  0
 20 21  1  1
 20 22  1  0
 22 23  1  0
 22 24  1  0
 24 25  1  0
 24 26  1  0
 24 27  1  0
 27 28  2  0
 28 29  1  0
 28 30  1  0
 30 31  1  0
 30 32  2  0
 32 33  1  0
 33 34  1  0
 33 35  2  0
 35 36  1  0
 20  2  1  0
 35 27  1  0
 12  4  1  0
M  END
>  <cnnaffinity>  (1) 
-4.97048

>  <filename>  (1) 
S=C1NC(c2cccnc2)=C[C@H](NCc2ccncc2)N1

$$$$
