
     RDKit          3D

 33 36  0  0  0  0  0  0  0  0999 V2000
    4.9165    1.7995   16.9711 H   0  0  0  0  0  0  0  0  0  0  0  0
    5.3911    1.3040   17.8166 C   0  0  0  0  0  0  0  0  0  0  0  0
    6.5565    0.6864   17.5591 N   0  0  0  0  0  0  0  0  0  0  0  0
    7.1710    0.0756   18.5801 C   0  0  0  0  0  0  0  0  0  0  0  0
    8.1076   -0.4209   18.3299 H   0  0  0  0  0  0  0  0  0  0  0  0
    6.6677    0.0264   19.8941 C   0  0  0  0  0  0  0  0  0  0  0  0
    7.3398   -0.6925   20.9816 C   0  0  0  0  0  0  0  0  0  0  0  0
    6.8222   -1.2297   22.1011 C   0  0  0  0  0  0  0  0  0  0  0  0
    5.8020   -1.2845   22.4058 H   0  0  0  0  0  0  0  0  0  0  0  0
    7.8339   -1.8230   22.8380 N   0  0  0  0  0  0  0  0  0  0  0  0
    7.6287   -2.4800   24.0944 C   0  0  0  0  0  0  0  0  0  0  0  0
    8.4945   -2.1981   25.1798 C   0  0  0  0  0  0  0  0  0  0  0  0
    9.3008   -1.4832   25.0261 H   0  0  0  0  0  0  0  0  0  0  0  0
    8.3285   -2.8456   26.3975 C   0  0  0  0  0  0  0  0  0  0  0  0
    9.0062   -2.6445   27.2200 H   0  0  0  0  0  0  0  0  0  0  0  0
    7.2742   -3.7729   26.5175 C   0  0  0  0  0  0  0  0  0  0  0  0
    6.3905   -4.0503   25.4445 C   0  0  0  0  0  0  0  0  0  0  0  0
    6.5763   -3.3844   24.2216 C   0  0  0  0  0  0  0  0  0  0  0  0
    5.9182   -3.5745   23.3797 H   0  0  0  0  0  0  0  0  0  0  0  0
    5.4435   -5.0179   25.9259 C   0  0  0  0  0  0  0  0  0  0  0  0
    4.6257   -5.4394   25.3599 H   0  0  0  0  0  0  0  0  0  0  0  0
    5.7706   -5.2915   27.2219 C   0  0  0  0  0  0  0  0  0  0  0  0
    5.3077   -5.9651   27.9333 H   0  0  0  0  0  0  0  0  0  0  0  0
    6.8748   -4.5432   27.5797 N   0  0  0  0  0  0  0  0  0  0  0  0
    7.3316   -4.5533   28.4750 H   0  0  0  0  0  0  0  0  0  0  0  0
    9.0253   -1.6758   22.1586 C   0  0  0  0  0  0  0  0  0  0  0  0
   10.5714   -2.1858   22.4860 S   0  0  0  0  0  0  0  0  0  0  0  0
    8.6903   -0.9887   21.0311 N   0  0  0  0  0  0  0  0  0  0  0  0
    9.4196   -0.7173   20.3967 H   0  0  0  0  0  0  0  0  0  0  0  0
    5.4382    0.6677   20.1344 C   0  0  0  0  0  0  0  0  0  0  0  0
    5.0101    0.6587   21.1373 H   0  0  0  0  0  0  0  0  0  0  0  0
    4.7969    1.3222   19.0836 C   0  0  0  0  0  0  0  0  0  0  0  0
    3.8628    1.8521   19.2346 H   0  0  0  0  0  0  0  0  0  0  0  0
  1  2  1  0
  2  3  2  0
  3  4  1  0
  4  5  1  0
  4  6  2  0
  6  7  1  0
  7  8  2  0
  8  9  1  0
  8 10  1  0
 10 11  1  0
 11 12  2  0
 12 13  1  0
 12 14  1  0
 14 15  1  0
 14 16  2  0
 16 17  1  0
 17 18  2  0
 18 19  1  0
 17 20  1  0
 20 21  1  0
 20 22  2  0
 22 23  1  0
 22 24  1  0
 24 25  1  0
 10 26  1  0
 26 27  2  0
 26 28  1  0
 28 29  1  0
  6 30  1  0
 30 31  1  0
 30 32  2  0
 32 33  1  0
 32  2  1  0
 28  7  1  0
 18 11  1  0
 24 16  1  0
M  END
>  <cnnaffinity>  (1) 
-5.654

>  <filename>  (1) 
S=c1[nH]c(-c2cccnc2)cn1-c1ccc2[nH]ccc2c1

$$$$
