
     RDKit          3D

 28 30  0  0  0  0  0  0  0  0999 V2000
    4.9173    1.7998   16.9714 H   0  0  0  0  0  0  0  0  0  0  0  0
    5.3921    1.3037   17.8179 C   0  0  0  0  0  0  0  0  0  0  0  0
    6.5572    0.6856   17.5632 N   0  0  0  0  0  0  0  0  0  0  0  0
    7.1718    0.0733   18.5837 C   0  0  0  0  0  0  0  0  0  0  0  0
    8.1076   -0.4213   18.3294 H   0  0  0  0  0  0  0  0  0  0  0  0
    6.6684    0.0233   19.8976 C   0  0  0  0  0  0  0  0  0  0  0  0
    7.3390   -0.6966   20.9839 C   0  0  0  0  0  0  0  0  0  0  0  0
    6.8190   -1.2381   22.1015 C   0  0  0  0  0  0  0  0  0  0  0  0
    5.8035   -1.2946   22.4118 H   0  0  0  0  0  0  0  0  0  0  0  0
    7.8331   -1.8318   22.8363 N   0  0  0  0  0  0  0  0  0  0  0  0
    7.6243   -2.4734   24.0932 C   0  0  0  0  0  0  0  0  0  0  0  0
    6.5696   -3.3837   24.2867 C   0  0  0  0  0  0  0  0  0  0  0  0
    5.8707   -3.6279   23.4864 H   0  0  0  0  0  0  0  0  0  0  0  0
    6.3736   -4.0367   25.4374 N   0  0  0  0  0  0  0  0  0  0  0  0
    7.2037   -3.7906   26.4380 C   0  0  0  0  0  0  0  0  0  0  0  0
    6.9252   -4.6548   27.9204 Cl  0  0  0  0  0  0  0  0  0  0  0  0
    8.2714   -2.8877   26.3673 C   0  0  0  0  0  0  0  0  0  0  0  0
    8.9062   -2.7493   27.2287 H   0  0  0  0  0  0  0  0  0  0  0  0
    8.4865   -2.2111   25.1678 C   0  0  0  0  0  0  0  0  0  0  0  0
    9.3104   -1.5083   25.0388 H   0  0  0  0  0  0  0  0  0  0  0  0
    9.0290   -1.6742   22.1586 C   0  0  0  0  0  0  0  0  0  0  0  0
   10.5757   -2.1764   22.4907 S   0  0  0  0  0  0  0  0  0  0  0  0
    8.6889   -0.9886   21.0346 N   0  0  0  0  0  0  0  0  0  0  0  0
    9.4175   -0.7156   20.3982 H   0  0  0  0  0  0  0  0  0  0  0  0
    5.4400    0.6667   20.1358 C   0  0  0  0  0  0  0  0  0  0  0  0
    5.0093    0.6591   21.1365 H   0  0  0  0  0  0  0  0  0  0  0  0
    4.7980    1.3220   19.0843 C   0  0  0  0  0  0  0  0  0  0  0  0
    3.8638    1.8518   19.2337 H   0  0  0  0  0  0  0  0  0  0  0  0
  1  2  1  0
  2  3  2  0
  3  4  1  0
  4  5  1  0
  4  6  2  0
  6  7  1  0
  7  8  2  0
  8  9  1  0
  8 10  1  0
 10 11  1  0
 11 12  2  0
 12 13  1  0
 12 14  1  0
 14 15  2  0
 15 16  1  0
 15 17  1  0
 17 18  1  0
 17 19  2  0
 19 20  1  0
 10 21  1  0
 21 22  2  0
 21 23  1  0
 23 24  1  0
  6 25  1  0
 25 26  1  0
 25 27  2  0
 27 28  1  0
 27  2  1  0
 23  7  1  0
 19 11  1  0
M  END
>  <cnnaffinity>  (1) 
-5.57039

>  <filename>  (1) 
S=c1[nH]c(-c2cccnc2)cn1-c1ccc(Cl)nc1

$$$$
