
     RDKit          3D

 32 34  0  0  0  0  0  0  0  0999 V2000
    5.6547   -1.6694   21.7045 H   0  0  0  0  0  0  0  0  0  0  0  0
    6.7195   -1.5391   21.7908 C   0  0  0  0  0  0  0  0  0  0  0  0
    7.3859   -0.7169   20.9554 C   0  0  0  0  0  0  0  0  0  0  0  0
    6.7033    0.0443   19.9076 C   0  0  0  0  0  0  0  0  0  0  0  0
    7.2013    0.0838   18.5960 C   0  0  0  0  0  0  0  0  0  0  0  0
    8.1320   -0.4257   18.3425 H   0  0  0  0  0  0  0  0  0  0  0  0
    6.5714    0.6752   17.5763 N   0  0  0  0  0  0  0  0  0  0  0  0
    5.4073    1.2894   17.8409 C   0  0  0  0  0  0  0  0  0  0  0  0
    4.9254    1.7812   16.9984 H   0  0  0  0  0  0  0  0  0  0  0  0
    4.8194    1.3116   19.1098 C   0  0  0  0  0  0  0  0  0  0  0  0
    3.8805    1.8324   19.2572 H   0  0  0  0  0  0  0  0  0  0  0  0
    5.4642    0.6619   20.1590 C   0  0  0  0  0  0  0  0  0  0  0  0
    5.0285    0.6286   21.1609 H   0  0  0  0  0  0  0  0  0  0  0  0
    8.7672   -0.6056   21.0851 N   0  0  0  0  0  0  0  0  0  0  0  0
    9.3295    0.0481   20.5704 H   0  0  0  0  0  0  0  0  0  0  0  0
    9.5096   -1.3129   21.9699 C   0  0  0  0  0  0  0  0  0  0  0  0
   11.1564   -1.1434   22.0563 S   0  0  0  0  0  0  0  0  0  0  0  0
    8.8404   -2.1638   22.7647 N   0  0  0  0  0  0  0  0  0  0  0  0
    9.4475   -2.6026   23.4360 H   0  0  0  0  0  0  0  0  0  0  0  0
    7.3820   -2.1965   22.9439 C   0  0  1  0  0  0  0  0  0  0  0  0
    7.0897   -3.2565   22.9753 H   0  0  0  0  0  0  0  0  0  0  0  0
    6.9341   -1.5628   24.2785 C   0  0  0  0  0  0  0  0  0  0  0  0
    7.4695   -0.3262   24.6770 C   0  0  0  0  0  0  0  0  0  0  0  0
    8.2286    0.1443   24.0560 H   0  0  0  0  0  0  0  0  0  0  0  0
    7.0448    0.3037   25.8464 C   0  0  0  0  0  0  0  0  0  0  0  0
    7.4870    1.2535   26.1329 H   0  0  0  0  0  0  0  0  0  0  0  0
    6.0556   -0.2878   26.6381 C   0  0  0  0  0  0  0  0  0  0  0  0
    5.7237    0.1962   27.5525 H   0  0  0  0  0  0  0  0  0  0  0  0
    5.4892   -1.5040   26.2514 C   0  0  0  0  0  0  0  0  0  0  0  0
    4.7120   -1.9791   26.8404 H   0  0  0  0  0  0  0  0  0  0  0  0
    5.9257   -2.1261   25.0773 C   0  0  0  0  0  0  0  0  0  0  0  0
    5.1376   -3.6238   24.6347 Cl  0  0  0  0  0  0  0  0  0  0  0  0
  1  2  1  0
  2  3  2  0
  3  4  1  0
  4  5  2  0
  5  6  1  0
  5  7  1  0
  7  8  2  0
  8  9  1  0
  8 10  1  0
 10 11  1  0
 10 12  2  0
 12 13  1  0
  3 14  1  0
 14 15  1  0
 14 16  1  0
 16 17  2  0
 16 18  1  0
 18 19  1  0
 18 20  1  0
 20 21  1  1
 20 22  1  0
 22 23  2  0
 23 24  1  0
 23 25  1  0
 25 26  1  0
 25 27  2  0
 27 28  1  0
 27 29  1  0
 29 30  1  0
 29 31  2  0
 31 32  1  0
 20  2  1  0
 31 22  1  0
 12  4  1  0
M  END
>  <cnnaffinity>  (1) 
-5.01048

>  <filename>  (1) 
S=C1NC(c2cccnc2)=C[C@H](c2ccccc2Cl)N1

$$$$
