
     RDKit          3D

 30 32  0  0  0  0  0  0  0  0999 V2000
    4.9673    1.8489   17.0126 H   0  0  0  0  0  0  0  0  0  0  0  0
    5.4383    1.3030   17.8252 C   0  0  0  0  0  0  0  0  0  0  0  0
    6.5971    0.6893   17.5353 N   0  0  0  0  0  0  0  0  0  0  0  0
    7.1907    0.0184   18.5262 C   0  0  0  0  0  0  0  0  0  0  0  0
    8.1365   -0.4635   18.2921 H   0  0  0  0  0  0  0  0  0  0  0  0
    6.6572   -0.1020   19.8222 C   0  0  0  0  0  0  0  0  0  0  0  0
    7.3885   -0.8076   20.8183 N   0  0  0  0  0  0  0  0  0  0  0  0
    8.6981   -0.4622   21.1528 C   0  0  0  0  0  0  0  0  0  0  0  0
    9.2486    0.3046   20.6417 H   0  0  0  0  0  0  0  0  0  0  0  0
    9.0763   -1.2903   22.1409 C   0  0  0  0  0  0  0  0  0  0  0  0
   10.2246   -1.4693   22.8766 N   0  0  0  0  0  0  0  0  0  0  0  0
   10.4640   -2.4427   22.9580 H   0  0  0  0  0  0  0  0  0  0  0  0
   11.3399   -0.6718   22.6348 C   0  0  0  0  0  0  0  0  0  0  0  0
   12.5766   -1.2640   22.3998 C   0  0  0  0  0  0  0  0  0  0  0  0
   12.6743   -2.3320   22.2595 H   0  0  0  0  0  0  0  0  0  0  0  0
   13.6966   -0.4428   22.3649 C   0  0  0  0  0  0  0  0  0  0  0  0
   14.6941   -0.8711   22.2645 H   0  0  0  0  0  0  0  0  0  0  0  0
   13.6393    0.8899   22.4694 N   0  0  0  0  0  0  0  0  0  0  0  0
   12.4281    1.4467   22.5973 C   0  0  0  0  0  0  0  0  0  0  0  0
   12.3962    2.5371   22.6314 H   0  0  0  0  0  0  0  0  0  0  0  0
   11.2484    0.7162   22.6801 C   0  0  0  0  0  0  0  0  0  0  0  0
   10.2785    1.1837   22.7818 H   0  0  0  0  0  0  0  0  0  0  0  0
    8.0394   -2.1498   22.3771 N   0  0  0  0  0  0  0  0  0  0  0  0
    7.9656   -2.7143   23.1984 H   0  0  0  0  0  0  0  0  0  0  0  0
    6.9689   -1.8825   21.5757 C   0  0  0  0  0  0  0  0  0  0  0  0
    5.5573   -2.7575   21.5297 S   0  0  0  0  0  0  0  0  0  0  0  0
    5.4505    0.5382   20.1210 C   0  0  0  0  0  0  0  0  0  0  0  0
    5.0415    0.4984   21.1341 H   0  0  0  0  0  0  0  0  0  0  0  0
    4.8377    1.2597   19.0907 C   0  0  0  0  0  0  0  0  0  0  0  0
    3.9173    1.8045   19.2656 H   0  0  0  0  0  0  0  0  0  0  0  0
  1  2  1  0
  2  3  2  0
  3  4  1  0
  4  5  1  0
  4  6  2  0
  6  7  1  0
  7  8  1  0
  8  9  1  0
  8 10  2  0
 10 11  1  0
 11 12  1  0
 11 13  1  0
 13 14  2  0
 14 15  1  0
 14 16  1  0
 16 17  1  0
 16 18  2  0
 18 19  1  0
 19 20  1  0
 19 21  2  0
 21 22  1  0
 10 23  1  0
 23 24  1  0
 23 25  1  0
 25 26  2  0
  6 27  1  0
 27 28  1  0
 27 29  2  0
 29 30  1  0
 29  2  1  0
 25  7  1  0
 21 13  1  0
M  END
>  <cnnaffinity>  (1) 
-5.21263

>  <filename>  (1) 
S=c1[nH]c(Nc2ccncc2)cn1-c1cccnc1

$$$$
