
     RDKit          3D

 35 37  0  0  0  0  0  0  0  0999 V2000
    8.6056    1.0873   21.6890 H   0  0  0  0  0  0  0  0  0  0  0  0
    7.9398    0.2926   21.9943 C   0  0  0  0  0  0  0  0  0  0  0  0
    7.3621    0.2580   23.2098 C   0  0  0  0  0  0  0  0  0  0  0  0
    7.3924    1.3705   24.2255 C   0  0  0  0  0  0  0  0  0  0  0  0
    8.4215    1.7365   24.2851 H   0  0  0  0  0  0  0  0  0  0  0  0
    7.1527    0.9676   25.2194 H   0  0  0  0  0  0  0  0  0  0  0  0
    6.4806    2.5390   23.8728 C   0  0  0  0  0  0  0  0  0  0  0  0
    5.2179    2.6689   24.4653 C   0  0  0  0  0  0  0  0  0  0  0  0
    4.9032    1.9391   25.2098 H   0  0  0  0  0  0  0  0  0  0  0  0
    4.3679    3.7294   24.1335 C   0  0  0  0  0  0  0  0  0  0  0  0
    3.4010    3.8434   24.6134 H   0  0  0  0  0  0  0  0  0  0  0  0
    4.7888    4.6660   23.1870 C   0  0  0  0  0  0  0  0  0  0  0  0
    3.7436    5.9984   22.7797 Cl  0  0  0  0  0  0  0  0  0  0  0  0
    6.0454    4.5651   22.5823 C   0  0  0  0  0  0  0  0  0  0  0  0
    6.3556    5.3149   21.8596 H   0  0  0  0  0  0  0  0  0  0  0  0
    6.8841    3.5037   22.9340 C   0  0  0  0  0  0  0  0  0  0  0  0
    7.8758    3.4419   22.4841 H   0  0  0  0  0  0  0  0  0  0  0  0
    6.6275   -0.8785   23.5403 N   0  0  0  0  0  0  0  0  0  0  0  0
    6.2048   -1.0291   24.4439 H   0  0  0  0  0  0  0  0  0  0  0  0
    6.4483   -1.9580   22.7353 C   0  0  0  0  0  0  0  0  0  0  0  0
    5.6373   -3.3097   23.2600 S   0  0  0  0  0  0  0  0  0  0  0  0
    6.9445   -1.8618   21.4910 N   0  0  0  0  0  0  0  0  0  0  0  0
    6.5802   -2.5734   20.8823 H   0  0  0  0  0  0  0  0  0  0  0  0
    7.5670   -0.6723   20.9217 C   0  0  1  0  0  0  0  0  0  0  0  0
    8.4846   -1.0125   20.4145 H   0  0  0  0  0  0  0  0  0  0  0  0
    6.6856   -0.0341   19.8394 C   0  0  0  0  0  0  0  0  0  0  0  0
    7.1635    0.0121   18.5260 C   0  0  0  0  0  0  0  0  0  0  0  0
    8.1035   -0.4822   18.2833 H   0  0  0  0  0  0  0  0  0  0  0  0
    6.5602    0.6496   17.5149 N   0  0  0  0  0  0  0  0  0  0  0  0
    5.4119    1.2799   17.7989 C   0  0  0  0  0  0  0  0  0  0  0  0
    4.9458    1.8159   16.9728 H   0  0  0  0  0  0  0  0  0  0  0  0
    4.8178    1.2662   19.0679 C   0  0  0  0  0  0  0  0  0  0  0  0
    3.8879    1.8008   19.2255 H   0  0  0  0  0  0  0  0  0  0  0  0
    5.4612    0.5936   20.1113 C   0  0  0  0  0  0  0  0  0  0  0  0
    5.0361    0.5834   21.1191 H   0  0  0  0  0  0  0  0  0  0  0  0
  1  2  1  0
  2  3  2  0
  3  4  1  0
  4  5  1  0
  4  6  1  0
  4  7  1  0
  7  8  2  0
  8  9  1  0
  8 10  1  0
 10 11  1  0
 10 12  2  0
 12 13  1  0
 12 14  1  0
 14 15  1  0
 14 16  2  0
 16 17  1  0
  3 18  1  0
 18 19  1  0
 18 20  1  0
 20 21  2  0
 20 22  1  0
 22 23  1  0
 22 24  1  0
 24 25  1  6
 24 26  1  0
 26 27  2  0
 27 28  1  0
 27 29  1  0
 29 30  2  0
 30 31  1  0
 30 32  1  0
 32 33  1  0
 32 34  2  0
 34 35  1  0
 24  2  1  0
 34 26  1  0
 16  7  1  0
M  END
>  <cnnaffinity>  (1) 
-4.89332

>  <filename>  (1) 
S=C1NC(Cc2ccc(Cl)cc2)=C[C@H](c2cccnc2)N1

$$$$
