
     RDKit          3D

 35 38  0  0  0  0  0  0  0  0999 V2000
    4.9188    1.8052   16.9652 H   0  0  0  0  0  0  0  0  0  0  0  0
    5.3917    1.3065   17.8120 C   0  0  0  0  0  0  0  0  0  0  0  0
    6.5561    0.6866   17.5580 N   0  0  0  0  0  0  0  0  0  0  0  0
    7.1707    0.0752   18.5786 C   0  0  0  0  0  0  0  0  0  0  0  0
    8.1052   -0.4193   18.3212 H   0  0  0  0  0  0  0  0  0  0  0  0
    6.6696    0.0263   19.8936 C   0  0  0  0  0  0  0  0  0  0  0  0
    7.3416   -0.6933   20.9796 C   0  0  0  0  0  0  0  0  0  0  0  0
    6.8225   -1.2336   22.0986 C   0  0  0  0  0  0  0  0  0  0  0  0
    5.8055   -1.2988   22.4101 H   0  0  0  0  0  0  0  0  0  0  0  0
    7.8348   -1.8269   22.8336 N   0  0  0  0  0  0  0  0  0  0  0  0
    7.6193   -2.4962   24.0829 C   0  0  0  0  0  0  0  0  0  0  0  0
    8.4788   -2.1997   25.1790 C   0  0  0  0  0  0  0  0  0  0  0  0
    9.2766   -1.4783   25.0235 H   0  0  0  0  0  0  0  0  0  0  0  0
    8.2964   -2.8467   26.3768 C   0  0  0  0  0  0  0  0  0  0  0  0
    8.9630   -2.6424   27.2099 H   0  0  0  0  0  0  0  0  0  0  0  0
    7.2518   -3.8089   26.5459 C   0  0  0  0  0  0  0  0  0  0  0  0
    7.0543   -4.5109   27.7714 C   0  0  0  0  0  0  0  0  0  0  0  0
    7.7479   -4.3353   28.5872 H   0  0  0  0  0  0  0  0  0  0  0  0
    6.0214   -5.4073   27.9163 C   0  0  0  0  0  0  0  0  0  0  0  0
    5.8703   -5.9241   28.8608 H   0  0  0  0  0  0  0  0  0  0  0  0
    5.1428   -5.6692   26.8265 C   0  0  0  0  0  0  0  0  0  0  0  0
    4.3388   -6.3889   26.9558 H   0  0  0  0  0  0  0  0  0  0  0  0
    5.3166   -5.0266   25.6231 C   0  0  0  0  0  0  0  0  0  0  0  0
    4.6527   -5.2239   24.7846 H   0  0  0  0  0  0  0  0  0  0  0  0
    6.3732   -4.0817   25.4457 C   0  0  0  0  0  0  0  0  0  0  0  0
    6.5870   -3.3961   24.2133 C   0  0  0  0  0  0  0  0  0  0  0  0
    5.9321   -3.5832   23.3670 H   0  0  0  0  0  0  0  0  0  0  0  0
    9.0278   -1.6799   22.1583 C   0  0  0  0  0  0  0  0  0  0  0  0
   10.5769   -2.1781   22.4938 S   0  0  0  0  0  0  0  0  0  0  0  0
    8.6906   -0.9964   21.0311 N   0  0  0  0  0  0  0  0  0  0  0  0
    9.4317   -0.7246   20.4087 H   0  0  0  0  0  0  0  0  0  0  0  0
    5.4413    0.6709   20.1301 C   0  0  0  0  0  0  0  0  0  0  0  0
    5.0099    0.6662   21.1309 H   0  0  0  0  0  0  0  0  0  0  0  0
    4.7974    1.3236   19.0790 C   0  0  0  0  0  0  0  0  0  0  0  0
    3.8618    1.8533   19.2263 H   0  0  0  0  0  0  0  0  0  0  0  0
  1  2  1  0
  2  3  2  0
  3  4  1  0
  4  5  1  0
  4  6  2  0
  6  7  1  0
  7  8  2  0
  8  9  1  0
  8 10  1  0
 10 11  1  0
 11 12  2  0
 12 13  1  0
 12 14  1  0
 14 15  1  0
 14 16  2  0
 16 17  1  0
 17 18  1  0
 17 19  2  0
 19 20  1  0
 19 21  1  0
 21 22  1  0
 21 23  2  0
 23 24  1  0
 23 25  1  0
 25 26  2  0
 26 27  1  0
 10 28  1  0
 28 29  2  0
 28 30  1  0
 30 31  1  0
  6 32  1  0
 32 33  1  0
 32 34  2  0
 34 35  1  0
 34  2  1  0
 30  7  1  0
 26 11  1  0
 25 16  1  0
M  END
>  <cnnaffinity>  (1) 
-5.64775

>  <filename>  (1) 
S=c1[nH]c(-c2cccnc2)cn1-c1ccc2ccccc2c1

$$$$
