
     RDKit          3D

 29 31  0  0  0  0  0  0  0  0999 V2000
    4.9181    1.8009   16.9699 H   0  0  0  0  0  0  0  0  0  0  0  0
    5.3917    1.3041   17.8167 C   0  0  0  0  0  0  0  0  0  0  0  0
    6.5568    0.6855   17.5630 N   0  0  0  0  0  0  0  0  0  0  0  0
    7.1715    0.0735   18.5841 C   0  0  0  0  0  0  0  0  0  0  0  0
    8.1072   -0.4208   18.3281 H   0  0  0  0  0  0  0  0  0  0  0  0
    6.6688    0.0237   19.8985 C   0  0  0  0  0  0  0  0  0  0  0  0
    7.3375   -0.6977   20.9870 C   0  0  0  0  0  0  0  0  0  0  0  0
    6.8147   -1.2392   22.1041 C   0  0  0  0  0  0  0  0  0  0  0  0
    5.7975   -1.2899   22.4076 H   0  0  0  0  0  0  0  0  0  0  0  0
    7.8257   -1.8389   22.8388 N   0  0  0  0  0  0  0  0  0  0  0  0
    7.6234   -2.4872   24.0919 C   0  0  0  0  0  0  0  0  0  0  0  0
    8.4662   -2.2101   25.1711 C   0  0  0  0  0  0  0  0  0  0  0  0
    9.2757   -1.4993   25.0434 H   0  0  0  0  0  0  0  0  0  0  0  0
    8.2725   -2.8750   26.3812 C   0  0  0  0  0  0  0  0  0  0  0  0
    8.9307   -2.6913   27.2218 H   0  0  0  0  0  0  0  0  0  0  0  0
    7.2394   -3.8083   26.5248 C   0  0  0  0  0  0  0  0  0  0  0  0
    7.0612   -4.6285   28.0382 Cl  0  0  0  0  0  0  0  0  0  0  0  0
    6.3820   -4.0629   25.4426 C   0  0  0  0  0  0  0  0  0  0  0  0
    5.0742   -5.1855   25.5686 Cl  0  0  0  0  0  0  0  0  0  0  0  0
    6.5706   -3.3967   24.2297 C   0  0  0  0  0  0  0  0  0  0  0  0
    5.9034   -3.6054   23.4000 H   0  0  0  0  0  0  0  0  0  0  0  0
    9.0198   -1.6860   22.1664 C   0  0  0  0  0  0  0  0  0  0  0  0
   10.5661   -2.1865   22.5009 S   0  0  0  0  0  0  0  0  0  0  0  0
    8.6859   -0.9969   21.0409 N   0  0  0  0  0  0  0  0  0  0  0  0
    9.4184   -0.7221   20.4104 H   0  0  0  0  0  0  0  0  0  0  0  0
    5.4401    0.6677   20.1348 C   0  0  0  0  0  0  0  0  0  0  0  0
    5.0093    0.6612   21.1358 H   0  0  0  0  0  0  0  0  0  0  0  0
    4.7978    1.3224   19.0831 C   0  0  0  0  0  0  0  0  0  0  0  0
    3.8637    1.8519   19.2322 H   0  0  0  0  0  0  0  0  0  0  0  0
  1  2  1  0
  2  3  2  0
  3  4  1  0
  4  5  1  0
  4  6  2  0
  6  7  1  0
  7  8  2  0
  8  9  1  0
  8 10  1  0
 10 11  1  0
 11 12  2  0
 12 13  1  0
 12 14  1  0
 14 15  1  0
 14 16  2  0
 16 17  1  0
 16 18  1  0
 18 19  1  0
 18 20  2  0
 20 21  1  0
 10 22  1  0
 22 23  2  0
 22 24  1  0
 24 25  1  0
  6 26  1  0
 26 27  1  0
 26 28  2  0
 28 29  1  0
 28  2  1  0
 24  7  1  0
 20 11  1  0
M  END
>  <cnnaffinity>  (1) 
-5.7483

>  <filename>  (1) 
S=c1[nH]c(-c2cccnc2)cn1-c1ccc(Cl)c(Cl)c1

$$$$
