
     RDKit          3D

 42 45  0  0  0  0  0  0  0  0999 V2000
    5.9417   -4.7134   30.2171 H   0  0  0  0  0  0  0  0  0  0  0  0
    6.4869   -5.2409   29.4370 C   0  0  0  0  0  0  0  0  0  0  0  0
    6.5438   -4.6427   28.2459 N   0  0  0  0  0  0  0  0  0  0  0  0
    7.2596   -5.2452   27.2839 C   0  0  0  0  0  0  0  0  0  0  0  0
    7.3112   -4.6128   26.0711 N   0  0  0  0  0  0  0  0  0  0  0  0
    8.3547   -4.8879   25.0820 C   0  0  0  0  0  0  0  0  0  0  0  0
    8.0298   -5.6602   24.3707 H   0  0  0  0  0  0  0  0  0  0  0  0
    9.2545   -5.2570   25.5788 H   0  0  0  0  0  0  0  0  0  0  0  0
    8.7494   -3.6302   24.2909 C   0  0  0  0  0  0  0  0  0  0  0  0
    9.4589   -3.9366   23.5081 H   0  0  0  0  0  0  0  0  0  0  0  0
    9.2838   -2.9467   24.9661 H   0  0  0  0  0  0  0  0  0  0  0  0
    7.5722   -2.9818   23.7038 N   0  0  0  0  0  0  0  0  0  0  0  0
    7.6335   -2.1296   22.6448 C   0  0  0  0  0  0  0  0  0  0  0  0
    6.7015   -1.6699   21.7780 C   0  0  0  0  0  0  0  0  0  0  0  0
    5.6515   -1.8993   21.6857 H   0  0  0  0  0  0  0  0  0  0  0  0
    7.3266   -0.7181   20.9584 N   0  0  0  0  0  0  0  0  0  0  0  0
    6.6644   -0.0181   19.8997 C   0  0  0  0  0  0  0  0  0  0  0  0
    7.1783    0.0250   18.5873 C   0  0  0  0  0  0  0  0  0  0  0  0
    8.1272   -0.4605   18.3561 H   0  0  0  0  0  0  0  0  0  0  0  0
    6.5551    0.6488   17.5783 N   0  0  0  0  0  0  0  0  0  0  0  0
    5.4018    1.2879   17.8329 C   0  0  0  0  0  0  0  0  0  0  0  0
    4.9394    1.8103   16.9940 H   0  0  0  0  0  0  0  0  0  0  0  0
    4.8126    1.3073   19.1006 C   0  0  0  0  0  0  0  0  0  0  0  0
    3.8840    1.8483   19.2527 H   0  0  0  0  0  0  0  0  0  0  0  0
    5.4550    0.6403   20.1494 C   0  0  0  0  0  0  0  0  0  0  0  0
    5.0539    0.6384   21.1614 H   0  0  0  0  0  0  0  0  0  0  0  0
    8.6309   -0.5400   21.3756 C   0  0  0  0  0  0  0  0  0  0  0  0
    9.7820    0.5657   20.9139 S   0  0  0  0  0  0  0  0  0  0  0  0
    8.8105   -1.4810   22.3359 N   0  0  0  0  0  0  0  0  0  0  0  0
    9.6587   -1.4969   22.8677 H   0  0  0  0  0  0  0  0  0  0  0  0
    6.2519   -3.3383   24.2290 C   0  0  0  0  0  0  0  0  0  0  0  0
    5.5485   -2.5180   24.0471 H   0  0  0  0  0  0  0  0  0  0  0  0
    5.8670   -4.2273   23.7084 H   0  0  0  0  0  0  0  0  0  0  0  0
    6.2879   -3.6218   25.7296 C   0  0  0  0  0  0  0  0  0  0  0  0
    6.4577   -2.6960   26.2917 H   0  0  0  0  0  0  0  0  0  0  0  0
    5.3004   -3.9933   26.0236 H   0  0  0  0  0  0  0  0  0  0  0  0
    7.9181   -6.4756   27.4762 C   0  0  0  0  0  0  0  0  0  0  0  0
    8.4616   -6.9247   26.6547 H   0  0  0  0  0  0  0  0  0  0  0  0
    7.7930   -7.1037   28.7052 C   0  0  0  0  0  0  0  0  0  0  0  0
    8.2574   -8.0751   28.8630 H   0  0  0  0  0  0  0  0  0  0  0  0
    7.0668   -6.4739   29.7188 C   0  0  0  0  0  0  0  0  0  0  0  0
    6.9417   -6.9321   30.6907 H   0  0  0  0  0  0  0  0  0  0  0  0
  1  2  1  0
  2  3  2  0
  3  4  1  0
  4  5  1  0
  5  6  1  0
  6  7  1  0
  6  8  1  0
  6  9  1  0
  9 10  1  0
  9 11  1  0
  9 12  1  0
 12 13  1  0
 13 14  2  0
 14 15  1  0
 14 16  1  0
 16 17  1  0
 17 18  2  0
 18 19  1  0
 18 20  1  0
 20 21  2  0
 21 22  1  0
 21 23  1  0
 23 24  1  0
 23 25  2  0
 25 26  1  0
 16 27  1  0
 27 28  2  0
 27 29  1  0
 29 30  1  0
 12 31  1  0
 31 32  1  0
 31 33  1  0
 31 34  1  0
 34 35  1  0
 34 36  1  0
  4 37  2  0
 37 38  1  0
 37 39  1  0
 39 40  1  0
 39 41  2  0
 41 42  1  0
 41  2  1  0
 34  5  1  0
 29 13  1  0
 25 17  1  0
M  END
>  <cnnaffinity>  (1) 
-5.59323

>  <filename>  (1) 
S=c1[nH]c(N2CCN(c3ccccn3)CC2)cn1-c1cccnc1

$$$$
