
     RDKit          3D

 32 35  0  0  0  0  0  0  0  0999 V2000
    4.9247    1.7878   16.9923 H   0  0  0  0  0  0  0  0  0  0  0  0
    5.3998    1.2955   17.8358 C   0  0  0  0  0  0  0  0  0  0  0  0
    6.5651    0.6810   17.5758 N   0  0  0  0  0  0  0  0  0  0  0  0
    7.1635    0.0513   18.5887 C   0  0  0  0  0  0  0  0  0  0  0  0
    8.1125   -0.4353   18.3665 H   0  0  0  0  0  0  0  0  0  0  0  0
    6.6415    0.0106   19.8909 C   0  0  0  0  0  0  0  0  0  0  0  0
    7.3793   -0.7187   20.9168 C   0  0  0  0  0  0  0  0  0  0  0  0
    7.9817   -1.8487   20.6993 N   0  0  0  0  0  0  0  0  0  0  0  0
    8.4823   -2.1939   21.9146 N   0  0  0  0  0  0  0  0  0  0  0  0
    9.0289   -3.0251   22.0650 H   0  0  0  0  0  0  0  0  0  0  0  0
    8.2558   -1.2919   22.8880 C   0  0  0  0  0  0  0  0  0  0  0  0
    8.8158   -1.3825   24.4439 S   0  0  0  0  0  0  0  0  0  0  0  0
    7.5057   -0.3257   22.2394 N   0  0  0  0  0  0  0  0  0  0  0  0
    7.1228    0.9331   22.8104 C   0  0  0  0  0  0  0  0  0  0  0  0
    6.3484    0.9298   23.9993 C   0  0  0  0  0  0  0  0  0  0  0  0
    6.0810   -0.0176   24.4628 H   0  0  0  0  0  0  0  0  0  0  0  0
    5.9615    2.1293   24.5822 C   0  0  0  0  0  0  0  0  0  0  0  0
    5.3846    2.1526   25.5015 H   0  0  0  0  0  0  0  0  0  0  0  0
    6.3326    3.3487   23.9823 C   0  0  0  0  0  0  0  0  0  0  0  0
    6.1037    4.7353   24.2945 C   0  0  0  0  0  0  0  0  0  0  0  0
    5.5514    5.1066   25.1456 H   0  0  0  0  0  0  0  0  0  0  0  0
    6.7098    5.4770   23.3195 C   0  0  0  0  0  0  0  0  0  0  0  0
    6.7631    6.5532   23.1892 H   0  0  0  0  0  0  0  0  0  0  0  0
    7.3129    4.6202   22.4131 N   0  0  0  0  0  0  0  0  0  0  0  0
    7.8199    4.8862   21.5890 H   0  0  0  0  0  0  0  0  0  0  0  0
    7.1046    3.3179   22.7934 C   0  0  0  0  0  0  0  0  0  0  0  0
    7.5219    2.1155   22.1995 C   0  0  0  0  0  0  0  0  0  0  0  0
    8.0825    2.0990   21.2666 H   0  0  0  0  0  0  0  0  0  0  0  0
    5.4197    0.6492   20.1497 C   0  0  0  0  0  0  0  0  0  0  0  0
    5.0086    0.6379   21.1626 H   0  0  0  0  0  0  0  0  0  0  0  0
    4.7957    1.3086   19.0978 C   0  0  0  0  0  0  0  0  0  0  0  0
    3.8685    1.8448   19.2481 H   0  0  0  0  0  0  0  0  0  0  0  0
  1  2  1  0
  2  3  2  0
  3  4  1  0
  4  5  1  0
  4  6  2  0
  6  7  1  0
  7  8  2  0
  8  9  1  0
  9 10  1  0
  9 11  1  0
 11 12  2  0
 11 13  1  0
 13 14  1  0
 14 15  2  0
 15 16  1  0
 15 17  1  0
 17 18  1  0
 17 19  2  0
 19 20  1  0
 20 21  1  0
 20 22  2  0
 22 23  1  0
 22 24  1  0
 24 25  1  0
 24 26  1  0
 26 27  2  0
 27 28  1  0
  6 29  1  0
 29 30  1  0
 29 31  2  0
 31 32  1  0
 31  2  1  0
 13  7  1  0
 27 14  1  0
 26 19  1  0
M  END
>  <cnnaffinity>  (1) 
-5.29908

>  <filename>  (1) 
S=c1[nH]nc(-c2cccnc2)n1-c1ccc2cc[nH]c2c1

$$$$
