
     RDKit          3D

 25 27  0  0  0  0  0  0  0  0999 V2000
    5.8354   -4.9275   25.5164 H   0  0  0  0  0  0  0  0  0  0  0  0
    6.6766   -4.3660   25.1241 C   0  0  0  0  0  0  0  0  0  0  0  0
    7.9053   -4.3450   25.5276 N   0  0  0  0  0  0  0  0  0  0  0  0
    8.5181   -3.4554   24.6594 C   0  0  0  0  0  0  0  0  0  0  0  0
    9.5705   -3.2178   24.7376 H   0  0  0  0  0  0  0  0  0  0  0  0
    7.6122   -2.9863   23.7660 C   0  0  0  0  0  0  0  0  0  0  0  0
    7.6718   -2.0598   22.6603 C   0  0  0  0  0  0  0  0  0  0  0  0
    6.7260   -1.5999   21.8023 C   0  0  0  0  0  0  0  0  0  0  0  0
    5.6734   -1.8375   21.7217 H   0  0  0  0  0  0  0  0  0  0  0  0
    7.3195   -0.6859   20.9479 N   0  0  0  0  0  0  0  0  0  0  0  0
    6.6461    0.0000   19.8899 C   0  0  0  0  0  0  0  0  0  0  0  0
    7.1707    0.0452   18.5812 C   0  0  0  0  0  0  0  0  0  0  0  0
    8.1256   -0.4302   18.3561 H   0  0  0  0  0  0  0  0  0  0  0  0
    6.5525    0.6630   17.5692 N   0  0  0  0  0  0  0  0  0  0  0  0
    5.3967    1.2912   17.8351 C   0  0  0  0  0  0  0  0  0  0  0  0
    4.9314    1.7962   16.9950 H   0  0  0  0  0  0  0  0  0  0  0  0
    4.8061    1.3120   19.1030 C   0  0  0  0  0  0  0  0  0  0  0  0
    3.8762    1.8443   19.2571 H   0  0  0  0  0  0  0  0  0  0  0  0
    5.4389    0.6477   20.1552 C   0  0  0  0  0  0  0  0  0  0  0  0
    5.0383    0.6326   21.1704 H   0  0  0  0  0  0  0  0  0  0  0  0
    8.6457   -0.5187   21.3019 C   0  0  0  0  0  0  0  0  0  0  0  0
    9.8102    0.5309   20.7613 S   0  0  0  0  0  0  0  0  0  0  0  0
    8.8409   -1.3998   22.3053 N   0  0  0  0  0  0  0  0  0  0  0  0
    9.7669   -1.4142   22.7039 H   0  0  0  0  0  0  0  0  0  0  0  0
    6.4115   -3.5777   24.0656 O   0  0  0  0  0  0  0  0  0  0  0  0
  1  2  1  0
  2  3  2  0
  3  4  1  0
  4  5  1  0
  4  6  2  0
  6  7  1  0
  7  8  2  0
  8  9  1  0
  8 10  1  0
 10 11  1  0
 11 12  2  0
 12 13  1  0
 12 14  1  0
 14 15  2  0
 15 16  1  0
 15 17  1  0
 17 18  1  0
 17 19  2  0
 19 20  1  0
 10 21  1  0
 21 22  2  0
 21 23  1  0
 23 24  1  0
  6 25  1  0
 25  2  1  0
 23  7  1  0
 19 11  1  0
M  END
>  <cnnaffinity>  (1) 
-5.09457

>  <filename>  (1) 
S=c1[nH]c(-c2cnco2)cn1-c1cccnc1

$$$$
