
     RDKit          3D

 34 36  0  0  0  0  0  0  0  0999 V2000
    4.9298    1.7932   16.9984 H   0  0  0  0  0  0  0  0  0  0  0  0
    5.3971    1.2893   17.8394 C   0  0  0  0  0  0  0  0  0  0  0  0
    6.5532    0.6612   17.5738 N   0  0  0  0  0  0  0  0  0  0  0  0
    7.1732    0.0445   18.5853 C   0  0  0  0  0  0  0  0  0  0  0  0
    8.1260   -0.4316   18.3613 H   0  0  0  0  0  0  0  0  0  0  0  0
    6.6540   -0.0021   19.8958 C   0  0  0  0  0  0  0  0  0  0  0  0
    7.3348   -0.6864   20.9444 N   0  0  0  0  0  0  0  0  0  0  0  0
    6.7384   -1.6157   21.7939 C   0  0  0  0  0  0  0  0  0  0  0  0
    5.6878   -1.8376   21.7049 H   0  0  0  0  0  0  0  0  0  0  0  0
    7.6781   -2.0763   22.6576 C   0  0  0  0  0  0  0  0  0  0  0  0
    7.5502   -3.0183   23.8365 C   0  0  0  0  0  0  0  0  0  0  0  0
    6.7825   -3.7633   23.5966 H   0  0  0  0  0  0  0  0  0  0  0  0
    8.4835   -3.5817   23.9663 H   0  0  0  0  0  0  0  0  0  0  0  0
    7.1987   -2.4139   25.1284 N   0  0  0  0  0  0  0  0  0  0  0  0
    8.1863   -1.4541   25.6331 C   0  0  0  0  0  0  0  0  0  0  0  0
    9.0608   -1.9808   26.0384 H   0  0  0  0  0  0  0  0  0  0  0  0
    8.5559   -0.8004   24.8247 H   0  0  0  0  0  0  0  0  0  0  0  0
    7.4321   -0.6373   26.6971 C   0  0  0  0  0  0  0  0  0  0  0  0
    7.6267   -1.0379   27.6956 H   0  0  0  0  0  0  0  0  0  0  0  0
    7.7699    0.4047   26.7012 H   0  0  0  0  0  0  0  0  0  0  0  0
    5.9340   -0.7767   26.3335 C   0  0  0  0  0  0  0  0  0  0  0  0
    5.4724    0.1833   26.0755 H   0  0  0  0  0  0  0  0  0  0  0  0
    5.3581   -1.1838   27.1704 H   0  0  0  0  0  0  0  0  0  0  0  0
    5.9041   -1.7242   25.1229 C   0  0  0  0  0  0  0  0  0  0  0  0
    5.7954   -1.1380   24.1999 H   0  0  0  0  0  0  0  0  0  0  0  0
    5.0747   -2.4445   25.1583 H   0  0  0  0  0  0  0  0  0  0  0  0
    8.8505   -1.4258   22.2894 N   0  0  0  0  0  0  0  0  0  0  0  0
    9.7706   -1.4275   22.7020 H   0  0  0  0  0  0  0  0  0  0  0  0
    8.6544   -0.5234   21.2971 C   0  0  0  0  0  0  0  0  0  0  0  0
    9.8230    0.5305   20.7732 S   0  0  0  0  0  0  0  0  0  0  0  0
    5.4430    0.6437   20.1607 C   0  0  0  0  0  0  0  0  0  0  0  0
    5.0410    0.6248   21.1763 H   0  0  0  0  0  0  0  0  0  0  0  0
    4.8079    1.3095   19.1084 C   0  0  0  0  0  0  0  0  0  0  0  0
    3.8779    1.8422   19.2600 H   0  0  0  0  0  0  0  0  0  0  0  0
  1  2  1  0
  2  3  2  0
  3  4  1  0
  4  5  1  0
  4  6  2  0
  6  7  1  0
  7  8  1  0
  8  9  1  0
  8 10  2  0
 10 11  1  0
 11 12  1  0
 11 13  1  0
 11 14  1  0
 14 15  1  0
 15 16  1  0
 15 17  1  0
 15 18  1  0
 18 19  1  0
 18 20  1  0
 18 21  1  0
 21 22  1  0
 21 23  1  0
 21 24  1  0
 24 25  1  0
 24 26  1  0
 10 27  1  0
 27 28  1  0
 27 29  1  0
 29 30  2  0
  6 31  1  0
 31 32  1  0
 31 33  2  0
 33 34  1  0
 33  2  1  0
 29  7  1  0
 24 14  1  0
M  END
>  <cnnaffinity>  (1) 
-5.06932

>  <filename>  (1) 
S=c1[nH]c(CN2CCCC2)cn1-c1cccnc1

$$$$
