
     RDKit          3D

 33 35  0  0  0  0  0  0  0  0999 V2000
    5.1576    1.8805   16.7803 H   0  0  0  0  0  0  0  0  0  0  0  0
    5.4722    1.3569   17.6804 C   0  0  0  0  0  0  0  0  0  0  0  0
    6.6128    0.6537   17.5886 N   0  0  0  0  0  0  0  0  0  0  0  0
    7.0277   -0.0025   18.6811 C   0  0  0  0  0  0  0  0  0  0  0  0
    7.9607   -0.5616   18.6175 H   0  0  0  0  0  0  0  0  0  0  0  0
    6.3246    0.0076   19.8992 C   0  0  0  0  0  0  0  0  0  0  0  0
    6.8086   -0.6784   21.0562 N   0  0  0  0  0  0  0  0  0  0  0  0
    7.3645    0.0030   22.1435 C   0  0  0  0  0  0  0  0  0  0  0  0
    7.6580    1.0366   22.0692 H   0  0  0  0  0  0  0  0  0  0  0  0
    7.4728   -0.8911   23.1469 C   0  0  0  0  0  0  0  0  0  0  0  0
    7.9389   -0.8257   24.4501 N   0  0  0  0  0  0  0  0  0  0  0  0
    8.0645    0.1488   24.6864 H   0  0  0  0  0  0  0  0  0  0  0  0
    9.1738   -1.5723   24.7220 C   0  0  0  0  0  0  0  0  0  0  0  0
    8.9532   -2.6431   24.6645 H   0  0  0  0  0  0  0  0  0  0  0  0
    9.4526   -1.3826   25.7688 H   0  0  0  0  0  0  0  0  0  0  0  0
   10.3066   -1.2218   23.7874 C   0  0  0  0  0  0  0  0  0  0  0  0
   10.6957    0.1226   23.6631 C   0  0  0  0  0  0  0  0  0  0  0  0
   10.1649    0.9062   24.2087 H   0  0  0  0  0  0  0  0  0  0  0  0
   11.7205    0.5415   22.9142 N   0  0  0  0  0  0  0  0  0  0  0  0
   12.3766   -0.3831   22.2040 C   0  0  0  0  0  0  0  0  0  0  0  0
   13.2500   -0.0413   21.6561 H   0  0  0  0  0  0  0  0  0  0  0  0
   11.9931   -1.7257   22.1510 C   0  0  0  0  0  0  0  0  0  0  0  0
   12.5062   -2.3855   21.4626 H   0  0  0  0  0  0  0  0  0  0  0  0
   10.9537   -2.1687   22.9742 C   0  0  0  0  0  0  0  0  0  0  0  0
   10.6694   -3.2270   23.0189 H   0  0  0  0  0  0  0  0  0  0  0  0
    7.0223   -2.0869   22.6754 N   0  0  0  0  0  0  0  0  0  0  0  0
    6.7771   -2.8599   23.2658 H   0  0  0  0  0  0  0  0  0  0  0  0
    6.5565   -1.9921   21.4020 C   0  0  0  0  0  0  0  0  0  0  0  0
    5.8480   -3.2315   20.5524 S   0  0  0  0  0  0  0  0  0  0  0  0
    5.1352    0.7375   19.9866 C   0  0  0  0  0  0  0  0  0  0  0  0
    4.5797    0.7641   20.9255 H   0  0  0  0  0  0  0  0  0  0  0  0
    4.7025    1.4185   18.8470 C   0  0  0  0  0  0  0  0  0  0  0  0
    3.7953    2.0080   18.8559 H   0  0  0  0  0  0  0  0  0  0  0  0
  1  2  1  0
  2  3  2  0
  3  4  1  0
  4  5  1  0
  4  6  2  0
  6  7  1  0
  7  8  1  0
  8  9  1  0
  8 10  2  0
 10 11  1  0
 11 12  1  0
 11 13  1  0
 13 14  1  0
 13 15  1  0
 13 16  1  0
 16 17  2  0
 17 18  1  0
 17 19  1  0
 19 20  2  0
 20 21  1  0
 20 22  1  0
 22 23  1  0
 22 24  2  0
 24 25  1  0
 10 26  1  0
 26 27  1  0
 26 28  1  0
 28 29  2  0
  6 30  1  0
 30 31  1  0
 30 32  2  0
 32 33  1  0
 32  2  1  0
 28  7  1  0
 24 16  1  0
M  END
>  <cnnaffinity>  (1) 
-5.5547

>  <filename>  (1) 
S=c1[nH]c(NCc2cccnc2)cn1-c1cccnc1

$$$$
