
     RDKit          3D

 38 41  0  0  0  0  0  0  0  0999 V2000
    4.9350    1.7964   17.0001 H   0  0  0  0  0  0  0  0  0  0  0  0
    5.3996    1.2866   17.8395 C   0  0  0  0  0  0  0  0  0  0  0  0
    6.5544    0.6563   17.5732 N   0  0  0  0  0  0  0  0  0  0  0  0
    7.1753    0.0392   18.5857 C   0  0  0  0  0  0  0  0  0  0  0  0
    8.1278   -0.4345   18.3567 H   0  0  0  0  0  0  0  0  0  0  0  0
    6.6566   -0.0085   19.8970 C   0  0  0  0  0  0  0  0  0  0  0  0
    7.3317   -0.6960   20.9500 N   0  0  0  0  0  0  0  0  0  0  0  0
    6.7113   -1.6114   21.8072 C   0  0  0  0  0  0  0  0  0  0  0  0
    5.6654   -1.8512   21.7499 H   0  0  0  0  0  0  0  0  0  0  0  0
    7.6537   -2.0603   22.6676 C   0  0  0  0  0  0  0  0  0  0  0  0
    7.5898   -2.8609   23.7736 N   0  0  0  0  0  0  0  0  0  0  0  0
    6.2561   -3.1275   24.3025 C   0  0  0  0  0  0  0  0  0  0  0  0
    5.7005   -2.1803   24.2913 H   0  0  0  0  0  0  0  0  0  0  0  0
    5.6941   -3.8255   23.6531 H   0  0  0  0  0  0  0  0  0  0  0  0
    6.2487   -3.6786   25.7227 C   0  0  0  0  0  0  0  0  0  0  0  0
    5.0234   -3.8693   26.3828 C   0  0  0  0  0  0  0  0  0  0  0  0
    4.0940   -3.6128   25.8758 H   0  0  0  0  0  0  0  0  0  0  0  0
    4.9831   -4.3768   27.6846 C   0  0  0  0  0  0  0  0  0  0  0  0
    4.0262   -4.5135   28.1859 H   0  0  0  0  0  0  0  0  0  0  0  0
    6.1774   -4.7023   28.3398 C   0  0  0  0  0  0  0  0  0  0  0  0
    6.1567   -5.0923   29.3564 H   0  0  0  0  0  0  0  0  0  0  0  0
    7.3990   -4.5177   27.6830 C   0  0  0  0  0  0  0  0  0  0  0  0
    8.3364   -4.7663   28.1774 H   0  0  0  0  0  0  0  0  0  0  0  0
    7.4496   -4.0092   26.3772 C   0  0  0  0  0  0  0  0  0  0  0  0
    8.7806   -3.7762   25.6750 C   0  0  0  0  0  0  0  0  0  0  0  0
    9.5170   -4.5193   26.0037 H   0  0  0  0  0  0  0  0  0  0  0  0
    9.1658   -2.7890   25.9607 H   0  0  0  0  0  0  0  0  0  0  0  0
    8.6323   -3.8065   24.1506 C   0  0  0  0  0  0  0  0  0  0  0  0
    9.5763   -3.5588   23.6547 H   0  0  0  0  0  0  0  0  0  0  0  0
    8.3638   -4.8234   23.8205 H   0  0  0  0  0  0  0  0  0  0  0  0
    8.8358   -1.4507   22.3110 N   0  0  0  0  0  0  0  0  0  0  0  0
    9.6916   -1.4289   22.8352 H   0  0  0  0  0  0  0  0  0  0  0  0
    8.6501   -0.5418   21.3200 C   0  0  0  0  0  0  0  0  0  0  0  0
    9.8185    0.5136   20.8158 S   0  0  0  0  0  0  0  0  0  0  0  0
    5.4458    0.6410   20.1602 C   0  0  0  0  0  0  0  0  0  0  0  0
    5.0436    0.6294   21.1764 H   0  0  0  0  0  0  0  0  0  0  0  0
    4.8094    1.3069   19.1086 C   0  0  0  0  0  0  0  0  0  0  0  0
    3.8795    1.8416   19.2611 H   0  0  0  0  0  0  0  0  0  0  0  0
  1  2  1  0
  2  3  2  0
  3  4  1  0
  4  5  1  0
  4  6  2  0
  6  7  1  0
  7  8  1  0
  8  9  1  0
  8 10  2  0
 10 11  1  0
 11 12  1  0
 12 13  1  0
 12 14  1  0
 12 15  1  0
 15 16  2  0
 16 17  1  0
 16 18  1  0
 18 19  1  0
 18 20  2  0
 20 21  1  0
 20 22  1  0
 22 23  1  0
 22 24  2  0
 24 25  1  0
 25 26  1  0
 25 27  1  0
 25 28  1  0
 28 29  1  0
 28 30  1  0
 10 31  1  0
 31 32  1  0
 31 33  1  0
 33 34  2  0
  6 35  1  0
 35 36  1  0
 35 37  2  0
 37 38  1  0
 37  2  1  0
 33  7  1  0
 28 11  1  0
 24 15  1  0
M  END
>  <cnnaffinity>  (1) 
-5.35468

>  <filename>  (1) 
S=c1[nH]c(N2CCc3ccccc3C2)cn1-c1cccnc1

$$$$
