
     RDKit          3D

 29 31  0  0  0  0  0  0  0  0999 V2000
    4.9341    1.7989   16.9970 H   0  0  0  0  0  0  0  0  0  0  0  0
    5.3983    1.2891   17.8350 C   0  0  0  0  0  0  0  0  0  0  0  0
    6.5533    0.6584   17.5675 N   0  0  0  0  0  0  0  0  0  0  0  0
    7.1715    0.0417   18.5819 C   0  0  0  0  0  0  0  0  0  0  0  0
    8.1261   -0.4349   18.3628 H   0  0  0  0  0  0  0  0  0  0  0  0
    6.6517   -0.0028   19.8920 C   0  0  0  0  0  0  0  0  0  0  0  0
    7.3340   -0.6883   20.9460 N   0  0  0  0  0  0  0  0  0  0  0  0
    6.7344   -1.6086   21.7953 C   0  0  0  0  0  0  0  0  0  0  0  0
    5.6841   -1.8391   21.6908 H   0  0  0  0  0  0  0  0  0  0  0  0
    7.6745   -2.0703   22.6580 C   0  0  0  0  0  0  0  0  0  0  0  0
    7.5626   -3.0148   23.7761 C   0  0  0  0  0  0  0  0  0  0  0  0
    6.2890   -3.2689   24.3123 C   0  0  0  0  0  0  0  0  0  0  0  0
    5.4342   -2.7351   23.9104 H   0  0  0  0  0  0  0  0  0  0  0  0
    6.1146   -4.1810   25.3513 C   0  0  0  0  0  0  0  0  0  0  0  0
    5.1289   -4.3865   25.7583 H   0  0  0  0  0  0  0  0  0  0  0  0
    7.2191   -4.8553   25.8870 C   0  0  0  0  0  0  0  0  0  0  0  0
    6.9514   -5.9814   27.1772 Cl  0  0  0  0  0  0  0  0  0  0  0  0
    8.5032   -4.6019   25.3678 C   0  0  0  0  0  0  0  0  0  0  0  0
    9.9096   -5.4022   25.9934 Cl  0  0  0  0  0  0  0  0  0  0  0  0
    8.6682   -3.6898   24.3216 C   0  0  0  0  0  0  0  0  0  0  0  0
    9.6716   -3.5366   23.9350 H   0  0  0  0  0  0  0  0  0  0  0  0
    8.8468   -1.4165   22.3036 N   0  0  0  0  0  0  0  0  0  0  0  0
    9.7472   -1.3984   22.7494 H   0  0  0  0  0  0  0  0  0  0  0  0
    8.6532   -0.5187   21.3079 C   0  0  0  0  0  0  0  0  0  0  0  0
    9.8109    0.5449   20.7857 S   0  0  0  0  0  0  0  0  0  0  0  0
    5.4410    0.6449   20.1552 C   0  0  0  0  0  0  0  0  0  0  0  0
    5.0326    0.6344   21.1680 H   0  0  0  0  0  0  0  0  0  0  0  0
    4.8062    1.3098   19.1034 C   0  0  0  0  0  0  0  0  0  0  0  0
    3.8750    1.8436   19.2608 H   0  0  0  0  0  0  0  0  0  0  0  0
  1  2  1  0
  2  3  2  0
  3  4  1  0
  4  5  1  0
  4  6  2  0
  6  7  1  0
  7  8  1  0
  8  9  1  0
  8 10  2  0
 10 11  1  0
 11 12  2  0
 12 13  1  0
 12 14  1  0
 14 15  1  0
 14 16  2  0
 16 17  1  0
 16 18  1  0
 18 19  1  0
 18 20  2  0
 20 21  1  0
 10 22  1  0
 22 23  1  0
 22 24  1  0
 24 25  2  0
  6 26  1  0
 26 27  1  0
 26 28  2  0
 28 29  1  0
 28  2  1  0
 24  7  1  0
 20 11  1  0
M  END
>  <cnnaffinity>  (1) 
-5.90713

>  <filename>  (1) 
S=c1[nH]c(-c2ccc(Cl)c(Cl)c2)cn1-c1cccnc1

$$$$
