
     RDKit          3D

 35 38  0  0  0  0  0  0  0  0999 V2000
    4.8762    1.9125   16.6894 H   0  0  0  0  0  0  0  0  0  0  0  0
    5.3444    1.4458   17.5526 C   0  0  0  0  0  0  0  0  0  0  0  0
    6.5017    0.8034   17.3240 N   0  0  0  0  0  0  0  0  0  0  0  0
    7.1130    0.2123   18.3591 C   0  0  0  0  0  0  0  0  0  0  0  0
    8.0632   -0.2784   18.1474 H   0  0  0  0  0  0  0  0  0  0  0  0
    6.5707    0.2029   19.6600 C   0  0  0  0  0  0  0  0  0  0  0  0
    7.1765   -0.4926   20.7508 N   0  0  0  0  0  0  0  0  0  0  0  0
    6.5241   -1.4516   21.5253 C   0  0  0  0  0  0  0  0  0  0  0  0
    5.5297   -1.7684   21.2649 H   0  0  0  0  0  0  0  0  0  0  0  0
    7.3657   -1.8474   22.5068 C   0  0  0  0  0  0  0  0  0  0  0  0
    7.3143   -2.8796   23.5578 C   0  0  0  0  0  0  0  0  0  0  0  0
    6.0901   -3.2228   24.2235 C   0  0  0  0  0  0  0  0  0  0  0  0
    5.1605   -2.7485   23.9161 H   0  0  0  0  0  0  0  0  0  0  0  0
    6.0866   -4.1242   25.2616 C   0  0  0  0  0  0  0  0  0  0  0  0
    5.1697   -4.3867   25.7845 H   0  0  0  0  0  0  0  0  0  0  0  0
    7.3030   -4.7095   25.7250 C   0  0  0  0  0  0  0  0  0  0  0  0
    7.3404   -5.5888   26.8470 C   0  0  0  0  0  0  0  0  0  0  0  0
    6.3948   -5.8857   27.2924 H   0  0  0  0  0  0  0  0  0  0  0  0
    8.5392   -6.0325   27.3471 C   0  0  0  0  0  0  0  0  0  0  0  0
    8.5460   -6.6666   28.2302 H   0  0  0  0  0  0  0  0  0  0  0  0
    9.7624   -5.6507   26.7185 C   0  0  0  0  0  0  0  0  0  0  0  0
   10.7119   -5.9803   27.1215 H   0  0  0  0  0  0  0  0  0  0  0  0
    9.7549   -4.8581   25.6002 C   0  0  0  0  0  0  0  0  0  0  0  0
   10.6945   -4.5721   25.1355 H   0  0  0  0  0  0  0  0  0  0  0  0
    8.5285   -4.3694   25.0663 C   0  0  0  0  0  0  0  0  0  0  0  0
    8.4861   -3.5089   23.9417 C   0  0  0  0  0  0  0  0  0  0  0  0
    9.4001   -3.3547   23.3683 H   0  0  0  0  0  0  0  0  0  0  0  0
    8.5090   -1.0787   22.3318 N   0  0  0  0  0  0  0  0  0  0  0  0
    9.3070   -1.0069   22.9382 H   0  0  0  0  0  0  0  0  0  0  0  0
    8.4262   -0.2403   21.2739 C   0  0  0  0  0  0  0  0  0  0  0  0
    9.6279    0.7943   20.7914 S   0  0  0  0  0  0  0  0  0  0  0  0
    5.3810    0.8963   19.8931 C   0  0  0  0  0  0  0  0  0  0  0  0
    4.9892    0.9292   20.9117 H   0  0  0  0  0  0  0  0  0  0  0  0
    4.7510    1.5244   18.8175 C   0  0  0  0  0  0  0  0  0  0  0  0
    3.8196    2.0622   18.9503 H   0  0  0  0  0  0  0  0  0  0  0  0
  1  2  1  0
  2  3  2  0
  3  4  1  0
  4  5  1  0
  4  6  2  0
  6  7  1  0
  7  8  1  0
  8  9  1  0
  8 10  2  0
 10 11  1  0
 11 12  2  0
 12 13  1  0
 12 14  1  0
 14 15  1  0
 14 16  2  0
 16 17  1  0
 17 18  1  0
 17 19  2  0
 19 20  1  0
 19 21  1  0
 21 22  1  0
 21 23  2  0
 23 24  1  0
 23 25  1  0
 25 26  2  0
 26 27  1  0
 10 28  1  0
 28 29  1  0
 28 30  1  0
 30 31  2  0
  6 32  1  0
 32 33  1  0
 32 34  2  0
 34 35  1  0
 34  2  1  0
 30  7  1  0
 26 11  1  0
 25 16  1  0
M  END
>  <cnnaffinity>  (1) 
-5.65226

>  <filename>  (1) 
S=c1[nH]c(-c2ccc3ccccc3c2)cn1-c1cccnc1

$$$$
