
     RDKit          3D

 34 36  0  0  0  0  0  0  0  0999 V2000
    4.9413    1.7947   16.9809 H   0  0  0  0  0  0  0  0  0  0  0  0
    5.3956    1.2859   17.8277 C   0  0  0  0  0  0  0  0  0  0  0  0
    6.5587    0.6583   17.5827 N   0  0  0  0  0  0  0  0  0  0  0  0
    7.1779    0.0705   18.6140 C   0  0  0  0  0  0  0  0  0  0  0  0
    8.1212   -0.4299   18.3954 H   0  0  0  0  0  0  0  0  0  0  0  0
    6.6715    0.0827   19.9319 C   0  0  0  0  0  0  0  0  0  0  0  0
    7.3591   -0.5717   21.0052 N   0  0  0  0  0  0  0  0  0  0  0  0
    7.7384   -1.9041   20.9344 C   0  0  0  0  0  0  0  0  0  0  0  0
    7.3948   -2.4628   20.0819 H   0  0  0  0  0  0  0  0  0  0  0  0
    8.3858   -2.2373   22.0741 C   0  0  0  0  0  0  0  0  0  0  0  0
    9.0534   -3.5347   22.4447 C   0  0  0  0  0  0  0  0  0  0  0  0
   10.1385   -3.4044   22.5149 H   0  0  0  0  0  0  0  0  0  0  0  0
    8.8663   -4.1984   21.5951 H   0  0  0  0  0  0  0  0  0  0  0  0
    8.6073   -4.1970   23.6438 N   0  0  0  0  0  0  0  0  0  0  0  0
    9.1147   -4.0493   24.4984 H   0  0  0  0  0  0  0  0  0  0  0  0
    7.3173   -4.6489   23.8046 C   0  0  0  0  0  0  0  0  0  0  0  0
    6.9076   -5.0219   25.0961 C   0  0  0  0  0  0  0  0  0  0  0  0
    7.6120   -4.9028   25.9162 H   0  0  0  0  0  0  0  0  0  0  0  0
    5.6239   -5.5206   25.2981 C   0  0  0  0  0  0  0  0  0  0  0  0
    5.3151   -5.8027   26.3023 H   0  0  0  0  0  0  0  0  0  0  0  0
    4.7452   -5.6600   24.2157 C   0  0  0  0  0  0  0  0  0  0  0  0
    3.7504   -6.0623   24.3710 H   0  0  0  0  0  0  0  0  0  0  0  0
    5.1530   -5.2894   22.9308 C   0  0  0  0  0  0  0  0  0  0  0  0
    4.4816   -5.3997   22.0826 H   0  0  0  0  0  0  0  0  0  0  0  0
    6.4333   -4.7804   22.7185 C   0  0  0  0  0  0  0  0  0  0  0  0
    6.7618   -4.4636   21.7351 H   0  0  0  0  0  0  0  0  0  0  0  0
    8.3413   -1.0909   22.8560 N   0  0  0  0  0  0  0  0  0  0  0  0
    8.5786   -0.9408   23.8219 H   0  0  0  0  0  0  0  0  0  0  0  0
    7.6722   -0.0739   22.2531 C   0  0  0  0  0  0  0  0  0  0  0  0
    7.3290    1.3746   22.9923 S   0  0  0  0  0  0  0  0  0  0  0  0
    5.4374    0.6989   20.1657 C   0  0  0  0  0  0  0  0  0  0  0  0
    5.0175    0.6753   21.1722 H   0  0  0  0  0  0  0  0  0  0  0  0
    4.7886    1.3175   19.0895 C   0  0  0  0  0  0  0  0  0  0  0  0
    3.8469    1.8462   19.2247 H   0  0  0  0  0  0  0  0  0  0  0  0
  1  2  1  0
  2  3  2  0
  3  4  1  0
  4  5  1  0
  4  6  2  0
  6  7  1  0
  7  8  1  0
  8  9  1  0
  8 10  2  0
 10 11  1  0
 11 12  1  0
 11 13  1  0
 11 14  1  0
 14 15  1  0
 14 16  1  0
 16 17  2  0
 17 18  1  0
 17 19  1  0
 19 20  1  0
 19 21  2  0
 21 22  1  0
 21 23  1  0
 23 24  1  0
 23 25  2  0
 25 26  1  0
 10 27  1  0
 27 28  1  0
 27 29  1  0
 29 30  2  0
  6 31  1  0
 31 32  1  0
 31 33  2  0
 33 34  1  0
 33  2  1  0
 29  7  1  0
 25 16  1  0
M  END
>  <cnnaffinity>  (1) 
-5.23537

>  <filename>  (1) 
S=c1[nH]c(CNc2ccccc2)cn1-c1cccnc1

$$$$
