
     RDKit          3D

 32 35  0  0  0  0  0  0  0  0999 V2000
    4.9310    1.7991   16.9845 H   0  0  0  0  0  0  0  0  0  0  0  0
    5.3994    1.2989   17.8305 C   0  0  0  0  0  0  0  0  0  0  0  0
    6.5639    0.6802   17.5767 N   0  0  0  0  0  0  0  0  0  0  0  0
    7.1583    0.0468   18.5914 C   0  0  0  0  0  0  0  0  0  0  0  0
    8.1050   -0.4387   18.3610 H   0  0  0  0  0  0  0  0  0  0  0  0
    6.6381    0.0055   19.8940 C   0  0  0  0  0  0  0  0  0  0  0  0
    7.3684   -0.7380   20.9225 C   0  0  0  0  0  0  0  0  0  0  0  0
    7.9355   -1.8855   20.7165 N   0  0  0  0  0  0  0  0  0  0  0  0
    8.4301   -2.2344   21.9353 N   0  0  0  0  0  0  0  0  0  0  0  0
    8.9411   -3.0912   22.0973 H   0  0  0  0  0  0  0  0  0  0  0  0
    8.2327   -1.3296   22.9058 C   0  0  0  0  0  0  0  0  0  0  0  0
    8.7879   -1.4544   24.4637 S   0  0  0  0  0  0  0  0  0  0  0  0
    7.5093   -0.3395   22.2482 N   0  0  0  0  0  0  0  0  0  0  0  0
    7.2107    0.9392   22.7397 C   0  0  0  0  0  0  0  0  0  0  0  0
    7.4083    2.1593   22.1590 C   0  0  0  0  0  0  0  0  0  0  0  0
    7.7780    2.3178   21.1537 H   0  0  0  0  0  0  0  0  0  0  0  0
    6.9399    3.1390   23.0870 C   0  0  0  0  0  0  0  0  0  0  0  0
    6.8507    4.5458   23.0565 C   0  0  0  0  0  0  0  0  0  0  0  0
    7.1813    5.0803   22.1690 H   0  0  0  0  0  0  0  0  0  0  0  0
    6.3332    5.2132   24.1591 C   0  0  0  0  0  0  0  0  0  0  0  0
    6.2626    6.2962   24.1407 H   0  0  0  0  0  0  0  0  0  0  0  0
    5.8987    4.4968   25.3013 C   0  0  0  0  0  0  0  0  0  0  0  0
    5.5017    5.0514   26.1482 H   0  0  0  0  0  0  0  0  0  0  0  0
    5.9647    3.1073   25.3575 C   0  0  0  0  0  0  0  0  0  0  0  0
    5.6323    2.5669   26.2400 H   0  0  0  0  0  0  0  0  0  0  0  0
    6.4765    2.4324   24.2349 C   0  0  0  0  0  0  0  0  0  0  0  0
    6.6386    1.0829   23.9749 N   0  0  0  0  0  0  0  0  0  0  0  0
    6.5205    0.3165   24.6184 H   0  0  0  0  0  0  0  0  0  0  0  0
    5.4192    0.6519   20.1461 C   0  0  0  0  0  0  0  0  0  0  0  0
    5.0133    0.6558   21.1605 H   0  0  0  0  0  0  0  0  0  0  0  0
    4.7930    1.3104   19.0923 C   0  0  0  0  0  0  0  0  0  0  0  0
    3.8635    1.8471   19.2368 H   0  0  0  0  0  0  0  0  0  0  0  0
  1  2  1  0
  2  3  2  0
  3  4  1  0
  4  5  1  0
  4  6  2  0
  6  7  1  0
  7  8  2  0
  8  9  1  0
  9 10  1  0
  9 11  1  0
 11 12  2  0
 11 13  1  0
 13 14  1  0
 14 15  2  0
 15 16  1  0
 15 17  1  0
 17 18  2  0
 18 19  1  0
 18 20  1  0
 20 21  1  0
 20 22  2  0
 22 23  1  0
 22 24  1  0
 24 25  1  0
 24 26  2  0
 26 27  1  0
 27 28  1  0
  6 29  1  0
 29 30  1  0
 29 31  2  0
 31 32  1  0
 31  2  1  0
 13  7  1  0
 27 14  1  0
 26 17  1  0
M  END
>  <cnnaffinity>  (1) 
-5.24912

>  <filename>  (1) 
S=c1[nH]nc(-c2cccnc2)n1-c1cc2ccccc2[nH]1

$$$$
