
     RDKit          3D

 35 37  0  0  0  0  0  0  0  0999 V2000
    4.9249    1.7917   16.9986 H   0  0  0  0  0  0  0  0  0  0  0  0
    5.4000    1.2897   17.8386 C   0  0  0  0  0  0  0  0  0  0  0  0
    6.5571    0.6655   17.5714 N   0  0  0  0  0  0  0  0  0  0  0  0
    7.1771    0.0569   18.5886 C   0  0  0  0  0  0  0  0  0  0  0  0
    8.1163   -0.4433   18.3540 H   0  0  0  0  0  0  0  0  0  0  0  0
    6.6725    0.0190   19.9016 C   0  0  0  0  0  0  0  0  0  0  0  0
    7.3482   -0.6845   20.9492 N   0  0  0  0  0  0  0  0  0  0  0  0
    8.5971   -0.4046   21.4805 C   0  0  0  0  0  0  0  0  0  0  0  0
    9.4488    0.7452   21.0990 C   0  0  0  0  0  0  0  0  0  0  0  0
    9.2871    0.9537   20.0441 H   0  0  0  0  0  0  0  0  0  0  0  0
   10.4916    0.4501   21.2351 H   0  0  0  0  0  0  0  0  0  0  0  0
    9.1680    1.9880   21.9420 C   0  0  0  0  0  0  0  0  0  0  0  0
    9.9055    2.7708   21.7181 H   0  0  0  0  0  0  0  0  0  0  0  0
    9.2426    1.7368   23.0089 H   0  0  0  0  0  0  0  0  0  0  0  0
    7.8536    2.4401   21.6416 O   0  0  0  0  0  0  0  0  0  0  0  0
    7.3424    3.5373   22.2784 C   0  0  0  0  0  0  0  0  0  0  0  0
    8.0020    4.2591   23.2847 C   0  0  0  0  0  0  0  0  0  0  0  0
    8.9977    3.9632   23.5979 H   0  0  0  0  0  0  0  0  0  0  0  0
    7.3767    5.3642   23.8783 C   0  0  0  0  0  0  0  0  0  0  0  0
    7.8964    5.9173   24.6558 H   0  0  0  0  0  0  0  0  0  0  0  0
    6.0988    5.7619   23.4802 C   0  0  0  0  0  0  0  0  0  0  0  0
    5.6184    6.6226   23.9396 H   0  0  0  0  0  0  0  0  0  0  0  0
    5.4450    5.0425   22.4736 C   0  0  0  0  0  0  0  0  0  0  0  0
    4.4537    5.3505   22.1474 H   0  0  0  0  0  0  0  0  0  0  0  0
    6.0561    3.9385   21.8738 C   0  0  0  0  0  0  0  0  0  0  0  0
    5.5656    3.3781   21.0850 H   0  0  0  0  0  0  0  0  0  0  0  0
    8.9174   -1.2407   22.4186 N   0  0  0  0  0  0  0  0  0  0  0  0
    7.8316   -2.0587   22.5031 N   0  0  0  0  0  0  0  0  0  0  0  0
    7.7466   -2.8027   23.1729 H   0  0  0  0  0  0  0  0  0  0  0  0
    6.8458   -1.7796   21.6344 C   0  0  0  0  0  0  0  0  0  0  0  0
    5.4523   -2.6670   21.4761 S   0  0  0  0  0  0  0  0  0  0  0  0
    5.4545    0.6425   20.1654 C   0  0  0  0  0  0  0  0  0  0  0  0
    5.0401    0.6018   21.1760 H   0  0  0  0  0  0  0  0  0  0  0  0
    4.8172    1.3023   19.1092 C   0  0  0  0  0  0  0  0  0  0  0  0
    3.8850    1.8322   19.2543 H   0  0  0  0  0  0  0  0  0  0  0  0
  1  2  1  0
  2  3  2  0
  3  4  1  0
  4  5  1  0
  4  6  2  0
  6  7  1  0
  7  8  1  0
  8  9  1  0
  9 10  1  0
  9 11  1  0
  9 12  1  0
 12 13  1  0
 12 14  1  0
 12 15  1  0
 15 16  1  0
 16 17  2  0
 17 18  1  0
 17 19  1  0
 19 20  1  0
 19 21  2  0
 21 22  1  0
 21 23  1  0
 23 24  1  0
 23 25  2  0
 25 26  1  0
  8 27  2  0
 27 28  1  0
 28 29  1  0
 28 30  1  0
 30 31  2  0
  6 32  1  0
 32 33  1  0
 32 34  2  0
 34 35  1  0
 34  2  1  0
 30  7  1  0
 25 16  1  0
M  END
>  <cnnaffinity>  (1) 
-5.33568

>  <filename>  (1) 
S=c1[nH]nc(CCOc2ccccc2)n1-c1cccnc1

$$$$
