
     RDKit          3D

 31 34  0  0  0  0  0  0  0  0999 V2000
    4.9356    1.8005   16.9949 H   0  0  0  0  0  0  0  0  0  0  0  0
    5.3967    1.2905   17.8340 C   0  0  0  0  0  0  0  0  0  0  0  0
    6.5510    0.6597   17.5665 N   0  0  0  0  0  0  0  0  0  0  0  0
    7.1695    0.0411   18.5783 C   0  0  0  0  0  0  0  0  0  0  0  0
    8.1248   -0.4316   18.3541 H   0  0  0  0  0  0  0  0  0  0  0  0
    6.6458   -0.0023   19.8871 C   0  0  0  0  0  0  0  0  0  0  0  0
    7.3245   -0.6790   20.9463 N   0  0  0  0  0  0  0  0  0  0  0  0
    6.7312   -1.5941   21.7996 C   0  0  0  0  0  0  0  0  0  0  0  0
    5.6787   -1.8292   21.7139 H   0  0  0  0  0  0  0  0  0  0  0  0
    7.6846   -2.0498   22.6537 C   0  0  0  0  0  0  0  0  0  0  0  0
    7.6153   -2.9840   23.7670 C   0  0  0  0  0  0  0  0  0  0  0  0
    8.5757   -3.3505   24.5521 N   0  0  0  0  0  0  0  0  0  0  0  0
    7.9654   -4.2445   25.4274 C   0  0  0  0  0  0  0  0  0  0  0  0
    8.4778   -4.9864   26.5030 C   0  0  0  0  0  0  0  0  0  0  0  0
    9.5323   -4.8915   26.7512 H   0  0  0  0  0  0  0  0  0  0  0  0
    7.5966   -5.8176   27.1986 C   0  0  0  0  0  0  0  0  0  0  0  0
    7.9682   -6.4089   28.0320 H   0  0  0  0  0  0  0  0  0  0  0  0
    6.2346   -5.9060   26.8325 C   0  0  0  0  0  0  0  0  0  0  0  0
    5.5780   -6.5642   27.3974 H   0  0  0  0  0  0  0  0  0  0  0  0
    5.7128   -5.1696   25.7626 C   0  0  0  0  0  0  0  0  0  0  0  0
    4.6713   -5.2155   25.4620 H   0  0  0  0  0  0  0  0  0  0  0  0
    6.6131   -4.3529   25.0851 C   0  0  0  0  0  0  0  0  0  0  0  0
    6.3872   -3.5400   24.0123 O   0  0  0  0  0  0  0  0  0  0  0  0
    8.8529   -1.3830   22.2940 N   0  0  0  0  0  0  0  0  0  0  0  0
    9.7770   -1.4119   22.7034 H   0  0  0  0  0  0  0  0  0  0  0  0
    8.6518   -0.4971   21.2957 C   0  0  0  0  0  0  0  0  0  0  0  0
    9.8007    0.5671   20.7640 S   0  0  0  0  0  0  0  0  0  0  0  0
    5.4374    0.6455   20.1535 C   0  0  0  0  0  0  0  0  0  0  0  0
    5.0416    0.6340   21.1715 H   0  0  0  0  0  0  0  0  0  0  0  0
    4.8041    1.3113   19.1020 C   0  0  0  0  0  0  0  0  0  0  0  0
    3.8753    1.8462   19.2558 H   0  0  0  0  0  0  0  0  0  0  0  0
  1  2  1  0
  2  3  2  0
  3  4  1  0
  4  5  1  0
  4  6  2  0
  6  7  1  0
  7  8  1  0
  8  9  1  0
  8 10  2  0
 10 11  1  0
 11 12  2  0
 12 13  1  0
 13 14  2  0
 14 15  1  0
 14 16  1  0
 16 17  1  0
 16 18  2  0
 18 19  1  0
 18 20  1  0
 20 21  1  0
 20 22  2  0
 22 23  1  0
 10 24  1  0
 24 25  1  0
 24 26  1  0
 26 27  2  0
  6 28  1  0
 28 29  1  0
 28 30  2  0
 30 31  1  0
 30  2  1  0
 26  7  1  0
 23 11  1  0
 22 13  1  0
M  END
>  <cnnaffinity>  (1) 
-5.65841

>  <filename>  (1) 
S=c1[nH]c(-c2nc3ccccc3o2)cn1-c1cccnc1

$$$$
