
     RDKit          3D

 26 28  0  0  0  0  0  0  0  0999 V2000
    4.9356    1.7962   16.9983 H   0  0  0  0  0  0  0  0  0  0  0  0
    5.4008    1.2879   17.8378 C   0  0  0  0  0  0  0  0  0  0  0  0
    6.5564    0.6574   17.5738 N   0  0  0  0  0  0  0  0  0  0  0  0
    7.1741    0.0405   18.5886 C   0  0  0  0  0  0  0  0  0  0  0  0
    8.1276   -0.4350   18.3651 H   0  0  0  0  0  0  0  0  0  0  0  0
    6.6552   -0.0047   19.8986 C   0  0  0  0  0  0  0  0  0  0  0  0
    7.3353   -0.6916   20.9543 N   0  0  0  0  0  0  0  0  0  0  0  0
    6.7375   -1.6100   21.8007 C   0  0  0  0  0  0  0  0  0  0  0  0
    5.6840   -1.8272   21.7133 H   0  0  0  0  0  0  0  0  0  0  0  0
    7.6744   -2.0721   22.6688 C   0  0  0  0  0  0  0  0  0  0  0  0
    7.5301   -3.0125   23.7608 C   0  0  0  0  0  0  0  0  0  0  0  0
    8.8260   -3.4916   24.8011 S   0  0  0  0  0  0  0  0  0  0  0  0
    7.7912   -4.5325   25.7028 C   0  0  0  0  0  0  0  0  0  0  0  0
    8.2027   -5.0990   26.5319 H   0  0  0  0  0  0  0  0  0  0  0  0
    6.5086   -4.5124   25.2355 C   0  0  0  0  0  0  0  0  0  0  0  0
    5.6985   -5.0967   25.6663 H   0  0  0  0  0  0  0  0  0  0  0  0
    6.3642   -3.6342   24.1229 C   0  0  0  0  0  0  0  0  0  0  0  0
    5.4410   -3.4379   23.5906 H   0  0  0  0  0  0  0  0  0  0  0  0
    8.8480   -1.4123   22.3291 N   0  0  0  0  0  0  0  0  0  0  0  0
    9.7629   -1.4436   22.7454 H   0  0  0  0  0  0  0  0  0  0  0  0
    8.6575   -0.5269   21.3253 C   0  0  0  0  0  0  0  0  0  0  0  0
    9.8097    0.5291   20.7803 S   0  0  0  0  0  0  0  0  0  0  0  0
    5.4435    0.6438   20.1582 C   0  0  0  0  0  0  0  0  0  0  0  0
    5.0307    0.6334   21.1691 H   0  0  0  0  0  0  0  0  0  0  0  0
    4.8088    1.3084   19.1057 C   0  0  0  0  0  0  0  0  0  0  0  0
    3.8770    1.8420   19.2614 H   0  0  0  0  0  0  0  0  0  0  0  0
  1  2  1  0
  2  3  2  0
  3  4  1  0
  4  5  1  0
  4  6  2  0
  6  7  1  0
  7  8  1  0
  8  9  1  0
  8 10  2  0
 10 11  1  0
 11 12  1  0
 12 13  1  0
 13 14  1  0
 13 15  2  0
 15 16  1  0
 15 17  1  0
 17 18  1  0
 10 19  1  0
 19 20  1  0
 19 21  1  0
 21 22  2  0
  6 23  1  0
 23 24  1  0
 23 25  2  0
 25 26  1  0
 25  2  1  0
 21  7  1  0
 17 11  2  0
M  END
>  <cnnaffinity>  (1) 
-5.20763

>  <filename>  (1) 
S=c1[nH]c(-c2cccs2)cn1-c1cccnc1

$$$$
