
     RDKit          3D

 27 29  0  0  0  0  0  0  0  0999 V2000
    7.0981   -5.4639   26.5764 H   0  0  0  0  0  0  0  0  0  0  0  0
    7.2331   -4.7538   25.7675 C   0  0  0  0  0  0  0  0  0  0  0  0
    6.1285   -4.2032   25.2630 N   0  0  0  0  0  0  0  0  0  0  0  0
    6.3110   -3.3326   24.2762 C   0  0  0  0  0  0  0  0  0  0  0  0
    5.4145   -2.8684   23.8606 H   0  0  0  0  0  0  0  0  0  0  0  0
    7.5686   -2.9944   23.7702 C   0  0  0  0  0  0  0  0  0  0  0  0
    7.6884   -2.0538   22.6740 C   0  0  0  0  0  0  0  0  0  0  0  0
    6.7475   -1.6030   21.8181 C   0  0  0  0  0  0  0  0  0  0  0  0
    5.7025   -1.8501   21.7351 H   0  0  0  0  0  0  0  0  0  0  0  0
    7.3485   -0.6991   20.9493 N   0  0  0  0  0  0  0  0  0  0  0  0
    6.6627   -0.0025   19.9060 C   0  0  0  0  0  0  0  0  0  0  0  0
    7.1777    0.0518   18.5966 C   0  0  0  0  0  0  0  0  0  0  0  0
    8.1254   -0.4307   18.3749 H   0  0  0  0  0  0  0  0  0  0  0  0
    6.5617    0.6737   17.5863 N   0  0  0  0  0  0  0  0  0  0  0  0
    5.3987    1.2934   17.8423 C   0  0  0  0  0  0  0  0  0  0  0  0
    4.9127    1.7797   16.9982 H   0  0  0  0  0  0  0  0  0  0  0  0
    4.8102    1.3107   19.1113 C   0  0  0  0  0  0  0  0  0  0  0  0
    3.8766    1.8426   19.2640 H   0  0  0  0  0  0  0  0  0  0  0  0
    5.4477    0.6440   20.1636 C   0  0  0  0  0  0  0  0  0  0  0  0
    5.0196    0.6274   21.1686 H   0  0  0  0  0  0  0  0  0  0  0  0
    8.6772   -0.5511   21.2937 C   0  0  0  0  0  0  0  0  0  0  0  0
    9.8052    0.4822   20.6749 S   0  0  0  0  0  0  0  0  0  0  0  0
    8.8659   -1.4254   22.3168 N   0  0  0  0  0  0  0  0  0  0  0  0
    9.7605   -1.4601   22.7673 H   0  0  0  0  0  0  0  0  0  0  0  0
    8.6398   -3.6447   24.3854 C   0  0  0  0  0  0  0  0  0  0  0  0
    9.6621   -3.4624   24.0512 H   0  0  0  0  0  0  0  0  0  0  0  0
    8.4848   -4.5204   25.3743 N   0  0  0  0  0  0  0  0  0  0  0  0
  1  2  1  0
  2  3  2  0
  3  4  1  0
  4  5  1  0
  4  6  2  0
  6  7  1  0
  7  8  2  0
  8  9  1  0
  8 10  1  0
 10 11  1  0
 11 12  2  0
 12 13  1  0
 12 14  1  0
 14 15  2  0
 15 16  1  0
 15 17  1  0
 17 18  1  0
 17 19  2  0
 19 20  1  0
 10 21  1  0
 21 22  2  0
 21 23  1  0
 23 24  1  0
  6 25  1  0
 25 26  1  0
 25 27  2  0
 27  2  1  0
 23  7  1  0
 19 11  1  0
M  END
>  <cnnaffinity>  (1) 
-5.23349

>  <filename>  (1) 
S=c1[nH]c(-c2cncnc2)cn1-c1cccnc1

$$$$
