
     RDKit          3D

 36 39  0  0  0  0  0  0  0  0999 V2000
    5.6490   -1.6707   21.7081 H   0  0  0  0  0  0  0  0  0  0  0  0
    6.7191   -1.5483   21.7797 C   0  0  0  0  0  0  0  0  0  0  0  0
    7.3845   -0.7218   20.9488 C   0  0  0  0  0  0  0  0  0  0  0  0
    6.7044    0.0462   19.9033 C   0  0  0  0  0  0  0  0  0  0  0  0
    7.2038    0.0860   18.5912 C   0  0  0  0  0  0  0  0  0  0  0  0
    8.1341   -0.4230   18.3382 H   0  0  0  0  0  0  0  0  0  0  0  0
    6.5725    0.6776   17.5721 N   0  0  0  0  0  0  0  0  0  0  0  0
    5.4085    1.2906   17.8380 C   0  0  0  0  0  0  0  0  0  0  0  0
    4.9269    1.7827   16.9968 H   0  0  0  0  0  0  0  0  0  0  0  0
    4.8199    1.3139   19.1078 C   0  0  0  0  0  0  0  0  0  0  0  0
    3.8798    1.8319   19.2554 H   0  0  0  0  0  0  0  0  0  0  0  0
    5.4666    0.6652   20.1576 C   0  0  0  0  0  0  0  0  0  0  0  0
    5.0324    0.6308   21.1600 H   0  0  0  0  0  0  0  0  0  0  0  0
    8.7687   -0.6056   21.0777 N   0  0  0  0  0  0  0  0  0  0  0  0
    9.3340    0.0529   20.5732 H   0  0  0  0  0  0  0  0  0  0  0  0
    9.5129   -1.3266   21.9497 C   0  0  0  0  0  0  0  0  0  0  0  0
   11.1569   -1.1478   22.0451 S   0  0  0  0  0  0  0  0  0  0  0  0
    8.8502   -2.2068   22.7216 N   0  0  0  0  0  0  0  0  0  0  0  0
    9.4648   -2.6115   23.4098 H   0  0  0  0  0  0  0  0  0  0  0  0
    7.3934   -2.1903   22.9377 C   0  0  1  0  0  0  0  0  0  0  0  0
    7.0796   -3.2436   23.0054 H   0  0  0  0  0  0  0  0  0  0  0  0
    6.9923   -1.5338   24.2774 C   0  0  0  0  0  0  0  0  0  0  0  0
    7.3806   -0.1942   24.5483 C   0  0  0  0  0  0  0  0  0  0  0  0
    7.9817    0.3446   23.8204 H   0  0  0  0  0  0  0  0  0  0  0  0
    6.9979    0.4375   25.7239 C   0  0  0  0  0  0  0  0  0  0  0  0
    7.3019    1.4596   25.9281 H   0  0  0  0  0  0  0  0  0  0  0  0
    6.2040   -0.2620   26.6551 C   0  0  0  0  0  0  0  0  0  0  0  0
    5.6390    0.0604   27.9370 C   0  0  0  0  0  0  0  0  0  0  0  0
    5.7500    1.0061   28.4517 H   0  0  0  0  0  0  0  0  0  0  0  0
    4.9565   -1.0393   28.3644 C   0  0  0  0  0  0  0  0  0  0  0  0
    4.3972   -1.2049   29.2770 H   0  0  0  0  0  0  0  0  0  0  0  0
    5.0602   -2.0389   27.4173 N   0  0  0  0  0  0  0  0  0  0  0  0
    4.6582   -2.9585   27.4675 H   0  0  0  0  0  0  0  0  0  0  0  0
    5.8168   -1.5942   26.3650 C   0  0  0  0  0  0  0  0  0  0  0  0
    6.2016   -2.2425   25.1785 C   0  0  0  0  0  0  0  0  0  0  0  0
    5.8873   -3.2606   24.9597 H   0  0  0  0  0  0  0  0  0  0  0  0
  1  2  1  0
  2  3  2  0
  3  4  1  0
  4  5  2  0
  5  6  1  0
  5  7  1  0
  7  8  2  0
  8  9  1  0
  8 10  1  0
 10 11  1  0
 10 12  2  0
 12 13  1  0
  3 14  1  0
 14 15  1  0
 14 16  1  0
 16 17  2  0
 16 18  1  0
 18 19  1  0
 18 20  1  0
 20 21  1  1
 20 22  1  0
 22 23  2  0
 23 24  1  0
 23 25  1  0
 25 26  1  0
 25 27  2  0
 27 28  1  0
 28 29  1  0
 28 30  2  0
 30 31  1  0
 30 32  1  0
 32 33  1  0
 32 34  1  0
 34 35  2  0
 35 36  1  0
 20  2  1  0
 35 22  1  0
 12  4  1  0
 34 27  1  0
M  END
>  <cnnaffinity>  (1) 
-5.27503

>  <filename>  (1) 
S=C1NC(c2cccnc2)=C[C@H](c2ccc3cc[nH]c3c2)N1

$$$$
