
     RDKit          3D

 30 32  0  0  0  0  0  0  0  0999 V2000
    4.9786    1.9940   16.9761 H   0  0  0  0  0  0  0  0  0  0  0  0
    5.4181    1.3653   17.7492 C   0  0  0  0  0  0  0  0  0  0  0  0
    6.5504    0.7227   17.4180 N   0  0  0  0  0  0  0  0  0  0  0  0
    7.1345   -0.0451   18.3442 C   0  0  0  0  0  0  0  0  0  0  0  0
    8.0764   -0.5190   18.0642 H   0  0  0  0  0  0  0  0  0  0  0  0
    6.5973   -0.2335   19.6303 C   0  0  0  0  0  0  0  0  0  0  0  0
    7.2959   -0.9928   20.6146 N   0  0  0  0  0  0  0  0  0  0  0  0
    8.5418   -0.5882   21.0890 C   0  0  0  0  0  0  0  0  0  0  0  0
    9.0327    0.2923   20.7133 H   0  0  0  0  0  0  0  0  0  0  0  0
    8.8595   -1.4371   22.0830 C   0  0  0  0  0  0  0  0  0  0  0  0
    9.8781   -1.5554   22.9400 O   0  0  0  0  0  0  0  0  0  0  0  0
   11.0117   -0.8061   22.6542 C   0  0  0  0  0  0  0  0  0  0  0  0
   12.1388   -1.5023   22.2285 C   0  0  0  0  0  0  0  0  0  0  0  0
   12.0353   -2.5613   22.0173 H   0  0  0  0  0  0  0  0  0  0  0  0
   13.3604   -0.8323   22.1304 C   0  0  0  0  0  0  0  0  0  0  0  0
   14.2583   -1.3426   21.7972 H   0  0  0  0  0  0  0  0  0  0  0  0
   13.4183    0.5215   22.4734 C   0  0  0  0  0  0  0  0  0  0  0  0
   14.9529    1.3035   22.5917 Cl  0  0  0  0  0  0  0  0  0  0  0  0
   12.2668    1.2506   22.7738 C   0  0  0  0  0  0  0  0  0  0  0  0
   12.3598    2.3168   22.9748 H   0  0  0  0  0  0  0  0  0  0  0  0
   11.0414    0.5794   22.8462 C   0  0  0  0  0  0  0  0  0  0  0  0
   10.1250    1.1153   23.0705 H   0  0  0  0  0  0  0  0  0  0  0  0
    7.8350   -2.3291   22.2173 N   0  0  0  0  0  0  0  0  0  0  0  0
    7.7223   -3.0408   22.9155 H   0  0  0  0  0  0  0  0  0  0  0  0
    6.8319   -2.0722   21.3342 C   0  0  0  0  0  0  0  0  0  0  0  0
    5.4228   -2.9409   21.2697 S   0  0  0  0  0  0  0  0  0  0  0  0
    5.4113    0.4238   19.9670 C   0  0  0  0  0  0  0  0  0  0  0  0
    5.0012    0.3032   20.9696 H   0  0  0  0  0  0  0  0  0  0  0  0
    4.8168    1.2501   19.0079 C   0  0  0  0  0  0  0  0  0  0  0  0
    3.9139    1.8126   19.2226 H   0  0  0  0  0  0  0  0  0  0  0  0
  1  2  1  0
  2  3  2  0
  3  4  1  0
  4  5  1  0
  4  6  2  0
  6  7  1  0
  7  8  1  0
  8  9  1  0
  8 10  2  0
 10 11  1  0
 11 12  1  0
 12 13  2  0
 13 14  1  0
 13 15  1  0
 15 16  1  0
 15 17  2  0
 17 18  1  0
 17 19  1  0
 19 20  1  0
 19 21  2  0
 21 22  1  0
 10 23  1  0
 23 24  1  0
 23 25  1  0
 25 26  2  0
  6 27  1  0
 27 28  1  0
 27 29  2  0
 29 30  1  0
 29  2  1  0
 25  7  1  0
 21 12  1  0
M  END
>  <cnnaffinity>  (1) 
-5.32397

>  <filename>  (1) 
S=c1[nH]c(Oc2ccc(Cl)cc2)cn1-c1cccnc1

$$$$
