
     RDKit          3D

 26 28  0  0  0  0  0  0  0  0999 V2000
    4.9169    1.7787   17.0004 H   0  0  0  0  0  0  0  0  0  0  0  0
    5.4024    1.2939   17.8421 C   0  0  0  0  0  0  0  0  0  0  0  0
    6.5683    0.6821   17.5786 N   0  0  0  0  0  0  0  0  0  0  0  0
    7.1701    0.0554   18.5900 C   0  0  0  0  0  0  0  0  0  0  0  0
    8.1182   -0.4348   18.3734 H   0  0  0  0  0  0  0  0  0  0  0  0
    6.6488    0.0140   19.8900 C   0  0  0  0  0  0  0  0  0  0  0  0
    7.3820   -0.7320   20.9014 C   0  0  0  0  0  0  0  0  0  0  0  0
    7.9721   -1.8681   20.6808 N   0  0  0  0  0  0  0  0  0  0  0  0
    8.4696   -2.2143   21.8980 N   0  0  0  0  0  0  0  0  0  0  0  0
    9.0115   -3.0477   22.0491 H   0  0  0  0  0  0  0  0  0  0  0  0
    8.2614   -1.3136   22.8729 C   0  0  0  0  0  0  0  0  0  0  0  0
    8.8087   -1.3775   24.4367 S   0  0  0  0  0  0  0  0  0  0  0  0
    7.5115   -0.3353   22.2279 N   0  0  0  0  0  0  0  0  0  0  0  0
    7.1357    0.9228   22.7997 C   0  0  0  0  0  0  0  0  0  0  0  0
    6.3862    1.0020   23.9881 C   0  0  0  0  0  0  0  0  0  0  0  0
    6.0696    0.1064   24.5125 H   0  0  0  0  0  0  0  0  0  0  0  0
    6.0311    2.1676   24.5361 N   0  0  0  0  0  0  0  0  0  0  0  0
    6.3798    3.3256   23.9701 N   0  0  0  0  0  0  0  0  0  0  0  0
    7.0960    3.3047   22.8375 C   0  0  0  0  0  0  0  0  0  0  0  0
    7.3423    4.2778   22.4223 H   0  0  0  0  0  0  0  0  0  0  0  0
    7.5080    2.1216   22.2126 C   0  0  0  0  0  0  0  0  0  0  0  0
    8.0723    2.1545   21.2852 H   0  0  0  0  0  0  0  0  0  0  0  0
    5.4297    0.6554   20.1568 C   0  0  0  0  0  0  0  0  0  0  0  0
    5.0061    0.6302   21.1640 H   0  0  0  0  0  0  0  0  0  0  0  0
    4.8015    1.3124   19.1063 C   0  0  0  0  0  0  0  0  0  0  0  0
    3.8714    1.8451   19.2591 H   0  0  0  0  0  0  0  0  0  0  0  0
  1  2  1  0
  2  3  2  0
  3  4  1  0
  4  5  1  0
  4  6  2  0
  6  7  1  0
  7  8  2  0
  8  9  1  0
  9 10  1  0
  9 11  1  0
 11 12  2  0
 11 13  1  0
 13 14  1  0
 14 15  2  0
 15 16  1  0
 15 17  1  0
 17 18  2  0
 18 19  1  0
 19 20  1  0
 19 21  2  0
 21 22  1  0
  6 23  1  0
 23 24  1  0
 23 25  2  0
 25 26  1  0
 25  2  1  0
 13  7  1  0
 21 14  1  0
M  END
>  <cnnaffinity>  (1) 
-4.9732

>  <filename>  (1) 
S=c1[nH]nc(-c2cccnc2)n1-c1ccnnc1

$$$$
