
     RDKit          3D

 27 29  0  0  0  0  0  0  0  0999 V2000
    7.0988   -4.2654   27.3689 H   0  0  0  0  0  0  0  0  0  0  0  0
    7.2411   -3.7449   26.4229 C   0  0  0  0  0  0  0  0  0  0  0  0
    8.2603   -2.8909   26.3512 N   0  0  0  0  0  0  0  0  0  0  0  0
    8.4476   -2.2648   25.1892 C   0  0  0  0  0  0  0  0  0  0  0  0
    9.2959   -1.5780   25.1269 H   0  0  0  0  0  0  0  0  0  0  0  0
    7.6169   -2.4761   24.0832 C   0  0  0  0  0  0  0  0  0  0  0  0
    7.8425   -1.8315   22.8292 N   0  0  0  0  0  0  0  0  0  0  0  0
    6.8268   -1.2346   22.1016 C   0  0  0  0  0  0  0  0  0  0  0  0
    5.8127   -1.2949   22.4181 H   0  0  0  0  0  0  0  0  0  0  0  0
    7.3417   -0.6936   20.9811 C   0  0  0  0  0  0  0  0  0  0  0  0
    6.6671    0.0253   19.8962 C   0  0  0  0  0  0  0  0  0  0  0  0
    7.1701    0.0746   18.5817 C   0  0  0  0  0  0  0  0  0  0  0  0
    8.1056   -0.4201   18.3273 H   0  0  0  0  0  0  0  0  0  0  0  0
    6.5556    0.6864   17.5606 N   0  0  0  0  0  0  0  0  0  0  0  0
    5.3911    1.3047   17.8158 C   0  0  0  0  0  0  0  0  0  0  0  0
    4.9177    1.8015   16.9692 H   0  0  0  0  0  0  0  0  0  0  0  0
    4.7966    1.3229   19.0824 C   0  0  0  0  0  0  0  0  0  0  0  0
    3.8628    1.8528   19.2316 H   0  0  0  0  0  0  0  0  0  0  0  0
    5.4384    0.6678   20.1347 C   0  0  0  0  0  0  0  0  0  0  0  0
    5.0084    0.6605   21.1364 H   0  0  0  0  0  0  0  0  0  0  0  0
    8.6914   -0.9903   21.0223 N   0  0  0  0  0  0  0  0  0  0  0  0
    9.4180   -0.7085   20.3869 H   0  0  0  0  0  0  0  0  0  0  0  0
    9.0394   -1.6769   22.1404 C   0  0  0  0  0  0  0  0  0  0  0  0
   10.5852   -2.1745   22.4793 S   0  0  0  0  0  0  0  0  0  0  0  0
    6.5591   -3.3703   24.2873 C   0  0  0  0  0  0  0  0  0  0  0  0
    5.8454   -3.6141   23.4938 H   0  0  0  0  0  0  0  0  0  0  0  0
    6.3795   -4.0121   25.4417 N   0  0  0  0  0  0  0  0  0  0  0  0
  1  2  1  0
  2  3  2  0
  3  4  1  0
  4  5  1  0
  4  6  2  0
  6  7  1  0
  7  8  1  0
  8  9  1  0
  8 10  2  0
 10 11  1  0
 11 12  2  0
 12 13  1  0
 12 14  1  0
 14 15  2  0
 15 16  1  0
 15 17  1  0
 17 18  1  0
 17 19  2  0
 19 20  1  0
 10 21  1  0
 21 22  1  0
 21 23  1  0
 23 24  2  0
  6 25  1  0
 25 26  1  0
 25 27  2  0
 27  2  1  0
 23  7  1  0
 19 11  1  0
M  END
>  <cnnaffinity>  (1) 
-5.44602

>  <filename>  (1) 
S=c1[nH]c(-c2cccnc2)cn1-c1cncnc1

$$$$
