
     RDKit          3D

 29 31  0  0  0  0  0  0  0  0999 V2000
    4.9969    1.9891   16.7400 H   0  0  0  0  0  0  0  0  0  0  0  0
    5.4671    1.4454   17.5606 C   0  0  0  0  0  0  0  0  0  0  0  0
    6.6040    0.7881   17.2769 N   0  0  0  0  0  0  0  0  0  0  0  0
    7.1980    0.1126   18.2691 C   0  0  0  0  0  0  0  0  0  0  0  0
    8.1297   -0.3824   17.9942 H   0  0  0  0  0  0  0  0  0  0  0  0
    6.6835    0.0190   19.5772 C   0  0  0  0  0  0  0  0  0  0  0  0
    7.2909   -0.8111   20.6217 C   0  0  0  0  0  0  0  0  0  0  0  0
    6.7534   -1.4520   21.6905 C   0  0  0  0  0  0  0  0  0  0  0  0
    5.7347   -1.5954   22.0107 H   0  0  0  0  0  0  0  0  0  0  0  0
    7.7944   -2.0356   22.4126 N   0  0  0  0  0  0  0  0  0  0  0  0
    7.6637   -2.5542   23.7417 C   0  0  0  0  0  0  0  0  0  0  0  0
    6.7099   -3.5368   24.0337 C   0  0  0  0  0  0  0  0  0  0  0  0
    6.0975   -3.9453   23.2323 H   0  0  0  0  0  0  0  0  0  0  0  0
    6.5775   -3.9804   25.3554 C   0  0  0  0  0  0  0  0  0  0  0  0
    5.8562   -4.7549   25.5942 H   0  0  0  0  0  0  0  0  0  0  0  0
    7.3578   -3.4358   26.3803 C   0  0  0  0  0  0  0  0  0  0  0  0
    7.2530   -3.7627   27.4091 H   0  0  0  0  0  0  0  0  0  0  0  0
    8.2930   -2.4520   26.0625 C   0  0  0  0  0  0  0  0  0  0  0  0
    9.2293   -1.7051   27.3152 Cl  0  0  0  0  0  0  0  0  0  0  0  0
    8.4802   -2.0338   24.7519 C   0  0  0  0  0  0  0  0  0  0  0  0
    9.2673   -1.3274   24.5150 H   0  0  0  0  0  0  0  0  0  0  0  0
    8.9888   -1.7954   21.7757 C   0  0  0  0  0  0  0  0  0  0  0  0
   10.5497   -2.2505   22.1258 S   0  0  0  0  0  0  0  0  0  0  0  0
    8.6505   -1.0580   20.6886 N   0  0  0  0  0  0  0  0  0  0  0  0
    9.4018   -0.6490   20.1603 H   0  0  0  0  0  0  0  0  0  0  0  0
    5.5169    0.7401   19.8592 C   0  0  0  0  0  0  0  0  0  0  0  0
    5.1283    0.7406   20.8781 H   0  0  0  0  0  0  0  0  0  0  0  0
    4.9012    1.4588   18.8377 C   0  0  0  0  0  0  0  0  0  0  0  0
    4.0058    2.0344   19.0182 H   0  0  0  0  0  0  0  0  0  0  0  0
  1  2  1  0
  2  3  2  0
  3  4  1  0
  4  5  1  0
  4  6  2  0
  6  7  1  0
  7  8  2  0
  8  9  1  0
  8 10  1  0
 10 11  1  0
 11 12  2  0
 12 13  1  0
 12 14  1  0
 14 15  1  0
 14 16  2  0
 16 17  1  0
 16 18  1  0
 18 19  1  0
 18 20  2  0
 20 21  1  0
 10 22  1  0
 22 23  2  0
 22 24  1  0
 24 25  1  0
  6 26  1  0
 26 27  1  0
 26 28  2  0
 28 29  1  0
 28  2  1  0
 24  7  1  0
 20 11  1  0
M  END
>  <cnnaffinity>  (1) 
-5.6906

>  <filename>  (1) 
S=c1[nH]c(-c2cccnc2)cn1-c1cccc(Cl)c1

$$$$
