
     RDKit          3D

 37 39  0  0  0  0  0  0  0  0999 V2000
    7.3239    1.0013   22.3355 H   0  0  0  0  0  0  0  0  0  0  0  0
    7.6033   -0.0253   22.1566 C   0  0  0  0  0  0  0  0  0  0  0  0
    7.3218   -0.6201   20.9815 C   0  0  0  0  0  0  0  0  0  0  0  0
    6.6437    0.0427   19.8712 C   0  0  0  0  0  0  0  0  0  0  0  0
    7.1750    0.0177   18.5707 C   0  0  0  0  0  0  0  0  0  0  0  0
    8.1174   -0.4933   18.3708 H   0  0  0  0  0  0  0  0  0  0  0  0
    6.6005    0.6235   17.5264 N   0  0  0  0  0  0  0  0  0  0  0  0
    5.4456    1.2736   17.7401 C   0  0  0  0  0  0  0  0  0  0  0  0
    4.9927    1.7535   16.8732 H   0  0  0  0  0  0  0  0  0  0  0  0
    4.8207    1.3352   18.9895 C   0  0  0  0  0  0  0  0  0  0  0  0
    3.8837    1.8623   19.0989 H   0  0  0  0  0  0  0  0  0  0  0  0
    5.4383    0.7296   20.0797 C   0  0  0  0  0  0  0  0  0  0  0  0
    5.0038    0.7589   21.0794 H   0  0  0  0  0  0  0  0  0  0  0  0
    7.6898   -1.9509   20.7900 N   0  0  0  0  0  0  0  0  0  0  0  0
    7.2626   -2.4923   20.0558 H   0  0  0  0  0  0  0  0  0  0  0  0
    8.0748   -2.7523   21.8231 C   0  0  0  0  0  0  0  0  0  0  0  0
    8.0300   -4.4048   21.6954 S   0  0  0  0  0  0  0  0  0  0  0  0
    8.5184   -2.1342   22.9420 N   0  0  0  0  0  0  0  0  0  0  0  0
    8.5215   -2.7844   23.7127 H   0  0  0  0  0  0  0  0  0  0  0  0
    8.4016   -0.6883   23.2184 C   0  0  1  0  0  0  0  0  0  0  0  0
    7.8828   -0.5615   24.1850 H   0  0  0  0  0  0  0  0  0  0  0  0
    9.8288   -0.0258   23.4238 C   0  0  0  0  0  0  0  0  0  0  0  0
   10.3816   -0.1191   22.4817 H   0  0  0  0  0  0  0  0  0  0  0  0
   10.3887   -0.6183   24.1543 H   0  0  0  0  0  0  0  0  0  0  0  0
    9.8358    1.3818   23.8193 N   0  0  0  0  0  0  0  0  0  0  0  0
    9.6698    2.0142   23.0459 H   0  0  0  0  0  0  0  0  0  0  0  0
    9.2092    1.8476   24.9742 C   0  0  0  0  0  0  0  0  0  0  0  0
    8.8978    1.0096   26.0585 C   0  0  0  0  0  0  0  0  0  0  0  0
    9.1668   -0.0392   26.0103 H   0  0  0  0  0  0  0  0  0  0  0  0
    8.2290    1.5200   27.1751 C   0  0  0  0  0  0  0  0  0  0  0  0
    7.9883    0.8504   27.9972 H   0  0  0  0  0  0  0  0  0  0  0  0
    7.9042    2.8773   27.2509 C   0  0  0  0  0  0  0  0  0  0  0  0
    7.4104    3.2704   28.1338 H   0  0  0  0  0  0  0  0  0  0  0  0
    8.2588    3.7275   26.1959 C   0  0  0  0  0  0  0  0  0  0  0  0
    8.0254    4.7889   26.2524 H   0  0  0  0  0  0  0  0  0  0  0  0
    8.9039    3.2179   25.0685 C   0  0  0  0  0  0  0  0  0  0  0  0
    9.1877    3.8726   24.2476 H   0  0  0  0  0  0  0  0  0  0  0  0
  1  2  1  0
  2  3  2  0
  3  4  1  0
  4  5  2  0
  5  6  1  0
  5  7  1  0
  7  8  2  0
  8  9  1  0
  8 10  1  0
 10 11  1  0
 10 12  2  0
 12 13  1  0
  3 14  1  0
 14 15  1  0
 14 16  1  0
 16 17  2  0
 16 18  1  0
 18 19  1  0
 18 20  1  0
 20 21  1  1
 20 22  1  0
 22 23  1  0
 22 24  1  0
 22 25  1  0
 25 26  1  0
 25 27  1  0
 27 28  2  0
 28 29  1  0
 28 30  1  0
 30 31  1  0
 30 32  2  0
 32 33  1  0
 32 34  1  0
 34 35  1  0
 34 36  2  0
 36 37  1  0
 20  2  1  0
 36 27  1  0
 12  4  1  0
M  END
>  <cnnaffinity>  (1) 
-5.03762

>  <filename>  (1) 
S=C1NC(c2cccnc2)=C[C@H](CNc2ccccc2)N1

$$$$
