
     RDKit          3D

 31 33  0  0  0  0  0  0  0  0999 V2000
    4.9763    1.9072   16.9949 H   0  0  0  0  0  0  0  0  0  0  0  0
    5.4194    1.3238   17.7974 C   0  0  0  0  0  0  0  0  0  0  0  0
    6.5694    0.6968   17.4932 N   0  0  0  0  0  0  0  0  0  0  0  0
    7.1704   -0.0017   18.4626 C   0  0  0  0  0  0  0  0  0  0  0  0
    8.1152   -0.4893   18.2063 H   0  0  0  0  0  0  0  0  0  0  0  0
    6.6325   -0.1365   19.7573 C   0  0  0  0  0  0  0  0  0  0  0  0
    7.3301   -0.8626   20.7614 N   0  0  0  0  0  0  0  0  0  0  0  0
    8.6234   -0.5176   21.1513 C   0  0  0  0  0  0  0  0  0  0  0  0
    9.1720    0.2980   20.7152 H   0  0  0  0  0  0  0  0  0  0  0  0
    8.9699   -1.3726   22.1248 C   0  0  0  0  0  0  0  0  0  0  0  0
   10.0947   -1.5508   22.8837 N   0  0  0  0  0  0  0  0  0  0  0  0
   10.3045   -2.5273   23.0221 H   0  0  0  0  0  0  0  0  0  0  0  0
   11.2513   -0.7920   22.6422 C   0  0  0  0  0  0  0  0  0  0  0  0
   12.4364   -1.4859   22.3767 C   0  0  0  0  0  0  0  0  0  0  0  0
   12.4041   -2.5665   22.2843 H   0  0  0  0  0  0  0  0  0  0  0  0
   13.6555   -0.8128   22.3158 C   0  0  0  0  0  0  0  0  0  0  0  0
   14.5916   -1.3408   22.1651 H   0  0  0  0  0  0  0  0  0  0  0  0
   13.6582    0.5691   22.4927 C   0  0  0  0  0  0  0  0  0  0  0  0
   15.1533    1.4121   22.5167 Cl  0  0  0  0  0  0  0  0  0  0  0  0
   12.4801    1.2930   22.6580 C   0  0  0  0  0  0  0  0  0  0  0  0
   12.5527    2.3732   22.7317 H   0  0  0  0  0  0  0  0  0  0  0  0
   11.2650    0.6059   22.7281 C   0  0  0  0  0  0  0  0  0  0  0  0
   10.3379    1.1485   22.8724 H   0  0  0  0  0  0  0  0  0  0  0  0
    7.9215   -2.2303   22.3199 N   0  0  0  0  0  0  0  0  0  0  0  0
    7.7761   -2.8176   23.1197 H   0  0  0  0  0  0  0  0  0  0  0  0
    6.8724   -1.9300   21.5080 C   0  0  0  0  0  0  0  0  0  0  0  0
    5.4465   -2.7754   21.4652 S   0  0  0  0  0  0  0  0  0  0  0  0
    5.4255    0.5018   20.0634 C   0  0  0  0  0  0  0  0  0  0  0  0
    5.0027    0.4101   21.0650 H   0  0  0  0  0  0  0  0  0  0  0  0
    4.8139    1.2598   19.0586 C   0  0  0  0  0  0  0  0  0  0  0  0
    3.8998    1.8164   19.2495 H   0  0  0  0  0  0  0  0  0  0  0  0
  1  2  1  0
  2  3  2  0
  3  4  1  0
  4  5  1  0
  4  6  2  0
  6  7  1  0
  7  8  1  0
  8  9  1  0
  8 10  2  0
 10 11  1  0
 11 12  1  0
 11 13  1  0
 13 14  2  0
 14 15  1  0
 14 16  1  0
 16 17  1  0
 16 18  2  0
 18 19  1  0
 18 20  1  0
 20 21  1  0
 20 22  2  0
 22 23  1  0
 10 24  1  0
 24 25  1  0
 24 26  1  0
 26 27  2  0
  6 28  1  0
 28 29  1  0
 28 30  2  0
 30 31  1  0
 30  2  1  0
 26  7  1  0
 22 13  1  0
M  END
>  <cnnaffinity>  (1) 
-5.62819

>  <filename>  (1) 
S=c1[nH]c(Nc2ccc(Cl)cc2)cn1-c1cccnc1

$$$$
