
     RDKit          3D

 27 29  0  0  0  0  0  0  0  0999 V2000
    4.9203    1.7818   16.9973 H   0  0  0  0  0  0  0  0  0  0  0  0
    5.4014    1.2944   17.8397 C   0  0  0  0  0  0  0  0  0  0  0  0
    6.5666    0.6822   17.5761 N   0  0  0  0  0  0  0  0  0  0  0  0
    7.1676    0.0541   18.5881 C   0  0  0  0  0  0  0  0  0  0  0  0
    8.1158   -0.4340   18.3701 H   0  0  0  0  0  0  0  0  0  0  0  0
    6.6462    0.0103   19.8890 C   0  0  0  0  0  0  0  0  0  0  0  0
    7.3800   -0.7266   20.9059 C   0  0  0  0  0  0  0  0  0  0  0  0
    7.9748   -1.8608   20.6884 N   0  0  0  0  0  0  0  0  0  0  0  0
    8.4737   -2.2052   21.9048 N   0  0  0  0  0  0  0  0  0  0  0  0
    9.0164   -3.0398   22.0529 H   0  0  0  0  0  0  0  0  0  0  0  0
    8.2628   -1.3022   22.8788 C   0  0  0  0  0  0  0  0  0  0  0  0
    8.8084   -1.3796   24.4407 S   0  0  0  0  0  0  0  0  0  0  0  0
    7.5091   -0.3267   22.2335 N   0  0  0  0  0  0  0  0  0  0  0  0
    7.1210    0.9364   22.8124 C   0  0  0  0  0  0  0  0  0  0  0  0
    6.3667    1.0142   23.9952 C   0  0  0  0  0  0  0  0  0  0  0  0
    6.0627    0.1042   24.5036 H   0  0  0  0  0  0  0  0  0  0  0  0
    5.9934    2.1662   24.5670 N   0  0  0  0  0  0  0  0  0  0  0  0
    6.3623    3.2914   23.9783 C   0  0  0  0  0  0  0  0  0  0  0  0
    5.8718    4.7788   24.7337 Cl  0  0  0  0  0  0  0  0  0  0  0  0
    7.1148    3.3471   22.8009 C   0  0  0  0  0  0  0  0  0  0  0  0
    7.3679    4.3063   22.3681 H   0  0  0  0  0  0  0  0  0  0  0  0
    7.5063    2.1427   22.2155 C   0  0  0  0  0  0  0  0  0  0  0  0
    8.0752    2.1394   21.2874 H   0  0  0  0  0  0  0  0  0  0  0  0
    5.4265    0.6522   20.1544 C   0  0  0  0  0  0  0  0  0  0  0  0
    5.0119    0.6366   21.1668 H   0  0  0  0  0  0  0  0  0  0  0  0
    4.7999    1.3105   19.1031 C   0  0  0  0  0  0  0  0  0  0  0  0
    3.8715    1.8445   19.2555 H   0  0  0  0  0  0  0  0  0  0  0  0
  1  2  1  0
  2  3  2  0
  3  4  1  0
  4  5  1  0
  4  6  2  0
  6  7  1  0
  7  8  2  0
  8  9  1  0
  9 10  1  0
  9 11  1  0
 11 12  2  0
 11 13  1  0
 13 14  1  0
 14 15  2  0
 15 16  1  0
 15 17  1  0
 17 18  2  0
 18 19  1  0
 18 20  1  0
 20 21  1  0
 20 22  2  0
 22 23  1  0
  6 24  1  0
 24 25  1  0
 24 26  2  0
 26 27  1  0
 26  2  1  0
 13  7  1  0
 22 14  1  0
M  END
>  <cnnaffinity>  (1) 
-5.26685

>  <filename>  (1) 
S=c1[nH]nc(-c2cccnc2)n1-c1ccc(Cl)nc1

$$$$
