
     RDKit          3D

 19 20  0  0  0  0  0  0  0  0999 V2000
    4.8859    1.7956   17.0112 H   0  0  0  0  0  0  0  0  0  0  0  0
    5.3988    1.2976   17.8258 C   0  0  0  0  0  0  0  0  0  0  0  0
    6.5693    0.6840   17.5657 N   0  0  0  0  0  0  0  0  0  0  0  0
    7.1879    0.0691   18.5903 C   0  0  0  0  0  0  0  0  0  0  0  0
    8.1305   -0.4348   18.4018 H   0  0  0  0  0  0  0  0  0  0  0  0
    6.6628    0.0073   19.8964 C   0  0  0  0  0  0  0  0  0  0  0  0
    7.3355   -0.6776   20.9167 N   0  0  0  0  0  0  0  0  0  0  0  0
    6.7416   -1.5756   21.8078 C   0  0  0  0  0  0  0  0  0  0  0  0
    5.6926   -1.8694   21.8056 H   0  0  0  0  0  0  0  0  0  0  0  0
    7.7112   -2.0294   22.6720 C   0  0  0  0  0  0  0  0  0  0  0  0
    7.4480   -3.4929   24.3508 I   0  0  0  0  0  0  0  0  0  0  0  0
    8.9040   -1.4162   22.3135 N   0  0  0  0  0  0  0  0  0  0  0  0
    9.7904   -1.4947   22.8024 H   0  0  0  0  0  0  0  0  0  0  0  0
    8.6812   -0.5615   21.2591 C   0  0  0  0  0  0  0  0  0  0  0  0
    9.8012    0.4939   20.6503 S   0  0  0  0  0  0  0  0  0  0  0  0
    5.4424    0.6367   20.1579 C   0  0  0  0  0  0  0  0  0  0  0  0
    5.0112    0.6264   21.1626 H   0  0  0  0  0  0  0  0  0  0  0  0
    4.8158    1.3042   19.1028 C   0  0  0  0  0  0  0  0  0  0  0  0
    3.8817    1.8342   19.2617 H   0  0  0  0  0  0  0  0  0  0  0  0
  1  2  1  0
  2  3  2  0
  3  4  1  0
  4  5  1  0
  4  6  2  0
  6  7  1  0
  7  8  1  0
  8  9  1  0
  8 10  2  0
 10 11  1  0
 10 12  1  0
 12 13  1  0
 12 14  1  0
 14 15  2  0
  6 16  1  0
 16 17  1  0
 16 18  2  0
 18 19  1  0
 18  2  1  0
 14  7  1  0
M  END
>  <cnnaffinity>  (1) 
-4.89977

>  <filename>  (1) 
S=c1[nH]c(I)cn1-c1cccnc1

$$$$
