
     RDKit          3D

 33 36  0  0  0  0  0  0  0  0999 V2000
    4.9298    1.7932   16.9952 H   0  0  0  0  0  0  0  0  0  0  0  0
    5.3964    1.2910   17.8370 C   0  0  0  0  0  0  0  0  0  0  0  0
    6.5521    0.6635   17.5720 N   0  0  0  0  0  0  0  0  0  0  0  0
    7.1712    0.0459   18.5825 C   0  0  0  0  0  0  0  0  0  0  0  0
    8.1249   -0.4308   18.3602 H   0  0  0  0  0  0  0  0  0  0  0  0
    6.6508    0.0047   19.8903 C   0  0  0  0  0  0  0  0  0  0  0  0
    7.3319   -0.6765   20.9382 N   0  0  0  0  0  0  0  0  0  0  0  0
    6.7400   -1.6016   21.7837 C   0  0  0  0  0  0  0  0  0  0  0  0
    5.6838   -1.8130   21.7202 H   0  0  0  0  0  0  0  0  0  0  0  0
    7.6790   -2.0533   22.6468 C   0  0  0  0  0  0  0  0  0  0  0  0
    7.5736   -3.0027   23.7621 C   0  0  0  0  0  0  0  0  0  0  0  0
    6.4470   -3.8734   23.7758 C   0  0  0  0  0  0  0  0  0  0  0  0
    5.7344   -3.8098   22.9614 H   0  0  0  0  0  0  0  0  0  0  0  0
    6.2446   -4.7887   24.7965 C   0  0  0  0  0  0  0  0  0  0  0  0
    5.3746   -5.4424   24.7913 H   0  0  0  0  0  0  0  0  0  0  0  0
    7.1821   -4.8562   25.8491 C   0  0  0  0  0  0  0  0  0  0  0  0
    7.3067   -5.6553   27.0375 C   0  0  0  0  0  0  0  0  0  0  0  0
    6.6156   -6.4272   27.3483 H   0  0  0  0  0  0  0  0  0  0  0  0
    8.4482   -5.2607   27.6737 C   0  0  0  0  0  0  0  0  0  0  0  0
    8.9038   -5.6280   28.5841 H   0  0  0  0  0  0  0  0  0  0  0  0
    9.0476   -4.2480   26.9512 N   0  0  0  0  0  0  0  0  0  0  0  0
    9.9063   -3.7756   27.1746 H   0  0  0  0  0  0  0  0  0  0  0  0
    8.3004   -3.9810   25.8299 C   0  0  0  0  0  0  0  0  0  0  0  0
    8.5086   -3.0505   24.8001 C   0  0  0  0  0  0  0  0  0  0  0  0
    9.3591   -2.3750   24.8214 H   0  0  0  0  0  0  0  0  0  0  0  0
    8.8425   -1.3824   22.3077 N   0  0  0  0  0  0  0  0  0  0  0  0
    9.7662   -1.4499   22.7007 H   0  0  0  0  0  0  0  0  0  0  0  0
    8.6521   -0.5064   21.2955 C   0  0  0  0  0  0  0  0  0  0  0  0
    9.8172    0.5305   20.7493 S   0  0  0  0  0  0  0  0  0  0  0  0
    5.4400    0.6473   20.1579 C   0  0  0  0  0  0  0  0  0  0  0  0
    5.0356    0.6305   21.1720 H   0  0  0  0  0  0  0  0  0  0  0  0
    4.8078    1.3111   19.1055 C   0  0  0  0  0  0  0  0  0  0  0  0
    3.8789    1.8420   19.2577 H   0  0  0  0  0  0  0  0  0  0  0  0
  1  2  1  0
  2  3  2  0
  3  4  1  0
  4  5  1  0
  4  6  2  0
  6  7  1  0
  7  8  1  0
  8  9  1  0
  8 10  2  0
 10 11  1  0
 11 12  2  0
 12 13  1  0
 12 14  1  0
 14 15  1  0
 14 16  2  0
 16 17  1  0
 17 18  1  0
 17 19  2  0
 19 20  1  0
 19 21  1  0
 21 22  1  0
 21 23  1  0
 23 24  2  0
 24 25  1  0
 10 26  1  0
 26 27  1  0
 26 28  1  0
 28 29  2  0
  6 30  1  0
 30 31  1  0
 30 32  2  0
 32 33  1  0
 32  2  1  0
 28  7  1  0
 24 11  1  0
 23 16  1  0
M  END
>  <cnnaffinity>  (1) 
-5.68283

>  <filename>  (1) 
S=c1[nH]c(-c2ccc3cc[nH]c3c2)cn1-c1cccnc1

$$$$
