
     RDKit          3D

 36 39  0  0  0  0  0  0  0  0999 V2000
    5.6581   -1.6924   21.6858 H   0  0  0  0  0  0  0  0  0  0  0  0
    6.7212   -1.5444   21.7852 C   0  0  0  0  0  0  0  0  0  0  0  0
    7.3819   -0.7115   20.9611 C   0  0  0  0  0  0  0  0  0  0  0  0
    6.7031    0.0445   19.9041 C   0  0  0  0  0  0  0  0  0  0  0  0
    7.2038    0.0838   18.5934 C   0  0  0  0  0  0  0  0  0  0  0  0
    8.1347   -0.4234   18.3407 H   0  0  0  0  0  0  0  0  0  0  0  0
    6.5727    0.6761   17.5743 N   0  0  0  0  0  0  0  0  0  0  0  0
    5.4087    1.2897   17.8382 C   0  0  0  0  0  0  0  0  0  0  0  0
    4.9269    1.7822   16.9968 H   0  0  0  0  0  0  0  0  0  0  0  0
    4.8192    1.3126   19.1072 C   0  0  0  0  0  0  0  0  0  0  0  0
    3.8799    1.8326   19.2548 H   0  0  0  0  0  0  0  0  0  0  0  0
    5.4650    0.6629   20.1567 C   0  0  0  0  0  0  0  0  0  0  0  0
    5.0342    0.6295   21.1613 H   0  0  0  0  0  0  0  0  0  0  0  0
    8.7598   -0.5660   21.1105 N   0  0  0  0  0  0  0  0  0  0  0  0
    9.3238    0.0762   20.5821 H   0  0  0  0  0  0  0  0  0  0  0  0
    9.4856   -1.1717   22.0828 C   0  0  0  0  0  0  0  0  0  0  0  0
   11.1116   -0.8957   22.2501 S   0  0  0  0  0  0  0  0  0  0  0  0
    8.8285   -2.0093   22.8957 N   0  0  0  0  0  0  0  0  0  0  0  0
    9.4193   -2.3487   23.6355 H   0  0  0  0  0  0  0  0  0  0  0  0
    7.3838   -2.2727   22.9023 C   0  0  1  0  0  0  0  0  0  0  0  0
    7.2488   -3.3611   22.7580 H   0  0  0  0  0  0  0  0  0  0  0  0
    6.7517   -1.9425   24.2449 C   0  0  0  0  0  0  0  0  0  0  0  0
    6.0485   -2.7787   25.0576 C   0  0  0  0  0  0  0  0  0  0  0  0
    5.8355   -3.8348   24.9294 H   0  0  0  0  0  0  0  0  0  0  0  0
    5.5838   -2.0765   26.1511 N   0  0  0  0  0  0  0  0  0  0  0  0
    5.0458   -2.4485   26.9132 H   0  0  0  0  0  0  0  0  0  0  0  0
    5.9814   -0.7648   26.0518 C   0  0  0  0  0  0  0  0  0  0  0  0
    5.7558    0.3275   26.9092 C   0  0  0  0  0  0  0  0  0  0  0  0
    5.1927    0.2053   27.8304 H   0  0  0  0  0  0  0  0  0  0  0  0
    6.2818    1.5599   26.5374 C   0  0  0  0  0  0  0  0  0  0  0  0
    6.1312    2.4249   27.1796 H   0  0  0  0  0  0  0  0  0  0  0  0
    7.0156    1.7125   25.3333 C   0  0  0  0  0  0  0  0  0  0  0  0
    7.4151    2.6875   25.0679 H   0  0  0  0  0  0  0  0  0  0  0  0
    7.2338    0.6280   24.4915 C   0  0  0  0  0  0  0  0  0  0  0  0
    7.7888    0.7293   23.5610 H   0  0  0  0  0  0  0  0  0  0  0  0
    6.7211   -0.6372   24.8556 C   0  0  0  0  0  0  0  0  0  0  0  0
  1  2  1  0
  2  3  2  0
  3  4  1  0
  4  5  2  0
  5  6  1  0
  5  7  1  0
  7  8  2  0
  8  9  1  0
  8 10  1  0
 10 11  1  0
 10 12  2  0
 12 13  1  0
  3 14  1  0
 14 15  1  0
 14 16  1  0
 16 17  2  0
 16 18  1  0
 18 19  1  0
 18 20  1  0
 20 21  1  6
 20 22  1  0
 22 23  2  0
 23 24  1  0
 23 25  1  0
 25 26  1  0
 25 27  1  0
 27 28  2  0
 28 29  1  0
 28 30  1  0
 30 31  1  0
 30 32  2  0
 32 33  1  0
 32 34  1  0
 34 35  1  0
 34 36  2  0
 20  2  1  0
 36 22  1  0
 12  4  1  0
 36 27  1  0
M  END
>  <cnnaffinity>  (1) 
-5.27193

>  <filename>  (1) 
S=C1NC(c2cccnc2)=C[C@H](c2c[nH]c3ccccc23)N1

$$$$
