
     RDKit          3D

 31 33  0  0  0  0  0  0  0  0999 V2000
    4.9467    1.7982   16.9571 H   0  0  0  0  0  0  0  0  0  0  0  0
    5.4116    1.3038   17.8073 C   0  0  0  0  0  0  0  0  0  0  0  0
    6.5624    0.6610   17.5552 N   0  0  0  0  0  0  0  0  0  0  0  0
    7.1630    0.0443   18.5795 C   0  0  0  0  0  0  0  0  0  0  0  0
    8.0985   -0.4612   18.3596 H   0  0  0  0  0  0  0  0  0  0  0  0
    6.6426    0.0172   19.8901 C   0  0  0  0  0  0  0  0  0  0  0  0
    7.2909   -0.7032   20.9353 N   0  0  0  0  0  0  0  0  0  0  0  0
    6.6528   -1.6859   21.7037 C   0  0  0  0  0  0  0  0  0  0  0  0
    5.6054   -1.9091   21.6078 H   0  0  0  0  0  0  0  0  0  0  0  0
    7.5726   -2.1729   22.5603 C   0  0  0  0  0  0  0  0  0  0  0  0
    7.4842   -3.1109   23.5607 N   0  0  0  0  0  0  0  0  0  0  0  0
    6.5591   -3.0935   23.9651 H   0  0  0  0  0  0  0  0  0  0  0  0
    8.5246   -3.2210   24.5728 C   0  0  0  0  0  0  0  0  0  0  0  0
    9.4623   -3.5456   24.1043 H   0  0  0  0  0  0  0  0  0  0  0  0
    8.2435   -4.0506   25.2282 H   0  0  0  0  0  0  0  0  0  0  0  0
    8.7814   -1.9741   25.3922 C   0  0  0  0  0  0  0  0  0  0  0  0
    7.6890   -1.4959   26.6370 S   0  0  0  0  0  0  0  0  0  0  0  0
    8.7766   -0.2934   27.2133 C   0  0  0  0  0  0  0  0  0  0  0  0
    8.5315    0.2590   28.1114 H   0  0  0  0  0  0  0  0  0  0  0  0
    9.8899   -0.2019   26.4344 C   0  0  0  0  0  0  0  0  0  0  0  0
   10.7009    0.5008   26.6158 H   0  0  0  0  0  0  0  0  0  0  0  0
    9.8744   -1.1515   25.3681 C   0  0  0  0  0  0  0  0  0  0  0  0
   10.6764   -1.2385   24.6386 H   0  0  0  0  0  0  0  0  0  0  0  0
    8.7582   -1.5468   22.2763 N   0  0  0  0  0  0  0  0  0  0  0  0
    9.5683   -1.5507   22.8598 H   0  0  0  0  0  0  0  0  0  0  0  0
    8.5947   -0.5604   21.3538 C   0  0  0  0  0  0  0  0  0  0  0  0
    9.7475    0.5636   20.9438 S   0  0  0  0  0  0  0  0  0  0  0  0
    5.4393    0.6851   20.1422 C   0  0  0  0  0  0  0  0  0  0  0  0
    5.0178    0.6856   21.1518 H   0  0  0  0  0  0  0  0  0  0  0  0
    4.8174    1.3429   19.0753 C   0  0  0  0  0  0  0  0  0  0  0  0
    3.8818    1.8742   19.2112 H   0  0  0  0  0  0  0  0  0  0  0  0
  1  2  1  0
  2  3  2  0
  3  4  1  0
  4  5  1  0
  4  6  2  0
  6  7  1  0
  7  8  1  0
  8  9  1  0
  8 10  2  0
 10 11  1  0
 11 12  1  0
 11 13  1  0
 13 14  1  0
 13 15  1  0
 13 16  1  0
 16 17  1  0
 17 18  1  0
 18 19  1  0
 18 20  2  0
 20 21  1  0
 20 22  1  0
 22 23  1  0
 10 24  1  0
 24 25  1  0
 24 26  1  0
 26 27  2  0
  6 28  1  0
 28 29  1  0
 28 30  2  0
 30 31  1  0
 30  2  1  0
 26  7  1  0
 22 16  2  0
M  END
>  <cnnaffinity>  (1) 
-5.31854

>  <filename>  (1) 
S=c1[nH]c(NCc2cccs2)cn1-c1cccnc1

$$$$
