
     RDKit          3D

 36 38  0  0  0  0  0  0  0  0999 V2000
    4.9762    1.8884   17.0059 H   0  0  0  0  0  0  0  0  0  0  0  0
    5.4374    1.3180   17.8079 C   0  0  0  0  0  0  0  0  0  0  0  0
    6.5933    0.7061   17.5053 N   0  0  0  0  0  0  0  0  0  0  0  0
    7.1966    0.0155   18.4816 C   0  0  0  0  0  0  0  0  0  0  0  0
    8.1373   -0.4741   18.2322 H   0  0  0  0  0  0  0  0  0  0  0  0
    6.6703   -0.1184   19.7836 C   0  0  0  0  0  0  0  0  0  0  0  0
    7.3937   -0.8591   20.7707 N   0  0  0  0  0  0  0  0  0  0  0  0
    8.6906   -0.5403   21.1693 C   0  0  0  0  0  0  0  0  0  0  0  0
    9.2132    0.2812   20.6987 H   0  0  0  0  0  0  0  0  0  0  0  0
    9.0627   -1.3927   22.1515 C   0  0  0  0  0  0  0  0  0  0  0  0
   10.3476   -1.4990   22.9436 C   0  0  0  0  0  0  0  0  0  0  0  0
   11.1890   -1.3989   22.2475 H   0  0  0  0  0  0  0  0  0  0  0  0
   10.4310   -2.5181   23.3415 H   0  0  0  0  0  0  0  0  0  0  0  0
   10.5726   -0.5616   24.0518 N   0  0  0  0  0  0  0  0  0  0  0  0
   10.6059    0.8566   23.6353 C   0  0  0  0  0  0  0  0  0  0  0  0
    9.6500    1.1576   23.1675 H   0  0  0  0  0  0  0  0  0  0  0  0
   11.4049    0.9935   22.8924 H   0  0  0  0  0  0  0  0  0  0  0  0
   10.9006    1.7956   24.8275 C   0  0  0  0  0  0  0  0  0  0  0  0
   11.9268    1.6079   25.1675 H   0  0  0  0  0  0  0  0  0  0  0  0
   10.8584    2.8369   24.4935 H   0  0  0  0  0  0  0  0  0  0  0  0
   10.0224    1.6343   25.9917 N   0  0  0  0  0  0  0  0  0  0  0  0
    9.0920    2.0065   25.8145 H   0  0  0  0  0  0  0  0  0  0  0  0
    9.9527    0.2082   26.3473 C   0  0  0  0  0  0  0  0  0  0  0  0
   10.9272   -0.0724   26.7655 H   0  0  0  0  0  0  0  0  0  0  0  0
    9.2133    0.0711   27.1431 H   0  0  0  0  0  0  0  0  0  0  0  0
    9.6284   -0.7431   25.1741 C   0  0  0  0  0  0  0  0  0  0  0  0
    8.5850   -0.5720   24.8526 H   0  0  0  0  0  0  0  0  0  0  0  0
    9.7010   -1.7774   25.5383 H   0  0  0  0  0  0  0  0  0  0  0  0
    7.9714   -2.2391   22.3264 N   0  0  0  0  0  0  0  0  0  0  0  0
    7.8118   -2.9026   23.0653 H   0  0  0  0  0  0  0  0  0  0  0  0
    6.9294   -1.9330   21.5038 C   0  0  0  0  0  0  0  0  0  0  0  0
    5.4996   -2.7858   21.4307 S   0  0  0  0  0  0  0  0  0  0  0  0
    5.4585    0.5155   20.0890 C   0  0  0  0  0  0  0  0  0  0  0  0
    5.0274    0.4480   21.0901 H   0  0  0  0  0  0  0  0  0  0  0  0
    4.8395    1.2559   19.0729 C   0  0  0  0  0  0  0  0  0  0  0  0
    3.9197    1.7999   19.2577 H   0  0  0  0  0  0  0  0  0  0  0  0
  1  2  1  0
  2  3  2  0
  3  4  1  0
  4  5  1  0
  4  6  2  0
  6  7  1  0
  7  8  1  0
  8  9  1  0
  8 10  2  0
 10 11  1  0
 11 12  1  0
 11 13  1  0
 11 14  1  0
 14 15  1  0
 15 16  1  0
 15 17  1  0
 15 18  1  0
 18 19  1  0
 18 20  1  0
 18 21  1  0
 21 22  1  0
 21 23  1  0
 23 24  1  0
 23 25  1  0
 23 26  1  0
 26 27  1  0
 26 28  1  0
 10 29  1  0
 29 30  1  0
 29 31  1  0
 31 32  2  0
  6 33  1  0
 33 34  1  0
 33 35  2  0
 35 36  1  0
 35  2  1  0
 31  7  1  0
 26 14  1  0
M  END
>  <cnnaffinity>  (1) 
-4.99989

>  <filename>  (1) 
S=c1[nH]c(CN2CCNCC2)cn1-c1cccnc1

$$$$
