
     RDKit          3D

 41 43  0  0  0  0  0  0  0  0999 V2000
    8.6720    1.0743   21.6048 H   0  0  0  0  0  0  0  0  0  0  0  0
    7.9931    0.3150   21.9673 C   0  0  0  0  0  0  0  0  0  0  0  0
    7.4994    0.3340   23.2216 C   0  0  0  0  0  0  0  0  0  0  0  0
    7.7017    1.4522   24.2069 C   0  0  0  0  0  0  0  0  0  0  0  0
    7.3168    1.1549   25.1917 H   0  0  0  0  0  0  0  0  0  0  0  0
    8.7845    1.5932   24.3288 H   0  0  0  0  0  0  0  0  0  0  0  0
    7.0892    2.8113   23.7695 C   0  0  0  0  0  0  0  0  0  0  0  0
    7.3600    2.9639   22.7118 H   0  0  0  0  0  0  0  0  0  0  0  0
    5.5445    2.8648   23.8794 C   0  0  0  0  0  0  0  0  0  0  0  0
    5.2114    3.7946   23.3881 H   0  0  0  0  0  0  0  0  0  0  0  0
    5.0788    2.0365   23.3261 H   0  0  0  0  0  0  0  0  0  0  0  0
    5.0491    2.8902   25.3391 C   0  0  0  0  0  0  0  0  0  0  0  0
    3.9554    2.9666   25.3633 H   0  0  0  0  0  0  0  0  0  0  0  0
    5.2994    1.9380   25.8335 H   0  0  0  0  0  0  0  0  0  0  0  0
    5.6748    4.0512   26.1291 C   0  0  0  0  0  0  0  0  0  0  0  0
    5.3059    5.0065   25.7224 H   0  0  0  0  0  0  0  0  0  0  0  0
    5.3514    4.0171   27.1773 H   0  0  0  0  0  0  0  0  0  0  0  0
    7.2097    4.0267   26.0411 C   0  0  0  0  0  0  0  0  0  0  0  0
    7.5942    3.1484   26.5824 H   0  0  0  0  0  0  0  0  0  0  0  0
    7.6301    4.9076   26.5421 H   0  0  0  0  0  0  0  0  0  0  0  0
    7.6900    3.9857   24.5781 C   0  0  0  0  0  0  0  0  0  0  0  0
    7.3965    4.9258   24.0862 H   0  0  0  0  0  0  0  0  0  0  0  0
    8.7875    3.9482   24.5369 H   0  0  0  0  0  0  0  0  0  0  0  0
    6.7239   -0.7520   23.6242 N   0  0  0  0  0  0  0  0  0  0  0  0
    6.3441   -0.8560   24.5500 H   0  0  0  0  0  0  0  0  0  0  0  0
    6.4836   -1.8534   22.8651 C   0  0  0  0  0  0  0  0  0  0  0  0
    5.7509   -3.2045   23.4962 S   0  0  0  0  0  0  0  0  0  0  0  0
    6.8686   -1.7960   21.5835 N   0  0  0  0  0  0  0  0  0  0  0  0
    6.4959   -2.5556   21.0435 H   0  0  0  0  0  0  0  0  0  0  0  0
    7.5391   -0.6718   20.9433 C   0  0  1  0  0  0  0  0  0  0  0  0
    8.4241   -1.0817   20.4216 H   0  0  0  0  0  0  0  0  0  0  0  0
    6.6597   -0.0390   19.8525 C   0  0  0  0  0  0  0  0  0  0  0  0
    7.1549    0.0149   18.5443 C   0  0  0  0  0  0  0  0  0  0  0  0
    8.0992   -0.4760   18.3134 H   0  0  0  0  0  0  0  0  0  0  0  0
    6.5639    0.6559   17.5279 N   0  0  0  0  0  0  0  0  0  0  0  0
    5.4117    1.2841   17.8006 C   0  0  0  0  0  0  0  0  0  0  0  0
    4.9544    1.8183   16.9697 H   0  0  0  0  0  0  0  0  0  0  0  0
    4.8018    1.2664   19.0631 C   0  0  0  0  0  0  0  0  0  0  0  0
    3.8715    1.8040   19.2094 H   0  0  0  0  0  0  0  0  0  0  0  0
    5.4303    0.5851   20.1108 C   0  0  0  0  0  0  0  0  0  0  0  0
    4.9817    0.5698   21.1109 H   0  0  0  0  0  0  0  0  0  0  0  0
  1  2  1  0
  2  3  2  0
  3  4  1  0
  4  5  1  0
  4  6  1  0
  4  7  1  0
  7  8  1  0
  7  9  1  0
  9 10  1  0
  9 11  1  0
  9 12  1  0
 12 13  1  0
 12 14  1  0
 12 15  1  0
 15 16  1  0
 15 17  1  0
 15 18  1  0
 18 19  1  0
 18 20  1  0
 18 21  1  0
 21 22  1  0
 21 23  1  0
  3 24  1  0
 24 25  1  0
 24 26  1  0
 26 27  2  0
 26 28  1  0
 28 29  1  0
 28 30  1  0
 30 31  1  6
 30 32  1  0
 32 33  2  0
 33 34  1  0
 33 35  1  0
 35 36  2  0
 36 37  1  0
 36 38  1  0
 38 39  1  0
 38 40  2  0
 40 41  1  0
 30  2  1  0
 40 32  1  0
 21  7  1  0
M  END
>  <cnnaffinity>  (1) 
-4.95536

>  <filename>  (1) 
S=C1NC(CC2CCCCC2)=C[C@H](c2cccnc2)N1

$$$$
