
     RDKit          3D

 29 31  0  0  0  0  0  0  0  0999 V2000
    4.9198    1.8032   16.9679 H   0  0  0  0  0  0  0  0  0  0  0  0
    5.3921    1.3045   17.8153 C   0  0  0  0  0  0  0  0  0  0  0  0
    6.5571    0.6850   17.5644 N   0  0  0  0  0  0  0  0  0  0  0  0
    7.1708    0.0696   18.5834 C   0  0  0  0  0  0  0  0  0  0  0  0
    8.1066   -0.4223   18.3253 H   0  0  0  0  0  0  0  0  0  0  0  0
    6.6674    0.0146   19.8968 C   0  0  0  0  0  0  0  0  0  0  0  0
    7.3386   -0.7082   20.9834 C   0  0  0  0  0  0  0  0  0  0  0  0
    6.8207   -1.2345   22.1109 C   0  0  0  0  0  0  0  0  0  0  0  0
    5.8029   -1.3065   22.4119 H   0  0  0  0  0  0  0  0  0  0  0  0
    7.8419   -1.7917   22.8655 N   0  0  0  0  0  0  0  0  0  0  0  0
    7.6418   -2.4429   24.1159 C   0  0  0  0  0  0  0  0  0  0  0  0
    6.8288   -1.8372   25.0822 C   0  0  0  0  0  0  0  0  0  0  0  0
    6.3471   -0.8841   24.8925 H   0  0  0  0  0  0  0  0  0  0  0  0
    6.6657   -2.4755   26.3094 C   0  0  0  0  0  0  0  0  0  0  0  0
    5.6727   -1.7445   27.5267 Cl  0  0  0  0  0  0  0  0  0  0  0  0
    7.2743   -3.7004   26.5824 C   0  0  0  0  0  0  0  0  0  0  0  0
    7.1397   -4.1857   27.5396 H   0  0  0  0  0  0  0  0  0  0  0  0
    8.0580   -4.2876   25.5886 C   0  0  0  0  0  0  0  0  0  0  0  0
    8.8266   -5.8054   25.9102 Cl  0  0  0  0  0  0  0  0  0  0  0  0
    8.2507   -3.6779   24.3517 C   0  0  0  0  0  0  0  0  0  0  0  0
    8.8801   -4.1326   23.5967 H   0  0  0  0  0  0  0  0  0  0  0  0
    9.0379   -1.6112   22.2059 C   0  0  0  0  0  0  0  0  0  0  0  0
   10.6070   -1.9823   22.6017 S   0  0  0  0  0  0  0  0  0  0  0  0
    8.6941   -0.9789   21.0498 N   0  0  0  0  0  0  0  0  0  0  0  0
    9.4305   -0.6739   20.4401 H   0  0  0  0  0  0  0  0  0  0  0  0
    5.4411    0.6646   20.1322 C   0  0  0  0  0  0  0  0  0  0  0  0
    5.0090    0.6622   21.1329 H   0  0  0  0  0  0  0  0  0  0  0  0
    4.7989    1.3213   19.0821 C   0  0  0  0  0  0  0  0  0  0  0  0
    3.8646    1.8519   19.2292 H   0  0  0  0  0  0  0  0  0  0  0  0
  1  2  1  0
  2  3  2  0
  3  4  1  0
  4  5  1  0
  4  6  2  0
  6  7  1  0
  7  8  2  0
  8  9  1  0
  8 10  1  0
 10 11  1  0
 11 12  2  0
 12 13  1  0
 12 14  1  0
 14 15  1  0
 14 16  2  0
 16 17  1  0
 16 18  1  0
 18 19  1  0
 18 20  2  0
 20 21  1  0
 10 22  1  0
 22 23  2  0
 22 24  1  0
 24 25  1  0
  6 26  1  0
 26 27  1  0
 26 28  2  0
 28 29  1  0
 28  2  1  0
 24  7  1  0
 20 11  1  0
M  END
>  <cnnaffinity>  (1) 
-5.96714

>  <filename>  (1) 
S=c1[nH]c(-c2cccnc2)cn1-c1cc(Cl)cc(Cl)c1

$$$$
