
     RDKit          3D

 39 41  0  0  0  0  0  0  0  0999 V2000
    7.3225    0.9865   22.4372 H   0  0  0  0  0  0  0  0  0  0  0  0
    7.6045   -0.0298   22.2311 C   0  0  0  0  0  0  0  0  0  0  0  0
    7.3386   -0.5939   21.0378 C   0  0  0  0  0  0  0  0  0  0  0  0
    6.6633    0.0738   19.9197 C   0  0  0  0  0  0  0  0  0  0  0  0
    7.1939    0.0383   18.6166 C   0  0  0  0  0  0  0  0  0  0  0  0
    8.1301   -0.4897   18.4267 H   0  0  0  0  0  0  0  0  0  0  0  0
    6.6203    0.6286   17.5625 N   0  0  0  0  0  0  0  0  0  0  0  0
    5.4519    1.2574   17.7739 C   0  0  0  0  0  0  0  0  0  0  0  0
    5.0066    1.7287   16.9030 H   0  0  0  0  0  0  0  0  0  0  0  0
    4.8246    1.3338   19.0225 C   0  0  0  0  0  0  0  0  0  0  0  0
    3.8776    1.8524   19.1178 H   0  0  0  0  0  0  0  0  0  0  0  0
    5.4467    0.7480   20.1211 C   0  0  0  0  0  0  0  0  0  0  0  0
    4.9908    0.7766   21.1146 H   0  0  0  0  0  0  0  0  0  0  0  0
    7.6941   -1.9238   20.8282 N   0  0  0  0  0  0  0  0  0  0  0  0
    7.2752   -2.4395   20.0751 H   0  0  0  0  0  0  0  0  0  0  0  0
    8.0814   -2.7458   21.8427 C   0  0  0  0  0  0  0  0  0  0  0  0
    8.0417   -4.3950   21.7026 S   0  0  0  0  0  0  0  0  0  0  0  0
    8.4774   -2.1514   22.9795 N   0  0  0  0  0  0  0  0  0  0  0  0
    8.4850   -2.8210   23.7308 H   0  0  0  0  0  0  0  0  0  0  0  0
    8.4116   -0.7212   23.2686 C   0  0  1  0  0  0  0  0  0  0  0  0
    7.9351   -0.5870   24.2527 H   0  0  0  0  0  0  0  0  0  0  0  0
    9.8400   -0.1214   23.3964 C   0  0  0  0  0  0  0  0  0  0  0  0
   10.3813   -0.6648   24.1759 H   0  0  0  0  0  0  0  0  0  0  0  0
   10.3764   -0.2731   22.4510 H   0  0  0  0  0  0  0  0  0  0  0  0
    9.7908    1.3629   23.7281 C   0  0  0  0  0  0  0  0  0  0  0  0
   10.8022    1.7811   23.8158 H   0  0  0  0  0  0  0  0  0  0  0  0
    9.2828    1.9018   22.9177 H   0  0  0  0  0  0  0  0  0  0  0  0
    9.0737    1.5100   24.9545 O   0  0  0  0  0  0  0  0  0  0  0  0
    8.8866    2.7332   25.5323 C   0  0  0  0  0  0  0  0  0  0  0  0
    8.1548    2.7282   26.7358 C   0  0  0  0  0  0  0  0  0  0  0  0
    7.8141    1.7757   27.1293 H   0  0  0  0  0  0  0  0  0  0  0  0
    7.8907    3.9254   27.4015 C   0  0  0  0  0  0  0  0  0  0  0  0
    7.3256    3.9109   28.3318 H   0  0  0  0  0  0  0  0  0  0  0  0
    8.3729    5.1418   26.8991 C   0  0  0  0  0  0  0  0  0  0  0  0
    8.1723    6.0701   27.4294 H   0  0  0  0  0  0  0  0  0  0  0  0
    9.1057    5.1455   25.7123 C   0  0  0  0  0  0  0  0  0  0  0  0
    9.4822    6.0843   25.3110 H   0  0  0  0  0  0  0  0  0  0  0  0
    9.3583    3.9509   25.0198 C   0  0  0  0  0  0  0  0  0  0  0  0
    9.9143    3.9643   24.0891 H   0  0  0  0  0  0  0  0  0  0  0  0
  1  2  1  0
  2  3  2  0
  3  4  1  0
  4  5  2  0
  5  6  1  0
  5  7  1  0
  7  8  2  0
  8  9  1  0
  8 10  1  0
 10 11  1  0
 10 12  2  0
 12 13  1  0
  3 14  1  0
 14 15  1  0
 14 16  1  0
 16 17  2  0
 16 18  1  0
 18 19  1  0
 18 20  1  0
 20 21  1  1
 20 22  1  0
 22 23  1  0
 22 24  1  0
 22 25  1  0
 25 26  1  0
 25 27  1  0
 25 28  1  0
 28 29  1  0
 29 30  2  0
 30 31  1  0
 30 32  1  0
 32 33  1  0
 32 34  2  0
 34 35  1  0
 34 36  1  0
 36 37  1  0
 36 38  2  0
 38 39  1  0
 20  2  1  0
 38 29  1  0
 12  4  1  0
M  END
>  <cnnaffinity>  (1) 
-5.14004

>  <filename>  (1) 
S=C1NC(c2cccnc2)=C[C@H](CCOc2ccccc2)N1

$$$$
