
     RDKit          3D

 32 34  0  0  0  0  0  0  0  0999 V2000
    5.6893   -3.7249   23.1394 H   0  0  0  0  0  0  0  0  0  0  0  0
    6.4849   -3.7752   23.8769 C   0  0  0  0  0  0  0  0  0  0  0  0
    7.5754   -3.0033   23.7643 C   0  0  0  0  0  0  0  0  0  0  0  0
    7.6799   -2.0528   22.6608 C   0  0  0  0  0  0  0  0  0  0  0  0
    6.7406   -1.6020   21.7917 C   0  0  0  0  0  0  0  0  0  0  0  0
    5.6828   -1.8054   21.7114 H   0  0  0  0  0  0  0  0  0  0  0  0
    7.3384   -0.6766   20.9472 N   0  0  0  0  0  0  0  0  0  0  0  0
    6.6533    0.0009   19.8913 C   0  0  0  0  0  0  0  0  0  0  0  0
    7.1716    0.0422   18.5816 C   0  0  0  0  0  0  0  0  0  0  0  0
    8.1259   -0.4354   18.3652 H   0  0  0  0  0  0  0  0  0  0  0  0
    6.5531    0.6576   17.5672 N   0  0  0  0  0  0  0  0  0  0  0  0
    5.3983    1.2887   17.8351 C   0  0  0  0  0  0  0  0  0  0  0  0
    4.9340    1.7982   16.9971 H   0  0  0  0  0  0  0  0  0  0  0  0
    4.8059    1.3095   19.1034 C   0  0  0  0  0  0  0  0  0  0  0  0
    3.8747    1.8432   19.2612 H   0  0  0  0  0  0  0  0  0  0  0  0
    5.4412    0.6453   20.1554 C   0  0  0  0  0  0  0  0  0  0  0  0
    5.0328    0.6336   21.1691 H   0  0  0  0  0  0  0  0  0  0  0  0
    8.6555   -0.4982   21.3141 C   0  0  0  0  0  0  0  0  0  0  0  0
    9.8159    0.5548   20.7728 S   0  0  0  0  0  0  0  0  0  0  0  0
    8.8448   -1.3750   22.3230 N   0  0  0  0  0  0  0  0  0  0  0  0
    9.7649   -1.4206   22.7214 H   0  0  0  0  0  0  0  0  0  0  0  0
    8.7164   -3.1320   24.7797 C   0  0  0  0  0  0  0  0  0  0  0  0
    9.0824   -2.1434   25.0718 H   0  0  0  0  0  0  0  0  0  0  0  0
    9.5612   -3.6505   24.3048 H   0  0  0  0  0  0  0  0  0  0  0  0
    8.2812   -3.9108   26.0387 C   0  0  0  0  0  0  0  0  0  0  0  0
    7.6643   -3.2696   26.6871 H   0  0  0  0  0  0  0  0  0  0  0  0
    9.1544   -4.2097   26.6337 H   0  0  0  0  0  0  0  0  0  0  0  0
    7.4971   -5.1077   25.7171 N   0  0  0  0  0  0  0  0  0  0  0  0
    8.0581   -5.6608   25.0683 H   0  0  0  0  0  0  0  0  0  0  0  0
    6.2633   -4.7410   25.0171 C   0  0  0  0  0  0  0  0  0  0  0  0
    5.5556   -4.2962   25.7363 H   0  0  0  0  0  0  0  0  0  0  0  0
    5.7734   -5.6497   24.6482 H   0  0  0  0  0  0  0  0  0  0  0  0
  1  2  1  0
  2  3  2  0
  3  4  1  0
  4  5  2  0
  5  6  1  0
  5  7  1  0
  7  8  1  0
  8  9  2  0
  9 10  1  0
  9 11  1  0
 11 12  2  0
 12 13  1  0
 12 14  1  0
 14 15  1  0
 14 16  2  0
 16 17  1  0
  7 18  1  0
 18 19  2  0
 18 20  1  0
 20 21  1  0
  3 22  1  0
 22 23  1  0
 22 24  1  0
 22 25  1  0
 25 26  1  0
 25 27  1  0
 25 28  1  0
 28 29  1  0
 28 30  1  0
 30 31  1  0
 30 32  1  0
 30  2  1  0
 20  4  1  0
 16  8  1  0
M  END
>  <cnnaffinity>  (1) 
-5.37116

>  <filename>  (1) 
S=c1[nH]c(C2=CCNCC2)cn1-c1cccnc1

$$$$
