
     RDKit          3D

 35 37  0  0  0  0  0  0  0  0999 V2000
    5.0029    1.7186   16.8237 H   0  0  0  0  0  0  0  0  0  0  0  0
    5.3956    1.3119   17.7529 C   0  0  0  0  0  0  0  0  0  0  0  0
    6.5582    0.6471   17.6561 N   0  0  0  0  0  0  0  0  0  0  0  0
    7.0754    0.1495   18.7827 C   0  0  0  0  0  0  0  0  0  0  0  0
    8.0459   -0.3397   18.7081 H   0  0  0  0  0  0  0  0  0  0  0  0
    6.4574    0.2646   20.0430 C   0  0  0  0  0  0  0  0  0  0  0  0
    7.0286   -0.3862   21.1760 N   0  0  0  0  0  0  0  0  0  0  0  0
    7.3390   -1.7407   21.1888 C   0  0  0  0  0  0  0  0  0  0  0  0
    7.0308   -2.3819   20.3745 H   0  0  0  0  0  0  0  0  0  0  0  0
    8.0056   -2.0129   22.3324 C   0  0  0  0  0  0  0  0  0  0  0  0
    8.6568   -3.3127   22.7050 C   0  0  0  0  0  0  0  0  0  0  0  0
    9.3445   -3.5377   21.8850 H   0  0  0  0  0  0  0  0  0  0  0  0
    9.2818   -3.1720   23.6093 H   0  0  0  0  0  0  0  0  0  0  0  0
    7.7053   -4.4338   22.7951 N   0  0  0  0  0  0  0  0  0  0  0  0
    6.7785   -4.3422   23.9424 C   0  0  0  0  0  0  0  0  0  0  0  0
    5.9396   -5.0186   23.7312 H   0  0  0  0  0  0  0  0  0  0  0  0
    6.3799   -3.3197   24.0032 H   0  0  0  0  0  0  0  0  0  0  0  0
    7.3933   -4.7619   25.3066 C   0  0  0  0  0  0  0  0  0  0  0  0
    8.0287   -3.9492   25.6938 H   0  0  0  0  0  0  0  0  0  0  0  0
    6.5987   -4.9539   26.0391 H   0  0  0  0  0  0  0  0  0  0  0  0
    8.1367   -5.9740   25.2350 O   0  0  0  0  0  0  0  0  0  0  0  0
    9.0743   -5.9906   24.1659 C   0  0  0  0  0  0  0  0  0  0  0  0
    9.5834   -6.9530   24.2077 H   0  0  0  0  0  0  0  0  0  0  0  0
    9.8523   -5.2223   24.3129 H   0  0  0  0  0  0  0  0  0  0  0  0
    8.3618   -5.7526   22.8223 C   0  0  0  0  0  0  0  0  0  0  0  0
    7.5965   -6.5245   22.6635 H   0  0  0  0  0  0  0  0  0  0  0  0
    9.0346   -5.8398   21.9659 H   0  0  0  0  0  0  0  0  0  0  0  0
    8.0566   -0.8087   23.0236 N   0  0  0  0  0  0  0  0  0  0  0  0
    8.4246   -0.5808   23.9325 H   0  0  0  0  0  0  0  0  0  0  0  0
    7.4573    0.2068   22.3449 C   0  0  0  0  0  0  0  0  0  0  0  0
    7.3458    1.7701   22.9032 S   0  0  0  0  0  0  0  0  0  0  0  0
    5.2743    0.9998   20.1476 C   0  0  0  0  0  0  0  0  0  0  0  0
    4.8262    1.1695   21.1278 H   0  0  0  0  0  0  0  0  0  0  0  0
    4.7245    1.5080   18.9648 C   0  0  0  0  0  0  0  0  0  0  0  0
    3.7994    2.0705   18.9753 H   0  0  0  0  0  0  0  0  0  0  0  0
  1  2  1  0
  2  3  2  0
  3  4  1  0
  4  5  1  0
  4  6  2  0
  6  7  1  0
  7  8  1  0
  8  9  1  0
  8 10  2  0
 10 11  1  0
 11 12  1  0
 11 13  1  0
 11 14  1  0
 14 15  1  0
 15 16  1  0
 15 17  1  0
 15 18  1  0
 18 19  1  0
 18 20  1  0
 18 21  1  0
 21 22  1  0
 22 23  1  0
 22 24  1  0
 22 25  1  0
 25 26  1  0
 25 27  1  0
 10 28  1  0
 28 29  1  0
 28 30  1  0
 30 31  2  0
  6 32  1  0
 32 33  1  0
 32 34  2  0
 34 35  1  0
 34  2  1  0
 30  7  1  0
 25 14  1  0
M  END
>  <cnnaffinity>  (1) 
-4.98974

>  <filename>  (1) 
S=c1[nH]c(CN2CCOCC2)cn1-c1cccnc1

$$$$
