
     RDKit          3D

 27 29  0  0  0  0  0  0  0  0999 V2000
    4.9196    1.7809   16.9981 H   0  0  0  0  0  0  0  0  0  0  0  0
    5.4019    1.2941   17.8401 C   0  0  0  0  0  0  0  0  0  0  0  0
    6.5674    0.6820   17.5763 N   0  0  0  0  0  0  0  0  0  0  0  0
    7.1683    0.0541   18.5884 C   0  0  0  0  0  0  0  0  0  0  0  0
    8.1165   -0.4343   18.3709 H   0  0  0  0  0  0  0  0  0  0  0  0
    6.6464    0.0099   19.8885 C   0  0  0  0  0  0  0  0  0  0  0  0
    7.3800   -0.7294   20.9039 C   0  0  0  0  0  0  0  0  0  0  0  0
    7.9746   -1.8638   20.6851 N   0  0  0  0  0  0  0  0  0  0  0  0
    8.4726   -2.2082   21.9021 N   0  0  0  0  0  0  0  0  0  0  0  0
    9.0150   -3.0418   22.0518 H   0  0  0  0  0  0  0  0  0  0  0  0
    8.2623   -1.3057   22.8767 C   0  0  0  0  0  0  0  0  0  0  0  0
    8.8087   -1.3805   24.4395 S   0  0  0  0  0  0  0  0  0  0  0  0
    7.5091   -0.3297   22.2315 N   0  0  0  0  0  0  0  0  0  0  0  0
    7.1238    0.9371   22.8106 C   0  0  0  0  0  0  0  0  0  0  0  0
    6.3689    1.0127   23.9972 C   0  0  0  0  0  0  0  0  0  0  0  0
    6.0671    0.0977   24.5000 H   0  0  0  0  0  0  0  0  0  0  0  0
    5.9961    2.1623   24.5720 N   0  0  0  0  0  0  0  0  0  0  0  0
    6.3646    3.3073   23.9831 C   0  0  0  0  0  0  0  0  0  0  0  0
    6.0494    4.2291   24.4729 H   0  0  0  0  0  0  0  0  0  0  0  0
    7.1149    3.3436   22.8063 C   0  0  0  0  0  0  0  0  0  0  0  0
    7.3763    4.2981   22.3624 H   0  0  0  0  0  0  0  0  0  0  0  0
    7.5104    2.1406   22.2117 C   0  0  0  0  0  0  0  0  0  0  0  0
    8.0787    2.1361   21.2820 H   0  0  0  0  0  0  0  0  0  0  0  0
    5.4267    0.6519   20.1545 C   0  0  0  0  0  0  0  0  0  0  0  0
    5.0122    0.6360   21.1671 H   0  0  0  0  0  0  0  0  0  0  0  0
    4.8001    1.3105   19.1036 C   0  0  0  0  0  0  0  0  0  0  0  0
    3.8716    1.8445   19.2563 H   0  0  0  0  0  0  0  0  0  0  0  0
  1  2  1  0
  2  3  2  0
  3  4  1  0
  4  5  1  0
  4  6  2  0
  6  7  1  0
  7  8  2  0
  8  9  1  0
  9 10  1  0
  9 11  1  0
 11 12  2  0
 11 13  1  0
 13 14  1  0
 14 15  2  0
 15 16  1  0
 15 17  1  0
 17 18  2  0
 18 19  1  0
 18 20  1  0
 20 21  1  0
 20 22  2  0
 22 23  1  0
  6 24  1  0
 24 25  1  0
 24 26  2  0
 26 27  1  0
 26  2  1  0
 13  7  1  0
 22 14  1  0
M  END
>  <cnnaffinity>  (1) 
-5.04021

>  <filename>  (1) 
S=c1[nH]nc(-c2cccnc2)n1-c1cccnc1

$$$$
