
     RDKit          3D

 40 43  0  0  0  0  0  0  0  0999 V2000
    8.3338    5.3787   27.4096 Br  0  0  0  0  0  0  0  0  0  0  0  0
    7.3970    3.8110   26.8458 C   0  0  0  0  0  0  0  0  0  0  0  0
    6.3453    3.2836   27.5969 C   0  0  0  0  0  0  0  0  0  0  0  0
    5.6961    2.1183   27.1751 C   0  0  0  0  0  0  0  0  0  0  0  0
    6.0843    1.4810   25.9906 C   0  0  0  0  0  0  0  0  0  0  0  0
    7.1078    2.0304   25.1955 C   0  0  0  0  0  0  0  0  0  0  0  0
    7.5258    1.4293   23.9132 C   0  0  0  0  0  0  0  0  0  0  0  0
    6.9086    0.4788   23.2421 N   0  0  0  0  0  0  0  0  0  0  0  0
    7.6880    0.2930   22.1426 N   0  0  0  0  0  0  0  0  0  0  0  0
    7.4083   -0.6508   21.0430 C   0  0  0  0  0  0  0  0  0  0  0  0
    6.6940    0.0462   19.9095 C   0  0  0  0  0  0  0  0  0  0  0  0
    5.4690    0.6884   20.1205 C   0  0  0  0  0  0  0  0  0  0  0  0
    4.8648    1.3190   19.0323 C   0  0  0  0  0  0  0  0  0  0  0  0
    5.4872    1.2899   17.7776 C   0  0  0  0  0  0  0  0  0  0  0  0
    6.6569    0.6569   17.5687 N   0  0  0  0  0  0  0  0  0  0  0  0
    7.2407    0.0496   18.6150 C   0  0  0  0  0  0  0  0  0  0  0  0
    8.1775   -0.4733   18.4513 H   0  0  0  0  0  0  0  0  0  0  0  0
    5.0063    1.7918   16.9428 H   0  0  0  0  0  0  0  0  0  0  0  0
    3.9209    1.8450   19.1388 H   0  0  0  0  0  0  0  0  0  0  0  0
    4.9977    0.7041   21.1059 H   0  0  0  0  0  0  0  0  0  0  0  0
    8.3392   -1.1085   20.6898 H   0  0  0  0  0  0  0  0  0  0  0  0
    6.7822   -1.4633   21.4229 H   0  0  0  0  0  0  0  0  0  0  0  0
    8.7774    1.1410   22.2216 C   0  0  0  0  0  0  0  0  0  0  0  0
    9.9325    1.2837   21.2803 C   0  0  0  0  0  0  0  0  0  0  0  0
   11.0325    0.3083   21.6150 C   0  0  0  0  0  0  0  0  0  0  0  0
   11.9908    0.3970   22.5951 C   0  0  0  0  0  0  0  0  0  0  0  0
   12.8537   -0.6918   22.5436 N   0  0  0  0  0  0  0  0  0  0  0  0
   12.4262   -1.4399   21.5583 C   0  0  0  0  0  0  0  0  0  0  0  0
   11.3115   -0.8749   20.9732 N   0  0  0  0  0  0  0  0  0  0  0  0
   10.8169   -1.2647   20.1745 H   0  0  0  0  0  0  0  0  0  0  0  0
   12.8920   -2.3683   21.2484 H   0  0  0  0  0  0  0  0  0  0  0  0
   12.0748    1.2111   23.3053 H   0  0  0  0  0  0  0  0  0  0  0  0
    9.5849    1.1089   20.2626 H   0  0  0  0  0  0  0  0  0  0  0  0
   10.3144    2.3089   21.3543 H   0  0  0  0  0  0  0  0  0  0  0  0
    8.6824    1.8675   23.2921 N   0  0  0  0  0  0  0  0  0  0  0  0
    7.7640    3.1902   25.6537 C   0  0  0  0  0  0  0  0  0  0  0  0
    8.5811    3.6199   25.0791 H   0  0  0  0  0  0  0  0  0  0  0  0
    5.5891    0.5571   25.6997 H   0  0  0  0  0  0  0  0  0  0  0  0
    4.9013    1.6990   27.7821 H   0  0  0  0  0  0  0  0  0  0  0  0
    6.0373    3.7853   28.5083 H   0  0  0  0  0  0  0  0  0  0  0  0
  1  2  1  0
  2  3  2  0
  3  4  1  0
  4  5  2  0
  5  6  1  0
  6  7  1  0
  7  8  2  0
  8  9  1  0
  9 10  1  0
 10 11  1  0
 11 12  2  0
 12 13  1  0
 13 14  2  0
 14 15  1  0
 15 16  2  0
 16 17  1  0
 14 18  1  0
 13 19  1  0
 12 20  1  0
 10 21  1  0
 10 22  1  0
  9 23  1  0
 23 24  1  0
 24 25  1  0
 25 26  2  0
 26 27  1  0
 27 28  2  0
 28 29  1  0
 29 30  1  0
 28 31  1  0
 26 32  1  0
 24 33  1  0
 24 34  1  0
 23 35  2  0
  6 36  2  0
 36 37  1  0
  5 38  1  0
  4 39  1  0
  3 40  1  0
 36  2  1  0
 35  7  1  0
 16 11  1  0
 29 25  1  0
M  END
>  <cnnaffinity>  (1) 
-5.82193

>  <filename>  (1) 
Brc1cccc(-c2nc(Cc3cnc[nH]3)n(Cc3cccnc3)n2)c1

$$$$
