
     RDKit          3D

 41 44  0  0  0  0  0  0  0  0999 V2000
   14.3958   -1.3326   22.0366 Br  0  0  0  0  0  0  0  0  0  0  0  0
   12.7256   -0.4459   22.0434 C   0  0  0  0  0  0  0  0  0  0  0  0
   11.6319   -1.0559   21.4411 C   0  0  0  0  0  0  0  0  0  0  0  0
   10.3777   -0.4489   21.4997 C   0  0  0  0  0  0  0  0  0  0  0  0
   10.1989    0.7541   22.2046 C   0  0  0  0  0  0  0  0  0  0  0  0
    8.7994    1.2761   22.4595 C   0  0  0  0  0  0  0  0  0  0  0  0
    7.8736    0.0935   22.5277 C   0  0  0  0  0  0  0  0  0  0  0  0
    7.8152   -0.7029   23.5597 N   0  0  0  0  0  0  0  0  0  0  0  0
    7.0411   -1.7650   23.1033 C   0  0  0  0  0  0  0  0  0  0  0  0
    6.8209   -3.0342   23.9210 C   0  0  0  0  0  0  0  0  0  0  0  0
    6.2172   -2.8291   25.3162 C   0  0  0  0  0  0  0  0  0  0  0  0
    5.5744   -4.1796   25.5862 C   0  0  0  0  0  0  0  0  0  0  0  0
    5.0907   -4.6173   24.2128 C   0  0  0  0  0  0  0  0  0  0  0  0
    5.9664   -3.9973   23.2679 O   0  0  0  0  0  0  0  0  0  0  0  0
    5.1147   -5.7067   24.1111 H   0  0  0  0  0  0  0  0  0  0  0  0
    4.0637   -4.2766   24.0459 H   0  0  0  0  0  0  0  0  0  0  0  0
    6.3225   -4.8910   25.9532 H   0  0  0  0  0  0  0  0  0  0  0  0
    4.7609   -4.1224   26.3156 H   0  0  0  0  0  0  0  0  0  0  0  0
    5.4660   -2.0311   25.3160 H   0  0  0  0  0  0  0  0  0  0  0  0
    6.9801   -2.5922   26.0665 H   0  0  0  0  0  0  0  0  0  0  0  0
    7.8060   -3.4895   24.0454 H   0  0  0  0  0  0  0  0  0  0  0  0
    6.6279   -1.6244   21.8599 N   0  0  0  0  0  0  0  0  0  0  0  0
    7.1340   -0.4373   21.4780 N   0  0  0  0  0  0  0  0  0  0  0  0
    6.8010    0.1758   20.2638 C   0  0  0  0  0  0  0  0  0  0  0  0
    5.6829    1.0053   20.2189 C   0  0  0  0  0  0  0  0  0  0  0  0
    5.3444    1.5890   18.9994 C   0  0  0  0  0  0  0  0  0  0  0  0
    6.1280    1.3341   17.8678 C   0  0  0  0  0  0  0  0  0  0  0  0
    7.2009    0.5216   17.8967 N   0  0  0  0  0  0  0  0  0  0  0  0
    7.5204   -0.0586   19.0749 C   0  0  0  0  0  0  0  0  0  0  0  0
    8.3761   -0.7275   19.0947 H   0  0  0  0  0  0  0  0  0  0  0  0
    5.8609    1.8295   16.9391 H   0  0  0  0  0  0  0  0  0  0  0  0
    4.4829    2.2445   18.9246 H   0  0  0  0  0  0  0  0  0  0  0  0
    5.0909    1.1761   21.1176 H   0  0  0  0  0  0  0  0  0  0  0  0
    8.4822    1.9734   21.6797 H   0  0  0  0  0  0  0  0  0  0  0  0
    8.7671    1.7996   23.4181 H   0  0  0  0  0  0  0  0  0  0  0  0
   11.3190    1.3892   22.7601 C   0  0  0  0  0  0  0  0  0  0  0  0
   12.5859    0.7953   22.6645 C   0  0  0  0  0  0  0  0  0  0  0  0
   13.4593    1.2779   23.0912 H   0  0  0  0  0  0  0  0  0  0  0  0
   11.1900    2.3222   23.2985 H   0  0  0  0  0  0  0  0  0  0  0  0
    9.5213   -0.9489   21.0599 H   0  0  0  0  0  0  0  0  0  0  0  0
   11.7598   -2.0204   20.9640 H   0  0  0  0  0  0  0  0  0  0  0  0
  1  2  1  0
  2  3  2  0
  3  4  1  0
  4  5  2  0
  5  6  1  0
  6  7  1  0
  7  8  2  0
  8  9  1  0
  9 10  1  0
 10 11  1  0
 11 12  1  0
 12 13  1  0
 13 14  1  0
 13 15  1  0
 13 16  1  0
 12 17  1  0
 12 18  1  0
 11 19  1  0
 11 20  1  0
 10 21  1  0
  9 22  2  0
 22 23  1  0
 23 24  1  0
 24 25  2  0
 25 26  1  0
 26 27  2  0
 27 28  1  0
 28 29  2  0
 29 30  1  0
 27 31  1  0
 26 32  1  0
 25 33  1  0
  6 34  1  0
  6 35  1  0
  5 36  1  0
 36 37  2  0
 37 38  1  0
 36 39  1  0
  4 40  1  0
  3 41  1  0
 37  2  1  0
 23  7  1  0
 29 24  1  0
 14 10  1  0
M  END
>  <cnnaffinity>  (1) 
-6.49143

>  <filename>  (1) 
Brc1ccc(Cc2nc(C3CCCO3)nn2-c2cccnc2)cc1

$$$$
