
     RDKit          3D

 35 37  0  0  0  0  0  0  0  0999 V2000
    8.5119    2.3625   20.9521 Br  0  0  0  0  0  0  0  0  0  0  0  0
    9.9600    1.5927   21.9133 C   0  0  0  0  0  0  0  0  0  0  0  0
   11.2919    1.7299   21.5067 C   0  0  0  0  0  0  0  0  0  0  0  0
   12.3116    1.1008   22.2371 C   0  0  0  0  0  0  0  0  0  0  0  0
   11.9906    0.3859   23.3987 C   0  0  0  0  0  0  0  0  0  0  0  0
   10.6638    0.2674   23.8288 C   0  0  0  0  0  0  0  0  0  0  0  0
   10.3658   -0.4377   24.9706 O   0  0  0  0  0  0  0  0  0  0  0  0
    8.9623   -0.5652   25.2938 C   0  0  0  0  0  0  0  0  0  0  0  0
    8.2574   -1.6208   24.4145 C   0  0  0  0  0  0  0  0  0  0  0  0
    8.1706   -1.2856   22.9723 N   0  0  0  0  0  0  0  0  0  0  0  0
    9.0301   -1.6989   21.9540 C   0  0  0  0  0  0  0  0  0  0  0  0
    8.6012   -1.3059   20.7731 N   0  0  0  0  0  0  0  0  0  0  0  0
    7.4292   -0.5991   21.0064 C   0  0  0  0  0  0  0  0  0  0  0  0
    6.6717    0.0252   19.9280 C   0  0  0  0  0  0  0  0  0  0  0  0
    5.4563    0.6901   20.1378 C   0  0  0  0  0  0  0  0  0  0  0  0
    4.8637    1.3104   19.0385 C   0  0  0  0  0  0  0  0  0  0  0  0
    5.4742    1.2444   17.7836 C   0  0  0  0  0  0  0  0  0  0  0  0
    6.6258    0.5779   17.5808 N   0  0  0  0  0  0  0  0  0  0  0  0
    7.2107   -0.0186   18.6360 C   0  0  0  0  0  0  0  0  0  0  0  0
    8.1486   -0.5413   18.4600 H   0  0  0  0  0  0  0  0  0  0  0  0
    4.9997    1.7490   16.9453 H   0  0  0  0  0  0  0  0  0  0  0  0
    3.9380    1.8637   19.1453 H   0  0  0  0  0  0  0  0  0  0  0  0
    4.9914    0.7393   21.1214 H   0  0  0  0  0  0  0  0  0  0  0  0
    7.1510   -0.5791   22.3499 C   0  0  0  0  0  0  0  0  0  0  0  0
    6.3017   -0.1041   22.8306 H   0  0  0  0  0  0  0  0  0  0  0  0
    9.9324   -2.2862   22.1175 H   0  0  0  0  0  0  0  0  0  0  0  0
    7.2409   -1.7645   24.7950 H   0  0  0  0  0  0  0  0  0  0  0  0
    8.7734   -2.5766   24.5490 H   0  0  0  0  0  0  0  0  0  0  0  0
    8.8744   -0.8663   26.3431 H   0  0  0  0  0  0  0  0  0  0  0  0
    8.4562    0.4023   25.1988 H   0  0  0  0  0  0  0  0  0  0  0  0
    9.6641    0.8703   23.0630 C   0  0  0  0  0  0  0  0  0  0  0  0
    8.6309    0.7710   23.3647 H   0  0  0  0  0  0  0  0  0  0  0  0
   12.7744   -0.0860   23.9781 H   0  0  0  0  0  0  0  0  0  0  0  0
   13.3528    1.1545   21.9295 H   0  0  0  0  0  0  0  0  0  0  0  0
   11.5382    2.3182   20.6256 H   0  0  0  0  0  0  0  0  0  0  0  0
  1  2  1  0
  2  3  2  0
  3  4  1  0
  4  5  2  0
  5  6  1  0
  6  7  1  0
  7  8  1  0
  8  9  1  0
  9 10  1  0
 10 11  1  0
 11 12  2  0
 12 13  1  0
 13 14  1  0
 14 15  2  0
 15 16  1  0
 16 17  2  0
 17 18  1  0
 18 19  2  0
 19 20  1  0
 17 21  1  0
 16 22  1  0
 15 23  1  0
 13 24  2  0
 24 25  1  0
 11 26  1  0
  9 27  1  0
  9 28  1  0
  8 29  1  0
  8 30  1  0
  6 31  2  0
 31 32  1  0
  5 33  1  0
  4 34  1  0
  3 35  1  0
 31  2  1  0
 24 10  1  0
 19 14  1  0
M  END
>  <cnnaffinity>  (1) 
-5.45078

>  <filename>  (1) 
Brc1cccc(OCCn2cnc(-c3cccnc3)c2)c1

$$$$
