
     RDKit          3D

 37 40  0  0  0  0  0  0  0  0999 V2000
    6.4966   -0.1218   25.3646 Br  0  0  0  0  0  0  0  0  0  0  0  0
    6.6417    1.3687   24.1670 C   0  0  0  0  0  0  0  0  0  0  0  0
    6.5193    2.6585   24.6752 C   0  0  0  0  0  0  0  0  0  0  0  0
    6.6972    3.7329   23.8070 C   0  0  0  0  0  0  0  0  0  0  0  0
    6.9701    3.4965   22.4577 C   0  0  0  0  0  0  0  0  0  0  0  0
    7.0512    2.2485   21.9613 N   0  0  0  0  0  0  0  0  0  0  0  0
    6.9063    1.1831   22.7933 C   0  0  0  0  0  0  0  0  0  0  0  0
    7.2071   -0.1779   22.2882 C   0  0  0  0  0  0  0  0  0  0  0  0
    7.6815   -1.1731   23.0066 N   0  0  0  0  0  0  0  0  0  0  0  0
    8.1091   -2.0759   22.0526 C   0  0  0  0  0  0  0  0  0  0  0  0
    8.9481   -3.2891   22.3131 C   0  0  0  0  0  0  0  0  0  0  0  0
   10.3403   -2.9181   22.8635 C   0  0  0  0  0  0  0  0  0  0  0  0
   10.3493   -3.4422   24.2945 C   0  0  0  0  0  0  0  0  0  0  0  0
    8.9983   -3.8031   24.6011 O   0  0  0  0  0  0  0  0  0  0  0  0
    8.3699   -4.1979   23.3825 C   0  0  0  0  0  0  0  0  0  0  0  0
    8.6394   -5.2363   23.1654 H   0  0  0  0  0  0  0  0  0  0  0  0
    7.2782   -4.1204   23.4221 H   0  0  0  0  0  0  0  0  0  0  0  0
   10.6865   -2.6450   24.9514 H   0  0  0  0  0  0  0  0  0  0  0  0
   11.0214   -4.3014   24.4120 H   0  0  0  0  0  0  0  0  0  0  0  0
   11.1650   -3.3398   22.2862 H   0  0  0  0  0  0  0  0  0  0  0  0
   10.4881   -1.8344   22.8739 H   0  0  0  0  0  0  0  0  0  0  0  0
    8.9871   -3.8132   21.3605 H   0  0  0  0  0  0  0  0  0  0  0  0
    7.8387   -1.7320   20.8176 N   0  0  0  0  0  0  0  0  0  0  0  0
    7.2216   -0.5472   20.9481 N   0  0  0  0  0  0  0  0  0  0  0  0
    6.6161    0.1115   19.8781 C   0  0  0  0  0  0  0  0  0  0  0  0
    5.4694    0.8692   20.0978 C   0  0  0  0  0  0  0  0  0  0  0  0
    4.8640    1.4667   18.9984 C   0  0  0  0  0  0  0  0  0  0  0  0
    5.4285    1.3203   17.7269 C   0  0  0  0  0  0  0  0  0  0  0  0
    6.5362    0.5871   17.5067 N   0  0  0  0  0  0  0  0  0  0  0  0
    7.1117   -0.0181   18.5648 C   0  0  0  0  0  0  0  0  0  0  0  0
    8.0034   -0.6132   18.3833 H   0  0  0  0  0  0  0  0  0  0  0  0
    4.9406    1.8100   16.8913 H   0  0  0  0  0  0  0  0  0  0  0  0
    3.9636    2.0544   19.1244 H   0  0  0  0  0  0  0  0  0  0  0  0
    5.0597    0.9721   21.1028 H   0  0  0  0  0  0  0  0  0  0  0  0
    7.1465    4.3452   21.8030 H   0  0  0  0  0  0  0  0  0  0  0  0
    6.6414    4.7528   24.1684 H   0  0  0  0  0  0  0  0  0  0  0  0
    6.3176    2.8142   25.7338 H   0  0  0  0  0  0  0  0  0  0  0  0
  1  2  1  0
  2  3  2  0
  3  4  1  0
  4  5  2  0
  5  6  1  0
  6  7  2  0
  7  8  1  0
  8  9  2  0
  9 10  1  0
 10 11  1  0
 11 12  1  0
 12 13  1  0
 13 14  1  0
 14 15  1  0
 15 16  1  0
 15 17  1  0
 13 18  1  0
 13 19  1  0
 12 20  1  0
 12 21  1  0
 11 22  1  0
 10 23  2  0
 23 24  1  0
 24 25  1  0
 25 26  2  0
 26 27  1  0
 27 28  2  0
 28 29  1  0
 29 30  2  0
 30 31  1  0
 28 32  1  0
 27 33  1  0
 26 34  1  0
  5 35  1  0
  4 36  1  0
  3 37  1  0
  7  2  1  0
 24  8  1  0
 30 25  1  0
 15 11  1  0
M  END
>  <cnnaffinity>  (1) 
-5.84815

>  <filename>  (1) 
Brc1cccnc1-c1nc(C2CCOC2)nn1-c1cccnc1

$$$$
