
     RDKit          3D

 38 41  0  0  0  0  0  0  0  0999 V2000
    5.4026   -3.0423   18.8201 Br  0  0  0  0  0  0  0  0  0  0  0  0
    5.7168   -4.2497   20.2757 C   0  0  0  0  0  0  0  0  0  0  0  0
    5.8830   -3.8642   21.5796 C   0  0  0  0  0  0  0  0  0  0  0  0
    5.8166   -2.4545   22.0662 C   0  0  0  0  0  0  0  0  0  0  0  0
    7.1080   -1.7504   21.8727 C   0  0  0  0  0  0  0  0  0  0  0  0
    8.1181   -1.9528   22.6628 N   0  0  0  0  0  0  0  0  0  0  0  0
    9.0869   -1.1267   22.1351 C   0  0  0  0  0  0  0  0  0  0  0  0
   10.4283   -1.0061   22.7801 C   0  0  0  0  0  0  0  0  0  0  0  0
   11.2089   -2.2909   22.5984 C   0  0  0  0  0  0  0  0  0  0  0  0
   10.6902   -3.1788   23.7238 C   0  0  0  0  0  0  0  0  0  0  0  0
    9.9850   -2.3143   24.6321 O   0  0  0  0  0  0  0  0  0  0  0  0
   10.2270   -0.9459   24.2811 C   0  0  0  0  0  0  0  0  0  0  0  0
   11.1309   -0.5837   24.7836 H   0  0  0  0  0  0  0  0  0  0  0  0
    9.3813   -0.3063   24.5617 H   0  0  0  0  0  0  0  0  0  0  0  0
   10.0134   -3.9352   23.3165 H   0  0  0  0  0  0  0  0  0  0  0  0
   11.5094   -3.6897   24.2378 H   0  0  0  0  0  0  0  0  0  0  0  0
   11.0402   -2.7161   21.6123 H   0  0  0  0  0  0  0  0  0  0  0  0
   12.2823   -2.1188   22.6978 H   0  0  0  0  0  0  0  0  0  0  0  0
   10.9590   -0.1441   22.3783 H   0  0  0  0  0  0  0  0  0  0  0  0
    8.7456   -0.4667   21.0610 N   0  0  0  0  0  0  0  0  0  0  0  0
    7.4598   -0.8317   20.8863 N   0  0  0  0  0  0  0  0  0  0  0  0
    6.7092   -0.2416   19.8645 C   0  0  0  0  0  0  0  0  0  0  0  0
    5.3632    0.1248   19.9897 C   0  0  0  0  0  0  0  0  0  0  0  0
    4.7960    0.8453   18.9331 C   0  0  0  0  0  0  0  0  0  0  0  0
    5.5533    1.1488   17.7972 C   0  0  0  0  0  0  0  0  0  0  0  0
    6.8279    0.7464   17.6505 N   0  0  0  0  0  0  0  0  0  0  0  0
    7.3899    0.0843   18.6770 C   0  0  0  0  0  0  0  0  0  0  0  0
    8.4310   -0.2176   18.5906 H   0  0  0  0  0  0  0  0  0  0  0  0
    5.1057    1.7367   17.0025 H   0  0  0  0  0  0  0  0  0  0  0  0
    3.7771    1.2156   18.9826 H   0  0  0  0  0  0  0  0  0  0  0  0
    4.7905   -0.0805   20.8934 H   0  0  0  0  0  0  0  0  0  0  0  0
    5.0429   -1.9180   21.5246 H   0  0  0  0  0  0  0  0  0  0  0  0
    5.5832   -2.4697   23.1348 H   0  0  0  0  0  0  0  0  0  0  0  0
    6.0522   -4.9791   22.4957 C   0  0  0  0  0  0  0  0  0  0  0  0
    6.0095   -6.1858   21.8454 C   0  0  0  0  0  0  0  0  0  0  0  0
    5.7843   -5.9962   20.1102 S   0  0  0  0  0  0  0  0  0  0  0  0
    6.1135   -7.1535   22.3289 H   0  0  0  0  0  0  0  0  0  0  0  0
    6.1805   -4.8613   23.5708 H   0  0  0  0  0  0  0  0  0  0  0  0
  1  2  1  0
  2  3  2  0
  3  4  1  0
  4  5  1  0
  5  6  2  0
  6  7  1  0
  7  8  1  0
  8  9  1  0
  9 10  1  0
 10 11  1  0
 11 12  1  0
 12 13  1  0
 12 14  1  0
 10 15  1  0
 10 16  1  0
  9 17  1  0
  9 18  1  0
  8 19  1  0
  7 20  2  0
 20 21  1  0
 21 22  1  0
 22 23  2  0
 23 24  1  0
 24 25  2  0
 25 26  1  0
 26 27  2  0
 27 28  1  0
 25 29  1  0
 24 30  1  0
 23 31  1  0
  4 32  1  0
  4 33  1  0
  3 34  1  0
 34 35  2  0
 35 36  1  0
 35 37  1  0
 34 38  1  0
 36  2  1  0
 21  5  1  0
 27 22  1  0
 12  8  1  0
M  END
>  <cnnaffinity>  (1) 
-5.80385

>  <filename>  (1) 
Brc1sccc1Cc1nc(C2CCOC2)nn1-c1cccnc1

$$$$
