
     RDKit          3D

 37 40  0  0  0  0  0  0  0  0999 V2000
    6.5572    5.1141   21.6327 Br  0  0  0  0  0  0  0  0  0  0  0  0
    6.8901    3.5556   22.6852 C   0  0  0  0  0  0  0  0  0  0  0  0
    7.0826    3.7370   24.0575 C   0  0  0  0  0  0  0  0  0  0  0  0
    7.3936    2.6578   24.8721 C   0  0  0  0  0  0  0  0  0  0  0  0
    7.4818    1.4155   24.2574 C   0  0  0  0  0  0  0  0  0  0  0  0
    7.2637    1.2569   22.8716 C   0  0  0  0  0  0  0  0  0  0  0  0
    7.4394   -0.1032   22.2771 C   0  0  0  0  0  0  0  0  0  0  0  0
    7.8083   -1.1543   22.9772 N   0  0  0  0  0  0  0  0  0  0  0  0
    7.9660   -2.1427   22.0250 C   0  0  0  0  0  0  0  0  0  0  0  0
    8.4948   -3.5045   22.3400 C   0  0  0  0  0  0  0  0  0  0  0  0
    7.7498   -4.6589   21.6764 C   0  0  0  0  0  0  0  0  0  0  0  0
    8.1915   -5.8478   22.5168 C   0  0  0  0  0  0  0  0  0  0  0  0
    8.5432   -5.3241   23.8070 O   0  0  0  0  0  0  0  0  0  0  0  0
    8.4635   -3.8929   23.8097 C   0  0  0  0  0  0  0  0  0  0  0  0
    9.2996   -3.4492   24.3658 H   0  0  0  0  0  0  0  0  0  0  0  0
    7.5291   -3.5780   24.2851 H   0  0  0  0  0  0  0  0  0  0  0  0
    7.4108   -6.6128   22.5957 H   0  0  0  0  0  0  0  0  0  0  0  0
    9.0679   -6.3047   22.0529 H   0  0  0  0  0  0  0  0  0  0  0  0
    6.6706   -4.5073   21.7484 H   0  0  0  0  0  0  0  0  0  0  0  0
    7.9949   -4.7882   20.6189 H   0  0  0  0  0  0  0  0  0  0  0  0
    9.5282   -3.4943   22.0143 H   0  0  0  0  0  0  0  0  0  0  0  0
    7.7384   -1.7607   20.7980 N   0  0  0  0  0  0  0  0  0  0  0  0
    7.3370   -0.4826   20.9340 N   0  0  0  0  0  0  0  0  0  0  0  0
    6.7041    0.1696   19.8752 C   0  0  0  0  0  0  0  0  0  0  0  0
    5.5674    0.9368   20.1167 C   0  0  0  0  0  0  0  0  0  0  0  0
    4.9265    1.5056   19.0214 C   0  0  0  0  0  0  0  0  0  0  0  0
    5.4358    1.3219   17.7298 C   0  0  0  0  0  0  0  0  0  0  0  0
    6.5220    0.5615   17.4885 N   0  0  0  0  0  0  0  0  0  0  0  0
    7.1286   -0.0188   18.5404 C   0  0  0  0  0  0  0  0  0  0  0  0
    7.9830   -0.6607   18.3295 H   0  0  0  0  0  0  0  0  0  0  0  0
    4.9279    1.7807   16.8893 H   0  0  0  0  0  0  0  0  0  0  0  0
    4.0241    2.0867   19.1661 H   0  0  0  0  0  0  0  0  0  0  0  0
    5.1804    1.0448   21.1315 H   0  0  0  0  0  0  0  0  0  0  0  0
    6.9715    2.3381   22.1070 N   0  0  0  0  0  0  0  0  0  0  0  0
    7.7302    0.5533   24.8642 H   0  0  0  0  0  0  0  0  0  0  0  0
    7.5663    2.7789   25.9426 H   0  0  0  0  0  0  0  0  0  0  0  0
    7.0012    4.7313   24.4747 H   0  0  0  0  0  0  0  0  0  0  0  0
  1  2  1  0
  2  3  2  0
  3  4  1  0
  4  5  2  0
  5  6  1  0
  6  7  1  0
  7  8  2  0
  8  9  1  0
  9 10  1  0
 10 11  1  0
 11 12  1  0
 12 13  1  0
 13 14  1  0
 14 15  1  0
 14 16  1  0
 12 17  1  0
 12 18  1  0
 11 19  1  0
 11 20  1  0
 10 21  1  0
  9 22  2  0
 22 23  1  0
 23 24  1  0
 24 25  2  0
 25 26  1  0
 26 27  2  0
 27 28  1  0
 28 29  2  0
 29 30  1  0
 27 31  1  0
 26 32  1  0
 25 33  1  0
  6 34  2  0
  5 35  1  0
  4 36  1  0
  3 37  1  0
 34  2  1  0
 23  7  1  0
 29 24  1  0
 14 10  1  0
M  END
>  <cnnaffinity>  (1) 
-5.60485

>  <filename>  (1) 
Brc1cccc(-c2nc(C3CCOC3)nn2-c2cccnc2)n1

$$$$
