
     RDKit          3D

 25 27  0  0  0  0  0  0  0  0999 V2000
    9.9560   -4.2416   26.7249 Br  0  0  0  0  0  0  0  0  0  0  0  0
    8.7396   -2.9373   26.0544 C   0  0  0  0  0  0  0  0  0  0  0  0
    7.7143   -2.5060   26.8837 C   0  0  0  0  0  0  0  0  0  0  0  0
    6.6586   -1.7430   26.4030 C   0  0  0  0  0  0  0  0  0  0  0  0
    6.7214   -1.4220   25.0511 C   0  0  0  0  0  0  0  0  0  0  0  0
    7.8110   -1.8362   24.2518 C   0  0  0  0  0  0  0  0  0  0  0  0
    7.8610   -1.4840   22.8177 C   0  0  0  0  0  0  0  0  0  0  0  0
    8.8191   -1.8281   21.9919 N   0  0  0  0  0  0  0  0  0  0  0  0
    8.5042   -1.3110   20.7738 N   0  0  0  0  0  0  0  0  0  0  0  0
    7.3702   -0.6829   20.9231 C   0  0  0  0  0  0  0  0  0  0  0  0
    6.6524    0.0177   19.8843 C   0  0  0  0  0  0  0  0  0  0  0  0
    5.4399    0.6527   20.1574 C   0  0  0  0  0  0  0  0  0  0  0  0
    4.8226    1.3036   19.0996 C   0  0  0  0  0  0  0  0  0  0  0  0
    5.4061    1.2914   17.8294 C   0  0  0  0  0  0  0  0  0  0  0  0
    6.5716    0.6700   17.5793 N   0  0  0  0  0  0  0  0  0  0  0  0
    7.1877    0.0503   18.5955 C   0  0  0  0  0  0  0  0  0  0  0  0
    8.1370   -0.4435   18.4018 H   0  0  0  0  0  0  0  0  0  0  0  0
    4.8944    1.7983   17.0186 H   0  0  0  0  0  0  0  0  0  0  0  0
    3.8885    1.8275   19.2559 H   0  0  0  0  0  0  0  0  0  0  0  0
    4.9977    0.6450   21.1586 H   0  0  0  0  0  0  0  0  0  0  0  0
    6.9056   -0.7563   22.1887 O   0  0  0  0  0  0  0  0  0  0  0  0
    8.8045   -2.5838   24.7710 N   0  0  0  0  0  0  0  0  0  0  0  0
    5.9153   -0.8441   24.6216 H   0  0  0  0  0  0  0  0  0  0  0  0
    5.8250   -1.4462   27.0509 H   0  0  0  0  0  0  0  0  0  0  0  0
    7.7808   -2.8543   27.8891 H   0  0  0  0  0  0  0  0  0  0  0  0
  1  2  1  0
  2  3  2  0
  3  4  1  0
  4  5  2  0
  5  6  1  0
  6  7  1  0
  7  8  2  0
  8  9  1  0
  9 10  2  0
 10 11  1  0
 11 12  2  0
 12 13  1  0
 13 14  2  0
 14 15  1  0
 15 16  2  0
 16 17  1  0
 14 18  1  0
 13 19  1  0
 12 20  1  0
 10 21  1  0
  6 22  2  0
  5 23  1  0
  4 24  1  0
  3 25  1  0
 22  2  1  0
 21  7  1  0
 16 11  1  0
M  END
>  <cnnaffinity>  (1) 
-4.71195

>  <filename>  (1) 
Brc1cccc(-c2nnc(-c3cccnc3)o2)n1

$$$$
