
     RDKit          3D

 36 39  0  0  0  0  0  0  0  0999 V2000
    5.4482    4.3919   21.6530 Br  0  0  0  0  0  0  0  0  0  0  0  0
    7.1700    3.6782   22.0858 C   0  0  0  0  0  0  0  0  0  0  0  0
    7.9729    4.3407   23.0214 C   0  0  0  0  0  0  0  0  0  0  0  0
    9.1587    3.8716   23.4467 N   0  0  0  0  0  0  0  0  0  0  0  0
    9.6013    2.7282   22.8927 C   0  0  0  0  0  0  0  0  0  0  0  0
    8.8865    2.0209   21.9010 C   0  0  0  0  0  0  0  0  0  0  0  0
    9.4224    0.7554   21.2717 C   0  0  0  0  0  0  0  0  0  0  0  0
    8.5115   -0.3960   21.5725 C   0  0  0  0  0  0  0  0  0  0  0  0
    8.7528   -1.2013   22.5618 N   0  0  0  0  0  0  0  0  0  0  0  0
    7.6452   -2.0233   22.5471 C   0  0  0  0  0  0  0  0  0  0  0  0
    7.5117   -3.1067   23.5758 C   0  0  0  0  0  0  0  0  0  0  0  0
    8.5859   -4.1853   23.7069 C   0  0  0  0  0  0  0  0  0  0  0  0
    7.1996   -4.5460   23.1729 C   0  0  0  0  0  0  0  0  0  0  0  0
    7.1053   -4.7760   22.1065 H   0  0  0  0  0  0  0  0  0  0  0  0
    6.5423   -5.1251   23.8294 H   0  0  0  0  0  0  0  0  0  0  0  0
    9.4254   -4.1621   23.0045 H   0  0  0  0  0  0  0  0  0  0  0  0
    8.8471   -4.5210   24.7160 H   0  0  0  0  0  0  0  0  0  0  0  0
    7.0719   -2.7364   24.5043 H   0  0  0  0  0  0  0  0  0  0  0  0
    6.7596   -1.7695   21.6114 N   0  0  0  0  0  0  0  0  0  0  0  0
    7.3006   -0.7144   20.9640 N   0  0  0  0  0  0  0  0  0  0  0  0
    6.6604   -0.0272   19.9221 C   0  0  0  0  0  0  0  0  0  0  0  0
    5.4315    0.6026   20.1423 C   0  0  0  0  0  0  0  0  0  0  0  0
    4.8424    1.2837   19.0769 C   0  0  0  0  0  0  0  0  0  0  0  0
    5.4690    1.3021   17.8273 C   0  0  0  0  0  0  0  0  0  0  0  0
    6.6421    0.6819   17.6048 N   0  0  0  0  0  0  0  0  0  0  0  0
    7.2252    0.0388   18.6365 C   0  0  0  0  0  0  0  0  0  0  0  0
    8.1762   -0.4588   18.4669 H   0  0  0  0  0  0  0  0  0  0  0  0
    4.9953    1.8344   17.0088 H   0  0  0  0  0  0  0  0  0  0  0  0
    3.9050    1.8111   19.2013 H   0  0  0  0  0  0  0  0  0  0  0  0
    4.9626    0.5805   21.1261 H   0  0  0  0  0  0  0  0  0  0  0  0
    9.4900    0.8915   20.1924 H   0  0  0  0  0  0  0  0  0  0  0  0
   10.4252    0.5310   21.6467 H   0  0  0  0  0  0  0  0  0  0  0  0
    7.6349    2.4979   21.5065 C   0  0  0  0  0  0  0  0  0  0  0  0
    7.0485    1.9637   20.7628 H   0  0  0  0  0  0  0  0  0  0  0  0
   10.5492    2.3366   23.2470 H   0  0  0  0  0  0  0  0  0  0  0  0
    7.5995    5.2729   23.4399 H   0  0  0  0  0  0  0  0  0  0  0  0
  1  2  1  0
  2  3  2  0
  3  4  1  0
  4  5  2  0
  5  6  1  0
  6  7  1  0
  7  8  1  0
  8  9  2  0
  9 10  1  0
 10 11  1  0
 11 12  1  0
 12 13  1  0
 13 14  1  0
 13 15  1  0
 12 16  1  0
 12 17  1  0
 11 18  1  0
 10 19  2  0
 19 20  1  0
 20 21  1  0
 21 22  2  0
 22 23  1  0
 23 24  2  0
 24 25  1  0
 25 26  2  0
 26 27  1  0
 24 28  1  0
 23 29  1  0
 22 30  1  0
  7 31  1  0
  7 32  1  0
  6 33  2  0
 33 34  1  0
  5 35  1  0
  3 36  1  0
 33  2  1  0
 20  8  1  0
 26 21  1  0
 13 11  1  0
M  END
>  <cnnaffinity>  (1) 
-5.87412

>  <filename>  (1) 
Brc1cncc(Cc2nc(C3CC3)nn2-c2cccnc2)c1

$$$$
