
     RDKit          3D

 40 43  0  0  0  0  0  0  0  0999 V2000
    6.4510   -0.0526   25.3732 Br  0  0  0  0  0  0  0  0  0  0  0  0
    6.5970    1.4520   24.1888 C   0  0  0  0  0  0  0  0  0  0  0  0
    6.4710    2.7426   24.7061 C   0  0  0  0  0  0  0  0  0  0  0  0
    6.6224    3.8260   23.8399 C   0  0  0  0  0  0  0  0  0  0  0  0
    6.8735    3.5937   22.4861 C   0  0  0  0  0  0  0  0  0  0  0  0
    6.9764    2.3489   21.9872 N   0  0  0  0  0  0  0  0  0  0  0  0
    6.8607    1.2724   22.8111 C   0  0  0  0  0  0  0  0  0  0  0  0
    7.1604   -0.0931   22.2820 C   0  0  0  0  0  0  0  0  0  0  0  0
    7.5382   -1.1341   22.9933 N   0  0  0  0  0  0  0  0  0  0  0  0
    7.9416   -2.0646   22.0457 C   0  0  0  0  0  0  0  0  0  0  0  0
    8.7324   -3.3216   22.3589 C   0  0  0  0  0  0  0  0  0  0  0  0
    9.9372   -2.9994   23.2885 C   0  0  0  0  0  0  0  0  0  0  0  0
    9.8972   -3.8165   24.5937 C   0  0  0  0  0  0  0  0  0  0  0  0
    8.5924   -3.7070   25.1897 O   0  0  0  0  0  0  0  0  0  0  0  0
    7.5254   -4.2462   24.3933 C   0  0  0  0  0  0  0  0  0  0  0  0
    7.9341   -4.5097   22.9417 C   0  0  0  0  0  0  0  0  0  0  0  0
    8.5810   -5.3938   22.9433 H   0  0  0  0  0  0  0  0  0  0  0  0
    7.0564   -4.7549   22.3383 H   0  0  0  0  0  0  0  0  0  0  0  0
    6.6935   -3.5370   24.3951 H   0  0  0  0  0  0  0  0  0  0  0  0
    7.1815   -5.1801   24.8492 H   0  0  0  0  0  0  0  0  0  0  0  0
   10.6516   -3.4329   25.2832 H   0  0  0  0  0  0  0  0  0  0  0  0
   10.1268   -4.8692   24.3811 H   0  0  0  0  0  0  0  0  0  0  0  0
    9.9254   -1.9341   23.5439 H   0  0  0  0  0  0  0  0  0  0  0  0
   10.8770   -3.1945   22.7580 H   0  0  0  0  0  0  0  0  0  0  0  0
    9.0968   -3.6442   21.3897 H   0  0  0  0  0  0  0  0  0  0  0  0
    7.7676   -1.6754   20.8045 N   0  0  0  0  0  0  0  0  0  0  0  0
    7.2207   -0.4498   20.9326 N   0  0  0  0  0  0  0  0  0  0  0  0
    6.6376    0.2213   19.8487 C   0  0  0  0  0  0  0  0  0  0  0  0
    5.5069    1.0145   20.0460 C   0  0  0  0  0  0  0  0  0  0  0  0
    4.8809    1.5731   18.9295 C   0  0  0  0  0  0  0  0  0  0  0  0
    5.4035    1.3439   17.6514 C   0  0  0  0  0  0  0  0  0  0  0  0
    6.4933    0.5789   17.4487 N   0  0  0  0  0  0  0  0  0  0  0  0
    7.0945    0.0278   18.5270 C   0  0  0  0  0  0  0  0  0  0  0  0
    7.9699   -0.5916   18.3579 H   0  0  0  0  0  0  0  0  0  0  0  0
    4.9083    1.8056   16.8002 H   0  0  0  0  0  0  0  0  0  0  0  0
    3.9925    2.1882   19.0359 H   0  0  0  0  0  0  0  0  0  0  0  0
    5.0989    1.1639   21.0457 H   0  0  0  0  0  0  0  0  0  0  0  0
    7.0141    4.4428   21.8220 H   0  0  0  0  0  0  0  0  0  0  0  0
    6.5623    4.8469   24.2008 H   0  0  0  0  0  0  0  0  0  0  0  0
    6.2799    2.8909   25.7674 H   0  0  0  0  0  0  0  0  0  0  0  0
  1  2  1  0
  2  3  2  0
  3  4  1  0
  4  5  2  0
  5  6  1  0
  6  7  2  0
  7  8  1  0
  8  9  2  0
  9 10  1  0
 10 11  1  0
 11 12  1  0
 12 13  1  0
 13 14  1  0
 14 15  1  0
 15 16  1  0
 16 17  1  0
 16 18  1  0
 15 19  1  0
 15 20  1  0
 13 21  1  0
 13 22  1  0
 12 23  1  0
 12 24  1  0
 11 25  1  0
 10 26  2  0
 26 27  1  0
 27 28  1  0
 28 29  2  0
 29 30  1  0
 30 31  2  0
 31 32  1  0
 32 33  2  0
 33 34  1  0
 31 35  1  0
 30 36  1  0
 29 37  1  0
  5 38  1  0
  4 39  1  0
  3 40  1  0
  7  2  1  0
 27  8  1  0
 33 28  1  0
 16 11  1  0
M  END
>  <cnnaffinity>  (1) 
-6.01249

>  <filename>  (1) 
Brc1cccnc1-c1nc(C2CCOCC2)nn1-c1cccnc1

$$$$
