
     RDKit          3D

 40 43  0  0  0  0  0  0  0  0999 V2000
    8.0261    0.9703   27.7573 Br  0  0  0  0  0  0  0  0  0  0  0  0
    8.5974    1.4831   26.0042 C   0  0  0  0  0  0  0  0  0  0  0  0
    7.7675    1.1667   24.9209 C   0  0  0  0  0  0  0  0  0  0  0  0
    8.1084    1.5699   23.6359 C   0  0  0  0  0  0  0  0  0  0  0  0
    7.2548    1.1911   22.4522 C   0  0  0  0  0  0  0  0  0  0  0  0
    7.5263   -0.2190   22.0258 C   0  0  0  0  0  0  0  0  0  0  0  0
    8.0433   -1.1317   22.7878 N   0  0  0  0  0  0  0  0  0  0  0  0
    8.1919   -2.1946   21.9270 C   0  0  0  0  0  0  0  0  0  0  0  0
    8.8326   -3.4434   22.4328 C   0  0  0  0  0  0  0  0  0  0  0  0
    8.1213   -4.1184   23.5935 C   0  0  0  0  0  0  0  0  0  0  0  0
    9.2457   -4.8371   24.3235 C   0  0  0  0  0  0  0  0  0  0  0  0
   10.4479   -4.1208   24.0280 O   0  0  0  0  0  0  0  0  0  0  0  0
   10.1950   -3.1171   23.0447 C   0  0  0  0  0  0  0  0  0  0  0  0
   10.1789   -2.1421   23.5432 H   0  0  0  0  0  0  0  0  0  0  0  0
   10.9866   -3.0950   22.2914 H   0  0  0  0  0  0  0  0  0  0  0  0
    9.3352   -5.8687   23.9694 H   0  0  0  0  0  0  0  0  0  0  0  0
    9.0582   -4.8528   25.4004 H   0  0  0  0  0  0  0  0  0  0  0  0
    7.6737   -3.3714   24.2560 H   0  0  0  0  0  0  0  0  0  0  0  0
    7.3428   -4.8112   23.2582 H   0  0  0  0  0  0  0  0  0  0  0  0
    8.8963   -4.1475   21.6113 H   0  0  0  0  0  0  0  0  0  0  0  0
    7.8005   -1.9872   20.6908 N   0  0  0  0  0  0  0  0  0  0  0  0
    7.3219   -0.7252   20.7470 N   0  0  0  0  0  0  0  0  0  0  0  0
    6.6437   -0.0709   19.7168 C   0  0  0  0  0  0  0  0  0  0  0  0
    5.4880    0.6613   20.0042 C   0  0  0  0  0  0  0  0  0  0  0  0
    4.8699    1.3481   18.9630 C   0  0  0  0  0  0  0  0  0  0  0  0
    5.4189    1.3043   17.6781 C   0  0  0  0  0  0  0  0  0  0  0  0
    6.5175    0.5772   17.3920 N   0  0  0  0  0  0  0  0  0  0  0  0
    7.1066   -0.1093   18.3902 C   0  0  0  0  0  0  0  0  0  0  0  0
    8.0024   -0.6794   18.1598 H   0  0  0  0  0  0  0  0  0  0  0  0
    4.9367    1.8732   16.8896 H   0  0  0  0  0  0  0  0  0  0  0  0
    3.9734    1.9315   19.1409 H   0  0  0  0  0  0  0  0  0  0  0  0
    5.0854    0.6839   21.0166 H   0  0  0  0  0  0  0  0  0  0  0  0
    7.4729    1.8590   21.6140 H   0  0  0  0  0  0  0  0  0  0  0  0
    6.1961    1.2911   22.6966 H   0  0  0  0  0  0  0  0  0  0  0  0
    9.2821    2.2944   23.4882 C   0  0  0  0  0  0  0  0  0  0  0  0
   10.0587    2.6129   24.6073 C   0  0  0  0  0  0  0  0  0  0  0  0
    9.7271    2.1989   25.8439 N   0  0  0  0  0  0  0  0  0  0  0  0
   10.9598    3.2045   24.4555 H   0  0  0  0  0  0  0  0  0  0  0  0
    9.6009    2.6111   22.5036 H   0  0  0  0  0  0  0  0  0  0  0  0
    6.8546    0.6082   25.0730 H   0  0  0  0  0  0  0  0  0  0  0  0
  1  2  1  0
  2  3  2  0
  3  4  1  0
  4  5  1  0
  5  6  1  0
  6  7  2  0
  7  8  1  0
  8  9  1  0
  9 10  1  0
 10 11  1  0
 11 12  1  0
 12 13  1  0
 13 14  1  0
 13 15  1  0
 11 16  1  0
 11 17  1  0
 10 18  1  0
 10 19  1  0
  9 20  1  0
  8 21  2  0
 21 22  1  0
 22 23  1  0
 23 24  2  0
 24 25  1  0
 25 26  2  0
 26 27  1  0
 27 28  2  0
 28 29  1  0
 26 30  1  0
 25 31  1  0
 24 32  1  0
  5 33  1  0
  5 34  1  0
  4 35  2  0
 35 36  1  0
 36 37  2  0
 36 38  1  0
 35 39  1  0
  3 40  1  0
 37  2  1  0
 22  6  1  0
 28 23  1  0
 13  9  1  0
M  END
>  <cnnaffinity>  (1) 
-6.64485

>  <filename>  (1) 
Brc1cc(Cc2nc(C3CCOC3)nn2-c2cccnc2)ccn1

$$$$
