
     RDKit          3D

 37 41  0  0  0  0  0  0  0  0999 V2000
    6.5648   -0.2930   25.2229 Br  0  0  0  0  0  0  0  0  0  0  0  0
    6.7677    1.2463   24.0951 C   0  0  0  0  0  0  0  0  0  0  0  0
    6.5403    2.5191   24.6111 C   0  0  0  0  0  0  0  0  0  0  0  0
    6.7334    3.6175   23.7760 C   0  0  0  0  0  0  0  0  0  0  0  0
    7.1074    3.4162   22.4445 C   0  0  0  0  0  0  0  0  0  0  0  0
    7.2980    2.1852   21.9392 N   0  0  0  0  0  0  0  0  0  0  0  0
    7.1642    1.1062   22.7511 C   0  0  0  0  0  0  0  0  0  0  0  0
    7.5162   -0.2374   22.2453 C   0  0  0  0  0  0  0  0  0  0  0  0
    8.0218   -1.2239   22.9458 N   0  0  0  0  0  0  0  0  0  0  0  0
    8.2792   -2.1844   21.9901 C   0  0  0  0  0  0  0  0  0  0  0  0
    8.9366   -3.4787   22.3099 C   0  0  0  0  0  0  0  0  0  0  0  0
    8.2205   -4.7880   22.0978 C   0  0  0  0  0  0  0  0  0  0  0  0
    8.4780   -4.3014   23.5329 C   0  0  0  0  0  0  0  0  0  0  0  0
    9.7718   -4.4039   24.3543 C   0  0  0  0  0  0  0  0  0  0  0  0
    8.9073   -5.6226   24.1964 C   0  0  0  0  0  0  0  0  0  0  0  0
    8.2520   -5.9471   25.0092 H   0  0  0  0  0  0  0  0  0  0  0  0
    9.1769   -6.4536   23.5327 H   0  0  0  0  0  0  0  0  0  0  0  0
    9.7838   -3.8279   25.2794 H   0  0  0  0  0  0  0  0  0  0  0  0
   10.7013   -4.2857   23.7922 H   0  0  0  0  0  0  0  0  0  0  0  0
    8.7751   -5.6824   21.8094 H   0  0  0  0  0  0  0  0  0  0  0  0
    7.1653   -4.8515   21.8266 H   0  0  0  0  0  0  0  0  0  0  0  0
   10.0133   -3.3088   22.2383 H   0  0  0  0  0  0  0  0  0  0  0  0
    7.9567   -1.8480   20.7650 N   0  0  0  0  0  0  0  0  0  0  0  0
    7.4114   -0.6251   20.9189 N   0  0  0  0  0  0  0  0  0  0  0  0
    6.7020    0.0281   19.9081 C   0  0  0  0  0  0  0  0  0  0  0  0
    5.5099    0.7183   20.1686 C   0  0  0  0  0  0  0  0  0  0  0  0
    4.8648    1.3385   19.0973 C   0  0  0  0  0  0  0  0  0  0  0  0
    5.4274    1.2915   17.8168 C   0  0  0  0  0  0  0  0  0  0  0  0
    6.5642    0.6169   17.5664 N   0  0  0  0  0  0  0  0  0  0  0  0
    7.1749   -0.0133   18.5872 C   0  0  0  0  0  0  0  0  0  0  0  0
    8.0960   -0.5517   18.3786 H   0  0  0  0  0  0  0  0  0  0  0  0
    4.9251    1.8039   17.0004 H   0  0  0  0  0  0  0  0  0  0  0  0
    3.9324    1.8712   19.2396 H   0  0  0  0  0  0  0  0  0  0  0  0
    5.0893    0.7617   21.1740 H   0  0  0  0  0  0  0  0  0  0  0  0
    7.2763    4.2813   21.8113 H   0  0  0  0  0  0  0  0  0  0  0  0
    6.6013    4.6264   24.1481 H   0  0  0  0  0  0  0  0  0  0  0  0
    6.2447    2.6438   25.6511 H   0  0  0  0  0  0  0  0  0  0  0  0
  1  2  1  0
  2  3  2  0
  3  4  1  0
  4  5  2  0
  5  6  1  0
  6  7  2  0
  7  8  1  0
  8  9  2  0
  9 10  1  0
 10 11  1  0
 11 12  1  0
 12 13  1  0
 13 14  1  0
 14 15  1  0
 15 16  1  0
 15 17  1  0
 14 18  1  0
 14 19  1  0
 12 20  1  0
 12 21  1  0
 11 22  1  0
 10 23  2  0
 23 24  1  0
 24 25  1  0
 25 26  2  0
 26 27  1  0
 27 28  2  0
 28 29  1  0
 29 30  2  0
 30 31  1  0
 28 32  1  0
 27 33  1  0
 26 34  1  0
  5 35  1  0
  4 36  1  0
  3 37  1  0
  7  2  1  0
 24  8  1  0
 30 25  1  0
 13 11  1  0
 15 13  1  0
M  END
>  <cnnaffinity>  (1) 
-6.27534

>  <filename>  (1) 
Brc1cccnc1-c1nc(C2CC23CC3)nn1-c1cccnc1

$$$$
