
     RDKit          3D

 33 35  0  0  0  0  0  0  0  0999 V2000
    3.1894   -5.4214   23.6498 Br  0  0  0  0  0  0  0  0  0  0  0  0
    4.8900   -4.7054   24.1249 C   0  0  0  0  0  0  0  0  0  0  0  0
    5.4252   -5.0524   25.3716 C   0  0  0  0  0  0  0  0  0  0  0  0
    6.6564   -4.5512   25.7645 C   0  0  0  0  0  0  0  0  0  0  0  0
    7.2987   -3.7198   24.8547 C   0  0  0  0  0  0  0  0  0  0  0  0
    6.7141   -3.4169   23.6212 C   0  0  0  0  0  0  0  0  0  0  0  0
    7.3637   -2.5664   22.7246 N   0  0  0  0  0  0  0  0  0  0  0  0
    8.8032   -2.6981   22.4057 C   0  0  0  0  0  0  0  0  0  0  0  0
    9.4384   -1.3204   22.1859 C   0  0  0  0  0  0  0  0  0  0  0  0
    8.7152   -0.5771   21.1000 C   0  0  0  0  0  0  0  0  0  0  0  0
    7.3531   -0.7276   20.9713 C   0  0  0  0  0  0  0  0  0  0  0  0
    6.6558    0.0028   19.9019 C   0  0  0  0  0  0  0  0  0  0  0  0
    5.4369    0.6365   20.1594 C   0  0  0  0  0  0  0  0  0  0  0  0
    4.8173    1.3033   19.0995 C   0  0  0  0  0  0  0  0  0  0  0  0
    5.4030    1.2959   17.8244 C   0  0  0  0  0  0  0  0  0  0  0  0
    6.5757    0.6839   17.5702 N   0  0  0  0  0  0  0  0  0  0  0  0
    7.1886    0.0701   18.5994 C   0  0  0  0  0  0  0  0  0  0  0  0
    8.1297   -0.4341   18.4018 H   0  0  0  0  0  0  0  0  0  0  0  0
    4.8869    1.7980   17.0124 H   0  0  0  0  0  0  0  0  0  0  0  0
    3.8828    1.8321   19.2584 H   0  0  0  0  0  0  0  0  0  0  0  0
    5.0030    0.6287   21.1627 H   0  0  0  0  0  0  0  0  0  0  0  0
    6.5578   -1.6129   21.9209 C   0  0  0  0  0  0  0  0  0  0  0  0
    5.8136   -2.1602   21.3307 H   0  0  0  0  0  0  0  0  0  0  0  0
    6.0378   -0.9326   22.5950 H   0  0  0  0  0  0  0  0  0  0  0  0
    9.2583    0.0856   20.4270 H   0  0  0  0  0  0  0  0  0  0  0  0
    9.3962   -0.7440   23.1123 H   0  0  0  0  0  0  0  0  0  0  0  0
   10.4880   -1.4282   21.9068 H   0  0  0  0  0  0  0  0  0  0  0  0
    9.3423   -3.2194   23.1992 H   0  0  0  0  0  0  0  0  0  0  0  0
    8.9211   -3.2785   21.4850 H   0  0  0  0  0  0  0  0  0  0  0  0
    5.5195   -3.8984   23.2634 N   0  0  0  0  0  0  0  0  0  0  0  0
    8.2482   -3.2698   25.0988 H   0  0  0  0  0  0  0  0  0  0  0  0
    7.0903   -4.7905   26.7381 H   0  0  0  0  0  0  0  0  0  0  0  0
    4.8748   -5.7077   26.0350 H   0  0  0  0  0  0  0  0  0  0  0  0
  1  2  1  0
  2  3  2  0
  3  4  1  0
  4  5  2  0
  5  6  1  0
  6  7  1  0
  7  8  1  0
  8  9  1  0
  9 10  1  0
 10 11  2  0
 11 12  1  0
 12 13  2  0
 13 14  1  0
 14 15  2  0
 15 16  1  0
 16 17  2  0
 17 18  1  0
 15 19  1  0
 14 20  1  0
 13 21  1  0
 11 22  1  0
 22 23  1  0
 22 24  1  0
 10 25  1  0
  9 26  1  0
  9 27  1  0
  8 28  1  0
  8 29  1  0
  6 30  2  0
  5 31  1  0
  4 32  1  0
  3 33  1  0
 30  2  1  0
 22  7  1  0
 17 12  1  0
M  END
>  <cnnaffinity>  (1) 
-5.29619

>  <filename>  (1) 
Brc1cccc(N2CCC=C(c3cccnc3)C2)n1

$$$$
