
     RDKit          3D

 41 44  0  0  0  0  0  0  0  0999 V2000
   11.7866    2.7789   24.3928 Br  0  0  0  0  0  0  0  0  0  0  0  0
   11.4918    1.5210   23.0080 C   0  0  0  0  0  0  0  0  0  0  0  0
   10.4115    1.5009   22.1955 C   0  0  0  0  0  0  0  0  0  0  0  0
   10.5890    0.4182   21.3644 N   0  0  0  0  0  0  0  0  0  0  0  0
    9.5468   -0.0390   20.4572 C   0  0  0  0  0  0  0  0  0  0  0  0
    8.5327   -0.8045   21.2347 C   0  0  0  0  0  0  0  0  0  0  0  0
    8.7695   -1.5489   22.2729 N   0  0  0  0  0  0  0  0  0  0  0  0
    7.5103   -2.0190   22.6056 C   0  0  0  0  0  0  0  0  0  0  0  0
    7.3232   -3.0120   23.7169 C   0  0  0  0  0  0  0  0  0  0  0  0
    8.0982   -4.3017   23.3826 C   0  0  0  0  0  0  0  0  0  0  0  0
    8.1292   -5.2358   24.5631 C   0  0  0  0  0  0  0  0  0  0  0  0
    7.7968   -4.8312   25.8406 C   0  0  0  0  0  0  0  0  0  0  0  0
    7.4654   -3.3981   26.1853 C   0  0  0  0  0  0  0  0  0  0  0  0
    7.8417   -2.4444   25.0482 C   0  0  0  0  0  0  0  0  0  0  0  0
    7.4181   -1.4506   25.2411 H   0  0  0  0  0  0  0  0  0  0  0  0
    8.9345   -2.3484   24.9985 H   0  0  0  0  0  0  0  0  0  0  0  0
    6.3938   -3.3145   26.3998 H   0  0  0  0  0  0  0  0  0  0  0  0
    8.0172   -3.1075   27.0848 H   0  0  0  0  0  0  0  0  0  0  0  0
    7.7840   -5.5755   26.6308 H   0  0  0  0  0  0  0  0  0  0  0  0
    8.4218   -6.2679   24.4015 H   0  0  0  0  0  0  0  0  0  0  0  0
    9.1285   -4.0569   23.0927 H   0  0  0  0  0  0  0  0  0  0  0  0
    7.6189   -4.8081   22.5360 H   0  0  0  0  0  0  0  0  0  0  0  0
    6.2574   -3.2451   23.8131 H   0  0  0  0  0  0  0  0  0  0  0  0
    6.5358   -1.5744   21.8475 N   0  0  0  0  0  0  0  0  0  0  0  0
    7.1796   -0.7923   20.9556 N   0  0  0  0  0  0  0  0  0  0  0  0
    6.5704   -0.0750   19.9226 C   0  0  0  0  0  0  0  0  0  0  0  0
    5.3577    0.5825   20.1303 C   0  0  0  0  0  0  0  0  0  0  0  0
    4.8134    1.2853   19.0573 C   0  0  0  0  0  0  0  0  0  0  0  0
    5.4819    1.3181   17.8267 C   0  0  0  0  0  0  0  0  0  0  0  0
    6.6552    0.6942   17.6263 N   0  0  0  0  0  0  0  0  0  0  0  0
    7.1826    0.0156   18.6597 C   0  0  0  0  0  0  0  0  0  0  0  0
    8.1337   -0.4887   18.5103 H   0  0  0  0  0  0  0  0  0  0  0  0
    5.0457    1.8667   16.9997 H   0  0  0  0  0  0  0  0  0  0  0  0
    3.8794    1.8208   19.1656 H   0  0  0  0  0  0  0  0  0  0  0  0
    4.8704    0.5583   21.1061 H   0  0  0  0  0  0  0  0  0  0  0  0
    9.9736   -0.6771   19.6866 H   0  0  0  0  0  0  0  0  0  0  0  0
    9.0766    0.8246   19.9812 H   0  0  0  0  0  0  0  0  0  0  0  0
   11.7514   -0.2459   21.6233 N   0  0  0  0  0  0  0  0  0  0  0  0
   12.3229    0.4056   22.6161 C   0  0  0  0  0  0  0  0  0  0  0  0
   13.2738    0.1604   23.0894 H   0  0  0  0  0  0  0  0  0  0  0  0
    9.5536    2.1641   22.2112 H   0  0  0  0  0  0  0  0  0  0  0  0
  1  2  1  0
  2  3  2  0
  3  4  1  0
  4  5  1  0
  5  6  1  0
  6  7  2  0
  7  8  1  0
  8  9  1  0
  9 10  1  0
 10 11  1  0
 11 12  2  0
 12 13  1  0
 13 14  1  0
 14 15  1  0
 14 16  1  0
 13 17  1  0
 13 18  1  0
 12 19  1  0
 11 20  1  0
 10 21  1  0
 10 22  1  0
  9 23  1  0
  8 24  2  0
 24 25  1  0
 25 26  1  0
 26 27  2  0
 27 28  1  0
 28 29  2  0
 29 30  1  0
 30 31  2  0
 31 32  1  0
 29 33  1  0
 28 34  1  0
 27 35  1  0
  5 36  1  0
  5 37  1  0
  4 38  1  0
 38 39  2  0
 39 40  1  0
  3 41  1  0
 39  2  1  0
 25  6  1  0
 31 26  1  0
 14  9  1  0
M  END
>  <cnnaffinity>  (1) 
-6.58022

>  <filename>  (1) 
Brc1cnn(Cc2nc(C3CC=CCC3)nn2-c2cccnc2)c1

$$$$
