
     RDKit          3D

 36 40  0  0  0  0  0  0  0  0999 V2000
    5.6464   -3.4378   19.4649 Br  0  0  0  0  0  0  0  0  0  0  0  0
    5.4983   -3.5554   21.3634 C   0  0  0  0  0  0  0  0  0  0  0  0
    4.6727   -4.4114   22.0382 C   0  0  0  0  0  0  0  0  0  0  0  0
    4.8208   -4.1680   23.3961 N   0  0  0  0  0  0  0  0  0  0  0  0
    5.8129   -3.2216   23.5961 C   0  0  0  0  0  0  0  0  0  0  0  0
    6.2753   -2.8267   22.3548 C   0  0  0  0  0  0  0  0  0  0  0  0
    7.4468   -1.9763   22.1008 C   0  0  0  0  0  0  0  0  0  0  0  0
    8.3779   -1.8793   23.0056 N   0  0  0  0  0  0  0  0  0  0  0  0
    9.3618   -1.1464   22.3797 C   0  0  0  0  0  0  0  0  0  0  0  0
   10.6363   -0.8574   23.1196 C   0  0  0  0  0  0  0  0  0  0  0  0
   10.7080   -0.2553   24.5001 C   0  0  0  0  0  0  0  0  0  0  0  0
   11.1526    0.5860   23.2889 C   0  0  0  0  0  0  0  0  0  0  0  0
   12.3072    0.5483   22.2732 C   0  0  0  0  0  0  0  0  0  0  0  0
   12.5658    1.0665   23.6587 C   0  0  0  0  0  0  0  0  0  0  0  0
   12.6866    2.1365   23.8514 H   0  0  0  0  0  0  0  0  0  0  0  0
   13.1156    0.4353   24.3651 H   0  0  0  0  0  0  0  0  0  0  0  0
   12.1699    1.2123   21.4161 H   0  0  0  0  0  0  0  0  0  0  0  0
   12.7161   -0.4285   21.9858 H   0  0  0  0  0  0  0  0  0  0  0  0
    9.7979    0.0871   25.0088 H   0  0  0  0  0  0  0  0  0  0  0  0
   11.4965   -0.5115   25.2185 H   0  0  0  0  0  0  0  0  0  0  0  0
   11.3826   -1.6184   22.8809 H   0  0  0  0  0  0  0  0  0  0  0  0
    9.0952   -0.7905   21.1448 N   0  0  0  0  0  0  0  0  0  0  0  0
    7.8412   -1.2611   20.9591 N   0  0  0  0  0  0  0  0  0  0  0  0
    7.0377   -0.6606   19.9832 C   0  0  0  0  0  0  0  0  0  0  0  0
    5.7077   -0.3406   20.2621 C   0  0  0  0  0  0  0  0  0  0  0  0
    5.0162    0.4295   19.3292 C   0  0  0  0  0  0  0  0  0  0  0  0
    5.6436    0.8233   18.1420 C   0  0  0  0  0  0  0  0  0  0  0  0
    6.9137    0.4882   17.8520 N   0  0  0  0  0  0  0  0  0  0  0  0
    7.6042   -0.2223   18.7646 C   0  0  0  0  0  0  0  0  0  0  0  0
    8.6450   -0.4600   18.5485 H   0  0  0  0  0  0  0  0  0  0  0  0
    5.0961    1.4433   17.4400 H   0  0  0  0  0  0  0  0  0  0  0  0
    4.0029    0.7572   19.5229 H   0  0  0  0  0  0  0  0  0  0  0  0
    5.2470   -0.6374   21.2043 H   0  0  0  0  0  0  0  0  0  0  0  0
    6.1945   -2.9115   24.5661 H   0  0  0  0  0  0  0  0  0  0  0  0
    4.3191   -4.6516   24.1429 H   0  0  0  0  0  0  0  0  0  0  0  0
    4.0305   -5.1561   21.5823 H   0  0  0  0  0  0  0  0  0  0  0  0
  1  2  1  0
  2  3  2  0
  3  4  1  0
  4  5  1  0
  5  6  2  0
  6  7  1  0
  7  8  2  0
  8  9  1  0
  9 10  1  0
 10 11  1  0
 11 12  1  0
 12 13  1  0
 13 14  1  0
 14 15  1  0
 14 16  1  0
 13 17  1  0
 13 18  1  0
 11 19  1  0
 11 20  1  0
 10 21  1  0
  9 22  2  0
 22 23  1  0
 23 24  1  0
 24 25  2  0
 25 26  1  0
 26 27  2  0
 27 28  1  0
 28 29  2  0
 29 30  1  0
 27 31  1  0
 26 32  1  0
 25 33  1  0
  5 34  1  0
  4 35  1  0
  3 36  1  0
  6  2  1  0
 23  7  1  0
 29 24  1  0
 12 10  1  0
 14 12  1  0
M  END
>  <cnnaffinity>  (1) 
-5.67497

>  <filename>  (1) 
Brc1c[nH]cc1-c1nc(C2CC23CC3)nn1-c1cccnc1

$$$$
