
     RDKit          3D

 40 43  0  0  0  0  0  0  0  0999 V2000
   11.7171    2.4906   24.5998 Br  0  0  0  0  0  0  0  0  0  0  0  0
   11.5499    1.3848   23.0769 C   0  0  0  0  0  0  0  0  0  0  0  0
   10.5139    1.4752   22.2053 C   0  0  0  0  0  0  0  0  0  0  0  0
   10.6741    0.4326   21.3306 N   0  0  0  0  0  0  0  0  0  0  0  0
    9.5729   -0.0239   20.4684 C   0  0  0  0  0  0  0  0  0  0  0  0
    8.5423   -0.7911   21.2492 C   0  0  0  0  0  0  0  0  0  0  0  0
    8.7730   -1.5308   22.2933 N   0  0  0  0  0  0  0  0  0  0  0  0
    7.5137   -1.9906   22.6431 C   0  0  0  0  0  0  0  0  0  0  0  0
    7.2983   -2.9327   23.8078 C   0  0  0  0  0  0  0  0  0  0  0  0
    7.4700   -2.2009   25.1402 C   0  0  0  0  0  0  0  0  0  0  0  0
    8.9524   -2.3196   25.4877 C   0  0  0  0  0  0  0  0  0  0  0  0
    9.4908   -3.5346   24.7317 C   0  0  0  0  0  0  0  0  0  0  0  0
    8.3537   -4.0477   23.8482 C   0  0  0  0  0  0  0  0  0  0  0  0
    7.9205   -4.9474   24.2989 H   0  0  0  0  0  0  0  0  0  0  0  0
    8.7160   -4.3069   22.8463 H   0  0  0  0  0  0  0  0  0  0  0  0
    9.8133   -4.3159   25.4289 H   0  0  0  0  0  0  0  0  0  0  0  0
   10.3518   -3.2425   24.1196 H   0  0  0  0  0  0  0  0  0  0  0  0
    9.0881   -2.4343   26.5685 H   0  0  0  0  0  0  0  0  0  0  0  0
    9.4893   -1.4209   25.1629 H   0  0  0  0  0  0  0  0  0  0  0  0
    6.8661   -2.6947   25.9111 H   0  0  0  0  0  0  0  0  0  0  0  0
    7.1586   -1.1512   25.0754 H   0  0  0  0  0  0  0  0  0  0  0  0
    6.2933   -3.3562   23.7276 H   0  0  0  0  0  0  0  0  0  0  0  0
    6.5447   -1.5506   21.8738 N   0  0  0  0  0  0  0  0  0  0  0  0
    7.1856   -0.7848   20.9620 N   0  0  0  0  0  0  0  0  0  0  0  0
    6.5698   -0.0714   19.9286 C   0  0  0  0  0  0  0  0  0  0  0  0
    5.3506    0.5835   20.1307 C   0  0  0  0  0  0  0  0  0  0  0  0
    4.8059    1.2836   19.0539 C   0  0  0  0  0  0  0  0  0  0  0  0
    5.4705    1.3180   17.8230 C   0  0  0  0  0  0  0  0  0  0  0  0
    6.6449    0.6914   17.6282 N   0  0  0  0  0  0  0  0  0  0  0  0
    7.1763    0.0193   18.6637 C   0  0  0  0  0  0  0  0  0  0  0  0
    8.1296   -0.4815   18.5130 H   0  0  0  0  0  0  0  0  0  0  0  0
    5.0361    1.8779   17.0009 H   0  0  0  0  0  0  0  0  0  0  0  0
    3.8728    1.8214   19.1598 H   0  0  0  0  0  0  0  0  0  0  0  0
    4.8624    0.5611   21.1065 H   0  0  0  0  0  0  0  0  0  0  0  0
    9.9287   -0.6412   19.6472 H   0  0  0  0  0  0  0  0  0  0  0  0
    9.0898    0.8534   20.0340 H   0  0  0  0  0  0  0  0  0  0  0  0
   11.8627   -0.2172   21.6849 C   0  0  0  0  0  0  0  0  0  0  0  0
   12.4034    0.3479   22.7364 N   0  0  0  0  0  0  0  0  0  0  0  0
   12.3034   -1.0840   21.1977 H   0  0  0  0  0  0  0  0  0  0  0  0
    9.6886    2.1793   22.2383 H   0  0  0  0  0  0  0  0  0  0  0  0
  1  2  1  0
  2  3  2  0
  3  4  1  0
  4  5  1  0
  5  6  1  0
  6  7  2  0
  7  8  1  0
  8  9  1  0
  9 10  1  0
 10 11  1  0
 11 12  1  0
 12 13  1  0
 13 14  1  0
 13 15  1  0
 12 16  1  0
 12 17  1  0
 11 18  1  0
 11 19  1  0
 10 20  1  0
 10 21  1  0
  9 22  1  0
  8 23  2  0
 23 24  1  0
 24 25  1  0
 25 26  2  0
 26 27  1  0
 27 28  2  0
 28 29  1  0
 29 30  2  0
 30 31  1  0
 28 32  1  0
 27 33  1  0
 26 34  1  0
  5 35  1  0
  5 36  1  0
  4 37  1  0
 37 38  2  0
 37 39  1  0
  3 40  1  0
 38  2  1  0
 24  6  1  0
 30 25  1  0
 13  9  1  0
M  END
>  <cnnaffinity>  (1) 
-6.1974

>  <filename>  (1) 
Brc1cn(Cc2nc(C3CCCC3)nn2-c2cccnc2)cn1

$$$$
