
     RDKit          3D

 39 42  0  0  0  0  0  0  0  0999 V2000
   10.3421    6.1930   24.9674 Br  0  0  0  0  0  0  0  0  0  0  0  0
    9.2138    5.4250   23.6321 C   0  0  0  0  0  0  0  0  0  0  0  0
    8.2353    6.1919   22.9884 C   0  0  0  0  0  0  0  0  0  0  0  0
    7.3629    5.6939   22.1021 N   0  0  0  0  0  0  0  0  0  0  0  0
    7.4833    4.3989   21.7813 C   0  0  0  0  0  0  0  0  0  0  0  0
    8.5092    3.5855   22.2888 C   0  0  0  0  0  0  0  0  0  0  0  0
    8.6579    2.1735   21.8181 C   0  0  0  0  0  0  0  0  0  0  0  0
    7.6595    1.2981   22.5777 C   0  0  0  0  0  0  0  0  0  0  0  0
    7.7862   -0.1117   22.1078 C   0  0  0  0  0  0  0  0  0  0  0  0
    8.4148   -1.0169   22.7933 N   0  0  0  0  0  0  0  0  0  0  0  0
    8.3529   -2.1124   21.9618 C   0  0  0  0  0  0  0  0  0  0  0  0
    8.9756   -3.4030   22.3605 C   0  0  0  0  0  0  0  0  0  0  0  0
    8.5837   -4.1818   23.6082 C   0  0  0  0  0  0  0  0  0  0  0  0
    8.1876   -4.7051   22.2300 C   0  0  0  0  0  0  0  0  0  0  0  0
    8.6979   -5.6027   21.8721 H   0  0  0  0  0  0  0  0  0  0  0  0
    7.1314   -4.6305   21.9520 H   0  0  0  0  0  0  0  0  0  0  0  0
    7.8096   -3.7507   24.2510 H   0  0  0  0  0  0  0  0  0  0  0  0
    9.3930   -4.7062   24.1299 H   0  0  0  0  0  0  0  0  0  0  0  0
   10.0413   -3.3648   22.1682 H   0  0  0  0  0  0  0  0  0  0  0  0
    7.7579   -1.9257   20.8092 N   0  0  0  0  0  0  0  0  0  0  0  0
    7.3628   -0.6413   20.8984 N   0  0  0  0  0  0  0  0  0  0  0  0
    6.6700    0.0239   19.8863 C   0  0  0  0  0  0  0  0  0  0  0  0
    5.4741    0.6910   20.1552 C   0  0  0  0  0  0  0  0  0  0  0  0
    4.8324    1.3264   19.0912 C   0  0  0  0  0  0  0  0  0  0  0  0
    5.4045    1.2962   17.8136 C   0  0  0  0  0  0  0  0  0  0  0  0
    6.5511    0.6403   17.5535 N   0  0  0  0  0  0  0  0  0  0  0  0
    7.1639    0.0061   18.5730 C   0  0  0  0  0  0  0  0  0  0  0  0
    8.0970   -0.5143   18.3741 H   0  0  0  0  0  0  0  0  0  0  0  0
    4.9051    1.8210   17.0049 H   0  0  0  0  0  0  0  0  0  0  0  0
    3.8993    1.8554   19.2444 H   0  0  0  0  0  0  0  0  0  0  0  0
    5.0502    0.6939   21.1589 H   0  0  0  0  0  0  0  0  0  0  0  0
    7.8652    1.3334   23.6526 H   0  0  0  0  0  0  0  0  0  0  0  0
    6.6373    1.6471   22.4114 H   0  0  0  0  0  0  0  0  0  0  0  0
    9.6828    1.8207   21.9969 H   0  0  0  0  0  0  0  0  0  0  0  0
    8.4696    2.1234   20.7388 H   0  0  0  0  0  0  0  0  0  0  0  0
    9.3780    4.1013   23.2481 C   0  0  0  0  0  0  0  0  0  0  0  0
   10.1696    3.4938   23.6826 H   0  0  0  0  0  0  0  0  0  0  0  0
    6.7698    3.9703   21.0832 H   0  0  0  0  0  0  0  0  0  0  0  0
    8.1886    7.2499   23.2018 H   0  0  0  0  0  0  0  0  0  0  0  0
  1  2  1  0
  2  3  2  0
  3  4  1  0
  4  5  2  0
  5  6  1  0
  6  7  1  0
  7  8  1  0
  8  9  1  0
  9 10  2  0
 10 11  1  0
 11 12  1  0
 12 13  1  0
 13 14  1  0
 14 15  1  0
 14 16  1  0
 13 17  1  0
 13 18  1  0
 12 19  1  0
 11 20  2  0
 20 21  1  0
 21 22  1  0
 22 23  2  0
 23 24  1  0
 24 25  2  0
 25 26  1  0
 26 27  2  0
 27 28  1  0
 25 29  1  0
 24 30  1  0
 23 31  1  0
  8 32  1  0
  8 33  1  0
  7 34  1  0
  7 35  1  0
  6 36  2  0
 36 37  1  0
  5 38  1  0
  3 39  1  0
 36  2  1  0
 21  9  1  0
 27 22  1  0
 14 12  1  0
M  END
>  <cnnaffinity>  (1) 
-6.00486

>  <filename>  (1) 
Brc1cncc(CCc2nc(C3CC3)nn2-c2cccnc2)c1

$$$$
