
     RDKit          3D

 35 38  0  0  0  0  0  0  0  0999 V2000
    5.4764   -3.2800   18.9298 Br  0  0  0  0  0  0  0  0  0  0  0  0
    5.6363   -4.3640   20.4975 C   0  0  0  0  0  0  0  0  0  0  0  0
    5.8582   -3.8469   21.7461 C   0  0  0  0  0  0  0  0  0  0  0  0
    5.9034   -2.3815   22.0817 C   0  0  0  0  0  0  0  0  0  0  0  0
    7.2070   -1.7220   21.7983 C   0  0  0  0  0  0  0  0  0  0  0  0
    8.2061   -1.9634   22.5878 N   0  0  0  0  0  0  0  0  0  0  0  0
    9.2260   -1.2112   22.0557 C   0  0  0  0  0  0  0  0  0  0  0  0
   10.5325   -1.2345   22.8036 C   0  0  0  0  0  0  0  0  0  0  0  0
   11.0848    0.1225   23.2592 C   0  0  0  0  0  0  0  0  0  0  0  0
   12.6706   -0.0677   22.3691 S   0  0  0  0  0  0  0  0  0  0  0  0
   11.7669   -1.6102   21.9798 C   0  0  0  0  0  0  0  0  0  0  0  0
   11.5710   -1.7433   20.9111 H   0  0  0  0  0  0  0  0  0  0  0  0
   12.2696   -2.5080   22.3568 H   0  0  0  0  0  0  0  0  0  0  0  0
   10.4954    0.9842   22.9272 H   0  0  0  0  0  0  0  0  0  0  0  0
   11.2189    0.1901   24.3464 H   0  0  0  0  0  0  0  0  0  0  0  0
   10.4143   -1.9029   23.6636 H   0  0  0  0  0  0  0  0  0  0  0  0
    8.9112   -0.5524   20.9615 N   0  0  0  0  0  0  0  0  0  0  0  0
    7.5917   -0.8325   20.7933 N   0  0  0  0  0  0  0  0  0  0  0  0
    6.8055   -0.1645   19.8340 C   0  0  0  0  0  0  0  0  0  0  0  0
    5.5472    0.3800   20.1240 C   0  0  0  0  0  0  0  0  0  0  0  0
    4.9073    1.1168   19.1204 C   0  0  0  0  0  0  0  0  0  0  0  0
    5.5040    1.2589   17.8627 C   0  0  0  0  0  0  0  0  0  0  0  0
    6.7077    0.7323   17.5789 N   0  0  0  0  0  0  0  0  0  0  0  0
    7.3476    0.0591   18.5541 C   0  0  0  0  0  0  0  0  0  0  0  0
    8.3295   -0.3443   18.3284 H   0  0  0  0  0  0  0  0  0  0  0  0
    4.9831    1.8259   17.0973 H   0  0  0  0  0  0  0  0  0  0  0  0
    3.9544    1.5980   19.3009 H   0  0  0  0  0  0  0  0  0  0  0  0
    5.1026    0.2810   21.1149 H   0  0  0  0  0  0  0  0  0  0  0  0
    5.7291   -2.2825   23.1562 H   0  0  0  0  0  0  0  0  0  0  0  0
    5.1221   -1.8600   21.5314 H   0  0  0  0  0  0  0  0  0  0  0  0
    5.8787   -4.8753   22.7800 C   0  0  0  0  0  0  0  0  0  0  0  0
    5.6482   -6.1308   22.2773 C   0  0  0  0  0  0  0  0  0  0  0  0
    5.4336   -6.1119   20.5315 S   0  0  0  0  0  0  0  0  0  0  0  0
    5.6078   -7.0322   22.8811 H   0  0  0  0  0  0  0  0  0  0  0  0
    6.0394   -4.6687   23.8355 H   0  0  0  0  0  0  0  0  0  0  0  0
  1  2  1  0
  2  3  2  0
  3  4  1  0
  4  5  1  0
  5  6  2  0
  6  7  1  0
  7  8  1  0
  8  9  1  0
  9 10  1  0
 10 11  1  0
 11 12  1  0
 11 13  1  0
  9 14  1  0
  9 15  1  0
  8 16  1  0
  7 17  2  0
 17 18  1  0
 18 19  1  0
 19 20  2  0
 20 21  1  0
 21 22  2  0
 22 23  1  0
 23 24  2  0
 24 25  1  0
 22 26  1  0
 21 27  1  0
 20 28  1  0
  4 29  1  0
  4 30  1  0
  3 31  1  0
 31 32  2  0
 32 33  1  0
 32 34  1  0
 31 35  1  0
 33  2  1  0
 18  5  1  0
 24 19  1  0
 11  8  1  0
M  END
>  <cnnaffinity>  (1) 
-5.54668

>  <filename>  (1) 
Brc1sccc1Cc1nc(C2CSC2)nn1-c1cccnc1

$$$$
