
     RDKit          3D

 39 42  0  0  0  0  0  0  0  0999 V2000
    6.6417    1.5449   23.6724 Br  0  0  0  0  0  0  0  0  0  0  0  0
    8.5013    1.6526   24.1284 C   0  0  0  0  0  0  0  0  0  0  0  0
    8.8846    1.5500   25.4730 C   0  0  0  0  0  0  0  0  0  0  0  0
   10.1628    1.6138   25.8814 N   0  0  0  0  0  0  0  0  0  0  0  0
   11.1091    1.7803   24.9509 C   0  0  0  0  0  0  0  0  0  0  0  0
   10.8140    1.8939   23.5968 C   0  0  0  0  0  0  0  0  0  0  0  0
    9.4959    1.8263   23.1583 C   0  0  0  0  0  0  0  0  0  0  0  0
    9.2074    1.9303   21.6818 C   0  0  0  0  0  0  0  0  0  0  0  0
    9.5363    0.6079   20.9639 C   0  0  0  0  0  0  0  0  0  0  0  0
    8.5922   -0.4667   21.4180 C   0  0  0  0  0  0  0  0  0  0  0  0
    8.8458   -1.2659   22.4100 N   0  0  0  0  0  0  0  0  0  0  0  0
    7.6496   -1.9456   22.5535 C   0  0  0  0  0  0  0  0  0  0  0  0
    7.4458   -3.0024   23.5981 C   0  0  0  0  0  0  0  0  0  0  0  0
    7.0029   -4.3871   23.1386 C   0  0  0  0  0  0  0  0  0  0  0  0
    8.4176   -4.1744   23.6645 C   0  0  0  0  0  0  0  0  0  0  0  0
    9.2304   -4.1951   22.9345 H   0  0  0  0  0  0  0  0  0  0  0  0
    8.6571   -4.6045   24.6416 H   0  0  0  0  0  0  0  0  0  0  0  0
    6.8935   -4.5482   22.0622 H   0  0  0  0  0  0  0  0  0  0  0  0
    6.3147   -4.9575   23.7697 H   0  0  0  0  0  0  0  0  0  0  0  0
    7.0387   -2.6426   24.5455 H   0  0  0  0  0  0  0  0  0  0  0  0
    6.7171   -1.6441   21.6824 N   0  0  0  0  0  0  0  0  0  0  0  0
    7.3121   -0.6942   20.9310 N   0  0  0  0  0  0  0  0  0  0  0  0
    6.6658    0.0044   19.9085 C   0  0  0  0  0  0  0  0  0  0  0  0
    5.4479    0.6419   20.1619 C   0  0  0  0  0  0  0  0  0  0  0  0
    4.8208    1.3049   19.1046 C   0  0  0  0  0  0  0  0  0  0  0  0
    5.4022    1.2957   17.8286 C   0  0  0  0  0  0  0  0  0  0  0  0
    6.5750    0.6784   17.5825 N   0  0  0  0  0  0  0  0  0  0  0  0
    7.1898    0.0599   18.6050 C   0  0  0  0  0  0  0  0  0  0  0  0
    8.1297   -0.4405   18.4013 H   0  0  0  0  0  0  0  0  0  0  0  0
    4.8888    1.7935   17.0132 H   0  0  0  0  0  0  0  0  0  0  0  0
    3.8836    1.8319   19.2609 H   0  0  0  0  0  0  0  0  0  0  0  0
    5.0070    0.6269   21.1641 H   0  0  0  0  0  0  0  0  0  0  0  0
   10.5682    0.3073   21.1847 H   0  0  0  0  0  0  0  0  0  0  0  0
    9.4356    0.7372   19.8830 H   0  0  0  0  0  0  0  0  0  0  0  0
    9.8227    2.7281   21.2581 H   0  0  0  0  0  0  0  0  0  0  0  0
    8.1584    2.2011   21.5197 H   0  0  0  0  0  0  0  0  0  0  0  0
   11.6211    2.0292   22.8897 H   0  0  0  0  0  0  0  0  0  0  0  0
   12.1451    1.8339   25.2615 H   0  0  0  0  0  0  0  0  0  0  0  0
    8.1125    1.4101   26.2221 H   0  0  0  0  0  0  0  0  0  0  0  0
  1  2  1  0
  2  3  2  0
  3  4  1  0
  4  5  2  0
  5  6  1  0
  6  7  2  0
  7  8  1  0
  8  9  1  0
  9 10  1  0
 10 11  2  0
 11 12  1  0
 12 13  1  0
 13 14  1  0
 14 15  1  0
 15 16  1  0
 15 17  1  0
 14 18  1  0
 14 19  1  0
 13 20  1  0
 12 21  2  0
 21 22  1  0
 22 23  1  0
 23 24  2  0
 24 25  1  0
 25 26  2  0
 26 27  1  0
 27 28  2  0
 28 29  1  0
 26 30  1  0
 25 31  1  0
 24 32  1  0
  9 33  1  0
  9 34  1  0
  8 35  1  0
  8 36  1  0
  6 37  1  0
  5 38  1  0
  3 39  1  0
  7  2  1  0
 22 10  1  0
 28 23  1  0
 15 13  1  0
M  END
>  <cnnaffinity>  (1) 
-6.07498

>  <filename>  (1) 
Brc1cnccc1CCc1nc(C2CC2)nn1-c1cccnc1

$$$$
