
     RDKit          3D

 41 44  0  0  0  0  0  0  0  0999 V2000
    7.7099    0.4653   27.3885 Br  0  0  0  0  0  0  0  0  0  0  0  0
    8.7692    0.9562   25.8784 C   0  0  0  0  0  0  0  0  0  0  0  0
   10.1649    0.8552   25.9185 C   0  0  0  0  0  0  0  0  0  0  0  0
   10.9327    1.2596   24.8268 C   0  0  0  0  0  0  0  0  0  0  0  0
   10.2983    1.7458   23.6844 C   0  0  0  0  0  0  0  0  0  0  0  0
    8.9018    1.7917   23.6024 C   0  0  0  0  0  0  0  0  0  0  0  0
    8.2498    2.1353   22.4493 O   0  0  0  0  0  0  0  0  0  0  0  0
    9.0200    2.0692   21.2370 C   0  0  0  0  0  0  0  0  0  0  0  0
    9.4950    0.6394   20.9409 C   0  0  0  0  0  0  0  0  0  0  0  0
    8.5335   -0.3917   21.4425 C   0  0  0  0  0  0  0  0  0  0  0  0
    8.7817   -1.1281   22.4815 N   0  0  0  0  0  0  0  0  0  0  0  0
    7.6185   -1.8686   22.6097 C   0  0  0  0  0  0  0  0  0  0  0  0
    7.4015   -2.8323   23.7449 C   0  0  0  0  0  0  0  0  0  0  0  0
    8.0287   -2.5622   25.1157 C   0  0  0  0  0  0  0  0  0  0  0  0
    6.5257   -2.3905   24.9188 C   0  0  0  0  0  0  0  0  0  0  0  0
    5.8628   -3.1393   25.3636 H   0  0  0  0  0  0  0  0  0  0  0  0
    6.1261   -1.3694   24.9078 H   0  0  0  0  0  0  0  0  0  0  0  0
    8.6310   -1.6543   25.2405 H   0  0  0  0  0  0  0  0  0  0  0  0
    8.3711   -3.4270   25.6938 H   0  0  0  0  0  0  0  0  0  0  0  0
    7.3327   -3.8753   23.4257 H   0  0  0  0  0  0  0  0  0  0  0  0
    6.7139   -1.6608   21.6816 N   0  0  0  0  0  0  0  0  0  0  0  0
    7.2845   -0.7001   20.9239 N   0  0  0  0  0  0  0  0  0  0  0  0
    6.6364   -0.0295   19.8832 C   0  0  0  0  0  0  0  0  0  0  0  0
    5.4129    0.6005   20.1135 C   0  0  0  0  0  0  0  0  0  0  0  0
    4.8244    1.2875   19.0521 C   0  0  0  0  0  0  0  0  0  0  0  0
    5.4572    1.3219   17.8045 C   0  0  0  0  0  0  0  0  0  0  0  0
    6.6312    0.7040   17.5756 N   0  0  0  0  0  0  0  0  0  0  0  0
    7.2040    0.0452   18.6012 C   0  0  0  0  0  0  0  0  0  0  0  0
    8.1541   -0.4502   18.4235 H   0  0  0  0  0  0  0  0  0  0  0  0
    4.9823    1.8649   16.9934 H   0  0  0  0  0  0  0  0  0  0  0  0
    3.8853    1.8103   19.1869 H   0  0  0  0  0  0  0  0  0  0  0  0
    4.9563    0.5747   21.1029 H   0  0  0  0  0  0  0  0  0  0  0  0
    9.6055    0.5135   19.8637 H   0  0  0  0  0  0  0  0  0  0  0  0
   10.4619    0.4675   21.4254 H   0  0  0  0  0  0  0  0  0  0  0  0
    9.8903    2.7334   21.3030 H   0  0  0  0  0  0  0  0  0  0  0  0
    8.3938    2.4311   20.4167 H   0  0  0  0  0  0  0  0  0  0  0  0
    8.1489    1.4320   24.7208 C   0  0  0  0  0  0  0  0  0  0  0  0
    7.0686    1.4813   24.6646 H   0  0  0  0  0  0  0  0  0  0  0  0
   10.8747    2.0766   22.8318 H   0  0  0  0  0  0  0  0  0  0  0  0
   12.0136    1.1701   24.8628 H   0  0  0  0  0  0  0  0  0  0  0  0
   10.6581    0.4716   26.8025 H   0  0  0  0  0  0  0  0  0  0  0  0
  1  2  1  0
  2  3  2  0
  3  4  1  0
  4  5  2  0
  5  6  1  0
  6  7  1  0
  7  8  1  0
  8  9  1  0
  9 10  1  0
 10 11  2  0
 11 12  1  0
 12 13  1  0
 13 14  1  0
 14 15  1  0
 15 16  1  0
 15 17  1  0
 14 18  1  0
 14 19  1  0
 13 20  1  0
 12 21  2  0
 21 22  1  0
 22 23  1  0
 23 24  2  0
 24 25  1  0
 25 26  2  0
 26 27  1  0
 27 28  2  0
 28 29  1  0
 26 30  1  0
 25 31  1  0
 24 32  1  0
  9 33  1  0
  9 34  1  0
  8 35  1  0
  8 36  1  0
  6 37  2  0
 37 38  1  0
  5 39  1  0
  4 40  1  0
  3 41  1  0
 37  2  1  0
 22 10  1  0
 28 23  1  0
 15 13  1  0
M  END
>  <cnnaffinity>  (1) 
-6.02893

>  <filename>  (1) 
Brc1cccc(OCCc2nc(C3CC3)nn2-c2cccnc2)c1

$$$$
