
     RDKit          3D

 38 41  0  0  0  0  0  0  0  0999 V2000
   12.8638    3.0932   22.2930 Br  0  0  0  0  0  0  0  0  0  0  0  0
   10.9844    2.8016   22.5211 C   0  0  0  0  0  0  0  0  0  0  0  0
   10.1372    3.6714   23.1674 C   0  0  0  0  0  0  0  0  0  0  0  0
    8.7819    3.1507   23.3022 C   0  0  0  0  0  0  0  0  0  0  0  0
    8.6283    1.9469   22.6651 C   0  0  0  0  0  0  0  0  0  0  0  0
    7.3110    1.2091   22.7113 C   0  0  0  0  0  0  0  0  0  0  0  0
    7.4405   -0.1942   22.2078 C   0  0  0  0  0  0  0  0  0  0  0  0
    7.8500   -1.1888   22.9404 N   0  0  0  0  0  0  0  0  0  0  0  0
    8.0217   -2.2113   22.0139 C   0  0  0  0  0  0  0  0  0  0  0  0
    8.5990   -3.5789   22.3321 C   0  0  0  0  0  0  0  0  0  0  0  0
    7.6730   -4.4614   23.1720 C   0  0  0  0  0  0  0  0  0  0  0  0
    8.6387   -5.3054   23.9822 C   0  0  0  0  0  0  0  0  0  0  0  0
    9.7937   -4.3480   24.2221 C   0  0  0  0  0  0  0  0  0  0  0  0
    9.8586   -3.5368   23.0435 O   0  0  0  0  0  0  0  0  0  0  0  0
   10.7316   -4.8865   24.3981 H   0  0  0  0  0  0  0  0  0  0  0  0
    9.5914   -3.7116   25.0892 H   0  0  0  0  0  0  0  0  0  0  0  0
    8.9760   -6.1708   23.4010 H   0  0  0  0  0  0  0  0  0  0  0  0
    8.1963   -5.6625   24.9166 H   0  0  0  0  0  0  0  0  0  0  0  0
    7.0516   -3.8508   23.8379 H   0  0  0  0  0  0  0  0  0  0  0  0
    7.0219   -5.0810   22.5458 H   0  0  0  0  0  0  0  0  0  0  0  0
    8.7479   -4.0614   21.3664 H   0  0  0  0  0  0  0  0  0  0  0  0
    7.6813   -1.8946   20.7848 N   0  0  0  0  0  0  0  0  0  0  0  0
    7.2412   -0.6242   20.9022 N   0  0  0  0  0  0  0  0  0  0  0  0
    6.6186    0.0655   19.8560 C   0  0  0  0  0  0  0  0  0  0  0  0
    5.4960    0.8723   20.0803 C   0  0  0  0  0  0  0  0  0  0  0  0
    4.9065    1.4937   18.9784 C   0  0  0  0  0  0  0  0  0  0  0  0
    5.4542    1.3239   17.7037 C   0  0  0  0  0  0  0  0  0  0  0  0
    6.5305    0.5471   17.4842 N   0  0  0  0  0  0  0  0  0  0  0  0
    7.0880   -0.0803   18.5402 C   0  0  0  0  0  0  0  0  0  0  0  0
    7.9508   -0.7183   18.3659 H   0  0  0  0  0  0  0  0  0  0  0  0
    4.9905    1.8280   16.8604 H   0  0  0  0  0  0  0  0  0  0  0  0
    4.0267    2.1169   19.0927 H   0  0  0  0  0  0  0  0  0  0  0  0
    5.0743    0.9899   21.0769 H   0  0  0  0  0  0  0  0  0  0  0  0
    6.9494    1.1987   23.7456 H   0  0  0  0  0  0  0  0  0  0  0  0
    6.5803    1.7268   22.0875 H   0  0  0  0  0  0  0  0  0  0  0  0
   10.1330    1.3858   21.9163 S   0  0  0  0  0  0  0  0  0  0  0  0
    7.9792    3.6324   23.8581 H   0  0  0  0  0  0  0  0  0  0  0  0
   10.4427    4.6373   23.5497 H   0  0  0  0  0  0  0  0  0  0  0  0
  1  2  1  0
  2  3  2  0
  3  4  1  0
  4  5  2  0
  5  6  1  0
  6  7  1  0
  7  8  2  0
  8  9  1  0
  9 10  1  0
 10 11  1  0
 11 12  1  0
 12 13  1  0
 13 14  1  0
 13 15  1  0
 13 16  1  0
 12 17  1  0
 12 18  1  0
 11 19  1  0
 11 20  1  0
 10 21  1  0
  9 22  2  0
 22 23  1  0
 23 24  1  0
 24 25  2  0
 25 26  1  0
 26 27  2  0
 27 28  1  0
 28 29  2  0
 29 30  1  0
 27 31  1  0
 26 32  1  0
 25 33  1  0
  6 34  1  0
  6 35  1  0
  5 36  1  0
  4 37  1  0
  3 38  1  0
 36  2  1  0
 23  7  1  0
 29 24  1  0
 14 10  1  0
M  END
>  <cnnaffinity>  (1) 
-6.37921

>  <filename>  (1) 
Brc1ccc(Cc2nc(C3CCCO3)nn2-c2cccnc2)s1

$$$$
