
     RDKit          3D

 36 39  0  0  0  0  0  0  0  0999 V2000
   14.6634    5.7489   21.5885 Br  0  0  0  0  0  0  0  0  0  0  0  0
   13.4639    4.6474   22.5753 C   0  0  0  0  0  0  0  0  0  0  0  0
   13.7106    3.2850   22.7846 C   0  0  0  0  0  0  0  0  0  0  0  0
   12.8064    2.5007   23.4999 C   0  0  0  0  0  0  0  0  0  0  0  0
   11.6357    3.0729   24.0122 C   0  0  0  0  0  0  0  0  0  0  0  0
   10.4787    2.0989   24.9098 S   0  0  0  0  0  0  0  0  0  0  0  0
    9.2730    1.8151   23.5515 C   0  0  0  0  0  0  0  0  0  0  0  0
    8.1253    0.9330   24.0581 C   0  0  0  0  0  0  0  0  0  0  0  0
    7.0415    0.8296   22.9597 C   0  0  0  0  0  0  0  0  0  0  0  0
    7.4988   -0.3129   22.1711 N   0  0  0  0  0  0  0  0  0  0  0  0
    8.3728   -1.1649   22.7384 C   0  0  0  0  0  0  0  0  0  0  0  0
    8.7773   -2.0796   21.9000 N   0  0  0  0  0  0  0  0  0  0  0  0
    8.1559   -1.7704   20.7016 N   0  0  0  0  0  0  0  0  0  0  0  0
    7.4020   -0.7058   20.8658 C   0  0  0  0  0  0  0  0  0  0  0  0
    6.6442   -0.0222   19.8399 C   0  0  0  0  0  0  0  0  0  0  0  0
    5.4625    0.6687   20.1185 C   0  0  0  0  0  0  0  0  0  0  0  0
    4.8460    1.3289   19.0594 C   0  0  0  0  0  0  0  0  0  0  0  0
    5.4218    1.2934   17.7865 C   0  0  0  0  0  0  0  0  0  0  0  0
    6.5525    0.6122   17.5279 N   0  0  0  0  0  0  0  0  0  0  0  0
    7.1471   -0.0363   18.5401 C   0  0  0  0  0  0  0  0  0  0  0  0
    8.0719   -0.5686   18.3390 H   0  0  0  0  0  0  0  0  0  0  0  0
    4.9393    1.8343   16.9790 H   0  0  0  0  0  0  0  0  0  0  0  0
    3.9286    1.8856   19.2103 H   0  0  0  0  0  0  0  0  0  0  0  0
    5.0296    0.6955   21.1197 H   0  0  0  0  0  0  0  0  0  0  0  0
    8.8046   -0.7717   24.3838 S   0  0  0  0  0  0  0  0  0  0  0  0
    6.9758    1.7524   22.3709 H   0  0  0  0  0  0  0  0  0  0  0  0
    6.0558    0.6211   23.3928 H   0  0  0  0  0  0  0  0  0  0  0  0
    7.7004    1.3620   24.9730 H   0  0  0  0  0  0  0  0  0  0  0  0
    8.8760    2.7720   23.1909 H   0  0  0  0  0  0  0  0  0  0  0  0
    9.7750    1.3167   22.7114 H   0  0  0  0  0  0  0  0  0  0  0  0
   11.3963    4.4350   23.8161 C   0  0  0  0  0  0  0  0  0  0  0  0
   12.3161    5.2143   23.1132 C   0  0  0  0  0  0  0  0  0  0  0  0
   12.1482    6.2746   22.9994 H   0  0  0  0  0  0  0  0  0  0  0  0
   10.4816    4.8853   24.1962 H   0  0  0  0  0  0  0  0  0  0  0  0
   13.0267    1.4493   23.6593 H   0  0  0  0  0  0  0  0  0  0  0  0
   14.6052    2.8213   22.3940 H   0  0  0  0  0  0  0  0  0  0  0  0
  1  2  1  0
  2  3  2  0
  3  4  1  0
  4  5  2  0
  5  6  1  0
  6  7  1  0
  7  8  1  0
  8  9  1  0
  9 10  1  0
 10 11  1  0
 11 12  2  0
 12 13  1  0
 13 14  2  0
 14 15  1  0
 15 16  2  0
 16 17  1  0
 17 18  2  0
 18 19  1  0
 19 20  2  0
 20 21  1  0
 18 22  1  0
 17 23  1  0
 16 24  1  0
 11 25  1  0
  9 26  1  0
  9 27  1  0
  8 28  1  0
  7 29  1  0
  7 30  1  0
  5 31  1  0
 31 32  2  0
 32 33  1  0
 31 34  1  0
  4 35  1  0
  3 36  1  0
 32  2  1  0
 25  8  1  0
 14 10  1  0
 20 15  1  0
M  END
>  <cnnaffinity>  (1) 
-5.85381

>  <filename>  (1) 
Brc1ccc(SCC2Cn3c(nnc3-c3cccnc3)S2)cc1

$$$$
