
     RDKit          3D

 37 41  0  0  0  0  0  0  0  0999 V2000
    6.1075   -0.2881   25.1813 Br  0  0  0  0  0  0  0  0  0  0  0  0
    6.4959    1.2626   24.1218 C   0  0  0  0  0  0  0  0  0  0  0  0
    6.2167    2.5356   24.6399 C   0  0  0  0  0  0  0  0  0  0  0  0
    6.4896    3.6743   23.9790 N   0  0  0  0  0  0  0  0  0  0  0  0
    7.0324    3.5771   22.7552 C   0  0  0  0  0  0  0  0  0  0  0  0
    7.3054    2.3417   22.1505 C   0  0  0  0  0  0  0  0  0  0  0  0
    7.0571    1.1372   22.8393 C   0  0  0  0  0  0  0  0  0  0  0  0
    7.4290   -0.1914   22.2757 C   0  0  0  0  0  0  0  0  0  0  0  0
    7.8438   -1.2049   22.9904 N   0  0  0  0  0  0  0  0  0  0  0  0
    8.1744   -2.1604   22.0430 C   0  0  0  0  0  0  0  0  0  0  0  0
    8.8015   -3.4859   22.3826 C   0  0  0  0  0  0  0  0  0  0  0  0
    8.1258   -4.8290   22.2058 C   0  0  0  0  0  0  0  0  0  0  0  0
    8.3261   -4.2656   23.6306 C   0  0  0  0  0  0  0  0  0  0  0  0
    9.5627   -4.2993   24.5560 C   0  0  0  0  0  0  0  0  0  0  0  0
    8.7316   -5.5459   24.3928 C   0  0  0  0  0  0  0  0  0  0  0  0
    9.1460   -6.3821   23.8236 H   0  0  0  0  0  0  0  0  0  0  0  0
    8.0132   -5.8825   25.1522 H   0  0  0  0  0  0  0  0  0  0  0  0
   10.5487   -4.2458   24.0766 H   0  0  0  0  0  0  0  0  0  0  0  0
    9.4984   -3.6945   25.4676 H   0  0  0  0  0  0  0  0  0  0  0  0
    7.0830   -4.9590   21.9010 H   0  0  0  0  0  0  0  0  0  0  0  0
    8.7453   -5.6809   21.9087 H   0  0  0  0  0  0  0  0  0  0  0  0
    9.8790   -3.3618   22.2852 H   0  0  0  0  0  0  0  0  0  0  0  0
    8.0069   -1.7842   20.7989 N   0  0  0  0  0  0  0  0  0  0  0  0
    7.4618   -0.5568   20.9281 N   0  0  0  0  0  0  0  0  0  0  0  0
    6.7840    0.0660   19.8777 C   0  0  0  0  0  0  0  0  0  0  0  0
    5.6330    0.8033   20.1484 C   0  0  0  0  0  0  0  0  0  0  0  0
    4.9721    1.3990   19.0794 C   0  0  0  0  0  0  0  0  0  0  0  0
    5.4746    1.2619   17.7799 C   0  0  0  0  0  0  0  0  0  0  0  0
    6.5611    0.5161   17.5059 N   0  0  0  0  0  0  0  0  0  0  0  0
    7.1906   -0.0875   18.5351 C   0  0  0  0  0  0  0  0  0  0  0  0
    8.0545   -0.7046   18.3058 H   0  0  0  0  0  0  0  0  0  0  0  0
    4.9638    1.7741   16.9701 H   0  0  0  0  0  0  0  0  0  0  0  0
    4.0698    1.9725   19.2476 H   0  0  0  0  0  0  0  0  0  0  0  0
    5.2515    0.8796   21.1673 H   0  0  0  0  0  0  0  0  0  0  0  0
    7.7495    2.3510   21.1604 H   0  0  0  0  0  0  0  0  0  0  0  0
    7.2856    4.4946   22.2321 H   0  0  0  0  0  0  0  0  0  0  0  0
    5.7641    2.5970   25.6254 H   0  0  0  0  0  0  0  0  0  0  0  0
  1  2  1  0
  2  3  2  0
  3  4  1  0
  4  5  2  0
  5  6  1  0
  6  7  2  0
  7  8  1  0
  8  9  2  0
  9 10  1  0
 10 11  1  0
 11 12  1  0
 12 13  1  0
 13 14  1  0
 14 15  1  0
 15 16  1  0
 15 17  1  0
 14 18  1  0
 14 19  1  0
 12 20  1  0
 12 21  1  0
 11 22  1  0
 10 23  2  0
 23 24  1  0
 24 25  1  0
 25 26  2  0
 26 27  1  0
 27 28  2  0
 28 29  1  0
 29 30  2  0
 30 31  1  0
 28 32  1  0
 27 33  1  0
 26 34  1  0
  6 35  1  0
  5 36  1  0
  3 37  1  0
  7  2  1  0
 24  8  1  0
 30 25  1  0
 13 11  1  0
 15 13  1  0
M  END
>  <cnnaffinity>  (1) 
-6.20486

>  <filename>  (1) 
Brc1cnccc1-c1nc(C2CC23CC3)nn1-c1cccnc1

$$$$
