
     RDKit          3D

 36 38  0  0  0  0  0  0  0  0999 V2000
    5.0162    1.8763   16.9652 H   0  0  0  0  0  0  0  0  0  0  0  0
    5.4761    1.3417   17.7907 C   0  0  0  0  0  0  0  0  0  0  0  0
    6.6311    0.6873   17.5717 N   0  0  0  0  0  0  0  0  0  0  0  0
    7.1875    0.0392   18.6101 C   0  0  0  0  0  0  0  0  0  0  0  0
    8.1031   -0.5102   18.4218 H   0  0  0  0  0  0  0  0  0  0  0  0
    6.6382    0.0190   19.9102 C   0  0  0  0  0  0  0  0  0  0  0  0
    7.2820   -0.7868   21.0305 C   0  0  2  0  0  0  0  0  0  0  0  0
    6.5495   -2.1569   20.9867 C   0  0  0  0  0  0  0  0  0  0  0  0
    6.6541   -2.5930   19.9905 H   0  0  0  0  0  0  0  0  0  0  0  0
    5.4804   -1.9719   21.1411 H   0  0  0  0  0  0  0  0  0  0  0  0
    6.9818   -3.1798   22.0085 C   0  0  0  0  0  0  0  0  0  0  0  0
    6.4699   -3.1599   23.3193 C   0  0  0  0  0  0  0  0  0  0  0  0
    5.7564   -2.4048   23.6427 H   0  0  0  0  0  0  0  0  0  0  0  0
    6.8944   -4.1011   24.2645 C   0  0  0  0  0  0  0  0  0  0  0  0
    6.5198   -4.0684   25.2862 H   0  0  0  0  0  0  0  0  0  0  0  0
    7.8206   -5.0889   23.9118 C   0  0  0  0  0  0  0  0  0  0  0  0
    8.5230   -6.2673   25.2475 Br  0  0  0  0  0  0  0  0  0  0  0  0
    8.2875   -5.1510   22.6016 C   0  0  0  0  0  0  0  0  0  0  0  0
    9.0023   -5.9185   22.3279 H   0  0  0  0  0  0  0  0  0  0  0  0
    7.8762   -4.2055   21.6617 C   0  0  0  0  0  0  0  0  0  0  0  0
    8.2736   -4.2873   20.6605 H   0  0  0  0  0  0  0  0  0  0  0  0
    7.1442   -0.1455   22.4254 C   0  0  0  0  0  0  0  0  0  0  0  0
    6.2235   -0.4561   22.9271 H   0  0  0  0  0  0  0  0  0  0  0  0
    7.1388    0.9478   22.3527 H   0  0  0  0  0  0  0  0  0  0  0  0
    8.3260   -0.5905   23.1758 N   0  0  0  0  0  0  0  0  0  0  0  0
    8.0977   -1.4045   23.7491 H   0  0  0  0  0  0  0  0  0  0  0  0
    9.4102   -0.9194   22.2476 C   0  0  0  0  0  0  0  0  0  0  0  0
   10.2425   -0.2153   22.3539 H   0  0  0  0  0  0  0  0  0  0  0  0
    9.7842   -1.9272   22.4443 H   0  0  0  0  0  0  0  0  0  0  0  0
    8.8112   -0.8362   20.8507 C   0  0  0  0  0  0  0  0  0  0  0  0
    9.1309   -1.6724   20.2235 H   0  0  0  0  0  0  0  0  0  0  0  0
    9.1617    0.0916   20.3834 H   0  0  0  0  0  0  0  0  0  0  0  0
    5.4302    0.6851   20.1198 C   0  0  0  0  0  0  0  0  0  0  0  0
    4.9525    0.6730   21.0984 H   0  0  0  0  0  0  0  0  0  0  0  0
    4.8468    1.3505   19.0415 C   0  0  0  0  0  0  0  0  0  0  0  0
    3.9057    1.8776   19.1579 H   0  0  0  0  0  0  0  0  0  0  0  0
  1  2  1  0
  2  3  2  0
  3  4  1  0
  4  5  1  0
  4  6  2  0
  6  7  1  0
  7  8  1  1
  8  9  1  0
  8 10  1  0
  8 11  1  0
 11 12  2  0
 12 13  1  0
 12 14  1  0
 14 15  1  0
 14 16  2  0
 16 17  1  0
 16 18  1  0
 18 19  1  0
 18 20  2  0
 20 21  1  0
  7 22  1  0
 22 23  1  0
 22 24  1  0
 22 25  1  0
 25 26  1  0
 25 27  1  0
 27 28  1  0
 27 29  1  0
 27 30  1  0
 30 31  1  0
 30 32  1  0
  6 33  1  0
 33 34  1  0
 33 35  2  0
 35 36  1  0
 35  2  1  0
 30  7  1  0
 20 11  1  0
M  END
>  <cnnaffinity>  (1) 
-5.24013

>  <filename>  (1) 
Brc1ccc(C[C@]2(c3cccnc3)CCNC2)cc1

$$$$
