
     RDKit          3D

 39 42  0  0  0  0  0  0  0  0999 V2000
    5.4926    4.3412   21.7344 Br  0  0  0  0  0  0  0  0  0  0  0  0
    7.2167    3.6342   22.1410 C   0  0  0  0  0  0  0  0  0  0  0  0
    8.0484    4.2944   23.0485 C   0  0  0  0  0  0  0  0  0  0  0  0
    9.2556    3.8360   23.4184 N   0  0  0  0  0  0  0  0  0  0  0  0
    9.6892    2.7051   22.8372 C   0  0  0  0  0  0  0  0  0  0  0  0
    8.9360    1.9899   21.8831 C   0  0  0  0  0  0  0  0  0  0  0  0
    9.4469    0.7165   21.2430 C   0  0  0  0  0  0  0  0  0  0  0  0
    8.5262   -0.4309   21.5472 C   0  0  0  0  0  0  0  0  0  0  0  0
    8.7815   -1.2601   22.5114 N   0  0  0  0  0  0  0  0  0  0  0  0
    7.6544   -2.0558   22.5299 C   0  0  0  0  0  0  0  0  0  0  0  0
    7.5355   -3.1359   23.5531 C   0  0  0  0  0  0  0  0  0  0  0  0
    8.0313   -4.4576   22.9773 C   0  0  0  0  0  0  0  0  0  0  0  0
    7.0582   -5.2659   22.1378 C   0  0  0  0  0  0  0  0  0  0  0  0
    7.4579   -5.7460   23.5318 C   0  0  0  0  0  0  0  0  0  0  0  0
    6.7200   -5.6629   24.3357 H   0  0  0  0  0  0  0  0  0  0  0  0
    8.1362   -6.6007   23.6022 H   0  0  0  0  0  0  0  0  0  0  0  0
    6.0508   -4.8580   22.0090 H   0  0  0  0  0  0  0  0  0  0  0  0
    7.4562   -5.8092   21.2760 H   0  0  0  0  0  0  0  0  0  0  0  0
    9.0874   -4.4745   22.6913 H   0  0  0  0  0  0  0  0  0  0  0  0
    8.1372   -2.8703   24.4250 H   0  0  0  0  0  0  0  0  0  0  0  0
    6.4942   -3.2221   23.8702 H   0  0  0  0  0  0  0  0  0  0  0  0
    6.7453   -1.7729   21.6266 N   0  0  0  0  0  0  0  0  0  0  0  0
    7.2952   -0.7289   20.9644 N   0  0  0  0  0  0  0  0  0  0  0  0
    6.6547   -0.0420   19.9236 C   0  0  0  0  0  0  0  0  0  0  0  0
    5.4258    0.5891   20.1419 C   0  0  0  0  0  0  0  0  0  0  0  0
    4.8430    1.2791   19.0782 C   0  0  0  0  0  0  0  0  0  0  0  0
    5.4756    1.3033   17.8302 C   0  0  0  0  0  0  0  0  0  0  0  0
    6.6478    0.6815   17.6077 N   0  0  0  0  0  0  0  0  0  0  0  0
    7.2231    0.0311   18.6387 C   0  0  0  0  0  0  0  0  0  0  0  0
    8.1732   -0.4653   18.4667 H   0  0  0  0  0  0  0  0  0  0  0  0
    5.0032    1.8426   17.0152 H   0  0  0  0  0  0  0  0  0  0  0  0
    3.9058    1.8084   19.2039 H   0  0  0  0  0  0  0  0  0  0  0  0
    4.9542    0.5628   21.1249 H   0  0  0  0  0  0  0  0  0  0  0  0
   10.4518    0.4708   21.6038 H   0  0  0  0  0  0  0  0  0  0  0  0
    9.5025    0.8474   20.1644 H   0  0  0  0  0  0  0  0  0  0  0  0
    7.6643    2.4587   21.5523 C   0  0  0  0  0  0  0  0  0  0  0  0
    7.0399    1.9209   20.8492 H   0  0  0  0  0  0  0  0  0  0  0  0
   10.6619    2.3302   23.1385 H   0  0  0  0  0  0  0  0  0  0  0  0
    7.6808    5.2143   23.4863 H   0  0  0  0  0  0  0  0  0  0  0  0
  1  2  1  0
  2  3  2  0
  3  4  1  0
  4  5  2  0
  5  6  1  0
  6  7  1  0
  7  8  1  0
  8  9  2  0
  9 10  1  0
 10 11  1  0
 11 12  1  0
 12 13  1  0
 13 14  1  0
 14 15  1  0
 14 16  1  0
 13 17  1  0
 13 18  1  0
 12 19  1  0
 11 20  1  0
 11 21  1  0
 10 22  2  0
 22 23  1  0
 23 24  1  0
 24 25  2  0
 25 26  1  0
 26 27  2  0
 27 28  1  0
 28 29  2  0
 29 30  1  0
 27 31  1  0
 26 32  1  0
 25 33  1  0
  7 34  1  0
  7 35  1  0
  6 36  2  0
 36 37  1  0
  5 38  1  0
  3 39  1  0
 36  2  1  0
 23  8  1  0
 29 24  1  0
 14 12  1  0
M  END
>  <cnnaffinity>  (1) 
-6.10063

>  <filename>  (1) 
Brc1cncc(Cc2nc(CC3CC3)nn2-c2cccnc2)c1

$$$$
