
     RDKit          3D

 40 44  0  0  0  0  0  0  0  0999 V2000
   10.6597    1.1210   24.3502 Br  0  0  0  0  0  0  0  0  0  0  0  0
    9.4490    2.2843   23.4167 C   0  0  0  0  0  0  0  0  0  0  0  0
    9.0025    3.3924   24.0433 N   0  0  0  0  0  0  0  0  0  0  0  0
    8.1070    4.1728   23.4236 C   0  0  0  0  0  0  0  0  0  0  0  0
    7.5912    3.8630   22.1640 C   0  0  0  0  0  0  0  0  0  0  0  0
    8.0343    2.7110   21.5101 C   0  0  0  0  0  0  0  0  0  0  0  0
    9.0036    1.9240   22.1272 C   0  0  0  0  0  0  0  0  0  0  0  0
    9.5267    0.6926   21.4168 C   0  0  0  0  0  0  0  0  0  0  0  0
    8.5663   -0.4374   21.6241 C   0  0  0  0  0  0  0  0  0  0  0  0
    8.7650   -1.2952   22.5780 N   0  0  0  0  0  0  0  0  0  0  0  0
    7.6478   -2.1014   22.5001 C   0  0  0  0  0  0  0  0  0  0  0  0
    7.4345   -3.2190   23.4716 C   0  0  0  0  0  0  0  0  0  0  0  0
    7.2459   -4.6569   23.0634 C   0  0  0  0  0  0  0  0  0  0  0  0
    8.5886   -4.2206   23.6855 C   0  0  0  0  0  0  0  0  0  0  0  0
    9.0200   -3.9509   25.1396 C   0  0  0  0  0  0  0  0  0  0  0  0
    8.8347   -5.3680   24.6794 C   0  0  0  0  0  0  0  0  0  0  0  0
    7.9621   -5.9273   25.0328 H   0  0  0  0  0  0  0  0  0  0  0  0
    9.6917   -6.0119   24.4610 H   0  0  0  0  0  0  0  0  0  0  0  0
    8.2758   -3.4991   25.8048 H   0  0  0  0  0  0  0  0  0  0  0  0
   10.0244   -3.5405   25.2889 H   0  0  0  0  0  0  0  0  0  0  0  0
    7.2934   -4.9854   22.0213 H   0  0  0  0  0  0  0  0  0  0  0  0
    6.5879   -5.2823   23.6738 H   0  0  0  0  0  0  0  0  0  0  0  0
    6.9518   -2.8227   24.3704 H   0  0  0  0  0  0  0  0  0  0  0  0
    6.7853   -1.7751   21.5684 N   0  0  0  0  0  0  0  0  0  0  0  0
    7.3560   -0.7011   20.9841 N   0  0  0  0  0  0  0  0  0  0  0  0
    6.7268    0.0186   19.9621 C   0  0  0  0  0  0  0  0  0  0  0  0
    5.4894    0.6386   20.1791 C   0  0  0  0  0  0  0  0  0  0  0  0
    4.8847    1.2836   19.0991 C   0  0  0  0  0  0  0  0  0  0  0  0
    5.5165    1.2960   17.8509 C   0  0  0  0  0  0  0  0  0  0  0  0
    6.7065    0.7053   17.6418 N   0  0  0  0  0  0  0  0  0  0  0  0
    7.2900    0.0746   18.6791 C   0  0  0  0  0  0  0  0  0  0  0  0
    8.2365   -0.4313   18.5135 H   0  0  0  0  0  0  0  0  0  0  0  0
    5.0245    1.7863   17.0165 H   0  0  0  0  0  0  0  0  0  0  0  0
    3.9256    1.7758   19.2088 H   0  0  0  0  0  0  0  0  0  0  0  0
    5.0140    0.6165   21.1605 H   0  0  0  0  0  0  0  0  0  0  0  0
   10.5047    0.4255   21.8378 H   0  0  0  0  0  0  0  0  0  0  0  0
    9.6539    0.8739   20.3462 H   0  0  0  0  0  0  0  0  0  0  0  0
    7.6439    2.4172   20.5409 H   0  0  0  0  0  0  0  0  0  0  0  0
    6.8612    4.5313   21.7183 H   0  0  0  0  0  0  0  0  0  0  0  0
    7.7760    5.0807   23.9205 H   0  0  0  0  0  0  0  0  0  0  0  0
  1  2  1  0
  2  3  2  0
  3  4  1  0
  4  5  2  0
  5  6  1  0
  6  7  2  0
  7  8  1  0
  8  9  1  0
  9 10  2  0
 10 11  1  0
 11 12  1  0
 12 13  1  0
 13 14  1  0
 14 15  1  0
 15 16  1  0
 16 17  1  0
 16 18  1  0
 15 19  1  0
 15 20  1  0
 13 21  1  0
 13 22  1  0
 12 23  1  0
 11 24  2  0
 24 25  1  0
 25 26  1  0
 26 27  2  0
 27 28  1  0
 28 29  2  0
 29 30  1  0
 30 31  2  0
 31 32  1  0
 29 33  1  0
 28 34  1  0
 27 35  1  0
  8 36  1  0
  8 37  1  0
  6 38  1  0
  5 39  1  0
  4 40  1  0
  7  2  1  0
 25  9  1  0
 31 26  1  0
 14 12  1  0
 16 14  1  0
M  END
>  <cnnaffinity>  (1) 
-6.72214

>  <filename>  (1) 
Brc1ncccc1Cc1nc(C2CC23CC3)nn1-c1cccnc1

$$$$
