
     RDKit          3D

 38 41  0  0  0  0  0  0  0  0999 V2000
    5.7122   -4.2052   19.0715 Br  0  0  0  0  0  0  0  0  0  0  0  0
    5.6914   -4.7397   20.8873 C   0  0  0  0  0  0  0  0  0  0  0  0
    5.6045   -6.0840   21.2331 C   0  0  0  0  0  0  0  0  0  0  0  0
    5.5021   -6.4660   22.5711 C   0  0  0  0  0  0  0  0  0  0  0  0
    5.4241   -5.4703   23.5539 C   0  0  0  0  0  0  0  0  0  0  0  0
    5.5161   -4.1136   23.1985 C   0  0  0  0  0  0  0  0  0  0  0  0
    5.6799   -3.7465   21.8584 C   0  0  0  0  0  0  0  0  0  0  0  0
    5.7843   -2.3227   21.3828 C   0  0  0  0  0  0  0  0  0  0  0  0
    7.0464   -1.6082   21.7529 C   0  0  0  0  0  0  0  0  0  0  0  0
    7.9763   -1.9969   22.5754 N   0  0  0  0  0  0  0  0  0  0  0  0
    9.0060   -1.1075   22.3007 C   0  0  0  0  0  0  0  0  0  0  0  0
   10.3599   -1.2472   22.9427 C   0  0  0  0  0  0  0  0  0  0  0  0
   11.0792    0.0633   23.3052 C   0  0  0  0  0  0  0  0  0  0  0  0
   12.4991   -0.2334   22.1981 S   0  0  0  0  0  0  0  0  0  0  0  0
   11.4440   -1.7055   21.9599 C   0  0  0  0  0  0  0  0  0  0  0  0
   11.0772   -1.8129   20.9352 H   0  0  0  0  0  0  0  0  0  0  0  0
   11.9436   -2.6361   22.2482 H   0  0  0  0  0  0  0  0  0  0  0  0
   11.3815    0.1365   24.3556 H   0  0  0  0  0  0  0  0  0  0  0  0
   10.5205    0.9676   23.0478 H   0  0  0  0  0  0  0  0  0  0  0  0
   10.2974   -1.9135   23.8060 H   0  0  0  0  0  0  0  0  0  0  0  0
    8.7431   -0.2119   21.3792 N   0  0  0  0  0  0  0  0  0  0  0  0
    7.4633   -0.4853   21.0597 N   0  0  0  0  0  0  0  0  0  0  0  0
    6.7684    0.1096   20.0087 C   0  0  0  0  0  0  0  0  0  0  0  0
    5.4938    0.6430   20.2154 C   0  0  0  0  0  0  0  0  0  0  0  0
    4.8545    1.2255   19.1232 C   0  0  0  0  0  0  0  0  0  0  0  0
    5.4818    1.2336   17.8705 C   0  0  0  0  0  0  0  0  0  0  0  0
    6.6975    0.6891   17.6601 N   0  0  0  0  0  0  0  0  0  0  0  0
    7.3278    0.1491   18.7194 C   0  0  0  0  0  0  0  0  0  0  0  0
    8.2952   -0.3206   18.5644 H   0  0  0  0  0  0  0  0  0  0  0  0
    4.9620    1.6942   17.0392 H   0  0  0  0  0  0  0  0  0  0  0  0
    3.8799    1.6908   19.2329 H   0  0  0  0  0  0  0  0  0  0  0  0
    5.0319    0.6274   21.2034 H   0  0  0  0  0  0  0  0  0  0  0  0
    4.9304   -1.7655   21.6700 H   0  0  0  0  0  0  0  0  0  0  0  0
    5.7092   -2.2955   20.2969 H   0  0  0  0  0  0  0  0  0  0  0  0
    5.4596   -3.3402   23.9569 H   0  0  0  0  0  0  0  0  0  0  0  0
    5.2796   -5.7483   24.5924 H   0  0  0  0  0  0  0  0  0  0  0  0
    5.4386   -7.5193   22.8316 H   0  0  0  0  0  0  0  0  0  0  0  0
    5.5764   -6.8215   20.4430 H   0  0  0  0  0  0  0  0  0  0  0  0
  1  2  1  0
  2  3  2  0
  3  4  1  0
  4  5  2  0
  5  6  1  0
  6  7  2  0
  7  8  1  0
  8  9  1  0
  9 10  2  0
 10 11  1  0
 11 12  1  0
 12 13  1  0
 13 14  1  0
 14 15  1  0
 15 16  1  0
 15 17  1  0
 13 18  1  0
 13 19  1  0
 12 20  1  0
 11 21  2  0
 21 22  1  0
 22 23  1  0
 23 24  2  0
 24 25  1  0
 25 26  2  0
 26 27  1  0
 27 28  2  0
 28 29  1  0
 26 30  1  0
 25 31  1  0
 24 32  1  0
  8 33  1  0
  8 34  1  0
  6 35  1  0
  5 36  1  0
  4 37  1  0
  3 38  1  0
  7  2  1  0
 22  9  1  0
 28 23  1  0
 15 12  1  0
M  END
>  <cnnaffinity>  (1) 
-6.05884

>  <filename>  (1) 
Brc1ccccc1Cc1nc(C2CSC2)nn1-c1cccnc1

$$$$
