
     RDKit          3D

 29 32  0  0  0  0  0  0  0  0999 V2000
    4.8939    1.7789   17.0144 H   0  0  0  0  0  0  0  0  0  0  0  0
    5.4004    1.2925   17.8413 C   0  0  0  0  0  0  0  0  0  0  0  0
    6.5699    0.6775   17.5911 N   0  0  0  0  0  0  0  0  0  0  0  0
    7.1879    0.0505   18.5982 C   0  0  0  0  0  0  0  0  0  0  0  0
    8.1350   -0.4421   18.3907 H   0  0  0  0  0  0  0  0  0  0  0  0
    6.6569    0.0056   19.8836 C   0  0  0  0  0  0  0  0  0  0  0  0
    7.3890   -0.7013   20.9057 C   0  0  0  0  0  0  0  0  0  0  0  0
    8.3317   -1.6103   20.7039 N   0  0  0  0  0  0  0  0  0  0  0  0
    8.8357   -2.0283   21.9247 N   0  0  0  0  0  0  0  0  0  0  0  0
    8.1742   -1.3229   22.8092 C   0  0  0  0  0  0  0  0  0  0  0  0
    8.2766   -1.1064   24.5232 S   0  0  0  0  0  0  0  0  0  0  0  0
    7.0406    0.1651   24.3249 C   0  0  0  0  0  0  0  0  0  0  0  0
    6.5416    0.9590   25.4658 C   0  0  0  0  0  0  0  0  0  0  0  0
    5.5748    1.9577   25.2589 C   0  0  0  0  0  0  0  0  0  0  0  0
    5.1932    2.1480   24.2591 H   0  0  0  0  0  0  0  0  0  0  0  0
    5.0901    2.7201   26.3242 C   0  0  0  0  0  0  0  0  0  0  0  0
    4.3440    3.4868   26.1427 H   0  0  0  0  0  0  0  0  0  0  0  0
    5.5613    2.5009   27.6212 C   0  0  0  0  0  0  0  0  0  0  0  0
    4.8950    3.5461   29.0747 Br  0  0  0  0  0  0  0  0  0  0  0  0
    6.5227    1.5110   27.8440 C   0  0  0  0  0  0  0  0  0  0  0  0
    6.8906    1.3378   28.8522 H   0  0  0  0  0  0  0  0  0  0  0  0
    7.0115    0.7441   26.7783 C   0  0  0  0  0  0  0  0  0  0  0  0
    7.7591   -0.0165   26.9913 H   0  0  0  0  0  0  0  0  0  0  0  0
    6.6034    0.3696   23.0852 N   0  0  0  0  0  0  0  0  0  0  0  0
    7.2502   -0.5161   22.2616 N   0  0  0  0  0  0  0  0  0  0  0  0
    5.4488    0.6508   20.1628 C   0  0  0  0  0  0  0  0  0  0  0  0
    5.0067    0.6331   21.1583 H   0  0  0  0  0  0  0  0  0  0  0  0
    4.8149    1.3087   19.1136 C   0  0  0  0  0  0  0  0  0  0  0  0
    3.8779    1.8390   19.2669 H   0  0  0  0  0  0  0  0  0  0  0  0
  1  2  1  0
  2  3  2  0
  3  4  1  0
  4  5  1  0
  4  6  2  0
  6  7  1  0
  7  8  2  0
  8  9  1  0
  9 10  2  0
 10 11  1  0
 11 12  1  0
 12 13  1  0
 13 14  2  0
 14 15  1  0
 14 16  1  0
 16 17  1  0
 16 18  2  0
 18 19  1  0
 18 20  1  0
 20 21  1  0
 20 22  2  0
 22 23  1  0
 12 24  2  0
 24 25  1  0
  6 26  1  0
 26 27  1  0
 26 28  2  0
 28 29  1  0
 28  2  1  0
 25  7  1  0
 25 10  1  0
 22 13  1  0
M  END
>  <cnnaffinity>  (1) 
-5.27857

>  <filename>  (1) 
Brc1ccc(-c2nn3c(-c4cccnc4)nnc3s2)cc1

$$$$
