
     RDKit          3D

 42 45  0  0  0  0  0  0  0  0999 V2000
    8.4997    3.5984   22.0848 Br  0  0  0  0  0  0  0  0  0  0  0  0
    7.8226    3.9167   23.8478 C   0  0  0  0  0  0  0  0  0  0  0  0
    7.6513    5.1929   24.2390 N   0  0  0  0  0  0  0  0  0  0  0  0
    7.2158    5.4330   25.4835 C   0  0  0  0  0  0  0  0  0  0  0  0
    6.9883    4.4143   26.4104 C   0  0  0  0  0  0  0  0  0  0  0  0
    7.1583    3.0913   26.0222 C   0  0  0  0  0  0  0  0  0  0  0  0
    7.5358    2.8344   24.7044 C   0  0  0  0  0  0  0  0  0  0  0  0
    7.6483    1.4099   24.2367 C   0  0  0  0  0  0  0  0  0  0  0  0
    6.7026    1.1147   23.0541 C   0  0  0  0  0  0  0  0  0  0  0  0
    7.1053   -0.1882   22.4378 C   0  0  0  0  0  0  0  0  0  0  0  0
    7.6284   -1.1418   23.1495 N   0  0  0  0  0  0  0  0  0  0  0  0
    8.0843   -2.0247   22.1958 C   0  0  0  0  0  0  0  0  0  0  0  0
    8.9216   -3.2152   22.5751 C   0  0  0  0  0  0  0  0  0  0  0  0
    8.4905   -4.0846   23.7643 C   0  0  0  0  0  0  0  0  0  0  0  0
    9.8396   -3.8482   24.4356 C   0  0  0  0  0  0  0  0  0  0  0  0
   10.2349   -2.8965   23.3140 C   0  0  0  0  0  0  0  0  0  0  0  0
   10.3224   -1.8569   23.6539 H   0  0  0  0  0  0  0  0  0  0  0  0
   11.1478   -3.1769   22.7754 H   0  0  0  0  0  0  0  0  0  0  0  0
   10.4688   -4.7395   24.4886 H   0  0  0  0  0  0  0  0  0  0  0  0
    9.7848   -3.3924   25.4311 H   0  0  0  0  0  0  0  0  0  0  0  0
    7.6517   -3.6744   24.3300 H   0  0  0  0  0  0  0  0  0  0  0  0
    8.2782   -5.1363   23.5313 H   0  0  0  0  0  0  0  0  0  0  0  0
    9.0508   -3.8203   21.6841 H   0  0  0  0  0  0  0  0  0  0  0  0
    7.8132   -1.6959   20.9526 N   0  0  0  0  0  0  0  0  0  0  0  0
    7.1475   -0.5226   21.0860 N   0  0  0  0  0  0  0  0  0  0  0  0
    6.5777    0.1654   20.0007 C   0  0  0  0  0  0  0  0  0  0  0  0
    5.5181    1.0732   20.1431 C   0  0  0  0  0  0  0  0  0  0  0  0
    4.9693    1.6266   18.9794 C   0  0  0  0  0  0  0  0  0  0  0  0
    5.4937    1.2871   17.7252 C   0  0  0  0  0  0  0  0  0  0  0  0
    6.5344    0.4473   17.5844 N   0  0  0  0  0  0  0  0  0  0  0  0
    7.0562   -0.0955   18.7019 C   0  0  0  0  0  0  0  0  0  0  0  0
    7.9074   -0.7594   18.5992 H   0  0  0  0  0  0  0  0  0  0  0  0
    5.0353    1.7027   16.8325 H   0  0  0  0  0  0  0  0  0  0  0  0
    4.1289    2.3123   19.0298 H   0  0  0  0  0  0  0  0  0  0  0  0
    5.1098    1.3257   21.1220 H   0  0  0  0  0  0  0  0  0  0  0  0
    5.6629    1.0540   23.3856 H   0  0  0  0  0  0  0  0  0  0  0  0
    6.7795    1.8997   22.2968 H   0  0  0  0  0  0  0  0  0  0  0  0
    7.4189    0.7173   25.0565 H   0  0  0  0  0  0  0  0  0  0  0  0
    8.6841    1.2188   23.9358 H   0  0  0  0  0  0  0  0  0  0  0  0
    6.9976    2.2745   26.7221 H   0  0  0  0  0  0  0  0  0  0  0  0
    6.6658    4.6525   27.4167 H   0  0  0  0  0  0  0  0  0  0  0  0
    7.0460    6.4612   25.7840 H   0  0  0  0  0  0  0  0  0  0  0  0
  1  2  1  0
  2  3  2  0
  3  4  1  0
  4  5  2  0
  5  6  1  0
  6  7  2  0
  7  8  1  0
  8  9  1  0
  9 10  1  0
 10 11  2  0
 11 12  1  0
 12 13  1  0
 13 14  1  0
 14 15  1  0
 15 16  1  0
 16 17  1  0
 16 18  1  0
 15 19  1  0
 15 20  1  0
 14 21  1  0
 14 22  1  0
 13 23  1  0
 12 24  2  0
 24 25  1  0
 25 26  1  0
 26 27  2  0
 27 28  1  0
 28 29  2  0
 29 30  1  0
 30 31  2  0
 31 32  1  0
 29 33  1  0
 28 34  1  0
 27 35  1  0
  9 36  1  0
  9 37  1  0
  8 38  1  0
  8 39  1  0
  6 40  1  0
  5 41  1  0
  4 42  1  0
  7  2  1  0
 25 10  1  0
 31 26  1  0
 16 13  1  0
M  END
>  <cnnaffinity>  (1) 
-6.2321

>  <filename>  (1) 
Brc1ncccc1CCc1nc(C2CCC2)nn1-c1cccnc1

$$$$
