
     RDKit          3D

 35 36  0  0  0  0  0  0  0  0999 V2000
    5.4650   -7.9211   28.1602 C   0  0  0  0  0  0  0  0  0  0  0  0
    5.9354   -6.8937   27.7420 C   0  0  0  0  0  0  0  0  0  0  0  0
    6.5711   -5.6276   27.3744 C   0  0  0  0  0  0  0  0  0  0  0  0
    6.5595   -5.2582   25.8850 C   0  0  0  0  0  0  0  0  0  0  0  0
    7.2465   -3.9096   25.6770 C   0  0  0  0  0  0  0  0  0  0  0  0
    7.2984   -3.4046   24.2385 C   0  0  0  0  0  0  0  0  0  0  0  0
    8.0005   -2.0433   24.1579 C   0  0  0  0  0  0  0  0  0  0  0  0
    8.0390   -1.4954   22.8144 N   0  0  0  0  0  0  0  0  0  0  0  0
    8.9468   -1.7464   21.8309 C   0  0  0  0  0  0  0  0  0  0  0  0
    8.5815   -1.2462   20.6771 N   0  0  0  0  0  0  0  0  0  0  0  0
    7.3715   -0.6371   20.9109 C   0  0  0  0  0  0  0  0  0  0  0  0
    6.6380    0.0447   19.8479 C   0  0  0  0  0  0  0  0  0  0  0  0
    5.4151    0.6965   20.0719 C   0  0  0  0  0  0  0  0  0  0  0  0
    4.8089    1.3386   18.9971 C   0  0  0  0  0  0  0  0  0  0  0  0
    5.4375    1.3053   17.7482 C   0  0  0  0  0  0  0  0  0  0  0  0
    6.5962    0.6716   17.5146 N   0  0  0  0  0  0  0  0  0  0  0  0
    7.1764    0.0583   18.5491 C   0  0  0  0  0  0  0  0  0  0  0  0
    8.1157   -0.4566   18.3555 H   0  0  0  0  0  0  0  0  0  0  0  0
    4.9900    1.8046   16.8944 H   0  0  0  0  0  0  0  0  0  0  0  0
    3.8750    1.8705   19.1156 H   0  0  0  0  0  0  0  0  0  0  0  0
    4.9527    0.7028   21.0606 H   0  0  0  0  0  0  0  0  0  0  0  0
    7.0256   -0.7842   22.2212 C   0  0  0  0  0  0  0  0  0  0  0  0
    6.1667   -0.4490   22.7824 H   0  0  0  0  0  0  0  0  0  0  0  0
    9.8589   -2.3001   22.0157 H   0  0  0  0  0  0  0  0  0  0  0  0
    7.4752   -1.3141   24.7864 H   0  0  0  0  0  0  0  0  0  0  0  0
    9.0267   -2.1045   24.5342 H   0  0  0  0  0  0  0  0  0  0  0  0
    6.2829   -3.3085   23.8324 H   0  0  0  0  0  0  0  0  0  0  0  0
    7.8166   -4.1199   23.5890 H   0  0  0  0  0  0  0  0  0  0  0  0
    8.2729   -3.9692   26.0702 H   0  0  0  0  0  0  0  0  0  0  0  0
    6.7349   -3.1500   26.2901 H   0  0  0  0  0  0  0  0  0  0  0  0
    5.5314   -5.2203   25.5039 H   0  0  0  0  0  0  0  0  0  0  0  0
    7.0680   -6.0485   25.3200 H   0  0  0  0  0  0  0  0  0  0  0  0
    6.1037   -4.8283   27.9612 H   0  0  0  0  0  0  0  0  0  0  0  0
    7.6085   -5.6731   27.7267 H   0  0  0  0  0  0  0  0  0  0  0  0
    5.0173   -8.8071   28.5461 H   0  0  0  0  0  0  0  0  0  0  0  0
  1  2  3  0
  2  3  1  0
  3  4  1  0
  4  5  1  0
  5  6  1  0
  6  7  1  0
  7  8  1  0
  8  9  1  0
  9 10  2  0
 10 11  1  0
 11 12  1  0
 12 13  2  0
 13 14  1  0
 14 15  2  0
 15 16  1  0
 16 17  2  0
 17 18  1  0
 15 19  1  0
 14 20  1  0
 13 21  1  0
 11 22  2  0
 22 23  1  0
  9 24  1  0
  7 25  1  0
  7 26  1  0
  6 27  1  0
  6 28  1  0
  5 29  1  0
  5 30  1  0
  4 31  1  0
  4 32  1  0
  3 33  1  0
  3 34  1  0
  1 35  1  0
 22  8  1  0
 17 12  1  0
M  END
>  <cnnaffinity>  (1) 
-4.99917

>  <filename>  (1) 
C#CCCCCCn1cnc(-c2cccnc2)c1

$$$$
