
     RDKit          3D

 26 27  0  0  0  0  0  0  0  0999 V2000
    5.5592   -5.2137   22.4903 H   0  0  0  0  0  0  0  0  0  0  0  0
    5.5539   -4.9811   23.5487 C   0  0  0  0  0  0  0  0  0  0  0  0
    4.9231   -3.8138   23.2930 C   0  0  0  0  0  0  0  0  0  0  0  0
    5.1150   -3.5388   23.5166 C   0  0  0  0  0  0  0  0  0  0  0  0
    6.0506   -2.8614   24.2862 H   0  0  0  0  0  0  0  0  0  0  0  0
    4.0602   -3.4747   24.0066 H   0  0  0  0  0  0  0  0  0  0  0  0
    5.6370   -2.1024   21.1718 O   0  0  0  0  0  0  0  0  0  0  0  0
    6.7450   -1.7401   21.5595 C   0  0  0  0  0  0  0  0  0  0  0  0
    7.5781   -2.1714   22.4940 N   0  0  0  0  0  0  0  0  0  0  0  0
    8.8036   -1.4020   22.4221 C   0  0  0  0  0  0  0  0  0  0  0  0
    8.8194   -0.6775   23.2536 H   0  0  0  0  0  0  0  0  0  0  0  0
    9.6927   -2.0367   22.5408 H   0  0  0  0  0  0  0  0  0  0  0  0
    8.7974   -0.6490   21.0823 C   0  0  0  0  0  0  0  0  0  0  0  0
    9.3802   -1.1680   20.3003 H   0  0  0  0  0  0  0  0  0  0  0  0
    9.2206    0.3645   21.1648 H   0  0  0  0  0  0  0  0  0  0  0  0
    7.3936   -0.6372   20.8158 N   0  0  0  0  0  0  0  0  0  0  0  0
    6.7902    0.0689   19.7622 C   0  0  0  0  0  0  0  0  0  0  0  0
    7.3252    0.1553   18.4473 C   0  0  0  0  0  0  0  0  0  0  0  0
    8.2896   -0.3013   18.2219 H   0  0  0  0  0  0  0  0  0  0  0  0
    6.7092    0.7595   17.4191 N   0  0  0  0  0  0  0  0  0  0  0  0
    5.5414    1.3765   17.6705 C   0  0  0  0  0  0  0  0  0  0  0  0
    5.0502    1.8431   16.8177 H   0  0  0  0  0  0  0  0  0  0  0  0
    4.9650    1.4283   18.9463 C   0  0  0  0  0  0  0  0  0  0  0  0
    4.0492    1.9922   19.0964 H   0  0  0  0  0  0  0  0  0  0  0  0
    5.5852    0.7462   20.0018 C   0  0  0  0  0  0  0  0  0  0  0  0
    5.1634    0.7123   21.0047 H   0  0  0  0  0  0  0  0  0  0  0  0
  1  2  1  0
  2  3  3  0
  3  4  1  0
  4  5  1  0
  4  6  1  0
  4  7  1  0
  7  8  1  0
  8  9  2  0
  9 10  1  0
 10 11  1  0
 10 12  1  0
 10 13  1  0
 13 14  1  0
 13 15  1  0
 13 16  1  0
 16 17  1  0
 17 18  2  0
 18 19  1  0
 18 20  1  0
 20 21  2  0
 21 22  1  0
 21 23  1  0
 23 24  1  0
 23 25  2  0
 25 26  1  0
 16  8  1  0
 25 17  1  0
M  END
>  <cnnaffinity>  (1) 
-4.24284

>  <filename>  (1) 
C#CCOC1=NCCN1c1cccnc1

$$$$
