
     RDKit          3D

 28 30  0  0  0  0  0  0  0  0999 V2000
    7.3554   -5.1974   28.9553 H   0  0  0  0  0  0  0  0  0  0  0  0
    6.6539   -4.5711   28.4046 C   0  0  0  0  0  0  0  0  0  0  0  0
    7.0867   -4.0615   27.2446 N   0  0  0  0  0  0  0  0  0  0  0  0
    6.2430   -3.2609   26.5588 C   0  0  0  0  0  0  0  0  0  0  0  0
    6.7070   -2.7219   25.2809 C   0  0  0  0  0  0  0  0  0  0  0  0
    7.0481   -2.2550   24.2126 C   0  0  0  0  0  0  0  0  0  0  0  0
    7.4693   -1.7099   22.9454 C   0  0  0  0  0  0  0  0  0  0  0  0
    6.6840   -1.1135   22.0979 N   0  0  0  0  0  0  0  0  0  0  0  0
    7.3768   -0.7028   20.9795 C   0  0  0  0  0  0  0  0  0  0  0  0
    6.6555    0.0061   19.9150 C   0  0  0  0  0  0  0  0  0  0  0  0
    7.1767    0.0607   18.6128 C   0  0  0  0  0  0  0  0  0  0  0  0
    8.1202   -0.4320   18.3739 H   0  0  0  0  0  0  0  0  0  0  0  0
    6.5740    0.6736   17.5881 N   0  0  0  0  0  0  0  0  0  0  0  0
    5.4066    1.2889   17.8443 C   0  0  0  0  0  0  0  0  0  0  0  0
    4.9123    1.7719   17.0040 H   0  0  0  0  0  0  0  0  0  0  0  0
    4.8059    1.3119   19.1097 C   0  0  0  0  0  0  0  0  0  0  0  0
    3.8709    1.8455   19.2659 H   0  0  0  0  0  0  0  0  0  0  0  0
    5.4355    0.6549   20.1608 C   0  0  0  0  0  0  0  0  0  0  0  0
    5.0065    0.6277   21.1607 H   0  0  0  0  0  0  0  0  0  0  0  0
    8.7120   -0.9842   20.9804 C   0  0  0  0  0  0  0  0  0  0  0  0
    9.4428   -0.7228   20.2270 H   0  0  0  0  0  0  0  0  0  0  0  0
    9.1420   -1.7993   22.4288 S   0  0  0  0  0  0  0  0  0  0  0  0
    4.9511   -2.9386   27.0259 C   0  0  0  0  0  0  0  0  0  0  0  0
    4.3010   -2.2926   26.4435 H   0  0  0  0  0  0  0  0  0  0  0  0
    4.5310   -3.4639   28.2465 C   0  0  0  0  0  0  0  0  0  0  0  0
    3.5425   -3.2341   28.6363 H   0  0  0  0  0  0  0  0  0  0  0  0
    5.3994   -4.2941   28.9566 C   0  0  0  0  0  0  0  0  0  0  0  0
    5.1086   -4.7148   29.9145 H   0  0  0  0  0  0  0  0  0  0  0  0
  1  2  1  0
  2  3  2  0
  3  4  1  0
  4  5  1  0
  5  6  3  0
  6  7  1  0
  7  8  2  0
  8  9  1  0
  9 10  1  0
 10 11  2  0
 11 12  1  0
 11 13  1  0
 13 14  2  0
 14 15  1  0
 14 16  1  0
 16 17  1  0
 16 18  2  0
 18 19  1  0
  9 20  2  0
 20 21  1  0
 20 22  1  0
  4 23  2  0
 23 24  1  0
 23 25  1  0
 25 26  1  0
 25 27  2  0
 27 28  1  0
 27  2  1  0
 22  7  1  0
 18 10  1  0
M  END
>  <cnnaffinity>  (1) 
-5.08491

>  <filename>  (1) 
C(#Cc1nc(-c2cccnc2)cs1)c1ccccn1

$$$$
