
     RDKit          3D

 23 24  0  0  0  0  0  0  0  0999 V2000
    4.9106    1.7761   17.0005 H   0  0  0  0  0  0  0  0  0  0  0  0
    5.4007    1.2933   17.8403 C   0  0  0  0  0  0  0  0  0  0  0  0
    6.5674    0.6819   17.5701 N   0  0  0  0  0  0  0  0  0  0  0  0
    7.1775    0.0646   18.5879 C   0  0  0  0  0  0  0  0  0  0  0  0
    8.1242   -0.4290   18.3729 H   0  0  0  0  0  0  0  0  0  0  0  0
    6.6577    0.0100   19.8992 C   0  0  0  0  0  0  0  0  0  0  0  0
    7.3535   -0.6762   20.9383 C   0  0  0  0  0  0  0  0  0  0  0  0
    7.9591   -1.2343   21.8150 C   0  0  0  0  0  0  0  0  0  0  0  0
    8.6375   -1.9773   22.8691 C   0  0  0  0  0  0  0  0  0  0  0  0
    8.5092   -1.4317   23.8091 H   0  0  0  0  0  0  0  0  0  0  0  0
    9.7039   -2.0205   22.6410 H   0  0  0  0  0  0  0  0  0  0  0  0
    8.0788   -3.3604   23.0188 C   0  0  0  0  0  0  0  0  0  0  0  0
    8.5363   -4.4433   22.3118 N   0  0  0  0  0  0  0  0  0  0  0  0
    7.7669   -5.4443   22.6530 C   0  0  0  0  0  0  0  0  0  0  0  0
    7.8561   -6.4614   22.2841 H   0  0  0  0  0  0  0  0  0  0  0  0
    6.8185   -5.0554   23.5475 N   0  0  0  0  0  0  0  0  0  0  0  0
    6.1161   -5.6416   23.9571 H   0  0  0  0  0  0  0  0  0  0  0  0
    7.0113   -3.7167   23.7887 C   0  0  0  0  0  0  0  0  0  0  0  0
    6.3939   -3.1135   24.4393 H   0  0  0  0  0  0  0  0  0  0  0  0
    5.4368    0.6552   20.1583 C   0  0  0  0  0  0  0  0  0  0  0  0
    5.0088    0.6302   21.1610 H   0  0  0  0  0  0  0  0  0  0  0  0
    4.8008    1.3138   19.1064 C   0  0  0  0  0  0  0  0  0  0  0  0
    3.8669    1.8482   19.2624 H   0  0  0  0  0  0  0  0  0  0  0  0
  1  2  1  0
  2  3  2  0
  3  4  1  0
  4  5  1  0
  4  6  2  0
  6  7  1  0
  7  8  3  0
  8  9  1  0
  9 10  1  0
  9 11  1  0
  9 12  1  0
 12 13  1  0
 13 14  2  0
 14 15  1  0
 14 16  1  0
 16 17  1  0
 16 18  1  0
 18 19  1  0
  6 20  1  0
 20 21  1  0
 20 22  2  0
 22 23  1  0
 22  2  1  0
 18 12  2  0
M  END
>  <cnnaffinity>  (1) 
-4.74609

>  <filename>  (1) 
C(#Cc1cccnc1)Cc1c[nH]cn1

$$$$
