
     RDKit          3D

 28 30  0  0  0  0  0  0  0  0999 V2000
    1.6854    1.8338   24.2264 H   0  0  0  0  0  0  0  0  0  0  0  0
    2.5780    1.9841   24.8297 C   0  0  0  0  0  0  0  0  0  0  0  0
    3.7282    1.9882   24.1557 N   0  0  0  0  0  0  0  0  0  0  0  0
    4.8785    2.1127   24.8406 C   0  0  0  0  0  0  0  0  0  0  0  0
    6.0792    1.9255   24.0437 C   0  0  0  0  0  0  0  0  0  0  0  0
    7.0212    1.6615   23.3385 C   0  0  0  0  0  0  0  0  0  0  0  0
    8.1450    1.5598   22.5493 N   0  0  0  0  0  0  0  0  0  0  0  0
    9.1400    2.5039   22.5175 N   0  0  0  0  0  0  0  0  0  0  0  0
   10.0250    2.0563   21.7211 N   0  0  0  0  0  0  0  0  0  0  0  0
    9.6915    0.8493   21.2026 N   0  0  0  0  0  0  0  0  0  0  0  0
    8.5204    0.5582   21.7157 C   0  0  0  0  0  0  0  0  0  0  0  0
    7.5348   -0.8156   21.2014 S   0  0  0  0  0  0  0  0  0  0  0  0
    6.6291   -0.0040   19.8816 C   0  0  0  0  0  0  0  0  0  0  0  0
    7.1439    0.0334   18.5688 C   0  0  0  0  0  0  0  0  0  0  0  0
    8.0936   -0.4550   18.3396 H   0  0  0  0  0  0  0  0  0  0  0  0
    6.5386    0.6645   17.5566 N   0  0  0  0  0  0  0  0  0  0  0  0
    5.3840    1.2989   17.8137 C   0  0  0  0  0  0  0  0  0  0  0  0
    4.9258    1.8230   16.9747 H   0  0  0  0  0  0  0  0  0  0  0  0
    4.7882    1.3104   19.0767 C   0  0  0  0  0  0  0  0  0  0  0  0
    3.8615    1.8488   19.2247 H   0  0  0  0  0  0  0  0  0  0  0  0
    5.4133    0.6426   20.1325 C   0  0  0  0  0  0  0  0  0  0  0  0
    4.9727    0.6287   21.1312 H   0  0  0  0  0  0  0  0  0  0  0  0
    4.9021    2.3340   26.2306 C   0  0  0  0  0  0  0  0  0  0  0  0
    5.8450    2.4370   26.7563 H   0  0  0  0  0  0  0  0  0  0  0  0
    3.6810    2.3651   26.9138 C   0  0  0  0  0  0  0  0  0  0  0  0
    3.6487    2.5192   27.9894 H   0  0  0  0  0  0  0  0  0  0  0  0
    2.4919    2.1443   26.2121 C   0  0  0  0  0  0  0  0  0  0  0  0
    1.5210    2.0776   26.6995 H   0  0  0  0  0  0  0  0  0  0  0  0
  1  2  1  0
  2  3  2  0
  3  4  1  0
  4  5  1  0
  5  6  3  0
  6  7  1  0
  7  8  1  0
  8  9  2  0
  9 10  1  0
 10 11  2  0
 11 12  1  0
 12 13  1  0
 13 14  2  0
 14 15  1  0
 14 16  1  0
 16 17  2  0
 17 18  1  0
 17 19  1  0
 19 20  1  0
 19 21  2  0
 21 22  1  0
  4 23  2  0
 23 24  1  0
 23 25  1  0
 25 26  1  0
 25 27  2  0
 27 28  1  0
 27  2  1  0
 11  7  1  0
 21 13  1  0
M  END
>  <cnnaffinity>  (1) 
-4.73188

>  <filename>  (1) 
C(#Cn1nnnc1Sc1cccnc1)c1ccccn1

$$$$
