
     RDKit          3D

 39 41  0  0  0  0  0  0  0  0999 V2000
    3.6258   -7.7863   25.8337 H   0  0  0  0  0  0  0  0  0  0  0  0
    3.7106   -7.3527   24.8339 C   0  0  0  0  0  0  0  0  0  0  0  0
    4.6471   -6.4072   24.6847 N   0  0  0  0  0  0  0  0  0  0  0  0
    4.7812   -5.8471   23.4667 C   0  0  0  0  0  0  0  0  0  0  0  0
    5.7386   -4.7755   23.3302 C   0  0  0  0  0  0  0  0  0  0  0  0
    6.4860   -3.8383   23.1840 C   0  0  0  0  0  0  0  0  0  0  0  0
    7.3413   -2.8233   23.0818 N   0  0  0  0  0  0  0  0  0  0  0  0
    8.3065   -2.7523   22.0019 C   0  0  0  0  0  0  0  0  0  0  0  0
    9.2366   -2.3245   22.4000 H   0  0  0  0  0  0  0  0  0  0  0  0
    8.5182   -3.7674   21.6534 H   0  0  0  0  0  0  0  0  0  0  0  0
    7.9057   -1.9204   20.7644 C   0  0  0  0  0  0  0  0  0  0  0  0
    7.0868   -2.4413   20.2486 H   0  0  0  0  0  0  0  0  0  0  0  0
    8.7825   -1.9371   20.0956 H   0  0  0  0  0  0  0  0  0  0  0  0
    7.4810   -0.5406   20.9738 N   0  0  0  0  0  0  0  0  0  0  0  0
    6.7515    0.0763   19.9223 C   0  0  0  0  0  0  0  0  0  0  0  0
    7.1845    0.0524   18.5655 C   0  0  0  0  0  0  0  0  0  0  0  0
    8.0933   -0.4856   18.3038 H   0  0  0  0  0  0  0  0  0  0  0  0
    6.5571    0.6470   17.5365 N   0  0  0  0  0  0  0  0  0  0  0  0
    5.4095    1.2927   17.7970 C   0  0  0  0  0  0  0  0  0  0  0  0
    4.9183    1.7830   16.9550 H   0  0  0  0  0  0  0  0  0  0  0  0
    4.8441    1.3373   19.0751 C   0  0  0  0  0  0  0  0  0  0  0  0
    3.8962    1.8444   19.2245 H   0  0  0  0  0  0  0  0  0  0  0  0
    5.5226    0.7343   20.1465 C   0  0  0  0  0  0  0  0  0  0  0  0
    5.1059    0.7441   21.1506 H   0  0  0  0  0  0  0  0  0  0  0  0
    7.7868    0.1362   22.2298 C   0  0  0  0  0  0  0  0  0  0  0  0
    8.8693    0.0711   22.4380 H   0  0  0  0  0  0  0  0  0  0  0  0
    7.5605    1.2003   22.0914 H   0  0  0  0  0  0  0  0  0  0  0  0
    7.0038   -0.3658   23.4449 C   0  0  0  0  0  0  0  0  0  0  0  0
    7.0936    0.3808   24.2415 H   0  0  0  0  0  0  0  0  0  0  0  0
    5.9571   -0.3807   23.1536 H   0  0  0  0  0  0  0  0  0  0  0  0
    7.3642   -1.7326   24.0373 C   0  0  0  0  0  0  0  0  0  0  0  0
    8.3702   -1.6937   24.4896 H   0  0  0  0  0  0  0  0  0  0  0  0
    6.6620   -1.9591   24.8478 H   0  0  0  0  0  0  0  0  0  0  0  0
    4.0026   -6.2444   22.3614 C   0  0  0  0  0  0  0  0  0  0  0  0
    4.1872   -5.7917   21.3961 H   0  0  0  0  0  0  0  0  0  0  0  0
    3.0192   -7.2193   22.5336 C   0  0  0  0  0  0  0  0  0  0  0  0
    2.3970   -7.5466   21.6957 H   0  0  0  0  0  0  0  0  0  0  0  0
    2.8705   -7.7843   23.8023 C   0  0  0  0  0  0  0  0  0  0  0  0
    2.1072   -8.5344   23.9974 H   0  0  0  0  0  0  0  0  0  0  0  0
  1  2  1  0
  2  3  2  0
  3  4  1  0
  4  5  1  0
  5  6  3  0
  6  7  1  0
  7  8  1  0
  8  9  1  0
  8 10  1  0
  8 11  1  0
 11 12  1  0
 11 13  1  0
 11 14  1  0
 14 15  1  0
 15 16  2  0
 16 17  1  0
 16 18  1  0
 18 19  2  0
 19 20  1  0
 19 21  1  0
 21 22  1  0
 21 23  2  0
 23 24  1  0
 14 25  1  0
 25 26  1  0
 25 27  1  0
 25 28  1  0
 28 29  1  0
 28 30  1  0
 28 31  1  0
 31 32  1  0
 31 33  1  0
  4 34  2  0
 34 35  1  0
 34 36  1  0
 36 37  1  0
 36 38  2  0
 38 39  1  0
 38  2  1  0
 31  7  1  0
 23 15  1  0
M  END
>  <cnnaffinity>  (1) 
-4.91671

>  <filename>  (1) 
C(#CN1CCCN(c2cccnc2)CC1)c1ccccn1

$$$$
