
     RDKit          3D

 30 33  0  0  0  0  0  0  0  0999 V2000
    3.8716    5.0261   28.0296 H   0  0  0  0  0  0  0  0  0  0  0  0
    4.5017    4.1749   28.2707 C   0  0  0  0  0  0  0  0  0  0  0  0
    4.9328    3.4544   27.2298 N   0  0  0  0  0  0  0  0  0  0  0  0
    5.7173    2.3919   27.4952 C   0  0  0  0  0  0  0  0  0  0  0  0
    6.1841    1.6099   26.3638 C   0  0  0  0  0  0  0  0  0  0  0  0
    6.5804    0.9410   25.4353 C   0  0  0  0  0  0  0  0  0  0  0  0
    7.0517    0.1672   24.3257 C   0  0  0  0  0  0  0  0  0  0  0  0
    6.6273    0.3591   23.1151 N   0  0  0  0  0  0  0  0  0  0  0  0
    7.2715   -0.5121   22.2809 N   0  0  0  0  0  0  0  0  0  0  0  0
    7.4047   -0.7040   20.9147 C   0  0  0  0  0  0  0  0  0  0  0  0
    6.6472    0.0088   19.8901 C   0  0  0  0  0  0  0  0  0  0  0  0
    7.1733    0.0564   18.5883 C   0  0  0  0  0  0  0  0  0  0  0  0
    8.1227   -0.4335   18.3724 H   0  0  0  0  0  0  0  0  0  0  0  0
    6.5697    0.6775   17.5740 N   0  0  0  0  0  0  0  0  0  0  0  0
    5.4049    1.2905   17.8405 C   0  0  0  0  0  0  0  0  0  0  0  0
    4.9186    1.7773   16.9998 H   0  0  0  0  0  0  0  0  0  0  0  0
    4.8044    1.3081   19.1060 C   0  0  0  0  0  0  0  0  0  0  0  0
    3.8742    1.8437   19.2602 H   0  0  0  0  0  0  0  0  0  0  0  0
    5.4312    0.6509   20.1593 C   0  0  0  0  0  0  0  0  0  0  0  0
    5.0057    0.6378   21.1661 H   0  0  0  0  0  0  0  0  0  0  0  0
    8.3265   -1.6075   20.6998 N   0  0  0  0  0  0  0  0  0  0  0  0
    8.8253   -2.0404   21.9079 N   0  0  0  0  0  0  0  0  0  0  0  0
    8.1977   -1.3503   22.8234 C   0  0  0  0  0  0  0  0  0  0  0  0
    8.2677   -1.0979   24.5463 S   0  0  0  0  0  0  0  0  0  0  0  0
    6.0874    2.0260   28.8043 C   0  0  0  0  0  0  0  0  0  0  0  0
    6.7202    1.1610   28.9671 H   0  0  0  0  0  0  0  0  0  0  0  0
    5.6274    2.7896   29.8774 C   0  0  0  0  0  0  0  0  0  0  0  0
    5.8936    2.5327   30.9033 H   0  0  0  0  0  0  0  0  0  0  0  0
    4.8146    3.8919   29.6055 C   0  0  0  0  0  0  0  0  0  0  0  0
    4.4292    4.5190   30.4027 H   0  0  0  0  0  0  0  0  0  0  0  0
  1  2  1  0
  2  3  2  0
  3  4  1  0
  4  5  1  0
  5  6  3  0
  6  7  1  0
  7  8  2  0
  8  9  1  0
  9 10  1  0
 10 11  1  0
 11 12  2  0
 12 13  1  0
 12 14  1  0
 14 15  2  0
 15 16  1  0
 15 17  1  0
 17 18  1  0
 17 19  2  0
 19 20  1  0
 10 21  2  0
 21 22  1  0
 22 23  2  0
 23 24  1  0
  4 25  2  0
 25 26  1  0
 25 27  1  0
 27 28  1  0
 27 29  2  0
 29 30  1  0
 29  2  1  0
 24  7  1  0
 23  9  1  0
 19 11  1  0
M  END
>  <cnnaffinity>  (1) 
-5.42718

>  <filename>  (1) 
C(#Cc1nn2c(-c3cccnc3)nnc2s1)c1ccccn1

$$$$
