
     RDKit          3D

 37 40  0  0  0  0  0  0  0  0999 V2000
    6.5257   -1.2425   21.7674 H   0  0  0  0  0  0  0  0  0  0  0  0
    7.1715   -0.6404   21.1212 C   0  0  0  0  0  0  0  0  0  0  0  0
    8.4438   -0.4236   21.5028 C   0  0  0  0  0  0  0  0  0  0  0  0
    9.1570   -0.9959   22.6845 C   0  0  0  0  0  0  0  0  0  0  0  0
    8.6272   -2.0931   23.5830 C   0  0  0  0  0  0  0  0  0  0  0  0
    8.6234   -1.9131   24.9558 C   0  0  0  0  0  0  0  0  0  0  0  0
    9.0762   -1.0193   25.3785 H   0  0  0  0  0  0  0  0  0  0  0  0
    8.0569   -2.8789   25.8311 C   0  0  0  0  0  0  0  0  0  0  0  0
    8.0630   -2.6997   26.9064 H   0  0  0  0  0  0  0  0  0  0  0  0
    7.5322   -4.0469   25.3249 C   0  0  0  0  0  0  0  0  0  0  0  0
    7.0898   -4.8226   25.9417 H   0  0  0  0  0  0  0  0  0  0  0  0
    7.6358   -4.3418   23.9352 C   0  0  0  0  0  0  0  0  0  0  0  0
    7.2381   -5.5921   23.5245 N   0  0  0  0  0  0  0  0  0  0  0  0
    7.4555   -5.9246   22.2762 C   0  0  0  0  0  0  0  0  0  0  0  0
    7.1746   -6.9392   21.9804 H   0  0  0  0  0  0  0  0  0  0  0  0
    8.0425   -5.0561   21.3145 C   0  0  0  0  0  0  0  0  0  0  0  0
    8.2473   -5.4214   20.3213 H   0  0  0  0  0  0  0  0  0  0  0  0
    8.3958   -3.7781   21.6863 C   0  0  0  0  0  0  0  0  0  0  0  0
    8.8554   -3.0808   20.9827 H   0  0  0  0  0  0  0  0  0  0  0  0
    8.2021   -3.3689   23.0445 C   0  0  0  0  0  0  0  0  0  0  0  0
   10.3105   -0.4709   22.8856 N   0  0  0  0  0  0  0  0  0  0  0  0
   10.6384    0.4695   21.8059 C   0  0  0  0  0  0  0  0  0  0  0  0
   10.9097    1.4294   22.2592 H   0  0  0  0  0  0  0  0  0  0  0  0
   11.5261    0.0939   21.2812 H   0  0  0  0  0  0  0  0  0  0  0  0
    9.4028    0.5689   20.8696 C   0  0  0  0  0  0  0  0  0  0  0  0
    9.6312    0.2821   19.8384 H   0  0  0  0  0  0  0  0  0  0  0  0
    8.9839    1.5823   20.8439 H   0  0  0  0  0  0  0  0  0  0  0  0
    6.5113   -0.0533   19.9340 C   0  0  0  0  0  0  0  0  0  0  0  0
    7.0962   -0.0247   18.6496 C   0  0  0  0  0  0  0  0  0  0  0  0
    8.0033   -0.5992   18.4563 H   0  0  0  0  0  0  0  0  0  0  0  0
    6.5930    0.6466   17.6042 N   0  0  0  0  0  0  0  0  0  0  0  0
    5.4398    1.3060   17.7935 C   0  0  0  0  0  0  0  0  0  0  0  0
    5.0595    1.8629   16.9389 H   0  0  0  0  0  0  0  0  0  0  0  0
    4.7232    1.2739   18.9960 C   0  0  0  0  0  0  0  0  0  0  0  0
    3.7827    1.8089   19.0781 H   0  0  0  0  0  0  0  0  0  0  0  0
    5.2534    0.5591   20.0697 C   0  0  0  0  0  0  0  0  0  0  0  0
    4.7332    0.4979   21.0256 H   0  0  0  0  0  0  0  0  0  0  0  0
  1  2  1  0
  2  3  2  3
  3  4  1  0
  4  5  1  0
  5  6  2  0
  6  7  1  0
  6  8  1  0
  8  9  1  0
  8 10  2  0
 10 11  1  0
 10 12  1  0
 12 13  2  0
 13 14  1  0
 14 15  1  0
 14 16  2  0
 16 17  1  0
 16 18  1  0
 18 19  1  0
 18 20  2  0
  4 21  2  0
 21 22  1  0
 22 23  1  0
 22 24  1  0
 22 25  1  0
 25 26  1  0
 25 27  1  0
  2 28  1  0
 28 29  2  0
 29 30  1  0
 29 31  1  0
 31 32  2  0
 32 33  1  0
 32 34  1  0
 34 35  1  0
 34 36  2  0
 36 37  1  0
 25  3  1  0
 36 28  1  0
 20  5  1  0
 20 12  1  0
M  END
>  <cnnaffinity>  (1) 
-5.67574

>  <filename>  (1) 
C(=C1CCN=C1c1cccc2ncccc12)c1cccnc1

$$$$
