
     RDKit          3D

 30 32  0  0  0  0  0  0  0  0999 V2000
    9.3749    0.9203   20.1315 H   0  0  0  0  0  0  0  0  0  0  0  0
    9.6891    0.0868   20.7589 C   0  0  0  0  0  0  0  0  0  0  0  0
    8.7695   -0.7770   21.2191 C   0  0  0  0  0  0  0  0  0  0  0  0
    7.3075   -0.7815   20.9783 C   0  0  0  0  0  0  0  0  0  0  0  0
    6.6271   -0.0067   19.9098 C   0  0  0  0  0  0  0  0  0  0  0  0
    7.1681    0.0395   18.6205 C   0  0  0  0  0  0  0  0  0  0  0  0
    8.1251   -0.4447   18.4123 H   0  0  0  0  0  0  0  0  0  0  0  0
    6.5854    0.6648   17.5911 N   0  0  0  0  0  0  0  0  0  0  0  0
    5.4260    1.2980   17.8280 C   0  0  0  0  0  0  0  0  0  0  0  0
    4.9670    1.8002   16.9795 H   0  0  0  0  0  0  0  0  0  0  0  0
    4.8001    1.3215   19.0809 C   0  0  0  0  0  0  0  0  0  0  0  0
    3.8688    1.8712   19.2093 H   0  0  0  0  0  0  0  0  0  0  0  0
    5.4070    0.6489   20.1383 C   0  0  0  0  0  0  0  0  0  0  0  0
    4.9569    0.6379   21.1321 H   0  0  0  0  0  0  0  0  0  0  0  0
    6.6515   -1.5168   21.7956 N   0  0  0  0  0  0  0  0  0  0  0  0
    7.5693   -2.1338   22.7559 C   0  0  0  0  0  0  0  0  0  0  0  0
    7.3907   -3.2107   22.7921 H   0  0  0  0  0  0  0  0  0  0  0  0
    7.3442   -1.7313   23.7487 H   0  0  0  0  0  0  0  0  0  0  0  0
    9.0065   -1.7834   22.3208 C   0  0  0  0  0  0  0  0  0  0  0  0
    9.5925   -1.3377   23.1308 H   0  0  0  0  0  0  0  0  0  0  0  0
    9.5381   -2.6602   21.9360 H   0  0  0  0  0  0  0  0  0  0  0  0
   11.1068    0.1057   21.1874 C   0  0  0  0  0  0  0  0  0  0  0  0
   11.9061   -1.0577   21.3095 C   0  0  0  0  0  0  0  0  0  0  0  0
   11.5916   -2.0146   20.9003 H   0  0  0  0  0  0  0  0  0  0  0  0
   13.1268   -1.0480   21.8582 N   0  0  0  0  0  0  0  0  0  0  0  0
   13.6360    0.0934   22.3310 N   0  0  0  0  0  0  0  0  0  0  0  0
   12.9678    1.2467   22.1751 C   0  0  0  0  0  0  0  0  0  0  0  0
   13.4533    2.1321   22.5914 H   0  0  0  0  0  0  0  0  0  0  0  0
   11.7216    1.3080   21.5400 C   0  0  0  0  0  0  0  0  0  0  0  0
   11.2112    2.2582   21.3855 H   0  0  0  0  0  0  0  0  0  0  0  0
  1  2  1  0
  2  3  2  3
  3  4  1  0
  4  5  1  0
  5  6  2  0
  6  7  1  0
  6  8  1  0
  8  9  2  0
  9 10  1  0
  9 11  1  0
 11 12  1  0
 11 13  2  0
 13 14  1  0
  4 15  2  0
 15 16  1  0
 16 17  1  0
 16 18  1  0
 16 19  1  0
 19 20  1  0
 19 21  1  0
  2 22  1  0
 22 23  2  0
 23 24  1  0
 23 25  1  0
 25 26  2  0
 26 27  1  0
 27 28  1  0
 27 29  2  0
 29 30  1  0
 19  3  1  0
 29 22  1  0
 13  5  1  0
M  END
>  <cnnaffinity>  (1) 
-5.77725

>  <filename>  (1) 
C(=C1CCN=C1c1cccnc1)c1ccnnc1

$$$$
