
     RDKit          3D

 45 48  0  0  0  0  0  0  0  0999 V2000
    5.2301   -2.3497   21.2122 H   0  0  0  0  0  0  0  0  0  0  0  0
    5.9771   -2.4688   22.0023 C   0  0  0  0  0  0  0  0  0  0  0  0
    7.0918   -1.7216   22.0228 C   0  0  0  0  0  0  0  0  0  0  0  0
    7.5332   -0.7547   21.0083 C   0  0  0  0  0  0  0  0  0  0  0  0
    6.6817   -0.1043   19.9865 C   0  0  0  0  0  0  0  0  0  0  0  0
    7.2417   -0.0215   18.7037 C   0  0  0  0  0  0  0  0  0  0  0  0
    8.2077   -0.4848   18.5177 H   0  0  0  0  0  0  0  0  0  0  0  0
    6.6617    0.5922   17.6722 N   0  0  0  0  0  0  0  0  0  0  0  0
    5.4889    1.1991   17.9053 C   0  0  0  0  0  0  0  0  0  0  0  0
    5.0458    1.7099   17.0523 H   0  0  0  0  0  0  0  0  0  0  0  0
    4.8571    1.2093   19.1542 C   0  0  0  0  0  0  0  0  0  0  0  0
    3.9286    1.7555   19.2702 H   0  0  0  0  0  0  0  0  0  0  0  0
    5.4568    0.5347   20.2224 C   0  0  0  0  0  0  0  0  0  0  0  0
    4.9984    0.5383   21.2141 H   0  0  0  0  0  0  0  0  0  0  0  0
    8.7919   -0.4967   21.0449 N   0  0  0  0  0  0  0  0  0  0  0  0
    9.4076   -1.2230   22.1517 C   0  0  0  0  0  0  0  0  0  0  0  0
   10.0211   -0.5378   22.7434 H   0  0  0  0  0  0  0  0  0  0  0  0
   10.0620   -1.9870   21.7176 H   0  0  0  0  0  0  0  0  0  0  0  0
    8.2675   -1.8554   22.9836 C   0  0  0  0  0  0  0  0  0  0  0  0
    8.4707   -2.8893   23.2831 H   0  0  0  0  0  0  0  0  0  0  0  0
    8.1112   -1.2587   23.8913 H   0  0  0  0  0  0  0  0  0  0  0  0
    5.6981   -3.4084   23.0117 N   0  0  0  0  0  0  0  0  0  0  0  0
    4.7557   -4.5010   22.7300 C   0  0  0  0  0  0  0  0  0  0  0  0
    4.9178   -4.9053   21.7253 H   0  0  0  0  0  0  0  0  0  0  0  0
    3.7146   -4.1447   22.7812 H   0  0  0  0  0  0  0  0  0  0  0  0
    4.9032   -5.6130   23.7795 C   0  0  0  0  0  0  0  0  0  0  0  0
    4.1902   -6.4139   23.5720 H   0  0  0  0  0  0  0  0  0  0  0  0
    5.9159   -6.0382   23.6982 H   0  0  0  0  0  0  0  0  0  0  0  0
    4.6745   -5.0870   25.1346 N   0  0  0  0  0  0  0  0  0  0  0  0
    4.1232   -5.8890   26.1179 C   0  0  0  0  0  0  0  0  0  0  0  0
    3.1001   -6.6759   25.7444 N   0  0  0  0  0  0  0  0  0  0  0  0
    2.5286   -7.4235   26.6934 C   0  0  0  0  0  0  0  0  0  0  0  0
    1.6889   -8.0362   26.3628 H   0  0  0  0  0  0  0  0  0  0  0  0
    2.9547   -7.4786   28.0194 C   0  0  0  0  0  0  0  0  0  0  0  0
    2.4611   -8.1332   28.7272 H   0  0  0  0  0  0  0  0  0  0  0  0
    4.0399   -6.6779   28.3949 C   0  0  0  0  0  0  0  0  0  0  0  0
    4.4281   -6.6954   29.4124 H   0  0  0  0  0  0  0  0  0  0  0  0
    4.6204   -5.8565   27.4387 C   0  0  0  0  0  0  0  0  0  0  0  0
    5.4648   -5.2175   27.6595 H   0  0  0  0  0  0  0  0  0  0  0  0
    5.5055   -3.9060   25.4338 C   0  0  0  0  0  0  0  0  0  0  0  0
    6.5715   -4.1731   25.5234 H   0  0  0  0  0  0  0  0  0  0  0  0
    5.1852   -3.4478   26.3756 H   0  0  0  0  0  0  0  0  0  0  0  0
    5.3490   -2.8462   24.3352 C   0  0  0  0  0  0  0  0  0  0  0  0
    5.9637   -1.9634   24.5414 H   0  0  0  0  0  0  0  0  0  0  0  0
    4.2872   -2.5375   24.3612 H   0  0  0  0  0  0  0  0  0  0  0  0
  1  2  1  0
  2  3  2  3
  3  4  1  0
  4  5  1  0
  5  6  2  0
  6  7  1  0
  6  8  1  0
  8  9  2  0
  9 10  1  0
  9 11  1  0
 11 12  1  0
 11 13  2  0
 13 14  1  0
  4 15  2  0
 15 16  1  0
 16 17  1  0
 16 18  1  0
 16 19  1  0
 19 20  1  0
 19 21  1  0
  2 22  1  0
 22 23  1  0
 23 24  1  0
 23 25  1  0
 23 26  1  0
 26 27  1  0
 26 28  1  0
 26 29  1  0
 29 30  1  0
 30 31  2  0
 31 32  1  0
 32 33  1  0
 32 34  2  0
 34 35  1  0
 34 36  1  0
 36 37  1  0
 36 38  2  0
 38 39  1  0
 29 40  1  0
 40 41  1  0
 40 42  1  0
 40 43  1  0
 43 44  1  0
 43 45  1  0
 19  3  1  0
 43 22  1  0
 13  5  1  0
 38 30  1  0
M  END
>  <cnnaffinity>  (1) 
-5.165

>  <filename>  (1) 
C(=C1CCN=C1c1cccnc1)N1CCN(c2ccccn2)CC1

$$$$
