
     RDKit          3D

 39 41  0  0  0  0  0  0  0  0999 V2000
    6.7277   -1.4655   21.5082 H   0  0  0  0  0  0  0  0  0  0  0  0
    7.3271   -0.7106   20.9908 C   0  0  0  0  0  0  0  0  0  0  0  0
    8.5707   -0.4201   21.4026 C   0  0  0  0  0  0  0  0  0  0  0  0
    9.3305   -1.0157   22.5227 C   0  0  0  0  0  0  0  0  0  0  0  0
    8.7854   -2.1565   23.3810 C   0  0  0  0  0  0  0  0  0  0  0  0
    8.0828   -2.7661   22.8029 H   0  0  0  0  0  0  0  0  0  0  0  0
    9.6401   -2.8020   23.6074 H   0  0  0  0  0  0  0  0  0  0  0  0
    8.1447   -1.8065   24.6550 N   0  0  0  0  0  0  0  0  0  0  0  0
    8.9873   -1.0168   25.5798 C   0  0  0  0  0  0  0  0  0  0  0  0
    8.7462   -1.3230   26.6073 H   0  0  0  0  0  0  0  0  0  0  0  0
   10.0309   -1.2806   25.3903 H   0  0  0  0  0  0  0  0  0  0  0  0
    8.8365    0.5307   25.5001 C   0  0  0  0  0  0  0  0  0  0  0  0
    9.3931    0.9957   26.3211 H   0  0  0  0  0  0  0  0  0  0  0  0
    9.2903    0.9019   24.5762 H   0  0  0  0  0  0  0  0  0  0  0  0
    7.4371    0.9975   25.5413 N   0  0  0  0  0  0  0  0  0  0  0  0
    7.0509    0.6905   26.4346 H   0  0  0  0  0  0  0  0  0  0  0  0
    6.6890    0.2965   24.4786 C   0  0  0  0  0  0  0  0  0  0  0  0
    7.0843    0.6362   23.5139 H   0  0  0  0  0  0  0  0  0  0  0  0
    5.6389    0.6040   24.5124 H   0  0  0  0  0  0  0  0  0  0  0  0
    6.7823   -1.2492   24.5742 C   0  0  0  0  0  0  0  0  0  0  0  0
    6.2466   -1.7096   23.7393 H   0  0  0  0  0  0  0  0  0  0  0  0
    6.2474   -1.5530   25.4867 H   0  0  0  0  0  0  0  0  0  0  0  0
   10.4991   -0.5139   22.7019 N   0  0  0  0  0  0  0  0  0  0  0  0
   10.7009    0.5958   21.7595 C   0  0  0  0  0  0  0  0  0  0  0  0
   11.6176    0.3935   21.2027 H   0  0  0  0  0  0  0  0  0  0  0  0
   10.8547    1.5221   22.3273 H   0  0  0  0  0  0  0  0  0  0  0  0
    9.4477    0.6845   20.8487 C   0  0  0  0  0  0  0  0  0  0  0  0
    8.9515    1.6607   20.8932 H   0  0  0  0  0  0  0  0  0  0  0  0
    9.6544    0.4997   19.7948 H   0  0  0  0  0  0  0  0  0  0  0  0
    6.6355   -0.0112   19.8934 C   0  0  0  0  0  0  0  0  0  0  0  0
    7.1574    0.0648   18.5892 C   0  0  0  0  0  0  0  0  0  0  0  0
    8.1043   -0.4263   18.3705 H   0  0  0  0  0  0  0  0  0  0  0  0
    6.5568    0.6880   17.5660 N   0  0  0  0  0  0  0  0  0  0  0  0
    5.3931    1.3032   17.8291 C   0  0  0  0  0  0  0  0  0  0  0  0
    4.9155    1.7932   16.9843 H   0  0  0  0  0  0  0  0  0  0  0  0
    4.7932    1.3164   19.0929 C   0  0  0  0  0  0  0  0  0  0  0  0
    3.8669    1.8511   19.2472 H   0  0  0  0  0  0  0  0  0  0  0  0
    5.4149    0.6353   20.1391 C   0  0  0  0  0  0  0  0  0  0  0  0
    5.0074    0.6246   21.1539 H   0  0  0  0  0  0  0  0  0  0  0  0
  1  2  1  0
  2  3  2  3
  3  4  1  0
  4  5  1  0
  5  6  1  0
  5  7  1  0
  5  8  1  0
  8  9  1  0
  9 10  1  0
  9 11  1  0
  9 12  1  0
 12 13  1  0
 12 14  1  0
 12 15  1  0
 15 16  1  0
 15 17  1  0
 17 18  1  0
 17 19  1  0
 17 20  1  0
 20 21  1  0
 20 22  1  0
  4 23  2  0
 23 24  1  0
 24 25  1  0
 24 26  1  0
 24 27  1  0
 27 28  1  0
 27 29  1  0
  2 30  1  0
 30 31  2  0
 31 32  1  0
 31 33  1  0
 33 34  2  0
 34 35  1  0
 34 36  1  0
 36 37  1  0
 36 38  2  0
 38 39  1  0
 27  3  1  0
 38 30  1  0
 20  8  1  0
M  END
>  <cnnaffinity>  (1) 
-4.83128

>  <filename>  (1) 
C(=C1CCN=C1CN1CCNCC1)c1cccnc1

$$$$
