
     RDKit          3D

 28 30  0  0  0  0  0  0  0  0999 V2000
    5.2944   -2.4377   20.9286 H   0  0  0  0  0  0  0  0  0  0  0  0
    5.8765   -2.4302   21.8471 C   0  0  0  0  0  0  0  0  0  0  0  0
    7.0242   -1.7229   21.9274 C   0  0  0  0  0  0  0  0  0  0  0  0
    7.5274   -0.7073   20.9562 C   0  0  0  0  0  0  0  0  0  0  0  0
    6.7006   -0.0239   19.9291 C   0  0  0  0  0  0  0  0  0  0  0  0
    7.2308    0.0448   18.6319 C   0  0  0  0  0  0  0  0  0  0  0  0
    8.1932   -0.4137   18.4156 H   0  0  0  0  0  0  0  0  0  0  0  0
    6.6256    0.6455   17.6052 N   0  0  0  0  0  0  0  0  0  0  0  0
    5.4566    1.2557   17.8542 C   0  0  0  0  0  0  0  0  0  0  0  0
    4.9832    1.7489   17.0059 H   0  0  0  0  0  0  0  0  0  0  0  0
    4.8465    1.2623   19.1118 C   0  0  0  0  0  0  0  0  0  0  0  0
    3.9170    1.8031   19.2406 H   0  0  0  0  0  0  0  0  0  0  0  0
    5.4705    0.6063   20.1762 C   0  0  0  0  0  0  0  0  0  0  0  0
    5.0299    0.6267   21.1749 H   0  0  0  0  0  0  0  0  0  0  0  0
    8.7821   -0.4629   21.0679 N   0  0  0  0  0  0  0  0  0  0  0  0
    9.3289   -1.2356   22.1925 C   0  0  0  0  0  0  0  0  0  0  0  0
    9.9255   -0.5960   22.8494 H   0  0  0  0  0  0  0  0  0  0  0  0
    9.9978   -2.0114   21.7916 H   0  0  0  0  0  0  0  0  0  0  0  0
    8.1293   -1.8500   22.9567 C   0  0  0  0  0  0  0  0  0  0  0  0
    7.8963   -1.2374   23.8390 H   0  0  0  0  0  0  0  0  0  0  0  0
    8.3175   -2.8739   23.2923 H   0  0  0  0  0  0  0  0  0  0  0  0
    5.3122   -3.2082   22.9372 C   0  0  0  0  0  0  0  0  0  0  0  0
    4.2180   -3.9790   22.6331 O   0  0  0  0  0  0  0  0  0  0  0  0
    3.8266   -4.5038   23.8090 C   0  0  0  0  0  0  0  0  0  0  0  0
    2.9484   -5.1386   23.7691 H   0  0  0  0  0  0  0  0  0  0  0  0
    4.5406   -4.1599   24.8259 N   0  0  0  0  0  0  0  0  0  0  0  0
    5.5101   -3.3312   24.2808 C   0  0  0  0  0  0  0  0  0  0  0  0
    6.2630   -2.8565   24.8954 H   0  0  0  0  0  0  0  0  0  0  0  0
  1  2  1  0
  2  3  2  3
  3  4  1  0
  4  5  1  0
  5  6  2  0
  6  7  1  0
  6  8  1  0
  8  9  2  0
  9 10  1  0
  9 11  1  0
 11 12  1  0
 11 13  2  0
 13 14  1  0
  4 15  2  0
 15 16  1  0
 16 17  1  0
 16 18  1  0
 16 19  1  0
 19 20  1  0
 19 21  1  0
  2 22  1  0
 22 23  1  0
 23 24  1  0
 24 25  1  0
 24 26  2  0
 26 27  1  0
 27 28  1  0
 19  3  1  0
 27 22  2  0
 13  5  1  0
M  END
>  <cnnaffinity>  (1) 
-4.9125

>  <filename>  (1) 
C(=C1CCN=C1c1cccnc1)c1cnco1

$$$$
