
     RDKit          3D

 38 41  0  0  0  0  0  0  0  0999 V2000
    9.3778    0.8641   20.2896 H   0  0  0  0  0  0  0  0  0  0  0  0
    9.6549    0.0358   20.9419 C   0  0  0  0  0  0  0  0  0  0  0  0
    8.7027   -0.8351   21.3456 C   0  0  0  0  0  0  0  0  0  0  0  0
    7.2579   -0.8364   21.0184 C   0  0  0  0  0  0  0  0  0  0  0  0
    6.6347   -0.0372   19.9381 C   0  0  0  0  0  0  0  0  0  0  0  0
    7.2348    0.0163   18.6774 C   0  0  0  0  0  0  0  0  0  0  0  0
    8.1887   -0.4840   18.4969 H   0  0  0  0  0  0  0  0  0  0  0  0
    6.7010    0.6535   17.6277 N   0  0  0  0  0  0  0  0  0  0  0  0
    5.5404    1.2966   17.8191 C   0  0  0  0  0  0  0  0  0  0  0  0
    5.1269    1.8072   16.9504 H   0  0  0  0  0  0  0  0  0  0  0  0
    4.8615    1.3117   19.0419 C   0  0  0  0  0  0  0  0  0  0  0  0
    3.9277    1.8547   19.1308 H   0  0  0  0  0  0  0  0  0  0  0  0
    5.4086    0.6198   20.1200 C   0  0  0  0  0  0  0  0  0  0  0  0
    4.9081    0.5811   21.0886 H   0  0  0  0  0  0  0  0  0  0  0  0
    6.5605   -1.6106   21.7640 N   0  0  0  0  0  0  0  0  0  0  0  0
    7.4195   -2.2333   22.7750 C   0  0  0  0  0  0  0  0  0  0  0  0
    7.1300   -1.8361   23.7540 H   0  0  0  0  0  0  0  0  0  0  0  0
    7.2272   -3.3095   22.8030 H   0  0  0  0  0  0  0  0  0  0  0  0
    8.8891   -1.8772   22.4279 C   0  0  0  0  0  0  0  0  0  0  0  0
    9.4193   -2.7547   22.0374 H   0  0  0  0  0  0  0  0  0  0  0  0
    9.4581   -1.4944   23.2859 H   0  0  0  0  0  0  0  0  0  0  0  0
   11.0543    0.0151   21.3962 C   0  0  0  0  0  0  0  0  0  0  0  0
   11.8076   -1.1536   21.4213 C   0  0  0  0  0  0  0  0  0  0  0  0
   11.3754   -2.0615   21.0139 H   0  0  0  0  0  0  0  0  0  0  0  0
   13.1342   -1.1986   21.9229 C   0  0  0  0  0  0  0  0  0  0  0  0
   13.6718   -2.1441   21.9337 H   0  0  0  0  0  0  0  0  0  0  0  0
   13.7286   -0.0469   22.3789 C   0  0  0  0  0  0  0  0  0  0  0  0
   14.7494   -0.0436   22.7602 H   0  0  0  0  0  0  0  0  0  0  0  0
   13.0167    1.1900   22.3439 C   0  0  0  0  0  0  0  0  0  0  0  0
   13.6458    2.3925   22.7571 C   0  0  0  0  0  0  0  0  0  0  0  0
   14.7053    2.3187   22.9113 H   0  0  0  0  0  0  0  0  0  0  0  0
   12.9898    3.5967   22.7869 C   0  0  0  0  0  0  0  0  0  0  0  0
   13.4871    4.4974   23.1398 H   0  0  0  0  0  0  0  0  0  0  0  0
   11.6430    3.6523   22.3471 C   0  0  0  0  0  0  0  0  0  0  0  0
   11.1216    4.6050   22.3428 H   0  0  0  0  0  0  0  0  0  0  0  0
   11.0018    2.5099   21.9092 C   0  0  0  0  0  0  0  0  0  0  0  0
    9.9629    2.5648   21.6010 H   0  0  0  0  0  0  0  0  0  0  0  0
   11.6671    1.2433   21.8653 C   0  0  0  0  0  0  0  0  0  0  0  0
  1  2  1  0
  2  3  2  3
  3  4  1  0
  4  5  1  0
  5  6  2  0
  6  7  1  0
  6  8  1  0
  8  9  2  0
  9 10  1  0
  9 11  1  0
 11 12  1  0
 11 13  2  0
 13 14  1  0
  4 15  2  0
 15 16  1  0
 16 17  1  0
 16 18  1  0
 16 19  1  0
 19 20  1  0
 19 21  1  0
  2 22  1  0
 22 23  2  0
 23 24  1  0
 23 25  1  0
 25 26  1  0
 25 27  2  0
 27 28  1  0
 27 29  1  0
 29 30  2  0
 30 31  1  0
 30 32  1  0
 32 33  1  0
 32 34  2  0
 34 35  1  0
 34 36  1  0
 36 37  1  0
 36 38  2  0
 19  3  1  0
 38 22  1  0
 13  5  1  0
 38 29  1  0
M  END
>  <cnnaffinity>  (1) 
-6.21139

>  <filename>  (1) 
C(=C1CCN=C1c1cccnc1)c1cccc2ccccc12

$$$$
