
     RDKit          3D

 27 29  0  0  0  0  0  0  0  0999 V2000
    5.2372   -2.2627   21.0531 H   0  0  0  0  0  0  0  0  0  0  0  0
    5.8972   -2.3787   21.9068 C   0  0  0  0  0  0  0  0  0  0  0  0
    7.0680   -1.7202   21.9339 C   0  0  0  0  0  0  0  0  0  0  0  0
    7.5564   -0.7054   20.9572 C   0  0  0  0  0  0  0  0  0  0  0  0
    6.7190   -0.0453   19.9306 C   0  0  0  0  0  0  0  0  0  0  0  0
    7.2504    0.0376   18.6371 C   0  0  0  0  0  0  0  0  0  0  0  0
    8.2122   -0.4191   18.4181 H   0  0  0  0  0  0  0  0  0  0  0  0
    6.6397    0.6399   17.6150 N   0  0  0  0  0  0  0  0  0  0  0  0
    5.4640    1.2366   17.8681 C   0  0  0  0  0  0  0  0  0  0  0  0
    4.9928    1.7349   17.0227 H   0  0  0  0  0  0  0  0  0  0  0  0
    4.8550    1.2433   19.1282 C   0  0  0  0  0  0  0  0  0  0  0  0
    3.9179    1.7743   19.2681 H   0  0  0  0  0  0  0  0  0  0  0  0
    5.4890    0.5822   20.1845 C   0  0  0  0  0  0  0  0  0  0  0  0
    5.0459    0.5693   21.1830 H   0  0  0  0  0  0  0  0  0  0  0  0
    8.8004   -0.4247   21.0797 N   0  0  0  0  0  0  0  0  0  0  0  0
    9.3596   -1.1657   22.2112 C   0  0  0  0  0  0  0  0  0  0  0  0
    9.8396   -0.4571   22.8917 H   0  0  0  0  0  0  0  0  0  0  0  0
   10.1275   -1.8345   21.8066 H   0  0  0  0  0  0  0  0  0  0  0  0
    8.2064   -1.9402   22.9032 C   0  0  0  0  0  0  0  0  0  0  0  0
    7.9697   -1.5199   23.8838 H   0  0  0  0  0  0  0  0  0  0  0  0
    8.4306   -2.9979   23.0519 H   0  0  0  0  0  0  0  0  0  0  0  0
    5.3847   -3.2933   22.9372 C   0  0  0  0  0  0  0  0  0  0  0  0
    4.2811   -4.0613   22.7162 N   0  0  0  0  0  0  0  0  0  0  0  0
    4.0485   -4.7136   23.8127 N   0  0  0  0  0  0  0  0  0  0  0  0
    4.9863   -4.3412   24.6549 N   0  0  0  0  0  0  0  0  0  0  0  0
    4.9886   -4.6741   25.6132 H   0  0  0  0  0  0  0  0  0  0  0  0
    5.8513   -3.4691   24.1762 N   0  0  0  0  0  0  0  0  0  0  0  0
  1  2  1  0
  2  3  2  3
  3  4  1  0
  4  5  1  0
  5  6  2  0
  6  7  1  0
  6  8  1  0
  8  9  2  0
  9 10  1  0
  9 11  1  0
 11 12  1  0
 11 13  2  0
 13 14  1  0
  4 15  2  0
 15 16  1  0
 16 17  1  0
 16 18  1  0
 16 19  1  0
 19 20  1  0
 19 21  1  0
  2 22  1  0
 22 23  1  0
 23 24  2  0
 24 25  1  0
 25 26  1  0
 25 27  1  0
 19  3  1  0
 27 22  2  0
 13  5  1  0
M  END
>  <cnnaffinity>  (1) 
-4.90122

>  <filename>  (1) 
C(=C1CCN=C1c1cccnc1)c1nn[nH]n1

$$$$
