
     RDKit          3D

 27 29  0  0  0  0  0  0  0  0999 V2000
    5.9347   -0.9984   22.2787 H   0  0  0  0  0  0  0  0  0  0  0  0
    6.9907   -1.0940   21.9871 C   0  0  0  0  0  0  0  0  0  0  0  0
    7.4440   -0.6785   20.8650 N   0  0  0  0  0  0  0  0  0  0  0  0
    6.6556   -0.0023   19.9123 C   0  0  0  0  0  0  0  0  0  0  0  0
    7.1700    0.0647   18.5929 C   0  0  0  0  0  0  0  0  0  0  0  0
    8.1165   -0.4286   18.3958 H   0  0  0  0  0  0  0  0  0  0  0  0
    6.5664    0.6770   17.5744 N   0  0  0  0  0  0  0  0  0  0  0  0
    5.3983    1.2949   17.8383 C   0  0  0  0  0  0  0  0  0  0  0  0
    4.9130    1.7816   16.9953 H   0  0  0  0  0  0  0  0  0  0  0  0
    4.8060    1.3091   19.1065 C   0  0  0  0  0  0  0  0  0  0  0  0
    3.8725    1.8432   19.2629 H   0  0  0  0  0  0  0  0  0  0  0  0
    5.4353    0.6436   20.1683 C   0  0  0  0  0  0  0  0  0  0  0  0
    5.0058    0.6373   21.1730 H   0  0  0  0  0  0  0  0  0  0  0  0
    7.8746   -1.7757   22.9348 C   0  0  0  0  0  0  0  0  0  0  0  0
    9.2010   -1.9937   22.7066 C   0  0  0  0  0  0  0  0  0  0  0  0
    9.7502   -1.6951   21.8222 H   0  0  0  0  0  0  0  0  0  0  0  0
   10.0171   -2.8164   23.9785 S   0  0  0  0  0  0  0  0  0  0  0  0
    8.5430   -2.9044   24.9098 C   0  0  0  0  0  0  0  0  0  0  0  0
    8.3650   -3.4792   26.1810 C   0  0  0  0  0  0  0  0  0  0  0  0
    9.2014   -3.9408   26.7001 H   0  0  0  0  0  0  0  0  0  0  0  0
    7.0976   -3.4482   26.7605 C   0  0  0  0  0  0  0  0  0  0  0  0
    6.9366   -3.8911   27.7401 H   0  0  0  0  0  0  0  0  0  0  0  0
    6.0107   -2.8504   26.0883 C   0  0  0  0  0  0  0  0  0  0  0  0
    5.0234   -2.8277   26.5458 H   0  0  0  0  0  0  0  0  0  0  0  0
    6.1950   -2.2844   24.8350 C   0  0  0  0  0  0  0  0  0  0  0  0
    5.3619   -1.8225   24.3290 H   0  0  0  0  0  0  0  0  0  0  0  0
    7.4631   -2.3027   24.2244 C   0  0  0  0  0  0  0  0  0  0  0  0
  1  2  1  0
  2  3  2  3
  3  4  1  0
  4  5  2  0
  5  6  1  0
  5  7  1  0
  7  8  2  0
  8  9  1  0
  8 10  1  0
 10 11  1  0
 10 12  2  0
 12 13  1  0
  2 14  1  0
 14 15  2  0
 15 16  1  0
 15 17  1  0
 17 18  1  0
 18 19  2  0
 19 20  1  0
 19 21  1  0
 21 22  1  0
 21 23  2  0
 23 24  1  0
 23 25  1  0
 25 26  1  0
 25 27  2  0
 12  4  1  0
 27 14  1  0
 27 18  1  0
M  END
>  <cnnaffinity>  (1) 
-4.88626

>  <filename>  (1) 
C(=Nc1cccnc1)c1csc2ccccc12

$$$$
