
     RDKit          3D

 23 24  0  0  0  0  0  0  0  0999 V2000
    6.8364   -0.6465   22.0192 H   0  0  0  0  0  0  0  0  0  0  0  0
    7.3180   -0.7178   21.0336 C   0  0  0  0  0  0  0  0  0  0  0  0
    8.4040   -1.3518   20.8284 N   0  0  0  0  0  0  0  0  0  0  0  0
    9.0616   -1.8727   21.9565 C   0  0  0  0  0  0  0  0  0  0  0  0
    8.4289   -2.0348   23.1262 N   0  0  0  0  0  0  0  0  0  0  0  0
    9.1328   -2.6209   24.1052 C   0  0  0  0  0  0  0  0  0  0  0  0
    8.5962   -2.7940   25.0392 H   0  0  0  0  0  0  0  0  0  0  0  0
   10.4693   -3.0033   23.9990 C   0  0  0  0  0  0  0  0  0  0  0  0
   10.9328   -3.5283   24.8245 H   0  0  0  0  0  0  0  0  0  0  0  0
   11.1530   -2.7204   22.7977 C   0  0  0  0  0  0  0  0  0  0  0  0
   12.2076   -2.9391   22.6360 H   0  0  0  0  0  0  0  0  0  0  0  0
   10.4203   -2.1694   21.7662 C   0  0  0  0  0  0  0  0  0  0  0  0
   10.8303   -1.9697   20.7927 H   0  0  0  0  0  0  0  0  0  0  0  0
    6.6430   -0.0259   19.9486 C   0  0  0  0  0  0  0  0  0  0  0  0
    7.1935    0.0061   18.6545 C   0  0  0  0  0  0  0  0  0  0  0  0
    8.1421   -0.4837   18.4419 H   0  0  0  0  0  0  0  0  0  0  0  0
    6.6081    0.6322   17.6340 N   0  0  0  0  0  0  0  0  0  0  0  0
    5.4486    1.2631   17.8703 C   0  0  0  0  0  0  0  0  0  0  0  0
    4.9955    1.7715   17.0221 H   0  0  0  0  0  0  0  0  0  0  0  0
    4.8263    1.2904   19.1199 C   0  0  0  0  0  0  0  0  0  0  0  0
    3.8945    1.8226   19.2487 H   0  0  0  0  0  0  0  0  0  0  0  0
    5.4343    0.6393   20.1851 C   0  0  0  0  0  0  0  0  0  0  0  0
    5.0040    0.6454   21.1865 H   0  0  0  0  0  0  0  0  0  0  0  0
  1  2  1  0
  2  3  2  3
  3  4  1  0
  4  5  2  0
  5  6  1  0
  6  7  1  0
  6  8  2  0
  8  9  1  0
  8 10  1  0
 10 11  1  0
 10 12  2  0
 12 13  1  0
  2 14  1  0
 14 15  2  0
 15 16  1  0
 15 17  1  0
 17 18  2  0
 18 19  1  0
 18 20  1  0
 20 21  1  0
 20 22  2  0
 22 23  1  0
 12  4  1  0
 22 14  1  0
M  END
>  <cnnaffinity>  (1) 
-4.38734

>  <filename>  (1) 
C(=Nc1ccccn1)c1cccnc1

$$$$
