
     RDKit          3D

 33 35  0  0  0  0  0  0  0  0999 V2000
    5.8800   -0.8873   22.2141 H   0  0  0  0  0  0  0  0  0  0  0  0
    6.9139   -1.1009   21.9337 C   0  0  0  0  0  0  0  0  0  0  0  0
    7.3814   -0.8056   20.7868 N   0  0  0  0  0  0  0  0  0  0  0  0
    6.6472   -0.0613   19.8373 C   0  0  0  0  0  0  0  0  0  0  0  0
    7.1617    0.0253   18.5188 C   0  0  0  0  0  0  0  0  0  0  0  0
    8.0965   -0.4858   18.3073 H   0  0  0  0  0  0  0  0  0  0  0  0
    6.5741    0.6823   17.5146 N   0  0  0  0  0  0  0  0  0  0  0  0
    5.4158    1.3161   17.7870 C   0  0  0  0  0  0  0  0  0  0  0  0
    4.9489    1.8435   16.9586 H   0  0  0  0  0  0  0  0  0  0  0  0
    4.8240    1.3085   19.0532 C   0  0  0  0  0  0  0  0  0  0  0  0
    3.8924    1.8386   19.2185 H   0  0  0  0  0  0  0  0  0  0  0  0
    5.4494    0.6222   20.1013 C   0  0  0  0  0  0  0  0  0  0  0  0
    5.0340    0.6304   21.1088 H   0  0  0  0  0  0  0  0  0  0  0  0
    7.7605   -1.8319   22.9463 C   0  0  0  0  0  0  0  0  0  0  0  0
    8.1462   -2.7282   22.4491 H   0  0  0  0  0  0  0  0  0  0  0  0
    7.1294   -2.1640   23.7703 H   0  0  0  0  0  0  0  0  0  0  0  0
    8.9233   -0.9925   23.4385 C   0  0  0  0  0  0  0  0  0  0  0  0
    8.7845   -0.1125   24.5575 C   0  0  0  0  0  0  0  0  0  0  0  0
    7.8531   -0.1021   25.1239 H   0  0  0  0  0  0  0  0  0  0  0  0
    9.8063    0.7379   24.9209 C   0  0  0  0  0  0  0  0  0  0  0  0
    9.7166    1.4135   25.7691 H   0  0  0  0  0  0  0  0  0  0  0  0
   11.0209    0.7843   24.1700 C   0  0  0  0  0  0  0  0  0  0  0  0
   12.0614    1.7227   24.4416 C   0  0  0  0  0  0  0  0  0  0  0  0
   11.9279    2.4134   25.2692 H   0  0  0  0  0  0  0  0  0  0  0  0
   13.1830    1.7679   23.6501 C   0  0  0  0  0  0  0  0  0  0  0  0
   13.9432    2.5132   23.8354 H   0  0  0  0  0  0  0  0  0  0  0  0
   13.3430    0.8625   22.5635 C   0  0  0  0  0  0  0  0  0  0  0  0
   14.2412    0.9012   21.9539 H   0  0  0  0  0  0  0  0  0  0  0  0
   12.3585   -0.0488   22.2726 C   0  0  0  0  0  0  0  0  0  0  0  0
   12.4486   -0.7173   21.4171 H   0  0  0  0  0  0  0  0  0  0  0  0
   11.1681   -0.1053   23.0580 C   0  0  0  0  0  0  0  0  0  0  0  0
   10.0954   -0.9788   22.7157 C   0  0  0  0  0  0  0  0  0  0  0  0
   10.1940   -1.6021   21.8255 H   0  0  0  0  0  0  0  0  0  0  0  0
  1  2  1  0
  2  3  2  3
  3  4  1  0
  4  5  2  0
  5  6  1  0
  5  7  1  0
  7  8  2  0
  8  9  1  0
  8 10  1  0
 10 11  1  0
 10 12  2  0
 12 13  1  0
  2 14  1  0
 14 15  1  0
 14 16  1  0
 14 17  1  0
 17 18  2  0
 18 19  1  0
 18 20  1  0
 20 21  1  0
 20 22  2  0
 22 23  1  0
 23 24  1  0
 23 25  2  0
 25 26  1  0
 25 27  1  0
 27 28  1  0
 27 29  2  0
 29 30  1  0
 29 31  1  0
 31 32  2  0
 32 33  1  0
 12  4  1  0
 32 17  1  0
 31 22  1  0
M  END
>  <cnnaffinity>  (1) 
-5.06504

>  <filename>  (1) 
C(Cc1ccc2ccccc2c1)=Nc1cccnc1

$$$$
