
     RDKit          3D

 37 39  0  0  0  0  0  0  0  0999 V2000
    8.8251    1.3570   23.3411 H   0  0  0  0  0  0  0  0  0  0  0  0
    8.3275    1.1232   22.3945 C   0  0  0  0  0  0  0  0  0  0  0  0
    8.0271   -0.1506   22.1201 C   0  0  0  0  0  0  0  0  0  0  0  0
    7.3478   -0.7578   20.9456 C   0  0  0  0  0  0  0  0  0  0  0  0
    6.6437    0.0149   19.8962 C   0  0  0  0  0  0  0  0  0  0  0  0
    7.1652    0.0489   18.6035 C   0  0  0  0  0  0  0  0  0  0  0  0
    8.1105   -0.4430   18.3779 H   0  0  0  0  0  0  0  0  0  0  0  0
    6.5684    0.6725   17.5824 N   0  0  0  0  0  0  0  0  0  0  0  0
    5.4050    1.2941   17.8386 C   0  0  0  0  0  0  0  0  0  0  0  0
    4.9266    1.7837   16.9936 H   0  0  0  0  0  0  0  0  0  0  0  0
    4.8031    1.3161   19.1012 C   0  0  0  0  0  0  0  0  0  0  0  0
    3.8714    1.8471   19.2525 H   0  0  0  0  0  0  0  0  0  0  0  0
    5.4291    0.6565   20.1595 C   0  0  0  0  0  0  0  0  0  0  0  0
    4.9968    0.6349   21.1636 H   0  0  0  0  0  0  0  0  0  0  0  0
    7.3690   -2.0340   20.9180 N   0  0  0  0  0  0  0  0  0  0  0  0
    8.0272   -2.5317   22.1362 C   0  0  0  0  0  0  0  0  0  0  0  0
    8.9014   -3.1092   21.8295 H   0  0  0  0  0  0  0  0  0  0  0  0
    7.3482   -3.2129   22.6560 H   0  0  0  0  0  0  0  0  0  0  0  0
    8.4168   -1.3162   23.0062 C   0  0  0  0  0  0  0  0  0  0  0  0
    9.4865   -1.2915   23.2434 H   0  0  0  0  0  0  0  0  0  0  0  0
    7.8673   -1.2899   23.9543 H   0  0  0  0  0  0  0  0  0  0  0  0
    8.0682    2.3153   21.5109 C   0  0  0  0  0  0  0  0  0  0  0  0
    6.9890    2.4637   21.3632 H   0  0  0  0  0  0  0  0  0  0  0  0
    8.4424    2.1086   20.5014 H   0  0  0  0  0  0  0  0  0  0  0  0
    8.6610    3.5303   22.0237 N   0  0  0  0  0  0  0  0  0  0  0  0
    9.4744    3.9108   21.5680 H   0  0  0  0  0  0  0  0  0  0  0  0
    8.2199    4.2236   23.1279 C   0  0  0  0  0  0  0  0  0  0  0  0
    8.9158    5.3853   23.5297 C   0  0  0  0  0  0  0  0  0  0  0  0
    9.7887    5.6961   22.9592 H   0  0  0  0  0  0  0  0  0  0  0  0
    8.4831    6.1175   24.6354 C   0  0  0  0  0  0  0  0  0  0  0  0
    9.0251    7.0110   24.9313 H   0  0  0  0  0  0  0  0  0  0  0  0
    7.3582    5.7179   25.3658 C   0  0  0  0  0  0  0  0  0  0  0  0
    7.0212    6.2919   26.2250 H   0  0  0  0  0  0  0  0  0  0  0  0
    6.6705    4.5685   24.9706 C   0  0  0  0  0  0  0  0  0  0  0  0
    5.7940    4.2433   25.5230 H   0  0  0  0  0  0  0  0  0  0  0  0
    7.0892    3.8253   23.8679 C   0  0  0  0  0  0  0  0  0  0  0  0
    6.5545    2.9281   23.5697 H   0  0  0  0  0  0  0  0  0  0  0  0
  1  2  1  0
  2  3  2  3
  3  4  1  0
  4  5  1  0
  5  6  2  0
  6  7  1  0
  6  8  1  0
  8  9  2  0
  9 10  1  0
  9 11  1  0
 11 12  1  0
 11 13  2  0
 13 14  1  0
  4 15  2  0
 15 16  1  0
 16 17  1  0
 16 18  1  0
 16 19  1  0
 19 20  1  0
 19 21  1  0
  2 22  1  0
 22 23  1  0
 22 24  1  0
 22 25  1  0
 25 26  1  0
 25 27  1  0
 27 28  2  0
 28 29  1  0
 28 30  1  0
 30 31  1  0
 30 32  2  0
 32 33  1  0
 32 34  1  0
 34 35  1  0
 34 36  2  0
 36 37  1  0
 19  3  1  0
 36 27  1  0
 13  5  1  0
M  END
>  <cnnaffinity>  (1) 
-5.34628

>  <filename>  (1) 
C(CNc1ccccc1)=C1CCN=C1c1cccnc1

$$$$
