
     RDKit          3D

 48 51  0  0  0  0  0  0  0  0999 V2000
    6.0773   -4.5419   25.6560 C   0  0  0  0  0  0  0  0  0  0  0  0
    6.1486   -3.2271   25.8680 C   0  0  0  0  0  0  0  0  0  0  0  0
    6.6502   -2.2385   24.8467 C   0  0  0  0  0  0  0  0  0  0  0  0
    7.4043   -2.9279   23.6709 C   0  0  0  0  0  0  0  0  0  0  0  0
    7.6528   -1.9555   22.5562 C   0  0  0  0  0  0  0  0  0  0  0  0
    6.7235   -1.5743   21.6997 N   0  0  0  0  0  0  0  0  0  0  0  0
    7.3663   -0.6369   20.9531 N   0  0  0  0  0  0  0  0  0  0  0  0
    6.6796    0.0149   19.8916 C   0  0  0  0  0  0  0  0  0  0  0  0
    5.4540    0.6388   20.1520 C   0  0  0  0  0  0  0  0  0  0  0  0
    4.8178    1.3066   19.1041 C   0  0  0  0  0  0  0  0  0  0  0  0
    5.4128    1.2977   17.8369 C   0  0  0  0  0  0  0  0  0  0  0  0
    6.5620    0.6585   17.5680 N   0  0  0  0  0  0  0  0  0  0  0  0
    7.1784    0.0344   18.5766 C   0  0  0  0  0  0  0  0  0  0  0  0
    8.1076   -0.4847   18.3318 H   0  0  0  0  0  0  0  0  0  0  0  0
    4.9470    1.8238   17.0075 H   0  0  0  0  0  0  0  0  0  0  0  0
    3.8795    1.8294   19.2592 H   0  0  0  0  0  0  0  0  0  0  0  0
    5.0318    0.5809   21.1554 H   0  0  0  0  0  0  0  0  0  0  0  0
    8.6293   -0.4728   21.4340 C   0  0  0  0  0  0  0  0  0  0  0  0
    9.5310    0.6033   20.9331 C   0  0  0  0  0  0  0  0  0  0  0  0
    9.0160    2.0217   21.2500 C   0  0  0  0  0  0  0  0  0  0  0  0
    8.7707    2.2538   22.7595 C   0  0  0  0  0  0  0  0  0  0  0  0
   10.0196    2.0179   23.5691 C   0  0  0  0  0  0  0  0  0  0  0  0
   10.1692    0.9219   24.4458 C   0  0  0  0  0  0  0  0  0  0  0  0
   11.3383    0.6133   25.0447 N   0  0  0  0  0  0  0  0  0  0  0  0
   12.3586    1.4486   24.7654 C   0  0  0  0  0  0  0  0  0  0  0  0
   12.2043    2.5831   23.9476 C   0  0  0  0  0  0  0  0  0  0  0  0
   11.0418    2.8725   23.3464 N   0  0  0  0  0  0  0  0  0  0  0  0
   13.0310    3.2703   23.7580 H   0  0  0  0  0  0  0  0  0  0  0  0
   13.3168    1.2068   25.1995 H   0  0  0  0  0  0  0  0  0  0  0  0
    9.3065    0.2847   24.6264 H   0  0  0  0  0  0  0  0  0  0  0  0
    7.9763    1.5805   23.1095 H   0  0  0  0  0  0  0  0  0  0  0  0
    8.4255    3.2798   22.9252 H   0  0  0  0  0  0  0  0  0  0  0  0
    9.7677    2.7368   20.9021 H   0  0  0  0  0  0  0  0  0  0  0  0
    8.0977    2.2198   20.6846 H   0  0  0  0  0  0  0  0  0  0  0  0
   10.5305    0.4509   21.3546 H   0  0  0  0  0  0  0  0  0  0  0  0
    9.6172    0.4716   19.8523 H   0  0  0  0  0  0  0  0  0  0  0  0
    8.8462   -1.3153   22.4285 N   0  0  0  0  0  0  0  0  0  0  0  0
    6.6566   -4.2025   23.2100 C   0  0  0  0  0  0  0  0  0  0  0  0
    6.4961   -5.2057   24.3671 C   0  0  0  0  0  0  0  0  0  0  0  0
    7.4433   -5.7385   24.5378 H   0  0  0  0  0  0  0  0  0  0  0  0
    5.7680   -5.9851   24.1058 H   0  0  0  0  0  0  0  0  0  0  0  0
    5.6703   -3.9038   22.8323 H   0  0  0  0  0  0  0  0  0  0  0  0
    7.1859   -4.6795   22.3771 H   0  0  0  0  0  0  0  0  0  0  0  0
    8.4022   -3.2087   24.0261 H   0  0  0  0  0  0  0  0  0  0  0  0
    7.2989   -1.4967   25.3361 H   0  0  0  0  0  0  0  0  0  0  0  0
    5.7939   -1.6636   24.4652 H   0  0  0  0  0  0  0  0  0  0  0  0
    5.8172   -2.8199   26.8222 H   0  0  0  0  0  0  0  0  0  0  0  0
    5.7092   -5.1919   26.4484 H   0  0  0  0  0  0  0  0  0  0  0  0
  1  2  2  0
  2  3  1  0
  3  4  1  0
  4  5  1  0
  5  6  2  0
  6  7  1  0
  7  8  1  0
  8  9  2  0
  9 10  1  0
 10 11  2  0
 11 12  1  0
 12 13  2  0
 13 14  1  0
 11 15  1  0
 10 16  1  0
  9 17  1  0
  7 18  1  0
 18 19  1  0
 19 20  1  0
 20 21  1  0
 21 22  1  0
 22 23  2  0
 23 24  1  0
 24 25  2  0
 25 26  1  0
 26 27  2  0
 26 28  1  0
 25 29  1  0
 23 30  1  0
 21 31  1  0
 21 32  1  0
 20 33  1  0
 20 34  1  0
 19 35  1  0
 19 36  1  0
 18 37  2  0
  4 38  1  0
 38 39  1  0
 39 40  1  0
 39 41  1  0
 38 42  1  0
 38 43  1  0
  4 44  1  0
  3 45  1  0
  3 46  1  0
  2 47  1  0
  1 48  1  0
 39  1  1  0
 37  5  1  0
 13  8  1  0
 27 22  1  0
M  END
>  <cnnaffinity>  (1) 
-6.43327

>  <filename>  (1) 
C1=CCC(c2nc(CCCc3cnccn3)n(-c3cccnc3)n2)CC1

$$$$
