
     RDKit          3D

 38 40  0  0  0  0  0  0  0  0999 V2000
    9.3145   -0.0938   20.0161 H   0  0  0  0  0  0  0  0  0  0  0  0
    8.7708   -0.7082   20.7273 C   0  0  0  0  0  0  0  0  0  0  0  0
    7.4288   -0.7178   20.7530 C   0  0  0  0  0  0  0  0  0  0  0  0
    6.6486   -0.0111   19.7181 C   0  0  0  0  0  0  0  0  0  0  0  0
    7.1443    0.0780   18.3978 C   0  0  0  0  0  0  0  0  0  0  0  0
    8.0742   -0.4266   18.1366 H   0  0  0  0  0  0  0  0  0  0  0  0
    6.5421    0.7389   17.4072 N   0  0  0  0  0  0  0  0  0  0  0  0
    5.3920    1.3654   17.6987 C   0  0  0  0  0  0  0  0  0  0  0  0
    4.9296    1.9107   16.8812 H   0  0  0  0  0  0  0  0  0  0  0  0
    4.7912    1.3259   18.9612 C   0  0  0  0  0  0  0  0  0  0  0  0
    3.8576    1.8499   19.1290 H   0  0  0  0  0  0  0  0  0  0  0  0
    5.4218    0.6162   19.9812 C   0  0  0  0  0  0  0  0  0  0  0  0
    4.9915    0.5684   20.9849 H   0  0  0  0  0  0  0  0  0  0  0  0
    6.7016   -1.3835   21.9193 C   0  0  0  0  0  0  0  0  0  0  0  0
    5.7623   -1.8449   21.6049 H   0  0  0  0  0  0  0  0  0  0  0  0
    6.4699   -0.6119   22.6661 H   0  0  0  0  0  0  0  0  0  0  0  0
    7.5907   -2.4248   22.6129 C   0  0  0  0  0  0  0  0  0  0  0  0
    7.7610   -3.3045   21.9771 H   0  0  0  0  0  0  0  0  0  0  0  0
    7.1191   -2.7841   23.5300 H   0  0  0  0  0  0  0  0  0  0  0  0
    8.9257   -1.8798   22.9529 N   0  0  0  0  0  0  0  0  0  0  0  0
    8.7162   -0.6951   23.7197 O   0  0  0  0  0  0  0  0  0  0  0  0
    8.9285   -0.9470   25.1004 C   0  0  0  0  0  0  0  0  0  0  0  0
    9.9350   -1.3625   25.2279 H   0  0  0  0  0  0  0  0  0  0  0  0
    7.8771   -1.8471   25.7590 C   0  0  0  0  0  0  0  0  0  0  0  0
    6.8860   -1.4953   25.4456 H   0  0  0  0  0  0  0  0  0  0  0  0
    7.9621   -2.9057   25.4868 H   0  0  0  0  0  0  0  0  0  0  0  0
    8.0555   -1.5658   27.2577 C   0  0  0  0  0  0  0  0  0  0  0  0
    8.6988   -2.3227   27.7066 H   0  0  0  0  0  0  0  0  0  0  0  0
    7.0974   -1.6108   27.7831 H   0  0  0  0  0  0  0  0  0  0  0  0
    8.7083   -0.1566   27.3441 C   0  0  0  0  0  0  0  0  0  0  0  0
    9.7263   -0.2343   27.7519 H   0  0  0  0  0  0  0  0  0  0  0  0
    8.1521    0.5183   28.0036 H   0  0  0  0  0  0  0  0  0  0  0  0
    8.7641    0.3446   25.8824 C   0  0  0  0  0  0  0  0  0  0  0  0
    7.8034    0.7957   25.5888 H   0  0  0  0  0  0  0  0  0  0  0  0
    9.5511    1.0851   25.6968 H   0  0  0  0  0  0  0  0  0  0  0  0
    9.6329   -1.4420   21.7338 C   0  0  0  0  0  0  0  0  0  0  0  0
   10.4561   -0.8026   22.0631 H   0  0  0  0  0  0  0  0  0  0  0  0
   10.0748   -2.3325   21.2647 H   0  0  0  0  0  0  0  0  0  0  0  0
  1  2  1  0
  2  3  2  0
  3  4  1  0
  4  5  2  0
  5  6  1  0
  5  7  1  0
  7  8  2  0
  8  9  1  0
  8 10  1  0
 10 11  1  0
 10 12  2  0
 12 13  1  0
  3 14  1  0
 14 15  1  0
 14 16  1  0
 14 17  1  0
 17 18  1  0
 17 19  1  0
 17 20  1  0
 20 21  1  0
 21 22  1  0
 22 23  1  0
 22 24  1  0
 24 25  1  0
 24 26  1  0
 24 27  1  0
 27 28  1  0
 27 29  1  0
 27 30  1  0
 30 31  1  0
 30 32  1  0
 30 33  1  0
 33 34  1  0
 33 35  1  0
 20 36  1  0
 36 37  1  0
 36 38  1  0
 36  2  1  0
 12  4  1  0
 33 22  1  0
M  END
>  <cnnaffinity>  (1) 
-4.81727

>  <filename>  (1) 
C1=C(c2cccnc2)CCN(OC2CCCC2)C1

$$$$
