
     RDKit          3D

 40 43  0  0  0  0  0  0  0  0999 V2000
   13.2274   -0.3489   22.8473 C   0  0  0  0  0  0  0  0  0  0  0  0
   12.3519    0.3760   23.5447 C   0  0  0  0  0  0  0  0  0  0  0  0
   10.8585    0.1715   23.4999 C   0  0  0  0  0  0  0  0  0  0  0  0
   10.4244   -1.0661   22.6680 C   0  0  0  0  0  0  0  0  0  0  0  0
    8.9981   -0.9675   22.2098 C   0  0  0  0  0  0  0  0  0  0  0  0
    8.6471   -0.1706   21.2118 N   0  0  0  0  0  0  0  0  0  0  0  0
    7.3366   -0.4675   21.0219 N   0  0  0  0  0  0  0  0  0  0  0  0
    6.6217    0.1270   19.9389 C   0  0  0  0  0  0  0  0  0  0  0  0
    5.3650    0.7378   20.0768 C   0  0  0  0  0  0  0  0  0  0  0  0
    4.7962    1.3353   18.9450 C   0  0  0  0  0  0  0  0  0  0  0  0
    5.4785    1.2838   17.7256 C   0  0  0  0  0  0  0  0  0  0  0  0
    6.6693    0.6750   17.5799 N   0  0  0  0  0  0  0  0  0  0  0  0
    7.2242    0.1316   18.6671 C   0  0  0  0  0  0  0  0  0  0  0  0
    8.1910   -0.3469   18.5405 H   0  0  0  0  0  0  0  0  0  0  0  0
    5.0591    1.7400   16.8307 H   0  0  0  0  0  0  0  0  0  0  0  0
    3.8469    1.8591   19.0033 H   0  0  0  0  0  0  0  0  0  0  0  0
    4.8687    0.8001   21.0470 H   0  0  0  0  0  0  0  0  0  0  0  0
    6.9893   -1.4529   21.8952 C   0  0  0  0  0  0  0  0  0  0  0  0
    5.7070   -2.1955   21.7641 C   0  0  0  0  0  0  0  0  0  0  0  0
    5.6726   -3.1624   20.6204 C   0  0  0  0  0  0  0  0  0  0  0  0
    6.0392   -4.4604   20.5265 C   0  0  0  0  0  0  0  0  0  0  0  0
    5.9129   -4.8763   19.2614 O   0  0  0  0  0  0  0  0  0  0  0  0
    5.4646   -3.8360   18.4854 N   0  0  0  0  0  0  0  0  0  0  0  0
    5.3268   -2.8283   19.2808 C   0  0  0  0  0  0  0  0  0  0  0  0
    4.9690   -1.8849   18.8905 H   0  0  0  0  0  0  0  0  0  0  0  0
    6.4174   -5.1920   21.2322 H   0  0  0  0  0  0  0  0  0  0  0  0
    5.4824   -2.6606   22.7272 H   0  0  0  0  0  0  0  0  0  0  0  0
    4.9498   -1.4596   21.5093 H   0  0  0  0  0  0  0  0  0  0  0  0
    8.0043   -1.7657   22.6772 N   0  0  0  0  0  0  0  0  0  0  0  0
   11.3532   -1.2526   21.4433 C   0  0  0  0  0  0  0  0  0  0  0  0
   12.8229   -1.3855   21.8323 C   0  0  0  0  0  0  0  0  0  0  0  0
   13.4547   -1.3063   20.9387 H   0  0  0  0  0  0  0  0  0  0  0  0
   13.0163   -2.3860   22.2339 H   0  0  0  0  0  0  0  0  0  0  0  0
   11.0281   -2.1223   20.8693 H   0  0  0  0  0  0  0  0  0  0  0  0
   11.2251   -0.3796   20.7953 H   0  0  0  0  0  0  0  0  0  0  0  0
   10.4671   -1.9638   23.2970 H   0  0  0  0  0  0  0  0  0  0  0  0
   10.4036    1.0822   23.0901 H   0  0  0  0  0  0  0  0  0  0  0  0
   10.4761    0.0856   24.5256 H   0  0  0  0  0  0  0  0  0  0  0  0
   12.7060    1.1820   24.1857 H   0  0  0  0  0  0  0  0  0  0  0  0
   14.2919   -0.2046   23.0115 H   0  0  0  0  0  0  0  0  0  0  0  0
  1  2  2  0
  2  3  1  0
  3  4  1  0
  4  5  1  0
  5  6  2  0
  6  7  1  0
  7  8  1  0
  8  9  2  0
  9 10  1  0
 10 11  2  0
 11 12  1  0
 12 13  2  0
 13 14  1  0
 11 15  1  0
 10 16  1  0
  9 17  1  0
  7 18  1  0
 18 19  1  0
 19 20  1  0
 20 21  2  0
 21 22  1  0
 22 23  1  0
 23 24  2  0
 24 25  1  0
 21 26  1  0
 19 27  1  0
 19 28  1  0
 18 29  2  0
  4 30  1  0
 30 31  1  0
 31 32  1  0
 31 33  1  0
 30 34  1  0
 30 35  1  0
  4 36  1  0
  3 37  1  0
  3 38  1  0
  2 39  1  0
  1 40  1  0
 31  1  1  0
 29  5  1  0
 13  8  1  0
 24 20  1  0
M  END
>  <cnnaffinity>  (1) 
-6.03261

>  <filename>  (1) 
C1=CCC(c2nc(Cc3cnoc3)n(-c3cccnc3)n2)CC1

$$$$
