
     RDKit          3D

 40 43  0  0  0  0  0  0  0  0999 V2000
    5.1405   -4.4288   22.4373 C   0  0  0  0  0  0  0  0  0  0  0  0
    4.9126   -3.5676   23.4336 C   0  0  0  0  0  0  0  0  0  0  0  0
    6.0136   -2.9449   24.2609 C   0  0  0  0  0  0  0  0  0  0  0  0
    7.4115   -3.0570   23.6055 C   0  0  0  0  0  0  0  0  0  0  0  0
    7.6342   -2.0087   22.5419 C   0  0  0  0  0  0  0  0  0  0  0  0
    6.6840   -1.5522   21.7458 N   0  0  0  0  0  0  0  0  0  0  0  0
    7.3429   -0.6925   20.9333 N   0  0  0  0  0  0  0  0  0  0  0  0
    6.6534    0.0015   19.9007 C   0  0  0  0  0  0  0  0  0  0  0  0
    5.4386    0.6425   20.1684 C   0  0  0  0  0  0  0  0  0  0  0  0
    4.8127    1.3100   19.1113 C   0  0  0  0  0  0  0  0  0  0  0  0
    5.4023    1.2944   17.8393 C   0  0  0  0  0  0  0  0  0  0  0  0
    6.5627    0.6734   17.5771 N   0  0  0  0  0  0  0  0  0  0  0  0
    7.1684    0.0528   18.5941 C   0  0  0  0  0  0  0  0  0  0  0  0
    8.1159   -0.4298   18.3688 H   0  0  0  0  0  0  0  0  0  0  0  0
    4.9172    1.7819   16.9959 H   0  0  0  0  0  0  0  0  0  0  0  0
    3.8795    1.8407   19.2630 H   0  0  0  0  0  0  0  0  0  0  0  0
    5.0150    0.6116   21.1748 H   0  0  0  0  0  0  0  0  0  0  0  0
    8.6445   -0.6302   21.3360 C   0  0  0  0  0  0  0  0  0  0  0  0
    9.6755    0.2053   20.6739 C   0  0  0  0  0  0  0  0  0  0  0  0
   10.7142    0.6610   21.6401 C   0  0  0  0  0  0  0  0  0  0  0  0
   11.8735    0.0193   21.9122 C   0  0  0  0  0  0  0  0  0  0  0  0
   12.7206    0.8137   23.1767 S   0  0  0  0  0  0  0  0  0  0  0  0
   11.4305    1.9602   23.2455 C   0  0  0  0  0  0  0  0  0  0  0  0
   10.4584    1.7704   22.4087 N   0  0  0  0  0  0  0  0  0  0  0  0
   11.4689    2.7754   23.9549 H   0  0  0  0  0  0  0  0  0  0  0  0
   12.2229   -0.8799   21.4342 H   0  0  0  0  0  0  0  0  0  0  0  0
   10.1038   -0.4351   19.8988 H   0  0  0  0  0  0  0  0  0  0  0  0
    9.2157    1.0774   20.2036 H   0  0  0  0  0  0  0  0  0  0  0  0
    8.8637   -1.4929   22.3063 N   0  0  0  0  0  0  0  0  0  0  0  0
    7.6126   -4.4825   23.0326 C   0  0  0  0  0  0  0  0  0  0  0  0
    6.5295   -4.8289   21.9961 C   0  0  0  0  0  0  0  0  0  0  0  0
    6.7441   -4.3216   21.0469 H   0  0  0  0  0  0  0  0  0  0  0  0
    6.5562   -5.9032   21.7767 H   0  0  0  0  0  0  0  0  0  0  0  0
    7.5735   -5.2013   23.8615 H   0  0  0  0  0  0  0  0  0  0  0  0
    8.6116   -4.5689   22.5904 H   0  0  0  0  0  0  0  0  0  0  0  0
    8.1803   -2.8718   24.3610 H   0  0  0  0  0  0  0  0  0  0  0  0
    5.7826   -1.8965   24.4847 H   0  0  0  0  0  0  0  0  0  0  0  0
    6.0336   -3.4500   25.2368 H   0  0  0  0  0  0  0  0  0  0  0  0
    3.8937   -3.2686   23.6724 H   0  0  0  0  0  0  0  0  0  0  0  0
    4.2974   -4.8621   21.9022 H   0  0  0  0  0  0  0  0  0  0  0  0
  1  2  2  0
  2  3  1  0
  3  4  1  0
  4  5  1  0
  5  6  2  0
  6  7  1  0
  7  8  1  0
  8  9  2  0
  9 10  1  0
 10 11  2  0
 11 12  1  0
 12 13  2  0
 13 14  1  0
 11 15  1  0
 10 16  1  0
  9 17  1  0
  7 18  1  0
 18 19  1  0
 19 20  1  0
 20 21  2  0
 21 22  1  0
 22 23  1  0
 23 24  2  0
 23 25  1  0
 21 26  1  0
 19 27  1  0
 19 28  1  0
 18 29  2  0
  4 30  1  0
 30 31  1  0
 31 32  1  0
 31 33  1  0
 30 34  1  0
 30 35  1  0
  4 36  1  0
  3 37  1  0
  3 38  1  0
  2 39  1  0
  1 40  1  0
 31  1  1  0
 29  5  1  0
 13  8  1  0
 24 20  1  0
M  END
>  <cnnaffinity>  (1) 
-5.85228

>  <filename>  (1) 
C1=CCC(c2nc(Cc3cscn3)n(-c3cccnc3)n2)CC1

$$$$
