
     RDKit          3D

 44 47  0  0  0  0  0  0  0  0999 V2000
    5.0734   -4.4458   22.5634 C   0  0  0  0  0  0  0  0  0  0  0  0
    4.8566   -3.6207   23.5943 C   0  0  0  0  0  0  0  0  0  0  0  0
    5.9638   -2.9486   24.3765 C   0  0  0  0  0  0  0  0  0  0  0  0
    7.3330   -3.0404   23.6666 C   0  0  0  0  0  0  0  0  0  0  0  0
    7.5150   -1.9944   22.5919 C   0  0  0  0  0  0  0  0  0  0  0  0
    6.5978   -1.5949   21.7286 N   0  0  0  0  0  0  0  0  0  0  0  0
    7.2893   -0.7699   20.8998 N   0  0  0  0  0  0  0  0  0  0  0  0
    6.6193   -0.0667   19.8577 C   0  0  0  0  0  0  0  0  0  0  0  0
    5.4270    0.6094   20.1314 C   0  0  0  0  0  0  0  0  0  0  0  0
    4.8209    1.3142   19.0885 C   0  0  0  0  0  0  0  0  0  0  0  0
    5.4096    1.3145   17.8172 C   0  0  0  0  0  0  0  0  0  0  0  0
    6.5352    0.6403   17.5408 N   0  0  0  0  0  0  0  0  0  0  0  0
    7.1155   -0.0338   18.5403 C   0  0  0  0  0  0  0  0  0  0  0  0
    8.0242   -0.5756   18.2922 H   0  0  0  0  0  0  0  0  0  0  0  0
    4.9607    1.8619   16.9894 H   0  0  0  0  0  0  0  0  0  0  0  0
    3.8966    1.8544   19.2476 H   0  0  0  0  0  0  0  0  0  0  0  0
    4.9995    0.5722   21.1360 H   0  0  0  0  0  0  0  0  0  0  0  0
    8.5670   -0.6626   21.3599 C   0  0  0  0  0  0  0  0  0  0  0  0
    9.6166    0.1203   20.6364 C   0  0  0  0  0  0  0  0  0  0  0  0
   10.6284    0.6653   21.4617 O   0  0  0  0  0  0  0  0  0  0  0  0
   10.3328    1.5823   22.4299 C   0  0  0  0  0  0  0  0  0  0  0  0
   11.4171    1.9469   23.2401 C   0  0  0  0  0  0  0  0  0  0  0  0
   11.2017    2.8898   24.2406 C   0  0  0  0  0  0  0  0  0  0  0  0
    9.9147    3.4058   24.4383 C   0  0  0  0  0  0  0  0  0  0  0  0
    8.8709    3.0623   23.6782 N   0  0  0  0  0  0  0  0  0  0  0  0
    9.0803    2.1802   22.6847 C   0  0  0  0  0  0  0  0  0  0  0  0
    8.2107    1.9392   22.0757 H   0  0  0  0  0  0  0  0  0  0  0  0
    9.7335    4.0985   25.2603 H   0  0  0  0  0  0  0  0  0  0  0  0
   12.0102    3.2372   24.8642 H   0  0  0  0  0  0  0  0  0  0  0  0
   12.3773    1.4625   23.0559 H   0  0  0  0  0  0  0  0  0  0  0  0
    9.1778    0.9071   20.0124 H   0  0  0  0  0  0  0  0  0  0  0  0
   10.1349   -0.5838   19.9817 H   0  0  0  0  0  0  0  0  0  0  0  0
    8.7401   -1.4475   22.4042 N   0  0  0  0  0  0  0  0  0  0  0  0
    7.5462   -4.4740   23.1078 C   0  0  0  0  0  0  0  0  0  0  0  0
    6.4564   -4.8265   22.0807 C   0  0  0  0  0  0  0  0  0  0  0  0
    6.4869   -5.8980   21.8452 H   0  0  0  0  0  0  0  0  0  0  0  0
    6.6515   -4.3005   21.1348 H   0  0  0  0  0  0  0  0  0  0  0  0
    7.5072   -5.1828   23.9472 H   0  0  0  0  0  0  0  0  0  0  0  0
    8.5476   -4.5686   22.6696 H   0  0  0  0  0  0  0  0  0  0  0  0
    8.1302   -2.8244   24.3820 H   0  0  0  0  0  0  0  0  0  0  0  0
    6.0526   -3.4066   25.3752 H   0  0  0  0  0  0  0  0  0  0  0  0
    5.7022   -1.9001   24.5663 H   0  0  0  0  0  0  0  0  0  0  0  0
    3.8365   -3.3875   23.8953 H   0  0  0  0  0  0  0  0  0  0  0  0
    4.2256   -4.8123   21.9855 H   0  0  0  0  0  0  0  0  0  0  0  0
  1  2  2  0
  2  3  1  0
  3  4  1  0
  4  5  1  0
  5  6  2  0
  6  7  1  0
  7  8  1  0
  8  9  2  0
  9 10  1  0
 10 11  2  0
 11 12  1  0
 12 13  2  0
 13 14  1  0
 11 15  1  0
 10 16  1  0
  9 17  1  0
  7 18  1  0
 18 19  1  0
 19 20  1  0
 20 21  1  0
 21 22  2  0
 22 23  1  0
 23 24  2  0
 24 25  1  0
 25 26  2  0
 26 27  1  0
 24 28  1  0
 23 29  1  0
 22 30  1  0
 19 31  1  0
 19 32  1  0
 18 33  2  0
  4 34  1  0
 34 35  1  0
 35 36  1  0
 35 37  1  0
 34 38  1  0
 34 39  1  0
  4 40  1  0
  3 41  1  0
  3 42  1  0
  2 43  1  0
  1 44  1  0
 35  1  1  0
 33  5  1  0
 13  8  1  0
 26 21  1  0
M  END
>  <cnnaffinity>  (1) 
-6.04476

>  <filename>  (1) 
C1=CCC(c2nc(COc3cccnc3)n(-c3cccnc3)n2)CC1

$$$$
