
     RDKit          3D

 47 50  0  0  0  0  0  0  0  0999 V2000
    7.7745   -4.4126   26.1396 C   0  0  0  0  0  0  0  0  0  0  0  0
    7.4446   -3.1243   26.2485 C   0  0  0  0  0  0  0  0  0  0  0  0
    7.4395   -2.1704   25.0772 C   0  0  0  0  0  0  0  0  0  0  0  0
    7.4236   -2.9041   23.7045 C   0  0  0  0  0  0  0  0  0  0  0  0
    7.6602   -1.9360   22.5876 C   0  0  0  0  0  0  0  0  0  0  0  0
    6.7252   -1.5671   21.7386 N   0  0  0  0  0  0  0  0  0  0  0  0
    7.3564   -0.6357   20.9713 N   0  0  0  0  0  0  0  0  0  0  0  0
    6.6668    0.0159   19.9071 C   0  0  0  0  0  0  0  0  0  0  0  0
    5.4433    0.6464   20.1574 C   0  0  0  0  0  0  0  0  0  0  0  0
    4.8175    1.3109   19.0999 C   0  0  0  0  0  0  0  0  0  0  0  0
    5.4140    1.2993   17.8333 C   0  0  0  0  0  0  0  0  0  0  0  0
    6.5667    0.6627   17.5756 N   0  0  0  0  0  0  0  0  0  0  0  0
    7.1726    0.0384   18.5936 C   0  0  0  0  0  0  0  0  0  0  0  0
    8.1028   -0.4765   18.3560 H   0  0  0  0  0  0  0  0  0  0  0  0
    4.9470    1.8109   16.9938 H   0  0  0  0  0  0  0  0  0  0  0  0
    3.8820    1.8385   19.2467 H   0  0  0  0  0  0  0  0  0  0  0  0
    5.0135    0.6024   21.1592 H   0  0  0  0  0  0  0  0  0  0  0  0
    8.6235   -0.4669   21.4435 C   0  0  0  0  0  0  0  0  0  0  0  0
    9.5388    0.6114   20.9852 C   0  0  0  0  0  0  0  0  0  0  0  0
    9.0739    2.0150   21.4006 C   0  0  0  0  0  0  0  0  0  0  0  0
    8.5713    2.0907   22.7282 O   0  0  0  0  0  0  0  0  0  0  0  0
    9.3169    1.7391   23.8056 C   0  0  0  0  0  0  0  0  0  0  0  0
    8.5967    1.4717   24.9809 C   0  0  0  0  0  0  0  0  0  0  0  0
    9.3086    1.0583   26.1082 C   0  0  0  0  0  0  0  0  0  0  0  0
   10.6985    0.9332   26.0365 C   0  0  0  0  0  0  0  0  0  0  0  0
   11.4089    1.2485   24.9441 N   0  0  0  0  0  0  0  0  0  0  0  0
   10.7254    1.6611   23.8624 C   0  0  0  0  0  0  0  0  0  0  0  0
   11.3185    1.9852   23.0076 H   0  0  0  0  0  0  0  0  0  0  0  0
   11.2305    0.5690   26.9141 H   0  0  0  0  0  0  0  0  0  0  0  0
    8.8233    0.8302   27.0501 H   0  0  0  0  0  0  0  0  0  0  0  0
    7.5145    1.5867   24.9702 H   0  0  0  0  0  0  0  0  0  0  0  0
    8.2220    2.3358   20.7904 H   0  0  0  0  0  0  0  0  0  0  0  0
    9.8848    2.7462   21.2861 H   0  0  0  0  0  0  0  0  0  0  0  0
    9.6117    0.5972   19.9014 H   0  0  0  0  0  0  0  0  0  0  0  0
   10.5321    0.3920   21.3836 H   0  0  0  0  0  0  0  0  0  0  0  0
    8.8592   -1.3067   22.4271 N   0  0  0  0  0  0  0  0  0  0  0  0
    8.4639   -4.0497   23.7192 C   0  0  0  0  0  0  0  0  0  0  0  0
    8.1402   -5.0699   24.8272 C   0  0  0  0  0  0  0  0  0  0  0  0
    8.9876   -5.7505   24.9792 H   0  0  0  0  0  0  0  0  0  0  0  0
    7.3025   -5.7117   24.5130 H   0  0  0  0  0  0  0  0  0  0  0  0
    8.4975   -4.5528   22.7456 H   0  0  0  0  0  0  0  0  0  0  0  0
    9.4603   -3.6142   23.8850 H   0  0  0  0  0  0  0  0  0  0  0  0
    6.4229   -3.3211   23.5315 H   0  0  0  0  0  0  0  0  0  0  0  0
    8.3461   -1.5473   25.1326 H   0  0  0  0  0  0  0  0  0  0  0  0
    6.5921   -1.4754   25.1613 H   0  0  0  0  0  0  0  0  0  0  0  0
    7.1987   -2.7071   27.2257 H   0  0  0  0  0  0  0  0  0  0  0  0
    7.7641   -5.0496   27.0256 H   0  0  0  0  0  0  0  0  0  0  0  0
  1  2  2  0
  2  3  1  0
  3  4  1  0
  4  5  1  0
  5  6  2  0
  6  7  1  0
  7  8  1  0
  8  9  2  0
  9 10  1  0
 10 11  2  0
 11 12  1  0
 12 13  2  0
 13 14  1  0
 11 15  1  0
 10 16  1  0
  9 17  1  0
  7 18  1  0
 18 19  1  0
 19 20  1  0
 20 21  1  0
 21 22  1  0
 22 23  2  0
 23 24  1  0
 24 25  2  0
 25 26  1  0
 26 27  2  0
 27 28  1  0
 25 29  1  0
 24 30  1  0
 23 31  1  0
 20 32  1  0
 20 33  1  0
 19 34  1  0
 19 35  1  0
 18 36  2  0
  4 37  1  0
 37 38  1  0
 38 39  1  0
 38 40  1  0
 37 41  1  0
 37 42  1  0
  4 43  1  0
  3 44  1  0
  3 45  1  0
  2 46  1  0
  1 47  1  0
 38  1  1  0
 36  5  1  0
 13  8  1  0
 27 22  1  0
M  END
>  <cnnaffinity>  (1) 
-6.21814

>  <filename>  (1) 
C1=CCC(c2nc(CCOc3cccnc3)n(-c3cccnc3)n2)CC1

$$$$
