
     RDKit          3D

 43 46  0  0  0  0  0  0  0  0999 V2000
    6.3030   -4.7964   25.7741 C   0  0  0  0  0  0  0  0  0  0  0  0
    6.2064   -3.4753   25.9408 C   0  0  0  0  0  0  0  0  0  0  0  0
    6.6259   -2.4728   24.8928 C   0  0  0  0  0  0  0  0  0  0  0  0
    7.5158   -3.1098   23.7872 C   0  0  0  0  0  0  0  0  0  0  0  0
    7.7355   -2.1606   22.6506 C   0  0  0  0  0  0  0  0  0  0  0  0
    8.8329   -1.4448   22.5440 N   0  0  0  0  0  0  0  0  0  0  0  0
    8.6062   -0.6790   21.4488 N   0  0  0  0  0  0  0  0  0  0  0  0
    9.5115    0.4436   21.1873 C   0  0  0  0  0  0  0  0  0  0  0  0
    8.9906    1.7695   21.7465 C   0  0  0  0  0  0  0  0  0  0  0  0
    8.0080    2.5609   21.2708 C   0  0  0  0  0  0  0  0  0  0  0  0
    8.0404    4.4677   22.6349 C   0  0  0  0  0  0  0  0  0  0  0  0
    8.0916    4.0185   22.6224 C   0  0  0  0  0  0  0  0  0  0  0  0
    9.1187    3.4058   23.3652 C   0  0  0  0  0  0  0  0  0  0  0  0
    9.6084    2.2509   22.9656 N   0  0  0  0  0  0  0  0  0  0  0  0
    9.2919    3.7721   24.3409 H   0  0  0  0  0  0  0  0  0  0  0  0
    7.9428    5.4726   23.1261 H   0  0  0  0  0  0  0  0  0  0  0  0
    8.1484    4.8266   21.5442 H   0  0  0  0  0  0  0  0  0  0  0  0
    7.2228    2.3236   20.5663 H   0  0  0  0  0  0  0  0  0  0  0  0
   10.4606    0.1869   21.6693 H   0  0  0  0  0  0  0  0  0  0  0  0
    9.6919    0.4830   20.1024 H   0  0  0  0  0  0  0  0  0  0  0  0
    7.3626   -0.9545   20.9708 C   0  0  0  0  0  0  0  0  0  0  0  0
    6.7207   -0.2375   19.8574 C   0  0  0  0  0  0  0  0  0  0  0  0
    5.4394    0.3148   20.0027 C   0  0  0  0  0  0  0  0  0  0  0  0
    4.9019    1.0290   18.9352 C   0  0  0  0  0  0  0  0  0  0  0  0
    5.6439    1.1426   17.7547 C   0  0  0  0  0  0  0  0  0  0  0  0
    6.8637    0.6045   17.5961 N   0  0  0  0  0  0  0  0  0  0  0  0
    7.3820   -0.0571   18.6355 C   0  0  0  0  0  0  0  0  0  0  0  0
    8.3851   -0.4610   18.4906 H   0  0  0  0  0  0  0  0  0  0  0  0
    5.2440    1.6718   16.8933 H   0  0  0  0  0  0  0  0  0  0  0  0
    3.9228    1.4911   19.0004 H   0  0  0  0  0  0  0  0  0  0  0  0
    4.8987    0.2033   20.9465 H   0  0  0  0  0  0  0  0  0  0  0  0
    6.7930   -1.8898   21.7056 N   0  0  0  0  0  0  0  0  0  0  0  0
    6.9111   -4.4513   23.3279 C   0  0  0  0  0  0  0  0  0  0  0  0
    6.8095   -5.4408   24.5028 C   0  0  0  0  0  0  0  0  0  0  0  0
    7.7946   -5.8891   24.7060 H   0  0  0  0  0  0  0  0  0  0  0  0
    6.1554   -6.2795   24.2310 H   0  0  0  0  0  0  0  0  0  0  0  0
    7.5146   -4.8874   22.5246 H   0  0  0  0  0  0  0  0  0  0  0  0
    5.9166   -4.2564   22.9045 H   0  0  0  0  0  0  0  0  0  0  0  0
    8.5097   -3.2908   24.2145 H   0  0  0  0  0  0  0  0  0  0  0  0
    7.1546   -1.6367   25.3674 H   0  0  0  0  0  0  0  0  0  0  0  0
    5.7275   -2.0341   24.4346 H   0  0  0  0  0  0  0  0  0  0  0  0
    5.7943   -3.0736   26.8668 H   0  0  0  0  0  0  0  0  0  0  0  0
    6.0249   -5.4671   26.5883 H   0  0  0  0  0  0  0  0  0  0  0  0
  1  2  2  0
  2  3  1  0
  3  4  1  0
  4  5  1  0
  5  6  2  0
  6  7  1  0
  7  8  1  0
  8  9  1  0
  9 10  2  0
 10 11  1  0
 11 12  2  0
 12 13  1  0
 13 14  2  0
 13 15  1  0
 12 16  1  0
 11 17  1  0
 10 18  1  0
  8 19  1  0
  8 20  1  0
  7 21  1  0
 21 22  1  0
 22 23  2  0
 23 24  1  0
 24 25  2  0
 25 26  1  0
 26 27  2  0
 27 28  1  0
 25 29  1  0
 24 30  1  0
 23 31  1  0
 21 32  2  0
  4 33  1  0
 33 34  1  0
 34 35  1  0
 34 36  1  0
 33 37  1  0
 33 38  1  0
  4 39  1  0
  3 40  1  0
  3 41  1  0
  2 42  1  0
  1 43  1  0
 34  1  1  0
 32  5  1  0
 14  9  1  0
 27 22  1  0
M  END
>  <cnnaffinity>  (1) 
-6.01629

>  <filename>  (1) 
C1=CCC(c2nc(-c3cccnc3)n(Cc3ccccn3)n2)CC1

$$$$
