
     RDKit          3D

 35 38  0  0  0  0  0  0  0  0999 V2000
    8.7109   -0.6031   21.1186 C   0  0  0  0  0  0  0  0  0  0  0  0
    7.3889   -0.7585   20.9722 C   0  0  0  0  0  0  0  0  0  0  0  0
    6.6377   -0.0302   19.9102 C   0  0  0  0  0  0  0  0  0  0  0  0
    5.4204    0.6300   20.1499 C   0  0  0  0  0  0  0  0  0  0  0  0
    4.7964    1.3041   19.0957 C   0  0  0  0  0  0  0  0  0  0  0  0
    5.3941    1.2948   17.8313 C   0  0  0  0  0  0  0  0  0  0  0  0
    6.5552    0.6734   17.5745 N   0  0  0  0  0  0  0  0  0  0  0  0
    7.1542    0.0547   18.5973 C   0  0  0  0  0  0  0  0  0  0  0  0
    8.1048   -0.4184   18.3593 H   0  0  0  0  0  0  0  0  0  0  0  0
    4.9350    1.8031   16.9846 H   0  0  0  0  0  0  0  0  0  0  0  0
    3.8700    1.8469   19.2377 H   0  0  0  0  0  0  0  0  0  0  0  0
    4.9911    0.6451   21.1534 H   0  0  0  0  0  0  0  0  0  0  0  0
    6.6006   -1.6232   21.9541 C   0  0  0  0  0  0  0  0  0  0  0  0
    7.4595   -2.5733   22.6770 N   0  0  0  0  0  0  0  0  0  0  0  0
    6.9133   -3.6912   23.2306 C   0  0  0  0  0  0  0  0  0  0  0  0
    6.9897   -3.8923   24.5435 N   0  0  0  0  0  0  0  0  0  0  0  0
    6.4065   -5.0101   25.0090 C   0  0  0  0  0  0  0  0  0  0  0  0
    5.8346   -5.9851   24.3209 N   0  0  0  0  0  0  0  0  0  0  0  0
    5.8531   -5.7554   22.9997 C   0  0  0  0  0  0  0  0  0  0  0  0
    6.3285   -4.6168   22.3706 C   0  0  0  0  0  0  0  0  0  0  0  0
    6.1900   -4.8584   20.9847 C   0  0  0  0  0  0  0  0  0  0  0  0
    5.6528   -6.0427   20.7726 N   0  0  0  0  0  0  0  0  0  0  0  0
    5.4495   -6.5747   22.0075 N   0  0  0  0  0  0  0  0  0  0  0  0
    5.0532   -7.4893   22.1543 H   0  0  0  0  0  0  0  0  0  0  0  0
    6.4816   -4.2583   20.1306 H   0  0  0  0  0  0  0  0  0  0  0  0
    6.4254   -5.1315   26.0933 H   0  0  0  0  0  0  0  0  0  0  0  0
    8.6421   -1.9552   23.2631 C   0  0  0  0  0  0  0  0  0  0  0  0
    9.5116   -1.3844   22.1333 C   0  0  0  0  0  0  0  0  0  0  0  0
   10.0262   -2.1992   21.6070 H   0  0  0  0  0  0  0  0  0  0  0  0
   10.2931   -0.7512   22.5611 H   0  0  0  0  0  0  0  0  0  0  0  0
    9.2044   -2.6910   23.8496 H   0  0  0  0  0  0  0  0  0  0  0  0
    8.3342   -1.1559   23.9572 H   0  0  0  0  0  0  0  0  0  0  0  0
    5.8165   -2.1549   21.4040 H   0  0  0  0  0  0  0  0  0  0  0  0
    6.1046   -0.9353   22.6622 H   0  0  0  0  0  0  0  0  0  0  0  0
    9.2464    0.1073   20.4890 H   0  0  0  0  0  0  0  0  0  0  0  0
  1  2  2  0
  2  3  1  0
  3  4  2  0
  4  5  1  0
  5  6  2  0
  6  7  1  0
  7  8  2  0
  8  9  1  0
  6 10  1  0
  5 11  1  0
  4 12  1  0
  2 13  1  0
 13 14  1  0
 14 15  1  0
 15 16  2  0
 16 17  1  0
 17 18  2  0
 18 19  1  0
 19 20  2  0
 20 21  1  0
 21 22  2  0
 22 23  1  0
 23 24  1  0
 21 25  1  0
 17 26  1  0
 14 27  1  0
 27 28  1  0
 28 29  1  0
 28 30  1  0
 27 31  1  0
 27 32  1  0
 13 33  1  0
 13 34  1  0
  1 35  1  0
 28  1  1  0
  8  3  1  0
 20 15  1  0
 23 19  1  0
M  END
>  <cnnaffinity>  (1) 
-5.61746

>  <filename>  (1) 
C1=C(c2cccnc2)CN(c2ncnc3[nH]ncc23)CC1

$$$$
