
     RDKit          3D

 45 48  0  0  0  0  0  0  0  0999 V2000
    7.9902    1.4161   25.0006 C   0  0  0  0  0  0  0  0  0  0  0  0
    8.0222    1.7314   23.7041 C   0  0  0  0  0  0  0  0  0  0  0  0
    6.9559    1.2543   22.7370 C   0  0  0  0  0  0  0  0  0  0  0  0
    7.2867   -0.1240   22.2219 C   0  0  0  0  0  0  0  0  0  0  0  0
    7.8031   -1.1057   22.9432 N   0  0  0  0  0  0  0  0  0  0  0  0
    8.0394   -2.0808   22.0334 C   0  0  0  0  0  0  0  0  0  0  0  0
    8.5674   -3.4659   22.3599 C   0  0  0  0  0  0  0  0  0  0  0  0
    7.5901   -4.3467   23.1946 C   0  0  0  0  0  0  0  0  0  0  0  0
    8.5597   -5.2060   24.0240 C   0  0  0  0  0  0  0  0  0  0  0  0
    9.6907   -4.2093   24.2871 C   0  0  0  0  0  0  0  0  0  0  0  0
    9.8044   -3.4702   23.0750 O   0  0  0  0  0  0  0  0  0  0  0  0
   10.6763   -4.6445   24.4906 H   0  0  0  0  0  0  0  0  0  0  0  0
    9.4488   -3.5338   25.1250 H   0  0  0  0  0  0  0  0  0  0  0  0
    8.9341   -6.0451   23.4245 H   0  0  0  0  0  0  0  0  0  0  0  0
    8.1215   -5.6181   24.9409 H   0  0  0  0  0  0  0  0  0  0  0  0
    6.8972   -4.9205   22.5640 H   0  0  0  0  0  0  0  0  0  0  0  0
    6.9849   -3.7023   23.8494 H   0  0  0  0  0  0  0  0  0  0  0  0
    8.7431   -3.9032   21.3703 H   0  0  0  0  0  0  0  0  0  0  0  0
    7.6686   -1.7833   20.8012 N   0  0  0  0  0  0  0  0  0  0  0  0
    7.1560   -0.5362   20.9237 N   0  0  0  0  0  0  0  0  0  0  0  0
    6.5259    0.0939   19.8249 C   0  0  0  0  0  0  0  0  0  0  0  0
    5.3253    0.7934   19.9879 C   0  0  0  0  0  0  0  0  0  0  0  0
    4.7746    1.4167   18.8672 C   0  0  0  0  0  0  0  0  0  0  0  0
    5.4441    1.3219   17.6435 C   0  0  0  0  0  0  0  0  0  0  0  0
    6.5805    0.6179   17.4776 N   0  0  0  0  0  0  0  0  0  0  0  0
    7.0941   -0.0035   18.5436 C   0  0  0  0  0  0  0  0  0  0  0  0
    7.9868   -0.6098   18.3910 H   0  0  0  0  0  0  0  0  0  0  0  0
    5.0511    1.8069   16.7531 H   0  0  0  0  0  0  0  0  0  0  0  0
    3.8495    1.9802   18.9458 H   0  0  0  0  0  0  0  0  0  0  0  0
    4.8396    0.8338   20.9634 H   0  0  0  0  0  0  0  0  0  0  0  0
    5.9755    1.2161   23.2268 H   0  0  0  0  0  0  0  0  0  0  0  0
    6.8841    1.9430   21.8884 H   0  0  0  0  0  0  0  0  0  0  0  0
    9.2709    2.2658   23.0232 C   0  0  0  0  0  0  0  0  0  0  0  0
   10.4393    2.5648   23.9844 C   0  0  0  0  0  0  0  0  0  0  0  0
   10.5212    1.4437   25.0294 C   0  0  0  0  0  0  0  0  0  0  0  0
    9.2317    1.4032   25.8674 C   0  0  0  0  0  0  0  0  0  0  0  0
    9.2066    2.2740   26.5351 H   0  0  0  0  0  0  0  0  0  0  0  0
    9.2285    0.5249   26.5247 H   0  0  0  0  0  0  0  0  0  0  0  0
   11.3790    1.5536   25.6926 H   0  0  0  0  0  0  0  0  0  0  0  0
   10.6622    0.4848   24.5094 H   0  0  0  0  0  0  0  0  0  0  0  0
   10.2787    3.5285   24.4893 H   0  0  0  0  0  0  0  0  0  0  0  0
   11.3761    2.6727   23.4208 H   0  0  0  0  0  0  0  0  0  0  0  0
    9.0243    3.1431   22.4180 H   0  0  0  0  0  0  0  0  0  0  0  0
    9.5720    1.5011   22.2927 H   0  0  0  0  0  0  0  0  0  0  0  0
    7.0499    1.1040   25.4520 H   0  0  0  0  0  0  0  0  0  0  0  0
  1  2  2  0
  2  3  1  0
  3  4  1  0
  4  5  2  0
  5  6  1  0
  6  7  1  0
  7  8  1  0
  8  9  1  0
  9 10  1  0
 10 11  1  0
 10 12  1  0
 10 13  1  0
  9 14  1  0
  9 15  1  0
  8 16  1  0
  8 17  1  0
  7 18  1  0
  6 19  2  0
 19 20  1  0
 20 21  1  0
 21 22  2  0
 22 23  1  0
 23 24  2  0
 24 25  1  0
 25 26  2  0
 26 27  1  0
 24 28  1  0
 23 29  1  0
 22 30  1  0
  3 31  1  0
  3 32  1  0
  2 33  1  0
 33 34  1  0
 34 35  1  0
 35 36  1  0
 36 37  1  0
 36 38  1  0
 35 39  1  0
 35 40  1  0
 34 41  1  0
 34 42  1  0
 33 43  1  0
 33 44  1  0
  1 45  1  0
 36  1  1  0
 20  4  1  0
 26 21  1  0
 11  7  1  0
M  END
>  <cnnaffinity>  (1) 
-6.08489

>  <filename>  (1) 
C1=C(Cc2nc(C3CCCO3)nn2-c2cccnc2)CCCC1

$$$$
