
     RDKit          3D

 43 46  0  0  0  0  0  0  0  0999 V2000
   11.8085    0.0423   21.9031 C   0  0  0  0  0  0  0  0  0  0  0  0
   10.6989    0.7372   21.6535 C   0  0  0  0  0  0  0  0  0  0  0  0
    9.6560    0.2301   20.6918 C   0  0  0  0  0  0  0  0  0  0  0  0
    8.6273   -0.6306   21.3435 C   0  0  0  0  0  0  0  0  0  0  0  0
    8.8374   -1.4842   22.3220 N   0  0  0  0  0  0  0  0  0  0  0  0
    7.6032   -1.9932   22.5502 C   0  0  0  0  0  0  0  0  0  0  0  0
    7.3835   -2.9736   23.6447 C   0  0  0  0  0  0  0  0  0  0  0  0
    8.2455   -4.2519   23.5514 C   0  0  0  0  0  0  0  0  0  0  0  0
    8.3793   -4.6899   25.0131 C   0  0  0  0  0  0  0  0  0  0  0  0
    8.1021   -3.5484   25.8099 O   0  0  0  0  0  0  0  0  0  0  0  0
    7.7541   -2.4204   25.0320 C   0  0  0  0  0  0  0  0  0  0  0  0
    8.5968   -1.7089   24.9869 H   0  0  0  0  0  0  0  0  0  0  0  0
    6.9116   -1.9196   25.5279 H   0  0  0  0  0  0  0  0  0  0  0  0
    9.3866   -5.0641   25.2486 H   0  0  0  0  0  0  0  0  0  0  0  0
    7.6643   -5.4833   25.2778 H   0  0  0  0  0  0  0  0  0  0  0  0
    9.2286   -4.0155   23.1273 H   0  0  0  0  0  0  0  0  0  0  0  0
    7.7833   -5.0240   22.9308 H   0  0  0  0  0  0  0  0  0  0  0  0
    6.3228   -3.2247   23.6266 H   0  0  0  0  0  0  0  0  0  0  0  0
    6.6574   -1.5466   21.7583 N   0  0  0  0  0  0  0  0  0  0  0  0
    7.3253   -0.6905   20.9386 N   0  0  0  0  0  0  0  0  0  0  0  0
    6.6512    0.0035   19.9013 C   0  0  0  0  0  0  0  0  0  0  0  0
    5.4360    0.6464   20.1652 C   0  0  0  0  0  0  0  0  0  0  0  0
    4.8121    1.3121   19.1086 C   0  0  0  0  0  0  0  0  0  0  0  0
    5.4013    1.2953   17.8371 C   0  0  0  0  0  0  0  0  0  0  0  0
    6.5591    0.6711   17.5775 N   0  0  0  0  0  0  0  0  0  0  0  0
    7.1666    0.0505   18.5933 C   0  0  0  0  0  0  0  0  0  0  0  0
    8.1135   -0.4303   18.3632 H   0  0  0  0  0  0  0  0  0  0  0  0
    4.9213    1.7848   16.9927 H   0  0  0  0  0  0  0  0  0  0  0  0
    3.8802    1.8406   19.2598 H   0  0  0  0  0  0  0  0  0  0  0  0
    5.0167    0.6090   21.1739 H   0  0  0  0  0  0  0  0  0  0  0  0
    9.1796    1.0750   20.1901 H   0  0  0  0  0  0  0  0  0  0  0  0
   10.0943   -0.4162   19.9234 H   0  0  0  0  0  0  0  0  0  0  0  0
   10.3106    1.9256   22.5131 C   0  0  0  0  0  0  0  0  0  0  0  0
   11.4978    2.4142   23.3495 C   0  0  0  0  0  0  0  0  0  0  0  0
   12.1798    1.3227   23.9459 O   0  0  0  0  0  0  0  0  0  0  0  0
   12.7833    0.4927   22.9657 C   0  0  0  0  0  0  0  0  0  0  0  0
   13.2147   -0.3559   23.4982 H   0  0  0  0  0  0  0  0  0  0  0  0
   13.6114    1.0350   22.4812 H   0  0  0  0  0  0  0  0  0  0  0  0
   12.1983    2.9815   22.7152 H   0  0  0  0  0  0  0  0  0  0  0  0
   11.1719    3.0660   24.1640 H   0  0  0  0  0  0  0  0  0  0  0  0
    9.4925    1.6289   23.1847 H   0  0  0  0  0  0  0  0  0  0  0  0
    9.9245    2.7422   21.8936 H   0  0  0  0  0  0  0  0  0  0  0  0
   12.0219   -0.8756   21.3591 H   0  0  0  0  0  0  0  0  0  0  0  0
  1  2  2  0
  2  3  1  0
  3  4  1  0
  4  5  2  0
  5  6  1  0
  6  7  1  0
  7  8  1  0
  8  9  1  0
  9 10  1  0
 10 11  1  0
 11 12  1  0
 11 13  1  0
  9 14  1  0
  9 15  1  0
  8 16  1  0
  8 17  1  0
  7 18  1  0
  6 19  2  0
 19 20  1  0
 20 21  1  0
 21 22  2  0
 22 23  1  0
 23 24  2  0
 24 25  1  0
 25 26  2  0
 26 27  1  0
 24 28  1  0
 23 29  1  0
 22 30  1  0
  3 31  1  0
  3 32  1  0
  2 33  1  0
 33 34  1  0
 34 35  1  0
 35 36  1  0
 36 37  1  0
 36 38  1  0
 34 39  1  0
 34 40  1  0
 33 41  1  0
 33 42  1  0
  1 43  1  0
 36  1  1  0
 20  4  1  0
 26 21  1  0
 11  7  1  0
M  END
>  <cnnaffinity>  (1) 
-5.96764

>  <filename>  (1) 
C1=C(Cc2nc(C3CCOC3)nn2-c2cccnc2)CCOC1

$$$$
