
     RDKit          3D

 36 39  0  0  0  0  0  0  0  0999 V2000
    8.7129   -0.6011   21.1210 C   0  0  0  0  0  0  0  0  0  0  0  0
    7.3916   -0.7540   20.9776 C   0  0  0  0  0  0  0  0  0  0  0  0
    6.6388   -0.0287   19.9126 C   0  0  0  0  0  0  0  0  0  0  0  0
    5.4211    0.6301   20.1511 C   0  0  0  0  0  0  0  0  0  0  0  0
    4.7972    1.3036   19.0963 C   0  0  0  0  0  0  0  0  0  0  0  0
    5.3941    1.2944   17.8317 C   0  0  0  0  0  0  0  0  0  0  0  0
    6.5553    0.6729   17.5757 N   0  0  0  0  0  0  0  0  0  0  0  0
    7.1548    0.0554   18.5994 C   0  0  0  0  0  0  0  0  0  0  0  0
    8.1057   -0.4160   18.3594 H   0  0  0  0  0  0  0  0  0  0  0  0
    4.9345    1.8025   16.9843 H   0  0  0  0  0  0  0  0  0  0  0  0
    3.8710    1.8463   19.2378 H   0  0  0  0  0  0  0  0  0  0  0  0
    4.9912    0.6453   21.1539 H   0  0  0  0  0  0  0  0  0  0  0  0
    6.6000   -1.6107   21.9654 C   0  0  0  0  0  0  0  0  0  0  0  0
    7.4454   -2.5447   22.7183 N   0  0  0  0  0  0  0  0  0  0  0  0
    6.9051   -3.6948   23.2201 C   0  0  0  0  0  0  0  0  0  0  0  0
    6.9493   -3.8958   24.5411 N   0  0  0  0  0  0  0  0  0  0  0  0
    6.3682   -5.0153   24.9872 C   0  0  0  0  0  0  0  0  0  0  0  0
    5.8269   -5.9937   24.2718 N   0  0  0  0  0  0  0  0  0  0  0  0
    5.8851   -5.7577   22.9582 C   0  0  0  0  0  0  0  0  0  0  0  0
    6.3645   -4.6208   22.3151 C   0  0  0  0  0  0  0  0  0  0  0  0
    6.2454   -4.8445   20.8901 C   0  0  0  0  0  0  0  0  0  0  0  0
    5.7029   -6.0918   20.7525 C   0  0  0  0  0  0  0  0  0  0  0  0
    5.4892   -6.6312   22.0049 N   0  0  0  0  0  0  0  0  0  0  0  0
    5.0986   -7.5169   22.2749 H   0  0  0  0  0  0  0  0  0  0  0  0
    5.4520   -6.6529   19.8599 H   0  0  0  0  0  0  0  0  0  0  0  0
    6.5949   -4.1885   20.0987 H   0  0  0  0  0  0  0  0  0  0  0  0
    6.3576   -5.1375   26.0741 H   0  0  0  0  0  0  0  0  0  0  0  0
    8.6465   -1.9484   23.2784 C   0  0  0  0  0  0  0  0  0  0  0  0
    9.5106   -1.3849   22.1364 C   0  0  0  0  0  0  0  0  0  0  0  0
   10.2952   -0.7522   22.5587 H   0  0  0  0  0  0  0  0  0  0  0  0
   10.0235   -2.1998   21.6088 H   0  0  0  0  0  0  0  0  0  0  0  0
    9.2115   -2.6937   23.8513 H   0  0  0  0  0  0  0  0  0  0  0  0
    8.3627   -1.1436   23.9763 H   0  0  0  0  0  0  0  0  0  0  0  0
    5.8284   -2.1556   21.4116 H   0  0  0  0  0  0  0  0  0  0  0  0
    6.0907   -0.9159   22.6555 H   0  0  0  0  0  0  0  0  0  0  0  0
    9.2493    0.1064   20.4889 H   0  0  0  0  0  0  0  0  0  0  0  0
  1  2  2  0
  2  3  1  0
  3  4  2  0
  4  5  1  0
  5  6  2  0
  6  7  1  0
  7  8  2  0
  8  9  1  0
  6 10  1  0
  5 11  1  0
  4 12  1  0
  2 13  1  0
 13 14  1  0
 14 15  1  0
 15 16  2  0
 16 17  1  0
 17 18  2  0
 18 19  1  0
 19 20  2  0
 20 21  1  0
 21 22  2  0
 22 23  1  0
 23 24  1  0
 22 25  1  0
 21 26  1  0
 17 27  1  0
 14 28  1  0
 28 29  1  0
 29 30  1  0
 29 31  1  0
 28 32  1  0
 28 33  1  0
 13 34  1  0
 13 35  1  0
  1 36  1  0
 29  1  1  0
  8  3  1  0
 20 15  1  0
 23 19  1  0
M  END
>  <cnnaffinity>  (1) 
-5.3312

>  <filename>  (1) 
C1=C(c2cccnc2)CN(c2ncnc3[nH]ccc23)CC1

$$$$
