
     RDKit          3D

 46 49  0  0  0  0  0  0  0  0999 V2000
    8.9863   -3.2259   25.2484 C   0  0  0  0  0  0  0  0  0  0  0  0
   10.0215   -2.8589   24.4865 C   0  0  0  0  0  0  0  0  0  0  0  0
   10.0803   -2.9893   22.9969 C   0  0  0  0  0  0  0  0  0  0  0  0
    8.7050   -3.3077   22.3606 C   0  0  0  0  0  0  0  0  0  0  0  0
    7.9986   -2.0045   22.0859 C   0  0  0  0  0  0  0  0  0  0  0  0
    7.6063   -1.7089   20.8635 N   0  0  0  0  0  0  0  0  0  0  0  0
    7.2126   -0.4129   20.9745 N   0  0  0  0  0  0  0  0  0  0  0  0
    6.5680    0.2072   19.8802 C   0  0  0  0  0  0  0  0  0  0  0  0
    5.3776    0.9218   20.0432 C   0  0  0  0  0  0  0  0  0  0  0  0
    4.8035    1.4859   18.9008 C   0  0  0  0  0  0  0  0  0  0  0  0
    5.4338    1.3191   17.6636 C   0  0  0  0  0  0  0  0  0  0  0  0
    6.5667    0.6091   17.5033 N   0  0  0  0  0  0  0  0  0  0  0  0
    7.1068    0.0514   18.5905 C   0  0  0  0  0  0  0  0  0  0  0  0
    8.0158   -0.5326   18.4516 H   0  0  0  0  0  0  0  0  0  0  0  0
    5.0110    1.7619   16.7649 H   0  0  0  0  0  0  0  0  0  0  0  0
    3.8801    2.0501   18.9676 H   0  0  0  0  0  0  0  0  0  0  0  0
    4.9066    0.9941   21.0255 H   0  0  0  0  0  0  0  0  0  0  0  0
    7.4872    0.0371   22.2346 C   0  0  0  0  0  0  0  0  0  0  0  0
    7.5975    1.4997   22.5563 C   0  0  0  0  0  0  0  0  0  0  0  0
    8.5685    2.2712   21.6279 C   0  0  0  0  0  0  0  0  0  0  0  0
    9.9868    1.6676   21.5674 C   0  0  0  0  0  0  0  0  0  0  0  0
   10.6531    1.5576   22.9105 C   0  0  0  0  0  0  0  0  0  0  0  0
   10.7420    0.4473   23.7020 C   0  0  0  0  0  0  0  0  0  0  0  0
   11.4367    0.8553   24.7855 N   0  0  0  0  0  0  0  0  0  0  0  0
   11.7593    2.1446   24.6884 N   0  0  0  0  0  0  0  0  0  0  0  0
   11.2787    2.5777   23.5643 N   0  0  0  0  0  0  0  0  0  0  0  0
   11.7602    0.3329   25.5854 H   0  0  0  0  0  0  0  0  0  0  0  0
   10.2893   -0.5145   23.5851 H   0  0  0  0  0  0  0  0  0  0  0  0
    9.9129    0.6554   21.1422 H   0  0  0  0  0  0  0  0  0  0  0  0
   10.6293    2.2501   20.8948 H   0  0  0  0  0  0  0  0  0  0  0  0
    8.1506    2.2909   20.6136 H   0  0  0  0  0  0  0  0  0  0  0  0
    8.6401    3.3119   21.9693 H   0  0  0  0  0  0  0  0  0  0  0  0
    6.6041    1.9578   22.5041 H   0  0  0  0  0  0  0  0  0  0  0  0
    7.9113    1.5884   23.5998 H   0  0  0  0  0  0  0  0  0  0  0  0
    7.8868   -0.9810   22.9803 N   0  0  0  0  0  0  0  0  0  0  0  0
    7.9232   -4.3212   23.2349 C   0  0  0  0  0  0  0  0  0  0  0  0
    7.7126   -3.7875   24.6590 C   0  0  0  0  0  0  0  0  0  0  0  0
    7.3142   -4.5687   25.3171 H   0  0  0  0  0  0  0  0  0  0  0  0
    6.9475   -2.9994   24.6315 H   0  0  0  0  0  0  0  0  0  0  0  0
    8.5197   -5.2461   23.2742 H   0  0  0  0  0  0  0  0  0  0  0  0
    6.9586   -4.5844   22.7798 H   0  0  0  0  0  0  0  0  0  0  0  0
    8.8411   -3.7339   21.3688 H   0  0  0  0  0  0  0  0  0  0  0  0
   10.5276   -2.1026   22.5297 H   0  0  0  0  0  0  0  0  0  0  0  0
   10.8362   -3.7467   22.8115 H   0  0  0  0  0  0  0  0  0  0  0  0
   10.9574   -2.5304   24.9098 H   0  0  0  0  0  0  0  0  0  0  0  0
    9.0152   -3.0788   26.3280 H   0  0  0  0  0  0  0  0  0  0  0  0
  1  2  2  0
  2  3  1  0
  3  4  1  0
  4  5  1  0
  5  6  2  0
  6  7  1  0
  7  8  1  0
  8  9  2  0
  9 10  1  0
 10 11  2  0
 11 12  1  0
 12 13  2  0
 13 14  1  0
 11 15  1  0
 10 16  1  0
  9 17  1  0
  7 18  1  0
 18 19  1  0
 19 20  1  0
 20 21  1  0
 21 22  1  0
 22 23  2  0
 23 24  1  0
 24 25  1  0
 25 26  2  0
 24 27  1  0
 23 28  1  0
 21 29  1  0
 21 30  1  0
 20 31  1  0
 20 32  1  0
 19 33  1  0
 19 34  1  0
 18 35  2  0
  4 36  1  0
 36 37  1  0
 37 38  1  0
 37 39  1  0
 36 40  1  0
 36 41  1  0
  4 42  1  0
  3 43  1  0
  3 44  1  0
  2 45  1  0
  1 46  1  0
 37  1  1  0
 35  5  1  0
 13  8  1  0
 26 22  1  0
M  END
>  <cnnaffinity>  (1) 
-6.42437

>  <filename>  (1) 
C1=CCC(c2nc(CCCc3c[nH]nn3)n(-c3cccnc3)n2)CC1

$$$$
