
     RDKit          3D

 41 44  0  0  0  0  0  0  0  0999 V2000
    7.8116   -3.4385   25.4516 C   0  0  0  0  0  0  0  0  0  0  0  0
    9.0923   -3.1779   25.1862 C   0  0  0  0  0  0  0  0  0  0  0  0
    9.6715   -3.1409   23.7873 C   0  0  0  0  0  0  0  0  0  0  0  0
    8.6116   -3.2602   22.6562 C   0  0  0  0  0  0  0  0  0  0  0  0
    8.0777   -1.9119   22.2230 C   0  0  0  0  0  0  0  0  0  0  0  0
    7.4743   -1.7589   21.0581 N   0  0  0  0  0  0  0  0  0  0  0  0
    7.1121   -0.4413   21.0668 N   0  0  0  0  0  0  0  0  0  0  0  0
    6.4675    0.1486   19.9400 C   0  0  0  0  0  0  0  0  0  0  0  0
    5.3195    0.9475   20.0540 C   0  0  0  0  0  0  0  0  0  0  0  0
    4.7957    1.5154   18.8848 C   0  0  0  0  0  0  0  0  0  0  0  0
    5.4317    1.2701   17.6643 C   0  0  0  0  0  0  0  0  0  0  0  0
    6.5243    0.4933   17.5511 N   0  0  0  0  0  0  0  0  0  0  0  0
    7.0168   -0.0593   18.6621 C   0  0  0  0  0  0  0  0  0  0  0  0
    7.9045   -0.6805   18.5623 H   0  0  0  0  0  0  0  0  0  0  0  0
    5.0537    1.6974   16.7373 H   0  0  0  0  0  0  0  0  0  0  0  0
    3.9129    2.1464   18.9095 H   0  0  0  0  0  0  0  0  0  0  0  0
    4.8488    1.1123   21.0257 H   0  0  0  0  0  0  0  0  0  0  0  0
    7.5609    0.1296   22.2167 C   0  0  0  0  0  0  0  0  0  0  0  0
    7.2679    1.5308   22.6888 C   0  0  0  0  0  0  0  0  0  0  0  0
    6.0799    1.5606   23.6439 C   0  0  0  0  0  0  0  0  0  0  0  0
    5.9387    0.6907   24.7022 C   0  0  0  0  0  0  0  0  0  0  0  0
    4.7302    0.9380   25.2518 N   0  0  0  0  0  0  0  0  0  0  0  0
    4.0650    1.9217   24.6384 N   0  0  0  0  0  0  0  0  0  0  0  0
    4.8906    2.3192   23.6717 C   0  0  0  0  0  0  0  0  0  0  0  0
    4.5982    3.1514   23.0434 H   0  0  0  0  0  0  0  0  0  0  0  0
    4.2774    0.4114   25.9825 H   0  0  0  0  0  0  0  0  0  0  0  0
    6.6284   -0.0538   25.0767 H   0  0  0  0  0  0  0  0  0  0  0  0
    8.1723    1.8605   23.2166 H   0  0  0  0  0  0  0  0  0  0  0  0
    7.1253    2.1971   21.8314 H   0  0  0  0  0  0  0  0  0  0  0  0
    8.1981   -0.7691   22.9466 N   0  0  0  0  0  0  0  0  0  0  0  0
    7.4963   -4.2661   23.0710 C   0  0  0  0  0  0  0  0  0  0  0  0
    6.8213   -3.8759   24.3981 C   0  0  0  0  0  0  0  0  0  0  0  0
    6.0824   -3.0776   24.2413 H   0  0  0  0  0  0  0  0  0  0  0  0
    6.2385   -4.7188   24.7923 H   0  0  0  0  0  0  0  0  0  0  0  0
    7.9749   -5.2490   23.1905 H   0  0  0  0  0  0  0  0  0  0  0  0
    6.7430   -4.3658   22.2771 H   0  0  0  0  0  0  0  0  0  0  0  0
    9.0812   -3.6475   21.7474 H   0  0  0  0  0  0  0  0  0  0  0  0
   10.2398   -2.2116   23.6724 H   0  0  0  0  0  0  0  0  0  0  0  0
   10.4159   -3.9401   23.6850 H   0  0  0  0  0  0  0  0  0  0  0  0
    9.7833   -3.0066   26.0127 H   0  0  0  0  0  0  0  0  0  0  0  0
    7.4323   -3.2785   26.4631 H   0  0  0  0  0  0  0  0  0  0  0  0
  1  2  2  0
  2  3  1  0
  3  4  1  0
  4  5  1  0
  5  6  2  0
  6  7  1  0
  7  8  1  0
  8  9  2  0
  9 10  1  0
 10 11  2  0
 11 12  1  0
 12 13  2  0
 13 14  1  0
 11 15  1  0
 10 16  1  0
  9 17  1  0
  7 18  1  0
 18 19  1  0
 19 20  1  0
 20 21  2  0
 21 22  1  0
 22 23  1  0
 23 24  2  0
 24 25  1  0
 22 26  1  0
 21 27  1  0
 19 28  1  0
 19 29  1  0
 18 30  2  0
  4 31  1  0
 31 32  1  0
 32 33  1  0
 32 34  1  0
 31 35  1  0
 31 36  1  0
  4 37  1  0
  3 38  1  0
  3 39  1  0
  2 40  1  0
  1 41  1  0
 32  1  1  0
 30  5  1  0
 13  8  1  0
 24 20  1  0
M  END
>  <cnnaffinity>  (1) 
-5.8804

>  <filename>  (1) 
C1=CCC(c2nc(Cc3cn[nH]c3)n(-c3cccnc3)n2)CC1

$$$$
