
     RDKit          3D

 45 48  0  0  0  0  0  0  0  0999 V2000
   11.7396   -0.0782   21.9844 C   0  0  0  0  0  0  0  0  0  0  0  0
   10.7326    0.7177   21.6242 C   0  0  0  0  0  0  0  0  0  0  0  0
    9.6562    0.2368   20.6875 C   0  0  0  0  0  0  0  0  0  0  0  0
    8.6291   -0.6247   21.3435 C   0  0  0  0  0  0  0  0  0  0  0  0
    8.8424   -1.4866   22.3108 N   0  0  0  0  0  0  0  0  0  0  0  0
    7.6083   -1.9978   22.5459 C   0  0  0  0  0  0  0  0  0  0  0  0
    7.3887   -2.9749   23.6554 C   0  0  0  0  0  0  0  0  0  0  0  0
    8.2453   -4.2528   23.5334 C   0  0  0  0  0  0  0  0  0  0  0  0
    8.3458   -4.8175   24.9620 C   0  0  0  0  0  0  0  0  0  0  0  0
    8.0279   -3.6492   25.9294 C   0  0  0  0  0  0  0  0  0  0  0  0
    7.7302   -2.4163   25.0558 C   0  0  0  0  0  0  0  0  0  0  0  0
    6.9137   -1.8051   25.4566 H   0  0  0  0  0  0  0  0  0  0  0  0
    8.6107   -1.7660   24.9925 H   0  0  0  0  0  0  0  0  0  0  0  0
    8.8573   -3.4519   26.6162 H   0  0  0  0  0  0  0  0  0  0  0  0
    7.1695   -3.9015   26.5619 H   0  0  0  0  0  0  0  0  0  0  0  0
    9.3379   -5.2410   25.1475 H   0  0  0  0  0  0  0  0  0  0  0  0
    7.6364   -5.6390   25.1120 H   0  0  0  0  0  0  0  0  0  0  0  0
    9.2394   -3.9991   23.1475 H   0  0  0  0  0  0  0  0  0  0  0  0
    7.8032   -4.9669   22.8301 H   0  0  0  0  0  0  0  0  0  0  0  0
    6.3284   -3.2328   23.6143 H   0  0  0  0  0  0  0  0  0  0  0  0
    6.6630   -1.5506   21.7500 N   0  0  0  0  0  0  0  0  0  0  0  0
    7.3278   -0.6880   20.9367 N   0  0  0  0  0  0  0  0  0  0  0  0
    6.6502    0.0042   19.9002 C   0  0  0  0  0  0  0  0  0  0  0  0
    5.4354    0.6470   20.1651 C   0  0  0  0  0  0  0  0  0  0  0  0
    4.8123    1.3122   19.1080 C   0  0  0  0  0  0  0  0  0  0  0  0
    5.4012    1.2955   17.8364 C   0  0  0  0  0  0  0  0  0  0  0  0
    6.5590    0.6714   17.5756 N   0  0  0  0  0  0  0  0  0  0  0  0
    7.1654    0.0507   18.5921 C   0  0  0  0  0  0  0  0  0  0  0  0
    8.1130   -0.4302   18.3650 H   0  0  0  0  0  0  0  0  0  0  0  0
    4.9210    1.7852   16.9926 H   0  0  0  0  0  0  0  0  0  0  0  0
    3.8804    1.8403   19.2600 H   0  0  0  0  0  0  0  0  0  0  0  0
    5.0157    0.6098   21.1734 H   0  0  0  0  0  0  0  0  0  0  0  0
   10.0672   -0.4083   19.9019 H   0  0  0  0  0  0  0  0  0  0  0  0
    9.1752    1.0906   20.2056 H   0  0  0  0  0  0  0  0  0  0  0  0
   10.5747    2.0996   22.2265 C   0  0  0  0  0  0  0  0  0  0  0  0
   11.4736    2.2851   23.4554 C   0  0  0  0  0  0  0  0  0  0  0  0
   12.7671    1.7527   23.2185 O   0  0  0  0  0  0  0  0  0  0  0  0
   12.7231    0.3461   23.0494 C   0  0  0  0  0  0  0  0  0  0  0  0
   13.7324    0.0231   22.7901 H   0  0  0  0  0  0  0  0  0  0  0  0
   12.4609   -0.1269   24.0125 H   0  0  0  0  0  0  0  0  0  0  0  0
   11.0294    1.7911   24.3366 H   0  0  0  0  0  0  0  0  0  0  0  0
   11.6059    3.3438   23.6922 H   0  0  0  0  0  0  0  0  0  0  0  0
   10.8457    2.8378   21.4632 H   0  0  0  0  0  0  0  0  0  0  0  0
    9.5309    2.2965   22.4983 H   0  0  0  0  0  0  0  0  0  0  0  0
   11.8197   -1.0854   21.5836 H   0  0  0  0  0  0  0  0  0  0  0  0
  1  2  2  0
  2  3  1  0
  3  4  1  0
  4  5  2  0
  5  6  1  0
  6  7  1  0
  7  8  1  0
  8  9  1  0
  9 10  1  0
 10 11  1  0
 11 12  1  0
 11 13  1  0
 10 14  1  0
 10 15  1  0
  9 16  1  0
  9 17  1  0
  8 18  1  0
  8 19  1  0
  7 20  1  0
  6 21  2  0
 21 22  1  0
 22 23  1  0
 23 24  2  0
 24 25  1  0
 25 26  2  0
 26 27  1  0
 27 28  2  0
 28 29  1  0
 26 30  1  0
 25 31  1  0
 24 32  1  0
  3 33  1  0
  3 34  1  0
  2 35  1  0
 35 36  1  0
 36 37  1  0
 37 38  1  0
 38 39  1  0
 38 40  1  0
 36 41  1  0
 36 42  1  0
 35 43  1  0
 35 44  1  0
  1 45  1  0
 38  1  1  0
 22  4  1  0
 28 23  1  0
 11  7  1  0
M  END
>  <cnnaffinity>  (1) 
-6.30668

>  <filename>  (1) 
C1=C(Cc2nc(C3CCCC3)nn2-c2cccnc2)CCOC1

$$$$
