
     RDKit          3D

 40 43  0  0  0  0  0  0  0  0999 V2000
    5.5124   -4.7591   22.2376 C   0  0  0  0  0  0  0  0  0  0  0  0
    5.0810   -3.9934   23.2478 C   0  0  0  0  0  0  0  0  0  0  0  0
    6.0112   -3.2271   24.1611 C   0  0  0  0  0  0  0  0  0  0  0  0
    7.4556   -3.1481   23.6175 C   0  0  0  0  0  0  0  0  0  0  0  0
    7.6527   -2.0934   22.5586 C   0  0  0  0  0  0  0  0  0  0  0  0
    6.7506   -1.6385   21.7114 N   0  0  0  0  0  0  0  0  0  0  0  0
    7.4475   -0.7237   20.9761 N   0  0  0  0  0  0  0  0  0  0  0  0
    6.7693   -0.0299   19.9236 C   0  0  0  0  0  0  0  0  0  0  0  0
    5.5554    0.6146   20.1959 C   0  0  0  0  0  0  0  0  0  0  0  0
    4.9164    1.2860   19.1500 C   0  0  0  0  0  0  0  0  0  0  0  0
    5.4987    1.2795   17.8763 C   0  0  0  0  0  0  0  0  0  0  0  0
    6.6498    0.6439   17.6005 N   0  0  0  0  0  0  0  0  0  0  0  0
    7.2606    0.0021   18.6062 C   0  0  0  0  0  0  0  0  0  0  0  0
    8.1743   -0.5330   18.3463 H   0  0  0  0  0  0  0  0  0  0  0  0
    5.0179    1.7835   17.0401 H   0  0  0  0  0  0  0  0  0  0  0  0
    3.9721    1.7981   19.3096 H   0  0  0  0  0  0  0  0  0  0  0  0
    5.1419    0.5717   21.2051 H   0  0  0  0  0  0  0  0  0  0  0  0
    8.7072   -0.6228   21.4970 C   0  0  0  0  0  0  0  0  0  0  0  0
    9.6888    0.4904   21.2821 C   0  0  0  0  0  0  0  0  0  0  0  0
    9.2558    1.7852   21.9202 C   0  0  0  0  0  0  0  0  0  0  0  0
    8.3904    2.6615   21.3473 C   0  0  0  0  0  0  0  0  0  0  0  0
    8.1100    3.7595   22.2197 C   0  0  0  0  0  0  0  0  0  0  0  0
    8.7092    3.7197   23.3869 N   0  0  0  0  0  0  0  0  0  0  0  0
    9.6543    2.3556   23.4832 S   0  0  0  0  0  0  0  0  0  0  0  0
    7.4384    4.6004   22.0411 H   0  0  0  0  0  0  0  0  0  0  0  0
    7.9845    2.4444   20.3699 H   0  0  0  0  0  0  0  0  0  0  0  0
    9.7964    0.6513   20.2082 H   0  0  0  0  0  0  0  0  0  0  0  0
   10.6379    0.1493   21.7002 H   0  0  0  0  0  0  0  0  0  0  0  0
    8.8818   -1.5358   22.4256 N   0  0  0  0  0  0  0  0  0  0  0  0
    7.9041   -4.5248   23.0711 C   0  0  0  0  0  0  0  0  0  0  0  0
    6.9799   -4.9570   21.9178 C   0  0  0  0  0  0  0  0  0  0  0  0
    7.1732   -6.0000   21.6396 H   0  0  0  0  0  0  0  0  0  0  0  0
    7.2124   -4.3639   21.0229 H   0  0  0  0  0  0  0  0  0  0  0  0
    8.9466   -4.4612   22.7378 H   0  0  0  0  0  0  0  0  0  0  0  0
    7.8803   -5.2639   23.8830 H   0  0  0  0  0  0  0  0  0  0  0  0
    8.1352   -2.8384   24.4191 H   0  0  0  0  0  0  0  0  0  0  0  0
    6.0296   -3.7140   25.1479 H   0  0  0  0  0  0  0  0  0  0  0  0
    5.6175   -2.2216   24.3520 H   0  0  0  0  0  0  0  0  0  0  0  0
    4.0132   -3.8893   23.4365 H   0  0  0  0  0  0  0  0  0  0  0  0
    4.7894   -5.2400   21.5795 H   0  0  0  0  0  0  0  0  0  0  0  0
  1  2  2  0
  2  3  1  0
  3  4  1  0
  4  5  1  0
  5  6  2  0
  6  7  1  0
  7  8  1  0
  8  9  2  0
  9 10  1  0
 10 11  2  0
 11 12  1  0
 12 13  2  0
 13 14  1  0
 11 15  1  0
 10 16  1  0
  9 17  1  0
  7 18  1  0
 18 19  1  0
 19 20  1  0
 20 21  2  0
 21 22  1  0
 22 23  2  0
 23 24  1  0
 22 25  1  0
 21 26  1  0
 19 27  1  0
 19 28  1  0
 18 29  2  0
  4 30  1  0
 30 31  1  0
 31 32  1  0
 31 33  1  0
 30 34  1  0
 30 35  1  0
  4 36  1  0
  3 37  1  0
  3 38  1  0
  2 39  1  0
  1 40  1  0
 31  1  1  0
 29  5  1  0
 13  8  1  0
 24 20  1  0
M  END
>  <cnnaffinity>  (1) 
-5.84839

>  <filename>  (1) 
C1=CCC(c2nc(Cc3ccns3)n(-c3cccnc3)n2)CC1

$$$$
