
     RDKit          3D

 40 43  0  0  0  0  0  0  0  0999 V2000
   13.4356   -0.2031   22.8769 C   0  0  0  0  0  0  0  0  0  0  0  0
   12.5481    0.4456   23.6311 C   0  0  0  0  0  0  0  0  0  0  0  0
   11.0538    0.3203   23.4729 C   0  0  0  0  0  0  0  0  0  0  0  0
   10.6295   -0.9150   22.6342 C   0  0  0  0  0  0  0  0  0  0  0  0
    9.2301   -0.7865   22.1262 C   0  0  0  0  0  0  0  0  0  0  0  0
    8.8797    0.1450   21.2545 N   0  0  0  0  0  0  0  0  0  0  0  0
    7.5774   -0.1515   21.0024 N   0  0  0  0  0  0  0  0  0  0  0  0
    6.9013    0.5033   19.9364 C   0  0  0  0  0  0  0  0  0  0  0  0
    5.6254    1.0611   20.0838 C   0  0  0  0  0  0  0  0  0  0  0  0
    4.9999    1.5757   18.9439 C   0  0  0  0  0  0  0  0  0  0  0  0
    5.6688    1.5212   17.7186 C   0  0  0  0  0  0  0  0  0  0  0  0
    6.9051    1.0076   17.5744 N   0  0  0  0  0  0  0  0  0  0  0  0
    7.5081    0.5315   18.6678 C   0  0  0  0  0  0  0  0  0  0  0  0
    8.5061    0.1186   18.5383 H   0  0  0  0  0  0  0  0  0  0  0  0
    5.2021    1.9051   16.8158 H   0  0  0  0  0  0  0  0  0  0  0  0
    4.0153    2.0282   19.0020 H   0  0  0  0  0  0  0  0  0  0  0  0
    5.1501    1.0973   21.0634 H   0  0  0  0  0  0  0  0  0  0  0  0
    7.2442   -1.2776   21.7002 C   0  0  0  0  0  0  0  0  0  0  0  0
    5.9218   -1.9382   21.5984 C   0  0  0  0  0  0  0  0  0  0  0  0
    5.7473   -2.6622   20.3184 C   0  0  0  0  0  0  0  0  0  0  0  0
    5.3665   -2.2239   19.0977 C   0  0  0  0  0  0  0  0  0  0  0  0
    5.4068   -3.3921   18.3210 C   0  0  0  0  0  0  0  0  0  0  0  0
    5.7417   -4.4434   19.0275 N   0  0  0  0  0  0  0  0  0  0  0  0
    5.9578   -3.9750   20.2926 O   0  0  0  0  0  0  0  0  0  0  0  0
    5.1982   -3.4760   17.2668 H   0  0  0  0  0  0  0  0  0  0  0  0
    5.0371   -1.2457   18.7851 H   0  0  0  0  0  0  0  0  0  0  0  0
    5.1852   -1.1412   21.5532 H   0  0  0  0  0  0  0  0  0  0  0  0
    5.7682   -2.6029   22.4500 H   0  0  0  0  0  0  0  0  0  0  0  0
    8.2591   -1.6917   22.4181 N   0  0  0  0  0  0  0  0  0  0  0  0
   11.5922   -1.2308   21.4563 C   0  0  0  0  0  0  0  0  0  0  0  0
   13.0631   -1.2890   21.8916 C   0  0  0  0  0  0  0  0  0  0  0  0
   13.2625   -2.2649   22.3450 H   0  0  0  0  0  0  0  0  0  0  0  0
   13.7181   -1.2440   21.0132 H   0  0  0  0  0  0  0  0  0  0  0  0
   11.2825   -2.1913   21.0284 H   0  0  0  0  0  0  0  0  0  0  0  0
   11.4638   -0.4805   20.6694 H   0  0  0  0  0  0  0  0  0  0  0  0
   10.6075   -1.7892   23.2925 H   0  0  0  0  0  0  0  0  0  0  0  0
   10.5851    0.2652   24.4661 H   0  0  0  0  0  0  0  0  0  0  0  0
   10.6697    1.2432   23.0182 H   0  0  0  0  0  0  0  0  0  0  0  0
   12.9024    1.0856   24.4384 H   0  0  0  0  0  0  0  0  0  0  0  0
   14.4934    0.0393   22.9711 H   0  0  0  0  0  0  0  0  0  0  0  0
  1  2  2  0
  2  3  1  0
  3  4  1  0
  4  5  1  0
  5  6  2  0
  6  7  1  0
  7  8  1  0
  8  9  2  0
  9 10  1  0
 10 11  2  0
 11 12  1  0
 12 13  2  0
 13 14  1  0
 11 15  1  0
 10 16  1  0
  9 17  1  0
  7 18  1  0
 18 19  1  0
 19 20  1  0
 20 21  2  0
 21 22  1  0
 22 23  2  0
 23 24  1  0
 22 25  1  0
 21 26  1  0
 19 27  1  0
 19 28  1  0
 18 29  2  0
  4 30  1  0
 30 31  1  0
 31 32  1  0
 31 33  1  0
 30 34  1  0
 30 35  1  0
  4 36  1  0
  3 37  1  0
  3 38  1  0
  2 39  1  0
  1 40  1  0
 31  1  1  0
 29  5  1  0
 13  8  1  0
 24 20  1  0
M  END
>  <cnnaffinity>  (1) 
-5.68441

>  <filename>  (1) 
C1=CCC(c2nc(Cc3ccno3)n(-c3cccnc3)n2)CC1

$$$$
