
     RDKit          3D

 46 49  0  0  0  0  0  0  0  0999 V2000
    7.7449   -4.4367   26.1382 C   0  0  0  0  0  0  0  0  0  0  0  0
    7.4845   -3.1352   26.2563 C   0  0  0  0  0  0  0  0  0  0  0  0
    7.4580   -2.1828   25.0898 C   0  0  0  0  0  0  0  0  0  0  0  0
    7.3673   -2.9201   23.7276 C   0  0  0  0  0  0  0  0  0  0  0  0
    7.5656   -1.9563   22.6011 C   0  0  0  0  0  0  0  0  0  0  0  0
    6.6330   -1.5896   21.7484 N   0  0  0  0  0  0  0  0  0  0  0  0
    7.2875   -0.7160   20.9359 N   0  0  0  0  0  0  0  0  0  0  0  0
    6.6111   -0.0370   19.8840 C   0  0  0  0  0  0  0  0  0  0  0  0
    5.4049    0.6223   20.1401 C   0  0  0  0  0  0  0  0  0  0  0  0
    4.7960    1.3119   19.0901 C   0  0  0  0  0  0  0  0  0  0  0  0
    5.4028    1.3055   17.8272 C   0  0  0  0  0  0  0  0  0  0  0  0
    6.5493    0.6585   17.5677 N   0  0  0  0  0  0  0  0  0  0  0  0
    7.1363    0.0079   18.5784 C   0  0  0  0  0  0  0  0  0  0  0  0
    8.0762   -0.4921   18.3441 H   0  0  0  0  0  0  0  0  0  0  0  0
    4.9487    1.8326   16.9928 H   0  0  0  0  0  0  0  0  0  0  0  0
    3.8710    1.8560   19.2413 H   0  0  0  0  0  0  0  0  0  0  0  0
    4.9822    0.5898   21.1460 H   0  0  0  0  0  0  0  0  0  0  0  0
    8.5692   -0.5816   21.3752 C   0  0  0  0  0  0  0  0  0  0  0  0
    9.5837    0.2873   20.7165 C   0  0  0  0  0  0  0  0  0  0  0  0
   10.7704    0.5900   21.6368 C   0  0  0  0  0  0  0  0  0  0  0  0
   11.6873   -0.6208   21.8521 C   0  0  0  0  0  0  0  0  0  0  0  0
   12.8232   -0.3448   23.2256 S   0  0  0  0  0  0  0  0  0  0  0  0
   13.7080    1.1096   22.6719 C   0  0  0  0  0  0  0  0  0  0  0  0
   12.7864    2.3013   22.4125 C   0  0  0  0  0  0  0  0  0  0  0  0
   11.6715    2.0349   20.9979 S   0  0  0  0  0  0  0  0  0  0  0  0
   13.3665    3.2033   22.1866 H   0  0  0  0  0  0  0  0  0  0  0  0
   12.1888    2.4884   23.3141 H   0  0  0  0  0  0  0  0  0  0  0  0
   14.4089    1.3201   23.4810 H   0  0  0  0  0  0  0  0  0  0  0  0
   14.2943    0.8276   21.8018 H   0  0  0  0  0  0  0  0  0  0  0  0
   12.2271   -0.9064   20.9418 H   0  0  0  0  0  0  0  0  0  0  0  0
   11.0744   -1.4714   22.1593 H   0  0  0  0  0  0  0  0  0  0  0  0
   10.3822    0.8826   22.6228 H   0  0  0  0  0  0  0  0  0  0  0  0
    9.9042   -0.2383   19.8097 H   0  0  0  0  0  0  0  0  0  0  0  0
    9.1010    1.2123   20.3940 H   0  0  0  0  0  0  0  0  0  0  0  0
    8.7680   -1.3551   22.4192 N   0  0  0  0  0  0  0  0  0  0  0  0
    8.3718   -4.1013   23.7031 C   0  0  0  0  0  0  0  0  0  0  0  0
    8.0475   -5.1091   24.8196 C   0  0  0  0  0  0  0  0  0  0  0  0
    7.1792   -5.7164   24.5281 H   0  0  0  0  0  0  0  0  0  0  0  0
    8.8704   -5.8235   24.9502 H   0  0  0  0  0  0  0  0  0  0  0  0
    8.3671   -4.6060   22.7299 H   0  0  0  0  0  0  0  0  0  0  0  0
    9.3863   -3.7071   23.8501 H   0  0  0  0  0  0  0  0  0  0  0  0
    6.3544   -3.3179   23.6128 H   0  0  0  0  0  0  0  0  0  0  0  0
    6.6220   -1.4805   25.1984 H   0  0  0  0  0  0  0  0  0  0  0  0
    8.3679   -1.5663   25.1108 H   0  0  0  0  0  0  0  0  0  0  0  0
    7.2807   -2.7094   27.2373 H   0  0  0  0  0  0  0  0  0  0  0  0
    7.7281   -5.0700   27.0247 H   0  0  0  0  0  0  0  0  0  0  0  0
  1  2  2  0
  2  3  1  0
  3  4  1  0
  4  5  1  0
  5  6  2  0
  6  7  1  0
  7  8  1  0
  8  9  2  0
  9 10  1  0
 10 11  2  0
 11 12  1  0
 12 13  2  0
 13 14  1  0
 11 15  1  0
 10 16  1  0
  9 17  1  0
  7 18  1  0
 18 19  1  0
 19 20  1  0
 20 21  1  0
 21 22  1  0
 22 23  1  0
 23 24  1  0
 24 25  1  0
 24 26  1  0
 24 27  1  0
 23 28  1  0
 23 29  1  0
 21 30  1  0
 21 31  1  0
 20 32  1  0
 19 33  1  0
 19 34  1  0
 18 35  2  0
  4 36  1  0
 36 37  1  0
 37 38  1  0
 37 39  1  0
 36 40  1  0
 36 41  1  0
  4 42  1  0
  3 43  1  0
  3 44  1  0
  2 45  1  0
  1 46  1  0
 37  1  1  0
 35  5  1  0
 13  8  1  0
 25 20  1  0
M  END
>  <cnnaffinity>  (1) 
-6.63897

>  <filename>  (1) 
C1=CCC(c2nc(CC3CSCCS3)n(-c3cccnc3)n2)CC1

$$$$
