
     RDKit          3D

 45 48  0  0  0  0  0  0  0  0999 V2000
    7.7216   -4.6679   25.9506 C   0  0  0  0  0  0  0  0  0  0  0  0
    7.3086   -3.4049   26.0873 C   0  0  0  0  0  0  0  0  0  0  0  0
    7.3144   -2.4062   24.9555 C   0  0  0  0  0  0  0  0  0  0  0  0
    7.4222   -3.0787   23.5596 C   0  0  0  0  0  0  0  0  0  0  0  0
    7.6498   -2.0621   22.4812 C   0  0  0  0  0  0  0  0  0  0  0  0
    6.7088   -1.6506   21.6588 N   0  0  0  0  0  0  0  0  0  0  0  0
    7.3407   -0.6967   20.9258 N   0  0  0  0  0  0  0  0  0  0  0  0
    6.6514    0.0004   19.8964 C   0  0  0  0  0  0  0  0  0  0  0  0
    5.4380    0.6421   20.1642 C   0  0  0  0  0  0  0  0  0  0  0  0
    4.8102    1.3113   19.1085 C   0  0  0  0  0  0  0  0  0  0  0  0
    5.4003    1.2961   17.8371 C   0  0  0  0  0  0  0  0  0  0  0  0
    6.5575    0.6719   17.5737 N   0  0  0  0  0  0  0  0  0  0  0  0
    7.1658    0.0496   18.5891 C   0  0  0  0  0  0  0  0  0  0  0  0
    8.1124   -0.4354   18.3647 H   0  0  0  0  0  0  0  0  0  0  0  0
    4.9181    1.7851   16.9935 H   0  0  0  0  0  0  0  0  0  0  0  0
    3.8779    1.8416   19.2615 H   0  0  0  0  0  0  0  0  0  0  0  0
    5.0188    0.6125   21.1741 H   0  0  0  0  0  0  0  0  0  0  0  0
    8.6171   -0.5476   21.3903 C   0  0  0  0  0  0  0  0  0  0  0  0
    9.5713    0.5212   20.9552 C   0  0  0  0  0  0  0  0  0  0  0  0
    9.7384    1.6746   21.9815 C   0  0  0  0  0  0  0  0  0  0  0  0
   10.3573    1.1933   23.3237 C   0  0  0  0  0  0  0  0  0  0  0  0
    9.2155    1.2754   24.3051 C   0  0  0  0  0  0  0  0  0  0  0  0
    8.1460    1.8843   23.7937 C   0  0  0  0  0  0  0  0  0  0  0  0
    8.3841    2.3351   22.3707 C   0  0  0  0  0  0  0  0  0  0  0  0
    8.4464    3.4283   22.3059 H   0  0  0  0  0  0  0  0  0  0  0  0
    7.5545    2.0593   21.7052 H   0  0  0  0  0  0  0  0  0  0  0  0
    7.2189    2.0770   24.3332 H   0  0  0  0  0  0  0  0  0  0  0  0
    9.2892    0.8801   25.3181 H   0  0  0  0  0  0  0  0  0  0  0  0
   10.7777    0.1828   23.2653 H   0  0  0  0  0  0  0  0  0  0  0  0
   11.1874    1.8432   23.6270 H   0  0  0  0  0  0  0  0  0  0  0  0
   10.3953    2.4138   21.5084 H   0  0  0  0  0  0  0  0  0  0  0  0
    9.2494    0.9355   19.9994 H   0  0  0  0  0  0  0  0  0  0  0  0
   10.5399    0.0408   20.7819 H   0  0  0  0  0  0  0  0  0  0  0  0
    8.8494   -1.4386   22.3325 N   0  0  0  0  0  0  0  0  0  0  0  0
    8.5097   -4.1723   23.5830 C   0  0  0  0  0  0  0  0  0  0  0  0
    8.1772   -5.2479   24.6310 C   0  0  0  0  0  0  0  0  0  0  0  0
    7.3787   -5.8987   24.2490 H   0  0  0  0  0  0  0  0  0  0  0  0
    9.0392   -5.9089   24.7821 H   0  0  0  0  0  0  0  0  0  0  0  0
    9.4763   -3.7069   23.8140 H   0  0  0  0  0  0  0  0  0  0  0  0
    8.6136   -4.6334   22.5947 H   0  0  0  0  0  0  0  0  0  0  0  0
    6.4597   -3.5435   23.3253 H   0  0  0  0  0  0  0  0  0  0  0  0
    6.4216   -1.7706   25.0039 H   0  0  0  0  0  0  0  0  0  0  0  0
    8.1679   -1.7290   25.0995 H   0  0  0  0  0  0  0  0  0  0  0  0
    6.9568   -3.0509   27.0559 H   0  0  0  0  0  0  0  0  0  0  0  0
    7.7330   -5.3308   26.8163 H   0  0  0  0  0  0  0  0  0  0  0  0
  1  2  2  0
  2  3  1  0
  3  4  1  0
  4  5  1  0
  5  6  2  0
  6  7  1  0
  7  8  1  0
  8  9  2  0
  9 10  1  0
 10 11  2  0
 11 12  1  0
 12 13  2  0
 13 14  1  0
 11 15  1  0
 10 16  1  0
  9 17  1  0
  7 18  1  0
 18 19  1  0
 19 20  1  0
 20 21  1  0
 21 22  1  0
 22 23  2  0
 23 24  1  0
 24 25  1  0
 24 26  1  0
 23 27  1  0
 22 28  1  0
 21 29  1  0
 21 30  1  0
 20 31  1  0
 19 32  1  0
 19 33  1  0
 18 34  2  0
  4 35  1  0
 35 36  1  0
 36 37  1  0
 36 38  1  0
 35 39  1  0
 35 40  1  0
  4 41  1  0
  3 42  1  0
  3 43  1  0
  2 44  1  0
  1 45  1  0
 36  1  1  0
 34  5  1  0
 13  8  1  0
 24 20  1  0
M  END
>  <cnnaffinity>  (1) 
-6.31822

>  <filename>  (1) 
C1=CCC(c2nc(CC3CC=CC3)n(-c3cccnc3)n2)CC1

$$$$
