
     RDKit          3D

 41 44  0  0  0  0  0  0  0  0999 V2000
    7.9648   -4.7344   25.8846 C   0  0  0  0  0  0  0  0  0  0  0  0
    8.5014   -5.0706   24.7104 C   0  0  0  0  0  0  0  0  0  0  0  0
    8.4952   -4.1668   23.5096 C   0  0  0  0  0  0  0  0  0  0  0  0
    7.4660   -3.0190   23.6379 C   0  0  0  0  0  0  0  0  0  0  0  0
    7.6651   -2.0276   22.5390 C   0  0  0  0  0  0  0  0  0  0  0  0
    6.7308   -1.5915   21.7214 N   0  0  0  0  0  0  0  0  0  0  0  0
    7.3870   -0.6580   20.9704 N   0  0  0  0  0  0  0  0  0  0  0  0
    6.7042    0.0222   19.9085 C   0  0  0  0  0  0  0  0  0  0  0  0
    5.4775    0.6501   20.1641 C   0  0  0  0  0  0  0  0  0  0  0  0
    4.8341    1.3095   19.1141 C   0  0  0  0  0  0  0  0  0  0  0  0
    5.4264    1.3055   17.8477 C   0  0  0  0  0  0  0  0  0  0  0  0
    6.5866    0.6849   17.5841 N   0  0  0  0  0  0  0  0  0  0  0  0
    7.2088    0.0615   18.5943 C   0  0  0  0  0  0  0  0  0  0  0  0
    8.1387   -0.4527   18.3406 H   0  0  0  0  0  0  0  0  0  0  0  0
    4.9464    1.8140   17.0155 H   0  0  0  0  0  0  0  0  0  0  0  0
    3.8883    1.8192   19.2677 H   0  0  0  0  0  0  0  0  0  0  0  0
    5.0512    0.6017   21.1672 H   0  0  0  0  0  0  0  0  0  0  0  0
    8.6717   -0.5784   21.4159 C   0  0  0  0  0  0  0  0  0  0  0  0
    9.6087    0.5420   21.1023 C   0  0  0  0  0  0  0  0  0  0  0  0
    9.1720    1.8064   21.7924 C   0  0  0  0  0  0  0  0  0  0  0  0
    9.1273    2.2972   23.0808 C   0  0  0  0  0  0  0  0  0  0  0  0
    8.4340    3.4822   23.1204 N   0  0  0  0  0  0  0  0  0  0  0  0
    8.0542    3.7079   21.8908 C   0  0  0  0  0  0  0  0  0  0  0  0
    8.4643    2.7138   21.0664 N   0  0  0  0  0  0  0  0  0  0  0  0
    8.2198    2.6351   20.0948 H   0  0  0  0  0  0  0  0  0  0  0  0
    7.4978    4.5586   21.5234 H   0  0  0  0  0  0  0  0  0  0  0  0
    9.5308    1.8834   23.9961 H   0  0  0  0  0  0  0  0  0  0  0  0
    9.6037    0.7305   20.0265 H   0  0  0  0  0  0  0  0  0  0  0  0
   10.6087    0.2191   21.4027 H   0  0  0  0  0  0  0  0  0  0  0  0
    8.8876   -1.4535   22.3683 N   0  0  0  0  0  0  0  0  0  0  0  0
    7.5757   -2.3725   25.0447 C   0  0  0  0  0  0  0  0  0  0  0  0
    7.2806   -3.4121   26.1383 C   0  0  0  0  0  0  0  0  0  0  0  0
    6.1965   -3.5855   26.1917 H   0  0  0  0  0  0  0  0  0  0  0  0
    7.5673   -3.0306   27.1272 H   0  0  0  0  0  0  0  0  0  0  0  0
    6.8926   -1.5189   25.1440 H   0  0  0  0  0  0  0  0  0  0  0  0
    8.5937   -1.9800   25.1688 H   0  0  0  0  0  0  0  0  0  0  0  0
    6.4547   -3.4160   23.5173 H   0  0  0  0  0  0  0  0  0  0  0  0
    9.4961   -3.7284   23.3881 H   0  0  0  0  0  0  0  0  0  0  0  0
    8.3068   -4.7446   22.5962 H   0  0  0  0  0  0  0  0  0  0  0  0
    8.9882   -6.0363   24.5967 H   0  0  0  0  0  0  0  0  0  0  0  0
    7.9956   -5.4464   26.7078 H   0  0  0  0  0  0  0  0  0  0  0  0
  1  2  2  0
  2  3  1  0
  3  4  1  0
  4  5  1  0
  5  6  2  0
  6  7  1  0
  7  8  1  0
  8  9  2  0
  9 10  1  0
 10 11  2  0
 11 12  1  0
 12 13  2  0
 13 14  1  0
 11 15  1  0
 10 16  1  0
  9 17  1  0
  7 18  1  0
 18 19  1  0
 19 20  1  0
 20 21  2  0
 21 22  1  0
 22 23  2  0
 23 24  1  0
 24 25  1  0
 23 26  1  0
 21 27  1  0
 19 28  1  0
 19 29  1  0
 18 30  2  0
  4 31  1  0
 31 32  1  0
 32 33  1  0
 32 34  1  0
 31 35  1  0
 31 36  1  0
  4 37  1  0
  3 38  1  0
  3 39  1  0
  2 40  1  0
  1 41  1  0
 32  1  1  0
 30  5  1  0
 13  8  1  0
 24 20  1  0
M  END
>  <cnnaffinity>  (1) 
-6.2552

>  <filename>  (1) 
C1=CCC(c2nc(Cc3cnc[nH]3)n(-c3cccnc3)n2)CC1

$$$$
