
     RDKit          3D

 40 43  0  0  0  0  0  0  0  0999 V2000
    9.4671   -4.1595   24.1472 C   0  0  0  0  0  0  0  0  0  0  0  0
    9.0231   -3.3546   25.1163 C   0  0  0  0  0  0  0  0  0  0  0  0
    7.6519   -2.7213   25.1070 C   0  0  0  0  0  0  0  0  0  0  0  0
    6.8919   -2.9186   23.7695 C   0  0  0  0  0  0  0  0  0  0  0  0
    7.3456   -1.9362   22.7162 C   0  0  0  0  0  0  0  0  0  0  0  0
    6.5473   -1.5553   21.7415 N   0  0  0  0  0  0  0  0  0  0  0  0
    7.3184   -0.6835   21.0242 N   0  0  0  0  0  0  0  0  0  0  0  0
    6.7208    0.0279   19.9404 C   0  0  0  0  0  0  0  0  0  0  0  0
    5.5090    0.7041   20.1436 C   0  0  0  0  0  0  0  0  0  0  0  0
    4.9265    1.3602   19.0584 C   0  0  0  0  0  0  0  0  0  0  0  0
    5.5511    1.3004   17.8088 C   0  0  0  0  0  0  0  0  0  0  0  0
    6.6972    0.6348   17.5957 N   0  0  0  0  0  0  0  0  0  0  0  0
    7.2648    0.0220   18.6447 C   0  0  0  0  0  0  0  0  0  0  0  0
    8.1864   -0.5237   18.4439 H   0  0  0  0  0  0  0  0  0  0  0  0
    5.1093    1.8018   16.9501 H   0  0  0  0  0  0  0  0  0  0  0  0
    3.9996    1.9116   19.1712 H   0  0  0  0  0  0  0  0  0  0  0  0
    5.0376    0.6853   21.1271 H   0  0  0  0  0  0  0  0  0  0  0  0
    8.5461   -0.6129   21.6192 C   0  0  0  0  0  0  0  0  0  0  0  0
    9.5983    0.4092   21.3106 C   0  0  0  0  0  0  0  0  0  0  0  0
    9.2190    1.7238   21.9676 C   0  0  0  0  0  0  0  0  0  0  0  0
    8.2955    2.5794   21.4639 C   0  0  0  0  0  0  0  0  0  0  0  0
    7.8616    3.7463   22.6263 S   0  0  0  0  0  0  0  0  0  0  0  0
    8.8889    3.1515   23.7887 N   0  0  0  0  0  0  0  0  0  0  0  0
    9.5240    2.1132   23.3182 C   0  0  0  0  0  0  0  0  0  0  0  0
   10.2246    1.5945   23.9733 H   0  0  0  0  0  0  0  0  0  0  0  0
    7.8414    2.5148   20.4868 H   0  0  0  0  0  0  0  0  0  0  0  0
   10.5518    0.0261   21.6850 H   0  0  0  0  0  0  0  0  0  0  0  0
    9.6944    0.5147   20.2291 H   0  0  0  0  0  0  0  0  0  0  0  0
    8.5929   -1.3985   22.6693 N   0  0  0  0  0  0  0  0  0  0  0  0
    7.0819   -4.3747   23.2697 C   0  0  0  0  0  0  0  0  0  0  0  0
    8.5805   -4.6340   23.0164 C   0  0  0  0  0  0  0  0  0  0  0  0
    8.7543   -5.6929   22.8006 H   0  0  0  0  0  0  0  0  0  0  0  0
    8.8882   -4.0835   22.1191 H   0  0  0  0  0  0  0  0  0  0  0  0
    6.4983   -4.5542   22.3568 H   0  0  0  0  0  0  0  0  0  0  0  0
    6.6835   -5.0560   24.0345 H   0  0  0  0  0  0  0  0  0  0  0  0
    5.8280   -2.7068   23.9208 H   0  0  0  0  0  0  0  0  0  0  0  0
    7.0626   -3.1425   25.9324 H   0  0  0  0  0  0  0  0  0  0  0  0
    7.7468   -1.6521   25.3374 H   0  0  0  0  0  0  0  0  0  0  0  0
    9.6556   -3.1087   25.9677 H   0  0  0  0  0  0  0  0  0  0  0  0
   10.5248   -4.4222   24.1085 H   0  0  0  0  0  0  0  0  0  0  0  0
  1  2  2  0
  2  3  1  0
  3  4  1  0
  4  5  1  0
  5  6  2  0
  6  7  1  0
  7  8  1  0
  8  9  2  0
  9 10  1  0
 10 11  2  0
 11 12  1  0
 12 13  2  0
 13 14  1  0
 11 15  1  0
 10 16  1  0
  9 17  1  0
  7 18  1  0
 18 19  1  0
 19 20  1  0
 20 21  2  0
 21 22  1  0
 22 23  1  0
 23 24  2  0
 24 25  1  0
 21 26  1  0
 19 27  1  0
 19 28  1  0
 18 29  2  0
  4 30  1  0
 30 31  1  0
 31 32  1  0
 31 33  1  0
 30 34  1  0
 30 35  1  0
  4 36  1  0
  3 37  1  0
  3 38  1  0
  2 39  1  0
  1 40  1  0
 31  1  1  0
 29  5  1  0
 13  8  1  0
 24 20  1  0
M  END
>  <cnnaffinity>  (1) 
-6.16416

>  <filename>  (1) 
C1=CCC(c2nc(Cc3cnsc3)n(-c3cccnc3)n2)CC1

$$$$
