
     RDKit          3D

 41 44  0  0  0  0  0  0  0  0999 V2000
    5.1350   -4.4254   22.4398 C   0  0  0  0  0  0  0  0  0  0  0  0
    4.9100   -3.5698   23.4397 C   0  0  0  0  0  0  0  0  0  0  0  0
    6.0127   -2.9453   24.2644 C   0  0  0  0  0  0  0  0  0  0  0  0
    7.4076   -3.0575   23.6048 C   0  0  0  0  0  0  0  0  0  0  0  0
    7.6259   -2.0118   22.5403 C   0  0  0  0  0  0  0  0  0  0  0  0
    6.6756   -1.5535   21.7473 N   0  0  0  0  0  0  0  0  0  0  0  0
    7.3355   -0.6947   20.9348 N   0  0  0  0  0  0  0  0  0  0  0  0
    6.6513   -0.0000   19.9010 C   0  0  0  0  0  0  0  0  0  0  0  0
    5.4368    0.6408   20.1693 C   0  0  0  0  0  0  0  0  0  0  0  0
    4.8140    1.3092   19.1107 C   0  0  0  0  0  0  0  0  0  0  0  0
    5.4017    1.2955   17.8373 C   0  0  0  0  0  0  0  0  0  0  0  0
    6.5589    0.6707   17.5741 N   0  0  0  0  0  0  0  0  0  0  0  0
    7.1640    0.0504   18.5916 C   0  0  0  0  0  0  0  0  0  0  0  0
    8.1105   -0.4291   18.3611 H   0  0  0  0  0  0  0  0  0  0  0  0
    4.9219    1.7860   16.9931 H   0  0  0  0  0  0  0  0  0  0  0  0
    3.8818    1.8391   19.2610 H   0  0  0  0  0  0  0  0  0  0  0  0
    5.0156    0.6079   21.1779 H   0  0  0  0  0  0  0  0  0  0  0  0
    8.6341   -0.6296   21.3451 C   0  0  0  0  0  0  0  0  0  0  0  0
    9.6572    0.2127   20.6782 C   0  0  0  0  0  0  0  0  0  0  0  0
   10.7405    0.6249   21.6070 C   0  0  0  0  0  0  0  0  0  0  0  0
   11.9226    0.0418   21.9076 C   0  0  0  0  0  0  0  0  0  0  0  0
   12.5006    0.8238   22.9688 C   0  0  0  0  0  0  0  0  0  0  0  0
   11.6089    1.8139   23.2198 C   0  0  0  0  0  0  0  0  0  0  0  0
   10.5268    1.6967   22.4005 O   0  0  0  0  0  0  0  0  0  0  0  0
   11.5891    2.6493   23.9107 H   0  0  0  0  0  0  0  0  0  0  0  0
   13.4489    0.6585   23.4596 H   0  0  0  0  0  0  0  0  0  0  0  0
   12.2978   -0.8563   21.4362 H   0  0  0  0  0  0  0  0  0  0  0  0
    9.1993    1.0773   20.1901 H   0  0  0  0  0  0  0  0  0  0  0  0
   10.0775   -0.4448   19.9164 H   0  0  0  0  0  0  0  0  0  0  0  0
    8.8559   -1.5003   22.3054 N   0  0  0  0  0  0  0  0  0  0  0  0
    7.6084   -4.4822   23.0326 C   0  0  0  0  0  0  0  0  0  0  0  0
    6.5238   -4.8274   21.9963 C   0  0  0  0  0  0  0  0  0  0  0  0
    6.7389   -4.3241   21.0452 H   0  0  0  0  0  0  0  0  0  0  0  0
    6.5482   -5.9007   21.7735 H   0  0  0  0  0  0  0  0  0  0  0  0
    8.6084   -4.5712   22.5936 H   0  0  0  0  0  0  0  0  0  0  0  0
    7.5711   -5.1991   23.8628 H   0  0  0  0  0  0  0  0  0  0  0  0
    8.1832   -2.8624   24.3503 H   0  0  0  0  0  0  0  0  0  0  0  0
    5.7805   -1.8977   24.4889 H   0  0  0  0  0  0  0  0  0  0  0  0
    6.0371   -3.4427   25.2434 H   0  0  0  0  0  0  0  0  0  0  0  0
    3.8931   -3.2636   23.6807 H   0  0  0  0  0  0  0  0  0  0  0  0
    4.2921   -4.8596   21.9031 H   0  0  0  0  0  0  0  0  0  0  0  0
  1  2  2  0
  2  3  1  0
  3  4  1  0
  4  5  1  0
  5  6  2  0
  6  7  1  0
  7  8  1  0
  8  9  2  0
  9 10  1  0
 10 11  2  0
 11 12  1  0
 12 13  2  0
 13 14  1  0
 11 15  1  0
 10 16  1  0
  9 17  1  0
  7 18  1  0
 18 19  1  0
 19 20  1  0
 20 21  2  0
 21 22  1  0
 22 23  2  0
 23 24  1  0
 23 25  1  0
 22 26  1  0
 21 27  1  0
 19 28  1  0
 19 29  1  0
 18 30  2  0
  4 31  1  0
 31 32  1  0
 32 33  1  0
 32 34  1  0
 31 35  1  0
 31 36  1  0
  4 37  1  0
  3 38  1  0
  3 39  1  0
  2 40  1  0
  1 41  1  0
 32  1  1  0
 30  5  1  0
 13  8  1  0
 24 20  1  0
M  END
>  <cnnaffinity>  (1) 
-5.79899

>  <filename>  (1) 
C1=CCC(c2nc(Cc3ccco3)n(-c3cccnc3)n2)CC1

$$$$
