
     RDKit          3D

 48 51  0  0  0  0  0  0  0  0999 V2000
    5.8284   -4.8590   25.1623 C   0  0  0  0  0  0  0  0  0  0  0  0
    6.5355   -5.3014   24.1218 C   0  0  0  0  0  0  0  0  0  0  0  0
    6.9031   -4.3590   23.0025 C   0  0  0  0  0  0  0  0  0  0  0  0
    7.4196   -3.0205   23.5920 C   0  0  0  0  0  0  0  0  0  0  0  0
    7.6752   -2.0119   22.5143 C   0  0  0  0  0  0  0  0  0  0  0  0
    6.7394   -1.6432   21.6586 N   0  0  0  0  0  0  0  0  0  0  0  0
    7.3582   -0.6833   20.9270 N   0  0  0  0  0  0  0  0  0  0  0  0
    6.6555    0.0028   19.8998 C   0  0  0  0  0  0  0  0  0  0  0  0
    5.4393    0.6414   20.1702 C   0  0  0  0  0  0  0  0  0  0  0  0
    4.8126    1.3093   19.1094 C   0  0  0  0  0  0  0  0  0  0  0  0
    5.4006    1.2961   17.8371 C   0  0  0  0  0  0  0  0  0  0  0  0
    6.5566    0.6700   17.5713 N   0  0  0  0  0  0  0  0  0  0  0  0
    7.1634    0.0488   18.5883 C   0  0  0  0  0  0  0  0  0  0  0  0
    8.1088   -0.4368   18.3628 H   0  0  0  0  0  0  0  0  0  0  0  0
    4.9198    1.7874   16.9929 H   0  0  0  0  0  0  0  0  0  0  0  0
    3.8797    1.8396   19.2596 H   0  0  0  0  0  0  0  0  0  0  0  0
    5.0124    0.6090   21.1782 H   0  0  0  0  0  0  0  0  0  0  0  0
    8.6190   -0.4954   21.4280 C   0  0  0  0  0  0  0  0  0  0  0  0
    9.5469    0.5837   20.9989 C   0  0  0  0  0  0  0  0  0  0  0  0
    9.4895    1.8188   21.9002 C   0  0  0  0  0  0  0  0  0  0  0  0
    8.1198    2.5028   21.9007 C   0  0  0  0  0  0  0  0  0  0  0  0
    8.1153    3.7079   22.8459 C   0  0  0  0  0  0  0  0  0  0  0  0
    8.6242    3.2779   24.2286 C   0  0  0  0  0  0  0  0  0  0  0  0
    9.9438    2.5123   24.1049 C   0  0  0  0  0  0  0  0  0  0  0  0
    9.8421    1.4168   23.2127 O   0  0  0  0  0  0  0  0  0  0  0  0
   10.2638    2.1008   25.0664 H   0  0  0  0  0  0  0  0  0  0  0  0
   10.7373    3.1895   23.7482 H   0  0  0  0  0  0  0  0  0  0  0  0
    8.7574    4.1425   24.8881 H   0  0  0  0  0  0  0  0  0  0  0  0
    7.8891    2.6184   24.7034 H   0  0  0  0  0  0  0  0  0  0  0  0
    8.7642    4.4970   22.4402 H   0  0  0  0  0  0  0  0  0  0  0  0
    7.1110    4.1394   22.9137 H   0  0  0  0  0  0  0  0  0  0  0  0
    7.3481    1.7865   22.2048 H   0  0  0  0  0  0  0  0  0  0  0  0
    7.8772    2.7725   20.8781 H   0  0  0  0  0  0  0  0  0  0  0  0
   10.2515    2.5343   21.5377 H   0  0  0  0  0  0  0  0  0  0  0  0
    9.3223    0.8832   19.9762 H   0  0  0  0  0  0  0  0  0  0  0  0
   10.5564    0.1699   21.0090 H   0  0  0  0  0  0  0  0  0  0  0  0
    8.8555   -1.3590   22.3904 N   0  0  0  0  0  0  0  0  0  0  0  0
    6.5046   -2.4487   24.7327 C   0  0  0  0  0  0  0  0  0  0  0  0
    5.3770   -3.4129   25.1760 C   0  0  0  0  0  0  0  0  0  0  0  0
    4.5264   -3.2918   24.4878 H   0  0  0  0  0  0  0  0  0  0  0  0
    5.0041   -3.1304   26.1630 H   0  0  0  0  0  0  0  0  0  0  0  0
    6.0550   -1.4943   24.4356 H   0  0  0  0  0  0  0  0  0  0  0  0
    7.1388   -2.2231   25.5997 H   0  0  0  0  0  0  0  0  0  0  0  0
    8.3970   -3.2197   24.0337 H   0  0  0  0  0  0  0  0  0  0  0  0
    7.6577   -4.8096   22.3502 H   0  0  0  0  0  0  0  0  0  0  0  0
    6.0301   -4.1451   22.3697 H   0  0  0  0  0  0  0  0  0  0  0  0
    6.8761   -6.3262   24.0630 H   0  0  0  0  0  0  0  0  0  0  0  0
    5.5667   -5.5209   25.9896 H   0  0  0  0  0  0  0  0  0  0  0  0
  1  2  2  0
  2  3  1  0
  3  4  1  0
  4  5  1  0
  5  6  2  0
  6  7  1  0
  7  8  1  0
  8  9  2  0
  9 10  1  0
 10 11  2  0
 11 12  1  0
 12 13  2  0
 13 14  1  0
 11 15  1  0
 10 16  1  0
  9 17  1  0
  7 18  1  0
 18 19  1  0
 19 20  1  0
 20 21  1  0
 21 22  1  0
 22 23  1  0
 23 24  1  0
 24 25  1  0
 24 26  1  0
 24 27  1  0
 23 28  1  0
 23 29  1  0
 22 30  1  0
 22 31  1  0
 21 32  1  0
 21 33  1  0
 20 34  1  0
 19 35  1  0
 19 36  1  0
 18 37  2  0
  4 38  1  0
 38 39  1  0
 39 40  1  0
 39 41  1  0
 38 42  1  0
 38 43  1  0
  4 44  1  0
  3 45  1  0
  3 46  1  0
  2 47  1  0
  1 48  1  0
 39  1  1  0
 37  5  1  0
 13  8  1  0
 25 20  1  0
M  END
>  <cnnaffinity>  (1) 
-6.17943

>  <filename>  (1) 
C1=CCC(c2nc(CC3CCCCO3)n(-c3cccnc3)n2)CC1

$$$$
