
     RDKit          3D

 46 49  0  0  0  0  0  0  0  0999 V2000
    7.8306   -4.6669   25.9441 C   0  0  0  0  0  0  0  0  0  0  0  0
    8.4182   -5.0272   24.8012 C   0  0  0  0  0  0  0  0  0  0  0  0
    8.4851   -4.1376   23.5820 C   0  0  0  0  0  0  0  0  0  0  0  0
    7.4471   -2.9868   23.6285 C   0  0  0  0  0  0  0  0  0  0  0  0
    7.6672   -1.9854   22.5379 C   0  0  0  0  0  0  0  0  0  0  0  0
    6.7314   -1.6290   21.6799 N   0  0  0  0  0  0  0  0  0  0  0  0
    7.3483   -0.6721   20.9327 N   0  0  0  0  0  0  0  0  0  0  0  0
    6.6512    0.0104   19.8975 C   0  0  0  0  0  0  0  0  0  0  0  0
    5.4324    0.6402   20.1614 C   0  0  0  0  0  0  0  0  0  0  0  0
    4.8072    1.3084   19.1053 C   0  0  0  0  0  0  0  0  0  0  0  0
    5.3982    1.2968   17.8363 C   0  0  0  0  0  0  0  0  0  0  0  0
    6.5541    0.6687   17.5703 N   0  0  0  0  0  0  0  0  0  0  0  0
    7.1642    0.0542   18.5903 C   0  0  0  0  0  0  0  0  0  0  0  0
    8.1110   -0.4315   18.3629 H   0  0  0  0  0  0  0  0  0  0  0  0
    4.9249    1.7907   16.9918 H   0  0  0  0  0  0  0  0  0  0  0  0
    3.8776    1.8389   19.2549 H   0  0  0  0  0  0  0  0  0  0  0  0
    5.0179    0.6070   21.1744 H   0  0  0  0  0  0  0  0  0  0  0  0
    8.6009   -0.4654   21.4238 C   0  0  0  0  0  0  0  0  0  0  0  0
    9.5235    0.6173   20.9803 C   0  0  0  0  0  0  0  0  0  0  0  0
    9.2472    1.9644   21.6754 C   0  0  0  0  0  0  0  0  0  0  0  0
    9.3564    1.8680   23.2319 C   0  0  0  0  0  0  0  0  0  0  0  0
    8.0842    1.7104   23.8271 O   0  0  0  0  0  0  0  0  0  0  0  0
    7.2438    2.8257   23.5726 C   0  0  0  0  0  0  0  0  0  0  0  0
    7.4088    3.3724   22.1221 C   0  0  0  0  0  0  0  0  0  0  0  0
    7.9433    2.3718   21.2701 O   0  0  0  0  0  0  0  0  0  0  0  0
    8.0654    4.2602   22.1340 H   0  0  0  0  0  0  0  0  0  0  0  0
    6.4509    3.6913   21.7057 H   0  0  0  0  0  0  0  0  0  0  0  0
    6.2290    2.4648   23.7566 H   0  0  0  0  0  0  0  0  0  0  0  0
    7.4692    3.6301   24.2912 H   0  0  0  0  0  0  0  0  0  0  0  0
    9.9351    0.9868   23.5155 H   0  0  0  0  0  0  0  0  0  0  0  0
    9.8476    2.7725   23.6220 H   0  0  0  0  0  0  0  0  0  0  0  0
    9.9811    2.7045   21.3102 H   0  0  0  0  0  0  0  0  0  0  0  0
   10.5453    0.3021   21.2059 H   0  0  0  0  0  0  0  0  0  0  0  0
    9.4566    0.7567   19.9011 H   0  0  0  0  0  0  0  0  0  0  0  0
    8.8458   -1.3121   22.4032 N   0  0  0  0  0  0  0  0  0  0  0  0
    7.4543   -2.3230   25.0290 C   0  0  0  0  0  0  0  0  0  0  0  0
    7.1079   -3.3499   26.1225 C   0  0  0  0  0  0  0  0  0  0  0  0
    6.0254   -3.5427   26.1191 H   0  0  0  0  0  0  0  0  0  0  0  0
    7.3140   -2.9327   27.1147 H   0  0  0  0  0  0  0  0  0  0  0  0
    8.4500   -1.8949   25.2058 H   0  0  0  0  0  0  0  0  0  0  0  0
    6.7473   -1.4857   25.0644 H   0  0  0  0  0  0  0  0  0  0  0  0
    6.4475   -3.3950   23.4472 H   0  0  0  0  0  0  0  0  0  0  0  0
    9.4944   -3.7111   23.5031 H   0  0  0  0  0  0  0  0  0  0  0  0
    8.3542   -4.7358   22.6727 H   0  0  0  0  0  0  0  0  0  0  0  0
    8.8949   -6.0045   24.7220 H   0  0  0  0  0  0  0  0  0  0  0  0
    7.8530   -5.3397   26.8037 H   0  0  0  0  0  0  0  0  0  0  0  0
  1  2  2  0
  2  3  1  0
  3  4  1  0
  4  5  1  0
  5  6  2  0
  6  7  1  0
  7  8  1  0
  8  9  2  0
  9 10  1  0
 10 11  2  0
 11 12  1  0
 12 13  2  0
 13 14  1  0
 11 15  1  0
 10 16  1  0
  9 17  1  0
  7 18  1  0
 18 19  1  0
 19 20  1  0
 20 21  1  0
 21 22  1  0
 22 23  1  0
 23 24  1  0
 24 25  1  0
 24 26  1  0
 24 27  1  0
 23 28  1  0
 23 29  1  0
 21 30  1  0
 21 31  1  0
 20 32  1  0
 19 33  1  0
 19 34  1  0
 18 35  2  0
  4 36  1  0
 36 37  1  0
 37 38  1  0
 37 39  1  0
 36 40  1  0
 36 41  1  0
  4 42  1  0
  3 43  1  0
  3 44  1  0
  2 45  1  0
  1 46  1  0
 37  1  1  0
 35  5  1  0
 13  8  1  0
 25 20  1  0
M  END
>  <cnnaffinity>  (1) 
-5.92116

>  <filename>  (1) 
C1=CCC(c2nc(CC3COCCO3)n(-c3cccnc3)n2)CC1

$$$$
