
     RDKit          3D

 47 50  0  0  0  0  0  0  0  0999 V2000
    7.7480   -4.5016   26.0675 C   0  0  0  0  0  0  0  0  0  0  0  0
    7.5268   -3.1916   26.1917 C   0  0  0  0  0  0  0  0  0  0  0  0
    7.4433   -2.2403   25.0174 C   0  0  0  0  0  0  0  0  0  0  0  0
    7.2519   -2.9849   23.6638 C   0  0  0  0  0  0  0  0  0  0  0  0
    7.3874   -2.0747   22.4755 C   0  0  0  0  0  0  0  0  0  0  0  0
    6.3773   -1.7492   21.6902 N   0  0  0  0  0  0  0  0  0  0  0  0
    6.9553   -0.9581   20.7575 N   0  0  0  0  0  0  0  0  0  0  0  0
    6.2225   -0.3254   19.7212 C   0  0  0  0  0  0  0  0  0  0  0  0
    5.1158    0.4764   20.0119 C   0  0  0  0  0  0  0  0  0  0  0  0
    4.6325    1.3064   18.9947 C   0  0  0  0  0  0  0  0  0  0  0  0
    5.2526    1.2854   17.7370 C   0  0  0  0  0  0  0  0  0  0  0  0
    6.2531    0.4452   17.4319 N   0  0  0  0  0  0  0  0  0  0  0  0
    6.6947   -0.3661   18.3966 C   0  0  0  0  0  0  0  0  0  0  0  0
    7.4981   -1.0480   18.1242 H   0  0  0  0  0  0  0  0  0  0  0  0
    4.9348    1.9561   16.9415 H   0  0  0  0  0  0  0  0  0  0  0  0
    3.8042    1.9845   19.1653 H   0  0  0  0  0  0  0  0  0  0  0  0
    4.6904    0.4665   21.0172 H   0  0  0  0  0  0  0  0  0  0  0  0
    8.2731   -0.7923   21.0633 C   0  0  0  0  0  0  0  0  0  0  0  0
    9.1410    0.0854   20.1986 C   0  0  0  0  0  0  0  0  0  0  0  0
   10.2995    0.4737   20.8622 O   0  0  0  0  0  0  0  0  0  0  0  0
   10.6156    1.8464   20.9916 C   0  0  0  0  0  0  0  0  0  0  0  0
   11.6998    1.9909   22.0332 C   0  0  0  0  0  0  0  0  0  0  0  0
   12.3091    0.8662   22.6073 C   0  0  0  0  0  0  0  0  0  0  0  0
   13.3305    1.0428   23.5333 C   0  0  0  0  0  0  0  0  0  0  0  0
   13.7601    2.2493   23.8889 N   0  0  0  0  0  0  0  0  0  0  0  0
   13.2307    3.3273   23.3048 C   0  0  0  0  0  0  0  0  0  0  0  0
   12.1874    3.2584   22.3872 C   0  0  0  0  0  0  0  0  0  0  0  0
   11.7957    4.1837   21.9737 H   0  0  0  0  0  0  0  0  0  0  0  0
   13.6553    4.2953   23.5706 H   0  0  0  0  0  0  0  0  0  0  0  0
   13.8312    0.2007   24.0206 H   0  0  0  0  0  0  0  0  0  0  0  0
   11.9844   -0.1289   22.3291 H   0  0  0  0  0  0  0  0  0  0  0  0
   11.0496    2.2725   20.0745 H   0  0  0  0  0  0  0  0  0  0  0  0
    9.7249    2.4387   21.2567 H   0  0  0  0  0  0  0  0  0  0  0  0
    8.5580    0.9485   19.8393 H   0  0  0  0  0  0  0  0  0  0  0  0
    9.4314   -0.4814   19.3017 H   0  0  0  0  0  0  0  0  0  0  0  0
    8.5790   -1.5184   22.1232 N   0  0  0  0  0  0  0  0  0  0  0  0
    8.2197   -4.1923   23.5855 C   0  0  0  0  0  0  0  0  0  0  0  0
    7.9541   -5.1864   24.7340 C   0  0  0  0  0  0  0  0  0  0  0  0
    7.0560   -5.7836   24.5117 H   0  0  0  0  0  0  0  0  0  0  0  0
    8.7738   -5.9143   24.8087 H   0  0  0  0  0  0  0  0  0  0  0  0
    9.2537   -3.8204   23.6305 H   0  0  0  0  0  0  0  0  0  0  0  0
    8.1089   -4.7025   22.6215 H   0  0  0  0  0  0  0  0  0  0  0  0
    6.2240   -3.3639   23.6296 H   0  0  0  0  0  0  0  0  0  0  0  0
    8.3591   -1.6310   24.9792 H   0  0  0  0  0  0  0  0  0  0  0  0
    6.6199   -1.5326   25.1860 H   0  0  0  0  0  0  0  0  0  0  0  0
    7.4119   -2.7534   27.1851 H   0  0  0  0  0  0  0  0  0  0  0  0
    7.7494   -5.1396   26.9538 H   0  0  0  0  0  0  0  0  0  0  0  0
  1  2  2  0
  2  3  1  0
  3  4  1  0
  4  5  1  0
  5  6  2  0
  6  7  1  0
  7  8  1  0
  8  9  2  0
  9 10  1  0
 10 11  2  0
 11 12  1  0
 12 13  2  0
 13 14  1  0
 11 15  1  0
 10 16  1  0
  9 17  1  0
  7 18  1  0
 18 19  1  0
 19 20  1  0
 20 21  1  0
 21 22  1  0
 22 23  2  0
 23 24  1  0
 24 25  2  0
 25 26  1  0
 26 27  2  0
 27 28  1  0
 26 29  1  0
 24 30  1  0
 23 31  1  0
 21 32  1  0
 21 33  1  0
 19 34  1  0
 19 35  1  0
 18 36  2  0
  4 37  1  0
 37 38  1  0
 38 39  1  0
 38 40  1  0
 37 41  1  0
 37 42  1  0
  4 43  1  0
  3 44  1  0
  3 45  1  0
  2 46  1  0
  1 47  1  0
 38  1  1  0
 36  5  1  0
 13  8  1  0
 27 22  1  0
M  END
>  <cnnaffinity>  (1) 
-6.33072

>  <filename>  (1) 
C1=CCC(c2nc(COCc3ccncc3)n(-c3cccnc3)n2)CC1

$$$$
