
     RDKit          3D

 48 51  0  0  0  0  0  0  0  0999 V2000
   11.7468   -0.0850   21.9735 C   0  0  0  0  0  0  0  0  0  0  0  0
   10.7397    0.7217   21.6263 C   0  0  0  0  0  0  0  0  0  0  0  0
    9.6616    0.2387   20.6849 C   0  0  0  0  0  0  0  0  0  0  0  0
    8.6341   -0.6219   21.3412 C   0  0  0  0  0  0  0  0  0  0  0  0
    8.8503   -1.4835   22.3085 N   0  0  0  0  0  0  0  0  0  0  0  0
    7.6170   -1.9942   22.5460 C   0  0  0  0  0  0  0  0  0  0  0  0
    7.3897   -2.9741   23.6603 C   0  0  0  0  0  0  0  0  0  0  0  0
    8.2267   -4.2637   23.4732 C   0  0  0  0  0  0  0  0  0  0  0  0
    8.0670   -5.1840   24.6836 C   0  0  0  0  0  0  0  0  0  0  0  0
    8.4037   -4.5247   25.8919 O   0  0  0  0  0  0  0  0  0  0  0  0
    7.5647   -3.4113   26.1460 C   0  0  0  0  0  0  0  0  0  0  0  0
    7.6837   -2.3516   25.0504 C   0  0  0  0  0  0  0  0  0  0  0  0
    8.7019   -1.9423   25.0600 H   0  0  0  0  0  0  0  0  0  0  0  0
    6.9941   -1.5245   25.2613 H   0  0  0  0  0  0  0  0  0  0  0  0
    7.8621   -3.0110   27.1187 H   0  0  0  0  0  0  0  0  0  0  0  0
    6.5163   -3.7505   26.2269 H   0  0  0  0  0  0  0  0  0  0  0  0
    7.0263   -5.5505   24.7415 H   0  0  0  0  0  0  0  0  0  0  0  0
    8.7243   -6.0540   24.6086 H   0  0  0  0  0  0  0  0  0  0  0  0
    7.9230   -4.7940   22.5624 H   0  0  0  0  0  0  0  0  0  0  0  0
    9.2863   -4.0003   23.3646 H   0  0  0  0  0  0  0  0  0  0  0  0
    6.3256   -3.2257   23.6057 H   0  0  0  0  0  0  0  0  0  0  0  0
    6.6689   -1.5482   21.7525 N   0  0  0  0  0  0  0  0  0  0  0  0
    7.3316   -0.6863   20.9361 N   0  0  0  0  0  0  0  0  0  0  0  0
    6.6507    0.0037   19.9001 C   0  0  0  0  0  0  0  0  0  0  0  0
    5.4357    0.6464   20.1647 C   0  0  0  0  0  0  0  0  0  0  0  0
    4.8116    1.3122   19.1084 C   0  0  0  0  0  0  0  0  0  0  0  0
    5.4007    1.2954   17.8370 C   0  0  0  0  0  0  0  0  0  0  0  0
    6.5592    0.6719   17.5769 N   0  0  0  0  0  0  0  0  0  0  0  0
    7.1668    0.0509   18.5924 C   0  0  0  0  0  0  0  0  0  0  0  0
    8.1146   -0.4305   18.3653 H   0  0  0  0  0  0  0  0  0  0  0  0
    4.9209    1.7847   16.9930 H   0  0  0  0  0  0  0  0  0  0  0  0
    3.8800    1.8407   19.2598 H   0  0  0  0  0  0  0  0  0  0  0  0
    5.0170    0.6092   21.1734 H   0  0  0  0  0  0  0  0  0  0  0  0
   10.0701   -0.4069   19.8981 H   0  0  0  0  0  0  0  0  0  0  0  0
    9.1760    1.0902   20.2034 H   0  0  0  0  0  0  0  0  0  0  0  0
   10.5590    2.1060   22.2248 C   0  0  0  0  0  0  0  0  0  0  0  0
   11.3578    2.3141   23.5225 C   0  0  0  0  0  0  0  0  0  0  0  0
   12.7817    1.7686   23.3603 C   0  0  0  0  0  0  0  0  0  0  0  0
   12.7564    0.2669   23.0371 C   0  0  0  0  0  0  0  0  0  0  0  0
   13.7463   -0.0913   22.7368 H   0  0  0  0  0  0  0  0  0  0  0  0
   12.5061   -0.2849   23.9515 H   0  0  0  0  0  0  0  0  0  0  0  0
   13.2841    2.3084   22.5475 H   0  0  0  0  0  0  0  0  0  0  0  0
   13.3736    1.9419   24.2629 H   0  0  0  0  0  0  0  0  0  0  0  0
   10.8589    1.7898   24.3496 H   0  0  0  0  0  0  0  0  0  0  0  0
   11.3729    3.3756   23.7919 H   0  0  0  0  0  0  0  0  0  0  0  0
   10.8861    2.8341   21.4704 H   0  0  0  0  0  0  0  0  0  0  0  0
    9.4956    2.3134   22.3939 H   0  0  0  0  0  0  0  0  0  0  0  0
   11.8037   -1.0782   21.5309 H   0  0  0  0  0  0  0  0  0  0  0  0
  1  2  2  0
  2  3  1  0
  3  4  1  0
  4  5  2  0
  5  6  1  0
  6  7  1  0
  7  8  1  0
  8  9  1  0
  9 10  1  0
 10 11  1  0
 11 12  1  0
 12 13  1  0
 12 14  1  0
 11 15  1  0
 11 16  1  0
  9 17  1  0
  9 18  1  0
  8 19  1  0
  8 20  1  0
  7 21  1  0
  6 22  2  0
 22 23  1  0
 23 24  1  0
 24 25  2  0
 25 26  1  0
 26 27  2  0
 27 28  1  0
 28 29  2  0
 29 30  1  0
 27 31  1  0
 26 32  1  0
 25 33  1  0
  3 34  1  0
  3 35  1  0
  2 36  1  0
 36 37  1  0
 37 38  1  0
 38 39  1  0
 39 40  1  0
 39 41  1  0
 38 42  1  0
 38 43  1  0
 37 44  1  0
 37 45  1  0
 36 46  1  0
 36 47  1  0
  1 48  1  0
 39  1  1  0
 23  4  1  0
 29 24  1  0
 12  7  1  0
M  END
>  <cnnaffinity>  (1) 
-6.49146

>  <filename>  (1) 
C1=C(Cc2nc(C3CCOCC3)nn2-c2cccnc2)CCCC1

$$$$
