
     RDKit          3D

 46 50  0  0  0  0  0  0  0  0999 V2000
    5.0007    1.8270   17.0259 H   0  0  0  0  0  0  0  0  0  0  0  0
    5.5001    1.3039   17.8389 C   0  0  0  0  0  0  0  0  0  0  0  0
    6.6594    0.7004   17.5329 N   0  0  0  0  0  0  0  0  0  0  0  0
    7.2957    0.0381   18.5060 C   0  0  0  0  0  0  0  0  0  0  0  0
    8.2355   -0.4394   18.2301 H   0  0  0  0  0  0  0  0  0  0  0  0
    6.8014   -0.0856   19.8187 C   0  0  0  0  0  0  0  0  0  0  0  0
    7.4877   -0.8939   20.7626 N   0  0  0  0  0  0  0  0  0  0  0  0
    8.8454   -0.8477   21.0829 C   0  0  0  0  0  0  0  0  0  0  0  0
    9.4867   -0.1137   20.6239 H   0  0  0  0  0  0  0  0  0  0  0  0
    9.1095   -1.7627   22.0539 C   0  0  0  0  0  0  0  0  0  0  0  0
    9.9882   -2.0072   22.6225 H   0  0  0  0  0  0  0  0  0  0  0  0
    7.9140   -2.3949   22.3243 N   0  0  0  0  0  0  0  0  0  0  0  0
    7.5088   -3.3716   23.1844 N   0  0  0  0  0  0  0  0  0  0  0  0
    6.2007   -3.4504   22.9014 C   0  0  0  0  0  0  0  0  0  0  0  0
    5.3261   -4.3020   23.5247 N   0  0  0  0  0  0  0  0  0  0  0  0
    5.6434   -5.1901   24.6518 C   0  0  0  0  0  0  0  0  0  0  0  0
    6.5290   -4.8365   25.1874 H   0  0  0  0  0  0  0  0  0  0  0  0
    5.8662   -6.1898   24.2591 H   0  0  0  0  0  0  0  0  0  0  0  0
    4.4435   -5.3067   25.6333 C   0  0  0  0  0  0  0  0  0  0  0  0
    4.6990   -5.9864   26.4550 H   0  0  0  0  0  0  0  0  0  0  0  0
    4.2652   -4.3092   26.0696 H   0  0  0  0  0  0  0  0  0  0  0  0
    3.2355   -5.7996   24.9576 N   0  0  0  0  0  0  0  0  0  0  0  0
    2.1296   -6.2642   25.6655 C   0  0  0  0  0  0  0  0  0  0  0  0
    1.8642   -5.8270   26.9768 C   0  0  0  0  0  0  0  0  0  0  0  0
    2.5213   -5.0826   27.4132 H   0  0  0  0  0  0  0  0  0  0  0  0
    0.7700   -6.3310   27.6849 C   0  0  0  0  0  0  0  0  0  0  0  0
    0.5808   -5.9738   28.6958 H   0  0  0  0  0  0  0  0  0  0  0  0
   -0.0671   -7.2902   27.1043 C   0  0  0  0  0  0  0  0  0  0  0  0
   -0.8970   -7.7087   27.6681 H   0  0  0  0  0  0  0  0  0  0  0  0
    0.1773   -7.7181   25.7929 C   0  0  0  0  0  0  0  0  0  0  0  0
   -0.4696   -8.4583   25.3243 H   0  0  0  0  0  0  0  0  0  0  0  0
    1.2530   -7.1947   25.0707 C   0  0  0  0  0  0  0  0  0  0  0  0
    1.4457   -7.4929   24.0443 H   0  0  0  0  0  0  0  0  0  0  0  0
    3.1202   -5.4545   23.5437 C   0  0  0  0  0  0  0  0  0  0  0  0
    2.0717   -5.2661   23.2834 H   0  0  0  0  0  0  0  0  0  0  0  0
    3.4815   -6.2780   22.9039 H   0  0  0  0  0  0  0  0  0  0  0  0
    3.9026   -4.1753   23.2177 C   0  0  0  0  0  0  0  0  0  0  0  0
    3.4705   -3.3264   23.7806 H   0  0  0  0  0  0  0  0  0  0  0  0
    3.7652   -3.9971   22.1519 H   0  0  0  0  0  0  0  0  0  0  0  0
    5.7795   -2.5599   21.8807 C   0  0  0  0  0  0  0  0  0  0  0  0
    4.7749   -2.3685   21.6040 H   0  0  0  0  0  0  0  0  0  0  0  0
    6.9331   -1.8898   21.5463 C   0  0  0  0  0  0  0  0  0  0  0  0
    5.6031    0.5777   20.1384 C   0  0  0  0  0  0  0  0  0  0  0  0
    5.2128    0.5699   21.1577 H   0  0  0  0  0  0  0  0  0  0  0  0
    4.9429    1.2751   19.1229 C   0  0  0  0  0  0  0  0  0  0  0  0
    4.0121    1.7977   19.3150 H   0  0  0  0  0  0  0  0  0  0  0  0
  1  2  1  0
  2  3  2  0
  3  4  1  0
  4  5  1  0
  4  6  2  0
  6  7  1  0
  7  8  1  0
  8  9  1  0
  8 10  2  0
 10 11  1  0
 10 12  1  0
 12 13  1  0
 13 14  2  0
 14 15  1  0
 15 16  1  0
 16 17  1  0
 16 18  1  0
 16 19  1  0
 19 20  1  0
 19 21  1  0
 19 22  1  0
 22 23  1  0
 23 24  2  0
 24 25  1  0
 24 26  1  0
 26 27  1  0
 26 28  2  0
 28 29  1  0
 28 30  1  0
 30 31  1  0
 30 32  2  0
 32 33  1  0
 22 34  1  0
 34 35  1  0
 34 36  1  0
 34 37  1  0
 37 38  1  0
 37 39  1  0
 14 40  1  0
 40 41  1  0
 40 42  2  0
  6 43  1  0
 43 44  1  0
 43 45  2  0
 45 46  1  0
 45  2  1  0
 42  7  1  0
 42 12  1  0
 37 15  1  0
 32 23  1  0
M  END
>  <cnnaffinity>  (1) 
-5.62145

>  <filename>  (1) 
c1ccc(N2CCN(c3cc4n(-c5cccnc5)ccn4n3)CC2)cc1

$$$$
