
     RDKit          3D

 31 34  0  0  0  0  0  0  0  0999 V2000
    3.0520   -3.6298   27.7607 H   0  0  0  0  0  0  0  0  0  0  0  0
    3.7307   -4.1269   27.0676 C   0  0  0  0  0  0  0  0  0  0  0  0
    4.0566   -3.4261   25.9743 N   0  0  0  0  0  0  0  0  0  0  0  0
    4.9194   -4.0007   25.1379 C   0  0  0  0  0  0  0  0  0  0  0  0
    5.1012   -3.2144   24.0285 N   0  0  0  0  0  0  0  0  0  0  0  0
    4.4238   -2.4645   24.0487 H   0  0  0  0  0  0  0  0  0  0  0  0
    6.2327   -2.8172   23.3848 C   0  0  0  0  0  0  0  0  0  0  0  0
    6.0766   -2.1607   22.2775 N   0  0  0  0  0  0  0  0  0  0  0  0
    7.2985   -1.7532   21.8555 N   0  0  0  0  0  0  0  0  0  0  0  0
    7.7472   -0.9835   20.7951 C   0  0  0  0  0  0  0  0  0  0  0  0
    6.8743   -0.3346   19.7918 C   0  0  0  0  0  0  0  0  0  0  0  0
    7.2514   -0.1818   18.4355 C   0  0  0  0  0  0  0  0  0  0  0  0
    8.1168   -0.7026   18.0356 H   0  0  0  0  0  0  0  0  0  0  0  0
    6.5909    0.5662   17.5418 N   0  0  0  0  0  0  0  0  0  0  0  0
    5.4866    1.1971   17.9681 C   0  0  0  0  0  0  0  0  0  0  0  0
    4.9765    1.8273   17.2423 H   0  0  0  0  0  0  0  0  0  0  0  0
    4.9717    1.0461   19.2586 C   0  0  0  0  0  0  0  0  0  0  0  0
    4.0600    1.5563   19.5406 H   0  0  0  0  0  0  0  0  0  0  0  0
    5.6530    0.2453   20.1716 C   0  0  0  0  0  0  0  0  0  0  0  0
    5.2600    0.0489   21.1667 H   0  0  0  0  0  0  0  0  0  0  0  0
    9.0955   -0.8653   21.0504 C   0  0  0  0  0  0  0  0  0  0  0  0
    9.8078   -0.2989   20.4656 H   0  0  0  0  0  0  0  0  0  0  0  0
    9.4935   -1.5258   22.1869 N   0  0  0  0  0  0  0  0  0  0  0  0
    8.3760   -2.0424   22.6332 C   0  0  0  0  0  0  0  0  0  0  0  0
    7.8708   -2.9872   24.0067 S   0  0  0  0  0  0  0  0  0  0  0  0
    5.4719   -5.2794   25.3066 C   0  0  0  0  0  0  0  0  0  0  0  0
    6.1551   -5.6595   24.5592 H   0  0  0  0  0  0  0  0  0  0  0  0
    5.0869   -6.0126   26.4287 C   0  0  0  0  0  0  0  0  0  0  0  0
    5.4675   -7.0244   26.6074 H   0  0  0  0  0  0  0  0  0  0  0  0
    4.1914   -5.4195   27.3310 C   0  0  0  0  0  0  0  0  0  0  0  0
    3.8456   -5.9302   28.2193 H   0  0  0  0  0  0  0  0  0  0  0  0
  1  2  1  0
  2  3  2  0
  3  4  1  0
  4  5  1  0
  5  6  1  0
  5  7  1  0
  7  8  2  0
  8  9  1  0
  9 10  1  0
 10 11  1  0
 11 12  2  0
 12 13  1  0
 12 14  1  0
 14 15  2  0
 15 16  1  0
 15 17  1  0
 17 18  1  0
 17 19  2  0
 19 20  1  0
 10 21  2  0
 21 22  1  0
 21 23  1  0
 23 24  2  0
 24 25  1  0
  4 26  2  0
 26 27  1  0
 26 28  1  0
 28 29  1  0
 28 30  2  0
 30 31  1  0
 30  2  1  0
 25  7  1  0
 24  9  1  0
 19 11  1  0
M  END
>  <cnnaffinity>  (1) 
-5.06241

>  <filename>  (1) 
c1ccc(Nc2nn3c(-c4cccnc4)cnc3s2)nc1

$$$$
