
     RDKit          3D

 39 42  0  0  0  0  0  0  0  0999 V2000
   14.3434   -1.2845   20.9712 C   0  0  0  0  0  0  0  0  0  0  0  0
   14.1707   -0.2012   21.8388 C   0  0  0  0  0  0  0  0  0  0  0  0
   12.8653    0.1741   22.1735 C   0  0  0  0  0  0  0  0  0  0  0  0
   11.7945   -0.5903   21.6494 C   0  0  0  0  0  0  0  0  0  0  0  0
   10.3720   -0.1326   21.7369 C   0  0  0  0  0  0  0  0  0  0  0  0
    9.3728   -0.8899   21.3122 N   0  0  0  0  0  0  0  0  0  0  0  0
    8.2840   -0.1439   21.5441 N   0  0  0  0  0  0  0  0  0  0  0  0
    6.9829   -0.6534   21.1270 C   0  0  0  0  0  0  0  0  0  0  0  0
    6.3696    0.0914   19.9627 C   0  0  0  0  0  0  0  0  0  0  0  0
    5.1531    0.7746   20.0509 C   0  0  0  0  0  0  0  0  0  0  0  0
    4.6617    1.4327   18.9201 C   0  0  0  0  0  0  0  0  0  0  0  0
    5.4080    1.3784   17.7386 C   0  0  0  0  0  0  0  0  0  0  0  0
    6.5702    0.7167   17.6284 N   0  0  0  0  0  0  0  0  0  0  0  0
    7.0320    0.0989   18.7218 C   0  0  0  0  0  0  0  0  0  0  0  0
    7.9789   -0.4295   18.6113 H   0  0  0  0  0  0  0  0  0  0  0  0
    5.0564    1.8829   16.8397 H   0  0  0  0  0  0  0  0  0  0  0  0
    3.7309    1.9878   18.9425 H   0  0  0  0  0  0  0  0  0  0  0  0
    4.5977    0.7914   20.9922 H   0  0  0  0  0  0  0  0  0  0  0  0
    6.3134   -0.6570   21.9931 H   0  0  0  0  0  0  0  0  0  0  0  0
    7.1715   -1.6974   20.8571 H   0  0  0  0  0  0  0  0  0  0  0  0
    8.6535    1.0159   22.1298 C   0  0  0  0  0  0  0  0  0  0  0  0
    7.6741    1.9157   22.8297 C   0  0  0  0  0  0  0  0  0  0  0  0
    7.2895    1.3287   24.1805 C   0  0  0  0  0  0  0  0  0  0  0  0
    6.1547    0.6541   24.5259 C   0  0  0  0  0  0  0  0  0  0  0  0
    6.2515   -0.0251   25.7814 C   0  0  0  0  0  0  0  0  0  0  0  0
    7.4502    0.1884   26.3850 C   0  0  0  0  0  0  0  0  0  0  0  0
    8.4572    1.2272   25.4562 S   0  0  0  0  0  0  0  0  0  0  0  0
    7.8352   -0.2185   27.3141 H   0  0  0  0  0  0  0  0  0  0  0  0
    5.4673   -0.6518   26.1991 H   0  0  0  0  0  0  0  0  0  0  0  0
    5.2682    0.6438   23.9030 H   0  0  0  0  0  0  0  0  0  0  0  0
    6.7825    2.0375   22.2035 H   0  0  0  0  0  0  0  0  0  0  0  0
    8.1546    2.8913   22.9473 H   0  0  0  0  0  0  0  0  0  0  0  0
    9.9652    1.0722   22.2418 N   0  0  0  0  0  0  0  0  0  0  0  0
   12.0038   -1.7346   20.9792 N   0  0  0  0  0  0  0  0  0  0  0  0
   13.2393   -2.0402   20.6030 C   0  0  0  0  0  0  0  0  0  0  0  0
   13.3453   -2.8884   19.9330 H   0  0  0  0  0  0  0  0  0  0  0  0
   12.6591    1.0757   22.7412 H   0  0  0  0  0  0  0  0  0  0  0  0
   15.0195    0.3920   22.1712 H   0  0  0  0  0  0  0  0  0  0  0  0
   15.2625   -1.5209   20.4715 H   0  0  0  0  0  0  0  0  0  0  0  0
  1  2  2  0
  2  3  1  0
  3  4  2  0
  4  5  1  0
  5  6  2  0
  6  7  1  0
  7  8  1  0
  8  9  1  0
  9 10  2  0
 10 11  1  0
 11 12  2  0
 12 13  1  0
 13 14  2  0
 14 15  1  0
 12 16  1  0
 11 17  1  0
 10 18  1  0
  8 19  1  0
  8 20  1  0
  7 21  1  0
 21 22  1  0
 22 23  1  0
 23 24  2  0
 24 25  1  0
 25 26  2  0
 26 27  1  0
 26 28  1  0
 25 29  1  0
 24 30  1  0
 22 31  1  0
 22 32  1  0
 21 33  2  0
  4 34  1  0
 34 35  2  0
 35 36  1  0
  3 37  1  0
  2 38  1  0
  1 39  1  0
 35  1  1  0
 33  5  1  0
 14  9  1  0
 27 23  1  0
M  END
>  <cnnaffinity>  (1) 
-6.4326

>  <filename>  (1) 
c1ccc(-c2nc(Cc3cccs3)n(Cc3cccnc3)n2)nc1

$$$$
