
     RDKit          3D

 38 40  0  0  0  0  0  0  0  0999 V2000
    5.3579   -6.1629   26.0165 H   0  0  0  0  0  0  0  0  0  0  0  0
    3.8941   -6.6189   25.9525 C   0  0  0  0  0  0  0  0  0  0  0  0
    6.0964   -5.8445   25.1985 N   0  0  0  0  0  0  0  0  0  0  0  0
    5.5821   -5.5118   24.0512 C   0  0  0  0  0  0  0  0  0  0  0  0
    6.5361   -5.1533   23.0304 N   0  0  0  0  0  0  0  0  0  0  0  0
    6.0651   -4.8237   21.6818 C   0  0  0  0  0  0  0  0  0  0  0  0
    5.2397   -5.4583   21.3524 H   0  0  0  0  0  0  0  0  0  0  0  0
    6.8781   -5.0489   20.9785 H   0  0  0  0  0  0  0  0  0  0  0  0
    5.7091   -3.3308   21.5574 C   0  0  0  0  0  0  0  0  0  0  0  0
    5.4633   -3.0984   20.5110 H   0  0  0  0  0  0  0  0  0  0  0  0
    4.8233   -3.0745   22.1612 H   0  0  0  0  0  0  0  0  0  0  0  0
    6.8369   -2.5175   22.0210 N   0  0  0  0  0  0  0  0  0  0  0  0
    6.8710   -1.2166   21.5518 N   0  0  0  0  0  0  0  0  0  0  0  0
    7.3141   -0.5810   22.2259 H   0  0  0  0  0  0  0  0  0  0  0  0
    7.4906   -1.1162   20.2945 N   0  0  0  0  0  0  0  0  0  0  0  0
    7.5710   -2.0603   19.9155 H   0  0  0  0  0  0  0  0  0  0  0  0
    6.8872   -0.1930   19.3829 C   0  0  0  0  0  0  0  0  0  0  0  0
    7.5260    0.0873   18.1576 C   0  0  0  0  0  0  0  0  0  0  0  0
    8.4630   -0.4167   17.9168 H   0  0  0  0  0  0  0  0  0  0  0  0
    7.0594    0.9475   17.2432 N   0  0  0  0  0  0  0  0  0  0  0  0
    5.9084    1.5839   17.5089 C   0  0  0  0  0  0  0  0  0  0  0  0
    5.5551    2.2794   16.7497 H   0  0  0  0  0  0  0  0  0  0  0  0
    5.1995    1.3898   18.6968 C   0  0  0  0  0  0  0  0  0  0  0  0
    4.2899    1.9540   18.8750 H   0  0  0  0  0  0  0  0  0  0  0  0
    5.6879    0.4886   19.6487 C   0  0  0  0  0  0  0  0  0  0  0  0
    5.1689    0.3071   20.5875 H   0  0  0  0  0  0  0  0  0  0  0  0
    8.0657   -3.1890   22.4675 C   0  0  0  0  0  0  0  0  0  0  0  0
    8.7057   -2.4649   22.9899 H   0  0  0  0  0  0  0  0  0  0  0  0
    8.6497   -3.5869   21.6172 H   0  0  0  0  0  0  0  0  0  0  0  0
    7.7094   -4.3378   23.4534 C   0  0  0  0  0  0  0  0  0  0  0  0
    8.5848   -4.9866   23.5867 H   0  0  0  0  0  0  0  0  0  0  0  0
    7.5175   -3.8715   24.4247 H   0  0  0  0  0  0  0  0  0  0  0  0
    4.1711   -5.4575   23.7464 C   0  0  0  0  0  0  0  0  0  0  0  0
    3.7911   -5.0436   22.8270 H   0  0  0  0  0  0  0  0  0  0  0  0
    3.2970   -5.7176   24.8931 C   0  0  0  0  0  0  0  0  0  0  0  0
    2.3224   -6.1175   24.6858 H   0  0  0  0  0  0  0  0  0  0  0  0
    3.6339   -6.7027   25.7605 C   0  0  0  0  0  0  0  0  0  0  0  0
    3.9608   -7.8274   25.7594 H   0  0  0  0  0  0  0  0  0  0  0  0
  1  2  1  0
  2  3  2  0
  3  4  1  0
  4  5  1  0
  5  6  1  0
  6  7  1  0
  6  8  1  0
  6  9  1  0
  9 10  1  0
  9 11  1  0
  9 12  1  0
 12 13  1  0
 13 14  1  0
 13 15  1  0
 15 16  1  0
 15 17  1  0
 17 18  2  0
 18 19  1  0
 18 20  1  0
 20 21  2  0
 21 22  1  0
 21 23  1  0
 23 24  1  0
 23 25  2  0
 25 26  1  0
 12 27  1  0
 27 28  1  0
 27 29  1  0
 27 30  1  0
 30 31  1  0
 30 32  1  0
  4 33  2  0
 33 34  1  0
 33 35  1  0
 35 36  1  0
 35 37  2  0
 37 38  1  0
 37  2  1  0
 30  5  1  0
 25 17  1  0
M  END
>  <cnnaffinity>  (1) 
-4.63419

>  <filename>  (1) 
c1ccc(N2CCN(NNc3cccnc3)CC2)nc1

$$$$
