
     RDKit          3D

 43 46  0  0  0  0  0  0  0  0999 V2000
    2.2817   -4.6414   25.8164 C   0  0  0  0  0  0  0  0  0  0  0  0
    2.8180   -3.3524   25.8871 C   0  0  0  0  0  0  0  0  0  0  0  0
    3.7127   -2.9141   24.9116 C   0  0  0  0  0  0  0  0  0  0  0  0
    4.0672   -3.7598   23.8470 C   0  0  0  0  0  0  0  0  0  0  0  0
    4.9783   -3.2691   22.7610 C   0  0  0  0  0  0  0  0  0  0  0  0
    5.9443   -2.3648   22.9975 N   0  0  0  0  0  0  0  0  0  0  0  0
    6.2700   -1.9237   21.7696 N   0  0  0  0  0  0  0  0  0  0  0  0
    6.8332   -0.6009   21.5627 C   0  0  0  0  0  0  0  0  0  0  0  0
    6.4305    0.0773   20.2664 C   0  0  0  0  0  0  0  0  0  0  0  0
    5.3097    0.9172   20.2113 C   0  0  0  0  0  0  0  0  0  0  0  0
    4.9818    1.5320   18.9991 C   0  0  0  0  0  0  0  0  0  0  0  0
    5.7867    1.2906   17.8832 C   0  0  0  0  0  0  0  0  0  0  0  0
    6.8653    0.4930   17.9122 N   0  0  0  0  0  0  0  0  0  0  0  0
    7.1700   -0.0850   19.0827 C   0  0  0  0  0  0  0  0  0  0  0  0
    8.0608   -0.7138   19.0686 H   0  0  0  0  0  0  0  0  0  0  0  0
    5.5604    1.7526   16.9222 H   0  0  0  0  0  0  0  0  0  0  0  0
    4.1343    2.2076   18.9123 H   0  0  0  0  0  0  0  0  0  0  0  0
    4.7089    1.0936   21.1061 H   0  0  0  0  0  0  0  0  0  0  0  0
    7.9277   -0.6368   21.6421 H   0  0  0  0  0  0  0  0  0  0  0  0
    6.4810   -0.0274   22.4236 H   0  0  0  0  0  0  0  0  0  0  0  0
    5.9128   -2.9837   20.8013 C   0  0  0  0  0  0  0  0  0  0  0  0
    6.9402   -4.0145   20.6650 C   0  0  0  0  0  0  0  0  0  0  0  0
    8.0978   -4.2062   21.4914 C   0  0  0  0  0  0  0  0  0  0  0  0
    8.1798   -5.4306   22.4608 C   0  0  0  0  0  0  0  0  0  0  0  0
    8.4753   -5.3564   23.8990 C   0  0  0  0  0  0  0  0  0  0  0  0
    7.2973   -5.9459   24.2077 N   0  0  0  0  0  0  0  0  0  0  0  0
    6.3362   -6.2716   23.4127 N   0  0  0  0  0  0  0  0  0  0  0  0
    8.5266   -5.6531   22.2759 C   0  0  0  0  0  0  0  0  0  0  0  0
    9.1405   -6.4140   21.8721 H   0  0  0  0  0  0  0  0  0  0  0  0
    6.9766   -6.0139   25.1854 H   0  0  0  0  0  0  0  0  0  0  0  0
    9.3672   -5.4482   24.5197 H   0  0  0  0  0  0  0  0  0  0  0  0
    8.0334   -3.2805   22.1488 H   0  0  0  0  0  0  0  0  0  0  0  0
    8.8962   -3.9014   20.7283 H   0  0  0  0  0  0  0  0  0  0  0  0
    6.6631   -4.7380   19.9148 H   0  0  0  0  0  0  0  0  0  0  0  0
    5.6110   -2.6041   19.7601 H   0  0  0  0  0  0  0  0  0  0  0  0
    4.8035   -3.6380   21.5030 N   0  0  0  0  0  0  0  0  0  0  0  0
    3.5370   -5.0657   23.7892 C   0  0  0  0  0  0  0  0  0  0  0  0
    2.6442   -5.4969   24.7726 C   0  0  0  0  0  0  0  0  0  0  0  0
    2.2549   -6.5111   24.7297 H   0  0  0  0  0  0  0  0  0  0  0  0
    3.9299   -5.7712   23.0520 H   0  0  0  0  0  0  0  0  0  0  0  0
    4.1511   -1.9189   24.9704 H   0  0  0  0  0  0  0  0  0  0  0  0
    2.5486   -2.6871   26.7045 H   0  0  0  0  0  0  0  0  0  0  0  0
    1.5989   -4.9869   26.5866 H   0  0  0  0  0  0  0  0  0  0  0  0
  1  2  2  0
  2  3  1  0
  3  4  2  0
  4  5  1  0
  5  6  2  0
  6  7  1  0
  7  8  1  0
  8  9  1  0
  9 10  2  0
 10 11  1  0
 11 12  2  0
 12 13  1  0
 13 14  2  0
 14 15  1  0
 12 16  1  0
 11 17  1  0
 10 18  1  0
  8 19  1  0
  8 20  1  0
  7 21  1  0
 21 22  1  0
 22 23  1  0
 23 24  1  0
 24 25  2  0
 25 26  1  0
 26 27  1  0
 27 28  2  0
 28 29  1  0
 26 30  1  0
 25 31  1  0
 23 32  1  0
 23 33  1  0
 22 34  1  0
 22 35  1  0
 21 36  2  0
  4 37  1  0
 37 38  2  0
 38 39  1  0
 37 40  1  0
  3 41  1  0
  2 42  1  0
  1 43  1  0
 38  1  1  0
 36  5  1  0
 14  9  1  0
 28 24  1  0
M  END
>  <cnnaffinity>  (1) 
-5.6538

>  <filename>  (1) 
c1ccc(-c2nc(CCc3cn[nH]c3)n(Cc3cccnc3)n2)cc1

$$$$
