
     RDKit          3D

 42 45  0  0  0  0  0  0  0  0999 V2000
    7.2425    5.4628   25.3191 C   0  0  0  0  0  0  0  0  0  0  0  0
    8.0024    5.4131   24.1470 C   0  0  0  0  0  0  0  0  0  0  0  0
    8.3925    4.1650   23.6660 C   0  0  0  0  0  0  0  0  0  0  0  0
    8.0076    3.0093   24.3653 C   0  0  0  0  0  0  0  0  0  0  0  0
    8.2961    1.6422   23.8071 C   0  0  0  0  0  0  0  0  0  0  0  0
    7.1831    1.2146   22.8077 C   0  0  0  0  0  0  0  0  0  0  0  0
    7.3841   -0.1581   22.2522 C   0  0  0  0  0  0  0  0  0  0  0  0
    7.8935   -1.1309   22.9773 N   0  0  0  0  0  0  0  0  0  0  0  0
    8.1546   -2.0967   22.0675 C   0  0  0  0  0  0  0  0  0  0  0  0
    8.9677   -3.2929   22.4221 C   0  0  0  0  0  0  0  0  0  0  0  0
    8.5436   -4.1938   23.6227 C   0  0  0  0  0  0  0  0  0  0  0  0
    9.9331   -3.9848   24.2741 C   0  0  0  0  0  0  0  0  0  0  0  0
   10.3100   -2.9729   23.1676 C   0  0  0  0  0  0  0  0  0  0  0  0
   11.2387   -3.1330   22.6114 H   0  0  0  0  0  0  0  0  0  0  0  0
   10.3471   -1.9420   23.5403 H   0  0  0  0  0  0  0  0  0  0  0  0
    9.8984   -3.5684   25.2882 H   0  0  0  0  0  0  0  0  0  0  0  0
   10.5661   -4.8804   24.2974 H   0  0  0  0  0  0  0  0  0  0  0  0
    7.7128   -3.7752   24.2055 H   0  0  0  0  0  0  0  0  0  0  0  0
    8.3077   -5.2303   23.3548 H   0  0  0  0  0  0  0  0  0  0  0  0
    9.0473   -3.8409   21.4813 H   0  0  0  0  0  0  0  0  0  0  0  0
    7.7815   -1.8181   20.8366 N   0  0  0  0  0  0  0  0  0  0  0  0
    7.2346   -0.5778   20.9580 N   0  0  0  0  0  0  0  0  0  0  0  0
    6.5739    0.0462   19.8689 C   0  0  0  0  0  0  0  0  0  0  0  0
    5.3633    0.7208   20.0691 C   0  0  0  0  0  0  0  0  0  0  0  0
    4.7828    1.3661   18.9753 C   0  0  0  0  0  0  0  0  0  0  0  0
    5.4287    1.3167   17.7370 C   0  0  0  0  0  0  0  0  0  0  0  0
    6.5659    0.6302   17.5288 N   0  0  0  0  0  0  0  0  0  0  0  0
    7.1133   -0.0087   18.5685 C   0  0  0  0  0  0  0  0  0  0  0  0
    8.0134   -0.5860   18.3707 H   0  0  0  0  0  0  0  0  0  0  0  0
    5.0100    1.8353   16.8771 H   0  0  0  0  0  0  0  0  0  0  0  0
    3.8475    1.9022   19.0773 H   0  0  0  0  0  0  0  0  0  0  0  0
    4.8808    0.7208   21.0460 H   0  0  0  0  0  0  0  0  0  0  0  0
    7.1007    1.9442   21.9926 H   0  0  0  0  0  0  0  0  0  0  0  0
    6.2275    1.2147   23.3478 H   0  0  0  0  0  0  0  0  0  0  0  0
    8.3405    0.9184   24.6293 H   0  0  0  0  0  0  0  0  0  0  0  0
    9.2787    1.6269   23.3167 H   0  0  0  0  0  0  0  0  0  0  0  0
    7.2774    3.0567   25.4912 N   0  0  0  0  0  0  0  0  0  0  0  0
    6.9152    4.2598   25.9488 C   0  0  0  0  0  0  0  0  0  0  0  0
    6.3267    4.2574   26.8649 H   0  0  0  0  0  0  0  0  0  0  0  0
    8.9683    4.0691   22.7489 H   0  0  0  0  0  0  0  0  0  0  0  0
    8.2730    6.3241   23.6140 H   0  0  0  0  0  0  0  0  0  0  0  0
    6.9058    6.4041   25.7368 H   0  0  0  0  0  0  0  0  0  0  0  0
  1  2  2  0
  2  3  1  0
  3  4  2  0
  4  5  1  0
  5  6  1  0
  6  7  1  0
  7  8  2  0
  8  9  1  0
  9 10  1  0
 10 11  1  0
 11 12  1  0
 12 13  1  0
 13 14  1  0
 13 15  1  0
 12 16  1  0
 12 17  1  0
 11 18  1  0
 11 19  1  0
 10 20  1  0
  9 21  2  0
 21 22  1  0
 22 23  1  0
 23 24  2  0
 24 25  1  0
 25 26  2  0
 26 27  1  0
 27 28  2  0
 28 29  1  0
 26 30  1  0
 25 31  1  0
 24 32  1  0
  6 33  1  0
  6 34  1  0
  5 35  1  0
  5 36  1  0
  4 37  1  0
 37 38  2  0
 38 39  1  0
  3 40  1  0
  2 41  1  0
  1 42  1  0
 38  1  1  0
 22  7  1  0
 28 23  1  0
 13 10  1  0
M  END
>  <cnnaffinity>  (1) 
-6.09562

>  <filename>  (1) 
c1ccc(CCc2nc(C3CCC3)nn2-c2cccnc2)nc1

$$$$
