
     RDKit          3D

 42 45  0  0  0  0  0  0  0  0999 V2000
   14.1929   -1.2149   21.1105 C   0  0  0  0  0  0  0  0  0  0  0  0
   13.1233   -1.9753   20.6558 C   0  0  0  0  0  0  0  0  0  0  0  0
   11.8448   -1.6956   21.1161 C   0  0  0  0  0  0  0  0  0  0  0  0
   11.5935   -0.6112   21.9651 C   0  0  0  0  0  0  0  0  0  0  0  0
   10.1693   -0.2606   22.1755 C   0  0  0  0  0  0  0  0  0  0  0  0
    9.1943   -0.9754   21.6153 N   0  0  0  0  0  0  0  0  0  0  0  0
    8.0763   -0.2984   21.9364 N   0  0  0  0  0  0  0  0  0  0  0  0
    6.7702   -0.7105   21.4242 C   0  0  0  0  0  0  0  0  0  0  0  0
    6.3312    0.0539   20.1881 C   0  0  0  0  0  0  0  0  0  0  0  0
    5.1731    0.8388   20.1404 C   0  0  0  0  0  0  0  0  0  0  0  0
    4.8721    1.5144   18.9522 C   0  0  0  0  0  0  0  0  0  0  0  0
    5.7339    1.3721   17.8594 C   0  0  0  0  0  0  0  0  0  0  0  0
    6.8599    0.6430   17.8917 N   0  0  0  0  0  0  0  0  0  0  0  0
    7.1468    0.0228   19.0427 C   0  0  0  0  0  0  0  0  0  0  0  0
    8.0911   -0.5222   19.0769 H   0  0  0  0  0  0  0  0  0  0  0  0
    5.5111    1.8590   16.9118 H   0  0  0  0  0  0  0  0  0  0  0  0
    3.9978    2.1536   18.8699 H   0  0  0  0  0  0  0  0  0  0  0  0
    4.5470    0.9736   21.0284 H   0  0  0  0  0  0  0  0  0  0  0  0
    6.0402   -0.5971   22.2308 H   0  0  0  0  0  0  0  0  0  0  0  0
    6.8575   -1.7816   21.2232 H   0  0  0  0  0  0  0  0  0  0  0  0
    8.4165    0.8027   22.6396 C   0  0  0  0  0  0  0  0  0  0  0  0
    7.4782    1.8938   23.0189 C   0  0  0  0  0  0  0  0  0  0  0  0
    7.3465    2.9883   21.9243 C   0  0  0  0  0  0  0  0  0  0  0  0
    6.2967    4.0002   22.2281 C   0  0  0  0  0  0  0  0  0  0  0  0
    5.0119    3.7764   22.3048 N   0  0  0  0  0  0  0  0  0  0  0  0
    4.3995    4.9617   22.6464 N   0  0  0  0  0  0  0  0  0  0  0  0
    5.3313    5.8609   22.7674 C   0  0  0  0  0  0  0  0  0  0  0  0
    6.5533    5.3028   22.5293 N   0  0  0  0  0  0  0  0  0  0  0  0
    7.4418    5.7584   22.4349 H   0  0  0  0  0  0  0  0  0  0  0  0
    5.1831    6.8963   23.0485 H   0  0  0  0  0  0  0  0  0  0  0  0
    8.3156    3.4853   21.7883 H   0  0  0  0  0  0  0  0  0  0  0  0
    7.0764    2.5293   20.9678 H   0  0  0  0  0  0  0  0  0  0  0  0
    7.8689    2.3376   23.9385 H   0  0  0  0  0  0  0  0  0  0  0  0
    6.4915    1.4782   23.2565 H   0  0  0  0  0  0  0  0  0  0  0  0
    9.7243    0.8408   22.8270 N   0  0  0  0  0  0  0  0  0  0  0  0
   12.6891    0.1227   22.4690 C   0  0  0  0  0  0  0  0  0  0  0  0
   13.9866   -0.1811   22.0360 C   0  0  0  0  0  0  0  0  0  0  0  0
   14.8274    0.4149   22.3804 H   0  0  0  0  0  0  0  0  0  0  0  0
   12.5282    0.9295   23.1792 H   0  0  0  0  0  0  0  0  0  0  0  0
   10.9916   -2.2748   20.7894 H   0  0  0  0  0  0  0  0  0  0  0  0
   13.2863   -2.7716   19.9364 H   0  0  0  0  0  0  0  0  0  0  0  0
   15.1485   -1.4264   20.6634 H   0  0  0  0  0  0  0  0  0  0  0  0
  1  2  2  0
  2  3  1  0
  3  4  2  0
  4  5  1  0
  5  6  2  0
  6  7  1  0
  7  8  1  0
  8  9  1  0
  9 10  2  0
 10 11  1  0
 11 12  2  0
 12 13  1  0
 13 14  2  0
 14 15  1  0
 12 16  1  0
 11 17  1  0
 10 18  1  0
  8 19  1  0
  8 20  1  0
  7 21  1  0
 21 22  1  0
 22 23  1  0
 23 24  1  0
 24 25  2  0
 25 26  1  0
 26 27  2  0
 27 28  1  0
 28 29  1  0
 27 30  1  0
 23 31  1  0
 23 32  1  0
 22 33  1  0
 22 34  1  0
 21 35  2  0
  4 36  1  0
 36 37  2  0
 37 38  1  0
 36 39  1  0
  3 40  1  0
  2 41  1  0
  1 42  1  0
 37  1  1  0
 35  5  1  0
 14  9  1  0
 28 24  1  0
M  END
>  <cnnaffinity>  (1) 
-6.24781

>  <filename>  (1) 
c1ccc(-c2nc(CCc3nnc[nH]3)n(Cc3cccnc3)n2)cc1

$$$$
