
     RDKit          3D

 34 36  0  0  0  0  0  0  0  0999 V2000
    9.2947   -3.3337   21.2881 H   0  0  0  0  0  0  0  0  0  0  0  0
    8.7324   -2.4498   21.5748 C   0  0  0  0  0  0  0  0  0  0  0  0
    8.1270   -1.7877   20.5931 N   0  0  0  0  0  0  0  0  0  0  0  0
    7.4017   -0.7280   20.9524 C   0  0  0  0  0  0  0  0  0  0  0  0
    6.6563   -0.0149   19.9028 C   0  0  0  0  0  0  0  0  0  0  0  0
    7.1755    0.0368   18.5997 C   0  0  0  0  0  0  0  0  0  0  0  0
    8.1222   -0.4413   18.3620 H   0  0  0  0  0  0  0  0  0  0  0  0
    6.5743    0.6675   17.5877 N   0  0  0  0  0  0  0  0  0  0  0  0
    5.4128    1.2855   17.8444 C   0  0  0  0  0  0  0  0  0  0  0  0
    4.9440    1.7885   17.0019 H   0  0  0  0  0  0  0  0  0  0  0  0
    4.8083    1.2995   19.1063 C   0  0  0  0  0  0  0  0  0  0  0  0
    3.8777    1.8373   19.2531 H   0  0  0  0  0  0  0  0  0  0  0  0
    5.4412    0.6418   20.1577 C   0  0  0  0  0  0  0  0  0  0  0  0
    4.9917    0.6355   21.1551 H   0  0  0  0  0  0  0  0  0  0  0  0
    7.3587   -0.2826   22.2693 C   0  0  0  0  0  0  0  0  0  0  0  0
    6.8266    0.6194   22.5361 H   0  0  0  0  0  0  0  0  0  0  0  0
    8.0800   -1.0041   23.2105 C   0  0  0  0  0  0  0  0  0  0  0  0
    8.1409   -0.5153   24.6710 C   0  0  0  0  0  0  0  0  0  0  0  0
    8.6908   -1.2791   25.2324 H   0  0  0  0  0  0  0  0  0  0  0  0
    7.1203   -0.4946   25.0709 H   0  0  0  0  0  0  0  0  0  0  0  0
    8.7265    0.8009   24.9411 N   0  0  0  0  0  0  0  0  0  0  0  0
    8.1223    1.6044   25.0281 H   0  0  0  0  0  0  0  0  0  0  0  0
   10.0203    1.1353   24.5835 C   0  0  0  0  0  0  0  0  0  0  0  0
   10.9995    0.1571   24.3417 C   0  0  0  0  0  0  0  0  0  0  0  0
   10.7052   -0.8872   24.3543 H   0  0  0  0  0  0  0  0  0  0  0  0
   12.3166    0.5367   24.0787 C   0  0  0  0  0  0  0  0  0  0  0  0
   13.0709   -0.2266   23.9043 H   0  0  0  0  0  0  0  0  0  0  0  0
   12.6697    1.8879   24.0385 C   0  0  0  0  0  0  0  0  0  0  0  0
   13.6974    2.1732   23.8392 H   0  0  0  0  0  0  0  0  0  0  0  0
   11.6917    2.8672   24.2532 C   0  0  0  0  0  0  0  0  0  0  0  0
   11.9592    3.9219   24.2287 H   0  0  0  0  0  0  0  0  0  0  0  0
   10.3744    2.4963   24.5201 C   0  0  0  0  0  0  0  0  0  0  0  0
    9.6049    3.2445   24.6925 H   0  0  0  0  0  0  0  0  0  0  0  0
    8.7309   -2.1295   22.8690 N   0  0  0  0  0  0  0  0  0  0  0  0
  1  2  1  0
  2  3  2  0
  3  4  1  0
  4  5  1  0
  5  6  2  0
  6  7  1  0
  6  8  1  0
  8  9  2  0
  9 10  1  0
  9 11  1  0
 11 12  1  0
 11 13  2  0
 13 14  1  0
  4 15  2  0
 15 16  1  0
 15 17  1  0
 17 18  1  0
 18 19  1  0
 18 20  1  0
 18 21  1  0
 21 22  1  0
 21 23  1  0
 23 24  2  0
 24 25  1  0
 24 26  1  0
 26 27  1  0
 26 28  2  0
 28 29  1  0
 28 30  1  0
 30 31  1  0
 30 32  2  0
 32 33  1  0
 17 34  2  0
 34  2  1  0
 13  5  1  0
 32 23  1  0
M  END
>  <cnnaffinity>  (1) 
-5.12041

>  <filename>  (1) 
c1ccc(NCc2cc(-c3cccnc3)ncn2)cc1

$$$$
