
     RDKit          3D

 33 35  0  0  0  0  0  0  0  0999 V2000
    4.9785    1.8128   16.9273 H   0  0  0  0  0  0  0  0  0  0  0  0
    5.4236    1.3063   17.7863 C   0  0  0  0  0  0  0  0  0  0  0  0
    6.5880    0.6788   17.5694 N   0  0  0  0  0  0  0  0  0  0  0  0
    7.1638    0.0675   18.6078 C   0  0  0  0  0  0  0  0  0  0  0  0
    8.1122   -0.4229   18.4016 H   0  0  0  0  0  0  0  0  0  0  0  0
    6.6250    0.0248   19.9044 C   0  0  0  0  0  0  0  0  0  0  0  0
    7.3933   -0.6972   20.9279 C   0  0  0  0  0  0  0  0  0  0  0  0
    8.6300   -1.1238   20.7943 N   0  0  0  0  0  0  0  0  0  0  0  0
    8.9512   -1.7517   21.9697 C   0  0  0  0  0  0  0  0  0  0  0  0
    9.9410   -2.1814   22.1182 H   0  0  0  0  0  0  0  0  0  0  0  0
    7.8954   -1.7256   22.8416 C   0  0  0  0  0  0  0  0  0  0  0  0
    7.7193   -2.3426   24.2135 C   0  0  0  0  0  0  0  0  0  0  0  0
    8.3648   -1.8540   24.9529 H   0  0  0  0  0  0  0  0  0  0  0  0
    6.6906   -2.1628   24.5641 H   0  0  0  0  0  0  0  0  0  0  0  0
    7.9918   -3.7671   24.3066 N   0  0  0  0  0  0  0  0  0  0  0  0
    8.9741   -3.9996   24.3369 H   0  0  0  0  0  0  0  0  0  0  0  0
    7.3000   -4.6755   23.5023 C   0  0  0  0  0  0  0  0  0  0  0  0
    7.8707   -5.9364   23.2611 C   0  0  0  0  0  0  0  0  0  0  0  0
    8.8235   -6.1740   23.7282 H   0  0  0  0  0  0  0  0  0  0  0  0
    7.2026   -6.8771   22.4731 C   0  0  0  0  0  0  0  0  0  0  0  0
    7.6711   -7.8385   22.2748 H   0  0  0  0  0  0  0  0  0  0  0  0
    5.9340   -6.5930   21.9513 C   0  0  0  0  0  0  0  0  0  0  0  0
    5.4090   -7.3229   21.3392 H   0  0  0  0  0  0  0  0  0  0  0  0
    5.3450   -5.3548   22.2225 C   0  0  0  0  0  0  0  0  0  0  0  0
    4.3399   -5.1365   21.8665 H   0  0  0  0  0  0  0  0  0  0  0  0
    6.0317   -4.3935   22.9696 C   0  0  0  0  0  0  0  0  0  0  0  0
    5.5891   -3.4182   23.1375 H   0  0  0  0  0  0  0  0  0  0  0  0
    6.9050   -1.0331   22.1562 N   0  0  0  0  0  0  0  0  0  0  0  0
    5.9469   -0.9076   22.4393 H   0  0  0  0  0  0  0  0  0  0  0  0
    5.4012    0.6859   20.1179 C   0  0  0  0  0  0  0  0  0  0  0  0
    4.9201    0.7305   21.1003 H   0  0  0  0  0  0  0  0  0  0  0  0
    4.7969    1.3283   19.0375 C   0  0  0  0  0  0  0  0  0  0  0  0
    3.8586    1.8582   19.1426 H   0  0  0  0  0  0  0  0  0  0  0  0
  1  2  1  0
  2  3  2  0
  3  4  1  0
  4  5  1  0
  4  6  2  0
  6  7  1  0
  7  8  2  0
  8  9  1  0
  9 10  1  0
  9 11  2  0
 11 12  1  0
 12 13  1  0
 12 14  1  0
 12 15  1  0
 15 16  1  0
 15 17  1  0
 17 18  2  0
 18 19  1  0
 18 20  1  0
 20 21  1  0
 20 22  2  0
 22 23  1  0
 22 24  1  0
 24 25  1  0
 24 26  2  0
 26 27  1  0
 11 28  1  0
 28 29  1  0
  6 30  1  0
 30 31  1  0
 30 32  2  0
 32 33  1  0
 32  2  1  0
 28  7  1  0
 26 17  1  0
M  END
>  <cnnaffinity>  (1) 
-5.40819

>  <filename>  (1) 
c1ccc(NCc2cnc(-c3cccnc3)[nH]2)cc1

$$$$
