
     RDKit          3D

 40 43  0  0  0  0  0  0  0  0999 V2000
   12.9994    2.2619   23.7763 C   0  0  0  0  0  0  0  0  0  0  0  0
   12.3424    1.0589   24.0403 C   0  0  0  0  0  0  0  0  0  0  0  0
   10.9492    1.0503   23.9343 C   0  0  0  0  0  0  0  0  0  0  0  0
   10.2887    2.2386   23.5910 C   0  0  0  0  0  0  0  0  0  0  0  0
    8.5808    2.2121   23.0661 S   0  0  0  0  0  0  0  0  0  0  0  0
    8.9283    1.9994   21.2850 C   0  0  0  0  0  0  0  0  0  0  0  0
    9.5026    0.6177   20.9201 C   0  0  0  0  0  0  0  0  0  0  0  0
    8.6491   -0.5124   21.3890 C   0  0  0  0  0  0  0  0  0  0  0  0
    8.8937   -1.3727   22.3592 N   0  0  0  0  0  0  0  0  0  0  0  0
    7.6859   -1.9777   22.5427 C   0  0  0  0  0  0  0  0  0  0  0  0
    7.4523   -2.9596   23.6301 C   0  0  0  0  0  0  0  0  0  0  0  0
    6.3346   -2.7604   24.6204 C   0  0  0  0  0  0  0  0  0  0  0  0
    7.7625   -2.6011   25.0621 C   0  0  0  0  0  0  0  0  0  0  0  0
    8.1118   -1.5855   25.2630 H   0  0  0  0  0  0  0  0  0  0  0  0
    8.2151   -3.3742   25.6823 H   0  0  0  0  0  0  0  0  0  0  0  0
    5.7830   -3.6471   24.9290 H   0  0  0  0  0  0  0  0  0  0  0  0
    5.7325   -1.8553   24.5241 H   0  0  0  0  0  0  0  0  0  0  0  0
    7.6668   -3.9855   23.3328 H   0  0  0  0  0  0  0  0  0  0  0  0
    6.7424   -1.5973   21.7062 N   0  0  0  0  0  0  0  0  0  0  0  0
    7.3707   -0.6693   20.9409 N   0  0  0  0  0  0  0  0  0  0  0  0
    6.6777   -0.0114   19.8904 C   0  0  0  0  0  0  0  0  0  0  0  0
    5.4587    0.6226   20.1548 C   0  0  0  0  0  0  0  0  0  0  0  0
    4.8326    1.3006   19.1071 C   0  0  0  0  0  0  0  0  0  0  0  0
    5.4229    1.3025   17.8378 C   0  0  0  0  0  0  0  0  0  0  0  0
    6.5691    0.6599   17.5676 N   0  0  0  0  0  0  0  0  0  0  0  0
    7.1742    0.0194   18.5745 C   0  0  0  0  0  0  0  0  0  0  0  0
    8.0985   -0.5015   18.3308 H   0  0  0  0  0  0  0  0  0  0  0  0
    4.9552    1.8292   17.0080 H   0  0  0  0  0  0  0  0  0  0  0  0
    3.8972    1.8242   19.2622 H   0  0  0  0  0  0  0  0  0  0  0  0
    5.0372    0.5756   21.1590 H   0  0  0  0  0  0  0  0  0  0  0  0
    9.5976    0.5649   19.8331 H   0  0  0  0  0  0  0  0  0  0  0  0
   10.5011    0.4877   21.3439 H   0  0  0  0  0  0  0  0  0  0  0  0
    7.9832    2.1917   20.7667 H   0  0  0  0  0  0  0  0  0  0  0  0
    9.6360    2.7763   20.9815 H   0  0  0  0  0  0  0  0  0  0  0  0
   10.9150    3.4114   23.4622 N   0  0  0  0  0  0  0  0  0  0  0  0
   12.2457    3.4103   23.5401 C   0  0  0  0  0  0  0  0  0  0  0  0
   12.7221    4.3767   23.3694 H   0  0  0  0  0  0  0  0  0  0  0  0
   10.3787    0.1347   23.9877 H   0  0  0  0  0  0  0  0  0  0  0  0
   12.8974    0.1534   24.2754 H   0  0  0  0  0  0  0  0  0  0  0  0
   14.0701    2.3068   23.6957 H   0  0  0  0  0  0  0  0  0  0  0  0
  1  2  2  0
  2  3  1  0
  3  4  2  0
  4  5  1  0
  5  6  1  0
  6  7  1  0
  7  8  1  0
  8  9  2  0
  9 10  1  0
 10 11  1  0
 11 12  1  0
 12 13  1  0
 13 14  1  0
 13 15  1  0
 12 16  1  0
 12 17  1  0
 11 18  1  0
 10 19  2  0
 19 20  1  0
 20 21  1  0
 21 22  2  0
 22 23  1  0
 23 24  2  0
 24 25  1  0
 25 26  2  0
 26 27  1  0
 24 28  1  0
 23 29  1  0
 22 30  1  0
  7 31  1  0
  7 32  1  0
  6 33  1  0
  6 34  1  0
  4 35  1  0
 35 36  2  0
 36 37  1  0
  3 38  1  0
  2 39  1  0
  1 40  1  0
 36  1  1  0
 20  8  1  0
 26 21  1  0
 13 11  1  0
M  END
>  <cnnaffinity>  (1) 
-6.06136

>  <filename>  (1) 
c1ccc(SCCc2nc(C3CC3)nn2-c2cccnc2)nc1

$$$$
