
     RDKit          3D

 48 51  0  0  0  0  0  0  0  0999 V2000
   13.0162    2.2416   23.7364 C   0  0  0  0  0  0  0  0  0  0  0  0
   12.3457    3.4497   23.5102 C   0  0  0  0  0  0  0  0  0  0  0  0
   10.9516    3.4601   23.4386 C   0  0  0  0  0  0  0  0  0  0  0  0
   10.2370    2.2604   23.5765 C   0  0  0  0  0  0  0  0  0  0  0  0
    8.5363    2.2178   23.0365 S   0  0  0  0  0  0  0  0  0  0  0  0
    8.9083    1.9941   21.2541 C   0  0  0  0  0  0  0  0  0  0  0  0
    9.4931    0.6117   20.8992 C   0  0  0  0  0  0  0  0  0  0  0  0
    8.6410   -0.5191   21.3808 C   0  0  0  0  0  0  0  0  0  0  0  0
    8.8825   -1.3794   22.3567 N   0  0  0  0  0  0  0  0  0  0  0  0
    7.6769   -1.9838   22.5420 C   0  0  0  0  0  0  0  0  0  0  0  0
    7.4355   -2.9748   23.6570 C   0  0  0  0  0  0  0  0  0  0  0  0
    6.6352   -2.3161   24.8332 C   0  0  0  0  0  0  0  0  0  0  0  0
    5.8403   -3.3546   25.6306 C   0  0  0  0  0  0  0  0  0  0  0  0
    4.9102   -4.0785   24.8263 O   0  0  0  0  0  0  0  0  0  0  0  0
    5.2135   -4.1979   23.4399 C   0  0  0  0  0  0  0  0  0  0  0  0
    6.7200   -4.2766   23.1769 C   0  0  0  0  0  0  0  0  0  0  0  0
    6.9109   -4.4638   22.1139 H   0  0  0  0  0  0  0  0  0  0  0  0
    7.1240   -5.1372   23.7284 H   0  0  0  0  0  0  0  0  0  0  0  0
    4.7972   -3.3394   22.8857 H   0  0  0  0  0  0  0  0  0  0  0  0
    4.7068   -5.1054   23.0991 H   0  0  0  0  0  0  0  0  0  0  0  0
    5.2521   -2.8664   26.4146 H   0  0  0  0  0  0  0  0  0  0  0  0
    6.5229   -4.0648   26.1274 H   0  0  0  0  0  0  0  0  0  0  0  0
    5.9198   -1.5848   24.4290 H   0  0  0  0  0  0  0  0  0  0  0  0
    7.3140   -1.7688   25.4985 H   0  0  0  0  0  0  0  0  0  0  0  0
    8.4361   -3.2377   24.0078 H   0  0  0  0  0  0  0  0  0  0  0  0
    6.7252   -1.5796   21.7220 N   0  0  0  0  0  0  0  0  0  0  0  0
    7.3609   -0.6657   20.9437 N   0  0  0  0  0  0  0  0  0  0  0  0
    6.6659   -0.0113   19.8917 C   0  0  0  0  0  0  0  0  0  0  0  0
    5.4520    0.6272   20.1555 C   0  0  0  0  0  0  0  0  0  0  0  0
    4.8287    1.3053   19.1044 C   0  0  0  0  0  0  0  0  0  0  0  0
    5.4200    1.3066   17.8344 C   0  0  0  0  0  0  0  0  0  0  0  0
    6.5666    0.6638   17.5682 N   0  0  0  0  0  0  0  0  0  0  0  0
    7.1663    0.0213   18.5771 C   0  0  0  0  0  0  0  0  0  0  0  0
    8.0896   -0.4996   18.3346 H   0  0  0  0  0  0  0  0  0  0  0  0
    4.9517    1.8271   17.0003 H   0  0  0  0  0  0  0  0  0  0  0  0
    3.8946    1.8291   19.2585 H   0  0  0  0  0  0  0  0  0  0  0  0
    5.0318    0.5929   21.1626 H   0  0  0  0  0  0  0  0  0  0  0  0
    9.5918    0.5484   19.8114 H   0  0  0  0  0  0  0  0  0  0  0  0
   10.4877    0.4963   21.3358 H   0  0  0  0  0  0  0  0  0  0  0  0
    9.6243    2.7749   20.9784 H   0  0  0  0  0  0  0  0  0  0  0  0
    7.9828    2.1828   20.7009 H   0  0  0  0  0  0  0  0  0  0  0  0
   10.9064    1.0672   23.8954 C   0  0  0  0  0  0  0  0  0  0  0  0
   12.3027    1.0641   23.9824 C   0  0  0  0  0  0  0  0  0  0  0  0
   12.8310    0.1373   24.2004 H   0  0  0  0  0  0  0  0  0  0  0  0
   10.3458    0.1356   23.9487 H   0  0  0  0  0  0  0  0  0  0  0  0
   10.4093    4.3731   23.1995 H   0  0  0  0  0  0  0  0  0  0  0  0
   12.8921    4.3775   23.3512 H   0  0  0  0  0  0  0  0  0  0  0  0
   14.0962    2.2072   23.6972 H   0  0  0  0  0  0  0  0  0  0  0  0
  1  2  2  0
  2  3  1  0
  3  4  2  0
  4  5  1  0
  5  6  1  0
  6  7  1  0
  7  8  1  0
  8  9  2  0
  9 10  1  0
 10 11  1  0
 11 12  1  0
 12 13  1  0
 13 14  1  0
 14 15  1  0
 15 16  1  0
 16 17  1  0
 16 18  1  0
 15 19  1  0
 15 20  1  0
 13 21  1  0
 13 22  1  0
 12 23  1  0
 12 24  1  0
 11 25  1  0
 10 26  2  0
 26 27  1  0
 27 28  1  0
 28 29  2  0
 29 30  1  0
 30 31  2  0
 31 32  1  0
 32 33  2  0
 33 34  1  0
 31 35  1  0
 30 36  1  0
 29 37  1  0
  7 38  1  0
  7 39  1  0
  6 40  1  0
  6 41  1  0
  4 42  1  0
 42 43  2  0
 43 44  1  0
 42 45  1  0
  3 46  1  0
  2 47  1  0
  1 48  1  0
 43  1  1  0
 27  8  1  0
 33 28  1  0
 16 11  1  0
M  END
>  <cnnaffinity>  (1) 
-6.27348

>  <filename>  (1) 
c1ccc(SCCc2nc(C3CCOCC3)nn2-c2cccnc2)cc1

$$$$
