
     RDKit          3D

 43 46  0  0  0  0  0  0  0  0999 V2000
    5.5283    5.0917   25.2296 C   0  0  0  0  0  0  0  0  0  0  0  0
    6.5888    4.4092   25.8342 C   0  0  0  0  0  0  0  0  0  0  0  0
    6.8382    3.0964   25.4357 C   0  0  0  0  0  0  0  0  0  0  0  0
    6.0273    2.5128   24.4498 C   0  0  0  0  0  0  0  0  0  0  0  0
    6.3337    1.1603   23.8735 C   0  0  0  0  0  0  0  0  0  0  0  0
    7.3666    1.2562   22.7184 C   0  0  0  0  0  0  0  0  0  0  0  0
    7.6490   -0.0834   22.1394 C   0  0  0  0  0  0  0  0  0  0  0  0
    8.2272   -1.0033   22.8765 N   0  0  0  0  0  0  0  0  0  0  0  0
    8.3120   -2.0641   22.0432 C   0  0  0  0  0  0  0  0  0  0  0  0
    8.9020   -3.3223   22.5647 C   0  0  0  0  0  0  0  0  0  0  0  0
    8.1082   -4.0271   23.6943 C   0  0  0  0  0  0  0  0  0  0  0  0
    9.2013   -4.8040   24.4402 C   0  0  0  0  0  0  0  0  0  0  0  0
   10.4213   -4.1228   24.1810 O   0  0  0  0  0  0  0  0  0  0  0  0
   10.2479   -3.0620   23.2602 C   0  0  0  0  0  0  0  0  0  0  0  0
   10.2183   -2.0965   23.7950 H   0  0  0  0  0  0  0  0  0  0  0  0
   11.1039   -3.0400   22.5721 H   0  0  0  0  0  0  0  0  0  0  0  0
    9.2947   -5.8571   24.1220 H   0  0  0  0  0  0  0  0  0  0  0  0
    9.0125   -4.8280   25.5214 H   0  0  0  0  0  0  0  0  0  0  0  0
    7.6568   -3.2749   24.3603 H   0  0  0  0  0  0  0  0  0  0  0  0
    7.3125   -4.6812   23.3200 H   0  0  0  0  0  0  0  0  0  0  0  0
    8.9894   -3.9973   21.7191 H   0  0  0  0  0  0  0  0  0  0  0  0
    7.8393   -1.8650   20.8286 N   0  0  0  0  0  0  0  0  0  0  0  0
    7.3740   -0.5815   20.9012 N   0  0  0  0  0  0  0  0  0  0  0  0
    6.6326    0.0164   19.8431 C   0  0  0  0  0  0  0  0  0  0  0  0
    5.4218    0.6832   20.0850 C   0  0  0  0  0  0  0  0  0  0  0  0
    4.8040    1.3338   19.0129 C   0  0  0  0  0  0  0  0  0  0  0  0
    5.4131    1.2975   17.7563 C   0  0  0  0  0  0  0  0  0  0  0  0
    6.5485    0.6207   17.5106 N   0  0  0  0  0  0  0  0  0  0  0  0
    7.1295   -0.0218   18.5281 C   0  0  0  0  0  0  0  0  0  0  0  0
    8.0385   -0.5762   18.3067 H   0  0  0  0  0  0  0  0  0  0  0  0
    4.9740    1.8214   16.9099 H   0  0  0  0  0  0  0  0  0  0  0  0
    3.8738    1.8738   19.1453 H   0  0  0  0  0  0  0  0  0  0  0  0
    4.9748    0.6953   21.0815 H   0  0  0  0  0  0  0  0  0  0  0  0
    8.3190    1.6136   23.1292 H   0  0  0  0  0  0  0  0  0  0  0  0
    7.0510    1.9698   21.9509 H   0  0  0  0  0  0  0  0  0  0  0  0
    6.7215    0.4743   24.6383 H   0  0  0  0  0  0  0  0  0  0  0  0
    5.3989    0.7300   23.4970 H   0  0  0  0  0  0  0  0  0  0  0  0
    4.9984    3.1640   23.8835 N   0  0  0  0  0  0  0  0  0  0  0  0
    4.7690    4.4235   24.2653 C   0  0  0  0  0  0  0  0  0  0  0  0
    3.9384    4.9173   23.7658 H   0  0  0  0  0  0  0  0  0  0  0  0
    7.6601    2.5248   25.8566 H   0  0  0  0  0  0  0  0  0  0  0  0
    7.2095    4.8908   26.5894 H   0  0  0  0  0  0  0  0  0  0  0  0
    5.2882    6.1163   25.4828 H   0  0  0  0  0  0  0  0  0  0  0  0
  1  2  2  0
  2  3  1  0
  3  4  2  0
  4  5  1  0
  5  6  1  0
  6  7  1  0
  7  8  2  0
  8  9  1  0
  9 10  1  0
 10 11  1  0
 11 12  1  0
 12 13  1  0
 13 14  1  0
 14 15  1  0
 14 16  1  0
 12 17  1  0
 12 18  1  0
 11 19  1  0
 11 20  1  0
 10 21  1  0
  9 22  2  0
 22 23  1  0
 23 24  1  0
 24 25  2  0
 25 26  1  0
 26 27  2  0
 27 28  1  0
 28 29  2  0
 29 30  1  0
 27 31  1  0
 26 32  1  0
 25 33  1  0
  6 34  1  0
  6 35  1  0
  5 36  1  0
  5 37  1  0
  4 38  1  0
 38 39  2  0
 39 40  1  0
  3 41  1  0
  2 42  1  0
  1 43  1  0
 39  1  1  0
 23  7  1  0
 29 24  1  0
 14 10  1  0
M  END
>  <cnnaffinity>  (1) 
-5.86022

>  <filename>  (1) 
c1ccc(CCc2nc(C3CCOC3)nn2-c2cccnc2)nc1

$$$$
