
     RDKit          3D

 31 34  0  0  0  0  0  0  0  0999 V2000
    9.6418   -0.1093   28.2215 H   0  0  0  0  0  0  0  0  0  0  0  0
    8.8585   -0.2696   27.4885 C   0  0  0  0  0  0  0  0  0  0  0  0
    9.2549   -0.8312   26.3410 N   0  0  0  0  0  0  0  0  0  0  0  0
    8.3255   -0.9942   25.3942 C   0  0  0  0  0  0  0  0  0  0  0  0
    8.7838   -1.3958   24.1256 N   0  0  0  0  0  0  0  0  0  0  0  0
   10.0079   -2.0100   23.8167 C   0  0  0  0  0  0  0  0  0  0  0  0
   10.7090   -2.2258   24.6119 H   0  0  0  0  0  0  0  0  0  0  0  0
   10.0760   -2.1910   22.4760 C   0  0  0  0  0  0  0  0  0  0  0  0
   10.8175   -2.6165   21.8264 H   0  0  0  0  0  0  0  0  0  0  0  0
    8.9095   -1.6534   21.9437 N   0  0  0  0  0  0  0  0  0  0  0  0
    8.4686   -1.3831   20.6950 N   0  0  0  0  0  0  0  0  0  0  0  0
    7.3545   -0.6703   20.9247 C   0  0  0  0  0  0  0  0  0  0  0  0
    6.6052   -0.0436   19.8262 C   0  0  0  0  0  0  0  0  0  0  0  0
    7.1403    0.0036   18.5250 C   0  0  0  0  0  0  0  0  0  0  0  0
    8.0906   -0.4841   18.3107 H   0  0  0  0  0  0  0  0  0  0  0  0
    6.5645    0.6565   17.5107 N   0  0  0  0  0  0  0  0  0  0  0  0
    5.4153    1.2988   17.7698 C   0  0  0  0  0  0  0  0  0  0  0  0
    4.9778    1.8377   16.9358 H   0  0  0  0  0  0  0  0  0  0  0  0
    4.7889    1.3001   19.0202 C   0  0  0  0  0  0  0  0  0  0  0  0
    3.8718    1.8571   19.1698 H   0  0  0  0  0  0  0  0  0  0  0  0
    5.3883    0.6174   20.0703 C   0  0  0  0  0  0  0  0  0  0  0  0
    4.9390    0.6361   21.0665 H   0  0  0  0  0  0  0  0  0  0  0  0
    7.0649   -0.5173   22.3033 C   0  0  0  0  0  0  0  0  0  0  0  0
    6.2498    0.0393   22.7343 H   0  0  0  0  0  0  0  0  0  0  0  0
    8.1260   -1.1589   22.9189 C   0  0  0  0  0  0  0  0  0  0  0  0
    6.9516   -0.7638   25.6116 C   0  0  0  0  0  0  0  0  0  0  0  0
    6.2521   -1.0284   24.8271 H   0  0  0  0  0  0  0  0  0  0  0  0
    6.5575   -0.1709   26.8031 C   0  0  0  0  0  0  0  0  0  0  0  0
    5.5051    0.0664   26.9704 H   0  0  0  0  0  0  0  0  0  0  0  0
    7.5442    0.1149   27.7537 C   0  0  0  0  0  0  0  0  0  0  0  0
    7.3032    0.6236   28.6754 H   0  0  0  0  0  0  0  0  0  0  0  0
  1  2  1  0
  2  3  2  0
  3  4  1  0
  4  5  1  0
  5  6  1  0
  6  7  1  0
  6  8  2  0
  8  9  1  0
  8 10  1  0
 10 11  1  0
 11 12  2  0
 12 13  1  0
 13 14  2  0
 14 15  1  0
 14 16  1  0
 16 17  2  0
 17 18  1  0
 17 19  1  0
 19 20  1  0
 19 21  2  0
 21 22  1  0
 12 23  1  0
 23 24  1  0
 23 25  2  0
  4 26  2  0
 26 27  1  0
 26 28  1  0
 28 29  1  0
 28 30  2  0
 30 31  1  0
 30  2  1  0
 25  5  1  0
 25 10  1  0
 21 13  1  0
M  END
>  <cnnaffinity>  (1) 
-5.21272

>  <filename>  (1) 
c1ccc(-n2ccn3nc(-c4cccnc4)cc23)nc1

$$$$
