
     RDKit          3D

 42 45  0  0  0  0  0  0  0  0999 V2000
    9.3891   -3.1860   21.4070 H   0  0  0  0  0  0  0  0  0  0  0  0
    8.8111   -2.3014   21.6788 C   0  0  0  0  0  0  0  0  0  0  0  0
    8.1220   -1.7277   20.7036 N   0  0  0  0  0  0  0  0  0  0  0  0
    7.3697   -0.6702   21.0425 C   0  0  0  0  0  0  0  0  0  0  0  0
    6.6160   -0.0048   19.9649 C   0  0  0  0  0  0  0  0  0  0  0  0
    7.1652   -0.0105   18.6765 C   0  0  0  0  0  0  0  0  0  0  0  0
    8.0879   -0.5518   18.4776 H   0  0  0  0  0  0  0  0  0  0  0  0
    6.6204    0.6220   17.6350 N   0  0  0  0  0  0  0  0  0  0  0  0
    5.4676    1.2744   17.8387 C   0  0  0  0  0  0  0  0  0  0  0  0
    5.0444    1.7760   16.9714 H   0  0  0  0  0  0  0  0  0  0  0  0
    4.8164    1.3099   19.0746 C   0  0  0  0  0  0  0  0  0  0  0  0
    3.8822    1.8467   19.1646 H   0  0  0  0  0  0  0  0  0  0  0  0
    5.4011    0.6691   20.1651 C   0  0  0  0  0  0  0  0  0  0  0  0
    4.9152    0.6845   21.1451 H   0  0  0  0  0  0  0  0  0  0  0  0
    7.3093   -0.2042   22.3339 C   0  0  0  0  0  0  0  0  0  0  0  0
    6.7250    0.6562   22.6271 H   0  0  0  0  0  0  0  0  0  0  0  0
    8.1151   -0.8707   23.2595 C   0  0  0  0  0  0  0  0  0  0  0  0
    8.1144   -0.4565   24.5616 N   0  0  0  0  0  0  0  0  0  0  0  0
    9.1666   -0.8602   25.5131 C   0  0  0  0  0  0  0  0  0  0  0  0
   10.1239   -0.9720   24.9944 H   0  0  0  0  0  0  0  0  0  0  0  0
    8.9139   -1.8352   25.9554 H   0  0  0  0  0  0  0  0  0  0  0  0
    9.3184    0.1808   26.6343 C   0  0  0  0  0  0  0  0  0  0  0  0
    9.7045    1.1144   26.1809 H   0  0  0  0  0  0  0  0  0  0  0  0
   10.0467   -0.1798   27.3666 H   0  0  0  0  0  0  0  0  0  0  0  0
    8.0347    0.4375   27.3090 N   0  0  0  0  0  0  0  0  0  0  0  0
    8.0513    0.9668   28.5962 C   0  0  0  0  0  0  0  0  0  0  0  0
    8.8043    0.3272   29.4990 N   0  0  0  0  0  0  0  0  0  0  0  0
    8.7901    0.7854   30.7545 C   0  0  0  0  0  0  0  0  0  0  0  0
    9.3524    0.2172   31.4939 H   0  0  0  0  0  0  0  0  0  0  0  0
    8.0958    1.9269   31.1587 C   0  0  0  0  0  0  0  0  0  0  0  0
    8.1173    2.2348   32.1943 H   0  0  0  0  0  0  0  0  0  0  0  0
    7.3465    2.6207   30.2032 C   0  0  0  0  0  0  0  0  0  0  0  0
    6.7656    3.5035   30.4673 H   0  0  0  0  0  0  0  0  0  0  0  0
    7.3182    2.1305   28.9048 C   0  0  0  0  0  0  0  0  0  0  0  0
    6.7594    2.6080   28.1125 H   0  0  0  0  0  0  0  0  0  0  0  0
    7.0007    0.8350   26.3460 C   0  0  0  0  0  0  0  0  0  0  0  0
    7.2695    1.7888   25.8589 H   0  0  0  0  0  0  0  0  0  0  0  0
    6.0414    0.9667   26.8565 H   0  0  0  0  0  0  0  0  0  0  0  0
    6.8398   -0.2364   25.2612 C   0  0  0  0  0  0  0  0  0  0  0  0
    6.5076   -1.1729   25.7382 H   0  0  0  0  0  0  0  0  0  0  0  0
    6.0553    0.0637   24.5628 H   0  0  0  0  0  0  0  0  0  0  0  0
    8.8950   -1.9044   22.9397 N   0  0  0  0  0  0  0  0  0  0  0  0
  1  2  1  0
  2  3  2  0
  3  4  1  0
  4  5  1  0
  5  6  2  0
  6  7  1  0
  6  8  1  0
  8  9  2  0
  9 10  1  0
  9 11  1  0
 11 12  1  0
 11 13  2  0
 13 14  1  0
  4 15  2  0
 15 16  1  0
 15 17  1  0
 17 18  1  0
 18 19  1  0
 19 20  1  0
 19 21  1  0
 19 22  1  0
 22 23  1  0
 22 24  1  0
 22 25  1  0
 25 26  1  0
 26 27  2  0
 27 28  1  0
 28 29  1  0
 28 30  2  0
 30 31  1  0
 30 32  1  0
 32 33  1  0
 32 34  2  0
 34 35  1  0
 25 36  1  0
 36 37  1  0
 36 38  1  0
 36 39  1  0
 39 40  1  0
 39 41  1  0
 17 42  2  0
 42  2  1  0
 13  5  1  0
 39 18  1  0
 34 26  1  0
M  END
>  <cnnaffinity>  (1) 
-5.18301

>  <filename>  (1) 
c1ccc(N2CCN(c3cc(-c4cccnc4)ncn3)CC2)nc1

$$$$
