
     RDKit          3D

 41 44  0  0  0  0  0  0  0  0999 V2000
   13.7598   -0.4645   22.3413 C   0  0  0  0  0  0  0  0  0  0  0  0
   12.9820   -1.5589   21.9509 C   0  0  0  0  0  0  0  0  0  0  0  0
   11.5891   -1.4446   21.8856 C   0  0  0  0  0  0  0  0  0  0  0  0
   10.9549   -0.2296   22.2303 C   0  0  0  0  0  0  0  0  0  0  0  0
    9.4730   -0.0987   22.2300 C   0  0  0  0  0  0  0  0  0  0  0  0
    8.6635   -0.8953   21.5503 N   0  0  0  0  0  0  0  0  0  0  0  0
    7.4300   -0.3930   21.8032 N   0  0  0  0  0  0  0  0  0  0  0  0
    6.3009   -0.8694   20.9995 C   0  0  0  0  0  0  0  0  0  0  0  0
    6.0026   -0.0233   19.7695 C   0  0  0  0  0  0  0  0  0  0  0  0
    4.8144    0.7049   19.6278 C   0  0  0  0  0  0  0  0  0  0  0  0
    4.6507    1.5308   18.5123 C   0  0  0  0  0  0  0  0  0  0  0  0
    5.6793    1.5910   17.5695 C   0  0  0  0  0  0  0  0  0  0  0  0
    6.8038    0.8638   17.6563 N   0  0  0  0  0  0  0  0  0  0  0  0
    6.9501    0.0834   18.7345 C   0  0  0  0  0  0  0  0  0  0  0  0
    7.8777   -0.4884   18.7802 H   0  0  0  0  0  0  0  0  0  0  0  0
    5.6015    2.2550   16.7090 H   0  0  0  0  0  0  0  0  0  0  0  0
    3.7554    2.1290   18.3697 H   0  0  0  0  0  0  0  0  0  0  0  0
    4.0249    0.6360   20.3793 H   0  0  0  0  0  0  0  0  0  0  0  0
    5.4112   -0.9288   21.6261 H   0  0  0  0  0  0  0  0  0  0  0  0
    6.5602   -1.8963   20.7233 H   0  0  0  0  0  0  0  0  0  0  0  0
    7.5489    0.6626   22.6496 C   0  0  0  0  0  0  0  0  0  0  0  0
    6.4516    1.4877   23.2672 C   0  0  0  0  0  0  0  0  0  0  0  0
    6.1533    1.0755   24.6833 C   0  0  0  0  0  0  0  0  0  0  0  0
    6.7367    1.4519   25.8660 C   0  0  0  0  0  0  0  0  0  0  0  0
    6.2346    0.5956   26.8890 C   0  0  0  0  0  0  0  0  0  0  0  0
    5.3551   -0.2723   26.2942 C   0  0  0  0  0  0  0  0  0  0  0  0
    5.3091    0.0388   24.9596 N   0  0  0  0  0  0  0  0  0  0  0  0
    4.8688   -0.5215   24.2467 H   0  0  0  0  0  0  0  0  0  0  0  0
    4.7757   -1.0918   26.7016 H   0  0  0  0  0  0  0  0  0  0  0  0
    6.5101    0.6083   27.9337 H   0  0  0  0  0  0  0  0  0  0  0  0
    7.4814    2.2296   25.9880 H   0  0  0  0  0  0  0  0  0  0  0  0
    5.5476    1.4570   22.6494 H   0  0  0  0  0  0  0  0  0  0  0  0
    6.8152    2.5206   23.2795 H   0  0  0  0  0  0  0  0  0  0  0  0
    8.8217    0.8826   22.9104 N   0  0  0  0  0  0  0  0  0  0  0  0
   11.7547    0.8755   22.5958 C   0  0  0  0  0  0  0  0  0  0  0  0
   13.1453    0.7517   22.6563 C   0  0  0  0  0  0  0  0  0  0  0  0
   13.7488    1.5961   22.9774 H   0  0  0  0  0  0  0  0  0  0  0  0
   11.2823    1.8292   22.8365 H   0  0  0  0  0  0  0  0  0  0  0  0
   10.9807   -2.2852   21.5560 H   0  0  0  0  0  0  0  0  0  0  0  0
   13.4715   -2.5034   21.7121 H   0  0  0  0  0  0  0  0  0  0  0  0
   14.8406   -0.5638   22.3849 H   0  0  0  0  0  0  0  0  0  0  0  0
  1  2  2  0
  2  3  1  0
  3  4  2  0
  4  5  1  0
  5  6  2  0
  6  7  1  0
  7  8  1  0
  8  9  1  0
  9 10  2  0
 10 11  1  0
 11 12  2  0
 12 13  1  0
 13 14  2  0
 14 15  1  0
 12 16  1  0
 11 17  1  0
 10 18  1  0
  8 19  1  0
  8 20  1  0
  7 21  1  0
 21 22  1  0
 22 23  1  0
 23 24  2  0
 24 25  1  0
 25 26  2  0
 26 27  1  0
 27 28  1  0
 26 29  1  0
 25 30  1  0
 24 31  1  0
 22 32  1  0
 22 33  1  0
 21 34  2  0
  4 35  1  0
 35 36  2  0
 36 37  1  0
 35 38  1  0
  3 39  1  0
  2 40  1  0
  1 41  1  0
 36  1  1  0
 34  5  1  0
 14  9  1  0
 27 23  1  0
M  END
>  <cnnaffinity>  (1) 
-5.85474

>  <filename>  (1) 
c1ccc(-c2nc(Cc3ccc[nH]3)n(Cc3cccnc3)n2)cc1

$$$$
