
     RDKit          3D

 43 46  0  0  0  0  0  0  0  0999 V2000
   12.6913    1.4128   24.5583 C   0  0  0  0  0  0  0  0  0  0  0  0
   11.6506    0.5538   24.9390 C   0  0  0  0  0  0  0  0  0  0  0  0
   10.3775    0.8426   24.4384 C   0  0  0  0  0  0  0  0  0  0  0  0
   10.1808    1.9627   23.6183 C   0  0  0  0  0  0  0  0  0  0  0  0
    8.8713    2.1928   22.8973 C   0  0  0  0  0  0  0  0  0  0  0  0
    9.0063    2.0213   21.3657 C   0  0  0  0  0  0  0  0  0  0  0  0
    9.5043    0.6237   20.9506 C   0  0  0  0  0  0  0  0  0  0  0  0
    8.6263   -0.4786   21.4265 C   0  0  0  0  0  0  0  0  0  0  0  0
    8.8718   -1.3189   22.4141 N   0  0  0  0  0  0  0  0  0  0  0  0
    7.6870   -1.9644   22.5702 C   0  0  0  0  0  0  0  0  0  0  0  0
    7.4378   -2.9203   23.6847 C   0  0  0  0  0  0  0  0  0  0  0  0
    7.3441   -2.2308   25.0801 C   0  0  0  0  0  0  0  0  0  0  0  0
    8.7964   -3.1423   25.6993 S   0  0  0  0  0  0  0  0  0  0  0  0
    8.6320   -3.8468   24.0235 C   0  0  0  0  0  0  0  0  0  0  0  0
    8.3909   -4.9137   24.0332 H   0  0  0  0  0  0  0  0  0  0  0  0
    9.5269   -3.6786   23.4175 H   0  0  0  0  0  0  0  0  0  0  0  0
    6.4310   -2.4551   25.6386 H   0  0  0  0  0  0  0  0  0  0  0  0
    7.5012   -1.1459   25.0716 H   0  0  0  0  0  0  0  0  0  0  0  0
    6.5265   -3.4655   23.4336 H   0  0  0  0  0  0  0  0  0  0  0  0
    6.7445   -1.6095   21.7270 N   0  0  0  0  0  0  0  0  0  0  0  0
    7.3573   -0.6662   20.9591 N   0  0  0  0  0  0  0  0  0  0  0  0
    6.6583   -0.0126   19.9023 C   0  0  0  0  0  0  0  0  0  0  0  0
    5.4385    0.6255   20.1583 C   0  0  0  0  0  0  0  0  0  0  0  0
    4.8145    1.3026   19.1069 C   0  0  0  0  0  0  0  0  0  0  0  0
    5.4132    1.2934   17.8425 C   0  0  0  0  0  0  0  0  0  0  0  0
    6.5629    0.6529   17.5792 N   0  0  0  0  0  0  0  0  0  0  0  0
    7.1671    0.0188   18.5911 C   0  0  0  0  0  0  0  0  0  0  0  0
    8.1045   -0.4877   18.3554 H   0  0  0  0  0  0  0  0  0  0  0  0
    4.9496    1.8135   17.0079 H   0  0  0  0  0  0  0  0  0  0  0  0
    3.8831    1.8393   19.2576 H   0  0  0  0  0  0  0  0  0  0  0  0
    5.0125    0.5865   21.1607 H   0  0  0  0  0  0  0  0  0  0  0  0
   10.5069    0.4476   21.3510 H   0  0  0  0  0  0  0  0  0  0  0  0
    9.5755    0.5605   19.8614 H   0  0  0  0  0  0  0  0  0  0  0  0
    8.0477    2.2395   20.8801 H   0  0  0  0  0  0  0  0  0  0  0  0
    9.7249    2.7578   20.9941 H   0  0  0  0  0  0  0  0  0  0  0  0
    8.1010    1.5069   23.2767 H   0  0  0  0  0  0  0  0  0  0  0  0
    8.5284    3.2046   23.1296 H   0  0  0  0  0  0  0  0  0  0  0  0
   11.1578    2.8520   23.3759 N   0  0  0  0  0  0  0  0  0  0  0  0
   12.3832    2.5665   23.8285 C   0  0  0  0  0  0  0  0  0  0  0  0
   13.1554    3.3024   23.5946 H   0  0  0  0  0  0  0  0  0  0  0  0
    9.5282    0.1889   24.6064 H   0  0  0  0  0  0  0  0  0  0  0  0
   11.7916   -0.3023   25.6071 H   0  0  0  0  0  0  0  0  0  0  0  0
   13.7266    1.1952   24.7729 H   0  0  0  0  0  0  0  0  0  0  0  0
  1  2  2  0
  2  3  1  0
  3  4  2  0
  4  5  1  0
  5  6  1  0
  6  7  1  0
  7  8  1  0
  8  9  2  0
  9 10  1  0
 10 11  1  0
 11 12  1  0
 12 13  1  0
 13 14  1  0
 14 15  1  0
 14 16  1  0
 12 17  1  0
 12 18  1  0
 11 19  1  0
 10 20  2  0
 20 21  1  0
 21 22  1  0
 22 23  2  0
 23 24  1  0
 24 25  2  0
 25 26  1  0
 26 27  2  0
 27 28  1  0
 25 29  1  0
 24 30  1  0
 23 31  1  0
  7 32  1  0
  7 33  1  0
  6 34  1  0
  6 35  1  0
  5 36  1  0
  5 37  1  0
  4 38  1  0
 38 39  2  0
 39 40  1  0
  3 41  1  0
  2 42  1  0
  1 43  1  0
 39  1  1  0
 21  8  1  0
 27 22  1  0
 14 11  1  0
M  END
>  <cnnaffinity>  (1) 
-6.17578

>  <filename>  (1) 
c1ccc(CCCc2nc(C3CSC3)nn2-c2cccnc2)nc1

$$$$
