
     RDKit          3D

 35 37  0  0  0  0  0  0  0  0999 V2000
    4.9746    1.7503   17.0854 H   0  0  0  0  0  0  0  0  0  0  0  0
    5.4995    1.2265   17.8815 C   0  0  0  0  0  0  0  0  0  0  0  0
    6.6773    0.6687   17.5506 N   0  0  0  0  0  0  0  0  0  0  0  0
    7.3579    0.0272   18.5088 C   0  0  0  0  0  0  0  0  0  0  0  0
    8.3101   -0.4123   18.2089 H   0  0  0  0  0  0  0  0  0  0  0  0
    6.9100   -0.1195   19.8514 C   0  0  0  0  0  0  0  0  0  0  0  0
    7.6433   -0.7867   20.8033 N   0  0  0  0  0  0  0  0  0  0  0  0
    9.0532   -1.1297   20.8888 C   0  0  0  0  0  0  0  0  0  0  0  0
    9.3378   -1.9829   20.2568 H   0  0  0  0  0  0  0  0  0  0  0  0
    9.7399   -0.2985   20.6649 H   0  0  0  0  0  0  0  0  0  0  0  0
    8.8084   -1.4401   22.3890 C   0  0  0  0  0  0  0  0  0  0  0  0
    9.0527   -2.4429   22.7413 H   0  0  0  0  0  0  0  0  0  0  0  0
    9.2588   -0.7038   23.0524 H   0  0  0  0  0  0  0  0  0  0  0  0
    7.2937   -1.1847   22.1639 C   0  0  2  0  0  0  0  0  0  0  0  0
    6.9023   -0.3582   22.7775 H   0  0  0  0  0  0  0  0  0  0  0  0
    6.2795   -2.3563   22.2390 C   0  0  0  0  0  0  0  0  0  0  0  0
    6.7218   -3.2179   21.7345 H   0  0  0  0  0  0  0  0  0  0  0  0
    5.4227   -2.0685   21.6119 H   0  0  0  0  0  0  0  0  0  0  0  0
    5.8064   -2.7637   23.5627 N   0  0  0  0  0  0  0  0  0  0  0  0
    5.4550   -1.9961   24.1201 H   0  0  0  0  0  0  0  0  0  0  0  0
    6.5102   -3.6837   24.3444 C   0  0  0  0  0  0  0  0  0  0  0  0
    6.6909   -3.4700   25.7222 C   0  0  0  0  0  0  0  0  0  0  0  0
    6.2518   -2.5931   26.1895 H   0  0  0  0  0  0  0  0  0  0  0  0
    7.4579   -4.3683   26.4683 C   0  0  0  0  0  0  0  0  0  0  0  0
    7.5951   -4.1956   27.5316 H   0  0  0  0  0  0  0  0  0  0  0  0
    8.0399   -5.4878   25.8656 C   0  0  0  0  0  0  0  0  0  0  0  0
    8.6575   -6.1696   26.4419 H   0  0  0  0  0  0  0  0  0  0  0  0
    7.7880   -5.7348   24.5136 C   0  0  0  0  0  0  0  0  0  0  0  0
    8.1855   -6.6143   24.0211 H   0  0  0  0  0  0  0  0  0  0  0  0
    7.0109   -4.8556   23.7647 C   0  0  0  0  0  0  0  0  0  0  0  0
    6.7411   -5.0763   22.7384 H   0  0  0  0  0  0  0  0  0  0  0  0
    5.6591    0.4554   20.1625 C   0  0  0  0  0  0  0  0  0  0  0  0
    5.2633    0.3759   21.1720 H   0  0  0  0  0  0  0  0  0  0  0  0
    4.9581    1.1423   19.1678 C   0  0  0  0  0  0  0  0  0  0  0  0
    4.0078    1.6235   19.3788 H   0  0  0  0  0  0  0  0  0  0  0  0
  1  2  1  0
  2  3  2  0
  3  4  1  0
  4  5  1  0
  4  6  2  0
  6  7  1  0
  7  8  1  0
  8  9  1  0
  8 10  1  0
  8 11  1  0
 11 12  1  0
 11 13  1  0
 11 14  1  0
 14 15  1  1
 14 16  1  0
 16 17  1  0
 16 18  1  0
 16 19  1  0
 19 20  1  0
 19 21  1  0
 21 22  2  0
 22 23  1  0
 22 24  1  0
 24 25  1  0
 24 26  2  0
 26 27  1  0
 26 28  1  0
 28 29  1  0
 28 30  2  0
 30 31  1  0
  6 32  1  0
 32 33  1  0
 32 34  2  0
 34 35  1  0
 34  2  1  0
 14  7  1  0
 30 21  1  0
M  END
>  <cnnaffinity>  (1) 
-4.73007

>  <filename>  (1) 
c1ccc(NC[C@H]2CCN2c2cccnc2)cc1

$$$$
