
     RDKit          3D

 43 46  0  0  0  0  0  0  0  0999 V2000
    7.0263   -5.0422   25.5572 C   0  0  0  0  0  0  0  0  0  0  0  0
    8.2470   -4.3624   25.4702 C   0  0  0  0  0  0  0  0  0  0  0  0
    8.4373   -3.3943   24.4838 C   0  0  0  0  0  0  0  0  0  0  0  0
    7.4065   -3.0951   23.5706 C   0  0  0  0  0  0  0  0  0  0  0  0
    7.6194   -2.0675   22.5289 C   0  0  0  0  0  0  0  0  0  0  0  0
    6.6962   -1.6857   21.6619 N   0  0  0  0  0  0  0  0  0  0  0  0
    7.3323   -0.7318   20.9411 N   0  0  0  0  0  0  0  0  0  0  0  0
    6.6565   -0.0540   19.8891 C   0  0  0  0  0  0  0  0  0  0  0  0
    5.4489    0.5966   20.1520 C   0  0  0  0  0  0  0  0  0  0  0  0
    4.8385    1.2916   19.1052 C   0  0  0  0  0  0  0  0  0  0  0  0
    5.4396    1.2947   17.8400 C   0  0  0  0  0  0  0  0  0  0  0  0
    6.5793    0.6371   17.5727 N   0  0  0  0  0  0  0  0  0  0  0  0
    7.1642   -0.0212   18.5793 C   0  0  0  0  0  0  0  0  0  0  0  0
    8.0741   -0.5646   18.3331 H   0  0  0  0  0  0  0  0  0  0  0  0
    4.9795    1.8332   17.0113 H   0  0  0  0  0  0  0  0  0  0  0  0
    3.9105    1.8320   19.2642 H   0  0  0  0  0  0  0  0  0  0  0  0
    5.0138    0.5488   21.1507 H   0  0  0  0  0  0  0  0  0  0  0  0
    8.5873   -0.5609   21.4406 C   0  0  0  0  0  0  0  0  0  0  0  0
    9.5512    0.4755   21.0240 C   0  0  0  0  0  0  0  0  0  0  0  0
    9.3188    1.8607   21.6168 C   0  0  0  0  0  0  0  0  0  0  0  0
   10.3467    2.6740   21.0903 O   0  0  0  0  0  0  0  0  0  0  0  0
   11.5008    2.8953   21.7688 C   0  0  0  0  0  0  0  0  0  0  0  0
   11.9316    2.2141   22.9201 C   0  0  0  0  0  0  0  0  0  0  0  0
   13.1746    2.5806   23.4623 C   0  0  0  0  0  0  0  0  0  0  0  0
   13.8944    3.6366   22.8935 C   0  0  0  0  0  0  0  0  0  0  0  0
   13.4907    4.2826   21.7903 N   0  0  0  0  0  0  0  0  0  0  0  0
   12.3451    3.8960   21.2309 C   0  0  0  0  0  0  0  0  0  0  0  0
   12.0633    4.3816   20.2969 H   0  0  0  0  0  0  0  0  0  0  0  0
   14.8185    4.0259   23.3098 H   0  0  0  0  0  0  0  0  0  0  0  0
   13.5761    2.0517   24.3186 H   0  0  0  0  0  0  0  0  0  0  0  0
   11.3375    1.4261   23.3930 H   0  0  0  0  0  0  0  0  0  0  0  0
    8.3774    2.2957   21.2660 H   0  0  0  0  0  0  0  0  0  0  0  0
    9.3111    1.8980   22.7159 H   0  0  0  0  0  0  0  0  0  0  0  0
    9.5488    0.5789   19.9377 H   0  0  0  0  0  0  0  0  0  0  0  0
   10.5465    0.1370   21.3225 H   0  0  0  0  0  0  0  0  0  0  0  0
    8.8025   -1.4064   22.4142 N   0  0  0  0  0  0  0  0  0  0  0  0
    6.1735   -3.7687   23.6780 C   0  0  0  0  0  0  0  0  0  0  0  0
    5.9927   -4.7409   24.6635 C   0  0  0  0  0  0  0  0  0  0  0  0
    5.0422   -5.2625   24.7362 H   0  0  0  0  0  0  0  0  0  0  0  0
    5.3627   -3.5168   22.9977 H   0  0  0  0  0  0  0  0  0  0  0  0
    9.3837   -2.8601   24.4218 H   0  0  0  0  0  0  0  0  0  0  0  0
    9.0482   -4.5858   26.1706 H   0  0  0  0  0  0  0  0  0  0  0  0
    6.8825   -5.8019   26.3204 H   0  0  0  0  0  0  0  0  0  0  0  0
  1  2  2  0
  2  3  1  0
  3  4  2  0
  4  5  1  0
  5  6  2  0
  6  7  1  0
  7  8  1  0
  8  9  2  0
  9 10  1  0
 10 11  2  0
 11 12  1  0
 12 13  2  0
 13 14  1  0
 11 15  1  0
 10 16  1  0
  9 17  1  0
  7 18  1  0
 18 19  1  0
 19 20  1  0
 20 21  1  0
 21 22  1  0
 22 23  2  0
 23 24  1  0
 24 25  2  0
 25 26  1  0
 26 27  2  0
 27 28  1  0
 25 29  1  0
 24 30  1  0
 23 31  1  0
 20 32  1  0
 20 33  1  0
 19 34  1  0
 19 35  1  0
 18 36  2  0
  4 37  1  0
 37 38  2  0
 38 39  1  0
 37 40  1  0
  3 41  1  0
  2 42  1  0
  1 43  1  0
 38  1  1  0
 36  5  1  0
 13  8  1  0
 27 22  1  0
M  END
>  <cnnaffinity>  (1) 
-6.05902

>  <filename>  (1) 
c1ccc(-c2nc(CCOc3cccnc3)n(-c3cccnc3)n2)cc1

$$$$
