
     RDKit          3D

 44 47  0  0  0  0  0  0  0  0999 V2000
    8.2130    5.2308   27.6299 H   0  0  0  0  0  0  0  0  0  0  0  0
    8.2079    5.5040   26.5726 C   0  0  0  0  0  0  0  0  0  0  0  0
    8.6204    4.5566   25.7277 N   0  0  0  0  0  0  0  0  0  0  0  0
    8.5221    4.8268   24.4177 C   0  0  0  0  0  0  0  0  0  0  0  0
    8.7738    3.7708   23.5570 N   0  0  0  0  0  0  0  0  0  0  0  0
    8.2511    3.7948   22.1815 C   0  0  0  0  0  0  0  0  0  0  0  0
    7.1837    4.0442   22.2236 H   0  0  0  0  0  0  0  0  0  0  0  0
    8.7193    4.5705   21.5630 H   0  0  0  0  0  0  0  0  0  0  0  0
    8.3543    2.4183   21.4901 C   0  0  0  0  0  0  0  0  0  0  0  0
    8.1779    2.5317   20.4218 H   0  0  0  0  0  0  0  0  0  0  0  0
    7.5277    1.8099   21.8859 H   0  0  0  0  0  0  0  0  0  0  0  0
    9.6575    1.7489   21.6513 N   0  0  0  0  0  0  0  0  0  0  0  0
    9.6990    0.4677   20.9404 C   0  0  0  0  0  0  0  0  0  0  0  0
    9.5450    0.6767   19.8755 H   0  0  0  0  0  0  0  0  0  0  0  0
   10.7155    0.0601   21.0237 H   0  0  0  0  0  0  0  0  0  0  0  0
    8.6895   -0.5608   21.3840 C   0  0  0  0  0  0  0  0  0  0  0  0
    8.8171   -1.4841   22.4450 C   0  0  0  0  0  0  0  0  0  0  0  0
    9.6945   -1.7096   23.0444 H   0  0  0  0  0  0  0  0  0  0  0  0
    7.6760   -2.1178   22.6978 N   0  0  0  0  0  0  0  0  0  0  0  0
    6.8123   -1.5937   21.8093 N   0  0  0  0  0  0  0  0  0  0  0  0
    5.8447   -1.8969   21.8135 H   0  0  0  0  0  0  0  0  0  0  0  0
    7.3646   -0.6653   20.9870 C   0  0  0  0  0  0  0  0  0  0  0  0
    6.6316    0.0252   19.9024 C   0  0  0  0  0  0  0  0  0  0  0  0
    7.1567    0.0726   18.5962 C   0  0  0  0  0  0  0  0  0  0  0  0
    8.0935   -0.4331   18.3643 H   0  0  0  0  0  0  0  0  0  0  0  0
    6.5644    0.6880   17.5593 N   0  0  0  0  0  0  0  0  0  0  0  0
    5.4047    1.3175   17.7995 C   0  0  0  0  0  0  0  0  0  0  0  0
    4.9448    1.8290   16.9541 H   0  0  0  0  0  0  0  0  0  0  0  0
    4.7871    1.3318   19.0539 C   0  0  0  0  0  0  0  0  0  0  0  0
    3.8514    1.8618   19.1828 H   0  0  0  0  0  0  0  0  0  0  0  0
    5.4036    0.6741   20.1211 C   0  0  0  0  0  0  0  0  0  0  0  0
    4.9519    0.6859   21.1148 H   0  0  0  0  0  0  0  0  0  0  0  0
    9.9556    1.6540   23.0878 C   0  0  0  0  0  0  0  0  0  0  0  0
    9.1807    1.0825   23.6258 H   0  0  0  0  0  0  0  0  0  0  0  0
   10.9113    1.1398   23.2438 H   0  0  0  0  0  0  0  0  0  0  0  0
   10.0417    3.0482   23.7133 C   0  0  0  0  0  0  0  0  0  0  0  0
   10.8678    3.6052   23.2383 H   0  0  0  0  0  0  0  0  0  0  0  0
   10.2624    2.9473   24.7795 H   0  0  0  0  0  0  0  0  0  0  0  0
    8.1855    6.1035   23.9249 C   0  0  0  0  0  0  0  0  0  0  0  0
    8.2138    6.2764   22.8606 H   0  0  0  0  0  0  0  0  0  0  0  0
    7.8076    7.0945   24.8203 C   0  0  0  0  0  0  0  0  0  0  0  0
    7.5180    8.0830   24.4604 H   0  0  0  0  0  0  0  0  0  0  0  0
    7.7868    6.7751   26.1817 C   0  0  0  0  0  0  0  0  0  0  0  0
    7.4483    7.4840   26.9247 H   0  0  0  0  0  0  0  0  0  0  0  0
  1  2  1  0
  2  3  2  0
  3  4  1  0
  4  5  1  0
  5  6  1  0
  6  7  1  0
  6  8  1  0
  6  9  1  0
  9 10  1  0
  9 11  1  0
  9 12  1  0
 12 13  1  0
 13 14  1  0
 13 15  1  0
 13 16  1  0
 16 17  1  0
 17 18  1  0
 17 19  2  0
 19 20  1  0
 20 21  1  0
 20 22  1  0
 22 23  1  0
 23 24  2  0
 24 25  1  0
 24 26  1  0
 26 27  2  0
 27 28  1  0
 27 29  1  0
 29 30  1  0
 29 31  2  0
 31 32  1  0
 12 33  1  0
 33 34  1  0
 33 35  1  0
 33 36  1  0
 36 37  1  0
 36 38  1  0
  4 39  2  0
 39 40  1  0
 39 41  1  0
 41 42  1  0
 41 43  2  0
 43 44  1  0
 43  2  1  0
 36  5  1  0
 22 16  2  0
 31 23  1  0
M  END
>  <cnnaffinity>  (1) 
-5.37572

>  <filename>  (1) 
c1ccc(N2CCN(Cc3cn[nH]c3-c3cccnc3)CC2)nc1

$$$$
