
     RDKit          3D

 34 36  0  0  0  0  0  0  0  0999 V2000
    4.9201    1.7870   16.9915 H   0  0  0  0  0  0  0  0  0  0  0  0
    5.4036    1.2966   17.8356 C   0  0  0  0  0  0  0  0  0  0  0  0
    6.5624    0.6744   17.5725 N   0  0  0  0  0  0  0  0  0  0  0  0
    7.1692    0.0585   18.5903 C   0  0  0  0  0  0  0  0  0  0  0  0
    8.1106   -0.4364   18.3672 H   0  0  0  0  0  0  0  0  0  0  0  0
    6.6607    0.0138   19.9002 C   0  0  0  0  0  0  0  0  0  0  0  0
    7.3667   -0.6486   20.9541 N   0  0  0  0  0  0  0  0  0  0  0  0
    6.7668   -1.5797   21.7320 N   0  0  0  0  0  0  0  0  0  0  0  0
    7.6309   -1.9652   22.5919 N   0  0  0  0  0  0  0  0  0  0  0  0
    8.8028   -1.3078   22.4389 N   0  0  0  0  0  0  0  0  0  0  0  0
    8.6278   -0.4833   21.4398 C   0  0  0  0  0  0  0  0  0  0  0  0
    9.5849    0.5334   20.9492 C   0  0  0  0  0  0  0  0  0  0  0  0
    9.6462    0.4490   19.8648 H   0  0  0  0  0  0  0  0  0  0  0  0
   10.5675    0.2979   21.3591 H   0  0  0  0  0  0  0  0  0  0  0  0
    9.1613    1.9609   21.2917 C   0  0  0  0  0  0  0  0  0  0  0  0
    8.1878    2.1717   20.8307 H   0  0  0  0  0  0  0  0  0  0  0  0
    9.8756    2.6605   20.8441 H   0  0  0  0  0  0  0  0  0  0  0  0
    9.1003    2.1590   22.7152 N   0  0  0  0  0  0  0  0  0  0  0  0
    9.3476    1.3993   23.3217 H   0  0  0  0  0  0  0  0  0  0  0  0
    8.6851    3.3220   23.3301 C   0  0  0  0  0  0  0  0  0  0  0  0
    8.6203    3.3952   24.7390 C   0  0  0  0  0  0  0  0  0  0  0  0
    8.8962    2.5334   25.3425 H   0  0  0  0  0  0  0  0  0  0  0  0
    8.1925    4.5717   25.3633 C   0  0  0  0  0  0  0  0  0  0  0  0
    8.1404    4.6161   26.4478 H   0  0  0  0  0  0  0  0  0  0  0  0
    7.8240    5.6973   24.6160 C   0  0  0  0  0  0  0  0  0  0  0  0
    7.4877    6.6116   25.1062 H   0  0  0  0  0  0  0  0  0  0  0  0
    7.8919    5.6247   23.2240 C   0  0  0  0  0  0  0  0  0  0  0  0
    7.6092    6.4828   22.6206 H   0  0  0  0  0  0  0  0  0  0  0  0
    8.3151    4.4580   22.5850 C   0  0  0  0  0  0  0  0  0  0  0  0
    8.3621    4.4202   21.5027 H   0  0  0  0  0  0  0  0  0  0  0  0
    5.4400    0.6438   20.1702 C   0  0  0  0  0  0  0  0  0  0  0  0
    5.0224    0.6071   21.1821 H   0  0  0  0  0  0  0  0  0  0  0  0
    4.8142    1.3077   19.1088 C   0  0  0  0  0  0  0  0  0  0  0  0
    3.8807    1.8387   19.2594 H   0  0  0  0  0  0  0  0  0  0  0  0
  1  2  1  0
  2  3  2  0
  3  4  1  0
  4  5  1  0
  4  6  2  0
  6  7  1  0
  7  8  1  0
  8  9  2  0
  9 10  1  0
 10 11  2  0
 11 12  1  0
 12 13  1  0
 12 14  1  0
 12 15  1  0
 15 16  1  0
 15 17  1  0
 15 18  1  0
 18 19  1  0
 18 20  1  0
 20 21  2  0
 21 22  1  0
 21 23  1  0
 23 24  1  0
 23 25  2  0
 25 26  1  0
 25 27  1  0
 27 28  1  0
 27 29  2  0
 29 30  1  0
  6 31  1  0
 31 32  1  0
 31 33  2  0
 33 34  1  0
 33  2  1  0
 11  7  1  0
 29 20  1  0
M  END
>  <cnnaffinity>  (1) 
-4.79925

>  <filename>  (1) 
c1ccc(NCCc2nnnn2-c2cccnc2)cc1

$$$$
