
     RDKit          3D

 48 51  0  0  0  0  0  0  0  0999 V2000
    9.5818   -6.4149   25.1340 C   0  0  0  0  0  0  0  0  0  0  0  0
    8.2646   -6.2585   25.5767 C   0  0  0  0  0  0  0  0  0  0  0  0
    7.6894   -4.9964   25.6012 C   0  0  0  0  0  0  0  0  0  0  0  0
    8.4263   -3.8757   25.1862 C   0  0  0  0  0  0  0  0  0  0  0  0
    7.8035   -2.5938   25.3134 N   0  0  0  0  0  0  0  0  0  0  0  0
    7.1696   -2.3560   26.4854 N   0  0  0  0  0  0  0  0  0  0  0  0
    6.5812   -1.1996   26.3129 C   0  0  0  0  0  0  0  0  0  0  0  0
    5.7900   -0.6464   27.4719 C   0  0  0  0  0  0  0  0  0  0  0  0
    4.2745   -0.4802   27.1969 C   0  0  0  0  0  0  0  0  0  0  0  0
    3.5864    0.1097   28.4320 C   0  0  0  0  0  0  0  0  0  0  0  0
    4.1929    1.3182   28.8563 O   0  0  0  0  0  0  0  0  0  0  0  0
    5.5527    1.1509   29.2176 C   0  0  0  0  0  0  0  0  0  0  0  0
    6.3981    0.6538   28.0451 C   0  0  0  0  0  0  0  0  0  0  0  0
    6.4384    1.4189   27.2609 H   0  0  0  0  0  0  0  0  0  0  0  0
    7.4262    0.4786   28.3892 H   0  0  0  0  0  0  0  0  0  0  0  0
    5.6385    0.4371   30.0577 H   0  0  0  0  0  0  0  0  0  0  0  0
    5.9023    2.1240   29.5713 H   0  0  0  0  0  0  0  0  0  0  0  0
    3.6108   -0.6312   29.2524 H   0  0  0  0  0  0  0  0  0  0  0  0
    2.5386    0.3488   28.2297 H   0  0  0  0  0  0  0  0  0  0  0  0
    4.1131    0.1768   26.3343 H   0  0  0  0  0  0  0  0  0  0  0  0
    3.8164   -1.4512   26.9632 H   0  0  0  0  0  0  0  0  0  0  0  0
    5.8919   -1.4278   28.2396 H   0  0  0  0  0  0  0  0  0  0  0  0
    6.7585   -0.6686   25.0763 N   0  0  0  0  0  0  0  0  0  0  0  0
    7.5082   -1.5681   24.4496 C   0  0  0  0  0  0  0  0  0  0  0  0
    7.9585   -1.4273   23.0216 C   0  0  0  0  0  0  0  0  0  0  0  0
    6.9225   -0.7093   22.1448 C   0  0  0  0  0  0  0  0  0  0  0  0
    7.4438   -0.6179   20.8166 O   0  0  0  0  0  0  0  0  0  0  0  0
    6.7077    0.0240   19.8633 C   0  0  0  0  0  0  0  0  0  0  0  0
    5.4809    0.6729   20.0687 C   0  0  0  0  0  0  0  0  0  0  0  0
    4.8695    1.3142   18.9805 C   0  0  0  0  0  0  0  0  0  0  0  0
    5.4857    1.2790   17.7298 C   0  0  0  0  0  0  0  0  0  0  0  0
    6.6508    0.6395   17.5129 N   0  0  0  0  0  0  0  0  0  0  0  0
    7.2409    0.0383   18.5515 C   0  0  0  0  0  0  0  0  0  0  0  0
    8.1853   -0.4705   18.3648 H   0  0  0  0  0  0  0  0  0  0  0  0
    5.0384    1.7787   16.8716 H   0  0  0  0  0  0  0  0  0  0  0  0
    3.9350    1.8529   19.1028 H   0  0  0  0  0  0  0  0  0  0  0  0
    5.0182    0.6819   21.0548 H   0  0  0  0  0  0  0  0  0  0  0  0
    6.7150    0.2959   22.5355 H   0  0  0  0  0  0  0  0  0  0  0  0
    5.9811   -1.2727   22.1148 H   0  0  0  0  0  0  0  0  0  0  0  0
    8.8987   -0.8593   23.0001 H   0  0  0  0  0  0  0  0  0  0  0  0
    8.1711   -2.4076   22.5860 H   0  0  0  0  0  0  0  0  0  0  0  0
    9.7475   -4.0201   24.7597 C   0  0  0  0  0  0  0  0  0  0  0  0
   10.3327   -5.2926   24.7647 C   0  0  0  0  0  0  0  0  0  0  0  0
   11.3807   -5.4129   24.5072 H   0  0  0  0  0  0  0  0  0  0  0  0
   10.3129   -3.1506   24.4443 H   0  0  0  0  0  0  0  0  0  0  0  0
    6.6820   -4.8599   25.9824 H   0  0  0  0  0  0  0  0  0  0  0  0
    7.6604   -7.0908   25.9183 H   0  0  0  0  0  0  0  0  0  0  0  0
   10.0061   -7.4070   25.0694 H   0  0  0  0  0  0  0  0  0  0  0  0
  1  2  2  0
  2  3  1  0
  3  4  2  0
  4  5  1  0
  5  6  1  0
  6  7  2  0
  7  8  1  0
  8  9  1  0
  9 10  1  0
 10 11  1  0
 11 12  1  0
 12 13  1  0
 13 14  1  0
 13 15  1  0
 12 16  1  0
 12 17  1  0
 10 18  1  0
 10 19  1  0
  9 20  1  0
  9 21  1  0
  8 22  1  0
  7 23  1  0
 23 24  2  0
 24 25  1  0
 25 26  1  0
 26 27  1  0
 27 28  1  0
 28 29  2  0
 29 30  1  0
 30 31  2  0
 31 32  1  0
 32 33  2  0
 33 34  1  0
 31 35  1  0
 30 36  1  0
 29 37  1  0
 26 38  1  0
 26 39  1  0
 25 40  1  0
 25 41  1  0
  4 42  1  0
 42 43  2  0
 43 44  1  0
 42 45  1  0
  3 46  1  0
  2 47  1  0
  1 48  1  0
 43  1  1  0
 24  5  1  0
 33 28  1  0
 13  8  1  0
M  END
>  <cnnaffinity>  (1) 
-5.59386

>  <filename>  (1) 
c1ccc(-n2nc(C3CCOCC3)nc2CCOc2cccnc2)cc1

$$$$
