
     RDKit          3D

 43 46  0  0  0  0  0  0  0  0999 V2000
    5.2692   -6.5690   23.6504 C   0  0  0  0  0  0  0  0  0  0  0  0
    6.5171   -5.9386   23.6424 C   0  0  0  0  0  0  0  0  0  0  0  0
    6.8953   -5.2723   22.4804 C   0  0  0  0  0  0  0  0  0  0  0  0
    6.0187   -5.2535   21.3870 C   0  0  0  0  0  0  0  0  0  0  0  0
    6.4120   -4.4589   20.1743 C   0  0  0  0  0  0  0  0  0  0  0  0
    5.4171   -3.0011   19.7535 S   0  0  0  0  0  0  0  0  0  0  0  0
    5.6335   -2.0878   21.3154 C   0  0  0  0  0  0  0  0  0  0  0  0
    7.0044   -1.5559   21.5318 C   0  0  0  0  0  0  0  0  0  0  0  0
    7.9108   -2.0327   22.3580 N   0  0  0  0  0  0  0  0  0  0  0  0
    8.9928   -1.2412   22.1336 C   0  0  0  0  0  0  0  0  0  0  0  0
   10.2277   -1.4387   22.9430 C   0  0  0  0  0  0  0  0  0  0  0  0
   11.5293   -1.7439   22.1371 C   0  0  0  0  0  0  0  0  0  0  0  0
   11.9530   -0.2705   22.3077 C   0  0  0  0  0  0  0  0  0  0  0  0
   10.9050   -0.1211   23.4297 C   0  0  0  0  0  0  0  0  0  0  0  0
   10.2678    0.7688   23.4031 H   0  0  0  0  0  0  0  0  0  0  0  0
   11.3395   -0.2227   24.4291 H   0  0  0  0  0  0  0  0  0  0  0  0
   11.6748    0.3207   21.4324 H   0  0  0  0  0  0  0  0  0  0  0  0
   12.9999   -0.0768   22.5711 H   0  0  0  0  0  0  0  0  0  0  0  0
   12.1851   -2.4346   22.6744 H   0  0  0  0  0  0  0  0  0  0  0  0
   11.3879   -2.1231   21.1221 H   0  0  0  0  0  0  0  0  0  0  0  0
    9.9596   -2.1701   23.7145 H   0  0  0  0  0  0  0  0  0  0  0  0
    8.8169   -0.3256   21.1890 N   0  0  0  0  0  0  0  0  0  0  0  0
    7.5163   -0.5039   20.8351 N   0  0  0  0  0  0  0  0  0  0  0  0
    6.8824    0.2510   19.8058 C   0  0  0  0  0  0  0  0  0  0  0  0
    5.6680    0.9209   20.0222 C   0  0  0  0  0  0  0  0  0  0  0  0
    5.0106    1.4652   18.9146 C   0  0  0  0  0  0  0  0  0  0  0  0
    5.6024    1.3500   17.6545 C   0  0  0  0  0  0  0  0  0  0  0  0
    6.8005    0.7721   17.4527 N   0  0  0  0  0  0  0  0  0  0  0  0
    7.4305    0.2538   18.5133 C   0  0  0  0  0  0  0  0  0  0  0  0
    8.4021   -0.2063   18.3485 H   0  0  0  0  0  0  0  0  0  0  0  0
    5.1013    1.7358   16.7700 H   0  0  0  0  0  0  0  0  0  0  0  0
    4.0561    1.9694   19.0257 H   0  0  0  0  0  0  0  0  0  0  0  0
    5.2522    1.0172   21.0275 H   0  0  0  0  0  0  0  0  0  0  0  0
    5.3517   -2.7163   22.1653 H   0  0  0  0  0  0  0  0  0  0  0  0
    4.9353   -1.2548   21.2700 H   0  0  0  0  0  0  0  0  0  0  0  0
    6.4136   -5.0830   19.2812 H   0  0  0  0  0  0  0  0  0  0  0  0
    7.4221   -4.1020   20.3626 H   0  0  0  0  0  0  0  0  0  0  0  0
    4.8537   -5.9047   21.3695 N   0  0  0  0  0  0  0  0  0  0  0  0
    4.4901   -6.5402   22.4934 C   0  0  0  0  0  0  0  0  0  0  0  0
    3.5326   -7.0559   22.4653 H   0  0  0  0  0  0  0  0  0  0  0  0
    7.8289   -4.7249   22.3949 H   0  0  0  0  0  0  0  0  0  0  0  0
    7.1812   -5.9708   24.5060 H   0  0  0  0  0  0  0  0  0  0  0  0
    4.8878   -7.0628   24.5339 H   0  0  0  0  0  0  0  0  0  0  0  0
  1  2  2  0
  2  3  1  0
  3  4  2  0
  4  5  1  0
  5  6  1  0
  6  7  1  0
  7  8  1  0
  8  9  2  0
  9 10  1  0
 10 11  1  0
 11 12  1  0
 12 13  1  0
 13 14  1  0
 14 15  1  0
 14 16  1  0
 13 17  1  0
 13 18  1  0
 12 19  1  0
 12 20  1  0
 11 21  1  0
 10 22  2  0
 22 23  1  0
 23 24  1  0
 24 25  2  0
 25 26  1  0
 26 27  2  0
 27 28  1  0
 28 29  2  0
 29 30  1  0
 27 31  1  0
 26 32  1  0
 25 33  1  0
  7 34  1  0
  7 35  1  0
  5 36  1  0
  5 37  1  0
  4 38  1  0
 38 39  2  0
 39 40  1  0
  3 41  1  0
  2 42  1  0
  1 43  1  0
 39  1  1  0
 23  8  1  0
 29 24  1  0
 14 11  1  0
M  END
>  <cnnaffinity>  (1) 
-5.07121

>  <filename>  (1) 
c1ccc(CSCc2nc(C3CCC3)nn2-c2cccnc2)nc1

$$$$
