
     RDKit          3D

 41 44  0  0  0  0  0  0  0  0999 V2000
    6.3471    2.9324   27.7804 C   0  0  0  0  0  0  0  0  0  0  0  0
    7.5019    3.4351   27.1796 C   0  0  0  0  0  0  0  0  0  0  0  0
    7.8635    2.9362   25.9323 C   0  0  0  0  0  0  0  0  0  0  0  0
    7.0548    1.9612   25.3055 C   0  0  0  0  0  0  0  0  0  0  0  0
    7.4926    1.4443   23.9551 C   0  0  0  0  0  0  0  0  0  0  0  0
    6.9096    0.4801   23.2566 N   0  0  0  0  0  0  0  0  0  0  0  0
    7.7114    0.3331   22.1822 N   0  0  0  0  0  0  0  0  0  0  0  0
    7.3489   -0.5927   21.1063 C   0  0  0  0  0  0  0  0  0  0  0  0
    6.6718    0.0730   19.9205 C   0  0  0  0  0  0  0  0  0  0  0  0
    5.4590    0.7414   20.1192 C   0  0  0  0  0  0  0  0  0  0  0  0
    4.8429    1.3549   19.0285 C   0  0  0  0  0  0  0  0  0  0  0  0
    5.4564    1.2855   17.7748 C   0  0  0  0  0  0  0  0  0  0  0  0
    6.6116    0.6396   17.5596 N   0  0  0  0  0  0  0  0  0  0  0  0
    7.1940    0.0540   18.6154 C   0  0  0  0  0  0  0  0  0  0  0  0
    8.1277   -0.4631   18.3888 H   0  0  0  0  0  0  0  0  0  0  0  0
    5.0008    1.7682   16.9103 H   0  0  0  0  0  0  0  0  0  0  0  0
    3.9129    1.8975   19.1386 H   0  0  0  0  0  0  0  0  0  0  0  0
    5.0300    0.7846   21.1227 H   0  0  0  0  0  0  0  0  0  0  0  0
    8.2453   -1.1296   20.7865 H   0  0  0  0  0  0  0  0  0  0  0  0
    6.6859   -1.3301   21.5707 H   0  0  0  0  0  0  0  0  0  0  0  0
    8.7355    1.2124   22.2647 C   0  0  0  0  0  0  0  0  0  0  0  0
    9.8881    1.2634   21.3132 C   0  0  0  0  0  0  0  0  0  0  0  0
   11.0223    0.3056   21.6567 C   0  0  0  0  0  0  0  0  0  0  0  0
   12.0396    0.7185   22.5269 C   0  0  0  0  0  0  0  0  0  0  0  0
   13.0740   -0.1713   22.8271 C   0  0  0  0  0  0  0  0  0  0  0  0
   13.0868   -1.4245   22.2049 C   0  0  0  0  0  0  0  0  0  0  0  0
   12.1026   -1.8531   21.4081 N   0  0  0  0  0  0  0  0  0  0  0  0
   11.0968   -1.0046   21.1597 C   0  0  0  0  0  0  0  0  0  0  0  0
   10.3046   -1.3706   20.5078 H   0  0  0  0  0  0  0  0  0  0  0  0
   13.9266   -2.1048   22.3612 H   0  0  0  0  0  0  0  0  0  0  0  0
   13.8547    0.1005   23.5278 H   0  0  0  0  0  0  0  0  0  0  0  0
   12.0378    1.7381   22.9191 H   0  0  0  0  0  0  0  0  0  0  0  0
    9.5210    1.0851   20.2982 H   0  0  0  0  0  0  0  0  0  0  0  0
   10.2588    2.2925   21.3554 H   0  0  0  0  0  0  0  0  0  0  0  0
    8.6204    1.9409   23.3496 N   0  0  0  0  0  0  0  0  0  0  0  0
    5.9360    1.4822   25.8965 N   0  0  0  0  0  0  0  0  0  0  0  0
    5.6106    1.9563   27.1035 C   0  0  0  0  0  0  0  0  0  0  0  0
    4.7154    1.5282   27.5531 H   0  0  0  0  0  0  0  0  0  0  0  0
    8.7638    3.2745   25.4317 H   0  0  0  0  0  0  0  0  0  0  0  0
    8.1076    4.1961   27.6683 H   0  0  0  0  0  0  0  0  0  0  0  0
    6.0143    3.2814   28.7501 H   0  0  0  0  0  0  0  0  0  0  0  0
  1  2  2  0
  2  3  1  0
  3  4  2  0
  4  5  1  0
  5  6  2  0
  6  7  1  0
  7  8  1  0
  8  9  1  0
  9 10  2  0
 10 11  1  0
 11 12  2  0
 12 13  1  0
 13 14  2  0
 14 15  1  0
 12 16  1  0
 11 17  1  0
 10 18  1  0
  8 19  1  0
  8 20  1  0
  7 21  1  0
 21 22  1  0
 22 23  1  0
 23 24  2  0
 24 25  1  0
 25 26  2  0
 26 27  1  0
 27 28  2  0
 28 29  1  0
 26 30  1  0
 25 31  1  0
 24 32  1  0
 22 33  1  0
 22 34  1  0
 21 35  2  0
  4 36  1  0
 36 37  2  0
 37 38  1  0
  3 39  1  0
  2 40  1  0
  1 41  1  0
 37  1  1  0
 35  5  1  0
 14  9  1  0
 28 23  1  0
M  END
>  <cnnaffinity>  (1) 
-6.23388

>  <filename>  (1) 
c1ccc(-c2nc(Cc3cccnc3)n(Cc3cccnc3)n2)nc1

$$$$
