
     RDKit          3D

 39 41  0  0  0  0  0  0  0  0999 V2000
    4.9173    1.7897   16.9850 H   0  0  0  0  0  0  0  0  0  0  0  0
    5.3940    1.2978   17.8276 C   0  0  0  0  0  0  0  0  0  0  0  0
    6.5559    0.6800   17.5675 N   0  0  0  0  0  0  0  0  0  0  0  0
    7.1591    0.0677   18.5969 C   0  0  0  0  0  0  0  0  0  0  0  0
    8.1064   -0.4121   18.3569 H   0  0  0  0  0  0  0  0  0  0  0  0
    6.6584    0.0195   19.9162 C   0  0  0  0  0  0  0  0  0  0  0  0
    7.4719   -0.6296   21.0416 C   0  0  0  0  0  0  0  0  0  0  0  0
    8.6480    0.2813   21.4734 C   0  0  0  0  0  0  0  0  0  0  0  0
    9.2971    0.4205   20.5935 H   0  0  0  0  0  0  0  0  0  0  0  0
    9.2505   -0.2527   22.2217 H   0  0  0  0  0  0  0  0  0  0  0  0
    8.2307    1.5612   21.9916 N   0  0  0  0  0  0  0  0  0  0  0  0
    7.2562    1.7987   21.9814 H   0  0  0  0  0  0  0  0  0  0  0  0
    9.0794    2.5641   22.3987 C   0  0  0  0  0  0  0  0  0  0  0  0
   10.4769    2.3911   22.3851 C   0  0  0  0  0  0  0  0  0  0  0  0
   10.8873    1.4545   22.0270 H   0  0  0  0  0  0  0  0  0  0  0  0
   11.3141    3.4140   22.8306 C   0  0  0  0  0  0  0  0  0  0  0  0
   12.3883    3.2571   22.8074 H   0  0  0  0  0  0  0  0  0  0  0  0
   10.7867    4.6207   23.2937 C   0  0  0  0  0  0  0  0  0  0  0  0
   11.4468    5.4128   23.6319 H   0  0  0  0  0  0  0  0  0  0  0  0
    9.3960    4.7942   23.3045 C   0  0  0  0  0  0  0  0  0  0  0  0
    8.9752    5.7316   23.6575 H   0  0  0  0  0  0  0  0  0  0  0  0
    8.5441    3.7828   22.8635 C   0  0  0  0  0  0  0  0  0  0  0  0
    7.4645    3.9309   22.8750 H   0  0  0  0  0  0  0  0  0  0  0  0
    8.0157   -1.9947   20.5865 C   0  0  0  0  0  0  0  0  0  0  0  0
    7.2024   -2.3917   19.9728 H   0  0  0  0  0  0  0  0  0  0  0  0
    8.9335   -1.8929   19.9957 H   0  0  0  0  0  0  0  0  0  0  0  0
    8.2046   -2.9184   21.7989 C   0  0  0  0  0  0  0  0  0  0  0  0
    9.2586   -2.9732   22.0897 H   0  0  0  0  0  0  0  0  0  0  0  0
    7.8962   -3.9444   21.5618 H   0  0  0  0  0  0  0  0  0  0  0  0
    7.3400   -2.2823   22.9054 C   0  0  0  0  0  0  0  0  0  0  0  0
    7.9687   -1.9215   23.7238 H   0  0  0  0  0  0  0  0  0  0  0  0
    6.6263   -2.9877   23.3425 H   0  0  0  0  0  0  0  0  0  0  0  0
    6.6104   -1.1037   22.2350 C   0  0  0  0  0  0  0  0  0  0  0  0
    5.6617   -1.4594   21.8179 H   0  0  0  0  0  0  0  0  0  0  0  0
    6.4002   -0.2869   22.9324 H   0  0  0  0  0  0  0  0  0  0  0  0
    5.4373    0.6630   20.1509 C   0  0  0  0  0  0  0  0  0  0  0  0
    4.9948    0.6414   21.1513 H   0  0  0  0  0  0  0  0  0  0  0  0
    4.8003    1.3163   19.0934 C   0  0  0  0  0  0  0  0  0  0  0  0
    3.8702    1.8452   19.2486 H   0  0  0  0  0  0  0  0  0  0  0  0
  1  2  1  0
  2  3  2  0
  3  4  1  0
  4  5  1  0
  4  6  2  0
  6  7  1  0
  7  8  1  0
  8  9  1  0
  8 10  1  0
  8 11  1  0
 11 12  1  0
 11 13  1  0
 13 14  2  0
 14 15  1  0
 14 16  1  0
 16 17  1  0
 16 18  2  0
 18 19  1  0
 18 20  1  0
 20 21  1  0
 20 22  2  0
 22 23  1  0
  7 24  1  0
 24 25  1  0
 24 26  1  0
 24 27  1  0
 27 28  1  0
 27 29  1  0
 27 30  1  0
 30 31  1  0
 30 32  1  0
 30 33  1  0
 33 34  1  0
 33 35  1  0
  6 36  1  0
 36 37  1  0
 36 38  2  0
 38 39  1  0
 38  2  1  0
 33  7  1  0
 22 13  1  0
M  END
>  <cnnaffinity>  (1) 
-5.03421

>  <filename>  (1) 
c1ccc(NCC2(c3cccnc3)CCCC2)cc1

$$$$
