
     RDKit          3D

 29 31  0  0  0  0  0  0  0  0999 V2000
    2.6787   -4.4482   23.6856 H   0  0  0  0  0  0  0  0  0  0  0  0
    3.7265   -4.5177   23.3980 C   0  0  0  0  0  0  0  0  0  0  0  0
    4.2104   -3.5011   22.6828 N   0  0  0  0  0  0  0  0  0  0  0  0
    5.4831   -3.5508   22.3226 C   0  0  0  0  0  0  0  0  0  0  0  0
    5.7777   -2.4650   21.5179 N   0  0  0  0  0  0  0  0  0  0  0  0
    4.9390   -1.9134   21.6269 H   0  0  0  0  0  0  0  0  0  0  0  0
    6.9459   -1.7724   21.7234 C   0  0  0  0  0  0  0  0  0  0  0  0
    7.8526   -2.0966   22.6036 N   0  0  0  0  0  0  0  0  0  0  0  0
    8.8997   -1.2490   22.3570 C   0  0  0  0  0  0  0  0  0  0  0  0
    9.8125   -1.3181   22.9344 H   0  0  0  0  0  0  0  0  0  0  0  0
    8.6251   -0.4110   21.3275 C   0  0  0  0  0  0  0  0  0  0  0  0
    9.1850    0.3690   20.8428 H   0  0  0  0  0  0  0  0  0  0  0  0
    7.3370   -0.7213   20.9187 N   0  0  0  0  0  0  0  0  0  0  0  0
    6.6255   -0.0308   19.8872 C   0  0  0  0  0  0  0  0  0  0  0  0
    7.1625    0.0435   18.5872 C   0  0  0  0  0  0  0  0  0  0  0  0
    8.1110   -0.4456   18.3603 H   0  0  0  0  0  0  0  0  0  0  0  0
    6.5606    0.6779   17.5752 N   0  0  0  0  0  0  0  0  0  0  0  0
    5.3982    1.3010   17.8298 C   0  0  0  0  0  0  0  0  0  0  0  0
    4.9401    1.8201   16.9917 H   0  0  0  0  0  0  0  0  0  0  0  0
    4.7925    1.3013   19.0889 C   0  0  0  0  0  0  0  0  0  0  0  0
    3.8668    1.8442   19.2358 H   0  0  0  0  0  0  0  0  0  0  0  0
    5.4097    0.6188   20.1430 C   0  0  0  0  0  0  0  0  0  0  0  0
    4.9942    0.6369   21.1527 H   0  0  0  0  0  0  0  0  0  0  0  0
    6.3513   -4.5986   22.6416 C   0  0  0  0  0  0  0  0  0  0  0  0
    7.3859   -4.5139   22.3526 H   0  0  0  0  0  0  0  0  0  0  0  0
    5.8193   -5.6696   23.3515 C   0  0  0  0  0  0  0  0  0  0  0  0
    6.4476   -6.5242   23.5863 H   0  0  0  0  0  0  0  0  0  0  0  0
    4.4796   -5.6343   23.7478 C   0  0  0  0  0  0  0  0  0  0  0  0
    4.0218   -6.4450   24.2991 H   0  0  0  0  0  0  0  0  0  0  0  0
  1  2  1  0
  2  3  2  0
  3  4  1  0
  4  5  1  0
  5  6  1  0
  5  7  1  0
  7  8  2  0
  8  9  1  0
  9 10  1  0
  9 11  2  0
 11 12  1  0
 11 13  1  0
 13 14  1  0
 14 15  2  0
 15 16  1  0
 15 17  1  0
 17 18  2  0
 18 19  1  0
 18 20  1  0
 20 21  1  0
 20 22  2  0
 22 23  1  0
  4 24  2  0
 24 25  1  0
 24 26  1  0
 26 27  1  0
 26 28  2  0
 28 29  1  0
 28  2  1  0
 13  7  1  0
 22 14  1  0
M  END
>  <cnnaffinity>  (1) 
-5.18297

>  <filename>  (1) 
c1ccc(Nc2nccn2-c2cccnc2)nc1

$$$$
