
     RDKit          3D

 43 46  0  0  0  0  0  0  0  0999 V2000
    6.6356   -6.9129   27.8003 H   0  0  0  0  0  0  0  0  0  0  0  0
    6.1477   -6.3230   27.0273 C   0  0  0  0  0  0  0  0  0  0  0  0
    6.9687   -5.7448   26.1502 N   0  0  0  0  0  0  0  0  0  0  0  0
    6.4152   -5.0240   25.1638 C   0  0  0  0  0  0  0  0  0  0  0  0
    7.2841   -4.4618   24.2577 N   0  0  0  0  0  0  0  0  0  0  0  0
    8.7314   -4.3868   24.5158 C   0  0  0  0  0  0  0  0  0  0  0  0
    8.9080   -4.4226   25.5933 H   0  0  0  0  0  0  0  0  0  0  0  0
    9.2326   -5.2629   24.0750 H   0  0  0  0  0  0  0  0  0  0  0  0
    9.3702   -3.1123   23.9309 C   0  0  0  0  0  0  0  0  0  0  0  0
    9.0658   -2.2243   24.5064 H   0  0  0  0  0  0  0  0  0  0  0  0
   10.4626   -3.2149   24.0261 H   0  0  0  0  0  0  0  0  0  0  0  0
    9.0174   -2.9090   22.5216 N   0  0  0  0  0  0  0  0  0  0  0  0
    9.3844   -1.7219   21.9051 C   0  0  0  0  0  0  0  0  0  0  0  0
    8.6908   -0.7776   21.1493 C   0  0  0  0  0  0  0  0  0  0  0  0
    7.2953   -0.7493   20.9164 N   0  0  0  0  0  0  0  0  0  0  0  0
    6.7248   -0.9900   21.7183 H   0  0  0  0  0  0  0  0  0  0  0  0
    6.6565   -0.0271   19.8930 C   0  0  0  0  0  0  0  0  0  0  0  0
    7.1668    0.0504   18.5728 C   0  0  0  0  0  0  0  0  0  0  0  0
    8.1164   -0.4331   18.3484 H   0  0  0  0  0  0  0  0  0  0  0  0
    6.5581    0.6833   17.5574 N   0  0  0  0  0  0  0  0  0  0  0  0
    5.3959    1.3014   17.8260 C   0  0  0  0  0  0  0  0  0  0  0  0
    4.9233    1.8146   16.9904 H   0  0  0  0  0  0  0  0  0  0  0  0
    4.8035    1.3036   19.0966 C   0  0  0  0  0  0  0  0  0  0  0  0
    3.8697    1.8420   19.2553 H   0  0  0  0  0  0  0  0  0  0  0  0
    5.4415    0.6267   20.1446 C   0  0  0  0  0  0  0  0  0  0  0  0
    5.0262    0.6159   21.1525 H   0  0  0  0  0  0  0  0  0  0  0  0
    9.6919    0.1273   20.7101 C   0  0  0  0  0  0  0  0  0  0  0  0
    9.5708    0.9978   20.0750 H   0  0  0  0  0  0  0  0  0  0  0  0
   10.8999   -0.1996   21.1524 N   0  0  0  0  0  0  0  0  0  0  0  0
   10.6848   -1.3127   21.8781 N   0  0  0  0  0  0  0  0  0  0  0  0
   11.4568   -1.8116   22.2905 H   0  0  0  0  0  0  0  0  0  0  0  0
    7.9786   -3.7732   21.9526 C   0  0  0  0  0  0  0  0  0  0  0  0
    8.4212   -4.7465   21.6846 H   0  0  0  0  0  0  0  0  0  0  0  0
    7.5899   -3.3117   21.0413 H   0  0  0  0  0  0  0  0  0  0  0  0
    6.8143   -4.0483   22.9296 C   0  0  0  0  0  0  0  0  0  0  0  0
    6.1952   -4.8440   22.4837 H   0  0  0  0  0  0  0  0  0  0  0  0
    6.1754   -3.1578   23.0292 H   0  0  0  0  0  0  0  0  0  0  0  0
    5.0148   -4.8294   25.0527 C   0  0  0  0  0  0  0  0  0  0  0  0
    4.6474   -4.2094   24.2424 H   0  0  0  0  0  0  0  0  0  0  0  0
    4.1785   -5.4161   25.9958 C   0  0  0  0  0  0  0  0  0  0  0  0
    3.0961   -5.2713   25.9477 H   0  0  0  0  0  0  0  0  0  0  0  0
    4.7591   -6.1934   27.0098 C   0  0  0  0  0  0  0  0  0  0  0  0
    4.1722   -6.6858   27.7772 H   0  0  0  0  0  0  0  0  0  0  0  0
  1  2  1  0
  2  3  2  0
  3  4  1  0
  4  5  1  0
  5  6  1  0
  6  7  1  0
  6  8  1  0
  6  9  1  0
  9 10  1  0
  9 11  1  0
  9 12  1  0
 12 13  1  0
 13 14  2  0
 14 15  1  0
 15 16  1  0
 15 17  1  0
 17 18  2  0
 18 19  1  0
 18 20  1  0
 20 21  2  0
 21 22  1  0
 21 23  1  0
 23 24  1  0
 23 25  2  0
 25 26  1  0
 14 27  1  0
 27 28  1  0
 27 29  2  0
 29 30  1  0
 30 31  1  0
 12 32  1  0
 32 33  1  0
 32 34  1  0
 32 35  1  0
 35 36  1  0
 35 37  1  0
  4 38  2  0
 38 39  1  0
 38 40  1  0
 40 41  1  0
 40 42  2  0
 42 43  1  0
 42  2  1  0
 35  5  1  0
 30 13  1  0
 25 17  1  0
M  END
>  <cnnaffinity>  (1) 
-5.88924

>  <filename>  (1) 
c1ccc(N2CCN(c3[nH]ncc3Nc3cccnc3)CC2)nc1

$$$$
