
     RDKit          3D

 41 44  0  0  0  0  0  0  0  0999 V2000
    6.3435    3.0130   27.8138 C   0  0  0  0  0  0  0  0  0  0  0  0
    7.4831    3.5202   27.1784 C   0  0  0  0  0  0  0  0  0  0  0  0
    7.8558    3.0374   25.9240 C   0  0  0  0  0  0  0  0  0  0  0  0
    7.0929    2.0335   25.2889 C   0  0  0  0  0  0  0  0  0  0  0  0
    7.5388    1.4951   23.9850 C   0  0  0  0  0  0  0  0  0  0  0  0
    6.8691    0.5990   23.2725 N   0  0  0  0  0  0  0  0  0  0  0  0
    7.6670    0.3934   22.2037 N   0  0  0  0  0  0  0  0  0  0  0  0
    7.2956   -0.5424   21.1491 C   0  0  0  0  0  0  0  0  0  0  0  0
    6.6421    0.1157   19.9477 C   0  0  0  0  0  0  0  0  0  0  0  0
    5.4325    0.8052   20.1059 C   0  0  0  0  0  0  0  0  0  0  0  0
    4.8492    1.3977   18.9851 C   0  0  0  0  0  0  0  0  0  0  0  0
    5.4925    1.2817   17.7489 C   0  0  0  0  0  0  0  0  0  0  0  0
    6.6489    0.6248   17.5755 N   0  0  0  0  0  0  0  0  0  0  0  0
    7.2036    0.0698   18.6617 C   0  0  0  0  0  0  0  0  0  0  0  0
    8.1512   -0.4441   18.4884 H   0  0  0  0  0  0  0  0  0  0  0  0
    5.0592    1.7366   16.8603 H   0  0  0  0  0  0  0  0  0  0  0  0
    3.9250    1.9612   19.0575 H   0  0  0  0  0  0  0  0  0  0  0  0
    4.9697    0.8846   21.0927 H   0  0  0  0  0  0  0  0  0  0  0  0
    6.6219   -1.2708   21.6109 H   0  0  0  0  0  0  0  0  0  0  0  0
    8.1966   -1.0873   20.8489 H   0  0  0  0  0  0  0  0  0  0  0  0
    8.7630    1.1748   22.3063 C   0  0  0  0  0  0  0  0  0  0  0  0
    9.8915    1.2039   21.3128 C   0  0  0  0  0  0  0  0  0  0  0  0
   11.0701    0.2720   21.6006 C   0  0  0  0  0  0  0  0  0  0  0  0
   11.1382   -1.0568   21.1843 C   0  0  0  0  0  0  0  0  0  0  0  0
   12.1746   -1.8586   21.4310 N   0  0  0  0  0  0  0  0  0  0  0  0
   13.1716   -1.3406   22.1382 C   0  0  0  0  0  0  0  0  0  0  0  0
   13.2213   -0.1011   22.6226 N   0  0  0  0  0  0  0  0  0  0  0  0
   12.1751    0.6800   22.3556 C   0  0  0  0  0  0  0  0  0  0  0  0
   12.2248    1.6886   22.7751 H   0  0  0  0  0  0  0  0  0  0  0  0
   14.0189   -1.9961   22.3377 H   0  0  0  0  0  0  0  0  0  0  0  0
   10.3167   -1.5011   20.6217 H   0  0  0  0  0  0  0  0  0  0  0  0
    9.4695    1.0066   20.3229 H   0  0  0  0  0  0  0  0  0  0  0  0
   10.2503    2.2381   21.2897 H   0  0  0  0  0  0  0  0  0  0  0  0
    8.7152    1.8781   23.4135 N   0  0  0  0  0  0  0  0  0  0  0  0
    5.9369    1.5404   25.9297 C   0  0  0  0  0  0  0  0  0  0  0  0
    5.5743    2.0258   27.1869 C   0  0  0  0  0  0  0  0  0  0  0  0
    4.6973    1.6205   27.6855 H   0  0  0  0  0  0  0  0  0  0  0  0
    5.3381    0.7725   25.4411 H   0  0  0  0  0  0  0  0  0  0  0  0
    8.7446    3.4206   25.4242 H   0  0  0  0  0  0  0  0  0  0  0  0
    8.0890    4.2809   27.6637 H   0  0  0  0  0  0  0  0  0  0  0  0
    6.0589    3.3810   28.7954 H   0  0  0  0  0  0  0  0  0  0  0  0
  1  2  2  0
  2  3  1  0
  3  4  2  0
  4  5  1  0
  5  6  2  0
  6  7  1  0
  7  8  1  0
  8  9  1  0
  9 10  2  0
 10 11  1  0
 11 12  2  0
 12 13  1  0
 13 14  2  0
 14 15  1  0
 12 16  1  0
 11 17  1  0
 10 18  1  0
  8 19  1  0
  8 20  1  0
  7 21  1  0
 21 22  1  0
 22 23  1  0
 23 24  2  0
 24 25  1  0
 25 26  2  0
 26 27  1  0
 27 28  2  0
 28 29  1  0
 26 30  1  0
 24 31  1  0
 22 32  1  0
 22 33  1  0
 21 34  2  0
  4 35  1  0
 35 36  2  0
 36 37  1  0
 35 38  1  0
  3 39  1  0
  2 40  1  0
  1 41  1  0
 36  1  1  0
 34  5  1  0
 14  9  1  0
 28 23  1  0
M  END
>  <cnnaffinity>  (1) 
-6.1247

>  <filename>  (1) 
c1ccc(-c2nc(Cc3cncnc3)n(Cc3cccnc3)n2)cc1

$$$$
