
     RDKit          3D

 42 45  0  0  0  0  0  0  0  0999 V2000
   12.4495    1.5438   23.5877 C   0  0  0  0  0  0  0  0  0  0  0  0
   11.2086    2.1796   23.5022 C   0  0  0  0  0  0  0  0  0  0  0  0
   10.3160    1.7310   22.5280 C   0  0  0  0  0  0  0  0  0  0  0  0
   10.6826    0.6654   21.6902 C   0  0  0  0  0  0  0  0  0  0  0  0
    9.6932    0.1491   20.6741 C   0  0  0  0  0  0  0  0  0  0  0  0
    8.6180   -0.6368   21.2651 N   0  0  0  0  0  0  0  0  0  0  0  0
    8.8879   -1.4804   22.2816 N   0  0  0  0  0  0  0  0  0  0  0  0
    7.7005   -1.9931   22.5637 C   0  0  0  0  0  0  0  0  0  0  0  0
    7.5032   -2.9701   23.6810 C   0  0  0  0  0  0  0  0  0  0  0  0
    8.3502   -4.2509   23.5359 C   0  0  0  0  0  0  0  0  0  0  0  0
    8.5158   -4.7992   24.9637 C   0  0  0  0  0  0  0  0  0  0  0  0
    8.2323   -3.6244   25.9336 C   0  0  0  0  0  0  0  0  0  0  0  0
    7.8820   -2.4022   25.0663 C   0  0  0  0  0  0  0  0  0  0  0  0
    7.0710   -1.8009   25.4938 H   0  0  0  0  0  0  0  0  0  0  0  0
    8.7477   -1.7381   24.9598 H   0  0  0  0  0  0  0  0  0  0  0  0
    9.0928   -3.4096   26.5748 H   0  0  0  0  0  0  0  0  0  0  0  0
    7.4072   -3.8782   26.6081 H   0  0  0  0  0  0  0  0  0  0  0  0
    9.5195   -5.2112   25.1066 H   0  0  0  0  0  0  0  0  0  0  0  0
    7.8192   -5.6236   25.1513 H   0  0  0  0  0  0  0  0  0  0  0  0
    9.3230   -3.9922   23.1027 H   0  0  0  0  0  0  0  0  0  0  0  0
    7.8796   -4.9736   22.8594 H   0  0  0  0  0  0  0  0  0  0  0  0
    6.4417   -3.2297   23.6740 H   0  0  0  0  0  0  0  0  0  0  0  0
    6.6952   -1.5493   21.7816 N   0  0  0  0  0  0  0  0  0  0  0  0
    7.3006   -0.7177   20.9560 C   0  0  0  0  0  0  0  0  0  0  0  0
    6.6403    0.0259   19.8938 C   0  0  0  0  0  0  0  0  0  0  0  0
    5.4210    0.6613   20.1544 C   0  0  0  0  0  0  0  0  0  0  0  0
    4.8018    1.3218   19.0986 C   0  0  0  0  0  0  0  0  0  0  0  0
    5.4042    1.2957   17.8333 C   0  0  0  0  0  0  0  0  0  0  0  0
    6.5635    0.6737   17.5700 N   0  0  0  0  0  0  0  0  0  0  0  0
    7.1666    0.0649   18.5956 C   0  0  0  0  0  0  0  0  0  0  0  0
    8.1122   -0.4290   18.3720 H   0  0  0  0  0  0  0  0  0  0  0  0
    4.9227    1.7827   16.9909 H   0  0  0  0  0  0  0  0  0  0  0  0
    3.8692    1.8492   19.2500 H   0  0  0  0  0  0  0  0  0  0  0  0
    4.9973    0.6257   21.1654 H   0  0  0  0  0  0  0  0  0  0  0  0
    9.2406    0.9957   20.1579 H   0  0  0  0  0  0  0  0  0  0  0  0
   10.1950   -0.4855   19.9485 H   0  0  0  0  0  0  0  0  0  0  0  0
   11.8841    0.0835   21.7466 N   0  0  0  0  0  0  0  0  0  0  0  0
   12.7341    0.5111   22.6907 C   0  0  0  0  0  0  0  0  0  0  0  0
   13.6890   -0.0073   22.7349 H   0  0  0  0  0  0  0  0  0  0  0  0
    9.3369    2.1792   22.4134 H   0  0  0  0  0  0  0  0  0  0  0  0
   10.9410    2.9933   24.1792 H   0  0  0  0  0  0  0  0  0  0  0  0
   13.1885    1.8370   24.3234 H   0  0  0  0  0  0  0  0  0  0  0  0
  1  2  2  0
  2  3  1  0
  3  4  2  0
  4  5  1  0
  5  6  1  0
  6  7  1  0
  7  8  2  0
  8  9  1  0
  9 10  1  0
 10 11  1  0
 11 12  1  0
 12 13  1  0
 13 14  1  0
 13 15  1  0
 12 16  1  0
 12 17  1  0
 11 18  1  0
 11 19  1  0
 10 20  1  0
 10 21  1  0
  9 22  1  0
  8 23  1  0
 23 24  2  0
 24 25  1  0
 25 26  2  0
 26 27  1  0
 27 28  2  0
 28 29  1  0
 29 30  2  0
 30 31  1  0
 28 32  1  0
 27 33  1  0
 26 34  1  0
  5 35  1  0
  5 36  1  0
  4 37  1  0
 37 38  2  0
 38 39  1  0
  3 40  1  0
  2 41  1  0
  1 42  1  0
 38  1  1  0
 24  6  1  0
 30 25  1  0
 13  9  1  0
M  END
>  <cnnaffinity>  (1) 
-6.36277

>  <filename>  (1) 
c1ccc(Cn2nc(C3CCCC3)nc2-c2cccnc2)nc1

$$$$
