
     RDKit          3D

 33 35  0  0  0  0  0  0  0  0999 V2000
    4.9721    1.8486   16.9439 H   0  0  0  0  0  0  0  0  0  0  0  0
    5.4140    1.3181   17.7881 C   0  0  0  0  0  0  0  0  0  0  0  0
    6.5632    0.6690   17.5505 N   0  0  0  0  0  0  0  0  0  0  0  0
    7.1269    0.0302   18.5888 C   0  0  0  0  0  0  0  0  0  0  0  0
    8.0511   -0.4911   18.3551 H   0  0  0  0  0  0  0  0  0  0  0  0
    6.6043   -0.0225   19.9023 C   0  0  0  0  0  0  0  0  0  0  0  0
    7.2871   -0.7653   20.9986 C   0  0  0  0  0  0  0  0  0  0  0  0
    6.7390   -1.6656   21.9534 C   0  0  0  0  0  0  0  0  0  0  0  0
    5.7167   -2.0179   22.0442 H   0  0  0  0  0  0  0  0  0  0  0  0
    7.6611   -2.1308   22.7881 N   0  0  0  0  0  0  0  0  0  0  0  0
    8.7965   -1.5395   22.3904 N   0  0  0  0  0  0  0  0  0  0  0  0
    9.6429   -1.6928   22.9267 H   0  0  0  0  0  0  0  0  0  0  0  0
    8.6403   -0.7064   21.3321 C   0  0  0  0  0  0  0  0  0  0  0  0
    9.8034    0.0655   20.7555 C   0  0  0  0  0  0  0  0  0  0  0  0
   10.4996   -0.6522   20.3057 H   0  0  0  0  0  0  0  0  0  0  0  0
    9.4272    0.7026   19.9489 H   0  0  0  0  0  0  0  0  0  0  0  0
   10.5754    0.8816   21.6703 N   0  0  0  0  0  0  0  0  0  0  0  0
   11.4231    0.4903   22.0442 H   0  0  0  0  0  0  0  0  0  0  0  0
   10.0602    1.9296   22.4123 C   0  0  0  0  0  0  0  0  0  0  0  0
    8.7473    2.4086   22.2442 C   0  0  0  0  0  0  0  0  0  0  0  0
    8.0872    1.9302   21.5228 H   0  0  0  0  0  0  0  0  0  0  0  0
    8.2861    3.4643   23.0410 C   0  0  0  0  0  0  0  0  0  0  0  0
    7.2522    3.7928   22.9512 H   0  0  0  0  0  0  0  0  0  0  0  0
    9.1332    4.0862   23.9649 C   0  0  0  0  0  0  0  0  0  0  0  0
    8.7724    4.9120   24.5717 H   0  0  0  0  0  0  0  0  0  0  0  0
   10.4465    3.6288   24.1119 C   0  0  0  0  0  0  0  0  0  0  0  0
   11.1230    4.1243   24.8058 H   0  0  0  0  0  0  0  0  0  0  0  0
   10.9016    2.5434   23.3632 C   0  0  0  0  0  0  0  0  0  0  0  0
   11.9075    2.1587   23.4991 H   0  0  0  0  0  0  0  0  0  0  0  0
    5.3883    0.6528   20.1114 C   0  0  0  0  0  0  0  0  0  0  0  0
    4.9294    0.6710   21.1030 H   0  0  0  0  0  0  0  0  0  0  0  0
    4.7931    1.3306   19.0419 C   0  0  0  0  0  0  0  0  0  0  0  0
    3.8651    1.8749   19.1667 H   0  0  0  0  0  0  0  0  0  0  0  0
  1  2  1  0
  2  3  2  0
  3  4  1  0
  4  5  1  0
  4  6  2  0
  6  7  1  0
  7  8  1  0
  8  9  1  0
  8 10  2  0
 10 11  1  0
 11 12  1  0
 11 13  1  0
 13 14  1  0
 14 15  1  0
 14 16  1  0
 14 17  1  0
 17 18  1  0
 17 19  1  0
 19 20  2  0
 20 21  1  0
 20 22  1  0
 22 23  1  0
 22 24  2  0
 24 25  1  0
 24 26  1  0
 26 27  1  0
 26 28  2  0
 28 29  1  0
  6 30  1  0
 30 31  1  0
 30 32  2  0
 32 33  1  0
 32  2  1  0
 13  7  2  0
 28 19  1  0
M  END
>  <cnnaffinity>  (1) 
-4.81493

>  <filename>  (1) 
c1ccc(NCc2[nH]ncc2-c2cccnc2)cc1

$$$$
