
     RDKit          3D

 38 40  0  0  0  0  0  0  0  0999 V2000
    3.2632   -5.3335   22.0554 H   0  0  0  0  0  0  0  0  0  0  0  0
    4.3520   -5.3545   22.0720 C   0  0  0  0  0  0  0  0  0  0  0  0
    4.9795   -4.2625   21.6111 N   0  0  0  0  0  0  0  0  0  0  0  0
    6.3209   -4.2788   21.6196 C   0  0  0  0  0  0  0  0  0  0  0  0
    6.9856   -3.0956   20.9890 C   0  0  0  0  0  0  0  0  0  0  0  0
    8.0676   -3.2456   20.9627 H   0  0  0  0  0  0  0  0  0  0  0  0
    6.6333   -3.0230   19.9582 H   0  0  0  0  0  0  0  0  0  0  0  0
    6.6715   -1.7717   21.7049 C   0  0  2  0  0  0  0  0  0  0  0  0
    5.5878   -1.6231   21.6499 H   0  0  0  0  0  0  0  0  0  0  0  0
    7.3069   -0.6353   21.0181 N   0  0  0  0  0  0  0  0  0  0  0  0
    6.6546   -0.0332   19.9092 C   0  0  0  0  0  0  0  0  0  0  0  0
    7.1776    0.0225   18.5846 C   0  0  0  0  0  0  0  0  0  0  0  0
    8.1153   -0.4838   18.3567 H   0  0  0  0  0  0  0  0  0  0  0  0
    6.5816    0.6537   17.5572 N   0  0  0  0  0  0  0  0  0  0  0  0
    5.4223    1.2822   17.8016 C   0  0  0  0  0  0  0  0  0  0  0  0
    4.9665    1.8042   16.9621 H   0  0  0  0  0  0  0  0  0  0  0  0
    4.8040    1.2816   19.0568 C   0  0  0  0  0  0  0  0  0  0  0  0
    3.8713    1.8121   19.2023 H   0  0  0  0  0  0  0  0  0  0  0  0
    5.4175    0.6020   20.1139 C   0  0  0  0  0  0  0  0  0  0  0  0
    4.9865    0.5808   21.1144 H   0  0  0  0  0  0  0  0  0  0  0  0
    8.7602   -0.5132   21.1565 C   0  0  0  0  0  0  0  0  0  0  0  0
    9.0693    0.4264   20.6819 H   0  0  0  0  0  0  0  0  0  0  0  0
    9.3080   -1.3236   20.6378 H   0  0  0  0  0  0  0  0  0  0  0  0
    9.1576   -0.4962   22.6357 C   0  0  0  0  0  0  0  0  0  0  0  0
    8.7351    0.4094   23.0895 H   0  0  0  0  0  0  0  0  0  0  0  0
   10.2481   -0.4318   22.7246 H   0  0  0  0  0  0  0  0  0  0  0  0
    8.6064   -1.7179   23.3763 C   0  0  0  0  0  0  0  0  0  0  0  0
    8.8510   -1.6551   24.4420 H   0  0  0  0  0  0  0  0  0  0  0  0
    9.0759   -2.6408   23.0032 H   0  0  0  0  0  0  0  0  0  0  0  0
    7.0841   -1.7857   23.1899 C   0  0  0  0  0  0  0  0  0  0  0  0
    6.6313   -0.9136   23.6777 H   0  0  0  0  0  0  0  0  0  0  0  0
    6.6621   -2.6764   23.6743 H   0  0  0  0  0  0  0  0  0  0  0  0
    7.0716   -5.3388   22.1498 C   0  0  0  0  0  0  0  0  0  0  0  0
    8.1485   -5.2037   22.2572 H   0  0  0  0  0  0  0  0  0  0  0  0
    6.4108   -6.5036   22.5532 C   0  0  0  0  0  0  0  0  0  0  0  0
    6.9714   -7.3933   22.8416 H   0  0  0  0  0  0  0  0  0  0  0  0
    5.0118   -6.4987   22.5243 C   0  0  0  0  0  0  0  0  0  0  0  0
    4.4154   -7.3402   22.8625 H   0  0  0  0  0  0  0  0  0  0  0  0
  1  2  1  0
  2  3  2  0
  3  4  1  0
  4  5  1  0
  5  6  1  0
  5  7  1  0
  5  8  1  0
  8  9  1  1
  8 10  1  0
 10 11  1  0
 11 12  2  0
 12 13  1  0
 12 14  1  0
 14 15  2  0
 15 16  1  0
 15 17  1  0
 17 18  1  0
 17 19  2  0
 19 20  1  0
 10 21  1  0
 21 22  1  0
 21 23  1  0
 21 24  1  0
 24 25  1  0
 24 26  1  0
 24 27  1  0
 27 28  1  0
 27 29  1  0
 27 30  1  0
 30 31  1  0
 30 32  1  0
  4 33  2  0
 33 34  1  0
 33 35  1  0
 35 36  1  0
 35 37  2  0
 37 38  1  0
 37  2  1  0
 30  8  1  0
 19 11  1  0
M  END
>  <cnnaffinity>  (1) 
-5.62588

>  <filename>  (1) 
c1ccc(C[C@H]2CCCCN2c2cccnc2)nc1

$$$$
