
     RDKit          3D

 32 34  0  0  0  0  0  0  0  0999 V2000
    5.0770    1.8204   16.8231 H   0  0  0  0  0  0  0  0  0  0  0  0
    5.4504    1.3154   17.7096 C   0  0  0  0  0  0  0  0  0  0  0  0
    6.6014    0.6414   17.5546 N   0  0  0  0  0  0  0  0  0  0  0  0
    7.0982    0.0329   18.6347 C   0  0  0  0  0  0  0  0  0  0  0  0
    8.0307   -0.5165   18.5211 H   0  0  0  0  0  0  0  0  0  0  0  0
    6.4844    0.0639   19.9021 C   0  0  0  0  0  0  0  0  0  0  0  0
    7.1594   -0.6176   21.0047 C   0  0  0  0  0  0  0  0  0  0  0  0
    8.3673   -1.2769   20.7549 N   0  0  0  0  0  0  0  0  0  0  0  0
    8.7332   -1.7252   21.9129 C   0  0  0  0  0  0  0  0  0  0  0  0
   10.0212   -2.4220   22.3033 C   0  0  0  0  0  0  0  0  0  0  0  0
    9.7956   -3.4340   22.6514 H   0  0  0  0  0  0  0  0  0  0  0  0
   10.5994   -2.5068   21.3811 H   0  0  0  0  0  0  0  0  0  0  0  0
   10.8369   -1.7543   23.2975 N   0  0  0  0  0  0  0  0  0  0  0  0
   10.7370   -2.0084   24.2710 H   0  0  0  0  0  0  0  0  0  0  0  0
   11.3570   -0.4841   23.1130 C   0  0  0  0  0  0  0  0  0  0  0  0
   11.9591    0.1225   24.2285 C   0  0  0  0  0  0  0  0  0  0  0  0
   11.8698   -0.3432   25.2089 H   0  0  0  0  0  0  0  0  0  0  0  0
   12.7066    1.2812   24.0703 C   0  0  0  0  0  0  0  0  0  0  0  0
   13.2062    1.6910   24.9344 H   0  0  0  0  0  0  0  0  0  0  0  0
   12.8096    1.8971   22.8204 C   0  0  0  0  0  0  0  0  0  0  0  0
   13.4009    2.7970   22.6970 H   0  0  0  0  0  0  0  0  0  0  0  0
   12.1192    1.3613   21.7322 C   0  0  0  0  0  0  0  0  0  0  0  0
   12.1898    1.8580   20.7683 H   0  0  0  0  0  0  0  0  0  0  0  0
   11.3785    0.1799   21.8674 C   0  0  0  0  0  0  0  0  0  0  0  0
   10.7826   -0.1957   21.0408 H   0  0  0  0  0  0  0  0  0  0  0  0
    7.8568   -1.4716   22.9039 O   0  0  0  0  0  0  0  0  0  0  0  0
    6.8628   -0.7462   22.3190 C   0  0  0  0  0  0  0  0  0  0  0  0
    6.0764   -0.4171   22.9763 H   0  0  0  0  0  0  0  0  0  0  0  0
    5.2688    0.7538   20.0425 C   0  0  0  0  0  0  0  0  0  0  0  0
    4.7485    0.8017   21.0012 H   0  0  0  0  0  0  0  0  0  0  0  0
    4.7473    1.3886   18.9181 C   0  0  0  0  0  0  0  0  0  0  0  0
    3.8219    1.9527   18.9642 H   0  0  0  0  0  0  0  0  0  0  0  0
  1  2  1  0
  2  3  2  0
  3  4  1  0
  4  5  1  0
  4  6  2  0
  6  7  1  0
  7  8  1  0
  8  9  2  0
  9 10  1  0
 10 11  1  0
 10 12  1  0
 10 13  1  0
 13 14  1  0
 13 15  1  0
 15 16  2  0
 16 17  1  0
 16 18  1  0
 18 19  1  0
 18 20  2  0
 20 21  1  0
 20 22  1  0
 22 23  1  0
 22 24  2  0
 24 25  1  0
  9 26  1  0
 26 27  1  0
 27 28  1  0
  6 29  1  0
 29 30  1  0
 29 31  2  0
 31 32  1  0
 31  2  1  0
 27  7  2  0
 24 15  1  0
M  END
>  <cnnaffinity>  (1) 
-5.39423

>  <filename>  (1) 
c1ccc(NCc2nc(-c3cccnc3)co2)cc1

$$$$
