
     RDKit          3D

 29 31  0  0  0  0  0  0  0  0999 V2000
    9.4249   -3.7154   27.7386 H   0  0  0  0  0  0  0  0  0  0  0  0
    9.4983   -3.8379   26.6662 C   0  0  0  0  0  0  0  0  0  0  0  0
    8.6617   -3.0975   25.9417 N   0  0  0  0  0  0  0  0  0  0  0  0
    8.7225   -3.2648   24.6158 C   0  0  0  0  0  0  0  0  0  0  0  0
    7.7971   -2.4635   23.9858 N   0  0  0  0  0  0  0  0  0  0  0  0
    7.4261   -1.9236   24.7626 H   0  0  0  0  0  0  0  0  0  0  0  0
    7.9600   -1.7980   22.7576 C   0  0  0  0  0  0  0  0  0  0  0  0
    9.0718   -1.5678   21.8975 C   0  0  0  0  0  0  0  0  0  0  0  0
   10.1017   -1.8500   22.0523 H   0  0  0  0  0  0  0  0  0  0  0  0
    8.7217   -0.9039   20.8083 N   0  0  0  0  0  0  0  0  0  0  0  0
    7.3993   -0.6735   20.9474 N   0  0  0  0  0  0  0  0  0  0  0  0
    6.6822   -0.0035   19.9311 C   0  0  0  0  0  0  0  0  0  0  0  0
    7.2067    0.0202   18.6262 C   0  0  0  0  0  0  0  0  0  0  0  0
    8.1511   -0.4825   18.4312 H   0  0  0  0  0  0  0  0  0  0  0  0
    6.6021    0.6314   17.6047 N   0  0  0  0  0  0  0  0  0  0  0  0
    5.4416    1.2657   17.8498 C   0  0  0  0  0  0  0  0  0  0  0  0
    4.9782    1.7711   17.0057 H   0  0  0  0  0  0  0  0  0  0  0  0
    4.8387    1.2904   19.1118 C   0  0  0  0  0  0  0  0  0  0  0  0
    3.9045    1.8236   19.2518 H   0  0  0  0  0  0  0  0  0  0  0  0
    5.4653    0.6449   20.1805 C   0  0  0  0  0  0  0  0  0  0  0  0
    5.0417    0.6745   21.1844 H   0  0  0  0  0  0  0  0  0  0  0  0
    6.9221   -1.1984   22.1066 C   0  0  0  0  0  0  0  0  0  0  0  0
    5.8973   -1.1668   22.4150 H   0  0  0  0  0  0  0  0  0  0  0  0
    9.5981   -4.1481   23.9707 C   0  0  0  0  0  0  0  0  0  0  0  0
    9.5648   -4.2523   22.8976 H   0  0  0  0  0  0  0  0  0  0  0  0
   10.5053   -4.8572   24.7551 C   0  0  0  0  0  0  0  0  0  0  0  0
   11.2626   -5.4982   24.3113 H   0  0  0  0  0  0  0  0  0  0  0  0
   10.4278   -4.7270   26.1384 C   0  0  0  0  0  0  0  0  0  0  0  0
   11.0498   -5.2885   26.8185 H   0  0  0  0  0  0  0  0  0  0  0  0
  1  2  1  0
  2  3  2  0
  3  4  1  0
  4  5  1  0
  5  6  1  0
  5  7  1  0
  7  8  1  0
  8  9  1  0
  8 10  2  0
 10 11  1  0
 11 12  1  0
 12 13  2  0
 13 14  1  0
 13 15  1  0
 15 16  2  0
 16 17  1  0
 16 18  1  0
 18 19  1  0
 18 20  2  0
 20 21  1  0
 11 22  1  0
 22 23  1  0
  4 24  2  0
 24 25  1  0
 24 26  1  0
 26 27  1  0
 26 28  2  0
 28 29  1  0
 28  2  1  0
 22  7  2  0
 20 12  1  0
M  END
>  <cnnaffinity>  (1) 
-5.03952

>  <filename>  (1) 
c1ccc(Nc2cnn(-c3cccnc3)c2)nc1

$$$$
