
     RDKit          3D

 44 47  0  0  0  0  0  0  0  0999 V2000
    7.0254   -4.9146   25.6244 C   0  0  0  0  0  0  0  0  0  0  0  0
    6.0022   -4.6388   24.7098 C   0  0  0  0  0  0  0  0  0  0  0  0
    6.1961   -3.6987   23.6957 C   0  0  0  0  0  0  0  0  0  0  0  0
    7.4363   -3.0366   23.5744 C   0  0  0  0  0  0  0  0  0  0  0  0
    7.6634   -2.0407   22.5009 C   0  0  0  0  0  0  0  0  0  0  0  0
    6.7022   -1.5733   21.7192 N   0  0  0  0  0  0  0  0  0  0  0  0
    7.3411   -0.6452   20.9674 N   0  0  0  0  0  0  0  0  0  0  0  0
    6.6592    0.0101   19.9013 C   0  0  0  0  0  0  0  0  0  0  0  0
    5.4374    0.6406   20.1520 C   0  0  0  0  0  0  0  0  0  0  0  0
    4.8099    1.3129   19.1010 C   0  0  0  0  0  0  0  0  0  0  0  0
    5.4114    1.3023   17.8376 C   0  0  0  0  0  0  0  0  0  0  0  0
    6.5621    0.6627   17.5767 N   0  0  0  0  0  0  0  0  0  0  0  0
    7.1698    0.0322   18.5892 C   0  0  0  0  0  0  0  0  0  0  0  0
    8.1010   -0.4837   18.3447 H   0  0  0  0  0  0  0  0  0  0  0  0
    4.9478    1.8224   17.0034 H   0  0  0  0  0  0  0  0  0  0  0  0
    3.8731    1.8394   19.2507 H   0  0  0  0  0  0  0  0  0  0  0  0
    5.0119    0.5880   21.1538 H   0  0  0  0  0  0  0  0  0  0  0  0
    8.6350   -0.5471   21.3878 C   0  0  0  0  0  0  0  0  0  0  0  0
    9.5229    0.5714   20.9552 C   0  0  0  0  0  0  0  0  0  0  0  0
    9.0194    1.9822   21.3467 C   0  0  0  0  0  0  0  0  0  0  0  0
    8.8053    2.1865   22.8667 C   0  0  0  0  0  0  0  0  0  0  0  0
   10.0700    1.9419   23.6528 C   0  0  0  0  0  0  0  0  0  0  0  0
   11.1817    2.8154   23.5553 C   0  0  0  0  0  0  0  0  0  0  0  0
   12.3817    2.5245   24.0887 N   0  0  0  0  0  0  0  0  0  0  0  0
   12.4539    1.3557   24.7565 C   0  0  0  0  0  0  0  0  0  0  0  0
   11.3420    0.5151   24.9217 C   0  0  0  0  0  0  0  0  0  0  0  0
   10.1483    0.8089   24.3780 N   0  0  0  0  0  0  0  0  0  0  0  0
   11.3945   -0.4179   25.4803 H   0  0  0  0  0  0  0  0  0  0  0  0
   13.4099    1.0787   25.1830 H   0  0  0  0  0  0  0  0  0  0  0  0
   11.0755    3.7695   23.0381 H   0  0  0  0  0  0  0  0  0  0  0  0
    8.4294    3.2014   23.0587 H   0  0  0  0  0  0  0  0  0  0  0  0
    8.0361    1.4954   23.2277 H   0  0  0  0  0  0  0  0  0  0  0  0
    9.7695    2.7021   20.9994 H   0  0  0  0  0  0  0  0  0  0  0  0
    8.0899    2.2079   20.8062 H   0  0  0  0  0  0  0  0  0  0  0  0
    9.6150    0.5108   19.8677 H   0  0  0  0  0  0  0  0  0  0  0  0
   10.5156    0.3844   21.3736 H   0  0  0  0  0  0  0  0  0  0  0  0
    8.8844   -1.4767   22.2793 N   0  0  0  0  0  0  0  0  0  0  0  0
    8.4515   -3.3023   24.5157 C   0  0  0  0  0  0  0  0  0  0  0  0
    8.2456   -4.2369   25.5316 C   0  0  0  0  0  0  0  0  0  0  0  0
    9.0369   -4.4389   26.2489 H   0  0  0  0  0  0  0  0  0  0  0  0
    9.3917   -2.7564   24.4488 H   0  0  0  0  0  0  0  0  0  0  0  0
    5.3891   -3.4522   23.0065 H   0  0  0  0  0  0  0  0  0  0  0  0
    5.0514   -5.1582   24.7884 H   0  0  0  0  0  0  0  0  0  0  0  0
    6.8738   -5.6545   26.4066 H   0  0  0  0  0  0  0  0  0  0  0  0
  1  2  2  0
  2  3  1  0
  3  4  2  0
  4  5  1  0
  5  6  2  0
  6  7  1  0
  7  8  1  0
  8  9  2  0
  9 10  1  0
 10 11  2  0
 11 12  1  0
 12 13  2  0
 13 14  1  0
 11 15  1  0
 10 16  1  0
  9 17  1  0
  7 18  1  0
 18 19  1  0
 19 20  1  0
 20 21  1  0
 21 22  1  0
 22 23  2  0
 23 24  1  0
 24 25  2  0
 25 26  1  0
 26 27  2  0
 26 28  1  0
 25 29  1  0
 23 30  1  0
 21 31  1  0
 21 32  1  0
 20 33  1  0
 20 34  1  0
 19 35  1  0
 19 36  1  0
 18 37  2  0
  4 38  1  0
 38 39  2  0
 39 40  1  0
 38 41  1  0
  3 42  1  0
  2 43  1  0
  1 44  1  0
 39  1  1  0
 37  5  1  0
 13  8  1  0
 27 22  1  0
M  END
>  <cnnaffinity>  (1) 
-6.12099

>  <filename>  (1) 
c1ccc(-c2nc(CCCc3cnccn3)n(-c3cccnc3)n2)cc1

$$$$
