
     RDKit          3D

 50 53  0  0  0  0  0  0  0  0999 V2000
   11.6838    0.1607   22.9001 C   0  0  0  0  0  0  0  0  0  0  0  0
   10.6628    0.9249   23.4761 C   0  0  0  0  0  0  0  0  0  0  0  0
    9.4661    0.3251   23.8844 C   0  0  0  0  0  0  0  0  0  0  0  0
    9.2994   -1.0620   23.7524 C   0  0  0  0  0  0  0  0  0  0  0  0
    8.0625   -1.6560   24.1460 N   0  0  0  0  0  0  0  0  0  0  0  0
    7.3804   -1.2799   25.2678 N   0  0  0  0  0  0  0  0  0  0  0  0
    6.3293   -2.0730   25.2548 C   0  0  0  0  0  0  0  0  0  0  0  0
    5.2249   -1.9859   26.2845 C   0  0  0  0  0  0  0  0  0  0  0  0
    4.8005   -3.3795   26.8000 C   0  0  0  0  0  0  0  0  0  0  0  0
    3.5981   -3.2813   27.7435 C   0  0  0  0  0  0  0  0  0  0  0  0
    2.5004   -2.5952   27.1630 O   0  0  0  0  0  0  0  0  0  0  0  0
    2.8202   -1.2749   26.7560 C   0  0  0  0  0  0  0  0  0  0  0  0
    3.9593   -1.2697   25.7334 C   0  0  0  0  0  0  0  0  0  0  0  0
    3.6100   -1.8293   24.8584 H   0  0  0  0  0  0  0  0  0  0  0  0
    4.1796   -0.2439   25.4122 H   0  0  0  0  0  0  0  0  0  0  0  0
    1.9095   -0.8604   26.3130 H   0  0  0  0  0  0  0  0  0  0  0  0
    3.0638   -0.6502   27.6337 H   0  0  0  0  0  0  0  0  0  0  0  0
    3.9019   -2.7895   28.6848 H   0  0  0  0  0  0  0  0  0  0  0  0
    3.2295   -4.2793   27.9955 H   0  0  0  0  0  0  0  0  0  0  0  0
    4.5355   -3.9999   25.9347 H   0  0  0  0  0  0  0  0  0  0  0  0
    5.6303   -3.8745   27.3194 H   0  0  0  0  0  0  0  0  0  0  0  0
    5.6329   -1.3948   27.1145 H   0  0  0  0  0  0  0  0  0  0  0  0
    6.2708   -2.9222   24.1902 N   0  0  0  0  0  0  0  0  0  0  0  0
    7.3488   -2.6113   23.4943 C   0  0  0  0  0  0  0  0  0  0  0  0
    7.5866   -3.0696   22.0917 C   0  0  0  0  0  0  0  0  0  0  0  0
    6.8451   -2.1896   21.0640 C   0  0  0  0  0  0  0  0  0  0  0  0
    7.3540   -0.7413   20.9777 C   0  0  0  0  0  0  0  0  0  0  0  0
    6.6682    0.0434   19.8791 C   0  0  0  0  0  0  0  0  0  0  0  0
    5.4500    0.7005   20.1124 C   0  0  0  0  0  0  0  0  0  0  0  0
    4.8058    1.3414   19.0537 C   0  0  0  0  0  0  0  0  0  0  0  0
    5.4051    1.3194   17.7919 C   0  0  0  0  0  0  0  0  0  0  0  0
    6.5698    0.7068   17.5389 N   0  0  0  0  0  0  0  0  0  0  0  0
    7.1756    0.0920   18.5665 C   0  0  0  0  0  0  0  0  0  0  0  0
    8.1255   -0.3876   18.3221 H   0  0  0  0  0  0  0  0  0  0  0  0
    4.9225    1.8110   16.9502 H   0  0  0  0  0  0  0  0  0  0  0  0
    3.8612    1.8532   19.1932 H   0  0  0  0  0  0  0  0  0  0  0  0
    5.0108    0.7220   21.1128 H   0  0  0  0  0  0  0  0  0  0  0  0
    7.1808   -0.2376   21.9379 H   0  0  0  0  0  0  0  0  0  0  0  0
    8.4413   -0.7458   20.8202 H   0  0  0  0  0  0  0  0  0  0  0  0
    6.9259   -2.6644   20.0838 H   0  0  0  0  0  0  0  0  0  0  0  0
    5.7786   -2.1794   21.3162 H   0  0  0  0  0  0  0  0  0  0  0  0
    8.6505   -3.0813   21.8475 H   0  0  0  0  0  0  0  0  0  0  0  0
    7.2341   -4.1038   22.0341 H   0  0  0  0  0  0  0  0  0  0  0  0
   10.3450   -1.8447   23.2268 C   0  0  0  0  0  0  0  0  0  0  0  0
   11.5046   -1.2181   22.7549 C   0  0  0  0  0  0  0  0  0  0  0  0
   12.2542   -1.8246   22.2536 H   0  0  0  0  0  0  0  0  0  0  0  0
   10.2634   -2.9296   23.1907 H   0  0  0  0  0  0  0  0  0  0  0  0
    8.6526    0.9167   24.2971 H   0  0  0  0  0  0  0  0  0  0  0  0
   10.7971    1.9932   23.6220 H   0  0  0  0  0  0  0  0  0  0  0  0
   12.5976    0.6405   22.5495 H   0  0  0  0  0  0  0  0  0  0  0  0
  1  2  2  0
  2  3  1  0
  3  4  2  0
  4  5  1  0
  5  6  1  0
  6  7  2  0
  7  8  1  0
  8  9  1  0
  9 10  1  0
 10 11  1  0
 11 12  1  0
 12 13  1  0
 13 14  1  0
 13 15  1  0
 12 16  1  0
 12 17  1  0
 10 18  1  0
 10 19  1  0
  9 20  1  0
  9 21  1  0
  8 22  1  0
  7 23  1  0
 23 24  2  0
 24 25  1  0
 25 26  1  0
 26 27  1  0
 27 28  1  0
 28 29  2  0
 29 30  1  0
 30 31  2  0
 31 32  1  0
 32 33  2  0
 33 34  1  0
 31 35  1  0
 30 36  1  0
 29 37  1  0
 27 38  1  0
 27 39  1  0
 26 40  1  0
 26 41  1  0
 25 42  1  0
 25 43  1  0
  4 44  1  0
 44 45  2  0
 45 46  1  0
 44 47  1  0
  3 48  1  0
  2 49  1  0
  1 50  1  0
 45  1  1  0
 24  5  1  0
 33 28  1  0
 13  8  1  0
M  END
>  <cnnaffinity>  (1) 
-6.06354

>  <filename>  (1) 
c1ccc(-n2nc(C3CCOCC3)nc2CCCc2cccnc2)cc1

$$$$
