
     RDKit          3D

 47 51  0  0  0  0  0  0  0  0999 V2000
   13.9517   -1.1135   21.5940 C   0  0  0  0  0  0  0  0  0  0  0  0
   12.9820   -1.8850   20.9665 C   0  0  0  0  0  0  0  0  0  0  0  0
   11.6376   -1.5904   21.1602 C   0  0  0  0  0  0  0  0  0  0  0  0
   11.2553   -0.4374   21.8636 C   0  0  0  0  0  0  0  0  0  0  0  0
    9.8200   -0.1106   21.9516 C   0  0  0  0  0  0  0  0  0  0  0  0
    8.8720   -0.9450   21.5496 N   0  0  0  0  0  0  0  0  0  0  0  0
    7.7285   -0.2648   21.7650 N   0  0  0  0  0  0  0  0  0  0  0  0
    6.4873   -0.7776   21.1785 C   0  0  0  0  0  0  0  0  0  0  0  0
    6.0535   -0.0036   19.9518 C   0  0  0  0  0  0  0  0  0  0  0  0
    4.8890    0.7692   19.9200 C   0  0  0  0  0  0  0  0  0  0  0  0
    4.6259    1.5476   18.7900 C   0  0  0  0  0  0  0  0  0  0  0  0
    5.5255    1.5020   17.7207 C   0  0  0  0  0  0  0  0  0  0  0  0
    6.6231    0.7303   17.7116 N   0  0  0  0  0  0  0  0  0  0  0  0
    6.8683    0.0010   18.8055 C   0  0  0  0  0  0  0  0  0  0  0  0
    7.7562   -0.6310   18.7685 H   0  0  0  0  0  0  0  0  0  0  0  0
    5.3584    2.1033   16.8300 H   0  0  0  0  0  0  0  0  0  0  0  0
    3.7590    2.1955   18.7331 H   0  0  0  0  0  0  0  0  0  0  0  0
    4.2014    0.7616   20.7709 H   0  0  0  0  0  0  0  0  0  0  0  0
    6.6999   -1.8242   20.9306 H   0  0  0  0  0  0  0  0  0  0  0  0
    5.7251   -0.7559   21.9520 H   0  0  0  0  0  0  0  0  0  0  0  0
    8.0420    0.9567   22.2598 C   0  0  0  0  0  0  0  0  0  0  0  0
    7.0678    1.9376   22.8319 C   0  0  0  0  0  0  0  0  0  0  0  0
    6.5689    1.4281   24.1111 N   0  0  0  0  0  0  0  0  0  0  0  0
    7.2521    1.4061   25.2879 C   0  0  0  0  0  0  0  0  0  0  0  0
    6.8557    0.2819   25.9845 C   0  0  0  0  0  0  0  0  0  0  0  0
    7.4603   -0.2947   27.2082 C   0  0  0  0  0  0  0  0  0  0  0  0
    8.9650   -0.4144   27.2801 C   0  0  0  0  0  0  0  0  0  0  0  0
    8.2416    0.5660   28.1545 C   0  0  0  0  0  0  0  0  0  0  0  0
    8.1915    0.3652   29.2182 H   0  0  0  0  0  0  0  0  0  0  0  0
    8.3194    1.6216   27.9100 H   0  0  0  0  0  0  0  0  0  0  0  0
    9.3921   -1.3107   27.7171 H   0  0  0  0  0  0  0  0  0  0  0  0
    9.5181   -0.0267   26.4276 H   0  0  0  0  0  0  0  0  0  0  0  0
    6.8915   -1.0978   27.6656 H   0  0  0  0  0  0  0  0  0  0  0  0
    5.8839   -0.2976   25.1383 C   0  0  0  0  0  0  0  0  0  0  0  0
    5.7402    0.3817   24.0087 N   0  0  0  0  0  0  0  0  0  0  0  0
    5.3316   -1.2110   25.3067 H   0  0  0  0  0  0  0  0  0  0  0  0
    7.9671    2.1922   25.5075 H   0  0  0  0  0  0  0  0  0  0  0  0
    6.2083    2.0708   22.1779 H   0  0  0  0  0  0  0  0  0  0  0  0
    7.5745    2.8892   22.9941 H   0  0  0  0  0  0  0  0  0  0  0  0
    9.3451    1.0819   22.3939 N   0  0  0  0  0  0  0  0  0  0  0  0
   12.2468    0.3964   22.4109 C   0  0  0  0  0  0  0  0  0  0  0  0
   13.5935    0.0400   22.3054 C   0  0  0  0  0  0  0  0  0  0  0  0
   14.3461    0.6746   22.7615 H   0  0  0  0  0  0  0  0  0  0  0  0
   11.9608    1.3221   22.9069 H   0  0  0  0  0  0  0  0  0  0  0  0
   10.8623   -2.2295   20.7578 H   0  0  0  0  0  0  0  0  0  0  0  0
   13.2843   -2.6887   20.3010 H   0  0  0  0  0  0  0  0  0  0  0  0
   14.9718   -1.4393   21.4972 H   0  0  0  0  0  0  0  0  0  0  0  0
  1  2  2  0
  2  3  1  0
  3  4  2  0
  4  5  1  0
  5  6  2  0
  6  7  1  0
  7  8  1  0
  8  9  1  0
  9 10  2  0
 10 11  1  0
 11 12  2  0
 12 13  1  0
 13 14  2  0
 14 15  1  0
 12 16  1  0
 11 17  1  0
 10 18  1  0
  8 19  1  0
  8 20  1  0
  7 21  1  0
 21 22  1  0
 22 23  1  0
 23 24  1  0
 24 25  2  0
 25 26  1  0
 26 27  1  0
 27 28  1  0
 28 29  1  0
 28 30  1  0
 27 31  1  0
 27 32  1  0
 26 33  1  0
 25 34  1  0
 34 35  2  0
 34 36  1  0
 24 37  1  0
 22 38  1  0
 22 39  1  0
 21 40  2  0
  4 41  1  0
 41 42  2  0
 42 43  1  0
 41 44  1  0
  3 45  1  0
  2 46  1  0
  1 47  1  0
 42  1  1  0
 40  5  1  0
 14  9  1  0
 35 23  1  0
 28 26  1  0
M  END
>  <cnnaffinity>  (1) 
-6.35762

>  <filename>  (1) 
c1ccc(-c2nc(Cn3cc(C4CC4)cn3)n(Cc3cccnc3)n2)cc1

$$$$
