
     RDKit          3D

 26 28  0  0  0  0  0  0  0  0999 V2000
    9.7534   -3.3339   26.5199 H   0  0  0  0  0  0  0  0  0  0  0  0
    8.9951   -2.6376   26.1694 C   0  0  0  0  0  0  0  0  0  0  0  0
    8.9353   -2.4518   24.8550 N   0  0  0  0  0  0  0  0  0  0  0  0
    8.0103   -1.5967   24.3633 C   0  0  0  0  0  0  0  0  0  0  0  0
    7.9608   -1.4030   22.8677 C   0  0  0  0  0  0  0  0  0  0  0  0
    7.0684   -0.5654   22.2576 N   0  0  0  0  0  0  0  0  0  0  0  0
    7.3418   -0.6711   20.9755 C   0  0  0  0  0  0  0  0  0  0  0  0
    6.6469    0.0156   19.8928 C   0  0  0  0  0  0  0  0  0  0  0  0
    7.1714    0.0617   18.5953 C   0  0  0  0  0  0  0  0  0  0  0  0
    8.1218   -0.4176   18.3616 H   0  0  0  0  0  0  0  0  0  0  0  0
    6.5691    0.6771   17.5784 N   0  0  0  0  0  0  0  0  0  0  0  0
    5.4036    1.2914   17.8384 C   0  0  0  0  0  0  0  0  0  0  0  0
    4.9184    1.7766   16.9980 H   0  0  0  0  0  0  0  0  0  0  0  0
    4.8006    1.3134   19.1027 C   0  0  0  0  0  0  0  0  0  0  0  0
    3.8692    1.8473   19.2577 H   0  0  0  0  0  0  0  0  0  0  0  0
    5.4280    0.6609   20.1551 C   0  0  0  0  0  0  0  0  0  0  0  0
    5.0081    0.6336   21.1667 H   0  0  0  0  0  0  0  0  0  0  0  0
    8.3593   -1.5387   20.8288 N   0  0  0  0  0  0  0  0  0  0  0  0
    8.7885   -1.8680   19.9848 H   0  0  0  0  0  0  0  0  0  0  0  0
    8.7665   -2.0247   22.0079 N   0  0  0  0  0  0  0  0  0  0  0  0
    7.1110   -0.9018   25.2142 C   0  0  0  0  0  0  0  0  0  0  0  0
    6.3718   -0.2194   24.8034 H   0  0  0  0  0  0  0  0  0  0  0  0
    7.1857   -1.1054   26.5885 C   0  0  0  0  0  0  0  0  0  0  0  0
    6.5167   -0.5929   27.2808 H   0  0  0  0  0  0  0  0  0  0  0  0
    8.1498   -1.9901   27.0663 C   0  0  0  0  0  0  0  0  0  0  0  0
    8.2739   -2.1857   28.1055 H   0  0  0  0  0  0  0  0  0  0  0  0
  1  2  1  0
  2  3  2  0
  3  4  1  0
  4  5  1  0
  5  6  1  0
  6  7  2  0
  7  8  1  0
  8  9  2  0
  9 10  1  0
  9 11  1  0
 11 12  2  0
 12 13  1  0
 12 14  1  0
 14 15  1  0
 14 16  2  0
 16 17  1  0
  7 18  1  0
 18 19  1  0
 18 20  1  0
  4 21  2  0
 21 22  1  0
 21 23  1  0
 23 24  1  0
 23 25  2  0
 25 26  1  0
 25  2  1  0
 20  5  2  0
 16  8  1  0
M  END
>  <cnnaffinity>  (1) 
-4.71512

>  <filename>  (1) 
c1ccc(-c2n[nH]c(-c3cccnc3)n2)nc1

$$$$
