
     RDKit          3D

 32 34  0  0  0  0  0  0  0  0999 V2000
    5.0228    1.8411   16.8434 H   0  0  0  0  0  0  0  0  0  0  0  0
    5.4276    1.3428   17.7211 C   0  0  0  0  0  0  0  0  0  0  0  0
    6.5851    0.6899   17.5390 N   0  0  0  0  0  0  0  0  0  0  0  0
    7.1058    0.0602   18.5938 C   0  0  0  0  0  0  0  0  0  0  0  0
    8.0428   -0.4691   18.4354 H   0  0  0  0  0  0  0  0  0  0  0  0
    6.5067    0.0334   19.8627 C   0  0  0  0  0  0  0  0  0  0  0  0
    7.2044   -0.7391   20.8870 C   0  0  0  0  0  0  0  0  0  0  0  0
    8.4507   -1.1708   20.7707 N   0  0  0  0  0  0  0  0  0  0  0  0
    8.6862   -1.8043   21.9529 C   0  0  0  0  0  0  0  0  0  0  0  0
   10.0405   -2.3859   22.3452 C   0  0  0  0  0  0  0  0  0  0  0  0
    9.8723   -3.4127   22.6947 H   0  0  0  0  0  0  0  0  0  0  0  0
   10.6545   -2.4269   21.4356 H   0  0  0  0  0  0  0  0  0  0  0  0
   10.8306   -1.6900   23.3801 N   0  0  0  0  0  0  0  0  0  0  0  0
   10.5724   -1.9073   24.3363 H   0  0  0  0  0  0  0  0  0  0  0  0
   11.1959   -0.3408   23.2432 C   0  0  0  0  0  0  0  0  0  0  0  0
   11.5002    0.4080   24.4017 C   0  0  0  0  0  0  0  0  0  0  0  0
   11.4592   -0.0650   25.3788 H   0  0  0  0  0  0  0  0  0  0  0  0
   11.8964    1.7459   24.3022 C   0  0  0  0  0  0  0  0  0  0  0  0
   12.0804    2.3263   25.2022 H   0  0  0  0  0  0  0  0  0  0  0  0
   12.0635    2.3413   23.0491 C   0  0  0  0  0  0  0  0  0  0  0  0
   12.4099    3.3669   22.9654 H   0  0  0  0  0  0  0  0  0  0  0  0
   11.7854    1.6062   21.8946 C   0  0  0  0  0  0  0  0  0  0  0  0
   11.9361    2.0651   20.9169 H   0  0  0  0  0  0  0  0  0  0  0  0
   11.3298    0.2849   21.9868 C   0  0  0  0  0  0  0  0  0  0  0  0
   11.0488   -0.2426   21.0809 H   0  0  0  0  0  0  0  0  0  0  0  0
    7.6431   -1.8403   22.7655 N   0  0  0  0  0  0  0  0  0  0  0  0
    6.7110   -1.1426   22.0729 N   0  0  0  0  0  0  0  0  0  0  0  0
    5.7843   -1.0251   22.4565 H   0  0  0  0  0  0  0  0  0  0  0  0
    5.3070    0.7394   20.0476 C   0  0  0  0  0  0  0  0  0  0  0  0
    4.8177    0.7917   21.0223 H   0  0  0  0  0  0  0  0  0  0  0  0
    4.7569    1.3948   18.9479 C   0  0  0  0  0  0  0  0  0  0  0  0
    3.8320    1.9552   19.0223 H   0  0  0  0  0  0  0  0  0  0  0  0
  1  2  1  0
  2  3  2  0
  3  4  1  0
  4  5  1  0
  4  6  2  0
  6  7  1  0
  7  8  2  0
  8  9  1  0
  9 10  1  0
 10 11  1  0
 10 12  1  0
 10 13  1  0
 13 14  1  0
 13 15  1  0
 15 16  2  0
 16 17  1  0
 16 18  1  0
 18 19  1  0
 18 20  2  0
 20 21  1  0
 20 22  1  0
 22 23  1  0
 22 24  2  0
 24 25  1  0
  9 26  2  0
 26 27  1  0
 27 28  1  0
  6 29  1  0
 29 30  1  0
 29 31  2  0
 31 32  1  0
 31  2  1  0
 27  7  1  0
 24 15  1  0
M  END
>  <cnnaffinity>  (1) 
-4.88143

>  <filename>  (1) 
c1ccc(NCc2n[nH]c(-c3cccnc3)n2)cc1

$$$$
