
     RDKit          3D

 40 43  0  0  0  0  0  0  0  0999 V2000
   13.9224   -0.8099   22.2338 C   0  0  0  0  0  0  0  0  0  0  0  0
   13.4773    0.3955   22.7775 C   0  0  0  0  0  0  0  0  0  0  0  0
   12.1231    0.7295   22.7144 C   0  0  0  0  0  0  0  0  0  0  0  0
   11.2009   -0.1489   22.1094 C   0  0  0  0  0  0  0  0  0  0  0  0
    9.7513    0.1360   22.1564 C   0  0  0  0  0  0  0  0  0  0  0  0
    8.8459   -0.6687   21.6191 N   0  0  0  0  0  0  0  0  0  0  0  0
    7.6742   -0.0826   21.9345 N   0  0  0  0  0  0  0  0  0  0  0  0
    6.4405   -0.5489   21.3164 C   0  0  0  0  0  0  0  0  0  0  0  0
    6.0911    0.1525   20.0169 C   0  0  0  0  0  0  0  0  0  0  0  0
    4.9130    0.8894   19.8721 C   0  0  0  0  0  0  0  0  0  0  0  0
    4.7002    1.5961   18.6864 C   0  0  0  0  0  0  0  0  0  0  0  0
    5.6656    1.5179   17.6811 C   0  0  0  0  0  0  0  0  0  0  0  0
    6.7800    0.7780   17.7768 N   0  0  0  0  0  0  0  0  0  0  0  0
    6.9759    0.1181   18.9242 C   0  0  0  0  0  0  0  0  0  0  0  0
    7.8857   -0.4777   18.9884 H   0  0  0  0  0  0  0  0  0  0  0  0
    5.5433    2.0699   16.7522 H   0  0  0  0  0  0  0  0  0  0  0  0
    3.8114    2.1976   18.5311 H   0  0  0  0  0  0  0  0  0  0  0  0
    4.1777    0.9253   20.6783 H   0  0  0  0  0  0  0  0  0  0  0  0
    6.5498   -1.6279   21.1778 H   0  0  0  0  0  0  0  0  0  0  0  0
    5.6484   -0.3978   22.0479 H   0  0  0  0  0  0  0  0  0  0  0  0
    7.9220    1.0543   22.6215 C   0  0  0  0  0  0  0  0  0  0  0  0
    6.8458    1.9099   23.2053 C   0  0  0  0  0  0  0  0  0  0  0  0
    6.4021    1.4124   24.4988 N   0  0  0  0  0  0  0  0  0  0  0  0
    5.2550    0.7682   24.8305 C   0  0  0  0  0  0  0  0  0  0  0  0
    5.3602    0.4179   26.1591 C   0  0  0  0  0  0  0  0  0  0  0  0
    6.6311    0.8997   26.5393 C   0  0  0  0  0  0  0  0  0  0  0  0
    7.2456    1.4998   25.5321 N   0  0  0  0  0  0  0  0  0  0  0  0
    7.1203    0.8310   27.5049 H   0  0  0  0  0  0  0  0  0  0  0  0
    4.6367   -0.1041   26.7698 H   0  0  0  0  0  0  0  0  0  0  0  0
    4.4604    0.6422   24.1109 H   0  0  0  0  0  0  0  0  0  0  0  0
    7.2587    2.9068   23.3498 H   0  0  0  0  0  0  0  0  0  0  0  0
    5.9852    1.9863   22.5348 H   0  0  0  0  0  0  0  0  0  0  0  0
    9.2170    1.2276   22.7671 N   0  0  0  0  0  0  0  0  0  0  0  0
   11.6730   -1.3327   21.5078 C   0  0  0  0  0  0  0  0  0  0  0  0
   13.0261   -1.6511   21.5713 C   0  0  0  0  0  0  0  0  0  0  0  0
   13.3992   -2.5456   21.0924 H   0  0  0  0  0  0  0  0  0  0  0  0
   10.9776   -1.9983   20.9995 H   0  0  0  0  0  0  0  0  0  0  0  0
   11.7682    1.6627   23.1431 H   0  0  0  0  0  0  0  0  0  0  0  0
   14.1900    1.0808   23.2276 H   0  0  0  0  0  0  0  0  0  0  0  0
   14.9570   -1.1082   22.3442 H   0  0  0  0  0  0  0  0  0  0  0  0
  1  2  2  0
  2  3  1  0
  3  4  2  0
  4  5  1  0
  5  6  2  0
  6  7  1  0
  7  8  1  0
  8  9  1  0
  9 10  2  0
 10 11  1  0
 11 12  2  0
 12 13  1  0
 13 14  2  0
 14 15  1  0
 12 16  1  0
 11 17  1  0
 10 18  1  0
  8 19  1  0
  8 20  1  0
  7 21  1  0
 21 22  1  0
 22 23  1  0
 23 24  1  0
 24 25  2  0
 25 26  1  0
 26 27  2  0
 26 28  1  0
 25 29  1  0
 24 30  1  0
 22 31  1  0
 22 32  1  0
 21 33  2  0
  4 34  1  0
 34 35  2  0
 35 36  1  0
 34 37  1  0
  3 38  1  0
  2 39  1  0
  1 40  1  0
 35  1  1  0
 33  5  1  0
 14  9  1  0
 27 23  1  0
M  END
>  <cnnaffinity>  (1) 
-5.87376

>  <filename>  (1) 
c1ccc(-c2nc(Cn3cccn3)n(Cc3cccnc3)n2)cc1

$$$$
