
     RDKit          3D

 32 34  0  0  0  0  0  0  0  0999 V2000
    5.7274   -0.9997   25.5912 H   0  0  0  0  0  0  0  0  0  0  0  0
    6.7851   -1.2304   25.4898 C   0  0  0  0  0  0  0  0  0  0  0  0
    7.1601   -1.7512   24.3085 N   0  0  0  0  0  0  0  0  0  0  0  0
    8.4521   -2.0727   24.1745 C   0  0  0  0  0  0  0  0  0  0  0  0
    8.9044   -2.6486   22.8488 C   0  0  0  0  0  0  0  0  0  0  0  0
    8.0554   -3.1398   22.3669 H   0  0  0  0  0  0  0  0  0  0  0  0
    9.6846   -3.4042   22.9978 H   0  0  0  0  0  0  0  0  0  0  0  0
    9.4093   -1.5677   21.9522 C   0  0  0  0  0  0  0  0  0  0  0  0
    8.7053   -0.6932   21.1486 C   0  0  0  0  0  0  0  0  0  0  0  0
    7.3245   -0.7275   20.9278 N   0  0  0  0  0  0  0  0  0  0  0  0
    6.7829   -1.1069   21.7005 H   0  0  0  0  0  0  0  0  0  0  0  0
    6.6613   -0.0223   19.9156 C   0  0  0  0  0  0  0  0  0  0  0  0
    7.1706    0.0567   18.5922 C   0  0  0  0  0  0  0  0  0  0  0  0
    8.1197   -0.4289   18.3754 H   0  0  0  0  0  0  0  0  0  0  0  0
    6.5608    0.6807   17.5727 N   0  0  0  0  0  0  0  0  0  0  0  0
    5.3967    1.2965   17.8379 C   0  0  0  0  0  0  0  0  0  0  0  0
    4.9152    1.7874   16.9948 H   0  0  0  0  0  0  0  0  0  0  0  0
    4.8136    1.3035   19.1096 C   0  0  0  0  0  0  0  0  0  0  0  0
    3.8844    1.8358   19.2646 H   0  0  0  0  0  0  0  0  0  0  0  0
    5.4417    0.6275   20.1654 C   0  0  0  0  0  0  0  0  0  0  0  0
    5.0179    0.6230   21.1704 H   0  0  0  0  0  0  0  0  0  0  0  0
    9.6829    0.2084   20.6680 C   0  0  0  0  0  0  0  0  0  0  0  0
    9.5170    1.0285   19.9923 H   0  0  0  0  0  0  0  0  0  0  0  0
   10.8955   -0.0628   21.1390 N   0  0  0  0  0  0  0  0  0  0  0  0
   10.6980   -1.1431   21.9099 N   0  0  0  0  0  0  0  0  0  0  0  0
   11.4873   -1.5207   22.4090 H   0  0  0  0  0  0  0  0  0  0  0  0
    9.4023   -1.8349   25.1775 C   0  0  0  0  0  0  0  0  0  0  0  0
   10.4293   -2.0847   24.9563 H   0  0  0  0  0  0  0  0  0  0  0  0
    9.0126   -1.2828   26.3971 C   0  0  0  0  0  0  0  0  0  0  0  0
    9.7345   -1.0932   27.1964 H   0  0  0  0  0  0  0  0  0  0  0  0
    7.6587   -0.9800   26.5541 C   0  0  0  0  0  0  0  0  0  0  0  0
    7.2838   -0.5487   27.4749 H   0  0  0  0  0  0  0  0  0  0  0  0
  1  2  1  0
  2  3  2  0
  3  4  1  0
  4  5  1  0
  5  6  1  0
  5  7  1  0
  5  8  1  0
  8  9  2  0
  9 10  1  0
 10 11  1  0
 10 12  1  0
 12 13  2  0
 13 14  1  0
 13 15  1  0
 15 16  2  0
 16 17  1  0
 16 18  1  0
 18 19  1  0
 18 20  2  0
 20 21  1  0
  9 22  1  0
 22 23  1  0
 22 24  2  0
 24 25  1  0
 25 26  1  0
  4 27  2  0
 27 28  1  0
 27 29  1  0
 29 30  1  0
 29 31  2  0
 31 32  1  0
 31  2  1  0
 25  8  1  0
 20 12  1  0
M  END
>  <cnnaffinity>  (1) 
-5.59641

>  <filename>  (1) 
c1ccc(Cc2[nH]ncc2Nc2cccnc2)nc1

$$$$
