
     RDKit          3D

 37 40  0  0  0  0  0  0  0  0999 V2000
    6.5929    6.3452   22.8945 C   0  0  0  0  0  0  0  0  0  0  0  0
    5.9054    5.6125   21.9220 C   0  0  0  0  0  0  0  0  0  0  0  0
    6.4359    4.3811   21.5352 C   0  0  0  0  0  0  0  0  0  0  0  0
    7.6460    3.9599   22.0998 C   0  0  0  0  0  0  0  0  0  0  0  0
    8.3809    2.4527   21.5010 S   0  0  0  0  0  0  0  0  0  0  0  0
    7.6206    1.2866   22.6852 C   0  0  0  0  0  0  0  0  0  0  0  0
    7.7927   -0.1038   22.1929 C   0  0  0  0  0  0  0  0  0  0  0  0
    8.3894   -1.0422   22.8846 N   0  0  0  0  0  0  0  0  0  0  0  0
    8.3545   -2.1034   22.0423 C   0  0  0  0  0  0  0  0  0  0  0  0
    8.9632   -3.3930   22.4318 C   0  0  0  0  0  0  0  0  0  0  0  0
    8.2588   -4.7169   22.2725 C   0  0  0  0  0  0  0  0  0  0  0  0
    8.5401   -4.1893   23.6448 C   0  0  0  0  0  0  0  0  0  0  0  0
    9.3449   -4.6484   24.2161 H   0  0  0  0  0  0  0  0  0  0  0  0
    7.6985   -3.8596   24.2516 H   0  0  0  0  0  0  0  0  0  0  0  0
    7.2233   -4.6892   21.9363 H   0  0  0  0  0  0  0  0  0  0  0  0
    8.8157   -5.5731   21.8974 H   0  0  0  0  0  0  0  0  0  0  0  0
   10.0418   -3.3367   22.2927 H   0  0  0  0  0  0  0  0  0  0  0  0
    7.7907   -1.8724   20.8707 N   0  0  0  0  0  0  0  0  0  0  0  0
    7.3942   -0.5756   20.9748 N   0  0  0  0  0  0  0  0  0  0  0  0
    6.6690    0.0534   19.9123 C   0  0  0  0  0  0  0  0  0  0  0  0
    5.4593    0.7246   20.1356 C   0  0  0  0  0  0  0  0  0  0  0  0
    4.8376    1.3519   19.0529 C   0  0  0  0  0  0  0  0  0  0  0  0
    5.4436    1.2961   17.7943 C   0  0  0  0  0  0  0  0  0  0  0  0
    6.5843    0.6252   17.5647 N   0  0  0  0  0  0  0  0  0  0  0  0
    7.1696    0.0083   18.5971 C   0  0  0  0  0  0  0  0  0  0  0  0
    8.0737   -0.5508   18.3725 H   0  0  0  0  0  0  0  0  0  0  0  0
    4.9890    1.7923   16.9394 H   0  0  0  0  0  0  0  0  0  0  0  0
    3.8911    1.8692   19.1675 H   0  0  0  0  0  0  0  0  0  0  0  0
    4.9887    0.7368   21.1196 H   0  0  0  0  0  0  0  0  0  0  0  0
    6.5574    1.5002   22.8145 H   0  0  0  0  0  0  0  0  0  0  0  0
    8.1083    1.3693   23.6600 H   0  0  0  0  0  0  0  0  0  0  0  0
    8.2707    4.6188   23.0826 N   0  0  0  0  0  0  0  0  0  0  0  0
    7.7536    5.8007   23.4482 C   0  0  0  0  0  0  0  0  0  0  0  0
    8.2900    6.3389   24.2320 H   0  0  0  0  0  0  0  0  0  0  0  0
    5.9354    3.7556   20.8038 H   0  0  0  0  0  0  0  0  0  0  0  0
    4.9794    5.9742   21.4719 H   0  0  0  0  0  0  0  0  0  0  0  0
    6.2510    7.3265   23.2023 H   0  0  0  0  0  0  0  0  0  0  0  0
  1  2  2  0
  2  3  1  0
  3  4  2  0
  4  5  1  0
  5  6  1  0
  6  7  1  0
  7  8  2  0
  8  9  1  0
  9 10  1  0
 10 11  1  0
 11 12  1  0
 12 13  1  0
 12 14  1  0
 11 15  1  0
 11 16  1  0
 10 17  1  0
  9 18  2  0
 18 19  1  0
 19 20  1  0
 20 21  2  0
 21 22  1  0
 22 23  2  0
 23 24  1  0
 24 25  2  0
 25 26  1  0
 23 27  1  0
 22 28  1  0
 21 29  1  0
  6 30  1  0
  6 31  1  0
  4 32  1  0
 32 33  2  0
 33 34  1  0
  3 35  1  0
  2 36  1  0
  1 37  1  0
 33  1  1  0
 19  7  1  0
 25 20  1  0
 12 10  1  0
M  END
>  <cnnaffinity>  (1) 
-5.14166

>  <filename>  (1) 
c1ccc(SCc2nc(C3CC3)nn2-c2cccnc2)nc1

$$$$
