
     RDKit          3D

 27 29  0  0  0  0  0  0  0  0999 V2000
    8.8414   -4.4097   26.4863 H   0  0  0  0  0  0  0  0  0  0  0  0
    7.9946   -4.0209   25.9312 C   0  0  0  0  0  0  0  0  0  0  0  0
    8.2884   -3.2987   24.8473 N   0  0  0  0  0  0  0  0  0  0  0  0
    7.2668   -2.7938   24.1283 C   0  0  0  0  0  0  0  0  0  0  0  0
    7.6003   -1.9959   22.9229 C   0  0  0  0  0  0  0  0  0  0  0  0
    9.2457   -1.6755   22.4594 S   0  0  0  0  0  0  0  0  0  0  0  0
    8.7463   -0.7811   21.0825 C   0  0  0  0  0  0  0  0  0  0  0  0
    9.4587   -0.3091   20.4204 H   0  0  0  0  0  0  0  0  0  0  0  0
    7.3887   -0.7044   20.9741 C   0  0  0  0  0  0  0  0  0  0  0  0
    6.6624    0.0173   19.9000 C   0  0  0  0  0  0  0  0  0  0  0  0
    7.1711    0.0735   18.5903 C   0  0  0  0  0  0  0  0  0  0  0  0
    8.1105   -0.4259   18.3610 H   0  0  0  0  0  0  0  0  0  0  0  0
    6.5610    0.6806   17.5659 N   0  0  0  0  0  0  0  0  0  0  0  0
    5.3986    1.2961   17.8317 C   0  0  0  0  0  0  0  0  0  0  0  0
    4.9135    1.7831   16.9917 H   0  0  0  0  0  0  0  0  0  0  0  0
    4.8021    1.3154   19.1000 C   0  0  0  0  0  0  0  0  0  0  0  0
    3.8692    1.8464   19.2566 H   0  0  0  0  0  0  0  0  0  0  0  0
    5.4362    0.6538   20.1483 C   0  0  0  0  0  0  0  0  0  0  0  0
    5.0163    0.6376   21.1596 H   0  0  0  0  0  0  0  0  0  0  0  0
    6.7443   -1.4113   22.0283 C   0  0  0  0  0  0  0  0  0  0  0  0
    5.6624   -1.4816   22.0228 H   0  0  0  0  0  0  0  0  0  0  0  0
    5.9249   -3.0201   24.4967 C   0  0  0  0  0  0  0  0  0  0  0  0
    5.1194   -2.6134   23.9048 H   0  0  0  0  0  0  0  0  0  0  0  0
    5.6274   -3.7741   25.6298 C   0  0  0  0  0  0  0  0  0  0  0  0
    4.5935   -3.9548   25.9302 H   0  0  0  0  0  0  0  0  0  0  0  0
    6.6919   -4.2899   26.3682 C   0  0  0  0  0  0  0  0  0  0  0  0
    6.5231   -4.8850   27.2568 H   0  0  0  0  0  0  0  0  0  0  0  0
  1  2  1  0
  2  3  2  0
  3  4  1  0
  4  5  1  0
  5  6  1  0
  6  7  1  0
  7  8  1  0
  7  9  2  0
  9 10  1  0
 10 11  2  0
 11 12  1  0
 11 13  1  0
 13 14  2  0
 14 15  1  0
 14 16  1  0
 16 17  1  0
 16 18  2  0
 18 19  1  0
  9 20  1  0
 20 21  1  0
  4 22  2  0
 22 23  1  0
 22 24  1  0
 24 25  1  0
 24 26  2  0
 26 27  1  0
 26  2  1  0
 20  5  2  0
 18 10  1  0
M  END
>  <cnnaffinity>  (1) 
-5.03314

>  <filename>  (1) 
c1ccc(-c2cc(-c3cccnc3)cs2)nc1

$$$$
