
     RDKit          3D

 45 49  0  0  0  0  0  0  0  0999 V2000
    7.7237    5.1241   25.3197 C   0  0  0  0  0  0  0  0  0  0  0  0
    7.7480    5.3109   23.9359 C   0  0  0  0  0  0  0  0  0  0  0  0
    8.1730    4.2843   23.0839 C   0  0  0  0  0  0  0  0  0  0  0  0
    8.5754    3.0584   23.6338 C   0  0  0  0  0  0  0  0  0  0  0  0
    9.0166    1.9930   22.9191 O   0  0  0  0  0  0  0  0  0  0  0  0
    9.0429    2.0500   21.5038 C   0  0  0  0  0  0  0  0  0  0  0  0
    9.5168    0.6818   21.0274 C   0  0  0  0  0  0  0  0  0  0  0  0
    8.6185   -0.4177   21.4722 C   0  0  0  0  0  0  0  0  0  0  0  0
    8.8543   -1.2639   22.4535 N   0  0  0  0  0  0  0  0  0  0  0  0
    7.6927   -1.9624   22.5353 C   0  0  0  0  0  0  0  0  0  0  0  0
    7.3378   -2.9650   23.5744 C   0  0  0  0  0  0  0  0  0  0  0  0
    7.0279   -4.3459   23.1134 C   0  0  0  0  0  0  0  0  0  0  0  0
    8.2042   -4.1317   24.1122 C   0  0  0  0  0  0  0  0  0  0  0  0
    8.7776   -5.3090   24.8943 C   0  0  0  0  0  0  0  0  0  0  0  0
    9.0069   -3.9159   25.3886 C   0  0  0  0  0  0  0  0  0  0  0  0
   10.0229   -3.5330   25.2945 H   0  0  0  0  0  0  0  0  0  0  0  0
    8.4741   -3.5547   26.2745 H   0  0  0  0  0  0  0  0  0  0  0  0
    8.0591   -5.9467   25.4151 H   0  0  0  0  0  0  0  0  0  0  0  0
    9.6405   -5.8238   24.4817 H   0  0  0  0  0  0  0  0  0  0  0  0
    6.1505   -4.8944   23.4731 H   0  0  0  0  0  0  0  0  0  0  0  0
    7.2688   -4.5508   22.0732 H   0  0  0  0  0  0  0  0  0  0  0  0
    6.6943   -2.5144   24.3321 H   0  0  0  0  0  0  0  0  0  0  0  0
    6.7706   -1.6180   21.6509 N   0  0  0  0  0  0  0  0  0  0  0  0
    7.3742   -0.6264   20.9513 N   0  0  0  0  0  0  0  0  0  0  0  0
    6.6773    0.0324   19.8913 C   0  0  0  0  0  0  0  0  0  0  0  0
    5.4491    0.6506   20.1477 C   0  0  0  0  0  0  0  0  0  0  0  0
    4.8128    1.3150   19.0942 C   0  0  0  0  0  0  0  0  0  0  0  0
    5.4038    1.3041   17.8269 C   0  0  0  0  0  0  0  0  0  0  0  0
    6.5558    0.6675   17.5613 N   0  0  0  0  0  0  0  0  0  0  0  0
    7.1726    0.0464   18.5757 C   0  0  0  0  0  0  0  0  0  0  0  0
    8.0995   -0.4741   18.3294 H   0  0  0  0  0  0  0  0  0  0  0  0
    4.9328    1.8183   16.9915 H   0  0  0  0  0  0  0  0  0  0  0  0
    3.8756    1.8381   19.2480 H   0  0  0  0  0  0  0  0  0  0  0  0
    5.0171    0.5920   21.1470 H   0  0  0  0  0  0  0  0  0  0  0  0
   10.5083    0.4819   21.4337 H   0  0  0  0  0  0  0  0  0  0  0  0
    9.5873    0.6932   19.9389 H   0  0  0  0  0  0  0  0  0  0  0  0
    8.0410    2.2808   21.1148 H   0  0  0  0  0  0  0  0  0  0  0  0
    9.7372    2.8362   21.1790 H   0  0  0  0  0  0  0  0  0  0  0  0
    8.5491    2.8619   25.0256 C   0  0  0  0  0  0  0  0  0  0  0  0
    8.1271    3.8929   25.8592 C   0  0  0  0  0  0  0  0  0  0  0  0
    8.1107    3.7368   26.9358 H   0  0  0  0  0  0  0  0  0  0  0  0
    8.8639    1.8935   25.4072 H   0  0  0  0  0  0  0  0  0  0  0  0
    8.1962    4.4310   22.0071 H   0  0  0  0  0  0  0  0  0  0  0  0
    7.4339    6.2592   23.5032 H   0  0  0  0  0  0  0  0  0  0  0  0
    7.3935    5.9254   25.9732 H   0  0  0  0  0  0  0  0  0  0  0  0
  1  2  2  0
  2  3  1  0
  3  4  2  0
  4  5  1  0
  5  6  1  0
  6  7  1  0
  7  8  1  0
  8  9  2  0
  9 10  1  0
 10 11  1  0
 11 12  1  0
 12 13  1  0
 13 14  1  0
 14 15  1  0
 15 16  1  0
 15 17  1  0
 14 18  1  0
 14 19  1  0
 12 20  1  0
 12 21  1  0
 11 22  1  0
 10 23  2  0
 23 24  1  0
 24 25  1  0
 25 26  2  0
 26 27  1  0
 27 28  2  0
 28 29  1  0
 29 30  2  0
 30 31  1  0
 28 32  1  0
 27 33  1  0
 26 34  1  0
  7 35  1  0
  7 36  1  0
  6 37  1  0
  6 38  1  0
  4 39  1  0
 39 40  2  0
 40 41  1  0
 39 42  1  0
  3 43  1  0
  2 44  1  0
  1 45  1  0
 40  1  1  0
 24  8  1  0
 30 25  1  0
 13 11  1  0
 15 13  1  0
M  END
>  <cnnaffinity>  (1) 
-6.14072

>  <filename>  (1) 
c1ccc(OCCc2nc(C3CC34CC4)nn2-c2cccnc2)cc1

$$$$
