
     RDKit          3D

 44 47  0  0  0  0  0  0  0  0999 V2000
   14.0908   -1.2393   21.1832 C   0  0  0  0  0  0  0  0  0  0  0  0
   13.8832   -0.2567   22.1644 C   0  0  0  0  0  0  0  0  0  0  0  0
   12.5860    0.0254   22.6140 C   0  0  0  0  0  0  0  0  0  0  0  0
   11.4906   -0.6949   22.0851 C   0  0  0  0  0  0  0  0  0  0  0  0
   10.0668   -0.3420   22.3075 C   0  0  0  0  0  0  0  0  0  0  0  0
    9.0855   -1.0067   21.7016 N   0  0  0  0  0  0  0  0  0  0  0  0
    7.9847   -0.2947   22.0016 N   0  0  0  0  0  0  0  0  0  0  0  0
    6.6866   -0.6811   21.4517 C   0  0  0  0  0  0  0  0  0  0  0  0
    6.2976    0.0871   20.1995 C   0  0  0  0  0  0  0  0  0  0  0  0
    5.1982    0.9512   20.1708 C   0  0  0  0  0  0  0  0  0  0  0  0
    4.9284    1.6700   19.0017 C   0  0  0  0  0  0  0  0  0  0  0  0
    5.7389    1.4581   17.8819 C   0  0  0  0  0  0  0  0  0  0  0  0
    6.8004    0.6352   17.8881 N   0  0  0  0  0  0  0  0  0  0  0  0
    7.0730   -0.0096   19.0317 C   0  0  0  0  0  0  0  0  0  0  0  0
    7.9596   -0.6456   19.0267 H   0  0  0  0  0  0  0  0  0  0  0  0
    5.5389    1.9750   16.9438 H   0  0  0  0  0  0  0  0  0  0  0  0
    4.1349    2.4115   18.9639 H   0  0  0  0  0  0  0  0  0  0  0  0
    4.6107    1.1340   21.0722 H   0  0  0  0  0  0  0  0  0  0  0  0
    6.7455   -1.7607   21.2629 H   0  0  0  0  0  0  0  0  0  0  0  0
    5.9453   -0.5233   22.2391 H   0  0  0  0  0  0  0  0  0  0  0  0
    8.3460    0.7842   22.7347 C   0  0  0  0  0  0  0  0  0  0  0  0
    7.4457    1.9327   23.0609 C   0  0  0  0  0  0  0  0  0  0  0  0
    7.4298    2.9935   21.9139 C   0  0  0  0  0  0  0  0  0  0  0  0
    6.3888    4.0532   22.0784 C   0  0  0  0  0  0  0  0  0  0  0  0
    6.7644    5.2278   22.5894 N   0  0  0  0  0  0  0  0  0  0  0  0
    5.8074    6.1370   22.7444 C   0  0  0  0  0  0  0  0  0  0  0  0
    4.4851    5.9055   22.3992 C   0  0  0  0  0  0  0  0  0  0  0  0
    4.2093    4.6414   21.9012 C   0  0  0  0  0  0  0  0  0  0  0  0
    5.1363    3.6976   21.7677 N   0  0  0  0  0  0  0  0  0  0  0  0
    3.2035    4.3625   21.5917 H   0  0  0  0  0  0  0  0  0  0  0  0
    3.7159    6.6535   22.5136 H   0  0  0  0  0  0  0  0  0  0  0  0
    6.1255    7.0938   23.1567 H   0  0  0  0  0  0  0  0  0  0  0  0
    7.2370    2.5024   20.9569 H   0  0  0  0  0  0  0  0  0  0  0  0
    8.4143    3.4657   21.8484 H   0  0  0  0  0  0  0  0  0  0  0  0
    7.8463    2.3898   23.9717 H   0  0  0  0  0  0  0  0  0  0  0  0
    6.4326    1.5631   23.2860 H   0  0  0  0  0  0  0  0  0  0  0  0
    9.6421    0.7530   22.9814 N   0  0  0  0  0  0  0  0  0  0  0  0
   11.7399   -1.7297   21.1728 C   0  0  0  0  0  0  0  0  0  0  0  0
   13.0199   -1.9757   20.6961 C   0  0  0  0  0  0  0  0  0  0  0  0
   13.1752   -2.7185   19.9169 H   0  0  0  0  0  0  0  0  0  0  0  0
   10.8921   -2.2891   20.7943 H   0  0  0  0  0  0  0  0  0  0  0  0
   12.4390    0.8417   23.3222 H   0  0  0  0  0  0  0  0  0  0  0  0
   14.7164    0.3222   22.5556 H   0  0  0  0  0  0  0  0  0  0  0  0
   15.0471   -1.4372   20.7199 H   0  0  0  0  0  0  0  0  0  0  0  0
  1  2  2  0
  2  3  1  0
  3  4  2  0
  4  5  1  0
  5  6  2  0
  6  7  1  0
  7  8  1  0
  8  9  1  0
  9 10  2  0
 10 11  1  0
 11 12  2  0
 12 13  1  0
 13 14  2  0
 14 15  1  0
 12 16  1  0
 11 17  1  0
 10 18  1  0
  8 19  1  0
  8 20  1  0
  7 21  1  0
 21 22  1  0
 22 23  1  0
 23 24  1  0
 24 25  2  0
 25 26  1  0
 26 27  2  0
 27 28  1  0
 28 29  2  0
 28 30  1  0
 27 31  1  0
 26 32  1  0
 23 33  1  0
 23 34  1  0
 22 35  1  0
 22 36  1  0
 21 37  2  0
  4 38  1  0
 38 39  2  0
 39 40  1  0
 38 41  1  0
  3 42  1  0
  2 43  1  0
  1 44  1  0
 39  1  1  0
 37  5  1  0
 14  9  1  0
 29 24  1  0
M  END
>  <cnnaffinity>  (1) 
-6.34556

>  <filename>  (1) 
c1ccc(-c2nc(CCc3ncccn3)n(Cc3cccnc3)n2)cc1

$$$$
