
     RDKit          3D

 34 37  0  0  0  0  0  0  0  0999 V2000
   11.5761    2.1306   25.2361 H   0  0  0  0  0  0  0  0  0  0  0  0
   10.4947    2.0117   25.1809 C   0  0  0  0  0  0  0  0  0  0  0  0
   10.0444    0.7696   25.3713 N   0  0  0  0  0  0  0  0  0  0  0  0
    8.7205    0.5624   25.2698 C   0  0  0  0  0  0  0  0  0  0  0  0
    8.2978   -0.8991   25.3581 C   0  0  0  0  0  0  0  0  0  0  0  0
    7.2257   -1.0146   25.5525 H   0  0  0  0  0  0  0  0  0  0  0  0
    8.8378   -1.3782   26.1835 H   0  0  0  0  0  0  0  0  0  0  0  0
    8.6324   -1.5953   24.1133 N   0  0  0  0  0  0  0  0  0  0  0  0
    9.8889   -2.1325   23.8239 C   0  0  0  0  0  0  0  0  0  0  0  0
   10.5887   -2.3248   24.6254 H   0  0  0  0  0  0  0  0  0  0  0  0
   10.0670   -2.1954   22.4848 C   0  0  0  0  0  0  0  0  0  0  0  0
   10.8673   -2.5674   21.8730 H   0  0  0  0  0  0  0  0  0  0  0  0
    8.9194   -1.6461   21.9218 N   0  0  0  0  0  0  0  0  0  0  0  0
    8.5387   -1.2745   20.6801 N   0  0  0  0  0  0  0  0  0  0  0  0
    7.3690   -0.6560   20.9066 C   0  0  0  0  0  0  0  0  0  0  0  0
    6.6192   -0.0272   19.8084 C   0  0  0  0  0  0  0  0  0  0  0  0
    7.1467   -0.0033   18.5041 C   0  0  0  0  0  0  0  0  0  0  0  0
    8.0760   -0.5267   18.2860 H   0  0  0  0  0  0  0  0  0  0  0  0
    6.5703    0.6407   17.4829 N   0  0  0  0  0  0  0  0  0  0  0  0
    5.4263    1.2961   17.7302 C   0  0  0  0  0  0  0  0  0  0  0  0
    4.9952    1.8516   16.8975 H   0  0  0  0  0  0  0  0  0  0  0  0
    4.7963    1.3000   18.9797 C   0  0  0  0  0  0  0  0  0  0  0  0
    3.8789    1.8579   19.1208 H   0  0  0  0  0  0  0  0  0  0  0  0
    5.3963    0.6228   20.0373 C   0  0  0  0  0  0  0  0  0  0  0  0
    4.9296    0.6200   21.0255 H   0  0  0  0  0  0  0  0  0  0  0  0
    7.0065   -0.6283   22.2750 C   0  0  0  0  0  0  0  0  0  0  0  0
    6.1218   -0.2021   22.7137 H   0  0  0  0  0  0  0  0  0  0  0  0
    8.0641   -1.2674   22.8932 C   0  0  0  0  0  0  0  0  0  0  0  0
    7.8142    1.6105   25.0264 C   0  0  0  0  0  0  0  0  0  0  0  0
    6.7581    1.3953   24.9182 H   0  0  0  0  0  0  0  0  0  0  0  0
    8.2904    2.9159   24.8663 C   0  0  0  0  0  0  0  0  0  0  0  0
    7.6062    3.7490   24.6869 H   0  0  0  0  0  0  0  0  0  0  0  0
    9.6707    3.1138   24.9289 C   0  0  0  0  0  0  0  0  0  0  0  0
   10.1172    4.0942   24.8096 H   0  0  0  0  0  0  0  0  0  0  0  0
  1  2  1  0
  2  3  2  0
  3  4  1  0
  4  5  1  0
  5  6  1  0
  5  7  1  0
  5  8  1  0
  8  9  1  0
  9 10  1  0
  9 11  2  0
 11 12  1  0
 11 13  1  0
 13 14  1  0
 14 15  2  0
 15 16  1  0
 16 17  2  0
 17 18  1  0
 17 19  1  0
 19 20  2  0
 20 21  1  0
 20 22  1  0
 22 23  1  0
 22 24  2  0
 24 25  1  0
 15 26  1  0
 26 27  1  0
 26 28  2  0
  4 29  2  0
 29 30  1  0
 29 31  1  0
 31 32  1  0
 31 33  2  0
 33 34  1  0
 33  2  1  0
 28  8  1  0
 28 13  1  0
 24 16  1  0
M  END
>  <cnnaffinity>  (1) 
-5.63295

>  <filename>  (1) 
c1ccc(Cn2ccn3nc(-c4cccnc4)cc23)nc1

$$$$
