
     RDKit          3D

 30 32  0  0  0  0  0  0  0  0999 V2000
    7.2248   -6.2957   20.6307 H   0  0  0  0  0  0  0  0  0  0  0  0
    7.3916   -5.8266   21.6033 C   0  0  0  0  0  0  0  0  0  0  0  0
    8.1660   -4.7314   21.5984 N   0  0  0  0  0  0  0  0  0  0  0  0
    8.4250   -4.1425   22.7738 C   0  0  0  0  0  0  0  0  0  0  0  0
    9.3088   -2.9242   22.7219 C   0  0  0  0  0  0  0  0  0  0  0  0
   10.1583   -3.0932   22.0612 H   0  0  0  0  0  0  0  0  0  0  0  0
    9.7085   -2.6980   23.7113 H   0  0  0  0  0  0  0  0  0  0  0  0
    8.4986   -1.7716   22.2533 C   0  0  0  0  0  0  0  0  0  0  0  0
    7.7679   -1.0421   23.1561 N   0  0  0  0  0  0  0  0  0  0  0  0
    7.0518   -0.2164   22.4447 C   0  0  0  0  0  0  0  0  0  0  0  0
    6.3909    0.5473   22.8399 H   0  0  0  0  0  0  0  0  0  0  0  0
    7.2669   -0.3628   21.0904 N   0  0  0  0  0  0  0  0  0  0  0  0
    6.5775    0.2371   20.0047 C   0  0  0  0  0  0  0  0  0  0  0  0
    7.1570    0.2051   18.7192 C   0  0  0  0  0  0  0  0  0  0  0  0
    8.1153   -0.2868   18.5640 H   0  0  0  0  0  0  0  0  0  0  0  0
    6.5952    0.7439   17.6357 N   0  0  0  0  0  0  0  0  0  0  0  0
    5.4024    1.3403   17.7913 C   0  0  0  0  0  0  0  0  0  0  0  0
    4.9739    1.7805   16.8990 H   0  0  0  0  0  0  0  0  0  0  0  0
    4.7208    1.3920   19.0097 C   0  0  0  0  0  0  0  0  0  0  0  0
    3.7530    1.8787   19.0630 H   0  0  0  0  0  0  0  0  0  0  0  0
    5.3068    0.8236   20.1443 C   0  0  0  0  0  0  0  0  0  0  0  0
    4.7731    0.8209   21.0953 H   0  0  0  0  0  0  0  0  0  0  0  0
    8.2347   -1.3571   20.9877 C   0  0  0  0  0  0  0  0  0  0  0  0
    8.6448   -1.6963   20.0521 H   0  0  0  0  0  0  0  0  0  0  0  0
    7.8769   -4.5910   23.9837 C   0  0  0  0  0  0  0  0  0  0  0  0
    8.0840   -4.0343   24.8946 H   0  0  0  0  0  0  0  0  0  0  0  0
    7.0747   -5.7330   23.9815 C   0  0  0  0  0  0  0  0  0  0  0  0
    6.6620   -6.1170   24.9154 H   0  0  0  0  0  0  0  0  0  0  0  0
    6.8313   -6.3736   22.7603 C   0  0  0  0  0  0  0  0  0  0  0  0
    6.2375   -7.2812   22.6868 H   0  0  0  0  0  0  0  0  0  0  0  0
  1  2  1  0
  2  3  2  0
  3  4  1  0
  4  5  1  0
  5  6  1  0
  5  7  1  0
  5  8  1  0
  8  9  1  0
  9 10  2  0
 10 11  1  0
 10 12  1  0
 12 13  1  0
 13 14  2  0
 14 15  1  0
 14 16  1  0
 16 17  2  0
 17 18  1  0
 17 19  1  0
 19 20  1  0
 19 21  2  0
 21 22  1  0
 12 23  1  0
 23 24  1  0
  4 25  2  0
 25 26  1  0
 25 27  1  0
 27 28  1  0
 27 29  2  0
 29 30  1  0
 29  2  1  0
 23  8  2  0
 21 13  1  0
M  END
>  <cnnaffinity>  (1) 
-5.34552

>  <filename>  (1) 
c1ccc(Cc2cn(-c3cccnc3)cn2)nc1

$$$$
