
     RDKit          3D

 31 33  0  0  0  0  0  0  0  0999 V2000
    8.6359    0.5942   27.6783 H   0  0  0  0  0  0  0  0  0  0  0  0
    7.9789    0.0460   27.0061 C   0  0  0  0  0  0  0  0  0  0  0  0
    7.5017    0.7449   25.9723 N   0  0  0  0  0  0  0  0  0  0  0  0
    6.7048    0.1047   25.1060 C   0  0  0  0  0  0  0  0  0  0  0  0
    6.2862    0.8950   23.8972 C   0  0  0  0  0  0  0  0  0  0  0  0
    6.0404    1.9057   24.2351 H   0  0  0  0  0  0  0  0  0  0  0  0
    5.3836    0.4467   23.4735 H   0  0  0  0  0  0  0  0  0  0  0  0
    7.3900    0.9968   22.8190 C   0  0  0  0  0  0  0  0  0  0  0  0
    7.0831    1.7141   22.0487 H   0  0  0  0  0  0  0  0  0  0  0  0
    8.3304    1.3573   23.2572 H   0  0  0  0  0  0  0  0  0  0  0  0
    7.6829   -0.2668   22.1537 N   0  0  0  0  0  0  0  0  0  0  0  0
    8.4149   -1.2117   22.7767 N   0  0  0  0  0  0  0  0  0  0  0  0
    8.5469   -2.1892   21.9501 N   0  0  0  0  0  0  0  0  0  0  0  0
    7.9467   -1.9101   20.7770 N   0  0  0  0  0  0  0  0  0  0  0  0
    7.4033   -0.7199   20.9109 C   0  0  0  0  0  0  0  0  0  0  0  0
    6.6397    0.0112   19.8946 C   0  0  0  0  0  0  0  0  0  0  0  0
    7.1535    0.0461   18.5893 C   0  0  0  0  0  0  0  0  0  0  0  0
    8.0973   -0.4440   18.3603 H   0  0  0  0  0  0  0  0  0  0  0  0
    6.5534    0.6754   17.5752 N   0  0  0  0  0  0  0  0  0  0  0  0
    5.3942    1.3023   17.8253 C   0  0  0  0  0  0  0  0  0  0  0  0
    4.9334    1.8077   16.9776 H   0  0  0  0  0  0  0  0  0  0  0  0
    4.7886    1.3174   19.0869 C   0  0  0  0  0  0  0  0  0  0  0  0
    3.8571    1.8519   19.2297 H   0  0  0  0  0  0  0  0  0  0  0  0
    5.4235    0.6613   20.1411 C   0  0  0  0  0  0  0  0  0  0  0  0
    4.9666    0.6565   21.1334 H   0  0  0  0  0  0  0  0  0  0  0  0
    6.3084   -1.2317   25.2738 C   0  0  0  0  0  0  0  0  0  0  0  0
    5.6984   -1.6862   24.4992 H   0  0  0  0  0  0  0  0  0  0  0  0
    6.8043   -1.9532   26.3609 C   0  0  0  0  0  0  0  0  0  0  0  0
    6.5383   -2.9992   26.5140 H   0  0  0  0  0  0  0  0  0  0  0  0
    7.6847   -1.3014   27.2282 C   0  0  0  0  0  0  0  0  0  0  0  0
    8.1869   -1.8247   28.0246 H   0  0  0  0  0  0  0  0  0  0  0  0
  1  2  1  0
  2  3  2  0
  3  4  1  0
  4  5  1  0
  5  6  1  0
  5  7  1  0
  5  8  1  0
  8  9  1  0
  8 10  1  0
  8 11  1  0
 11 12  1  0
 12 13  2  0
 13 14  1  0
 14 15  2  0
 15 16  1  0
 16 17  2  0
 17 18  1  0
 17 19  1  0
 19 20  2  0
 20 21  1  0
 20 22  1  0
 22 23  1  0
 22 24  2  0
 24 25  1  0
  4 26  2  0
 26 27  1  0
 26 28  1  0
 28 29  1  0
 28 30  2  0
 30 31  1  0
 30  2  1  0
 15 11  1  0
 24 16  1  0
M  END
>  <cnnaffinity>  (1) 
-4.79991

>  <filename>  (1) 
c1ccc(CCn2nnnc2-c2cccnc2)nc1

$$$$
