
     RDKit          3D

 39 42  0  0  0  0  0  0  0  0999 V2000
    8.8197    1.7072   25.8081 C   0  0  0  0  0  0  0  0  0  0  0  0
    7.6574    1.4832   25.0636 C   0  0  0  0  0  0  0  0  0  0  0  0
    7.6661    1.6872   23.6800 C   0  0  0  0  0  0  0  0  0  0  0  0
    8.8353    2.1192   23.0301 C   0  0  0  0  0  0  0  0  0  0  0  0
    8.9044    2.2459   21.2480 S   0  0  0  0  0  0  0  0  0  0  0  0
    9.5403    0.5556   20.9033 C   0  0  0  0  0  0  0  0  0  0  0  0
    8.6508   -0.5278   21.3983 C   0  0  0  0  0  0  0  0  0  0  0  0
    8.8795   -1.3394   22.4178 N   0  0  0  0  0  0  0  0  0  0  0  0
    7.6678   -1.9182   22.6079 C   0  0  0  0  0  0  0  0  0  0  0  0
    7.3824   -2.8075   23.7718 C   0  0  0  0  0  0  0  0  0  0  0  0
    6.3939   -2.1973   24.8143 C   0  0  0  0  0  0  0  0  0  0  0  0
    5.1993   -3.5522   24.5522 S   0  0  0  0  0  0  0  0  0  0  0  0
    6.5456   -4.0677   23.4320 C   0  0  0  0  0  0  0  0  0  0  0  0
    7.0082   -5.0138   23.7287 H   0  0  0  0  0  0  0  0  0  0  0  0
    6.2246   -4.1266   22.3864 H   0  0  0  0  0  0  0  0  0  0  0  0
    6.7793   -2.1433   25.8385 H   0  0  0  0  0  0  0  0  0  0  0  0
    5.9902   -1.2174   24.5353 H   0  0  0  0  0  0  0  0  0  0  0  0
    8.3503   -3.0397   24.2121 H   0  0  0  0  0  0  0  0  0  0  0  0
    6.7357   -1.5613   21.7474 N   0  0  0  0  0  0  0  0  0  0  0  0
    7.3749   -0.6783   20.9392 N   0  0  0  0  0  0  0  0  0  0  0  0
    6.6639    0.0008   19.9038 C   0  0  0  0  0  0  0  0  0  0  0  0
    5.4444    0.6369   20.1658 C   0  0  0  0  0  0  0  0  0  0  0  0
    4.8132    1.3064   19.1109 C   0  0  0  0  0  0  0  0  0  0  0  0
    5.3984    1.2945   17.8386 C   0  0  0  0  0  0  0  0  0  0  0  0
    6.5548    0.6675   17.5765 N   0  0  0  0  0  0  0  0  0  0  0  0
    7.1665    0.0471   18.5914 C   0  0  0  0  0  0  0  0  0  0  0  0
    8.1102   -0.4404   18.3608 H   0  0  0  0  0  0  0  0  0  0  0  0
    4.9225    1.7874   16.9930 H   0  0  0  0  0  0  0  0  0  0  0  0
    3.8823    1.8375   19.2629 H   0  0  0  0  0  0  0  0  0  0  0  0
    5.0180    0.6079   21.1733 H   0  0  0  0  0  0  0  0  0  0  0  0
   10.5131    0.4401   21.3825 H   0  0  0  0  0  0  0  0  0  0  0  0
    9.6481    0.4972   19.8222 H   0  0  0  0  0  0  0  0  0  0  0  0
   10.0022    2.3245   23.7760 C   0  0  0  0  0  0  0  0  0  0  0  0
    9.9926    2.0938   25.1523 C   0  0  0  0  0  0  0  0  0  0  0  0
   10.9276    2.1440   25.6911 H   0  0  0  0  0  0  0  0  0  0  0  0
   10.9179    2.6320   23.2735 H   0  0  0  0  0  0  0  0  0  0  0  0
    6.7883    1.4656   23.0818 H   0  0  0  0  0  0  0  0  0  0  0  0
    6.7513    1.1408   25.5619 H   0  0  0  0  0  0  0  0  0  0  0  0
    8.8210    1.5684   26.8877 H   0  0  0  0  0  0  0  0  0  0  0  0
  1  2  2  0
  2  3  1  0
  3  4  2  0
  4  5  1  0
  5  6  1  0
  6  7  1  0
  7  8  2  0
  8  9  1  0
  9 10  1  0
 10 11  1  0
 11 12  1  0
 12 13  1  0
 13 14  1  0
 13 15  1  0
 11 16  1  0
 11 17  1  0
 10 18  1  0
  9 19  2  0
 19 20  1  0
 20 21  1  0
 21 22  2  0
 22 23  1  0
 23 24  2  0
 24 25  1  0
 25 26  2  0
 26 27  1  0
 24 28  1  0
 23 29  1  0
 22 30  1  0
  6 31  1  0
  6 32  1  0
  4 33  1  0
 33 34  2  0
 34 35  1  0
 33 36  1  0
  3 37  1  0
  2 38  1  0
  1 39  1  0
 34  1  1  0
 20  7  1  0
 26 21  1  0
 13 10  1  0
M  END
>  <cnnaffinity>  (1) 
-5.74187

>  <filename>  (1) 
c1ccc(SCc2nc(C3CSC3)nn2-c2cccnc2)cc1

$$$$
