
     RDKit          3D

 40 43  0  0  0  0  0  0  0  0999 V2000
    8.2836    3.9175   22.4453 C   0  0  0  0  0  0  0  0  0  0  0  0
    7.9847    4.0477   22.4583 C   0  0  0  0  0  0  0  0  0  0  0  0
    8.4257    2.6693   21.1570 C   0  0  0  0  0  0  0  0  0  0  0  0
    8.9867    1.5825   21.8907 C   0  0  0  0  0  0  0  0  0  0  0  0
    9.4963    0.3084   21.2953 C   0  0  0  0  0  0  0  0  0  0  0  0
    8.5881   -0.8322   21.4815 N   0  0  0  0  0  0  0  0  0  0  0  0
    8.8142   -1.6308   22.5475 N   0  0  0  0  0  0  0  0  0  0  0  0
    7.6901   -2.3023   22.6800 C   0  0  0  0  0  0  0  0  0  0  0  0
    7.4983   -3.3042   23.7744 C   0  0  0  0  0  0  0  0  0  0  0  0
    8.3244   -3.0684   25.0686 C   0  0  0  0  0  0  0  0  0  0  0  0
    7.4579   -3.7372   26.1579 C   0  0  0  0  0  0  0  0  0  0  0  0
    6.2310   -4.1023   25.5393 O   0  0  0  0  0  0  0  0  0  0  0  0
    6.0791   -3.3543   24.3498 C   0  0  0  0  0  0  0  0  0  0  0  0
    5.6952   -2.3365   24.5512 H   0  0  0  0  0  0  0  0  0  0  0  0
    5.3609   -3.8801   23.7170 H   0  0  0  0  0  0  0  0  0  0  0  0
    7.2651   -3.0502   26.9959 H   0  0  0  0  0  0  0  0  0  0  0  0
    7.9080   -4.6516   26.5632 H   0  0  0  0  0  0  0  0  0  0  0  0
    8.4144   -1.9904   25.2613 H   0  0  0  0  0  0  0  0  0  0  0  0
    9.3395   -3.4771   25.0233 H   0  0  0  0  0  0  0  0  0  0  0  0
    7.7327   -4.2890   23.3522 H   0  0  0  0  0  0  0  0  0  0  0  0
    6.7377   -1.9858   21.7625 N   0  0  0  0  0  0  0  0  0  0  0  0
    7.3271   -1.0617   21.0255 C   0  0  0  0  0  0  0  0  0  0  0  0
    6.7114   -0.3033   19.9215 C   0  0  0  0  0  0  0  0  0  0  0  0
    5.4585    0.3163   20.0503 C   0  0  0  0  0  0  0  0  0  0  0  0
    4.9736    1.0589   18.9746 C   0  0  0  0  0  0  0  0  0  0  0  0
    5.7377    1.1405   17.8039 C   0  0  0  0  0  0  0  0  0  0  0  0
    6.9259    0.5336   17.6615 N   0  0  0  0  0  0  0  0  0  0  0  0
    7.3963   -0.1542   18.7068 C   0  0  0  0  0  0  0  0  0  0  0  0
    8.3827   -0.6033   18.5839 H   0  0  0  0  0  0  0  0  0  0  0  0
    5.3800    1.7097   16.9482 H   0  0  0  0  0  0  0  0  0  0  0  0
    4.0238    1.5769   19.0326 H   0  0  0  0  0  0  0  0  0  0  0  0
    4.9028    0.2246   20.9884 H   0  0  0  0  0  0  0  0  0  0  0  0
    9.7204    0.4181   20.2305 H   0  0  0  0  0  0  0  0  0  0  0  0
   10.4225    0.0157   21.8009 H   0  0  0  0  0  0  0  0  0  0  0  0
    9.1369    1.7350   23.2688 N   0  0  0  0  0  0  0  0  0  0  0  0
    8.7675    2.9221   23.6725 C   0  0  0  0  0  0  0  0  0  0  0  0
    9.0375    3.2914   24.6527 H   0  0  0  0  0  0  0  0  0  0  0  0
    7.5090    2.2563   20.5986 H   0  0  0  0  0  0  0  0  0  0  0  0
    6.7864    4.1403   22.5596 H   0  0  0  0  0  0  0  0  0  0  0  0
    8.4843    5.1144   22.1529 H   0  0  0  0  0  0  0  0  0  0  0  0
  1  2  2  0
  2  3  1  0
  3  4  2  0
  4  5  1  0
  5  6  1  0
  6  7  1  0
  7  8  2  0
  8  9  1  0
  9 10  1  0
 10 11  1  0
 11 12  1  0
 12 13  1  0
 13 14  1  0
 13 15  1  0
 11 16  1  0
 11 17  1  0
 10 18  1  0
 10 19  1  0
  9 20  1  0
  8 21  1  0
 21 22  2  0
 22 23  1  0
 23 24  2  0
 24 25  1  0
 25 26  2  0
 26 27  1  0
 27 28  2  0
 28 29  1  0
 26 30  1  0
 25 31  1  0
 24 32  1  0
  5 33  1  0
  5 34  1  0
  4 35  1  0
 35 36  2  0
 36 37  1  0
  3 38  1  0
  2 39  1  0
  1 40  1  0
 36  1  1  0
 22  6  1  0
 28 23  1  0
 13  9  1  0
M  END
>  <cnnaffinity>  (1) 
-5.54933

>  <filename>  (1) 
c1ccc(Cn2nc(C3CCOC3)nc2-c2cccnc2)nc1

$$$$
