
     RDKit          3D

 45 48  0  0  0  0  0  0  0  0999 V2000
    8.8817    1.4551   25.8107 C   0  0  0  0  0  0  0  0  0  0  0  0
    7.6913    1.3970   25.0828 C   0  0  0  0  0  0  0  0  0  0  0  0
    7.7629    1.6080   23.7088 C   0  0  0  0  0  0  0  0  0  0  0  0
    9.0095    1.8462   23.1009 C   0  0  0  0  0  0  0  0  0  0  0  0
    9.1088    1.9438   21.5990 C   0  0  0  0  0  0  0  0  0  0  0  0
    9.5205    0.5967   20.9615 C   0  0  0  0  0  0  0  0  0  0  0  0
    8.6344   -0.5162   21.3004 N   0  0  0  0  0  0  0  0  0  0  0  0
    8.9015   -1.2880   22.3896 N   0  0  0  0  0  0  0  0  0  0  0  0
    7.7545   -1.8992   22.6263 C   0  0  0  0  0  0  0  0  0  0  0  0
    7.5175   -2.8267   23.7890 C   0  0  0  0  0  0  0  0  0  0  0  0
    8.5982   -2.7351   24.8776 C   0  0  0  0  0  0  0  0  0  0  0  0
    7.9399   -3.2670   26.1583 C   0  0  0  0  0  0  0  0  0  0  0  0
    6.4134   -3.0976   25.9753 C   0  0  0  0  0  0  0  0  0  0  0  0
    6.1915   -2.5712   24.5435 C   0  0  0  0  0  0  0  0  0  0  0  0
    5.9831   -1.4947   24.5663 H   0  0  0  0  0  0  0  0  0  0  0  0
    5.3365   -3.0459   24.0506 H   0  0  0  0  0  0  0  0  0  0  0  0
    5.9028   -4.0540   26.1288 H   0  0  0  0  0  0  0  0  0  0  0  0
    5.9937   -2.4056   26.7124 H   0  0  0  0  0  0  0  0  0  0  0  0
    8.3081   -2.7352   27.0409 H   0  0  0  0  0  0  0  0  0  0  0  0
    8.1905   -4.3227   26.3079 H   0  0  0  0  0  0  0  0  0  0  0  0
    9.5014   -3.2925   24.6089 H   0  0  0  0  0  0  0  0  0  0  0  0
    8.8887   -1.6855   24.9999 H   0  0  0  0  0  0  0  0  0  0  0  0
    7.4866   -3.8417   23.3745 H   0  0  0  0  0  0  0  0  0  0  0  0
    6.7632   -1.5743   21.7560 N   0  0  0  0  0  0  0  0  0  0  0  0
    7.3360   -0.6998   20.9566 C   0  0  0  0  0  0  0  0  0  0  0  0
    6.6492    0.0219   19.8912 C   0  0  0  0  0  0  0  0  0  0  0  0
    5.4290    0.6573   20.1518 C   0  0  0  0  0  0  0  0  0  0  0  0
    4.8025    1.3189   19.1006 C   0  0  0  0  0  0  0  0  0  0  0  0
    5.4035    1.2959   17.8355 C   0  0  0  0  0  0  0  0  0  0  0  0
    6.5633    0.6748   17.5713 N   0  0  0  0  0  0  0  0  0  0  0  0
    7.1693    0.0620   18.5924 C   0  0  0  0  0  0  0  0  0  0  0  0
    8.1129   -0.4335   18.3676 H   0  0  0  0  0  0  0  0  0  0  0  0
    4.9208    1.7825   16.9929 H   0  0  0  0  0  0  0  0  0  0  0  0
    3.8696    1.8471   19.2543 H   0  0  0  0  0  0  0  0  0  0  0  0
    5.0019    0.6246   21.1616 H   0  0  0  0  0  0  0  0  0  0  0  0
    9.5319    0.6861   19.8755 H   0  0  0  0  0  0  0  0  0  0  0  0
   10.5238    0.3054   21.2718 H   0  0  0  0  0  0  0  0  0  0  0  0
    8.1472    2.2467   21.1724 H   0  0  0  0  0  0  0  0  0  0  0  0
    9.8420    2.7086   21.3292 H   0  0  0  0  0  0  0  0  0  0  0  0
   10.1527    1.8929   23.7984 N   0  0  0  0  0  0  0  0  0  0  0  0
   10.0729    1.7009   25.1227 C   0  0  0  0  0  0  0  0  0  0  0  0
   11.0148    1.7412   25.6607 H   0  0  0  0  0  0  0  0  0  0  0  0
    6.8807    1.5460   23.0851 H   0  0  0  0  0  0  0  0  0  0  0  0
    6.7363    1.1955   25.5758 H   0  0  0  0  0  0  0  0  0  0  0  0
    8.8924    1.3088   26.8839 H   0  0  0  0  0  0  0  0  0  0  0  0
  1  2  2  0
  2  3  1  0
  3  4  2  0
  4  5  1  0
  5  6  1  0
  6  7  1  0
  7  8  1  0
  8  9  2  0
  9 10  1  0
 10 11  1  0
 11 12  1  0
 12 13  1  0
 13 14  1  0
 14 15  1  0
 14 16  1  0
 13 17  1  0
 13 18  1  0
 12 19  1  0
 12 20  1  0
 11 21  1  0
 11 22  1  0
 10 23  1  0
  9 24  1  0
 24 25  2  0
 25 26  1  0
 26 27  2  0
 27 28  1  0
 28 29  2  0
 29 30  1  0
 30 31  2  0
 31 32  1  0
 29 33  1  0
 28 34  1  0
 27 35  1  0
  6 36  1  0
  6 37  1  0
  5 38  1  0
  5 39  1  0
  4 40  1  0
 40 41  2  0
 41 42  1  0
  3 43  1  0
  2 44  1  0
  1 45  1  0
 41  1  1  0
 25  7  1  0
 31 26  1  0
 14 10  1  0
M  END
>  <cnnaffinity>  (1) 
-6.05852

>  <filename>  (1) 
c1ccc(CCn2nc(C3CCCC3)nc2-c2cccnc2)nc1

$$$$
