
     RDKit          3D

 29 31  0  0  0  0  0  0  0  0999 V2000
   11.5634    0.4919   25.5143 H   0  0  0  0  0  0  0  0  0  0  0  0
   11.7355    0.0988   24.5145 C   0  0  0  0  0  0  0  0  0  0  0  0
   10.8201   -0.7657   24.0590 N   0  0  0  0  0  0  0  0  0  0  0  0
   10.9999   -1.2698   22.8313 C   0  0  0  0  0  0  0  0  0  0  0  0
   10.0037   -2.3301   22.4349 C   0  0  0  0  0  0  0  0  0  0  0  0
    9.9600   -3.0925   23.2226 H   0  0  0  0  0  0  0  0  0  0  0  0
   10.3128   -2.7839   21.4942 H   0  0  0  0  0  0  0  0  0  0  0  0
    8.6687   -1.7208   22.1764 C   0  0  0  0  0  0  0  0  0  0  0  0
    8.4430   -1.2456   20.8944 N   0  0  0  0  0  0  0  0  0  0  0  0
    7.2794   -0.6816   20.9540 C   0  0  0  0  0  0  0  0  0  0  0  0
    6.5710    0.0161   19.8964 C   0  0  0  0  0  0  0  0  0  0  0  0
    7.1454    0.0392   18.6215 C   0  0  0  0  0  0  0  0  0  0  0  0
    8.0914   -0.4682   18.4383 H   0  0  0  0  0  0  0  0  0  0  0  0
    6.5928    0.6642   17.5783 N   0  0  0  0  0  0  0  0  0  0  0  0
    5.4320    1.3047   17.7872 C   0  0  0  0  0  0  0  0  0  0  0  0
    5.0017    1.8043   16.9221 H   0  0  0  0  0  0  0  0  0  0  0  0
    4.7834    1.3420   19.0288 C   0  0  0  0  0  0  0  0  0  0  0  0
    3.8530    1.8862   19.1325 H   0  0  0  0  0  0  0  0  0  0  0  0
    5.3613    0.6918   20.1123 C   0  0  0  0  0  0  0  0  0  0  0  0
    4.9040    0.7136   21.1042 H   0  0  0  0  0  0  0  0  0  0  0  0
    6.6989   -0.7460   22.1735 O   0  0  0  0  0  0  0  0  0  0  0  0
    7.6002   -1.4178   22.9485 C   0  0  0  0  0  0  0  0  0  0  0  0
    7.3512   -1.5616   23.9901 H   0  0  0  0  0  0  0  0  0  0  0  0
   12.0348   -0.8406   21.9799 C   0  0  0  0  0  0  0  0  0  0  0  0
   12.0412   -1.1496   20.9408 H   0  0  0  0  0  0  0  0  0  0  0  0
   12.9994    0.0401   22.4744 C   0  0  0  0  0  0  0  0  0  0  0  0
   13.8397    0.3545   21.8483 H   0  0  0  0  0  0  0  0  0  0  0  0
   12.8630    0.4953   23.7859 C   0  0  0  0  0  0  0  0  0  0  0  0
   13.5880    1.1601   24.2438 H   0  0  0  0  0  0  0  0  0  0  0  0
  1  2  1  0
  2  3  2  0
  3  4  1  0
  4  5  1  0
  5  6  1  0
  5  7  1  0
  5  8  1  0
  8  9  1  0
  9 10  2  0
 10 11  1  0
 11 12  2  0
 12 13  1  0
 12 14  1  0
 14 15  2  0
 15 16  1  0
 15 17  1  0
 17 18  1  0
 17 19  2  0
 19 20  1  0
 10 21  1  0
 21 22  1  0
 22 23  1  0
  4 24  2  0
 24 25  1  0
 24 26  1  0
 26 27  1  0
 26 28  2  0
 28 29  1  0
 28  2  1  0
 22  8  2  0
 19 11  1  0
M  END
>  <cnnaffinity>  (1) 
-5.08105

>  <filename>  (1) 
c1ccc(Cc2coc(-c3cccnc3)n2)nc1

$$$$
