
     RDKit          3D

 36 38  0  0  0  0  0  0  0  0999 V2000
    4.9133    1.8049   16.9725 H   0  0  0  0  0  0  0  0  0  0  0  0
    5.3845    1.3067   17.8171 C   0  0  0  0  0  0  0  0  0  0  0  0
    6.5446    0.6862   17.5536 N   0  0  0  0  0  0  0  0  0  0  0  0
    7.1562    0.0733   18.5732 C   0  0  0  0  0  0  0  0  0  0  0  0
    8.0998   -0.4189   18.3418 H   0  0  0  0  0  0  0  0  0  0  0  0
    6.6525    0.0170   19.8866 C   0  0  0  0  0  0  0  0  0  0  0  0
    7.3677   -0.7109   20.9681 C   0  0  0  0  0  0  0  0  0  0  0  0
    8.7604   -0.6087   21.1784 C   0  0  0  0  0  0  0  0  0  0  0  0
    9.3738    0.0230   20.5388 H   0  0  0  0  0  0  0  0  0  0  0  0
    9.4012   -1.2394   22.1611 N   0  0  0  0  0  0  0  0  0  0  0  0
    8.7241   -2.0305   23.0106 N   0  0  0  0  0  0  0  0  0  0  0  0
    7.3985   -2.1836   22.8731 C   0  0  0  0  0  0  0  0  0  0  0  0
    6.7017   -3.0527   23.8823 C   0  0  0  0  0  0  0  0  0  0  0  0
    5.8533   -3.5575   23.4079 H   0  0  0  0  0  0  0  0  0  0  0  0
    7.4025   -3.8211   24.2269 H   0  0  0  0  0  0  0  0  0  0  0  0
    6.1715   -2.2421   25.0771 C   0  0  0  0  0  0  0  0  0  0  0  0
    6.9734   -1.6693   25.5669 H   0  0  0  0  0  0  0  0  0  0  0  0
    5.4075   -1.5311   24.7506 H   0  0  0  0  0  0  0  0  0  0  0  0
    5.4702   -3.0579   26.0060 O   0  0  0  0  0  0  0  0  0  0  0  0
    6.1245   -3.8546   26.8956 C   0  0  0  0  0  0  0  0  0  0  0  0
    7.5165   -3.9048   27.0562 C   0  0  0  0  0  0  0  0  0  0  0  0
    8.1562   -3.2736   26.4500 H   0  0  0  0  0  0  0  0  0  0  0  0
    8.0650   -4.7781   28.0025 C   0  0  0  0  0  0  0  0  0  0  0  0
    9.1447   -4.8186   28.1212 H   0  0  0  0  0  0  0  0  0  0  0  0
    7.2489   -5.5853   28.7939 C   0  0  0  0  0  0  0  0  0  0  0  0
    7.6785   -6.2605   29.5277 H   0  0  0  0  0  0  0  0  0  0  0  0
    5.8580   -5.5220   28.6356 C   0  0  0  0  0  0  0  0  0  0  0  0
    5.2135   -6.1479   29.2462 H   0  0  0  0  0  0  0  0  0  0  0  0
    5.2984   -4.6623   27.6945 C   0  0  0  0  0  0  0  0  0  0  0  0
    4.2256   -4.5884   27.5447 H   0  0  0  0  0  0  0  0  0  0  0  0
    6.6832   -1.5310   21.8562 C   0  0  0  0  0  0  0  0  0  0  0  0
    5.6109   -1.6714   21.7511 H   0  0  0  0  0  0  0  0  0  0  0  0
    5.4310    0.6596   20.1351 C   0  0  0  0  0  0  0  0  0  0  0  0
    5.0159    0.6463   21.1461 H   0  0  0  0  0  0  0  0  0  0  0  0
    4.7958    1.3244   19.0857 C   0  0  0  0  0  0  0  0  0  0  0  0
    3.8655    1.8518   19.2387 H   0  0  0  0  0  0  0  0  0  0  0  0
  1  2  1  0
  2  3  2  0
  3  4  1  0
  4  5  1  0
  4  6  2  0
  6  7  1  0
  7  8  2  0
  8  9  1  0
  8 10  1  0
 10 11  2  0
 11 12  1  0
 12 13  1  0
 13 14  1  0
 13 15  1  0
 13 16  1  0
 16 17  1  0
 16 18  1  0
 16 19  1  0
 19 20  1  0
 20 21  2  0
 21 22  1  0
 21 23  1  0
 23 24  1  0
 23 25  2  0
 25 26  1  0
 25 27  1  0
 27 28  1  0
 27 29  2  0
 29 30  1  0
 12 31  2  0
 31 32  1  0
  6 33  1  0
 33 34  1  0
 33 35  2  0
 35 36  1  0
 35  2  1  0
 31  7  1  0
 29 20  1  0
M  END
>  <cnnaffinity>  (1) 
-5.17433

>  <filename>  (1) 
c1ccc(OCCc2cc(-c3cccnc3)cnn2)cc1

$$$$
