
     RDKit          3D

 50 53  0  0  0  0  0  0  0  0999 V2000
    7.3946    6.2371   23.5160 C   0  0  0  0  0  0  0  0  0  0  0  0
    8.7741    5.9995   23.5033 C   0  0  0  0  0  0  0  0  0  0  0  0
    9.2560    4.7053   23.2837 C   0  0  0  0  0  0  0  0  0  0  0  0
    8.3704    3.6370   23.0829 C   0  0  0  0  0  0  0  0  0  0  0  0
    8.8874    2.2548   22.7782 C   0  0  0  0  0  0  0  0  0  0  0  0
    9.0281    2.0222   21.2679 C   0  0  0  0  0  0  0  0  0  0  0  0
    9.5367    0.6145   20.9259 C   0  0  0  0  0  0  0  0  0  0  0  0
    8.6408   -0.4615   21.4238 C   0  0  0  0  0  0  0  0  0  0  0  0
    8.8757   -1.2736   22.4378 N   0  0  0  0  0  0  0  0  0  0  0  0
    7.6991   -1.9332   22.5725 C   0  0  0  0  0  0  0  0  0  0  0  0
    7.4543   -2.9241   23.6774 C   0  0  0  0  0  0  0  0  0  0  0  0
    6.4832   -2.3587   24.7465 C   0  0  0  0  0  0  0  0  0  0  0  0
    6.1257   -3.4260   25.7772 C   0  0  0  0  0  0  0  0  0  0  0  0
    5.6079   -4.5942   25.1623 O   0  0  0  0  0  0  0  0  0  0  0  0
    6.5473   -5.2029   24.2929 C   0  0  0  0  0  0  0  0  0  0  0  0
    6.9325   -4.2775   23.1406 C   0  0  0  0  0  0  0  0  0  0  0  0
    6.0503   -4.0934   22.5160 H   0  0  0  0  0  0  0  0  0  0  0  0
    7.6892   -4.7604   22.5098 H   0  0  0  0  0  0  0  0  0  0  0  0
    6.0796   -6.1179   23.9214 H   0  0  0  0  0  0  0  0  0  0  0  0
    7.4497   -5.4872   24.8634 H   0  0  0  0  0  0  0  0  0  0  0  0
    7.0190   -3.6839   26.3723 H   0  0  0  0  0  0  0  0  0  0  0  0
    5.3539   -3.0667   26.4630 H   0  0  0  0  0  0  0  0  0  0  0  0
    6.9175   -1.4826   25.2450 H   0  0  0  0  0  0  0  0  0  0  0  0
    5.5651   -2.0308   24.2532 H   0  0  0  0  0  0  0  0  0  0  0  0
    8.4321   -3.0772   24.1478 H   0  0  0  0  0  0  0  0  0  0  0  0
    6.7642   -1.5941   21.7022 N   0  0  0  0  0  0  0  0  0  0  0  0
    7.3792   -0.6561   20.9410 N   0  0  0  0  0  0  0  0  0  0  0  0
    6.6630    0.0096   19.9046 C   0  0  0  0  0  0  0  0  0  0  0  0
    5.4405    0.6392   20.1676 C   0  0  0  0  0  0  0  0  0  0  0  0
    4.8131    1.3070   19.1099 C   0  0  0  0  0  0  0  0  0  0  0  0
    5.4004    1.2962   17.8375 C   0  0  0  0  0  0  0  0  0  0  0  0
    6.5597    0.6736   17.5747 N   0  0  0  0  0  0  0  0  0  0  0  0
    7.1687    0.0552   18.5934 C   0  0  0  0  0  0  0  0  0  0  0  0
    8.1122   -0.4348   18.3685 H   0  0  0  0  0  0  0  0  0  0  0  0
    4.9202    1.7871   16.9937 H   0  0  0  0  0  0  0  0  0  0  0  0
    3.8809    1.8380   19.2596 H   0  0  0  0  0  0  0  0  0  0  0  0
    5.0143    0.6082   21.1743 H   0  0  0  0  0  0  0  0  0  0  0  0
   10.5192    0.4393   21.3727 H   0  0  0  0  0  0  0  0  0  0  0  0
    9.6342    0.5151   19.8437 H   0  0  0  0  0  0  0  0  0  0  0  0
    9.7264    2.7583   20.8627 H   0  0  0  0  0  0  0  0  0  0  0  0
    8.0650    2.2016   20.7718 H   0  0  0  0  0  0  0  0  0  0  0  0
    9.8603    2.0949   23.2602 H   0  0  0  0  0  0  0  0  0  0  0  0
    8.2175    1.4978   23.2055 H   0  0  0  0  0  0  0  0  0  0  0  0
    6.9913    3.8907   23.0806 C   0  0  0  0  0  0  0  0  0  0  0  0
    6.5017    5.1812   23.2996 C   0  0  0  0  0  0  0  0  0  0  0  0
    5.4288    5.3595   23.2947 H   0  0  0  0  0  0  0  0  0  0  0  0
    6.3014    3.0689   22.8893 H   0  0  0  0  0  0  0  0  0  0  0  0
   10.3286    4.5188   23.2544 H   0  0  0  0  0  0  0  0  0  0  0  0
    9.4750    6.8151   23.6624 H   0  0  0  0  0  0  0  0  0  0  0  0
    7.0155    7.2409   23.6891 H   0  0  0  0  0  0  0  0  0  0  0  0
  1  2  2  0
  2  3  1  0
  3  4  2  0
  4  5  1  0
  5  6  1  0
  6  7  1  0
  7  8  1  0
  8  9  2  0
  9 10  1  0
 10 11  1  0
 11 12  1  0
 12 13  1  0
 13 14  1  0
 14 15  1  0
 15 16  1  0
 16 17  1  0
 16 18  1  0
 15 19  1  0
 15 20  1  0
 13 21  1  0
 13 22  1  0
 12 23  1  0
 12 24  1  0
 11 25  1  0
 10 26  2  0
 26 27  1  0
 27 28  1  0
 28 29  2  0
 29 30  1  0
 30 31  2  0
 31 32  1  0
 32 33  2  0
 33 34  1  0
 31 35  1  0
 30 36  1  0
 29 37  1  0
  7 38  1  0
  7 39  1  0
  6 40  1  0
  6 41  1  0
  5 42  1  0
  5 43  1  0
  4 44  1  0
 44 45  2  0
 45 46  1  0
 44 47  1  0
  3 48  1  0
  2 49  1  0
  1 50  1  0
 45  1  1  0
 27  8  1  0
 33 28  1  0
 16 11  1  0
M  END
>  <cnnaffinity>  (1) 
-6.00391

>  <filename>  (1) 
c1ccc(CCCc2nc(C3CCOCC3)nn2-c2cccnc2)cc1

$$$$
