
     RDKit          3D

 34 36  0  0  0  0  0  0  0  0999 V2000
    4.9125    1.8157   16.9018 H   0  0  0  0  0  0  0  0  0  0  0  0
    5.3772    1.3506   17.7755 C   0  0  0  0  0  0  0  0  0  0  0  0
    6.5543    0.7375   17.5801 N   0  0  0  0  0  0  0  0  0  0  0  0
    7.1349    0.1552   18.6387 C   0  0  0  0  0  0  0  0  0  0  0  0
    8.0822   -0.3342   18.4242 H   0  0  0  0  0  0  0  0  0  0  0  0
    6.6067    0.1425   19.9518 C   0  0  0  0  0  0  0  0  0  0  0  0
    7.2914   -0.5432   21.1010 C   0  0  0  0  0  0  0  0  0  0  0  0
    7.7376   -1.8765   20.9859 C   0  0  0  0  0  0  0  0  0  0  0  0
    7.4541   -2.4603   20.1272 H   0  0  0  0  0  0  0  0  0  0  0  0
    8.4131   -2.5233   21.9391 N   0  0  0  0  0  0  0  0  0  0  0  0
    8.6378   -1.9265   23.1098 N   0  0  0  0  0  0  0  0  0  0  0  0
    8.1620   -0.6940   23.3476 C   0  0  0  0  0  0  0  0  0  0  0  0
    8.3899   -0.1827   24.7677 C   0  0  0  0  0  0  0  0  0  0  0  0
    7.8762    0.7755   24.9098 H   0  0  0  0  0  0  0  0  0  0  0  0
    7.9154   -0.8968   25.4499 H   0  0  0  0  0  0  0  0  0  0  0  0
    9.7767   -0.0560   25.2130 N   0  0  0  0  0  0  0  0  0  0  0  0
   10.1720   -0.9296   25.5336 H   0  0  0  0  0  0  0  0  0  0  0  0
   10.7271    0.6812   24.5077 C   0  0  0  0  0  0  0  0  0  0  0  0
   10.4073    1.6905   23.5806 C   0  0  0  0  0  0  0  0  0  0  0  0
    9.3725    1.8737   23.3201 H   0  0  0  0  0  0  0  0  0  0  0  0
   11.4249    2.4388   22.9773 C   0  0  0  0  0  0  0  0  0  0  0  0
   11.1653    3.2143   22.2580 H   0  0  0  0  0  0  0  0  0  0  0  0
   12.7665    2.1847   23.2710 C   0  0  0  0  0  0  0  0  0  0  0  0
   13.5538    2.7756   22.8094 H   0  0  0  0  0  0  0  0  0  0  0  0
   13.0858    1.1481   24.1557 C   0  0  0  0  0  0  0  0  0  0  0  0
   14.1218    0.8836   24.3349 H   0  0  0  0  0  0  0  0  0  0  0  0
   12.0788    0.4175   24.7804 C   0  0  0  0  0  0  0  0  0  0  0  0
   12.3135   -0.3699   25.4900 H   0  0  0  0  0  0  0  0  0  0  0  0
    7.4835    0.0403   22.3495 C   0  0  0  0  0  0  0  0  0  0  0  0
    7.1151    1.0410   22.5600 H   0  0  0  0  0  0  0  0  0  0  0  0
    5.3739    0.7857   20.1226 C   0  0  0  0  0  0  0  0  0  0  0  0
    4.9048    0.7958   21.1069 H   0  0  0  0  0  0  0  0  0  0  0  0
    4.7493    1.3838   19.0234 C   0  0  0  0  0  0  0  0  0  0  0  0
    3.7918    1.8781   19.1177 H   0  0  0  0  0  0  0  0  0  0  0  0
  1  2  1  0
  2  3  2  0
  3  4  1  0
  4  5  1  0
  4  6  2  0
  6  7  1  0
  7  8  2  0
  8  9  1  0
  8 10  1  0
 10 11  2  0
 11 12  1  0
 12 13  1  0
 13 14  1  0
 13 15  1  0
 13 16  1  0
 16 17  1  0
 16 18  1  0
 18 19  2  0
 19 20  1  0
 19 21  1  0
 21 22  1  0
 21 23  2  0
 23 24  1  0
 23 25  1  0
 25 26  1  0
 25 27  2  0
 27 28  1  0
 12 29  2  0
 29 30  1  0
  6 31  1  0
 31 32  1  0
 31 33  2  0
 33 34  1  0
 33  2  1  0
 29  7  1  0
 27 18  1  0
M  END
>  <cnnaffinity>  (1) 
-5.29997

>  <filename>  (1) 
c1ccc(NCc2cc(-c3cccnc3)cnn2)cc1

$$$$
