
     RDKit          3D

 45 48  0  0  0  0  0  0  0  0999 V2000
    4.9642    1.8427   17.0153 H   0  0  0  0  0  0  0  0  0  0  0  0
    5.4421    1.3159   17.8393 C   0  0  0  0  0  0  0  0  0  0  0  0
    6.6107    0.7143   17.5642 N   0  0  0  0  0  0  0  0  0  0  0  0
    7.2240    0.0737   18.5687 C   0  0  0  0  0  0  0  0  0  0  0  0
    8.1626   -0.4171   18.3214 H   0  0  0  0  0  0  0  0  0  0  0  0
    6.7286   -0.0289   19.8987 C   0  0  0  0  0  0  0  0  0  0  0  0
    7.3993   -0.7841   20.8702 N   0  0  0  0  0  0  0  0  0  0  0  0
    6.8479   -1.0636   22.1999 C   0  0  1  0  0  0  0  0  0  0  0  0
    5.8052   -1.3692   22.1025 H   0  0  0  0  0  0  0  0  0  0  0  0
    7.7301   -2.2579   22.6169 C   0  0  0  0  0  0  0  0  0  0  0  0
    7.2952   -3.1767   22.2148 H   0  0  0  0  0  0  0  0  0  0  0  0
    7.7892   -2.3625   23.7038 H   0  0  0  0  0  0  0  0  0  0  0  0
    9.0894   -1.9643   21.9491 C   0  0  0  0  0  0  0  0  0  0  0  0
    9.8956   -1.8245   22.6744 H   0  0  0  0  0  0  0  0  0  0  0  0
    9.3699   -2.7839   21.2826 H   0  0  0  0  0  0  0  0  0  0  0  0
    8.8426   -0.6803   21.1207 C   0  0  2  0  0  0  0  0  0  0  0  0
    9.3998   -0.7121   20.1781 H   0  0  0  0  0  0  0  0  0  0  0  0
    9.1894    0.6306   21.8927 C   0  0  0  0  0  0  0  0  0  0  0  0
    9.5506    1.3715   21.1711 H   0  0  0  0  0  0  0  0  0  0  0  0
   10.0353    0.4158   22.5598 H   0  0  0  0  0  0  0  0  0  0  0  0
    8.0036    1.2343   22.7077 C   0  0  2  0  0  0  0  0  0  0  0  0
    7.4712    1.9196   22.0301 H   0  0  0  0  0  0  0  0  0  0  0  0
    8.4577    2.0814   23.9158 C   0  0  0  0  0  0  0  0  0  0  0  0
    9.1014    1.4714   24.5800 H   0  0  0  0  0  0  0  0  0  0  0  0
    7.5806    2.3692   24.5189 H   0  0  0  0  0  0  0  0  0  0  0  0
    9.1398    3.2790   23.4897 N   0  0  0  0  0  0  0  0  0  0  0  0
    9.3414    3.3999   22.5106 H   0  0  0  0  0  0  0  0  0  0  0  0
    9.6426    4.2575   24.3169 C   0  0  0  0  0  0  0  0  0  0  0  0
   10.5251    5.2046   23.7600 C   0  0  0  0  0  0  0  0  0  0  0  0
   10.6890    5.1980   22.6874 H   0  0  0  0  0  0  0  0  0  0  0  0
   11.1240    6.1759   24.5601 C   0  0  0  0  0  0  0  0  0  0  0  0
   11.8108    6.8900   24.1057 H   0  0  0  0  0  0  0  0  0  0  0  0
   10.8121    6.2622   25.9215 C   0  0  0  0  0  0  0  0  0  0  0  0
   11.2945    7.0196   26.5332 H   0  0  0  0  0  0  0  0  0  0  0  0
    9.8793    5.3723   26.4690 C   0  0  0  0  0  0  0  0  0  0  0  0
    9.5600    5.4604   27.5047 H   0  0  0  0  0  0  0  0  0  0  0  0
    9.3164    4.3618   25.6834 C   0  0  0  0  0  0  0  0  0  0  0  0
    8.6312    3.6491   26.1296 H   0  0  0  0  0  0  0  0  0  0  0  0
    6.9931    0.1488   23.1673 C   0  0  0  0  0  0  0  0  0  0  0  0
    6.0155    0.6166   23.3333 H   0  0  0  0  0  0  0  0  0  0  0  0
    7.3065   -0.2319   24.1489 H   0  0  0  0  0  0  0  0  0  0  0  0
    5.4931    0.6040   20.1488 C   0  0  0  0  0  0  0  0  0  0  0  0
    5.0535    0.5557   21.1427 H   0  0  0  0  0  0  0  0  0  0  0  0
    4.8553    1.2866   19.1075 C   0  0  0  0  0  0  0  0  0  0  0  0
    3.9150    1.7993   19.2755 H   0  0  0  0  0  0  0  0  0  0  0  0
  1  2  1  0
  2  3  2  0
  3  4  1  0
  4  5  1  0
  4  6  2  0
  6  7  1  0
  7  8  1  0
  8  9  1  6
  8 10  1  0
 10 11  1  0
 10 12  1  0
 10 13  1  0
 13 14  1  0
 13 15  1  0
 13 16  1  0
 16 17  1  6
 16 18  1  0
 18 19  1  0
 18 20  1  0
 18 21  1  0
 21 22  1  6
 21 23  1  0
 23 24  1  0
 23 25  1  0
 23 26  1  0
 26 27  1  0
 26 28  1  0
 28 29  2  0
 29 30  1  0
 29 31  1  0
 31 32  1  0
 31 33  2  0
 33 34  1  0
 33 35  1  0
 35 36  1  0
 35 37  2  0
 37 38  1  0
 21 39  1  0
 39 40  1  0
 39 41  1  0
  6 42  1  0
 42 43  1  0
 42 44  2  0
 44 45  1  0
 44  2  1  0
 16  7  1  0
 37 28  1  0
 39  8  1  0
M  END
>  <cnnaffinity>  (1) 
-5.17604

>  <filename>  (1) 
c1ccc(NC[C@H]2C[C@H]3CC[C@@H](C2)N3c2cccnc2)cc1

$$$$
