
     RDKit          3D

 47 51  0  0  0  0  0  0  0  0999 V2000
   14.1235   -1.2717   21.3050 C   0  0  0  0  0  0  0  0  0  0  0  0
   13.9337   -0.2523   22.2468 C   0  0  0  0  0  0  0  0  0  0  0  0
   12.6399    0.1134   22.6290 C   0  0  0  0  0  0  0  0  0  0  0  0
   11.5290   -0.5501   22.0722 C   0  0  0  0  0  0  0  0  0  0  0  0
   10.1353   -0.1029   22.2704 C   0  0  0  0  0  0  0  0  0  0  0  0
    9.1371   -0.7187   21.6574 N   0  0  0  0  0  0  0  0  0  0  0  0
    8.0554    0.0296   21.9423 N   0  0  0  0  0  0  0  0  0  0  0  0
    6.7692   -0.5293   21.5014 C   0  0  0  0  0  0  0  0  0  0  0  0
    6.3024   -0.0989   20.1138 C   0  0  0  0  0  0  0  0  0  0  0  0
    4.9651    0.2494   19.8810 C   0  0  0  0  0  0  0  0  0  0  0  0
    4.5776    0.6556   18.5999 C   0  0  0  0  0  0  0  0  0  0  0  0
    5.5452    0.6919   17.5925 C   0  0  0  0  0  0  0  0  0  0  0  0
    6.8176    0.3160   17.7764 N   0  0  0  0  0  0  0  0  0  0  0  0
    7.1759   -0.0776   19.0071 C   0  0  0  0  0  0  0  0  0  0  0  0
    8.2078   -0.4183   19.1007 H   0  0  0  0  0  0  0  0  0  0  0  0
    5.2844    1.0285   16.5911 H   0  0  0  0  0  0  0  0  0  0  0  0
    3.5604    0.9570   18.3752 H   0  0  0  0  0  0  0  0  0  0  0  0
    4.2332    0.2067   20.6901 H   0  0  0  0  0  0  0  0  0  0  0  0
    6.8926   -1.6203   21.5301 H   0  0  0  0  0  0  0  0  0  0  0  0
    6.0078   -0.2903   22.2483 H   0  0  0  0  0  0  0  0  0  0  0  0
    8.4546    1.1037   22.7037 C   0  0  0  0  0  0  0  0  0  0  0  0
    7.5621    2.2538   23.1035 C   0  0  0  0  0  0  0  0  0  0  0  0
    7.2201    3.2492   21.9652 C   0  0  0  0  0  0  0  0  0  0  0  0
    7.1245    3.1510   22.0011 C   0  0  0  0  0  0  0  0  0  0  0  0
    9.4955    4.6243   23.0435 C   0  0  0  0  0  0  0  0  0  0  0  0
   10.3765    5.5697   23.2578 N   0  0  0  0  0  0  0  0  0  0  0  0
   10.5311    5.6211   24.6220 C   0  0  0  0  0  0  0  0  0  0  0  0
    9.7396    4.6934   25.2409 C   0  0  0  0  0  0  0  0  0  0  0  0
    9.0867    4.0229   24.2362 N   0  0  0  0  0  0  0  0  0  0  0  0
    8.0908    2.9326   24.4084 C   0  0  0  0  0  0  0  0  0  0  0  0
    8.5749    2.1757   25.0467 H   0  0  0  0  0  0  0  0  0  0  0  0
    7.2629    3.3358   25.0211 H   0  0  0  0  0  0  0  0  0  0  0  0
    9.5576    4.4754   26.2845 H   0  0  0  0  0  0  0  0  0  0  0  0
   11.1925    6.3498   25.0741 H   0  0  0  0  0  0  0  0  0  0  0  0
    8.9012    4.3176   22.1138 H   0  0  0  0  0  0  0  0  0  0  0  0
    8.1615    3.1709   21.1391 H   0  0  0  0  0  0  0  0  0  0  0  0
    6.2957    2.4906   21.2860 H   0  0  0  0  0  0  0  0  0  0  0  0
    6.2424    3.9835   22.4040 H   0  0  0  0  0  0  0  0  0  0  0  0
    6.6699    1.6846   23.4638 H   0  0  0  0  0  0  0  0  0  0  0  0
    9.7536    0.9903   22.9629 N   0  0  0  0  0  0  0  0  0  0  0  0
   11.7446   -1.6176   21.1857 C   0  0  0  0  0  0  0  0  0  0  0  0
   13.0296   -1.9383   20.7666 C   0  0  0  0  0  0  0  0  0  0  0  0
   13.1882   -2.6936   20.0005 H   0  0  0  0  0  0  0  0  0  0  0  0
   10.8806   -2.1605   20.8111 H   0  0  0  0  0  0  0  0  0  0  0  0
   12.4928    0.9300   23.3326 H   0  0  0  0  0  0  0  0  0  0  0  0
   14.7845    0.2891   22.6506 H   0  0  0  0  0  0  0  0  0  0  0  0
   15.0920   -1.5696   20.9378 H   0  0  0  0  0  0  0  0  0  0  0  0
  1  2  2  0
  2  3  1  0
  3  4  2  0
  4  5  1  0
  5  6  2  0
  6  7  1  0
  7  8  1  0
  8  9  1  0
  9 10  2  0
 10 11  1  0
 11 12  2  0
 12 13  1  0
 13 14  2  0
 14 15  1  0
 12 16  1  0
 11 17  1  0
 10 18  1  0
  8 19  1  0
  8 20  1  0
  7 21  1  0
 21 22  1  0
 22 23  1  0
 23 24  1  0
 24 25  1  0
 25 26  2  0
 26 27  1  0
 27 28  2  0
 28 29  1  0
 29 30  1  0
 30 31  1  0
 30 32  1  0
 28 33  1  0
 27 34  1  0
 24 35  1  0
 24 36  1  0
 23 37  1  0
 23 38  1  0
 22 39  1  0
 21 40  2  0
  4 41  1  0
 41 42  2  0
 42 43  1  0
 41 44  1  0
  3 45  1  0
  2 46  1  0
  1 47  1  0
 42  1  1  0
 40  5  1  0
 14  9  1  0
 30 22  1  0
 29 25  1  0
M  END
>  <cnnaffinity>  (1) 
-6.53019

>  <filename>  (1) 
c1ccc(-c2nc(C3CCc4nccn4C3)n(Cc3cccnc3)n2)cc1

$$$$
