
     RDKit          3D

 33 35  0  0  0  0  0  0  0  0999 V2000
    8.4446   -5.7194   26.8550 H   0  0  0  0  0  0  0  0  0  0  0  0
    7.8785   -5.2715   26.0394 C   0  0  0  0  0  0  0  0  0  0  0  0
    8.3414   -4.1012   25.5855 N   0  0  0  0  0  0  0  0  0  0  0  0
    7.6885   -3.5293   24.5616 C   0  0  0  0  0  0  0  0  0  0  0  0
    8.2553   -2.2376   24.0138 C   0  0  0  0  0  0  0  0  0  0  0  0
    7.4383   -1.5428   23.7793 H   0  0  0  0  0  0  0  0  0  0  0  0
    8.8963   -1.7623   24.7581 H   0  0  0  0  0  0  0  0  0  0  0  0
    9.0389   -2.5351   22.8334 O   0  0  0  0  0  0  0  0  0  0  0  0
    9.3912   -1.4825   22.0532 C   0  0  0  0  0  0  0  0  0  0  0  0
    8.6841   -0.6618   21.1949 C   0  0  0  0  0  0  0  0  0  0  0  0
    7.3073   -0.6811   20.9368 N   0  0  0  0  0  0  0  0  0  0  0  0
    6.7367   -1.1941   21.5934 H   0  0  0  0  0  0  0  0  0  0  0  0
    6.6556   -0.0059   19.9025 C   0  0  0  0  0  0  0  0  0  0  0  0
    7.1689    0.0612   18.5824 C   0  0  0  0  0  0  0  0  0  0  0  0
    8.1170   -0.4285   18.3714 H   0  0  0  0  0  0  0  0  0  0  0  0
    6.5568    0.6829   17.5643 N   0  0  0  0  0  0  0  0  0  0  0  0
    5.3939    1.2999   17.8316 C   0  0  0  0  0  0  0  0  0  0  0  0
    4.9142    1.7913   16.9905 H   0  0  0  0  0  0  0  0  0  0  0  0
    4.8086    1.3068   19.1038 C   0  0  0  0  0  0  0  0  0  0  0  0
    3.8808    1.8382   19.2615 H   0  0  0  0  0  0  0  0  0  0  0  0
    5.4336    0.6322   20.1573 C   0  0  0  0  0  0  0  0  0  0  0  0
    5.0201    0.6218   21.1678 H   0  0  0  0  0  0  0  0  0  0  0  0
    9.6760    0.2016   20.6655 C   0  0  0  0  0  0  0  0  0  0  0  0
    9.5226    1.0022   19.9609 H   0  0  0  0  0  0  0  0  0  0  0  0
   10.8865   -0.0618   21.1305 N   0  0  0  0  0  0  0  0  0  0  0  0
   10.6867   -1.1055   21.9624 N   0  0  0  0  0  0  0  0  0  0  0  0
   11.4681   -1.5160   22.4402 H   0  0  0  0  0  0  0  0  0  0  0  0
    6.5467   -4.1028   23.9822 C   0  0  0  0  0  0  0  0  0  0  0  0
    6.0535   -3.5985   23.1611 H   0  0  0  0  0  0  0  0  0  0  0  0
    6.0589   -5.3164   24.4705 C   0  0  0  0  0  0  0  0  0  0  0  0
    5.1694   -5.7827   24.0387 H   0  0  0  0  0  0  0  0  0  0  0  0
    6.7462   -5.9127   25.5288 C   0  0  0  0  0  0  0  0  0  0  0  0
    6.4232   -6.8518   25.9635 H   0  0  0  0  0  0  0  0  0  0  0  0
  1  2  1  0
  2  3  2  0
  3  4  1  0
  4  5  1  0
  5  6  1  0
  5  7  1  0
  5  8  1  0
  8  9  1  0
  9 10  2  0
 10 11  1  0
 11 12  1  0
 11 13  1  0
 13 14  2  0
 14 15  1  0
 14 16  1  0
 16 17  2  0
 17 18  1  0
 17 19  1  0
 19 20  1  0
 19 21  2  0
 21 22  1  0
 10 23  1  0
 23 24  1  0
 23 25  2  0
 25 26  1  0
 26 27  1  0
  4 28  2  0
 28 29  1  0
 28 30  1  0
 30 31  1  0
 30 32  2  0
 32 33  1  0
 32  2  1  0
 26  9  1  0
 21 13  1  0
M  END
>  <cnnaffinity>  (1) 
-5.31378

>  <filename>  (1) 
c1ccc(COc2[nH]ncc2Nc2cccnc2)nc1

$$$$
