
     RDKit          3D

 42 45  0  0  0  0  0  0  0  0999 V2000
   14.4156   -1.2049   20.9384 C   0  0  0  0  0  0  0  0  0  0  0  0
   13.3524   -2.0410   20.6368 C   0  0  0  0  0  0  0  0  0  0  0  0
   12.0859   -1.7316   21.1049 C   0  0  0  0  0  0  0  0  0  0  0  0
   11.8458   -0.5238   21.7727 C   0  0  0  0  0  0  0  0  0  0  0  0
   10.4359   -0.0972   21.8288 C   0  0  0  0  0  0  0  0  0  0  0  0
    9.4759   -0.8728   21.3443 N   0  0  0  0  0  0  0  0  0  0  0  0
    8.3584   -0.1474   21.5173 N   0  0  0  0  0  0  0  0  0  0  0  0
    7.0763   -0.7035   21.0844 C   0  0  0  0  0  0  0  0  0  0  0  0
    6.4189    0.0392   19.9399 C   0  0  0  0  0  0  0  0  0  0  0  0
    5.1978    0.7094   20.0677 C   0  0  0  0  0  0  0  0  0  0  0  0
    4.6760    1.3881   18.9614 C   0  0  0  0  0  0  0  0  0  0  0  0
    5.3913    1.3579   17.7604 C   0  0  0  0  0  0  0  0  0  0  0  0
    6.5507    0.6982   17.6089 N   0  0  0  0  0  0  0  0  0  0  0  0
    7.0415    0.0649   18.6805 C   0  0  0  0  0  0  0  0  0  0  0  0
    7.9852   -0.4584   18.5331 H   0  0  0  0  0  0  0  0  0  0  0  0
    5.0199    1.8814   16.8797 H   0  0  0  0  0  0  0  0  0  0  0  0
    3.7485    1.9491   19.0201 H   0  0  0  0  0  0  0  0  0  0  0  0
    4.6644    0.7095   21.0217 H   0  0  0  0  0  0  0  0  0  0  0  0
    7.3073   -1.7297   20.7790 H   0  0  0  0  0  0  0  0  0  0  0  0
    6.4071   -0.7634   21.9484 H   0  0  0  0  0  0  0  0  0  0  0  0
    8.6858    1.0165   22.1262 C   0  0  0  0  0  0  0  0  0  0  0  0
    7.7322    1.9168   22.8430 C   0  0  0  0  0  0  0  0  0  0  0  0
    7.7815    1.6402   24.3756 C   0  0  0  0  0  0  0  0  0  0  0  0
    7.4279    0.2149   24.7010 C   0  0  0  0  0  0  0  0  0  0  0  0
    6.1920   -0.3619   24.7002 C   0  0  0  0  0  0  0  0  0  0  0  0
    6.1450   -1.7295   24.8165 N   0  0  0  0  0  0  0  0  0  0  0  0
    7.3448   -2.2056   24.9266 C   0  0  0  0  0  0  0  0  0  0  0  0
    8.6085   -1.0285   24.9302 S   0  0  0  0  0  0  0  0  0  0  0  0
    7.5743   -3.2615   25.0224 H   0  0  0  0  0  0  0  0  0  0  0  0
    5.2542    0.1811   24.6249 H   0  0  0  0  0  0  0  0  0  0  0  0
    8.7989    1.8540   24.7311 H   0  0  0  0  0  0  0  0  0  0  0  0
    7.1005    2.3226   24.8985 H   0  0  0  0  0  0  0  0  0  0  0  0
    6.7175    1.7824   22.4547 H   0  0  0  0  0  0  0  0  0  0  0  0
    8.0187    2.9531   22.6502 H   0  0  0  0  0  0  0  0  0  0  0  0
    9.9985    1.0936   22.2929 N   0  0  0  0  0  0  0  0  0  0  0  0
   12.9360    0.2538   22.2056 C   0  0  0  0  0  0  0  0  0  0  0  0
   14.2273   -0.1083   21.8040 C   0  0  0  0  0  0  0  0  0  0  0  0
   15.0548    0.5280   22.0912 H   0  0  0  0  0  0  0  0  0  0  0  0
   12.7909    1.1505   22.8041 H   0  0  0  0  0  0  0  0  0  0  0  0
   11.2390   -2.3857   20.9555 H   0  0  0  0  0  0  0  0  0  0  0  0
   13.5154   -2.8948   19.9883 H   0  0  0  0  0  0  0  0  0  0  0  0
   15.3321   -1.4034   20.4006 H   0  0  0  0  0  0  0  0  0  0  0  0
  1  2  2  0
  2  3  1  0
  3  4  2  0
  4  5  1  0
  5  6  2  0
  6  7  1  0
  7  8  1  0
  8  9  1  0
  9 10  2  0
 10 11  1  0
 11 12  2  0
 12 13  1  0
 13 14  2  0
 14 15  1  0
 12 16  1  0
 11 17  1  0
 10 18  1  0
  8 19  1  0
  8 20  1  0
  7 21  1  0
 21 22  1  0
 22 23  1  0
 23 24  1  0
 24 25  2  0
 25 26  1  0
 26 27  2  0
 27 28  1  0
 27 29  1  0
 25 30  1  0
 23 31  1  0
 23 32  1  0
 22 33  1  0
 22 34  1  0
 21 35  2  0
  4 36  1  0
 36 37  2  0
 37 38  1  0
 36 39  1  0
  3 40  1  0
  2 41  1  0
  1 42  1  0
 37  1  1  0
 35  5  1  0
 14  9  1  0
 28 24  1  0
M  END
>  <cnnaffinity>  (1) 
-6.54154

>  <filename>  (1) 
c1ccc(-c2nc(CCc3cncs3)n(Cc3cccnc3)n2)cc1

$$$$
