
     RDKit          3D

 36 38  0  0  0  0  0  0  0  0999 V2000
    5.0979    1.8038   16.9547 H   0  0  0  0  0  0  0  0  0  0  0  0
    5.4811    1.2706   17.8226 C   0  0  0  0  0  0  0  0  0  0  0  0
    6.6080    0.5676   17.6378 N   0  0  0  0  0  0  0  0  0  0  0  0
    7.1040   -0.0749   18.7034 C   0  0  0  0  0  0  0  0  0  0  0  0
    8.0131   -0.6481   18.5336 H   0  0  0  0  0  0  0  0  0  0  0  0
    6.5263   -0.0626   19.9869 C   0  0  0  0  0  0  0  0  0  0  0  0
    7.2059   -0.7693   21.0857 C   0  0  0  0  0  0  0  0  0  0  0  0
    8.5450   -0.7925   21.4488 C   0  0  0  0  0  0  0  0  0  0  0  0
    9.6494    0.1146   20.9581 C   0  0  0  0  0  0  0  0  0  0  0  0
    9.6575    0.1287   19.8636 H   0  0  0  0  0  0  0  0  0  0  0  0
   10.6293   -0.2759   21.2527 H   0  0  0  0  0  0  0  0  0  0  0  0
    9.5110    1.5693   21.4454 C   0  0  0  0  0  0  0  0  0  0  0  0
    8.5212    1.9123   21.1209 H   0  0  0  0  0  0  0  0  0  0  0  0
    9.5073    1.6052   22.5500 H   0  0  0  0  0  0  0  0  0  0  0  0
   10.5064    2.4612   20.8574 N   0  0  0  0  0  0  0  0  0  0  0  0
   10.1052    3.2383   20.3426 H   0  0  0  0  0  0  0  0  0  0  0  0
   11.6989    2.8728   21.4478 C   0  0  0  0  0  0  0  0  0  0  0  0
   12.3656    4.0108   20.9388 C   0  0  0  0  0  0  0  0  0  0  0  0
   12.0104    4.4889   20.0335 H   0  0  0  0  0  0  0  0  0  0  0  0
   13.5229    4.4915   21.5450 C   0  0  0  0  0  0  0  0  0  0  0  0
   14.0125    5.3807   21.1502 H   0  0  0  0  0  0  0  0  0  0  0  0
   14.0835    3.8079   22.6280 C   0  0  0  0  0  0  0  0  0  0  0  0
   14.9887    4.1993   23.0702 H   0  0  0  0  0  0  0  0  0  0  0  0
   13.4869    2.6267   23.0820 C   0  0  0  0  0  0  0  0  0  0  0  0
   13.9540    2.0322   23.8634 H   0  0  0  0  0  0  0  0  0  0  0  0
   12.2944    2.1699   22.5066 C   0  0  0  0  0  0  0  0  0  0  0  0
   11.8152    1.2635   22.8502 H   0  0  0  0  0  0  0  0  0  0  0  0
    8.5906   -1.7434   22.4961 C   0  0  0  0  0  0  0  0  0  0  0  0
    9.4486   -2.0795   23.0586 H   0  0  0  0  0  0  0  0  0  0  0  0
    7.3972   -2.2433   22.7897 N   0  0  0  0  0  0  0  0  0  0  0  0
    6.5725   -1.6254   21.9294 N   0  0  0  0  0  0  0  0  0  0  0  0
    5.5799   -1.8022   21.9722 H   0  0  0  0  0  0  0  0  0  0  0  0
    5.3246    0.6478   20.1455 C   0  0  0  0  0  0  0  0  0  0  0  0
    4.8210    0.6816   21.1122 H   0  0  0  0  0  0  0  0  0  0  0  0
    4.8047    1.3308   19.0453 C   0  0  0  0  0  0  0  0  0  0  0  0
    3.8994    1.9209   19.1234 H   0  0  0  0  0  0  0  0  0  0  0  0
  1  2  1  0
  2  3  2  0
  3  4  1  0
  4  5  1  0
  4  6  2  0
  6  7  1  0
  7  8  2  0
  8  9  1  0
  9 10  1  0
  9 11  1  0
  9 12  1  0
 12 13  1  0
 12 14  1  0
 12 15  1  0
 15 16  1  0
 15 17  1  0
 17 18  2  0
 18 19  1  0
 18 20  1  0
 20 21  1  0
 20 22  2  0
 22 23  1  0
 22 24  1  0
 24 25  1  0
 24 26  2  0
 26 27  1  0
  8 28  1  0
 28 29  1  0
 28 30  2  0
 30 31  1  0
 31 32  1  0
  6 33  1  0
 33 34  1  0
 33 35  2  0
 35 36  1  0
 35  2  1  0
 31  7  1  0
 26 17  1  0
M  END
>  <cnnaffinity>  (1) 
-5.41465

>  <filename>  (1) 
c1ccc(NCCc2cn[nH]c2-c2cccnc2)cc1

$$$$
