
     RDKit          3D

 41 44  0  0  0  0  0  0  0  0999 V2000
   14.2055   -1.2794   21.1782 C   0  0  0  0  0  0  0  0  0  0  0  0
   13.9924   -0.1604   21.9968 C   0  0  0  0  0  0  0  0  0  0  0  0
   12.6838    0.2642   22.2575 C   0  0  0  0  0  0  0  0  0  0  0  0
   11.6008   -0.4976   21.7722 C   0  0  0  0  0  0  0  0  0  0  0  0
   10.1902   -0.0772   21.8625 C   0  0  0  0  0  0  0  0  0  0  0  0
    9.2243   -0.8829   21.4392 N   0  0  0  0  0  0  0  0  0  0  0  0
    8.1010   -0.1905   21.6844 N   0  0  0  0  0  0  0  0  0  0  0  0
    6.8273   -0.6987   21.1848 C   0  0  0  0  0  0  0  0  0  0  0  0
    6.3013    0.0630   19.9880 C   0  0  0  0  0  0  0  0  0  0  0  0
    5.0933    0.7647   20.0216 C   0  0  0  0  0  0  0  0  0  0  0  0
    4.6850    1.4513   18.8757 C   0  0  0  0  0  0  0  0  0  0  0  0
    5.5060    1.4117   17.7443 C   0  0  0  0  0  0  0  0  0  0  0  0
    6.6729    0.7505   17.6930 N   0  0  0  0  0  0  0  0  0  0  0  0
    7.0553    0.1043   18.8007 C   0  0  0  0  0  0  0  0  0  0  0  0
    8.0169   -0.4074   18.7507 H   0  0  0  0  0  0  0  0  0  0  0  0
    5.2158    1.9353   16.8367 H   0  0  0  0  0  0  0  0  0  0  0  0
    3.7626    2.0208   18.8535 H   0  0  0  0  0  0  0  0  0  0  0  0
    4.4929    0.7850   20.9361 H   0  0  0  0  0  0  0  0  0  0  0  0
    6.1080   -0.6987   22.0070 H   0  0  0  0  0  0  0  0  0  0  0  0
    7.0194   -1.7457   20.9333 H   0  0  0  0  0  0  0  0  0  0  0  0
    8.4268    1.0038   22.2215 C   0  0  0  0  0  0  0  0  0  0  0  0
    7.4267    1.8807   22.9122 C   0  0  0  0  0  0  0  0  0  0  0  0
    7.1207    1.2943   24.2765 C   0  0  0  0  0  0  0  0  0  0  0  0
    8.0637    1.1370   25.2584 C   0  0  0  0  0  0  0  0  0  0  0  0
    7.5139    0.4050   26.2731 N   0  0  0  0  0  0  0  0  0  0  0  0
    6.2227    0.0752   25.9493 C   0  0  0  0  0  0  0  0  0  0  0  0
    5.9487    0.6245   24.7184 C   0  0  0  0  0  0  0  0  0  0  0  0
    5.0167    0.5449   24.1708 H   0  0  0  0  0  0  0  0  0  0  0  0
    5.6109   -0.5278   26.6058 H   0  0  0  0  0  0  0  0  0  0  0  0
    8.0252    0.0682   27.0747 H   0  0  0  0  0  0  0  0  0  0  0  0
    9.0998    1.4505   25.2503 H   0  0  0  0  0  0  0  0  0  0  0  0
    7.8743    2.8759   22.9954 H   0  0  0  0  0  0  0  0  0  0  0  0
    6.5185    1.9735   22.3078 H   0  0  0  0  0  0  0  0  0  0  0  0
    9.7419    1.1163   22.3212 N   0  0  0  0  0  0  0  0  0  0  0  0
   11.8452   -1.6842   21.0586 C   0  0  0  0  0  0  0  0  0  0  0  0
   13.1388   -2.0204   20.6919 C   0  0  0  0  0  0  0  0  0  0  0  0
   13.3337   -2.8342   19.9973 H   0  0  0  0  0  0  0  0  0  0  0  0
   10.9909   -2.2835   20.7583 H   0  0  0  0  0  0  0  0  0  0  0  0
   12.5066    1.1906   22.8024 H   0  0  0  0  0  0  0  0  0  0  0  0
   14.8363    0.4196   22.3645 H   0  0  0  0  0  0  0  0  0  0  0  0
   15.1722   -1.5836   20.8264 H   0  0  0  0  0  0  0  0  0  0  0  0
  1  2  2  0
  2  3  1  0
  3  4  2  0
  4  5  1  0
  5  6  2  0
  6  7  1  0
  7  8  1  0
  8  9  1  0
  9 10  2  0
 10 11  1  0
 11 12  2  0
 12 13  1  0
 13 14  2  0
 14 15  1  0
 12 16  1  0
 11 17  1  0
 10 18  1  0
  8 19  1  0
  8 20  1  0
  7 21  1  0
 21 22  1  0
 22 23  1  0
 23 24  2  0
 24 25  1  0
 25 26  1  0
 26 27  2  0
 27 28  1  0
 26 29  1  0
 25 30  1  0
 24 31  1  0
 22 32  1  0
 22 33  1  0
 21 34  2  0
  4 35  1  0
 35 36  2  0
 36 37  1  0
 35 38  1  0
  3 39  1  0
  2 40  1  0
  1 41  1  0
 36  1  1  0
 34  5  1  0
 14  9  1  0
 27 23  1  0
M  END
>  <cnnaffinity>  (1) 
-6.30699

>  <filename>  (1) 
c1ccc(-c2nc(Cc3cc[nH]c3)n(Cc3cccnc3)n2)cc1

$$$$
