
     RDKit          3D

 43 46  0  0  0  0  0  0  0  0999 V2000
    4.9743    1.8049   16.9697 H   0  0  0  0  0  0  0  0  0  0  0  0
    5.4141    1.2989   17.8290 C   0  0  0  0  0  0  0  0  0  0  0  0
    6.5685    0.6547   17.5983 N   0  0  0  0  0  0  0  0  0  0  0  0
    7.1444    0.0332   18.6348 C   0  0  0  0  0  0  0  0  0  0  0  0
    8.0832   -0.4665   18.4067 H   0  0  0  0  0  0  0  0  0  0  0  0
    6.6136   -0.0075   19.9326 C   0  0  0  0  0  0  0  0  0  0  0  0
    7.3303   -0.7001   21.0198 C   0  0  0  0  0  0  0  0  0  0  0  0
    6.6903   -1.4375   21.9333 N   0  0  0  0  0  0  0  0  0  0  0  0
    7.6639   -1.8213   22.7709 N   0  0  0  0  0  0  0  0  0  0  0  0
    8.8795   -1.3441   22.4656 C   0  0  0  0  0  0  0  0  0  0  0  0
    8.7240   -0.6188   21.3051 C   0  0  0  0  0  0  0  0  0  0  0  0
    9.6791    0.3600   20.7063 C   0  0  0  0  0  0  0  0  0  0  0  0
   10.7039    0.1375   21.0461 H   0  0  0  0  0  0  0  0  0  0  0  0
    9.6768    0.2232   19.6212 H   0  0  0  0  0  0  0  0  0  0  0  0
    9.3364    1.7489   20.9762 N   0  0  0  0  0  0  0  0  0  0  0  0
    8.4194    1.9351   20.5673 H   0  0  0  0  0  0  0  0  0  0  0  0
    9.3248    2.1330   22.3977 C   0  0  0  0  0  0  0  0  0  0  0  0
    8.5805    1.5493   22.9767 H   0  0  0  0  0  0  0  0  0  0  0  0
   10.3150    1.9050   22.8315 H   0  0  0  0  0  0  0  0  0  0  0  0
    9.0428    3.6184   22.5842 C   0  0  0  0  0  0  0  0  0  0  0  0
    7.7239    4.1068   22.6093 C   0  0  0  0  0  0  0  0  0  0  0  0
    6.8904    3.4096   22.5440 H   0  0  0  0  0  0  0  0  0  0  0  0
    7.4609    5.4801   22.6794 C   0  0  0  0  0  0  0  0  0  0  0  0
    6.4324    5.8331   22.6743 H   0  0  0  0  0  0  0  0  0  0  0  0
    8.5160    6.3968   22.7344 C   0  0  0  0  0  0  0  0  0  0  0  0
    8.3096    7.4634   22.7464 H   0  0  0  0  0  0  0  0  0  0  0  0
    9.8338    5.9291   22.7259 C   0  0  0  0  0  0  0  0  0  0  0  0
   10.6646    6.6285   22.7126 H   0  0  0  0  0  0  0  0  0  0  0  0
   10.0903    4.5531   22.6789 C   0  0  0  0  0  0  0  0  0  0  0  0
   11.1203    4.2074   22.6209 H   0  0  0  0  0  0  0  0  0  0  0  0
    9.8295   -1.4851   23.6178 C   0  0  0  0  0  0  0  0  0  0  0  0
   10.1690   -0.4878   23.9370 H   0  0  0  0  0  0  0  0  0  0  0  0
   10.7451   -2.0219   23.3407 H   0  0  0  0  0  0  0  0  0  0  0  0
    8.9588   -2.2220   24.6920 C   0  0  0  0  0  0  0  0  0  0  0  0
    8.9427   -1.6744   25.6373 H   0  0  0  0  0  0  0  0  0  0  0  0
    9.3631   -3.2161   24.8922 H   0  0  0  0  0  0  0  0  0  0  0  0
    7.5081   -2.3462   24.1074 C   0  0  0  0  0  0  0  0  0  0  0  0
    7.1333   -3.3743   24.0551 H   0  0  0  0  0  0  0  0  0  0  0  0
    6.7604   -1.7414   24.6399 H   0  0  0  0  0  0  0  0  0  0  0  0
    5.3970    0.6636   20.1514 C   0  0  0  0  0  0  0  0  0  0  0  0
    4.9417    0.6519   21.1431 H   0  0  0  0  0  0  0  0  0  0  0  0
    4.7918    1.3265   19.0823 C   0  0  0  0  0  0  0  0  0  0  0  0
    3.8552    1.8673   19.1995 H   0  0  0  0  0  0  0  0  0  0  0  0
  1  2  1  0
  2  3  2  0
  3  4  1  0
  4  5  1  0
  4  6  2  0
  6  7  1  0
  7  8  2  0
  8  9  1  0
  9 10  1  0
 10 11  2  0
 11 12  1  0
 12 13  1  0
 12 14  1  0
 12 15  1  0
 15 16  1  0
 15 17  1  0
 17 18  1  0
 17 19  1  0
 17 20  1  0
 20 21  2  0
 21 22  1  0
 21 23  1  0
 23 24  1  0
 23 25  2  0
 25 26  1  0
 25 27  1  0
 27 28  1  0
 27 29  2  0
 29 30  1  0
 10 31  1  0
 31 32  1  0
 31 33  1  0
 31 34  1  0
 34 35  1  0
 34 36  1  0
 34 37  1  0
 37 38  1  0
 37 39  1  0
  6 40  1  0
 40 41  1  0
 40 42  2  0
 42 43  1  0
 42  2  1  0
 11  7  1  0
 29 20  1  0
 37  9  1  0
M  END
>  <cnnaffinity>  (1) 
-5.54575

>  <filename>  (1) 
c1ccc(CNCc2c(-c3cccnc3)nn3c2CCC3)cc1

$$$$
