
     RDKit          3D

 44 47  0  0  0  0  0  0  0  0999 V2000
    4.5286    3.2933   26.4721 C   0  0  0  0  0  0  0  0  0  0  0  0
    4.1161    2.2695   25.6153 C   0  0  0  0  0  0  0  0  0  0  0  0
    5.0963    1.5843   24.8974 C   0  0  0  0  0  0  0  0  0  0  0  0
    6.4427    1.9543   25.0415 C   0  0  0  0  0  0  0  0  0  0  0  0
    7.5043    1.2841   24.2066 C   0  0  0  0  0  0  0  0  0  0  0  0
    7.6463    1.8513   22.7551 C   0  0  0  0  0  0  0  0  0  0  0  0
    8.6359    1.0478   21.9649 C   0  0  0  0  0  0  0  0  0  0  0  0
    9.9460    1.1818   22.0830 N   0  0  0  0  0  0  0  0  0  0  0  0
   10.4191   -0.0129   21.6555 C   0  0  0  0  0  0  0  0  0  0  0  0
   11.8567   -0.4093   21.7368 C   0  0  0  0  0  0  0  0  0  0  0  0
   12.2665   -1.6504   21.2238 C   0  0  0  0  0  0  0  0  0  0  0  0
   13.6194   -1.9911   21.2380 C   0  0  0  0  0  0  0  0  0  0  0  0
   14.5491   -1.2186   21.8006 N   0  0  0  0  0  0  0  0  0  0  0  0
   14.1678   -0.0473   22.3168 C   0  0  0  0  0  0  0  0  0  0  0  0
   12.8500    0.4137   22.3038 C   0  0  0  0  0  0  0  0  0  0  0  0
   12.6317    1.3975   22.6974 H   0  0  0  0  0  0  0  0  0  0  0  0
   14.9640    0.5809   22.7141 H   0  0  0  0  0  0  0  0  0  0  0  0
   13.9744   -2.9067   20.7743 H   0  0  0  0  0  0  0  0  0  0  0  0
   11.5031   -2.3044   20.8368 H   0  0  0  0  0  0  0  0  0  0  0  0
    9.4823   -0.8420   21.2196 N   0  0  0  0  0  0  0  0  0  0  0  0
    8.3438   -0.1503   21.4091 N   0  0  0  0  0  0  0  0  0  0  0  0
    7.0626   -0.7302   21.0068 C   0  0  0  0  0  0  0  0  0  0  0  0
    6.3820    0.0160   19.8796 C   0  0  0  0  0  0  0  0  0  0  0  0
    5.1721    0.7041   20.0233 C   0  0  0  0  0  0  0  0  0  0  0  0
    4.6608    1.4061   18.9272 C   0  0  0  0  0  0  0  0  0  0  0  0
    5.3759    1.3886   17.7263 C   0  0  0  0  0  0  0  0  0  0  0  0
    6.5276    0.7182   17.5640 N   0  0  0  0  0  0  0  0  0  0  0  0
    7.0093    0.0619   18.6245 C   0  0  0  0  0  0  0  0  0  0  0  0
    7.9579   -0.4557   18.4796 H   0  0  0  0  0  0  0  0  0  0  0  0
    5.0148    1.9330   16.8546 H   0  0  0  0  0  0  0  0  0  0  0  0
    3.7462    1.9852   18.9942 H   0  0  0  0  0  0  0  0  0  0  0  0
    4.6468    0.7092   20.9819 H   0  0  0  0  0  0  0  0  0  0  0  0
    7.2874   -1.7584   20.7080 H   0  0  0  0  0  0  0  0  0  0  0  0
    6.4108   -0.7789   21.8865 H   0  0  0  0  0  0  0  0  0  0  0  0
    7.9952    2.8854   22.8032 H   0  0  0  0  0  0  0  0  0  0  0  0
    6.6803    1.8563   22.2401 H   0  0  0  0  0  0  0  0  0  0  0  0
    8.4661    1.3743   24.7250 H   0  0  0  0  0  0  0  0  0  0  0  0
    7.2787    0.2104   24.1388 H   0  0  0  0  0  0  0  0  0  0  0  0
    6.8381    2.9262   25.8785 N   0  0  0  0  0  0  0  0  0  0  0  0
    5.8936    3.5730   26.5725 C   0  0  0  0  0  0  0  0  0  0  0  0
    6.2469    4.3646   27.2326 H   0  0  0  0  0  0  0  0  0  0  0  0
    4.8457    0.7695   24.2242 H   0  0  0  0  0  0  0  0  0  0  0  0
    3.0614    2.0138   25.5114 H   0  0  0  0  0  0  0  0  0  0  0  0
    3.8195    3.8770   27.0463 H   0  0  0  0  0  0  0  0  0  0  0  0
  1  2  2  0
  2  3  1  0
  3  4  2  0
  4  5  1  0
  5  6  1  0
  6  7  1  0
  7  8  2  0
  8  9  1  0
  9 10  1  0
 10 11  2  0
 11 12  1  0
 12 13  2  0
 13 14  1  0
 14 15  2  0
 15 16  1  0
 14 17  1  0
 12 18  1  0
 11 19  1  0
  9 20  2  0
 20 21  1  0
 21 22  1  0
 22 23  1  0
 23 24  2  0
 24 25  1  0
 25 26  2  0
 26 27  1  0
 27 28  2  0
 28 29  1  0
 26 30  1  0
 25 31  1  0
 24 32  1  0
 22 33  1  0
 22 34  1  0
  6 35  1  0
  6 36  1  0
  5 37  1  0
  5 38  1  0
  4 39  1  0
 39 40  2  0
 40 41  1  0
  3 42  1  0
  2 43  1  0
  1 44  1  0
 40  1  1  0
 21  7  1  0
 28 23  1  0
 15 10  1  0
M  END
>  <cnnaffinity>  (1) 
-6.5024

>  <filename>  (1) 
c1ccc(CCc2nc(-c3ccncc3)nn2Cc2cccnc2)nc1

$$$$
