
     RDKit          3D

 36 38  0  0  0  0  0  0  0  0999 V2000
    4.9326    1.8237   16.9818 H   0  0  0  0  0  0  0  0  0  0  0  0
    5.4036    1.3081   17.8122 C   0  0  0  0  0  0  0  0  0  0  0  0
    6.5607    0.6767   17.5532 N   0  0  0  0  0  0  0  0  0  0  0  0
    7.1636    0.0410   18.5670 C   0  0  0  0  0  0  0  0  0  0  0  0
    8.1118   -0.4536   18.3429 H   0  0  0  0  0  0  0  0  0  0  0  0
    6.6336    0.0143   19.8726 C   0  0  0  0  0  0  0  0  0  0  0  0
    7.2856   -0.6763   20.9336 N   0  0  0  0  0  0  0  0  0  0  0  0
    7.5842   -0.2158   22.2005 C   0  0  0  0  0  0  0  0  0  0  0  0
    7.4260    1.0629   22.6823 N   0  0  0  0  0  0  0  0  0  0  0  0
    7.8867    0.9787   23.5856 H   0  0  0  0  0  0  0  0  0  0  0  0
    7.8927    2.1926   21.8832 C   0  0  0  0  0  0  0  0  0  0  0  0
    7.1813    2.3699   21.0689 H   0  0  0  0  0  0  0  0  0  0  0  0
    7.8550    3.0848   22.5195 H   0  0  0  0  0  0  0  0  0  0  0  0
    9.2910    2.0205   21.2784 C   0  0  0  0  0  0  0  0  0  0  0  0
    9.2875    1.1602   20.6038 H   0  0  0  0  0  0  0  0  0  0  0  0
    9.4600    2.8954   20.6599 H   0  0  0  0  0  0  0  0  0  0  0  0
   10.3987    1.8736   22.2853 C   0  0  0  0  0  0  0  0  0  0  0  0
   11.0046    0.6292   22.5023 C   0  0  0  0  0  0  0  0  0  0  0  0
   10.6940   -0.2242   21.9017 H   0  0  0  0  0  0  0  0  0  0  0  0
   11.9870    0.4808   23.4843 C   0  0  0  0  0  0  0  0  0  0  0  0
   12.4661   -0.4784   23.6300 H   0  0  0  0  0  0  0  0  0  0  0  0
   12.3615    1.5712   24.2705 C   0  0  0  0  0  0  0  0  0  0  0  0
   13.0954    1.4327   25.0576 H   0  0  0  0  0  0  0  0  0  0  0  0
   11.7750    2.8211   24.0489 C   0  0  0  0  0  0  0  0  0  0  0  0
   12.0612    3.6811   24.6435 H   0  0  0  0  0  0  0  0  0  0  0  0
   10.8064    2.9729   23.0548 C   0  0  0  0  0  0  0  0  0  0  0  0
   10.3713    3.9529   22.8611 H   0  0  0  0  0  0  0  0  0  0  0  0
    8.0797   -1.1489   22.9644 N   0  0  0  0  0  0  0  0  0  0  0  0
    8.0868   -2.2783   22.1899 C   0  0  0  0  0  0  0  0  0  0  0  0
    8.4359   -3.2099   22.6146 H   0  0  0  0  0  0  0  0  0  0  0  0
    7.5844   -2.0347   20.9468 C   0  0  0  0  0  0  0  0  0  0  0  0
    7.2584   -2.6747   20.1395 H   0  0  0  0  0  0  0  0  0  0  0  0
    5.4299    0.6772   20.1322 C   0  0  0  0  0  0  0  0  0  0  0  0
    5.0376    0.6816   21.1524 H   0  0  0  0  0  0  0  0  0  0  0  0
    4.7964    1.3302   19.0755 C   0  0  0  0  0  0  0  0  0  0  0  0
    3.8609    1.8585   19.2289 H   0  0  0  0  0  0  0  0  0  0  0  0
  1  2  1  0
  2  3  2  0
  3  4  1  0
  4  5  1  0
  4  6  2  0
  6  7  1  0
  7  8  1  0
  8  9  1  0
  9 10  1  0
  9 11  1  0
 11 12  1  0
 11 13  1  0
 11 14  1  0
 14 15  1  0
 14 16  1  0
 14 17  1  0
 17 18  2  0
 18 19  1  0
 18 20  1  0
 20 21  1  0
 20 22  2  0
 22 23  1  0
 22 24  1  0
 24 25  1  0
 24 26  2  0
 26 27  1  0
  8 28  2  0
 28 29  1  0
 29 30  1  0
 29 31  2  0
 31 32  1  0
  6 33  1  0
 33 34  1  0
 33 35  2  0
 35 36  1  0
 35  2  1  0
 31  7  1  0
 26 17  1  0
M  END
>  <cnnaffinity>  (1) 
-5.13415

>  <filename>  (1) 
c1ccc(CCNc2nccn2-c2cccnc2)cc1

$$$$
