
     RDKit          3D

 43 46  0  0  0  0  0  0  0  0999 V2000
    7.0343   -4.9338   25.6103 C   0  0  0  0  0  0  0  0  0  0  0  0
    6.0194   -4.6361   24.6932 C   0  0  0  0  0  0  0  0  0  0  0  0
    6.2232   -3.6766   23.7009 C   0  0  0  0  0  0  0  0  0  0  0  0
    7.4577   -2.9997   23.6131 C   0  0  0  0  0  0  0  0  0  0  0  0
    7.6747   -1.9803   22.5593 C   0  0  0  0  0  0  0  0  0  0  0  0
    6.7494   -1.6072   21.6911 N   0  0  0  0  0  0  0  0  0  0  0  0
    7.3720   -0.6642   20.9465 N   0  0  0  0  0  0  0  0  0  0  0  0
    6.6642    0.0106   19.9055 C   0  0  0  0  0  0  0  0  0  0  0  0
    5.4413    0.6404   20.1693 C   0  0  0  0  0  0  0  0  0  0  0  0
    4.8151    1.3078   19.1100 C   0  0  0  0  0  0  0  0  0  0  0  0
    5.4018    1.2963   17.8366 C   0  0  0  0  0  0  0  0  0  0  0  0
    6.5590    0.6719   17.5740 N   0  0  0  0  0  0  0  0  0  0  0  0
    7.1675    0.0544   18.5929 C   0  0  0  0  0  0  0  0  0  0  0  0
    8.1095   -0.4352   18.3659 H   0  0  0  0  0  0  0  0  0  0  0  0
    4.9227    1.7883   16.9915 H   0  0  0  0  0  0  0  0  0  0  0  0
    3.8825    1.8376   19.2592 H   0  0  0  0  0  0  0  0  0  0  0  0
    5.0175    0.6058   21.1774 H   0  0  0  0  0  0  0  0  0  0  0  0
    8.6401   -0.4926   21.4252 C   0  0  0  0  0  0  0  0  0  0  0  0
    9.5344    0.5931   20.9391 C   0  0  0  0  0  0  0  0  0  0  0  0
    9.0663    2.0013   21.3535 C   0  0  0  0  0  0  0  0  0  0  0  0
    8.9746    2.1858   22.8759 C   0  0  0  0  0  0  0  0  0  0  0  0
   10.2356    1.9818   23.5660 N   0  0  0  0  0  0  0  0  0  0  0  0
   11.3489    2.7832   23.4388 C   0  0  0  0  0  0  0  0  0  0  0  0
   12.3255    2.1586   24.1596 C   0  0  0  0  0  0  0  0  0  0  0  0
   11.8502    1.0164   24.7493 N   0  0  0  0  0  0  0  0  0  0  0  0
   10.6006    0.9314   24.3605 C   0  0  0  0  0  0  0  0  0  0  0  0
    9.9113    0.1208   24.5674 H   0  0  0  0  0  0  0  0  0  0  0  0
   13.3705    2.4363   24.2155 H   0  0  0  0  0  0  0  0  0  0  0  0
   11.3485    3.6899   22.8459 H   0  0  0  0  0  0  0  0  0  0  0  0
    8.6154    3.1909   23.1088 H   0  0  0  0  0  0  0  0  0  0  0  0
    8.2566    1.4822   23.3018 H   0  0  0  0  0  0  0  0  0  0  0  0
    8.0900    2.2213   20.9023 H   0  0  0  0  0  0  0  0  0  0  0  0
    9.7698    2.7417   20.9591 H   0  0  0  0  0  0  0  0  0  0  0  0
    9.6007    0.5423   19.8499 H   0  0  0  0  0  0  0  0  0  0  0  0
   10.5301    0.3972   21.3447 H   0  0  0  0  0  0  0  0  0  0  0  0
    8.8604   -1.3212   22.4230 N   0  0  0  0  0  0  0  0  0  0  0  0
    8.4760   -3.3033   24.5414 C   0  0  0  0  0  0  0  0  0  0  0  0
    8.2609   -4.2644   25.5311 C   0  0  0  0  0  0  0  0  0  0  0  0
    9.0520   -4.4934   26.2417 H   0  0  0  0  0  0  0  0  0  0  0  0
    9.4397   -2.7966   24.4872 H   0  0  0  0  0  0  0  0  0  0  0  0
    5.4339   -3.4337   22.9896 H   0  0  0  0  0  0  0  0  0  0  0  0
    5.0628   -5.1483   24.7516 H   0  0  0  0  0  0  0  0  0  0  0  0
    6.8685   -5.6823   26.3833 H   0  0  0  0  0  0  0  0  0  0  0  0
  1  2  2  0
  2  3  1  0
  3  4  2  0
  4  5  1  0
  5  6  2  0
  6  7  1  0
  7  8  1  0
  8  9  2  0
  9 10  1  0
 10 11  2  0
 11 12  1  0
 12 13  2  0
 13 14  1  0
 11 15  1  0
 10 16  1  0
  9 17  1  0
  7 18  1  0
 18 19  1  0
 19 20  1  0
 20 21  1  0
 21 22  1  0
 22 23  1  0
 23 24  2  0
 24 25  1  0
 25 26  2  0
 26 27  1  0
 24 28  1  0
 23 29  1  0
 21 30  1  0
 21 31  1  0
 20 32  1  0
 20 33  1  0
 19 34  1  0
 19 35  1  0
 18 36  2  0
  4 37  1  0
 37 38  2  0
 38 39  1  0
 37 40  1  0
  3 41  1  0
  2 42  1  0
  1 43  1  0
 38  1  1  0
 36  5  1  0
 13  8  1  0
 26 22  1  0
M  END
>  <cnnaffinity>  (1) 
-5.89951

>  <filename>  (1) 
c1ccc(-c2nc(CCCn3ccnc3)n(-c3cccnc3)n2)cc1

$$$$
