
     RDKit          3D

 39 42  0  0  0  0  0  0  0  0999 V2000
    8.3366    6.3043   22.9761 C   0  0  0  0  0  0  0  0  0  0  0  0
    7.3557    5.7872   22.1250 C   0  0  0  0  0  0  0  0  0  0  0  0
    7.4385    4.4414   21.7853 C   0  0  0  0  0  0  0  0  0  0  0  0
    8.4915    3.6637   22.2890 C   0  0  0  0  0  0  0  0  0  0  0  0
    8.6470    2.2352   21.8441 C   0  0  0  0  0  0  0  0  0  0  0  0
    7.6918    1.2868   22.6090 C   0  0  0  0  0  0  0  0  0  0  0  0
    7.7592   -0.1331   22.1786 C   0  0  0  0  0  0  0  0  0  0  0  0
    8.3190   -1.0900   22.8803 N   0  0  0  0  0  0  0  0  0  0  0  0
    8.2963   -2.1422   22.0278 C   0  0  0  0  0  0  0  0  0  0  0  0
    8.9377   -3.4142   22.4086 C   0  0  0  0  0  0  0  0  0  0  0  0
    8.2239   -4.7290   22.2551 C   0  0  0  0  0  0  0  0  0  0  0  0
    8.5320   -4.2007   23.6277 C   0  0  0  0  0  0  0  0  0  0  0  0
    7.7173   -3.8478   24.2560 H   0  0  0  0  0  0  0  0  0  0  0  0
    9.3474   -4.6694   24.1727 H   0  0  0  0  0  0  0  0  0  0  0  0
    8.7645   -5.5895   21.8698 H   0  0  0  0  0  0  0  0  0  0  0  0
    7.1911   -4.6663   21.9193 H   0  0  0  0  0  0  0  0  0  0  0  0
   10.0131   -3.3615   22.2625 H   0  0  0  0  0  0  0  0  0  0  0  0
    7.7571   -1.9033   20.8470 N   0  0  0  0  0  0  0  0  0  0  0  0
    7.3792   -0.6011   20.9531 N   0  0  0  0  0  0  0  0  0  0  0  0
    6.6509    0.0352   19.9040 C   0  0  0  0  0  0  0  0  0  0  0  0
    5.4353    0.6948   20.1393 C   0  0  0  0  0  0  0  0  0  0  0  0
    4.8176    1.3335   19.0584 C   0  0  0  0  0  0  0  0  0  0  0  0
    5.4319    1.3000   17.8036 C   0  0  0  0  0  0  0  0  0  0  0  0
    6.5754    0.6327   17.5648 N   0  0  0  0  0  0  0  0  0  0  0  0
    7.1557    0.0014   18.5918 C   0  0  0  0  0  0  0  0  0  0  0  0
    8.0677   -0.5534   18.3814 H   0  0  0  0  0  0  0  0  0  0  0  0
    4.9927    1.8251   16.9572 H   0  0  0  0  0  0  0  0  0  0  0  0
    3.8783    1.8612   19.1839 H   0  0  0  0  0  0  0  0  0  0  0  0
    4.9727    0.6867   21.1279 H   0  0  0  0  0  0  0  0  0  0  0  0
    7.9245    1.2967   23.6768 H   0  0  0  0  0  0  0  0  0  0  0  0
    6.6592    1.6291   22.5056 H   0  0  0  0  0  0  0  0  0  0  0  0
    9.6923    1.9496   22.0052 H   0  0  0  0  0  0  0  0  0  0  0  0
    8.4498    2.1658   20.7662 H   0  0  0  0  0  0  0  0  0  0  0  0
    9.3653    4.1329   23.1909 N   0  0  0  0  0  0  0  0  0  0  0  0
    9.3052    5.4361   23.4913 C   0  0  0  0  0  0  0  0  0  0  0  0
   10.0712    5.7976   24.1778 H   0  0  0  0  0  0  0  0  0  0  0  0
    6.7018    3.9820   21.1354 H   0  0  0  0  0  0  0  0  0  0  0  0
    6.5505    6.4032   21.7210 H   0  0  0  0  0  0  0  0  0  0  0  0
    8.3651    7.3494   23.2490 H   0  0  0  0  0  0  0  0  0  0  0  0
  1  2  2  0
  2  3  1  0
  3  4  2  0
  4  5  1  0
  5  6  1  0
  6  7  1  0
  7  8  2  0
  8  9  1  0
  9 10  1  0
 10 11  1  0
 11 12  1  0
 12 13  1  0
 12 14  1  0
 11 15  1  0
 11 16  1  0
 10 17  1  0
  9 18  2  0
 18 19  1  0
 19 20  1  0
 20 21  2  0
 21 22  1  0
 22 23  2  0
 23 24  1  0
 24 25  2  0
 25 26  1  0
 23 27  1  0
 22 28  1  0
 21 29  1  0
  6 30  1  0
  6 31  1  0
  5 32  1  0
  5 33  1  0
  4 34  1  0
 34 35  2  0
 35 36  1  0
  3 37  1  0
  2 38  1  0
  1 39  1  0
 35  1  1  0
 19  7  1  0
 25 20  1  0
 12 10  1  0
M  END
>  <cnnaffinity>  (1) 
-5.69199

>  <filename>  (1) 
c1ccc(CCc2nc(C3CC3)nn2-c2cccnc2)nc1

$$$$
