
     RDKit          3D

 46 49  0  0  0  0  0  0  0  0999 V2000
    6.9502   -5.4892   28.0108 H   0  0  0  0  0  0  0  0  0  0  0  0
    7.7948   -5.1806   27.3937 C   0  0  0  0  0  0  0  0  0  0  0  0
    7.4866   -4.5198   26.2769 N   0  0  0  0  0  0  0  0  0  0  0  0
    8.5079   -4.1405   25.4947 C   0  0  0  0  0  0  0  0  0  0  0  0
    8.1622   -3.3787   24.3880 N   0  0  0  0  0  0  0  0  0  0  0  0
    8.7685   -3.5104   23.0605 C   0  0  0  0  0  0  0  0  0  0  0  0
    8.0189   -3.9102   22.3557 H   0  0  0  0  0  0  0  0  0  0  0  0
    9.5808   -4.2432   23.0833 H   0  0  0  0  0  0  0  0  0  0  0  0
    9.3065   -2.1643   22.4807 C   0  0  0  0  0  0  0  0  0  0  0  0
   10.2924   -1.9450   22.9306 H   0  0  0  0  0  0  0  0  0  0  0  0
    9.4820   -2.3125   21.4050 H   0  0  0  0  0  0  0  0  0  0  0  0
    8.3867   -1.0211   22.6914 N   0  0  0  0  0  0  0  0  0  0  0  0
    8.2616   -0.0192   21.6630 C   0  0  0  0  0  0  0  0  0  0  0  0
    7.4299   -0.6353   20.6327 N   0  0  0  0  0  0  0  0  0  0  0  0
    6.7868   -1.1965   21.1716 H   0  0  0  0  0  0  0  0  0  0  0  0
    6.7622    0.0773   19.6026 C   0  0  0  0  0  0  0  0  0  0  0  0
    7.1874    0.1246   18.2527 C   0  0  0  0  0  0  0  0  0  0  0  0
    8.1096   -0.3787   17.9576 H   0  0  0  0  0  0  0  0  0  0  0  0
    6.5184    0.7486   17.2684 N   0  0  0  0  0  0  0  0  0  0  0  0
    5.3702    1.3662   17.5901 C   0  0  0  0  0  0  0  0  0  0  0  0
    4.8616    1.8878   16.7826 H   0  0  0  0  0  0  0  0  0  0  0  0
    4.8318    1.3508   18.8800 C   0  0  0  0  0  0  0  0  0  0  0  0
    3.9016    1.8692   19.0851 H   0  0  0  0  0  0  0  0  0  0  0  0
    5.5311    0.6860   19.8948 C   0  0  0  0  0  0  0  0  0  0  0  0
    5.1571    0.6370   20.9186 H   0  0  0  0  0  0  0  0  0  0  0  0
    7.8459    1.3855   22.2040 C   0  0  0  0  0  0  0  0  0  0  0  0
    6.8671    1.7328   21.8732 H   0  0  0  0  0  0  0  0  0  0  0  0
    7.8926    1.4322   23.2946 H   0  0  0  0  0  0  0  0  0  0  0  0
    9.0805    2.0273   21.5226 C   0  0  0  0  0  0  0  0  0  0  0  0
    9.7534    2.5701   22.1970 H   0  0  0  0  0  0  0  0  0  0  0  0
    8.8348    2.6943   20.6893 H   0  0  0  0  0  0  0  0  0  0  0  0
    9.5647    0.6107   21.1150 C   0  0  0  0  0  0  0  0  0  0  0  0
   10.4649    0.2716   21.6333 H   0  0  0  0  0  0  0  0  0  0  0  0
    9.6612    0.4270   20.0463 H   0  0  0  0  0  0  0  0  0  0  0  0
    7.1788   -1.3175   23.4675 C   0  0  0  0  0  0  0  0  0  0  0  0
    6.6779   -0.3871   23.7615 H   0  0  0  0  0  0  0  0  0  0  0  0
    6.4510   -1.9422   22.9151 H   0  0  0  0  0  0  0  0  0  0  0  0
    7.5463   -2.0921   24.7296 C   0  0  0  0  0  0  0  0  0  0  0  0
    6.6523   -2.2782   25.3346 H   0  0  0  0  0  0  0  0  0  0  0  0
    8.2340   -1.4830   25.3377 H   0  0  0  0  0  0  0  0  0  0  0  0
    9.8551   -4.3604   25.8155 C   0  0  0  0  0  0  0  0  0  0  0  0
   10.6111   -3.9480   25.1620 H   0  0  0  0  0  0  0  0  0  0  0  0
   10.1632   -5.0172   27.0017 C   0  0  0  0  0  0  0  0  0  0  0  0
   11.2002   -5.1757   27.2867 H   0  0  0  0  0  0  0  0  0  0  0  0
    9.0992   -5.4298   27.8128 C   0  0  0  0  0  0  0  0  0  0  0  0
    9.2621   -5.9241   28.7575 H   0  0  0  0  0  0  0  0  0  0  0  0
  1  2  1  0
  2  3  2  0
  3  4  1  0
  4  5  1  0
  5  6  1  0
  6  7  1  0
  6  8  1  0
  6  9  1  0
  9 10  1  0
  9 11  1  0
  9 12  1  0
 12 13  1  0
 13 14  1  0
 14 15  1  0
 14 16  1  0
 16 17  2  0
 17 18  1  0
 17 19  1  0
 19 20  2  0
 20 21  1  0
 20 22  1  0
 22 23  1  0
 22 24  2  0
 24 25  1  0
 13 26  1  0
 26 27  1  0
 26 28  1  0
 26 29  1  0
 29 30  1  0
 29 31  1  0
 29 32  1  0
 32 33  1  0
 32 34  1  0
 12 35  1  0
 35 36  1  0
 35 37  1  0
 35 38  1  0
 38 39  1  0
 38 40  1  0
  4 41  2  0
 41 42  1  0
 41 43  1  0
 43 44  1  0
 43 45  2  0
 45 46  1  0
 45  2  1  0
 38  5  1  0
 32 13  1  0
 24 16  1  0
M  END
>  <cnnaffinity>  (1) 
-5.60725

>  <filename>  (1) 
c1ccc(N2CCN(C3(Nc4cccnc4)CCC3)CC2)nc1

$$$$
