
     RDKit          3D

 40 43  0  0  0  0  0  0  0  0999 V2000
    5.5326    6.1287   24.4794 C   0  0  0  0  0  0  0  0  0  0  0  0
    4.6864    5.6858   23.4558 C   0  0  0  0  0  0  0  0  0  0  0  0
    4.5767    4.3123   23.2376 C   0  0  0  0  0  0  0  0  0  0  0  0
    5.3526    3.4391   24.0133 C   0  0  0  0  0  0  0  0  0  0  0  0
    5.3314    1.6850   23.6328 S   0  0  0  0  0  0  0  0  0  0  0  0
    6.9548    1.5165   22.7672 C   0  0  0  0  0  0  0  0  0  0  0  0
    7.2939    0.1222   22.3581 C   0  0  0  0  0  0  0  0  0  0  0  0
    8.0145   -0.6906   23.1054 N   0  0  0  0  0  0  0  0  0  0  0  0
    8.2251   -1.7679   22.3059 C   0  0  0  0  0  0  0  0  0  0  0  0
    8.9987   -2.9645   22.7477 C   0  0  0  0  0  0  0  0  0  0  0  0
   10.3175   -2.7401   23.5513 C   0  0  0  0  0  0  0  0  0  0  0  0
    9.8759   -3.8191   24.5675 C   0  0  0  0  0  0  0  0  0  0  0  0
    8.4588   -3.8146   23.9484 C   0  0  0  0  0  0  0  0  0  0  0  0
    8.0292   -4.7874   23.6875 H   0  0  0  0  0  0  0  0  0  0  0  0
    7.7307   -3.2651   24.5590 H   0  0  0  0  0  0  0  0  0  0  0  0
    9.9179   -3.5273   25.6210 H   0  0  0  0  0  0  0  0  0  0  0  0
   10.3937   -4.7827   24.4625 H   0  0  0  0  0  0  0  0  0  0  0  0
   10.3590   -1.7393   23.9964 H   0  0  0  0  0  0  0  0  0  0  0  0
   11.2490   -2.9321   23.0113 H   0  0  0  0  0  0  0  0  0  0  0  0
    9.1507   -3.5759   21.8544 H   0  0  0  0  0  0  0  0  0  0  0  0
    7.7077   -1.6572   21.0960 N   0  0  0  0  0  0  0  0  0  0  0  0
    7.0832   -0.4495   21.1313 N   0  0  0  0  0  0  0  0  0  0  0  0
    6.4760    0.0796   19.9629 C   0  0  0  0  0  0  0  0  0  0  0  0
    5.3611    0.9280   20.0216 C   0  0  0  0  0  0  0  0  0  0  0  0
    4.8958    1.4700   18.8195 C   0  0  0  0  0  0  0  0  0  0  0  0
    5.5404    1.1410   17.6254 C   0  0  0  0  0  0  0  0  0  0  0  0
    6.5962    0.3119   17.5632 N   0  0  0  0  0  0  0  0  0  0  0  0
    7.0452   -0.2108   18.7064 C   0  0  0  0  0  0  0  0  0  0  0  0
    7.9127   -0.8656   18.6457 H   0  0  0  0  0  0  0  0  0  0  0  0
    5.1997    1.5548   16.6806 H   0  0  0  0  0  0  0  0  0  0  0  0
    4.0643    2.1654   18.8041 H   0  0  0  0  0  0  0  0  0  0  0  0
    4.8799    1.1797   20.9680 H   0  0  0  0  0  0  0  0  0  0  0  0
    6.9595    2.1737   21.8915 H   0  0  0  0  0  0  0  0  0  0  0  0
    7.7476    1.8411   23.4473 H   0  0  0  0  0  0  0  0  0  0  0  0
    6.1378    3.8513   25.0158 N   0  0  0  0  0  0  0  0  0  0  0  0
    6.2110    5.1712   25.2374 C   0  0  0  0  0  0  0  0  0  0  0  0
    6.8625    5.4714   26.0569 H   0  0  0  0  0  0  0  0  0  0  0  0
    3.9338    3.9059   22.4637 H   0  0  0  0  0  0  0  0  0  0  0  0
    4.1381    6.3925   22.8296 H   0  0  0  0  0  0  0  0  0  0  0  0
    5.6708    7.1846   24.6881 H   0  0  0  0  0  0  0  0  0  0  0  0
  1  2  2  0
  2  3  1  0
  3  4  2  0
  4  5  1  0
  5  6  1  0
  6  7  1  0
  7  8  2  0
  8  9  1  0
  9 10  1  0
 10 11  1  0
 11 12  1  0
 12 13  1  0
 13 14  1  0
 13 15  1  0
 12 16  1  0
 12 17  1  0
 11 18  1  0
 11 19  1  0
 10 20  1  0
  9 21  2  0
 21 22  1  0
 22 23  1  0
 23 24  2  0
 24 25  1  0
 25 26  2  0
 26 27  1  0
 27 28  2  0
 28 29  1  0
 26 30  1  0
 25 31  1  0
 24 32  1  0
  6 33  1  0
  6 34  1  0
  4 35  1  0
 35 36  2  0
 36 37  1  0
  3 38  1  0
  2 39  1  0
  1 40  1  0
 36  1  1  0
 22  7  1  0
 28 23  1  0
 13 10  1  0
M  END
>  <cnnaffinity>  (1) 
-5.74722

>  <filename>  (1) 
c1ccc(SCc2nc(C3CCC3)nn2-c2cccnc2)nc1

$$$$
