
     RDKit          3D

 45 48  0  0  0  0  0  0  0  0999 V2000
    4.8177    1.2959   19.0988 C   0  0  0  0  0  0  0  0  0  0  0  0
    5.4087    1.2996   17.8303 C   0  0  0  0  0  0  0  0  0  0  0  0
    6.5456    0.6434   17.5548 N   0  0  0  0  0  0  0  0  0  0  0  0
    7.1368   -0.0176   18.5593 C   0  0  0  0  0  0  0  0  0  0  0  0
    6.6353   -0.0557   19.8719 C   0  0  0  0  0  0  0  0  0  0  0  0
    7.3317   -0.7245   20.9178 N   0  0  0  0  0  0  0  0  0  0  0  0
    6.6714   -1.6181   21.6997 N   0  0  0  0  0  0  0  0  0  0  0  0
    7.5936   -1.9883   22.5753 C   0  0  0  0  0  0  0  0  0  0  0  0
    7.3440   -3.0037   23.6537 C   0  0  0  0  0  0  0  0  0  0  0  0
    6.3619   -2.5198   24.7440 C   0  0  0  0  0  0  0  0  0  0  0  0
    5.7746   -3.7905   25.3835 C   0  0  0  0  0  0  0  0  0  0  0  0
    6.0368   -4.9488   24.3917 C   0  0  0  0  0  0  0  0  0  0  0  0
    6.7336   -4.3344   23.1628 C   0  0  0  0  0  0  0  0  0  0  0  0
    5.9994   -4.1237   22.3757 H   0  0  0  0  0  0  0  0  0  0  0  0
    7.4977   -5.0013   22.7468 H   0  0  0  0  0  0  0  0  0  0  0  0
    5.1072   -5.4459   24.0966 H   0  0  0  0  0  0  0  0  0  0  0  0
    6.6645   -5.7124   24.8653 H   0  0  0  0  0  0  0  0  0  0  0  0
    4.7052   -3.6559   25.5747 H   0  0  0  0  0  0  0  0  0  0  0  0
    6.2427   -4.0041   26.3504 H   0  0  0  0  0  0  0  0  0  0  0  0
    6.8579   -1.8702   25.4736 H   0  0  0  0  0  0  0  0  0  0  0  0
    5.5642   -1.9403   24.2737 H   0  0  0  0  0  0  0  0  0  0  0  0
    8.3208   -3.1972   24.1108 H   0  0  0  0  0  0  0  0  0  0  0  0
    8.7827   -1.3645   22.4383 N   0  0  0  0  0  0  0  0  0  0  0  0
    8.5996   -0.5636   21.4083 C   0  0  0  0  0  0  0  0  0  0  0  0
    9.6525    0.2854   20.7766 C   0  0  0  0  0  0  0  0  0  0  0  0
   10.6885    0.7975   21.7831 C   0  0  0  0  0  0  0  0  0  0  0  0
   11.5452    2.0057   21.3266 C   0  0  0  0  0  0  0  0  0  0  0  0
   12.5870    2.2643   22.2671 O   0  0  0  0  0  0  0  0  0  0  0  0
   13.3781    1.1250   22.5821 C   0  0  0  0  0  0  0  0  0  0  0  0
   12.5082   -0.0484   23.0243 C   0  0  0  0  0  0  0  0  0  0  0  0
   11.5297   -0.3279   22.0432 O   0  0  0  0  0  0  0  0  0  0  0  0
   12.0377    0.1603   23.9979 H   0  0  0  0  0  0  0  0  0  0  0  0
   13.1342   -0.9389   23.1024 H   0  0  0  0  0  0  0  0  0  0  0  0
   14.0607    1.4346   23.3786 H   0  0  0  0  0  0  0  0  0  0  0  0
   13.9937    0.7716   21.7425 H   0  0  0  0  0  0  0  0  0  0  0  0
   10.9404    2.9219   21.3110 H   0  0  0  0  0  0  0  0  0  0  0  0
   11.9347    1.8498   20.3153 H   0  0  0  0  0  0  0  0  0  0  0  0
   10.2062    1.1249   22.7192 H   0  0  0  0  0  0  0  0  0  0  0  0
   10.1647   -0.3905   20.0835 H   0  0  0  0  0  0  0  0  0  0  0  0
    9.1873    1.0950   20.2099 H   0  0  0  0  0  0  0  0  0  0  0  0
    5.4283    0.5958   20.1418 C   0  0  0  0  0  0  0  0  0  0  0  0
    5.0022    0.5577   21.1471 H   0  0  0  0  0  0  0  0  0  0  0  0
    8.0619   -0.5364   18.3174 H   0  0  0  0  0  0  0  0  0  0  0  0
    4.9538    1.8445   17.0034 H   0  0  0  0  0  0  0  0  0  0  0  0
    3.8943    1.8391   19.2606 H   0  0  0  0  0  0  0  0  0  0  0  0
  1  2  2  0
  2  3  1  0
  3  4  2  0
  4  5  1  0
  5  6  1  0
  6  7  1  0
  7  8  2  0
  8  9  1  0
  9 10  1  0
 10 11  1  0
 11 12  1  0
 12 13  1  0
 13 14  1  0
 13 15  1  0
 12 16  1  0
 12 17  1  0
 11 18  1  0
 11 19  1  0
 10 20  1  0
 10 21  1  0
  9 22  1  0
  8 23  1  0
 23 24  2  0
 24 25  1  0
 25 26  1  0
 26 27  1  0
 27 28  1  0
 28 29  1  0
 29 30  1  0
 30 31  1  0
 30 32  1  0
 30 33  1  0
 29 34  1  0
 29 35  1  0
 27 36  1  0
 27 37  1  0
 26 38  1  0
 25 39  1  0
 25 40  1  0
  5 41  2  0
 41 42  1  0
  4 43  1  0
  2 44  1  0
  1 45  1  0
 41  1  1  0
 24  6  1  0
 31 26  1  0
 13  9  1  0
M  END
>  <cnnaffinity>  (1) 
-5.87782

>  <filename>  (1) 
c1cncc(-n2nc(C3CCCC3)nc2CC2COCCO2)c1

$$$$
