
     RDKit          3D

 34 37  0  0  0  0  0  0  0  0999 V2000
    4.9847    1.7882   17.0084 H   0  0  0  0  0  0  0  0  0  0  0  0
    5.4328    1.2705   17.8548 C   0  0  0  0  0  0  0  0  0  0  0  0
    6.5898    0.6335   17.6169 N   0  0  0  0  0  0  0  0  0  0  0  0
    7.1862    0.0290   18.6510 C   0  0  0  0  0  0  0  0  0  0  0  0
    8.1341   -0.4627   18.4348 H   0  0  0  0  0  0  0  0  0  0  0  0
    6.6739    0.0053   19.9648 C   0  0  0  0  0  0  0  0  0  0  0  0
    7.3672   -0.6249   21.0015 N   0  0  0  0  0  0  0  0  0  0  0  0
    6.8372   -0.6988   22.2308 N   0  0  0  0  0  0  0  0  0  0  0  0
    7.6536   -1.3570   23.0054 C   0  0  0  0  0  0  0  0  0  0  0  0
    7.3483   -1.5734   24.4068 C   0  0  0  0  0  0  0  0  0  0  0  0
    6.1961   -0.9905   24.9460 C   0  0  0  0  0  0  0  0  0  0  0  0
    5.5875   -0.3553   24.3123 H   0  0  0  0  0  0  0  0  0  0  0  0
    5.8323   -1.1980   26.2828 C   0  0  0  0  0  0  0  0  0  0  0  0
    4.9107   -0.7601   26.6531 H   0  0  0  0  0  0  0  0  0  0  0  0
    6.6230   -1.9624   27.1334 C   0  0  0  0  0  0  0  0  0  0  0  0
    6.3298   -2.0759   28.1713 H   0  0  0  0  0  0  0  0  0  0  0  0
    7.7860   -2.5467   26.5987 C   0  0  0  0  0  0  0  0  0  0  0  0
    8.1811   -2.3664   25.2470 C   0  0  0  0  0  0  0  0  0  0  0  0
    9.4124   -3.1028   25.0901 C   0  0  0  0  0  0  0  0  0  0  0  0
   10.0455   -3.1747   24.2210 H   0  0  0  0  0  0  0  0  0  0  0  0
    9.6951   -3.6982   26.2808 C   0  0  0  0  0  0  0  0  0  0  0  0
   10.5237   -4.3430   26.5580 H   0  0  0  0  0  0  0  0  0  0  0  0
    8.7209   -3.3646   27.1894 N   0  0  0  0  0  0  0  0  0  0  0  0
    8.7387   -3.6292   28.1559 H   0  0  0  0  0  0  0  0  0  0  0  0
    8.8739   -1.8398   22.2819 C   0  0  0  0  0  0  0  0  0  0  0  0
    9.7884   -1.4877   22.7640 H   0  0  0  0  0  0  0  0  0  0  0  0
    8.9016   -2.9341   22.2744 H   0  0  0  0  0  0  0  0  0  0  0  0
    8.6614   -1.2654   20.8809 C   0  0  0  0  0  0  0  0  0  0  0  0
    9.4251   -0.5478   20.5532 H   0  0  0  0  0  0  0  0  0  0  0  0
    8.5983   -2.0433   20.1238 H   0  0  0  0  0  0  0  0  0  0  0  0
    5.4391    0.6468   20.1912 C   0  0  0  0  0  0  0  0  0  0  0  0
    5.0098    0.6424   21.1937 H   0  0  0  0  0  0  0  0  0  0  0  0
    4.8194    1.2870   19.1156 C   0  0  0  0  0  0  0  0  0  0  0  0
    3.8811    1.8179   19.2485 H   0  0  0  0  0  0  0  0  0  0  0  0
  1  2  1  0
  2  3  2  0
  3  4  1  0
  4  5  1  0
  4  6  2  0
  6  7  1  0
  7  8  1  0
  8  9  2  0
  9 10  1  0
 10 11  2  0
 11 12  1  0
 11 13  1  0
 13 14  1  0
 13 15  2  0
 15 16  1  0
 15 17  1  0
 17 18  2  0
 18 19  1  0
 19 20  1  0
 19 21  2  0
 21 22  1  0
 21 23  1  0
 23 24  1  0
  9 25  1  0
 25 26  1  0
 25 27  1  0
 25 28  1  0
 28 29  1  0
 28 30  1  0
  6 31  1  0
 31 32  1  0
 31 33  2  0
 33 34  1  0
 33  2  1  0
 28  7  1  0
 18 10  1  0
 23 17  1  0
M  END
>  <cnnaffinity>  (1) 
-4.82172

>  <filename>  (1) 
c1cncc(N2CCC(c3cccc4[nH]ccc34)=N2)c1

$$$$
