
     RDKit          3D

 38 41  0  0  0  0  0  0  0  0999 V2000
    4.8146    1.3090   19.1114 C   0  0  0  0  0  0  0  0  0  0  0  0
    5.4005    1.2960   17.8389 C   0  0  0  0  0  0  0  0  0  0  0  0
    6.5602    0.6729   17.5786 N   0  0  0  0  0  0  0  0  0  0  0  0
    7.1682    0.0514   18.5953 C   0  0  0  0  0  0  0  0  0  0  0  0
    6.6602    0.0024   19.9060 C   0  0  0  0  0  0  0  0  0  0  0  0
    7.3707   -0.6725   20.9427 N   0  0  0  0  0  0  0  0  0  0  0  0
    6.7425   -1.5920   21.7203 N   0  0  0  0  0  0  0  0  0  0  0  0
    7.6729   -1.9429   22.5847 C   0  0  0  0  0  0  0  0  0  0  0  0
    7.3988   -2.8822   23.7145 C   0  0  0  0  0  0  0  0  0  0  0  0
    6.6188   -4.1615   23.3159 C   0  0  0  0  0  0  0  0  0  0  0  0
    5.2245   -3.7325   24.4117 S   0  0  0  0  0  0  0  0  0  0  0  0
    6.3630   -2.3460   24.7485 C   0  0  0  0  0  0  0  0  0  0  0  0
    5.9330   -1.3707   24.4938 H   0  0  0  0  0  0  0  0  0  0  0  0
    6.7210   -2.3232   25.7827 H   0  0  0  0  0  0  0  0  0  0  0  0
    6.3270   -4.1973   22.2614 H   0  0  0  0  0  0  0  0  0  0  0  0
    7.1102   -5.0969   23.5998 H   0  0  0  0  0  0  0  0  0  0  0  0
    8.3619   -3.0993   24.1737 H   0  0  0  0  0  0  0  0  0  0  0  0
    8.8689   -1.3238   22.4248 N   0  0  0  0  0  0  0  0  0  0  0  0
    8.6431   -0.5047   21.4111 C   0  0  0  0  0  0  0  0  0  0  0  0
    9.5248    0.5995   20.9257 C   0  0  0  0  0  0  0  0  0  0  0  0
    9.0322    2.0067   21.3691 C   0  0  0  0  0  0  0  0  0  0  0  0
    8.9497    2.1244   22.8629 C   0  0  0  0  0  0  0  0  0  0  0  0
    9.9481    2.3278   23.7885 C   0  0  0  0  0  0  0  0  0  0  0  0
    9.3318    2.1663   25.0388 C   0  0  0  0  0  0  0  0  0  0  0  0
    8.0388    1.8727   24.9219 N   0  0  0  0  0  0  0  0  0  0  0  0
    7.8368    1.8675   23.5950 N   0  0  0  0  0  0  0  0  0  0  0  0
    6.9414    1.5761   23.2342 H   0  0  0  0  0  0  0  0  0  0  0  0
    9.7768    2.2770   26.0146 H   0  0  0  0  0  0  0  0  0  0  0  0
   10.9840    2.5430   23.5733 H   0  0  0  0  0  0  0  0  0  0  0  0
    8.0656    2.2371   20.9035 H   0  0  0  0  0  0  0  0  0  0  0  0
    9.7465    2.7596   21.0261 H   0  0  0  0  0  0  0  0  0  0  0  0
   10.5201    0.4027   21.3313 H   0  0  0  0  0  0  0  0  0  0  0  0
    9.5993    0.5704   19.8370 H   0  0  0  0  0  0  0  0  0  0  0  0
    5.4421    0.6405   20.1684 C   0  0  0  0  0  0  0  0  0  0  0  0
    5.0081    0.6071   21.1713 H   0  0  0  0  0  0  0  0  0  0  0  0
    8.1131   -0.4354   18.3688 H   0  0  0  0  0  0  0  0  0  0  0  0
    4.9193    1.7857   16.9946 H   0  0  0  0  0  0  0  0  0  0  0  0
    3.8815    1.8383   19.2619 H   0  0  0  0  0  0  0  0  0  0  0  0
  1  2  2  0
  2  3  1  0
  3  4  2  0
  4  5  1  0
  5  6  1  0
  6  7  1  0
  7  8  2  0
  8  9  1  0
  9 10  1  0
 10 11  1  0
 11 12  1  0
 12 13  1  0
 12 14  1  0
 10 15  1  0
 10 16  1  0
  9 17  1  0
  8 18  1  0
 18 19  2  0
 19 20  1  0
 20 21  1  0
 21 22  1  0
 22 23  2  0
 23 24  1  0
 24 25  2  0
 25 26  1  0
 26 27  1  0
 24 28  1  0
 23 29  1  0
 21 30  1  0
 21 31  1  0
 20 32  1  0
 20 33  1  0
  5 34  2  0
 34 35  1  0
  4 36  1  0
  2 37  1  0
  1 38  1  0
 34  1  1  0
 19  6  1  0
 26 22  1  0
 12  9  1  0
M  END
>  <cnnaffinity>  (1) 
-5.62685

>  <filename>  (1) 
c1cncc(-n2nc(C3CSC3)nc2CCc2ccn[nH]2)c1

$$$$
