
     RDKit          3D

 37 39  0  0  0  0  0  0  0  0999 V2000
    4.9619    1.8129   16.8977 H   0  0  0  0  0  0  0  0  0  0  0  0
    5.4017    1.3539   17.7809 C   0  0  0  0  0  0  0  0  0  0  0  0
    6.5826    0.7440   17.5989 N   0  0  0  0  0  0  0  0  0  0  0  0
    7.1437    0.1687   18.6685 C   0  0  0  0  0  0  0  0  0  0  0  0
    8.1131   -0.2989   18.5044 H   0  0  0  0  0  0  0  0  0  0  0  0
    6.5727    0.1494   19.9581 C   0  0  0  0  0  0  0  0  0  0  0  0
    7.2309   -0.5595   21.0934 C   0  0  0  0  0  0  0  0  0  0  0  0
    7.6450   -1.9047   20.9955 C   0  0  0  0  0  0  0  0  0  0  0  0
    7.3827   -2.4920   20.1270 H   0  0  0  0  0  0  0  0  0  0  0  0
    8.3183   -2.5443   21.9546 N   0  0  0  0  0  0  0  0  0  0  0  0
    8.5670   -1.9276   23.1137 N   0  0  0  0  0  0  0  0  0  0  0  0
    8.1215   -0.6801   23.3269 C   0  0  0  0  0  0  0  0  0  0  0  0
    8.2909   -0.1672   24.7457 C   0  0  0  0  0  0  0  0  0  0  0  0
    7.9512   -1.0105   25.3813 H   0  0  0  0  0  0  0  0  0  0  0  0
    7.5704    0.6662   24.8973 H   0  0  0  0  0  0  0  0  0  0  0  0
    9.6773    0.2678   25.0489 N   0  0  0  0  0  0  0  0  0  0  0  0
   10.1054    1.4198   24.1878 C   0  0  0  0  0  0  0  0  0  0  0  0
    9.7505    2.3893   24.6013 H   0  0  0  0  0  0  0  0  0  0  0  0
    9.5807    1.3036   23.2398 H   0  0  0  0  0  0  0  0  0  0  0  0
   11.6791    1.4892   23.9003 C   0  0  0  0  0  0  0  0  0  0  0  0
   12.0135    2.5215   24.1542 H   0  0  0  0  0  0  0  0  0  0  0  0
   11.8216    1.4440   22.7971 H   0  0  0  0  0  0  0  0  0  0  0  0
   12.4426    0.5195   24.5821 C   0  0  0  0  0  0  0  0  0  0  0  0
   13.5106    0.5745   24.4784 H   0  0  0  0  0  0  0  0  0  0  0  0
   12.0225   -0.3225   25.0884 H   0  0  0  0  0  0  0  0  0  0  0  0
   10.3467    0.0873   26.3024 C   0  0  0  0  0  0  0  0  0  0  0  0
   10.8745    0.0022   27.4530 H   0  0  0  0  0  0  0  0  0  0  0  0
   10.8618    1.1975   26.4442 H   0  0  0  0  0  0  0  0  0  0  0  0
   10.1071    0.1919   26.4188 C   0  0  0  0  0  0  0  0  0  0  0  0
    9.8636   -1.0398   26.4278 H   0  0  0  0  0  0  0  0  0  0  0  0
    8.7834    0.7990   27.2128 H   0  0  0  0  0  0  0  0  0  0  0  0
    7.4666    0.0527   22.3181 C   0  0  0  0  0  0  0  0  0  0  0  0
    7.1577    1.0777   22.4940 H   0  0  0  0  0  0  0  0  0  0  0  0
    5.3507    0.8160   20.1257 C   0  0  0  0  0  0  0  0  0  0  0  0
    4.8825    0.8488   21.1115 H   0  0  0  0  0  0  0  0  0  0  0  0
    4.7506    1.4179   19.0178 C   0  0  0  0  0  0  0  0  0  0  0  0
    3.8094    1.9488   19.0997 H   0  0  0  0  0  0  0  0  0  0  0  0
  1  2  1  0
  2  3  2  0
  3  4  1  0
  4  5  1  0
  4  6  2  0
  6  7  1  0
  7  8  2  0
  8  9  1  0
  8 10  1  0
 10 11  2  0
 11 12  1  0
 12 13  1  0
 13 14  1  0
 13 15  1  0
 13 16  1  0
 16 17  1  0
 17 18  1  0
 17 19  1  0
 17 20  1  0
 20 21  1  0
 20 22  1  0
 20 23  1  0
 23 24  1  0
 23 25  1  0
 23 26  1  0
 26 27  1  0
 26 28  1  0
 26 29  1  0
 29 30  1  0
 29 31  1  0
 12 32  2  0
 32 33  1  0
  6 34  1  0
 34 35  1  0
 34 36  2  0
 36 37  1  0
 36  2  1  0
 32  7  1  0
 29 16  1  0
M  END
>  <cnnaffinity>  (1) 
-4.99891

>  <filename>  (1) 
c1cncc(-c2cnnc(CN3CCCCC3)c2)c1

$$$$
