
     RDKit          3D

 40 43  0  0  0  0  0  0  0  0999 V2000
    4.8125    1.3062   19.1086 C   0  0  0  0  0  0  0  0  0  0  0  0
    5.4034    1.2933   17.8393 C   0  0  0  0  0  0  0  0  0  0  0  0
    6.5585    0.6631   17.5775 N   0  0  0  0  0  0  0  0  0  0  0  0
    7.1729    0.0432   18.5923 C   0  0  0  0  0  0  0  0  0  0  0  0
    6.6698    0.0081   19.9045 C   0  0  0  0  0  0  0  0  0  0  0  0
    7.3624   -0.6489   20.9643 N   0  0  0  0  0  0  0  0  0  0  0  0
    6.7379   -1.5933   21.7153 N   0  0  0  0  0  0  0  0  0  0  0  0
    7.6752   -1.9581   22.5692 C   0  0  0  0  0  0  0  0  0  0  0  0
    7.4715   -3.0241   23.5814 C   0  0  0  0  0  0  0  0  0  0  0  0
    8.4507   -4.1722   23.6717 C   0  0  0  0  0  0  0  0  0  0  0  0
    7.0603   -4.4109   23.1399 C   0  0  0  0  0  0  0  0  0  0  0  0
    6.9149   -4.5616   22.0684 H   0  0  0  0  0  0  0  0  0  0  0  0
    6.3332   -4.9416   23.7524 H   0  0  0  0  0  0  0  0  0  0  0  0
    9.2945   -4.1576   22.9799 H   0  0  0  0  0  0  0  0  0  0  0  0
    8.7204   -4.5268   24.6651 H   0  0  0  0  0  0  0  0  0  0  0  0
    7.0535   -2.6263   24.5096 H   0  0  0  0  0  0  0  0  0  0  0  0
    8.8470   -1.2717   22.4612 N   0  0  0  0  0  0  0  0  0  0  0  0
    8.6247   -0.4597   21.4470 C   0  0  0  0  0  0  0  0  0  0  0  0
    9.5253    0.6150   20.9489 C   0  0  0  0  0  0  0  0  0  0  0  0
    9.0197    2.0155   21.3374 C   0  0  0  0  0  0  0  0  0  0  0  0
    8.8686    2.2116   22.8609 C   0  0  0  0  0  0  0  0  0  0  0  0
   10.1993    2.0925   23.5670 C   0  0  0  0  0  0  0  0  0  0  0  0
   10.6164    1.0340   24.3137 C   0  0  0  0  0  0  0  0  0  0  0  0
   12.2743    1.1574   24.7564 S   0  0  0  0  0  0  0  0  0  0  0  0
   12.4344    2.6566   23.9289 C   0  0  0  0  0  0  0  0  0  0  0  0
   11.2580    3.0454   23.3715 C   0  0  0  0  0  0  0  0  0  0  0  0
   11.1293    3.9715   22.8132 H   0  0  0  0  0  0  0  0  0  0  0  0
   13.4015    3.1514   23.8691 H   0  0  0  0  0  0  0  0  0  0  0  0
   10.0521    0.1345   24.5433 H   0  0  0  0  0  0  0  0  0  0  0  0
    8.4472    3.2051   23.0530 H   0  0  0  0  0  0  0  0  0  0  0  0
    8.1606    1.4754   23.2672 H   0  0  0  0  0  0  0  0  0  0  0  0
    9.7337    2.7481   20.9529 H   0  0  0  0  0  0  0  0  0  0  0  0
    8.0648    2.2092   20.8367 H   0  0  0  0  0  0  0  0  0  0  0  0
    9.5838    0.5262   19.8618 H   0  0  0  0  0  0  0  0  0  0  0  0
   10.5276    0.4254   21.3483 H   0  0  0  0  0  0  0  0  0  0  0  0
    5.4484    0.6386   20.1598 C   0  0  0  0  0  0  0  0  0  0  0  0
    5.0248    0.5903   21.1633 H   0  0  0  0  0  0  0  0  0  0  0  0
    8.1123   -0.4526   18.3515 H   0  0  0  0  0  0  0  0  0  0  0  0
    4.9346    1.8029   17.0000 H   0  0  0  0  0  0  0  0  0  0  0  0
    3.8777    1.8380   19.2585 H   0  0  0  0  0  0  0  0  0  0  0  0
  1  2  2  0
  2  3  1  0
  3  4  2  0
  4  5  1  0
  5  6  1  0
  6  7  1  0
  7  8  2  0
  8  9  1  0
  9 10  1  0
 10 11  1  0
 11 12  1  0
 11 13  1  0
 10 14  1  0
 10 15  1  0
  9 16  1  0
  8 17  1  0
 17 18  2  0
 18 19  1  0
 19 20  1  0
 20 21  1  0
 21 22  1  0
 22 23  2  0
 23 24  1  0
 24 25  1  0
 25 26  2  0
 26 27  1  0
 25 28  1  0
 23 29  1  0
 21 30  1  0
 21 31  1  0
 20 32  1  0
 20 33  1  0
 19 34  1  0
 19 35  1  0
  5 36  2  0
 36 37  1  0
  4 38  1  0
  2 39  1  0
  1 40  1  0
 36  1  1  0
 18  6  1  0
 26 22  1  0
 11  9  1  0
M  END
>  <cnnaffinity>  (1) 
-6.14863

>  <filename>  (1) 
c1cncc(-n2nc(C3CC3)nc2CCCc2ccsc2)c1

$$$$
