
     RDKit          3D

 43 46  0  0  0  0  0  0  0  0999 V2000
    4.7917    1.4015   19.0262 C   0  0  0  0  0  0  0  0  0  0  0  0
    5.4122    1.3234   17.7756 C   0  0  0  0  0  0  0  0  0  0  0  0
    6.5523    0.6429   17.5624 N   0  0  0  0  0  0  0  0  0  0  0  0
    7.1235    0.0447   18.6109 C   0  0  0  0  0  0  0  0  0  0  0  0
    6.6288    0.1575   19.9240 C   0  0  0  0  0  0  0  0  0  0  0  0
    7.3538   -0.4607   20.9780 N   0  0  0  0  0  0  0  0  0  0  0  0
    7.7519   -1.7433   20.7987 N   0  0  0  0  0  0  0  0  0  0  0  0
    8.1274   -2.1185   22.0015 C   0  0  0  0  0  0  0  0  0  0  0  0
    8.5472   -3.5326   22.2283 C   0  0  0  0  0  0  0  0  0  0  0  0
    7.4987   -4.3973   22.9343 C   0  0  0  0  0  0  0  0  0  0  0  0
    7.9732   -5.8089   23.3554 C   0  0  0  0  0  0  0  0  0  0  0  0
    7.7356   -5.4510   24.8416 C   0  0  0  0  0  0  0  0  0  0  0  0
    7.2387   -4.0460   24.4201 C   0  0  0  0  0  0  0  0  0  0  0  0
    7.8337   -3.2021   24.7928 H   0  0  0  0  0  0  0  0  0  0  0  0
    6.1905   -3.8219   24.6481 H   0  0  0  0  0  0  0  0  0  0  0  0
    6.9813   -6.0744   25.3300 H   0  0  0  0  0  0  0  0  0  0  0  0
    8.6249   -5.4419   25.4824 H   0  0  0  0  0  0  0  0  0  0  0  0
    8.9992   -6.0620   23.0834 H   0  0  0  0  0  0  0  0  0  0  0  0
    7.3375   -6.6175   22.9837 H   0  0  0  0  0  0  0  0  0  0  0  0
    6.5769   -4.4410   22.3358 H   0  0  0  0  0  0  0  0  0  0  0  0
    9.4858   -3.5407   22.7917 H   0  0  0  0  0  0  0  0  0  0  0  0
    8.7252   -3.9479   21.2365 H   0  0  0  0  0  0  0  0  0  0  0  0
    8.0576   -1.1393   22.9481 N   0  0  0  0  0  0  0  0  0  0  0  0
    7.5988   -0.0948   22.2715 C   0  0  0  0  0  0  0  0  0  0  0  0
    7.5773    1.3430   22.7123 C   0  0  0  0  0  0  0  0  0  0  0  0
    8.5405    2.2678   21.9039 C   0  0  0  0  0  0  0  0  0  0  0  0
    9.9779    1.8236   21.9673 C   0  0  0  0  0  0  0  0  0  0  0  0
   10.5427    0.7712   21.3048 C   0  0  0  0  0  0  0  0  0  0  0  0
   11.8185    0.6604   21.8064 N   0  0  0  0  0  0  0  0  0  0  0  0
   11.9636    1.6335   22.7446 C   0  0  0  0  0  0  0  0  0  0  0  0
   10.8805    2.3511   22.8667 N   0  0  0  0  0  0  0  0  0  0  0  0
   12.8773    1.7601   23.3185 H   0  0  0  0  0  0  0  0  0  0  0  0
   12.5079   -0.0444   21.5917 H   0  0  0  0  0  0  0  0  0  0  0  0
   10.1052    0.0845   20.5922 H   0  0  0  0  0  0  0  0  0  0  0  0
    8.4955    3.2858   22.3067 H   0  0  0  0  0  0  0  0  0  0  0  0
    8.2033    2.3044   20.8586 H   0  0  0  0  0  0  0  0  0  0  0  0
    7.8472    1.3649   23.7723 H   0  0  0  0  0  0  0  0  0  0  0  0
    6.5589    1.7384   22.6259 H   0  0  0  0  0  0  0  0  0  0  0  0
    5.4082    0.8083   20.1328 C   0  0  0  0  0  0  0  0  0  0  0  0
    4.9434    0.8157   21.1203 H   0  0  0  0  0  0  0  0  0  0  0  0
    8.0040   -0.5611   18.4022 H   0  0  0  0  0  0  0  0  0  0  0  0
    4.9641    1.7937   16.9045 H   0  0  0  0  0  0  0  0  0  0  0  0
    3.8418    1.9133   19.1272 H   0  0  0  0  0  0  0  0  0  0  0  0
  1  2  2  0
  2  3  1  0
  3  4  2  0
  4  5  1  0
  5  6  1  0
  6  7  1  0
  7  8  2  0
  8  9  1  0
  9 10  1  0
 10 11  1  0
 11 12  1  0
 12 13  1  0
 13 14  1  0
 13 15  1  0
 12 16  1  0
 12 17  1  0
 11 18  1  0
 11 19  1  0
 10 20  1  0
  9 21  1  0
  9 22  1  0
  8 23  1  0
 23 24  2  0
 24 25  1  0
 25 26  1  0
 26 27  1  0
 27 28  2  0
 28 29  1  0
 29 30  1  0
 30 31  2  0
 30 32  1  0
 29 33  1  0
 28 34  1  0
 26 35  1  0
 26 36  1  0
 25 37  1  0
 25 38  1  0
  5 39  2  0
 39 40  1  0
  4 41  1  0
  2 42  1  0
  1 43  1  0
 39  1  1  0
 24  6  1  0
 31 27  1  0
 13 10  1  0
M  END
>  <cnnaffinity>  (1) 
-6.02942

>  <filename>  (1) 
c1cncc(-n2nc(CC3CCC3)nc2CCc2c[nH]cn2)c1

$$$$
