
     RDKit          3D

 31 33  0  0  0  0  0  0  0  0999 V2000
    4.9135    1.7831   16.9936 H   0  0  0  0  0  0  0  0  0  0  0  0
    5.3992    1.2947   17.8366 C   0  0  0  0  0  0  0  0  0  0  0  0
    6.5614    0.6761   17.5789 N   0  0  0  0  0  0  0  0  0  0  0  0
    7.1754    0.0610   18.5926 C   0  0  0  0  0  0  0  0  0  0  0  0
    8.1129   -0.4335   18.3592 H   0  0  0  0  0  0  0  0  0  0  0  0
    6.6726    0.0076   19.9059 C   0  0  0  0  0  0  0  0  0  0  0  0
    7.3753   -0.6802   20.9391 N   0  0  0  0  0  0  0  0  0  0  0  0
    8.7273   -0.8614   21.1065 C   0  0  0  0  0  0  0  0  0  0  0  0
    9.4185   -0.4419   20.3810 H   0  0  0  0  0  0  0  0  0  0  0  0
    9.0299   -1.5393   22.1843 N   0  0  0  0  0  0  0  0  0  0  0  0
    7.8228   -1.8286   22.7736 C   0  0  0  0  0  0  0  0  0  0  0  0
    7.7288   -2.6007   23.9185 N   0  0  0  0  0  0  0  0  0  0  0  0
    8.8904   -2.7199   24.8050 C   0  0  0  0  0  0  0  0  0  0  0  0
    9.0473   -1.8107   25.4063 H   0  0  0  0  0  0  0  0  0  0  0  0
    9.7870   -2.8607   24.1939 H   0  0  0  0  0  0  0  0  0  0  0  0
    8.7364   -3.9091   25.7610 C   0  0  0  0  0  0  0  0  0  0  0  0
    8.8234   -4.8503   25.1998 H   0  0  0  0  0  0  0  0  0  0  0  0
    9.5270   -3.8962   26.5148 H   0  0  0  0  0  0  0  0  0  0  0  0
    7.4993   -3.8947   26.4562 O   0  0  0  0  0  0  0  0  0  0  0  0
    6.4361   -3.9834   25.5222 C   0  0  0  0  0  0  0  0  0  0  0  0
    6.5200   -4.9284   24.9667 H   0  0  0  0  0  0  0  0  0  0  0  0
    5.5059   -4.0165   26.0942 H   0  0  0  0  0  0  0  0  0  0  0  0
    6.4158   -2.8041   24.5401 C   0  0  0  0  0  0  0  0  0  0  0  0
    6.0538   -1.9146   25.0801 H   0  0  0  0  0  0  0  0  0  0  0  0
    5.6781   -3.0343   23.7648 H   0  0  0  0  0  0  0  0  0  0  0  0
    6.7972   -1.3181   22.0232 C   0  0  0  0  0  0  0  0  0  0  0  0
    5.7407   -1.3631   22.1731 H   0  0  0  0  0  0  0  0  0  0  0  0
    5.4477    0.6460   20.1634 C   0  0  0  0  0  0  0  0  0  0  0  0
    5.0139    0.6390   21.1679 H   0  0  0  0  0  0  0  0  0  0  0  0
    4.8119    1.3075   19.1076 C   0  0  0  0  0  0  0  0  0  0  0  0
    3.8780    1.8394   19.2635 H   0  0  0  0  0  0  0  0  0  0  0  0
  1  2  1  0
  2  3  2  0
  3  4  1  0
  4  5  1  0
  4  6  2  0
  6  7  1  0
  7  8  1  0
  8  9  1  0
  8 10  2  0
 10 11  1  0
 11 12  1  0
 12 13  1  0
 13 14  1  0
 13 15  1  0
 13 16  1  0
 16 17  1  0
 16 18  1  0
 16 19  1  0
 19 20  1  0
 20 21  1  0
 20 22  1  0
 20 23  1  0
 23 24  1  0
 23 25  1  0
 11 26  2  0
 26 27  1  0
  6 28  1  0
 28 29  1  0
 28 30  2  0
 30 31  1  0
 30  2  1  0
 26  7  1  0
 23 12  1  0
M  END
>  <cnnaffinity>  (1) 
-4.65114

>  <filename>  (1) 
c1cncc(-n2cnc(N3CCOCC3)c2)c1

$$$$
