
     RDKit          3D

 35 38  0  0  0  0  0  0  0  0999 V2000
    4.9106    1.8061   16.9745 H   0  0  0  0  0  0  0  0  0  0  0  0
    5.3851    1.3072   17.8180 C   0  0  0  0  0  0  0  0  0  0  0  0
    6.5483    0.6907   17.5515 N   0  0  0  0  0  0  0  0  0  0  0  0
    7.1579    0.0674   18.5658 C   0  0  0  0  0  0  0  0  0  0  0  0
    8.1139   -0.3973   18.3260 H   0  0  0  0  0  0  0  0  0  0  0  0
    6.6531    0.0158   19.8823 C   0  0  0  0  0  0  0  0  0  0  0  0
    7.3700   -0.6643   20.9759 C   0  0  0  0  0  0  0  0  0  0  0  0
    7.5360   -0.3246   22.3128 C   0  0  0  0  0  0  0  0  0  0  0  0
    7.0927    0.8476   22.9276 N   0  0  0  0  0  0  0  0  0  0  0  0
    6.9374    1.6357   22.3185 H   0  0  0  0  0  0  0  0  0  0  0  0
    7.0042    1.0652   24.2999 C   0  0  0  0  0  0  0  0  0  0  0  0
    6.3928    0.1190   25.0922 C   0  0  0  0  0  0  0  0  0  0  0  0
    6.0255   -0.7727   24.5922 H   0  0  0  0  0  0  0  0  0  0  0  0
    6.2671    0.2953   26.4904 C   0  0  0  0  0  0  0  0  0  0  0  0
    5.7864   -0.4838   27.0789 H   0  0  0  0  0  0  0  0  0  0  0  0
    6.7600    1.4394   27.0805 C   0  0  0  0  0  0  0  0  0  0  0  0
    6.6900    1.6327   28.1440 H   0  0  0  0  0  0  0  0  0  0  0  0
    7.3969    2.4416   26.2893 C   0  0  0  0  0  0  0  0  0  0  0  0
    7.8533    3.5516   26.9490 N   0  0  0  0  0  0  0  0  0  0  0  0
    8.4594    4.4755   26.2385 C   0  0  0  0  0  0  0  0  0  0  0  0
    8.8104    5.3480   26.7876 H   0  0  0  0  0  0  0  0  0  0  0  0
    8.6747    4.3910   24.8335 C   0  0  0  0  0  0  0  0  0  0  0  0
    9.1874    5.2025   24.3255 H   0  0  0  0  0  0  0  0  0  0  0  0
    8.2215    3.2922   24.1524 C   0  0  0  0  0  0  0  0  0  0  0  0
    8.3894    3.1841   23.0776 H   0  0  0  0  0  0  0  0  0  0  0  0
    7.5355    2.2654   24.8743 C   0  0  0  0  0  0  0  0  0  0  0  0
    8.2955   -1.3919   22.8611 C   0  0  0  0  0  0  0  0  0  0  0  0
    8.6402   -1.4872   23.8827 H   0  0  0  0  0  0  0  0  0  0  0  0
    8.5724   -2.3204   21.9509 N   0  0  0  0  0  0  0  0  0  0  0  0
    8.0129   -1.8518   20.8253 N   0  0  0  0  0  0  0  0  0  0  0  0
    8.0590   -2.4059   19.9800 H   0  0  0  0  0  0  0  0  0  0  0  0
    5.4350    0.6629   20.1364 C   0  0  0  0  0  0  0  0  0  0  0  0
    5.0198    0.6263   21.1452 H   0  0  0  0  0  0  0  0  0  0  0  0
    4.7917    1.3196   19.0862 C   0  0  0  0  0  0  0  0  0  0  0  0
    3.8606    1.8515   19.2389 H   0  0  0  0  0  0  0  0  0  0  0  0
  1  2  1  0
  2  3  2  0
  3  4  1  0
  4  5  1  0
  4  6  2  0
  6  7  1  0
  7  8  2  0
  8  9  1  0
  9 10  1  0
  9 11  1  0
 11 12  2  0
 12 13  1  0
 12 14  1  0
 14 15  1  0
 14 16  2  0
 16 17  1  0
 16 18  1  0
 18 19  2  0
 19 20  1  0
 20 21  1  0
 20 22  2  0
 22 23  1  0
 22 24  1  0
 24 25  1  0
 24 26  2  0
  8 27  1  0
 27 28  1  0
 27 29  2  0
 29 30  1  0
 30 31  1  0
  6 32  1  0
 32 33  1  0
 32 34  2  0
 34 35  1  0
 34  2  1  0
 30  7  1  0
 26 11  1  0
 26 18  1  0
M  END
>  <cnnaffinity>  (1) 
-5.61898

>  <filename>  (1) 
c1cncc(-c2[nH]ncc2Nc2cccc3ncccc23)c1

$$$$
