
     RDKit          3D

 32 35  0  0  0  0  0  0  0  0999 V2000
    4.9346    1.8394   16.7626 H   0  0  0  0  0  0  0  0  0  0  0  0
    5.4312    1.3683   17.6094 C   0  0  0  0  0  0  0  0  0  0  0  0
    6.5936    0.7531   17.3477 N   0  0  0  0  0  0  0  0  0  0  0  0
    7.2294    0.1609   18.3669 C   0  0  0  0  0  0  0  0  0  0  0  0
    8.1782   -0.3105   18.1172 H   0  0  0  0  0  0  0  0  0  0  0  0
    6.7254    0.1258   19.6783 C   0  0  0  0  0  0  0  0  0  0  0  0
    7.4446   -0.5625   20.7827 C   0  0  0  0  0  0  0  0  0  0  0  0
    8.7882   -0.5197   20.7805 N   0  0  0  0  0  0  0  0  0  0  0  0
    9.4802   -1.0171   21.8147 N   0  0  0  0  0  0  0  0  0  0  0  0
    8.8439   -1.6096   22.8336 C   0  0  0  0  0  0  0  0  0  0  0  0
    9.4694   -1.9722   23.6433 H   0  0  0  0  0  0  0  0  0  0  0  0
    7.4378   -1.7659   22.8738 C   0  0  0  0  0  0  0  0  0  0  0  0
    6.7548   -2.4242   24.0081 C   0  0  0  0  0  0  0  0  0  0  0  0
    5.8201   -1.8184   24.7811 C   0  0  0  0  0  0  0  0  0  0  0  0
    5.4776   -0.7987   24.6697 H   0  0  0  0  0  0  0  0  0  0  0  0
    5.2240   -2.7898   26.0810 S   0  0  0  0  0  0  0  0  0  0  0  0
    6.3291   -4.0753   25.6601 C   0  0  0  0  0  0  0  0  0  0  0  0
    6.6025   -5.2537   26.3816 C   0  0  0  0  0  0  0  0  0  0  0  0
    6.0392   -5.5092   27.2762 H   0  0  0  0  0  0  0  0  0  0  0  0
    7.6286   -6.0779   25.9368 C   0  0  0  0  0  0  0  0  0  0  0  0
    7.9234   -6.9234   26.5482 H   0  0  0  0  0  0  0  0  0  0  0  0
    8.3321   -5.8008   24.7449 C   0  0  0  0  0  0  0  0  0  0  0  0
    9.1244   -6.4652   24.4150 H   0  0  0  0  0  0  0  0  0  0  0  0
    8.0345   -4.6621   24.0117 C   0  0  0  0  0  0  0  0  0  0  0  0
    8.5492   -4.4536   23.0748 H   0  0  0  0  0  0  0  0  0  0  0  0
    7.0651   -3.7569   24.4940 C   0  0  0  0  0  0  0  0  0  0  0  0
    6.7361   -1.2120   21.8138 C   0  0  0  0  0  0  0  0  0  0  0  0
    5.6580   -1.3090   21.7356 H   0  0  0  0  0  0  0  0  0  0  0  0
    5.5129    0.7822   19.9319 C   0  0  0  0  0  0  0  0  0  0  0  0
    5.0981    0.8176   20.9411 H   0  0  0  0  0  0  0  0  0  0  0  0
    4.8559    1.4158   18.8821 C   0  0  0  0  0  0  0  0  0  0  0  0
    3.9196    1.9408   19.0356 H   0  0  0  0  0  0  0  0  0  0  0  0
  1  2  1  0
  2  3  2  0
  3  4  1  0
  4  5  1  0
  4  6  2  0
  6  7  1  0
  7  8  2  0
  8  9  1  0
  9 10  2  0
 10 11  1  0
 10 12  1  0
 12 13  1  0
 13 14  2  0
 14 15  1  0
 14 16  1  0
 16 17  1  0
 17 18  2  0
 18 19  1  0
 18 20  1  0
 20 21  1  0
 20 22  2  0
 22 23  1  0
 22 24  1  0
 24 25  1  0
 24 26  2  0
 12 27  2  0
 27 28  1  0
  6 29  1  0
 29 30  1  0
 29 31  2  0
 31 32  1  0
 31  2  1  0
 27  7  1  0
 26 13  1  0
 26 17  1  0
M  END
>  <cnnaffinity>  (1) 
-5.47103

>  <filename>  (1) 
c1cncc(-c2cc(-c3csc4ccccc34)cnn2)c1

$$$$
