
     RDKit          3D

 26 28  0  0  0  0  0  0  0  0999 V2000
    8.8482   -3.1997   22.2099 H   0  0  0  0  0  0  0  0  0  0  0  0
    8.3491   -2.2839   21.9222 C   0  0  0  0  0  0  0  0  0  0  0  0
    7.9429   -1.9432   20.7479 N   0  0  0  0  0  0  0  0  0  0  0  0
    7.3601   -0.7030   20.9431 C   0  0  0  0  0  0  0  0  0  0  0  0
    6.6451   -0.0029   19.8886 C   0  0  0  0  0  0  0  0  0  0  0  0
    7.1674    0.0415   18.5866 C   0  0  0  0  0  0  0  0  0  0  0  0
    8.1191   -0.4365   18.3685 H   0  0  0  0  0  0  0  0  0  0  0  0
    6.5688    0.6751   17.5764 N   0  0  0  0  0  0  0  0  0  0  0  0
    5.4056    1.2926   17.8370 C   0  0  0  0  0  0  0  0  0  0  0  0
    4.9241    1.7830   16.9954 H   0  0  0  0  0  0  0  0  0  0  0  0
    4.8011    1.3094   19.0994 C   0  0  0  0  0  0  0  0  0  0  0  0
    3.8721    1.8443   19.2537 H   0  0  0  0  0  0  0  0  0  0  0  0
    5.4265    0.6459   20.1489 C   0  0  0  0  0  0  0  0  0  0  0  0
    5.0067    0.6384   21.1589 H   0  0  0  0  0  0  0  0  0  0  0  0
    7.5084   -0.3371   22.2621 C   0  0  0  0  0  0  0  0  0  0  0  0
    7.2018    0.9001   22.9728 C   0  0  0  0  0  0  0  0  0  0  0  0
    6.7674    0.9021   24.3122 C   0  0  0  0  0  0  0  0  0  0  0  0
    6.6824   -0.0328   24.8537 H   0  0  0  0  0  0  0  0  0  0  0  0
    6.4219    2.0045   24.9819 N   0  0  0  0  0  0  0  0  0  0  0  0
    6.5121    3.1691   24.3281 C   0  0  0  0  0  0  0  0  0  0  0  0
    6.2401    4.0499   24.8983 H   0  0  0  0  0  0  0  0  0  0  0  0
    6.9313    3.2886   23.0001 C   0  0  0  0  0  0  0  0  0  0  0  0
    6.9803    4.2614   22.5262 H   0  0  0  0  0  0  0  0  0  0  0  0
    7.2843    2.1365   22.3064 C   0  0  0  0  0  0  0  0  0  0  0  0
    7.6043    2.1894   21.2642 H   0  0  0  0  0  0  0  0  0  0  0  0
    8.1210   -1.3791   22.8980 O   0  0  0  0  0  0  0  0  0  0  0  0
  1  2  1  0
  2  3  2  0
  3  4  1  0
  4  5  1  0
  5  6  2  0
  6  7  1  0
  6  8  1  0
  8  9  2  0
  9 10  1  0
  9 11  1  0
 11 12  1  0
 11 13  2  0
 13 14  1  0
  4 15  2  0
 15 16  1  0
 16 17  2  0
 17 18  1  0
 17 19  1  0
 19 20  2  0
 20 21  1  0
 20 22  1  0
 22 23  1  0
 22 24  2  0
 24 25  1  0
 15 26  1  0
 26  2  1  0
 13  5  1  0
 24 16  1  0
M  END
>  <cnnaffinity>  (1) 
-4.77429

>  <filename>  (1) 
c1cncc(-c2ncoc2-c2cccnc2)c1

$$$$
