
     RDKit          3D

 32 34  0  0  0  0  0  0  0  0999 V2000
    5.0439    1.7661   16.9635 H   0  0  0  0  0  0  0  0  0  0  0  0
    5.4897    1.2826   17.8306 C   0  0  0  0  0  0  0  0  0  0  0  0
    6.6458    0.6316   17.6212 N   0  0  0  0  0  0  0  0  0  0  0  0
    7.2210    0.0315   18.6713 C   0  0  0  0  0  0  0  0  0  0  0  0
    8.1663   -0.4729   18.4754 H   0  0  0  0  0  0  0  0  0  0  0  0
    6.6864    0.0442   19.9737 C   0  0  0  0  0  0  0  0  0  0  0  0
    7.3664   -0.6511   21.0253 N   0  0  0  0  0  0  0  0  0  0  0  0
    7.5412   -2.0173   21.0201 C   0  0  0  0  0  0  0  0  0  0  0  0
    7.0791   -2.5973   20.2384 H   0  0  0  0  0  0  0  0  0  0  0  0
    8.2731   -2.3782   22.1169 C   0  0  0  0  0  0  0  0  0  0  0  0
    8.5729   -3.3811   22.3892 H   0  0  0  0  0  0  0  0  0  0  0  0
    8.5624   -1.1835   22.8316 C   0  0  0  0  0  0  0  0  0  0  0  0
    9.1281   -1.0955   23.7515 H   0  0  0  0  0  0  0  0  0  0  0  0
    7.9910   -0.1336   22.1581 C   0  0  0  0  0  0  0  0  0  0  0  0
    7.9683    1.3264   22.4963 C   0  0  0  0  0  0  0  0  0  0  0  0
    8.3779    1.4546   23.5019 H   0  0  0  0  0  0  0  0  0  0  0  0
    6.9154    1.6456   22.5528 H   0  0  0  0  0  0  0  0  0  0  0  0
    8.7228    2.2260   21.4941 C   0  0  0  0  0  0  0  0  0  0  0  0
    9.7356    1.8397   21.3265 H   0  0  0  0  0  0  0  0  0  0  0  0
    8.2131    2.1307   20.5203 H   0  0  0  0  0  0  0  0  0  0  0  0
    8.7468    3.6516   21.9524 C   0  0  0  0  0  0  0  0  0  0  0  0
    7.8514    4.0115   22.3530 H   0  0  0  0  0  0  0  0  0  0  0  0
    9.4169    4.0053   22.9669 C   0  0  0  0  0  0  0  0  0  0  0  0
    9.7437    3.3040   23.8669 H   0  0  0  0  0  0  0  0  0  0  0  0
    9.1633    4.9925   23.6373 H   0  0  0  0  0  0  0  0  0  0  0  0
    9.7860    4.0665   22.9230 C   0  0  0  0  0  0  0  0  0  0  0  0
   11.0302    3.3013   22.3702 H   0  0  0  0  0  0  0  0  0  0  0  0
   10.8806    5.0089   22.8414 H   0  0  0  0  0  0  0  0  0  0  0  0
    5.4724    0.7200   20.1762 C   0  0  0  0  0  0  0  0  0  0  0  0
    5.0081    0.7275   21.1638 H   0  0  0  0  0  0  0  0  0  0  0  0
    4.8671    1.3451   19.0814 C   0  0  0  0  0  0  0  0  0  0  0  0
    3.9328    1.8851   19.1911 H   0  0  0  0  0  0  0  0  0  0  0  0
  1  2  1  0
  2  3  2  0
  3  4  1  0
  4  5  1  0
  4  6  2  0
  6  7  1  0
  7  8  1  0
  8  9  1  0
  8 10  2  0
 10 11  1  0
 10 12  1  0
 12 13  1  0
 12 14  2  0
 14 15  1  0
 15 16  1  0
 15 17  1  0
 15 18  1  0
 18 19  1  0
 18 20  1  0
 18 21  1  0
 21 22  1  0
 21 23  1  0
 23 24  1  0
 23 25  1  0
 23 26  1  0
 26 27  1  0
 26 28  1  0
  6 29  1  0
 29 30  1  0
 29 31  2  0
 31 32  1  0
 31  2  1  0
 14  7  1  0
 26 21  1  0
M  END
>  <cnnaffinity>  (1) 
-4.83814

>  <filename>  (1) 
c1cncc(-n2cccc2CCC2CC2)c1

$$$$
